#------------------------------------------------------------------------------
#$Date: 2021-07-02 12:33:34 +0300 (Fri, 02 Jul 2021) $
#$Revision: 266902 $
#$URL: file:///home/coder/svn-repositories/cod/cif/1/56/38/1563889.cif $
#------------------------------------------------------------------------------
#
# This file is available in the Crystallography Open Database (COD),
# http://www.crystallography.net/
#
# All data on this site have been placed in the public domain by the
# contributors.
#
data_1563889
loop_
_publ_author_name
'Kawade, Vitthal A.'
'Bhat, Satish S.'
'Tayade, Sakharam B.'
'Kumbhar, Avinash S.'
_publ_section_title
;
 A one-dimensional self-assembled porous coordination polymer
 poly[bis(picolinato-N,O)(&#x00B5;-1,2-bis(4-pyridyl)ethane-N,N&#x2032;)cobalt(II)]
 dimethanol
;
_journal_name_full               'Inorganica Chimica Acta'
_journal_page_first              539
_journal_page_last               543
_journal_paper_doi               10.1016/j.ica.2018.09.006
_journal_volume                  483
_journal_year                    2018
_chemical_formula_moiety         'C24 H20 Co N4 O4, 2(C H4 O)'
_chemical_formula_sum            'C26 H28 Co N4 O6'
_chemical_formula_weight         551.45
_space_group_crystal_system      triclinic
_space_group_IT_number           2
_space_group_name_Hall           '-P 1'
_space_group_name_H-M_alt        'P -1'
_atom_sites_solution_hydrogens   geom
_cell_angle_alpha                84.0940(10)
_cell_angle_beta                 79.8290(10)
_cell_angle_gamma                73.5180(10)
_cell_formula_units_Z            1
_cell_length_a                   8.4181(2)
_cell_length_b                   8.4352(2)
_cell_length_c                   9.3843(3)
_cell_measurement_reflns_used    7105
_cell_measurement_temperature    150(2)
_cell_measurement_theta_max      72.32
_cell_measurement_theta_min      4.80
_cell_volume                     627.96(3)
_computing_cell_refinement       'Bruker SAINT'
_computing_data_collection       'Bruker APEX2'
_computing_data_reduction        'Bruker SAINT'
_computing_molecular_graphics    'Bruker SHELXTL'
_computing_publication_material  'Bruker SHELXTL'
_computing_structure_refinement  'SHELXL-2014 (Sheldrick 2014)'
_computing_structure_solution    'SHELXS-97 (Sheldrick 2008)'
_diffrn_ambient_temperature      150(2)
_diffrn_measured_fraction_theta_full 0.980
_diffrn_measured_fraction_theta_max 0.973
_diffrn_measurement_device_type  'Bruker APEX-II CCD'
_diffrn_measurement_method       '\f and \w scans'
_diffrn_radiation_type           CuK\a
_diffrn_radiation_wavelength     1.54178
_diffrn_reflns_av_R_equivalents  0.0470
_diffrn_reflns_av_unetI/netI     0.0413
_diffrn_reflns_Laue_measured_fraction_full 0.980
_diffrn_reflns_Laue_measured_fraction_max 0.973
_diffrn_reflns_limit_h_max       10
_diffrn_reflns_limit_h_min       -10
_diffrn_reflns_limit_k_max       10
_diffrn_reflns_limit_k_min       -10
_diffrn_reflns_limit_l_max       11
_diffrn_reflns_limit_l_min       -11
_diffrn_reflns_number            8614
_diffrn_reflns_point_group_measured_fraction_full 0.980
_diffrn_reflns_point_group_measured_fraction_max 0.973
_diffrn_reflns_theta_full        67.679
_diffrn_reflns_theta_max         72.311
_diffrn_reflns_theta_min         4.795
_exptl_absorpt_coefficient_mu    5.776
_exptl_absorpt_correction_T_max  0.767
_exptl_absorpt_correction_T_min  0.579
_exptl_absorpt_correction_type   multi-scan
_exptl_absorpt_process_details   'BRUKER SADABS'
_exptl_crystal_colour            yellow
_exptl_crystal_density_diffrn    1.458
_exptl_crystal_description       NEEDLE
_exptl_crystal_F_000             287
_exptl_crystal_size_max          0.303
_exptl_crystal_size_mid          0.086
_exptl_crystal_size_min          0.046
_refine_diff_density_max         0.239
_refine_diff_density_min         -0.392
_refine_diff_density_rms         0.064
_refine_ls_extinction_coef       .
_refine_ls_extinction_method     none
_refine_ls_goodness_of_fit_ref   1.022
_refine_ls_hydrogen_treatment    RIDING
_refine_ls_matrix_type           full
_refine_ls_number_parameters     171
_refine_ls_number_reflns         2426
_refine_ls_number_restraints     0
_refine_ls_restrained_S_all      1.022
_refine_ls_R_factor_all          0.0382
_refine_ls_R_factor_gt           0.0375
_refine_ls_shift/su_max          0.000
_refine_ls_shift/su_mean         0.000
_refine_ls_structure_factor_coef Fsqd
_refine_ls_weighting_details
'w=1/[\s^2^(Fo^2^)+(0.0499P)^2^+0.4925P] where P=(Fo^2^+2Fc^2^)/3'
_refine_ls_weighting_scheme      calc
_refine_ls_wR_factor_gt          0.0966
_refine_ls_wR_factor_ref         0.0976
_reflns_Friedel_coverage         0.000
_reflns_Friedel_fraction_full    .
_reflns_Friedel_fraction_max     .
_reflns_number_gt                2406
_reflns_number_total             2426
_reflns_threshold_expression     'I > 2\s(I)'
_cod_data_source_file            ICA-2018-483-539.CIF
_cod_data_source_block           cu_CPBEN_0m
_cod_depositor_comments
;
The following automatic conversions were performed:

data item '_exptl_absorpt_correction_type' value 'MULTI-SCAN' was
changed to 'multi-scan' in accordance with the built-in table derived
from the CIF Core dictionary named 'cif_core.dic' version 2.4.5 last
updated on 2014-11-21.

Automatic conversion script
Id: cif_fix_values 8369 2020-08-20 11:38:08Z andrius 
;
_cod_database_code               1563889
_shelx_space_group_comment
;
The symmetry employed for this shelxl refinement is uniquely defined
by the following loop, which should always be used as a source of
symmetry information in preference to the above space-group names.
They are only intended as comments.
;
_shelxl_version_number           2014-3
_shelx_res_file
;
TITL cu_CPBEN_0m in P1                New: P-1
CELL  1.54178    8.4181    8.4352    9.3843    84.094    79.829    73.518
ZERR        1    0.0002    0.0002    0.0003     0.001     0.001     0.001
LATT 1
SFAC C  H  Co N  O
UNIT 26  28  1  4  6
L.S. 50
ACTA
BOND $H
FMAP 2
PLAN 30
WGHT    0.049900    0.492500
FVAR       0.27404
RESI 0
CONF
TEMP  -123
CO1   3    0.500000    0.000000    0.000000    10.50000    0.00945    0.01150 =
         0.01381   -0.00032   -0.00251   -0.00145
O1    5    0.654474    0.083507   -0.164519    11.00000    0.01213    0.01605 =
         0.01932   -0.00110   -0.00044   -0.00163
O2    5    0.673954    0.304441   -0.311298    11.00000    0.03333    0.02392 =
         0.02156    0.00250    0.00519   -0.00917
N1    4    0.383520    0.257682    0.001874    11.00000    0.01376    0.01345 =
         0.01554   -0.00270   -0.00379   -0.00211
N2    4    0.658333    0.010073    0.158244    11.00000    0.01298    0.01475 =
         0.01445    0.00008   -0.00372   -0.00213
C1    1    0.250320    0.342211    0.090387    11.00000    0.01483    0.01900 =
         0.02019   -0.00416   -0.00127   -0.00304
AFIX  43
H1    2    0.203142    0.285001    0.172004    11.00000   -1.20000
AFIX   0
C2    1    0.178917    0.510861    0.066696    11.00000    0.01691    0.01959 =
         0.03177   -0.00751   -0.00323    0.00167
AFIX  43
H2    2    0.085335    0.568529    0.131623    11.00000   -1.20000
AFIX   0
C3    1    0.246450    0.592558   -0.052606    11.00000    0.02596    0.01194 =
         0.03728   -0.00159   -0.00850    0.00146
AFIX  43
H3    2    0.198353    0.707351   -0.072185    11.00000   -1.20000
AFIX   0
C4    1    0.385073    0.506490   -0.144118    11.00000    0.02518    0.01682 =
         0.02472    0.00168   -0.00450   -0.00513
AFIX  43
H4    2    0.434160    0.561325   -0.226343    11.00000   -1.20000
AFIX   0
C5    1    0.450602    0.338678   -0.113138    11.00000    0.01485    0.01580 =
         0.01808   -0.00076   -0.00564   -0.00444
C6    1    0.605600    0.235842   -0.205547    11.00000    0.01721    0.01914 =
         0.01516   -0.00211   -0.00364   -0.00520
C7    1    0.825870   -0.051267    0.129417    11.00000    0.01541    0.01717 =
         0.01612   -0.00220   -0.00317   -0.00342
AFIX  43
H7    2    0.872155   -0.108804    0.043312    11.00000   -1.20000
AFIX   0
C8    1    0.934020   -0.035138    0.218086    11.00000    0.01272    0.02245 =
         0.02195   -0.00055   -0.00447   -0.00270
AFIX  43
H8    2    1.051401   -0.081607    0.193007    11.00000   -1.20000
AFIX   0
C9    1    0.870468    0.049505    0.344467    11.00000    0.01993    0.01699 =
         0.01792    0.00289   -0.00776   -0.00489
C10   1    0.696186    0.109105    0.376834    11.00000    0.02069    0.02133 =
         0.01722   -0.00289   -0.00288   -0.00235
AFIX  43
H10   2    0.646533    0.165075    0.463260    11.00000   -1.20000
AFIX   0
C11   1    0.596228    0.086490    0.282929    11.00000    0.01477    0.01844 =
         0.01750   -0.00288   -0.00207   -0.00219
AFIX  43
H11   2    0.478018    0.126862    0.307666    11.00000   -1.20000
AFIX   0
C12   1    0.984861    0.072118    0.442379    11.00000    0.02141    0.02490 =
         0.02364    0.00110   -0.00959   -0.00819
AFIX  23
H12A  2    0.934105    0.177656    0.490766    11.00000   -1.20000
H12B  2    1.093338    0.077962    0.383949    11.00000   -1.20000
AFIX   0
O1A   5    0.254196    0.396626    0.406863    11.00000    0.08126    0.04148 =
         0.03406   -0.00178    0.00098   -0.02663
AFIX 147
H1A   2    0.278737    0.483640    0.370935    11.00000   -1.50000
AFIX   0
C1A   1    0.229481    0.397031    0.557056    11.00000    0.09885    0.04852 =
         0.03379    0.00377   -0.00867   -0.02312
AFIX 137
H1A1  2    0.323979    0.423066    0.588142    11.00000   -1.50000
H1A2  2    0.221637    0.287657    0.598865    11.00000   -1.50000
H1A3  2    0.125380    0.480658    0.590196    11.00000   -1.50000
AFIX   0
HKLF 4

REM  cu_CPBEN_0m in P1                New: P-1
REM R1 =  0.0375 for    2406 Fo > 4sig(Fo)  and  0.0382 for all    2426 data
REM    171 parameters refined using      0 restraints

END

WGHT      0.0503      0.4272

REM Highest difference peak  0.239,  deepest hole -0.392,  1-sigma level  0.064
Q1    1   0.6077  0.0096  0.2231  11.00000  0.05    0.24
Q2    1   0.5216  0.2903 -0.1598  11.00000  0.05    0.23
Q3    1   0.4179  0.1621 -0.0038  11.00000  0.05    0.23
Q4    1   0.5796  0.0184  0.1017  11.00000  0.05    0.22
Q5    1   0.7396  0.0052 -0.2014  11.00000  0.05    0.21
Q6    1   0.7832  0.0449  0.3841  11.00000  0.05    0.20
Q7    1   0.6617  0.0251  0.6172  11.00000  0.05    0.20
Q8    1   0.4516 -0.0807 -0.0577  11.00000  0.05    0.19
Q9    1   0.4355  0.4174 -0.1104  11.00000  0.05    0.19
Q10   1   0.6730  0.2412  0.4585  11.00000  0.05    0.19
Q11   1   0.6325  0.0148 -0.1900  11.00000  0.05    0.19
Q12   1   0.2605  0.4406  0.1178  11.00000  0.05    0.19
Q13   1   0.5212  0.1221  0.6308  11.00000  0.05    0.19
Q14   1   0.6215  0.1965  0.0347  11.00000  0.05    0.18
Q15   1   0.0507  0.4958  0.1914  11.00000  0.05    0.18
Q16   1   0.6393  0.0068 -0.2504  11.00000  0.05    0.18
Q17   1   0.3642  0.3894  0.4666  11.00000  0.05    0.18
Q18   1   0.0610  0.5055  0.4490  11.00000  0.05    0.17
Q19   1   0.8481 -0.0767 -0.0721  11.00000  0.05    0.17
Q20   1   0.6332  0.0345  0.3707  11.00000  0.05    0.17
Q21   1   0.6214  0.0987 -0.2759  11.00000  0.05    0.17
Q22   1   0.6151  0.2489 -0.3951  11.00000  0.05    0.16
Q23   1   0.5007  0.1580  0.1034  11.00000  0.05    0.16
Q24   1   0.0727  0.6526  0.5640  11.00000  0.05    0.16
Q25   1   0.8404 -0.1824  0.0543  11.00000  0.05    0.16
Q26   1   0.5078  0.6541 -0.3787  11.00000  0.05    0.16
Q27   1   0.2490  0.1982  0.0092  11.00000  0.05    0.16
Q28   1   0.8112 -0.0881 -0.0036  11.00000  0.05    0.16
Q29   1   0.7362  0.0882  0.5202  11.00000  0.05    0.15
Q30   1   0.6687  0.1010  0.6037  11.00000  0.05    0.15
;
_shelx_res_checksum              79964
_shelx_hkl_file
;
  -1   0   0  184.43   10.83
  -1   0   0  184.10   10.86
  -1   0   0  191.43   10.85
  -1   0   0  185.13   10.82
   1   0   0  181.79   10.83
   1   0   0  198.94   10.91
   1   0   0  192.01   10.85
   1   0   0  209.64   10.86
   1   0   0  196.87   10.85
  -2   0   0   36.00    2.22
  -2   0   0   36.27    2.21
   2   0   0   38.37    2.22
   2   0   0   42.19    2.22
   2   0   0   41.75    2.32
   2   0   0   39.56    2.25
  -3   0   0   14.48    0.97
  -3   0   0   16.15    0.96
   3   0   0   18.04    1.08
   3   0   0   18.59    1.16
   3   0   0   16.22    0.97
  -4   0   0    1.48    0.21
  -4   0   0    2.09    0.17
  -4   0   0    2.09    0.19
  -4   0   0    1.84    0.17
   4   0   0    1.88    0.16
   4   0   0    2.05    0.42
  -5   0   0    1.25    0.21
  -5   0   0    1.53    0.21
  -5   0   0    1.28    0.16
  -5   0   0    1.46    0.21
  -6   0   0   13.51    0.85
  -6   0   0   13.94    0.83
  -6   0   0   12.09    0.81
  -7   0   0   14.88    0.97
  -7   0   0   17.07    1.02
  -7   0   0   15.65    0.99
   7   0   0   16.02    1.04
   7   0   0   14.74    0.97
  -8   0   0   10.58    0.72
  -8   0   0   11.05    0.81
   8   0   0   11.02    0.74
   8   0   0    9.87    0.67
  -9   0   0    7.73    0.58
  -9   0   0    7.37    0.67
   9   0   0    7.19    0.49
   9   0   0    7.37    0.54
   9  -1   0    0.59    0.11
   9  -1   0    0.59    0.13
  -9   1   0    0.48    0.17
   8  -1   0    1.48    0.28
  -8   1   0    1.64    0.29
  -8   1   0    1.72    0.36
   7  -1   0   17.12    1.06
  -7   1   0   15.05    1.00
  -7   1   0   16.50    1.03
  -7   1   0   16.39    1.03
  -6   1   0   48.20    2.72
  -6   1   0   45.77    2.72
   5  -1   0    3.69    0.32
  -5   1   0    4.19    0.35
  -5   1   0    4.31    0.30
  -5   1   0    3.92    0.33
  -5   1   0    4.22    0.33
   4  -1   0   46.39    2.82
   4  -1   0   50.90    2.78
  -4   1   0   48.80    2.77
  -4   1   0   47.45    2.78
   3  -1   0    1.37    0.16
   3  -1   0    1.58    0.17
   3  -1   0    1.53    0.13
   3  -1   0    1.48    0.13
  -3   1   0    1.44    0.14
   2  -1   0  333.89   17.50
   2  -1   0  290.16   17.54
   2  -1   0  307.23   17.59
  -2   1   0  303.26   17.46
   1  -1   0   11.00    0.63
   1  -1   0   11.79    0.65
   1  -1   0    9.62    0.64
  -1   1   0   10.34    0.64
  -1   1   0   11.26    0.64
  -1   1   0   11.77    0.64
   0  -1   0  134.32    7.39
   0  -1   0  133.63    7.42
   0  -1   0  126.12    7.37
   0  -1   0  122.42    7.37
   0  -1   0  122.90    7.37
   0   1   0  138.15    7.41
   0   1   0  131.96    7.36
   0   1   0  131.64    7.38
   0   1   0  127.72    7.38
  -1  -1   0    1.64    0.11
  -1  -1   0    1.62    0.10
  -1  -1   0    1.64    0.13
  -1  -1   0    1.61    0.10
   1   1   0    1.51    0.17
   1   1   0    1.39    0.10
   1   1   0    1.48    0.09
   1   1   0    1.49    0.12
   1   1   0    1.49    0.10
   1   1   0    1.60    0.09
  -2  -1   0   73.54    4.45
  -2  -1   0   79.90    4.45
  -2  -1   0   75.00    4.45
   2   1   0   80.47    4.50
   2   1   0   85.09    4.57
   2   1   0   77.88    4.45
  -3  -1   0   18.72    1.14
  -3  -1   0   17.11    1.14
  -3  -1   0   17.73    1.13
  -3  -1   0   19.57    1.12
  -3  -1   0   20.16    1.15
   3   1   0   20.81    1.14
   3   1   0   22.04    1.32
   3   1   0   21.34    1.21
  -4  -1   0    5.36    0.40
  -4  -1   0    6.49    0.42
  -4  -1   0    6.85    0.41
  -4  -1   0    6.41    0.37
   4   1   0    7.09    0.65
   4   1   0    6.26    0.40
  -5  -1   0  112.29    6.35
  -5  -1   0  108.38    6.35
  -5  -1   0  119.51    6.35
  -5  -1   0  110.57    6.34
   5   1   0  109.45    6.48
   5   1   0  116.07    6.67
   5   1   0  103.72    6.33
  -6  -1   0   61.52    3.52
  -6  -1   0   63.23    3.53
   6   1   0   58.22    3.51
  -7  -1   0    4.36    0.40
   7   1   0    3.73    0.37
  -8  -1   0    2.79    0.36
   8   1   0    2.91    0.29
  -9  -1   0    5.75    0.46
  -9  -1   0    5.99    0.54
   9   1   0    6.15    0.44
   9   1   0    6.62    0.52
  10   1   0   11.32    0.67
  10   1   0   10.55    0.65
   9  -2   0    7.02    0.47
  -9   2   0    7.56    0.53
   8  -2   0    1.94    0.23
   8  -2   0    2.17    0.32
  -8   2   0    2.23    0.28
  -8   2   0    2.11    0.42
   7  -2   0    4.88    0.47
  -7   2   0    6.06    0.63
  -7   2   0    6.27    0.47
  -7   2   0    5.95    0.48
   6  -2   0   29.96    1.79
  -6   2   0   29.42    1.78
  -6   2   0   29.42    1.75
  -5   2   0   20.82    1.21
  -5   2   0   17.58    1.29
  -5   2   0   19.00    1.15
  -5   2   0   19.09    1.15
   4  -2   0    4.55    0.34
   4  -2   0    5.15    0.37
  -4   2   0    5.14    0.36
  -4   2   0    4.59    0.33
  -4   2   0    4.65    0.34
   3  -2   0   34.84    1.95
  -3   2   0   29.90    1.92
  -3   2   0   33.17    1.94
  -3   2   0   34.90    1.92
  -3   2   0   34.28    1.92
   2  -2   0   86.29    5.01
   2  -2   0   87.44    4.98
  -2   2   0   88.36    4.99
  -2   2   0   89.44    4.98
   1  -2   0   49.16    2.64
   1  -2   0   40.31    2.67
   1  -2   0   46.25    2.65
  -1   2   0   46.31    2.65
  -1   2   0   49.74    2.65
   0  -2   0  330.71   18.36
   0  -2   0  331.81   18.37
   0  -2   0  308.70   18.30
   0   2   0  311.96   18.31
   0   2   0  336.41   18.40
  -1  -2   0  159.85    9.02
  -1  -2   0  146.60    9.01
  -1  -2   0  168.22    9.05
  -1  -2   0  158.22    9.03
   1   2   0  159.79    9.12
   1   2   0  163.46    9.04
   1   2   0  161.01    9.05
  -2  -2   0   15.42    0.98
  -2  -2   0   16.16    0.96
   2   2   0   17.93    1.11
   2   2   0   17.82    0.97
  -3  -2   0   40.86    2.36
  -3  -2   0   42.43    2.35
   3   2   0   43.80    2.43
   3   2   0   37.96    2.35
  -4  -2   0   13.11    0.77
  -4  -2   0   13.23    0.78
  -4  -2   0   11.62    0.78
   4   2   0   14.31    1.04
   4   2   0   13.07    0.78
   4   2   0   13.48    0.89
  -5  -2   0    5.57    0.43
  -5  -2   0    6.36    0.42
  -5  -2   0    5.73    0.40
  -5  -2   0    6.00    0.42
   5   2   0    6.07    0.40
   5   2   0    6.17    0.57
   5   2   0    6.95    0.79
  -6  -2   0   29.80    1.81
  -6  -2   0   30.27    1.80
   6   2   0   31.59    1.80
  -7  -2   0   20.98    1.27
   7   2   0   20.56    1.26
  -8  -2   0    3.33    0.37
   8   2   0    2.94    0.60
   8   2   0    3.15    0.43
   8   2   0    2.31    0.29
  -9  -2   0    1.04    0.20
  -9  -2   0    0.95    0.25
   9   2   0    1.06    0.21
 -10  -2   0    3.41    0.40
  10   2   0    3.75    0.29
   8  -3   0    3.51    0.56
   8  -3   0    3.81    0.32
  -8   3   0    4.13    0.38
  -8   3   0    3.16    0.35
   7  -3   0    3.50    0.60
  -7   3   0    4.66    0.39
  -7   3   0    3.95    0.68
   6  -3   0    3.06    0.69
   6  -3   0    3.55    0.52
  -6   3   0    4.16    0.41
  -6   3   0    3.87    0.40
  -6   3   0    4.41    0.41
  -6   3   0    3.24    0.36
  -5   3   0   10.32    0.69
  -5   3   0   11.25    0.67
  -5   3   0    9.43    0.72
  -5   3   0    9.57    0.66
   4  -3   0   12.30    0.82
  -4   3   0   13.23    0.83
  -4   3   0   12.92    0.78
  -4   3   0   12.95    0.85
  -4   3   0   12.60    0.86
  -4   3   0   12.57    0.79
   3  -3   0   27.82    1.70
  -3   3   0   29.29    1.66
  -3   3   0   27.90    1.67
  -3   3   0   29.88    1.68
   2  -3   0   50.97    3.12
   2  -3   0   52.93    3.10
  -2   3   0   58.89    3.10
   1  -3   0   50.78    2.99
   1  -3   0   48.36    2.95
   1  -3   0   53.34    2.98
  -1   3   0   55.88    2.98
   0  -3   0  210.79   11.67
   0  -3   0  213.05   11.69
   0  -3   0  206.38   11.66
   0   3   0  211.11   11.71
   0   3   0  196.17   11.65
   0   3   0  212.05   11.65
   0   3   0  194.46   11.66
  -1  -3   0    9.90    0.60
  -1  -3   0    9.41    0.57
  -1  -3   0    9.17    0.55
   1   3   0   10.22    0.61
   1   3   0    9.98    0.56
   1   3   0    9.20    0.58
  -2  -3   0   18.04    1.09
  -2  -3   0   17.42    1.05
   2   3   0   17.76    1.04
   2   3   0   18.26    1.05
   2   3   0   19.53    1.12
   2   3   0   18.91    1.24
  -3  -3   0    3.72    0.29
  -3  -3   0    4.08    0.31
  -3  -3   0    3.98    0.26
   3   3   0    4.72    0.49
   3   3   0    3.89    0.33
  -4  -3   0   69.02    3.77
  -4  -3   0   61.73    3.76
  -4  -3   0   62.88    3.76
  -4  -3   0   63.31    3.74
   4   3   0   67.02    3.76
   4   3   0   67.49    3.87
   4   3   0   70.12    4.05
  -5  -3   0   85.96    5.11
  -5  -3   0   85.46    5.10
  -5  -3   0   89.13    5.09
   5   3   0   90.56    5.26
   5   3   0   85.93    5.10
   5   3   0  100.02    5.50
  -6  -3   0   15.53    1.04
   6   3   0   17.14    1.28
   6   3   0   17.30    1.03
   7   3   0   17.48    1.41
   7   3   0   16.51    1.05
  -8  -3   0    5.39    0.48
   8   3   0    5.43    0.42
  -9  -3   0    3.45    0.48
  -9  -3   0    3.58    0.38
   9   3   0    4.28    0.39
 -10  -3   0    0.57    0.20
  10   3   0    0.57    0.10
  -8   4   0    3.84    0.34
   7  -4   0   15.15    0.99
   7  -4   0   16.40    1.12
  -7   4   0   15.02    0.98
  -7   4   0   16.96    1.01
  -7   4   0   16.42    1.03
   6  -4   0   16.79    1.26
  -6   4   0   18.54    1.11
  -6   4   0   18.05    1.15
  -5   4   0    9.54    0.63
  -5   4   0    8.75    0.63
  -5   4   0    7.80    0.60
   4  -4   0   38.86    2.24
   4  -4   0   33.81    2.34
  -4   4   0   38.30    2.19
  -4   4   0   38.76    2.24
   3  -4   0   12.43    0.79
  -3   4   0   12.43    0.76
  -3   4   0   12.05    0.74
  -3   4   0   12.28    0.81
  -3   4   0   11.08    0.75
   2  -4   0  112.69    6.36
   2  -4   0  104.97    6.32
  -2   4   0  108.25    6.28
  -2   4   0  115.80    6.30
  -2   4   0  111.02    6.29
   1  -4   0   46.88    2.82
  -1   4   0   49.46    2.80
  -1   4   0   49.80    2.78
   0  -4   0   33.90    1.87
   0  -4   0   30.24    1.80
   0  -4   0   31.83    1.83
   0   4   0   30.86    1.83
  -1  -4   0    6.40    0.39
  -1  -4   0    6.93    0.47
  -1  -4   0    6.86    0.42
   1   4   0    6.93    0.45
  -2  -4   0    9.28    0.53
  -2  -4   0    8.28    0.49
  -2  -4   0    8.34    0.56
   2   4   0    7.96    0.53
   2   4   0    8.58    0.50
  -3  -4   0   13.11    0.81
  -3  -4   0   12.35    0.82
  -3  -4   0   14.60    0.86
   3   4   0   14.08    0.85
   3   4   0   13.75    0.89
  -4  -4   0    1.03    0.19
  -4  -4   0    1.01    0.15
  -4  -4   0    0.75    0.15
   4   4   0    1.04    0.25
  -5  -4   0   19.09    1.13
  -5  -4   0   20.37    1.17
   5   4   0   17.96    1.26
   5   4   0   17.28    1.11
  -6  -4   0   22.13    1.36
  -6  -4   0   22.96    1.45
  -7  -4   0   13.74    0.87
  -7  -4   0   12.04    0.92
   7   4   0   12.25    0.82
  -8  -4   0    2.98    0.39
  -8  -4   0    3.11    0.58
   8   4   0    2.80    0.31
  -9  -4   0   14.79    0.97
  -9  -4   0   14.77    0.91
   9   4   0   13.91    0.87
   9   4   0   13.06    1.08
 -10  -4   0   27.98    1.59
  10   4   0   24.81    1.57
   7  -5   0    3.00    0.38
   6  -5   0    1.42    0.39
  -6   5   0    1.39    0.29
  -6   5   0    1.53    0.26
   5  -5   0   16.47    1.14
   5  -5   0   16.56    1.19
  -5   5   0   15.64    1.07
  -5   5   0   16.32    1.07
  -5   5   0   16.22    1.01
   4  -5   0   34.09    2.21
  -4   5   0   39.34    2.17
   3  -5   0   26.86    1.70
   3  -5   0   22.92    1.72
   3  -5   0   27.27    1.61
  -3   5   0   26.65    1.61
  -3   5   0   26.59    1.65
   2  -5   0   16.81    1.11
  -2   5   0   18.27    1.13
  -2   5   0   20.69    1.16
  -2   5   0   16.06    1.07
   1  -5   0   11.96    0.82
  -1   5   0   13.04    0.81
  -1   5   0   13.73    0.79
   0  -5   0    1.36    0.20
   0  -5   0    1.36    0.22
   0   5   0    1.43    0.16
   0   5   0    1.44    0.22
  -1  -5   0    2.96    0.28
  -1  -5   0    2.90    0.29
   1   5   0    3.41    0.28
  -2  -5   0    0.53    0.14
  -2  -5   0    0.86    0.15
  -2  -5   0    0.87    0.13
   2   5   0    1.19    0.21
  -3  -5   0   31.20    1.97
  -3  -5   0   34.65    2.07
   3   5   0   35.05    1.99
   3   5   0   34.85    2.11
  -4  -5   0   36.18    2.14
  -4  -5   0   36.36    2.11
  -4  -5   0   37.27    2.12
  -4  -5   0   36.89    2.15
   4   5   0   33.36    2.22
  -5  -5   0    7.77    0.61
  -5  -5   0    9.23    0.66
  -5  -5   0    7.60    0.77
  -6  -5   0    4.90    0.56
  -6  -5   0    5.68    0.44
   6   5   0    5.67    0.75
  -7  -5   0   18.48    1.37
  -7  -5   0   22.33    1.36
   7   5   0   23.54    1.64
   7   5   0   20.02    1.28
  -8  -5   0    9.87    0.78
  -8  -5   0    9.51    0.69
   8   5   0    9.27    0.63
  -9  -5   0    0.97    0.52
  -9  -5   0    0.61    0.21
  -9  -5   0    0.71    0.25
   9   5   0    0.85    0.15
   9   5   0    0.77    0.30
   6  -6   0    6.15    0.53
  -6   6   0    6.34    0.45
   5  -6   0    8.70    0.71
   5  -6   0    8.00    0.79
  -5   6   0    6.82    0.61
  -5   6   0    7.87    0.63
  -5   6   0    7.85    0.56
   4  -6   0    9.78    0.90
   4  -6   0   12.60    0.90
  -4   6   0   11.63    0.79
  -4   6   0   12.15    0.81
   3  -6   0   29.26    1.82
   3  -6   0   32.33    1.90
  -3   6   0   30.51    1.81
  -3   6   0   24.74    1.89
   2  -6   0   11.36    0.80
   2  -6   0   11.83    0.98
  -2   6   0   10.29    0.73
  -2   6   0   11.99    0.83
  -2   6   0   10.80    0.74
   1  -6   0    0.91    0.21
  -1   6   0    1.18    0.22
   0  -6   0    0.94    0.19
   0   6   0    0.84    0.17
  -1  -6   0   44.38    2.52
  -1  -6   0   41.83    2.48
  -1  -6   0   42.09    2.54
   1   6   0   41.64    2.48
  -2  -6   0   15.79    1.11
  -2  -6   0   17.10    1.06
  -2  -6   0   17.75    1.10
   2   6   0   18.10    1.07
  -3  -6   0   11.04    0.77
  -3  -6   0   10.45    0.74
  -3  -6   0   10.15    0.70
  -4  -6   0    5.70    0.49
  -4  -6   0    5.81    0.53
  -5  -6   0   36.70    2.37
  -5  -6   0   38.56    2.31
  -5  -6   0   40.64    2.42
   5   6   0   36.83    2.28
   5   6   0   39.12    2.58
  -6  -6   0   13.73    0.94
  -6  -6   0   12.67    0.94
  -6  -6   0   13.56    0.90
   6   6   0   13.09    1.27
  -7  -6   0   22.09    1.35
   7   6   0   21.33    1.60
  -8  -6   0    0.36    0.21
  -8  -6   0    0.84    0.33
  -8  -6   0    0.63    0.25
  -9  -6   0    0.72    0.30
   9   6   0    1.16    0.35
   9   6   0    0.81    0.14
   5  -7   0    2.98    0.48
  -5   7   0    3.21    0.29
   4  -7   0    8.22    0.72
   4  -7   0    8.37    0.72
  -4   7   0    7.88    0.59
   3  -7   0    1.58    0.32
  -3   7   0    1.77    0.38
  -2   7   0    1.27    0.21
   1  -7   0    8.71    0.99
   1  -7   0    6.06    0.60
   1  -7   0    5.79    1.18
   1  -7   0    7.67    1.92
  -1   7   0    7.30    0.66
  -1   7   0    6.62    0.52
   0  -7   0    1.01    0.58
   0  -7   0    1.12    0.24
   0  -7   0    0.73    0.48
   0   7   0    1.11    0.18
   0   7   0    1.03    0.34
  -1  -7   0   10.01    0.95
  -1  -7   0    8.31    0.67
  -1  -7   0    8.83    1.18
   1   7   0    8.20    0.80
   1   7   0    8.50    0.60
  -2  -7   0    2.24    0.42
  -2  -7   0    2.62    0.43
  -2  -7   0    3.14    0.46
  -2  -7   0    1.72    0.55
   2   7   0    2.63    0.41
   2   7   0    2.55    0.43
  -3  -7   0    6.87    0.59
  -3  -7   0    6.85    0.60
  -3  -7   0    5.98    0.73
  -3  -7   0    6.33    1.15
  -3  -7   0    6.62    0.60
   3   7   0    6.83    0.62
  -4  -7   0   17.34    1.15
  -4  -7   0   15.42    1.20
   4   7   0   17.94    1.12
   4   7   0   16.54    1.19
  -5  -7   0   54.99    3.22
  -5  -7   0   54.41    3.15
  -5  -7   0   52.17    3.19
   5   7   0   52.81    3.13
  -6  -7   0    6.95    0.59
  -7  -7   0   16.45    1.17
  -7  -7   0   17.23    1.28
   7   7   0   19.45    1.18
  -8  -7   0    0.58    0.26
  -8  -7   0    0.93    0.22
   8   7   0    0.67    0.13
   8   7   0    0.76    0.32
  -9  -7   0    0.33    0.21
  -9  -7   0    0.20    0.32
   9   7   0    0.40    0.21
   4  -8   0    2.16    0.44
   4  -8   0    1.35    0.26
  -4   8   0    1.61    0.20
   3  -8   0    0.92    0.32
   3  -8   0    1.25    0.29
  -3   8   0    0.68    0.28
  -2   8   0    1.19    0.55
   1  -8   0    8.31    0.79
   0   8   0    7.41    0.57
  -1  -8   0   34.08    2.39
   1   8   0   32.01    2.00
   1   8   0   35.20    2.09
  -2  -8   0    5.44    1.04
   2   8   0    6.88    0.59
   2   8   0    5.92    0.56
  -3  -8   0    9.92    0.81
  -3  -8   0    8.84    0.74
   3   8   0    8.71    0.70
  -4  -8   0    1.85    0.30
   4   8   0    1.36    0.24
  -5  -8   0    0.80    0.25
  -5  -8   0    0.75    0.29
   5   8   0    0.67    0.23
  -6  -8   0    6.61    0.65
  -6  -8   0    5.97    0.52
   6   8   0    4.34    0.69
  -7  -8   0    8.93    0.68
  -7  -8   0    8.19    0.71
   7   8   0    7.51    0.74
  -8  -8   0    0.80    0.22
  -8  -8   0    0.70    0.22
   8   8   0    0.98    0.32
   2  -9   0    1.09    0.25
  -2   9   0    0.69    0.14
  -2   9   0    0.97    0.40
   1  -9   0    4.42    0.57
   1  -9   0    4.89    0.87
  -1   9   0    4.34    0.35
  -1   9   0    4.42    0.48
   0  -9   0    0.79    0.43
   0  -9   0    0.83    0.36
   0   9   0    0.91    0.27
  -1  -9   0   35.33    2.18
  -1  -9   0   36.77    2.27
   1   9   0   33.96    2.17
  -2  -9   0   18.37    1.53
  -2  -9   0   16.52    1.40
   2   9   0   16.33    1.16
   3   9   0    2.33    0.36
  -4  -9   0    0.43    0.52
  -5  -9   0   12.42    1.17
   5   9   0   16.83    1.09
   6   9   0    0.58    0.14
  -7  -9   0    3.03    0.40
  -1 -10   0    8.33    0.82
  -1 -10   0    5.83    0.68
  -2 -10   0    1.52    0.44
  -2 -10   0    1.28    0.38
  -3 -10   0    0.89    0.39
   3  10   0    0.85    0.18
  -4 -10   0    5.74    0.54
  -4 -10   0    5.71    0.97
   4  10   0    6.37    0.44
  -5 -10   0    6.91    0.55
   4  10  -1    3.16    0.37
  -4 -10   1    4.93    1.31
  -4 -10   1    2.68    0.37
   3  10  -1    1.77    0.27
  -3 -10   1    1.30    0.53
  -3 -10   1    1.54    0.45
   2  10  -1    4.16    0.50
  -2 -10   1    4.15    0.71
  -2 -10   1    5.99    0.99
   1  10  -1    1.44    0.21
  -1 -10   1    1.10    0.33
  -1 -10   1    2.30    0.53
   6   9  -1   12.12    0.77
  -6  -9   1   12.94    0.85
   5   9  -1   23.37    1.40
  -5  -9   1   22.99    1.47
   4   9  -1    4.09    0.40
  -4  -9   1    3.91    0.83
   3   9  -1    1.29    0.29
  -3  -9   1    1.82    0.56
  -3  -9   1    0.91    0.36
  -3  -9   1    1.87    0.56
   2   9  -1    6.80    0.64
  -2  -9   1    5.40    0.74
  -2  -9   1    4.76    1.00
  -2  -9   1    6.33    0.88
   1   9  -1   10.60    0.78
   1   9  -1    9.34    0.67
  -1  -9   1    9.93    0.95
  -1  -9   1   10.06    1.16
  -1  -9   1    9.50    0.96
   0   9  -1    5.24    0.51
   0  -9   1    4.53    0.89
  -1   9  -1    3.55    0.32
  -1   9  -1    3.52    0.66
   1  -9   1    3.63    0.49
   1  -9   1    2.65    0.52
  -2   9  -1    0.47    0.13
   8   8  -1   20.15    1.29
  -8  -8   1   20.42    1.31
  -8  -8   1   19.66    1.23
   7   8  -1   10.68    0.88
  -7  -8   1   12.09    0.82
  -7  -8   1   11.02    0.83
   6   8  -1    5.97    0.46
   6   8  -1    4.64    0.64
  -6  -8   1    4.69    0.56
  -6  -8   1    5.55    0.71
   5   8  -1   12.92    0.84
  -5  -8   1   13.76    0.96
  -5  -8   1   11.77    0.98
   4   8  -1    9.35    0.68
  -4  -8   1    9.36    1.02
   3   8  -1    8.67    0.89
   2   8  -1   22.95    1.71
   2   8  -1   30.24    1.81
  -2  -8   1   26.23    1.99
  -1  -8   1    6.87    1.09
   0   8  -1   15.19    0.97
   0  -8   1   12.97    1.74
   0  -8   1   17.36    1.50
   1  -8   1   13.50    1.04
  -2   8  -1    0.81    0.23
   2  -8   1    1.35    0.52
  -3   8  -1    0.50    0.13
   3  -8   1    0.72    0.28
  -4   8  -1    2.87    0.24
   4  -8   1    2.62    0.38
   8   7  -1   41.14    2.74
   8   7  -1   46.68    2.55
  -8  -7   1   44.72    2.62
  -8  -7   1   44.95    2.63
  -8  -7   1   44.82    2.75
   7   7  -1    2.33    0.32
   7   7  -1    2.79    0.80
   7   7  -1    3.10    0.37
  -7  -7   1    3.25    0.47
  -7  -7   1    2.43    0.35
   6   7  -1    5.42    0.44
  -6  -7   1    6.05    0.63
  -6  -7   1    4.20    0.63
  -6  -7   1    5.14    0.52
   5   7  -1   10.55    0.74
  -5  -7   1    8.79    0.87
  -5  -7   1   12.80    1.02
  -4  -7   1    0.93    0.34
   3   7  -1    2.68    0.46
  -3  -7   1    2.79    0.44
  -3  -7   1    2.76    0.64
  -3  -7   1    2.31    0.39
   2   7  -1   13.98    0.95
  -2  -7   1   11.57    0.94
  -2  -7   1   12.37    1.38
  -2  -7   1   13.22    0.90
   1   7  -1   18.82    1.26
   1   7  -1   17.92    1.08
  -1  -7   1   16.77    1.14
  -1  -7   1   16.35    1.59
  -1  -7   1   16.87    1.27
   0   7  -1    0.42    0.23
   0   7  -1    0.71    0.16
   0  -7   1    0.82    0.42
   0  -7   1    0.32    0.52
   0  -7   1    0.84    0.24
   0  -7   1    1.35    0.48
  -1   7  -1    0.85    0.21
  -1   7  -1    0.51    0.16
  -1   7  -1    0.73    0.27
   1  -7   1    0.54    0.37
   1  -7   1   -0.07    0.61
  -2   7  -1   18.15    1.12
  -2   7  -1   15.88    1.09
   2  -7   1   18.09    1.25
  -3   7  -1   11.26    0.79
  -3   7  -1   11.24    0.86
   3  -7   1   11.95    0.90
  -4   7  -1    4.10    0.41
   4  -7   1    4.48    0.54
   4  -7   1    4.23    0.55
  -5   7  -1    0.73    0.14
   5  -7   1    0.63    0.23
   9   6  -1    0.60    0.11
   9   6  -1    0.43    0.23
  -9  -6   1    0.47    0.21
  -9  -6   1    0.40    0.45
   8   6  -1   14.05    0.89
   8   6  -1   13.82    1.15
  -8  -6   1   14.80    1.03
  -8  -6   1   13.92    0.93
  -8  -6   1   14.72    0.98
   7   6  -1    1.56    0.28
   7   6  -1    2.10    0.51
  -7  -6   1    1.76    0.28
  -7  -6   1    2.58    0.48
   6   6  -1    5.88    0.52
   6   6  -1    7.03    0.79
  -6  -6   1    6.20    0.76
  -6  -6   1    7.03    0.57
   5   6  -1    4.90    0.75
   5   6  -1    4.94    0.47
  -5  -6   1    4.51    0.59
  -5  -6   1    5.08    0.48
  -5  -6   1    5.91    0.66
   4   6  -1   34.76    2.07
  -4  -6   1   35.37    2.05
  -4  -6   1   34.01    2.06
  -4  -6   1   31.78    2.12
  -4  -6   1   33.67    2.06
   3   6  -1   44.58    2.49
  -3  -6   1   40.73    2.54
   2   6  -1    3.80    0.36
  -2  -6   1    3.88    0.37
  -1  -6   1    4.74    0.42
   0   6  -1   27.14    1.68
   0   6  -1   29.68    1.69
   0  -6   1   28.39    1.72
  -1   6  -1    7.41    0.54
  -1   6  -1    8.20    0.53
   1  -6   1    6.81    0.59
   1  -6   1    7.65    0.88
  -2   6  -1    2.80    0.31
  -2   6  -1    2.54    0.45
  -2   6  -1    2.95    0.31
  -2   6  -1    2.87    0.36
   2  -6   1    2.65    0.40
   2  -6   1    2.94    0.64
  -3   6  -1    0.53    0.22
  -3   6  -1    0.81    0.18
   3  -6   1    1.37    0.35
   3  -6   1    0.73    0.30
  -4   6  -1   10.61    0.76
  -4   6  -1   10.86    0.72
   4  -6   1   11.33    0.88
  -5   6  -1   16.30    1.05
  -5   6  -1   15.83    1.00
   5  -6   1   16.21    1.18
   5  -6   1   15.86    1.10
  -6   6  -1   13.19    0.83
   6  -6   1   13.54    0.91
   9   5  -1    0.51    0.24
   9   5  -1    0.49    0.11
  -9  -5   1    0.91    0.33
  -9  -5   1   -0.03    0.47
  -9  -5   1    1.09    0.28
  -9  -5   1    0.21    0.24
   8   5  -1   16.24    0.96
  -8  -5   1   15.88    1.03
  -8  -5   1   14.64    1.07
   7   5  -1    6.43    0.48
   7   5  -1    6.82    0.77
  -7  -5   1    6.03    0.59
  -7  -5   1    6.42    0.55
   6   5  -1    5.86    0.76
  -6  -5   1    4.82    0.77
  -6  -5   1    5.08    0.81
  -5  -5   1    1.37    0.26
  -5  -5   1    1.32    0.22
  -4  -5   1    1.08    0.23
  -4  -5   1    1.17    0.19
   3   5  -1    5.43    0.49
   3   5  -1    5.79    0.45
  -3  -5   1    5.85    0.41
   2   5  -1   26.83    1.59
  -2  -5   1   27.34    1.59
   1   5  -1   31.72    1.82
  -1  -5   1   29.11    1.85
  -1  -5   1   32.65    1.83
   0   5  -1    2.18    0.23
   0   5  -1    1.80    0.18
   0   5  -1    1.48    0.22
   0  -5   1    2.28    0.22
  -1   5  -1    6.88    0.47
  -1   5  -1    6.12    0.43
  -2   5  -1   39.66    2.32
  -2   5  -1   39.22    2.29
  -3   5  -1    1.92    0.26
  -3   5  -1    2.22    0.46
   3  -5   1    2.38    0.35
   3  -5   1    2.31    0.41
  -4   5  -1   30.29    1.77
  -4   5  -1   31.01    1.80
   4  -5   1   27.88    1.96
  -5   5  -1   44.27    2.38
  -5   5  -1   38.52    2.47
   5  -5   1   39.49    2.54
  -6   5  -1   11.37    0.74
  -6   5  -1   12.07    0.78
  -6   5  -1   12.62    0.81
   6  -5   1   11.03    1.02
  -7   5  -1    2.44    0.35
  -7   5  -1    2.45    0.26
   7  -5   1    2.53    0.39
   9   4  -1   38.32    2.14
   9   4  -1   36.66    2.35
  -9  -4   1   36.31    2.17
  -9  -4   1   39.95    2.22
  -9  -4   1   33.45    2.30
   8   4  -1   23.57    1.36
   8   4  -1   22.31    1.40
  -8  -4   1   23.45    1.41
  -8  -4   1   21.72    1.47
   7   4  -1    1.95    0.28
   7   4  -1    2.01    0.30
  -7  -4   1    1.88    0.28
  -7  -4   1    1.96    0.33
  -7  -4   1    2.10    0.32
   6   4  -1    2.08    0.56
  -6  -4   1    2.20    0.39
  -6  -4   1    2.16    0.42
  -6  -4   1    2.08    0.30
  -5  -4   1    0.73    0.16
  -5  -4   1    0.45    0.19
  -5  -4   1    0.65    0.24
  -5  -4   1    0.58    0.15
   4   4  -1    0.57    0.18
  -4  -4   1    1.08    0.17
  -4  -4   1    1.07    0.21
  -4  -4   1    0.86    0.20
  -4  -4   1    0.79    0.22
  -4  -4   1    0.73    0.15
   3   4  -1    8.67    0.64
   3   4  -1    9.99    0.85
  -3  -4   1    7.88    0.53
  -3  -4   1    8.91    0.56
  -3  -4   1    8.29    0.56
  -3  -4   1    9.37    0.61
   2   4  -1    5.28    0.33
   2   4  -1    5.24    0.37
  -2  -4   1    5.24    0.34
  -2  -4   1    5.03    0.36
  -2  -4   1    5.68    0.40
  -2  -4   1    5.69    0.35
   1   4  -1  145.16    8.16
  -1  -4   1  147.99    8.16
  -1  -4   1  133.05    8.15
  -1  -4   1  149.29    8.19
   0   4  -1   58.18    3.45
   0  -4   1   62.10    3.45
   0  -4   1   60.51    3.47
  -1   4  -1    8.52    0.54
  -1   4  -1    9.00    0.52
   1  -4   1    7.71    0.56
  -2   4  -1   22.45    1.51
  -2   4  -1   27.42    1.50
  -2   4  -1   25.80    1.48
   2  -4   1   25.82    1.52
  -3   4  -1   16.55    1.08
  -3   4  -1   19.05    1.10
  -3   4  -1   19.54    1.11
  -3   4  -1   17.64    1.14
  -4   4  -1    2.90    0.28
  -4   4  -1    3.39    0.32
  -4   4  -1    2.66    0.37
   4  -4   1    3.18    0.47
   4  -4   1    3.34    0.65
  -5   4  -1    0.82    0.24
  -5   4  -1    1.18    0.22
  -5   4  -1    1.64    0.22
  -6   4  -1    6.17    0.51
  -6   4  -1    6.24    0.54
  -6   4  -1    6.33    0.48
   6  -4   1    5.10    0.68
  -7   4  -1    1.62    0.27
  -7   4  -1    1.64    0.25
   7  -4   1    1.27    0.18
   7  -4   1    1.06    0.28
   7  -4   1    1.52    0.20
  10   3  -1    4.13    0.28
   9   3  -1    1.27    0.18
  -9  -3   1    0.86    0.21
  -9  -3   1    1.00    0.26
  -9  -3   1    0.87    0.32
   8   3  -1    6.40    0.46
  -8  -3   1    6.75    0.67
  -8  -3   1    6.68    0.55
   7   3  -1   13.22    0.89
   7   3  -1   13.95    1.22
   7   3  -1   13.18    0.91
  -7  -3   1   14.36    0.99
  -7  -3   1   15.43    0.96
  -7  -3   1   15.24    1.00
   6   3  -1    5.00    0.80
  -6  -3   1    5.43    0.42
   5   3  -1   14.91    1.10
   5   3  -1   14.07    0.90
  -5  -3   1   15.73    0.93
  -5  -3   1   15.51    0.93
  -5  -3   1   15.16    1.01
  -5  -3   1   14.78    0.92
   4   3  -1   60.95    3.58
   4   3  -1   63.39    3.78
  -4  -3   1   57.39    3.49
  -4  -3   1   62.70    3.45
  -4  -3   1   61.10    3.47
  -4  -3   1   65.16    3.47
  -4  -3   1   52.63    3.46
   3   3  -1   66.96    3.75
   3   3  -1   69.74    3.90
  -3  -3   1   63.95    3.63
  -3  -3   1   59.90    3.66
  -3  -3   1   58.65    3.64
   2   3  -1   17.69    1.02
   2   3  -1   19.97    1.25
  -2  -3   1   17.01    1.03
  -2  -3   1   17.72    1.05
  -2  -3   1   18.97    1.07
  -2  -3   1   16.20    1.04
   1   3  -1   28.62    1.62
   1   3  -1   27.18    1.59
   1   3  -1   26.08    1.57
  -1  -3   1   24.56    1.59
  -1  -3   1   26.58    1.60
  -1  -3   1   27.14    1.58
  -1  -3   1   29.15    1.57
  -1  -3   1   30.26    1.59
   0   3  -1  117.14    6.52
   0   3  -1  120.41    6.52
   0  -3   1  110.96    6.49
   0  -3   1  117.12    6.51
   0  -3   1  113.63    6.52
   0  -3   1  110.25    6.53
  -1   3  -1  213.79   11.80
   1  -3   1  214.27   11.80
   1  -3   1  200.35   11.79
   1  -3   1  205.71   11.81
  -2   3  -1  122.28    7.28
  -2   3  -1  137.92    7.27
   2  -3   1  124.85    7.30
  -3   3  -1    7.02    0.45
  -3   3  -1    7.38    0.44
  -3   3  -1    6.16    0.45
   3  -3   1    6.38    0.55
   3  -3   1    6.89    0.46
  -4   3  -1   10.54    0.66
  -4   3  -1   10.21    0.65
  -4   3  -1   10.07    0.64
  -4   3  -1    9.09    0.72
  -4   3  -1   11.09    0.65
  -5   3  -1   14.07    0.87
  -5   3  -1   14.37    0.94
  -5   3  -1   13.68    0.87
  -6   3  -1    2.10    0.32
  -6   3  -1    2.59    0.37
  -6   3  -1    2.54    0.34
  -6   3  -1    3.07    0.32
   6  -3   1    2.74    0.38
  -7   3  -1    8.23    0.60
  -7   3  -1    6.75    0.60
  -7   3  -1    8.23    0.55
   7  -3   1    6.71    0.74
  -8   3  -1   12.96    0.92
  -8   3  -1   13.57    0.97
  -8   3  -1   13.99    0.86
   8  -3   1   13.59    0.83
   8  -3   1   15.31    0.87
  10   2  -1    4.91    0.32
   9   2  -1    0.59    0.17
  -9  -2   1    0.80    0.19
  -9  -2   1    0.66    0.23
  -9  -2   1    0.75    0.39
   8   2  -1    9.29    0.90
   8   2  -1    9.07    0.61
  -8  -2   1    9.27    0.87
  -8  -2   1   10.13    0.69
   7   2  -1    0.83    0.18
   7   2  -1    1.60    0.45
  -7  -2   1    1.26    0.27
   6   2  -1   19.60    1.25
  -6  -2   1   21.61    1.34
   5   2  -1   26.60    2.01
   5   2  -1   24.62    1.41
  -5  -2   1   21.40    1.41
  -5  -2   1   23.07    1.68
  -5  -2   1   21.97    1.42
  -5  -2   1   24.37    1.41
  -5  -2   1   25.20    1.40
   4   2  -1    1.25    0.13
   4   2  -1    1.08    0.40
   4   2  -1    1.17    0.24
  -4  -2   1    0.90    0.13
  -4  -2   1    1.14    0.14
  -4  -2   1    0.98    0.16
  -4  -2   1    1.05    0.14
   3   2  -1   33.90    2.13
  -3  -2   1   32.41    1.93
  -3  -2   1   34.05    1.91
   2   2  -1   23.95    1.43
   2   2  -1   24.28    1.53
   2   2  -1   25.91    1.36
   2   2  -1   22.49    1.35
  -2  -2   1   23.63    1.36
  -2  -2   1   23.08    1.37
  -2  -2   1   23.30    1.37
   1   2  -1  539.02   30.56
   1   2  -1  584.89   31.28
   1   2  -1  488.17   30.73
  -1  -2   1  524.58   30.58
  -1  -2   1  543.63   30.65
  -1  -2   1  563.81   30.62
   0   2  -1   53.33    3.10
   0   2  -1   60.86    3.19
   0   2  -1   55.67    3.12
   0  -2   1   52.37    3.11
   0  -2   1   52.96    3.10
   0  -2   1   52.91    3.10
   0  -2   1   55.05    3.12
  -1   2  -1   51.76    3.01
  -1   2  -1   55.88    3.00
   1  -2   1   54.91    3.00
   1  -2   1   50.20    2.99
   1  -2   1   55.50    2.99
   1  -2   1   48.26    3.02
  -2   2  -1   28.31    1.71
  -2   2  -1   31.57    1.74
   2  -2   1   30.75    1.70
   2  -2   1   29.57    1.71
   2  -2   1   28.37    1.72
  -3   2  -1   14.42    0.83
  -3   2  -1   13.63    0.84
   3  -2   1   14.26    0.86
  -4   2  -1   11.33    0.70
   4  -2   1   11.23    0.72
   4  -2   1   11.59    0.73
  -5   2  -1   26.84    1.51
  -5   2  -1   24.24    1.51
  -6   2  -1   52.00    2.93
  -6   2  -1   49.59    2.89
  -6   2  -1   52.04    2.90
   6  -2   1   50.22    2.89
   6  -2   1   45.95    2.93
  -7   2  -1   10.12    0.67
  -7   2  -1    9.12    0.70
   7  -2   1   10.51    0.71
  -8   2  -1    3.30    0.33
  -8   2  -1    3.95    0.40
   8  -2   1    3.18    0.50
   8  -2   1    3.06    0.30
  -9   2  -1    3.70    0.33
   9  -2   1    4.11    0.33
   9  -2   1    3.77    0.27
   9   1  -1    1.84    0.27
   9   1  -1    1.95    0.22
  -9  -1   1    1.16    0.24
  -9  -1   1    1.42    0.31
  -9  -1   1    1.89    0.30
   8   1  -1    1.13    0.16
  -8  -1   1    0.93    0.29
  -8  -1   1    1.51    0.24
   7   1  -1   21.24    1.45
   7   1  -1   24.38    1.40
  -7  -1   1   25.18    1.45
  -7  -1   1   19.79    1.39
  -7  -1   1   26.42    1.57
  -6  -1   1   14.16    0.89
  -6  -1   1   13.02    0.85
  -6  -1   1   11.41    0.79
  -6  -1   1   11.65    0.88
   5   1  -1   15.61    1.16
   5   1  -1   19.02    1.42
   5   1  -1   16.56    0.99
  -5  -1   1   17.32    1.00
  -5  -1   1   15.06    1.04
  -5  -1   1   15.94    0.98
  -5  -1   1   15.02    1.10
  -5  -1   1   17.87    1.01
   4   1  -1   22.23    1.48
   4   1  -1   20.01    1.17
  -4  -1   1   19.51    1.17
  -4  -1   1   20.08    1.18
  -4  -1   1   18.07    1.18
  -4  -1   1   20.63    1.19
   3   1  -1  112.08    6.33
   3   1  -1  120.05    6.55
  -3  -1   1  104.63    6.33
  -3  -1   1  109.96    6.32
   2   1  -1    2.11    0.14
   2   1  -1    1.74    0.22
   2   1  -1    2.13    0.30
   2   1  -1    1.93    0.16
  -2  -1   1    1.90    0.15
  -2  -1   1    1.78    0.14
  -2  -1   1    1.83    0.14
   1   1  -1  202.45   10.85
   1   1  -1  180.72   10.86
   1   1  -1  202.49   10.88
   1   1  -1  187.16   10.94
  -1  -1   1  209.12   10.85
  -1  -1   1  196.18   10.87
  -1  -1   1  182.31   10.86
  -1  -1   1  172.67   10.83
   0   1  -1    4.79    0.29
   0   1  -1    4.48    0.28
   0   1  -1    4.38    0.29
   0   1  -1    4.60    0.35
   0   1  -1    5.01    0.28
   0   1  -1    5.10    0.29
   0  -1   1    4.66    0.28
   0  -1   1    4.66    0.29
   0  -1   1    4.34    0.29
   0  -1   1    4.84    0.28
   0  -1   1    5.18    0.28
   0  -1   1    4.24    0.29
  -1   1  -1   31.25    1.82
  -1   1  -1   32.98    1.82
   1  -1   1   30.35    1.83
   1  -1   1   30.36    1.82
   1  -1   1   35.39    1.83
  -2   1  -1    4.37    0.27
   2  -1   1    4.22    0.26
   2  -1   1    4.31    0.27
   2  -1   1    4.09    0.29
   2  -1   1    4.43    0.27
  -3   1  -1    5.30    0.36
   3  -1   1    5.64    0.35
   3  -1   1    5.14    0.33
   3  -1   1    5.09    0.36
  -4   1  -1   59.67    3.37
   4  -1   1   58.34    3.37
  -5   1  -1   41.32    2.22
  -5   1  -1   36.57    2.22
   5  -1   1   37.30    2.23
  -6   1  -1    5.07    0.40
  -6   1  -1    4.63    0.37
  -7   1  -1    6.17    0.47
  -7   1  -1    6.33    0.47
  -7   1  -1    5.80    0.53
   7  -1   1    5.29    0.44
   7  -1   1    6.05    0.52
  -8   1  -1   16.08    1.10
  -8   1  -1   17.43    1.04
   8  -1   1   17.68    1.07
   8  -1   1   15.79    1.00
  -9   1  -1    8.85    0.73
  -9   1  -1    7.97    0.62
   9  -1   1    7.71    0.51
   9  -1   1    8.16    0.55
   9   0  -1    7.32    0.50
   9   0  -1    7.45    0.47
  -9   0   1    6.98    0.58
  -9   0   1    6.73    0.51
   8   0  -1    1.84    0.31
  -8   0   1    2.65    0.35
  -8   0   1    3.44    0.54
  -8   0   1    2.24    0.42
  -7   0   1   24.53    1.53
  -7   0   1   22.00    1.44
  -7   0   1   25.15    1.47
  -7   0   1   24.74    1.47
  -6   0   1   10.69    0.69
  -6   0   1   10.94    0.67
  -6   0   1   10.09    0.69
   5   0  -1    1.91    0.54
   5   0  -1    1.61    0.19
   5   0  -1    1.92    0.44
  -5   0   1    1.68    0.23
  -5   0   1    2.07    0.19
  -5   0   1    2.12    0.24
  -5   0   1    1.79    0.24
   4   0  -1    4.89    0.33
   4   0  -1    5.68    0.63
  -4   0   1    4.82    0.36
  -4   0   1    4.64    0.36
  -4   0   1    4.97    0.34
  -4   0   1    5.30    0.34
   3   0  -1  165.76    9.25
   3   0  -1  173.82    9.48
  -3   0   1  156.85    9.26
  -3   0   1  155.60    9.24
  -3   0   1  165.07    9.23
   2   0  -1    1.52    0.13
   2   0  -1    1.53    0.27
   2   0  -1    1.67    0.15
  -2   0   1    1.42    0.11
  -2   0   1    1.68    0.13
   1   0  -1  208.90   12.76
   1   0  -1  227.69   12.55
   1   0  -1  232.76   12.59
   1   0  -1  214.29   12.52
  -1   0   1  209.70   12.51
  -1   0   1  230.73   12.55
  -1   0   1  226.39   12.53
   0   0  -1  158.49    9.79
   0   0  -1  176.26    9.83
   0   0  -1  179.96    9.79
   0   0   1  185.12    9.84
   0   0   1  157.46    9.80
   0   0   1  181.58    9.79
  -1   0  -1  149.11    8.36
  -1   0  -1  135.64    8.36
  -1   0  -1  151.67    8.33
  -1   0  -1  152.30    8.36
  -1   0  -1  153.65    8.34
   1   0   1  146.11    8.34
   1   0   1  143.46    8.33
   1   0   1  135.68    8.37
   1   0   1  158.27    8.44
  -2   0  -1   68.39    3.76
  -2   0  -1   68.05    3.80
  -2   0  -1   68.04    3.76
   2   0   1   62.28    3.79
   2   0   1   65.03    3.76
   2   0   1   66.22    3.76
  -3   0  -1    3.36    0.21
   3   0   1    3.33    0.26
   3   0   1    3.50    0.22
  -4   0  -1    8.00    0.49
   4   0   1    7.72    0.48
  -5   0  -1    2.89    0.25
  -5   0  -1    2.52    0.22
   5   0   1    2.51    0.23
  -6   0  -1    4.87    0.35
  -6   0  -1    4.68    0.42
   6   0   1    4.77    0.55
  -7   0  -1   24.71    1.45
   7   0   1   24.78    1.45
   7   0   1   22.92    1.51
  -8   0  -1   14.84    1.04
  -8   0  -1   15.06    0.95
   8   0   1   15.21    0.92
   8   0   1   14.77    0.99
  -9   0  -1   15.37    0.98
  -9   0  -1   15.73    1.04
   9   0   1   16.75    1.02
   9   0   1   16.90    1.01
   9  -1  -1    0.49    0.12
  -9   1   1    0.47    0.15
  -9   1   1    0.74    0.19
   8  -1  -1    0.98    0.26
   8  -1  -1    1.25    0.25
  -8   1   1    0.94    0.23
   7  -1  -1   33.08    2.00
  -7   1   1   29.99    1.99
  -7   1   1   36.40    2.04
  -7   1   1   32.63    1.98
  -7   1   1   34.78    2.03
   6  -1  -1   30.91    1.96
  -6   1   1   35.67    2.00
  -6   1   1   31.92    1.93
  -6   1   1   30.68    1.92
  -6   1   1   34.63    1.95
   5  -1  -1   24.32    1.47
  -5   1   1   25.15    1.49
  -5   1   1   22.23    1.52
  -5   1   1   25.38    1.47
  -5   1   1   26.65    1.46
   4  -1  -1    5.22    0.76
   4  -1  -1    4.50    0.33
  -4   1   1    4.75    0.36
  -4   1   1    5.21    0.35
  -4   1   1    4.43    0.35
   3  -1  -1    9.44    0.64
   3  -1  -1    8.28    0.56
   3  -1  -1    9.52    0.59
   3  -1  -1    9.88    0.58
   3  -1  -1    9.42    0.79
  -3   1   1    9.16    0.56
  -3   1   1    9.28    0.58
   2  -1  -1   17.33    1.10
   2  -1  -1   18.98    1.12
   2  -1  -1   21.12    1.12
  -2   1   1   18.94    1.10
   1  -1  -1  225.52   13.99
   1  -1  -1  258.92   13.99
  -1   1   1  264.51   13.97
  -1   1   1  221.14   13.95
  -1   1   1  263.87   13.98
   0  -1  -1   35.36    2.03
   0  -1  -1   36.76    2.05
   0  -1  -1   35.88    2.03
   0  -1  -1   35.09    2.05
   0  -1  -1   35.97    2.04
   0   1   1   34.99    2.03
   0   1   1   33.28    2.03
   0   1   1   37.17    2.05
  -1  -1  -1   34.97    1.95
  -1  -1  -1   34.42    1.94
  -1  -1  -1   33.83    1.94
  -1  -1  -1   34.23    1.95
  -1  -1  -1   34.29    1.97
  -1  -1  -1   35.80    1.95
  -1  -1  -1   31.71    1.94
   1   1   1   34.58    1.94
   1   1   1   33.91    1.97
   1   1   1   35.16    1.94
   1   1   1   31.82    1.95
   1   1   1   36.25    1.94
  -2  -1  -1  146.56    8.81
  -2  -1  -1  156.42    8.81
  -2  -1  -1  153.42    8.83
   2   1   1  159.70    8.87
   2   1   1  160.83    8.93
   2   1   1  157.58    8.83
  -3  -1  -1   29.39    1.72
  -3  -1  -1   31.36    1.73
  -3  -1  -1   29.51    1.70
   3   1   1   30.31    1.72
   3   1   1   29.37    1.77
  -4  -1  -1    2.54    0.21
  -4  -1  -1    2.44    0.15
  -4  -1  -1    2.22    0.18
  -4  -1  -1    2.42    0.20
   4   1   1    2.45    0.18
  -5  -1  -1   29.75    1.77
  -5  -1  -1   31.91    1.79
  -5  -1  -1   31.82    1.80
   5   1   1   29.81    1.89
   5   1   1   29.99    1.78
  -6  -1  -1   41.30    2.28
  -6  -1  -1   38.79    2.27
   6   1   1   36.41    2.26
   7   1   1   30.59    1.62
   7   1   1   23.30    1.67
  -8  -1  -1    0.77    0.20
   8   1   1    0.67    0.20
   8   1   1    1.11    0.17
  -9  -1  -1    6.86    0.69
  -9  -1  -1    7.60    0.55
   9   1   1    7.74    0.63
   9   1   1    8.78    0.59
  10   1   1    0.89    0.15
   8  -2  -1    2.72    0.30
  -8   2   1    2.23    0.35
  -8   2   1    2.82    0.42
  -8   2   1    2.50    0.31
   7  -2  -1   23.49    1.44
  -7   2   1   23.69    1.55
  -7   2   1   23.77    1.43
  -7   2   1   23.23    1.44
   6  -2  -1   12.49    0.88
   6  -2  -1   13.45    0.93
  -6   2   1   13.51    1.00
  -6   2   1   12.74    0.85
  -6   2   1   12.05    0.87
  -6   2   1   14.08    0.89
  -6   2   1   12.18    0.82
  -5   2   1    1.79    0.28
  -5   2   1    1.83    0.24
  -5   2   1    2.01    0.26
  -5   2   1    1.62    0.22
   4  -2  -1    6.35    0.43
  -4   2   1    6.21    0.41
  -4   2   1    6.26    0.43
  -4   2   1    5.48    0.40
  -4   2   1    6.61    0.45
   3  -2  -1  140.26    8.02
   3  -2  -1  129.76    7.76
   3  -2  -1  140.74    7.78
   3  -2  -1  141.31    7.80
   3  -2  -1  138.11    7.76
  -3   2   1  130.20    7.76
  -3   2   1  136.81    7.75
  -3   2   1  137.51    7.75
  -3   2   1  135.63    7.74
   2  -2  -1   43.22    2.42
   2  -2  -1   42.36    2.41
  -2   2   1   43.71    2.40
  -2   2   1   38.41    2.40
  -2   2   1   42.54    2.40
   1  -2  -1   25.52    1.51
   1  -2  -1   27.23    1.51
  -1   2   1   25.14    1.49
  -1   2   1   26.60    1.49
  -1   2   1   25.47    1.50
   0  -2  -1   19.98    1.14
   0  -2  -1   20.16    1.12
   0  -2  -1   19.24    1.14
   0  -2  -1   18.25    1.14
   0   2   1   19.47    1.11
  -1  -2  -1    1.77    0.16
  -1  -2  -1    2.29    0.14
  -1  -2  -1    1.92    0.13
   1   2   1    1.83    0.13
   1   2   1    2.27    0.18
  -2  -2  -1  110.93    6.28
  -2  -2  -1  116.69    6.26
  -2  -2  -1  107.89    6.25
  -2  -2  -1  105.98    6.25
   2   2   1  111.70    6.26
  -3  -2  -1   12.75    0.79
  -3  -2  -1   11.84    0.78
  -3  -2  -1   14.04    0.78
   3   2   1   14.01    0.79
   3   2   1   13.90    0.85
   3   2   1   14.16    0.79
  -4  -2  -1   38.22    2.16
  -4  -2  -1   36.67    2.15
  -4  -2  -1   35.10    2.14
   4   2   1   40.03    2.15
  -5  -2  -1   52.71    2.86
  -5  -2  -1   47.36    2.90
  -5  -2  -1   54.28    2.85
   5   2   1   51.27    2.86
   5   2   1   42.65    3.16
  -6  -2  -1   44.58    2.51
  -6  -2  -1   43.07    2.51
   6   2   1   41.90    2.50
   7   2   1   49.91    2.91
  -8  -2  -1    1.03    0.20
   8   2   1    0.88    0.17
  -9  -2  -1    7.63    0.57
  -9  -2  -1    8.16    0.67
   9   2   1    8.04    0.54
   9   2   1    8.56    0.76
 -10  -2  -1    1.98    0.42
  10   2   1    1.09    0.16
   8  -3  -1    4.99    0.35
  -8   3   1    4.32    0.38
  -8   3   1    4.12    0.35
   7  -3  -1   15.76    1.16
  -7   3   1   16.60    1.05
   6  -3  -1    3.73    0.49
   6  -3  -1    3.09    0.58
  -6   3   1    2.96    0.49
  -6   3   1    3.27    0.36
  -6   3   1    2.88    0.38
  -6   3   1    3.53    0.39
   5  -3  -1   18.00    1.46
  -5   3   1   20.80    1.23
  -5   3   1   20.79    1.34
  -5   3   1   19.42    1.25
   4  -3  -1   30.58    1.85
  -4   3   1   31.29    1.83
  -4   3   1   28.71    1.85
  -4   3   1   32.29    1.80
   3  -3  -1   29.85    1.81
   3  -3  -1   31.92    1.78
  -3   3   1   29.80    1.78
  -3   3   1   30.13    1.77
  -3   3   1   29.17    1.76
  -3   3   1   31.52    1.76
   2  -3  -1   33.76    1.92
  -2   3   1   32.64    1.88
  -2   3   1   33.68    1.88
  -2   3   1   30.72    1.89
   1  -3  -1   58.56    4.09
   1  -3  -1   73.30    3.82
  -1   3   1   67.94    3.80
   0  -3  -1    2.65    0.24
   0  -3  -1    3.16    0.24
   0  -3  -1    3.36    0.21
   0   3   1    3.06    0.22
  -1  -3  -1    9.50    0.56
  -1  -3  -1    9.28    0.53
   1   3   1    8.56    0.55
   1   3   1    8.89    0.53
   1   3   1    8.72    0.58
  -2  -3  -1   31.23    1.83
  -2  -3  -1   33.10    1.84
  -2  -3  -1   32.41    1.85
  -2  -3  -1   33.26    1.88
   2   3   1   29.82    1.83
   2   3   1   34.50    1.92
   2   3   1   31.94    1.85
  -3  -3  -1   25.34    1.48
   3   3   1   23.43    1.44
   3   3   1   26.30    1.62
   3   3   1   25.68    1.45
  -4  -3  -1   22.90    1.40
  -4  -3  -1   23.00    1.36
   4   3   1   23.29    1.46
   4   3   1   24.60    1.36
  -5  -3  -1   26.28    1.70
  -5  -3  -1   29.47    1.67
   5   3   1   29.99    1.82
   5   3   1   28.25    1.66
  -6  -3  -1   43.63    2.41
   6   3   1   38.70    2.39
  -8  -3  -1    5.28    0.46
   8   3   1    4.76    0.41
  -9  -3  -1    0.57    0.26
  -9  -3  -1    0.73    0.19
   9   3   1    0.55    0.34
   9   3   1    0.81    0.15
 -10  -3  -1    6.70    0.55
  10   3   1    6.86    0.44
   7  -4  -1   18.53    1.21
   7  -4  -1   16.11    1.08
  -7   4   1   17.09    1.22
  -7   4   1   20.39    1.20
   6  -4  -1   13.01    0.98
  -6   4   1   12.72    0.88
  -6   4   1   13.75    0.91
  -6   4   1   12.78    0.85
   5  -4  -1    0.81    0.32
   5  -4  -1    1.54    0.33
  -5   4   1    0.75    0.18
  -5   4   1    0.89    0.29
  -5   4   1    0.77    0.28
  -5   4   1    0.81    0.19
   4  -4  -1    5.37    0.68
   4  -4  -1    5.36    0.65
   4  -4  -1    6.04    0.50
  -4   4   1    5.65    0.64
  -4   4   1    6.47    0.44
  -4   4   1    5.48    0.44
  -4   4   1    6.30    0.51
   3  -4  -1    2.81    0.29
   3  -4  -1    2.90    0.28
  -3   4   1    2.21    0.27
  -3   4   1    3.00    0.36
  -3   4   1    2.69    0.29
   2  -4  -1    5.38    0.41
  -2   4   1    5.44    0.37
  -2   4   1    6.06    0.40
  -2   4   1    5.35    0.38
   1  -4  -1    5.78    0.80
   1  -4  -1    7.15    0.49
  -1   4   1    7.17    0.45
  -1   4   1    7.10    0.43
   0  -4  -1  195.13   10.83
   0  -4  -1  192.35   10.87
   0   4   1  186.63   10.84
  -1  -4  -1  175.41    9.96
  -2  -4  -1    1.18    0.20
   2   4   1    1.66    0.20
  -3  -4  -1    4.29    0.33
  -3  -4  -1    4.89    0.32
  -3  -4  -1    4.84    0.37
   3   4   1    5.10    0.40
  -4  -4  -1   36.53    2.19
  -4  -4  -1   39.54    2.20
  -4  -4  -1   39.35    2.25
   4   4   1   36.61    2.31
  -5  -4  -1   38.08    2.13
  -5  -4  -1   36.24    2.12
  -5  -4  -1   36.45    2.16
   5   4   1   35.22    2.27
  -6  -4  -1   55.48    3.26
  -7  -4  -1   25.50    1.61
   7   4   1   22.29    1.54
   7   4   1   29.00    2.01
  -8  -4  -1   10.43    0.70
   8   4   1    9.33    0.71
  -9  -4  -1    6.81    0.53
  -9  -4  -1    7.24    0.65
   9   4   1    6.58    0.73
   9   4   1    7.44    0.55
  10   4   1    2.81    0.24
   7  -5  -1   18.88    1.38
  -7   5   1   23.83    1.34
   6  -5  -1    5.70    0.65
   6  -5  -1    6.48    0.63
  -6   5   1    6.84    0.54
  -6   5   1    6.73    0.50
  -6   5   1    6.47    0.55
   5  -5  -1    7.14    0.74
   5  -5  -1    9.49    0.73
  -5   5   1    8.95    0.66
  -5   5   1    7.86    0.59
  -5   5   1    8.28    0.64
   4  -5  -1    2.01    0.41
   4  -5  -1    1.42    0.32
   4  -5  -1    1.99    0.28
  -4   5   1    1.03    0.25
  -4   5   1    1.88    0.32
  -4   5   1    1.33    0.31
   3  -5  -1    5.01    0.47
   3  -5  -1    5.75    0.66
   3  -5  -1    4.60    0.69
  -3   5   1    5.73    0.45
  -3   5   1    5.02    0.41
  -3   5   1    4.99    0.59
   2  -5  -1   18.09    1.10
  -2   5   1   17.14    1.04
  -2   5   1   17.30    1.08
  -2   5   1   16.89    1.05
  -2   5   1   17.10    1.05
   1  -5  -1   27.57    1.64
  -1   5   1   27.95    1.61
  -1   5   1   26.07    1.58
   0  -5  -1   14.79    0.92
   0   5   1   14.31    0.86
   0   5   1   14.36    0.89
  -1  -5  -1    1.17    0.22
  -1  -5  -1    1.09    0.21
  -1  -5  -1    1.31    0.16
   1   5   1    1.11    0.20
  -2  -5  -1    6.06    0.39
  -2  -5  -1    5.79    0.41
  -2  -5  -1    5.47    0.43
   2   5   1    5.84    0.43
  -3  -5  -1    9.75    0.62
  -3  -5  -1    9.75    0.66
   3   5   1   10.16    0.74
  -4  -5  -1   62.86    3.80
  -4  -5  -1   67.15    3.84
  -4  -5  -1   66.52    3.80
   4   5   1   68.38    3.94
  -5  -5  -1   29.45    1.73
  -5  -5  -1   30.10    1.69
  -5  -5  -1   29.06    1.73
   5   5   1   25.23    1.83
  -6  -5  -1    5.07    0.53
   6   5   1    4.95    0.74
  -7  -5  -1    0.59    0.24
  -7  -5  -1    0.99    0.30
   7   5   1    0.36    0.33
  -8  -5  -1   12.56    0.84
  -8  -5  -1   12.33    0.93
  -9  -5  -1    5.36    0.50
  -9  -5  -1    3.97    0.92
  -9  -5  -1    4.24    0.42
   9   5   1    4.47    0.37
   9   5   1    4.10    0.57
  10   5   1    7.42    0.47
  -6   6   1    0.80    0.15
   5  -6  -1    0.68    0.29
   5  -6  -1    0.79    0.29
  -5   6   1    0.91    0.22
   4  -6  -1    3.10    0.47
   4  -6  -1    3.07    0.52
   3  -6  -1   19.29    1.35
   3  -6  -1   18.20    1.24
  -3   6   1   19.03    1.25
  -3   6   1   19.99    1.32
   2  -6  -1   82.70    4.41
   2  -6  -1   72.89    4.30
  -2   6   1   75.46    4.31
  -2   6   1   67.56    4.25
  -2   6   1   71.18    4.25
   1  -6  -1   12.95    0.86
  -1   6   1   12.58    0.81
   0  -6  -1   28.96    1.75
  -1  -6  -1    0.89    0.25
   1   6   1    1.05    0.19
  -2  -6  -1    2.32    0.37
  -2  -6  -1    2.72    0.31
   2   6   1    2.47    0.32
  -3  -6  -1   18.00    1.16
  -3  -6  -1   18.34    1.16
  -4  -6  -1   71.41    4.07
  -4  -6  -1   70.19    4.12
  -5  -6  -1    4.23    0.42
  -5  -6  -1    6.10    0.67
  -5  -6  -1    4.80    0.49
   5   6   1    5.57    0.90
  -6  -6  -1    7.20    0.63
   6   6   1    8.05    0.90
   6   6   1    6.50    0.61
  -7  -6  -1    4.68    0.46
  -7  -6  -1    3.99    0.66
   7   6   1    5.05    0.66
   7   6   1    4.78    0.73
  -8  -6  -1    5.43    0.57
  -9  -6  -1    4.49    0.47
  -9  -6  -1    4.34    0.70
  -9  -6  -1    4.19    0.47
   9   6   1    4.38    0.53
   9   6   1    4.52    0.34
   5  -7  -1    0.68    0.32
  -5   7   1    0.65    0.13
   4  -7  -1    4.00    0.56
   4  -7  -1    5.77    0.57
  -4   7   1    4.66    0.42
   3  -7  -1    4.34    0.54
   2  -7  -1   23.59    1.55
   2  -7  -1   22.02    2.46
  -2   7   1   22.67    1.40
   1  -7  -1    1.26    0.81
   1  -7  -1    0.63    0.37
   1  -7  -1    0.40    0.24
   1  -7  -1    0.94    0.43
  -1   7   1    0.45    0.23
  -1   7   1    0.66    0.18
   0  -7  -1   10.52    0.76
   0  -7  -1   10.65    0.88
   0   7   1   10.81    0.78
   0   7   1    9.66    0.95
   0   7   1    9.73    0.84
   0   7   1   10.06    0.69
  -1  -7  -1    9.89    0.92
  -1  -7  -1    8.43    0.66
  -1  -7  -1    7.14    1.13
   1   7   1    9.74    0.80
   1   7   1    8.43    0.60
   1   7   1    7.56    0.74
  -2  -7  -1    3.43    0.63
  -2  -7  -1    3.45    0.46
  -2  -7  -1    3.60    0.57
  -2  -7  -1    4.63    0.68
   2   7   1    4.23    0.56
   2   7   1    4.20    0.77
  -3  -7  -1    1.36    0.27
  -3  -7  -1    2.04    0.32
  -3  -7  -1    1.21    0.65
  -3  -7  -1    1.83    0.37
   3   7   1    2.15    0.43
  -4  -7  -1   41.27    2.61
  -4  -7  -1   45.18    2.66
  -4  -7  -1   46.39    2.63
   4   7   1   40.85    2.70
   4   7   1   44.07    2.72
  -5  -7  -1   41.84    2.45
  -5  -7  -1   39.88    2.38
  -5  -7  -1   36.26    2.39
  -5  -7  -1   37.61    2.35
   5   7   1   42.11    2.43
   5   7   1   40.29    2.36
  -6  -7  -1   12.04    0.90
  -6  -7  -1   12.39    0.87
   6   7   1   14.01    1.13
  -7  -7  -1    1.15    0.24
  -7  -7  -1    0.35    0.35
   7   7   1    0.94    0.33
   7   7   1    1.21    0.53
  -8  -7  -1    0.74    0.23
  -8  -7  -1    0.64    0.22
  -8  -7  -1    0.05    0.31
   8   7   1    0.60    0.32
  -9  -7  -1    4.33    0.63
  -9  -7  -1    4.77    0.43
   9   7   1    4.73    0.49
   4  -8  -1    1.68    0.33
  -4   8   1    2.20    0.21
   3  -8  -1    3.95    0.50
   3  -8  -1    3.28    0.62
  -3   8   1    2.95    0.40
   2  -8  -1   32.23    2.00
  -2   8   1   29.88    1.80
  -2   8   1   28.05    1.87
   1  -8  -1    8.09    0.78
   0   8   1   13.39    0.89
  -1  -8  -1    1.35    0.50
   1   8   1    0.66    0.30
   1   8   1    0.29    0.21
  -2  -8  -1    1.52    0.34
  -2  -8  -1    1.87    0.49
  -2  -8  -1    1.37    0.30
   2   8   1    2.05    0.43
   2   8   1    1.48    0.29
  -3  -8  -1   15.08    1.09
  -3  -8  -1   15.61    1.38
  -3  -8  -1   14.12    1.03
  -3  -8  -1   14.96    1.06
   3   8   1   15.72    1.03
  -4  -8  -1   13.58    1.01
  -4  -8  -1   12.18    0.99
   4   8   1   12.51    0.88
  -5  -8  -1    3.46    0.45
  -5  -8  -1    3.55    0.51
  -5  -8  -1    3.62    0.52
  -6  -8  -1    1.03    0.27
  -7  -8  -1    3.55    0.52
  -7  -8  -1    2.89    0.40
   7   8   1    3.30    0.53
   7   8   1    2.70    0.61
  -8  -8  -1    0.64    0.25
  -8  -8  -1    0.46    0.21
   8   8   1    0.48    0.23
   2  -9  -1   10.94    0.87
  -2   9   1   13.07    0.83
   1  -9  -1    0.42    0.30
   1  -9  -1    0.24    0.38
  -1   9   1    0.54    0.18
   0  -9  -1    5.06    0.74
   0  -9  -1    4.26    0.96
   0   9   1    6.32    0.55
  -1  -9  -1    6.98    0.74
  -1  -9  -1    7.41    0.88
   2   9   1    9.19    0.69
  -3  -9  -1   11.63    1.20
   3   9   1   11.24    0.78
  -4  -9  -1   18.96    1.36
  -4  -9  -1   23.06    1.68
  -5  -9  -1    2.22    0.37
  -5  -9  -1    2.40    0.38
  -5  -9  -1    2.54    0.43
   5   9   1    2.62    0.30
  -6  -9  -1    7.37    0.62
  -6  -9  -1    7.08    0.62
  -7  -9  -1    6.45    0.52
  -7  -9  -1    5.60    0.54
  -1 -10  -1    2.36    0.44
  -1 -10  -1    2.74    0.59
   1  10   1    2.94    0.31
  -2 -10  -1    3.18    0.62
  -2 -10  -1    3.36    0.49
   2  10   1    3.03    0.33
  -3 -10  -1    2.08    0.45
  -3 -10  -1    3.63    0.45
   3  10   1    2.86    0.30
  -4 -10  -1    1.20    0.27
  -4 -10  -1    1.08    0.52
   4  10   1    1.03    0.17
   3  10  -2    2.81    0.28
  -3 -10   2    3.70    0.74
  -2 -10   2    0.61    0.34
  -2 -10   2    0.33    0.28
   6   9  -2    4.95    0.36
  -6  -9   2    4.31    0.65
   5   9  -2    4.65    0.38
  -5  -9   2    4.89    0.50
  -5  -9   2    4.13    0.73
   4   9  -2    6.90    0.51
  -4  -9   2    5.29    0.97
  -4  -9   2    6.41    0.62
   3   9  -2    5.29    0.47
  -3  -9   2    5.40    1.11
  -3  -9   2    4.11    0.59
  -3  -9   2    6.30    1.09
   2   9  -2    5.39    0.55
  -2  -9   2    5.03    0.93
  -2  -9   2    5.22    0.77
   1   9  -2    0.87    0.24
  -1  -9   2    0.83    0.45
  -1  -9   2    0.47    0.61
   0   9  -2    1.10    0.18
   0   9  -2    1.30    0.27
   0  -9   2    1.05    0.31
   0  -9   2    1.04    0.42
  -1   9  -2    8.37    0.54
   1  -9   2    6.63    0.89
   1  -9   2    8.46    0.69
  -2   9  -2    4.81    0.34
   2  -9   2    4.73    0.48
   7   8  -2    3.55    0.30
   7   8  -2    2.45    0.40
  -7  -8   2    3.14    0.39
  -7  -8   2    3.35    0.58
   6   8  -2   10.80    0.70
  -6  -8   2   11.02    1.21
  -6  -8   2   10.14    0.81
   5   8  -2    0.89    0.19
   4   8  -2    0.89    0.19
   3   8  -2    1.38    0.24
  -2  -8   2    3.18    0.89
  -1  -8   2   15.16    1.40
  -1  -8   2   12.57    1.62
   0  -8   2   23.61    1.61
   1  -8   2   20.92    1.74
   1  -8   2   22.41    1.46
  -2   8  -2    1.43    0.27
   2  -8   2    1.50    0.34
  -3   8  -2    0.79    0.15
   3  -8   2    1.21    0.29
   3  -8   2    1.01    0.52
   8   7  -2   20.25    1.17
  -8  -7   2   19.79    1.35
  -8  -7   2   19.62    1.24
   7   7  -2   13.71    0.82
   7   7  -2   12.11    1.04
   7   7  -2   14.73    0.95
  -7  -7   2   11.72    0.94
  -7  -7   2   14.17    0.94
  -7  -7   2   13.17    0.97
   6   7  -2    4.47    0.41
  -6  -7   2    4.92    0.59
  -6  -7   2    5.06    0.57
   5   7  -2    1.10    0.22
  -5  -7   2    0.95    0.31
  -5  -7   2    1.62    0.35
  -4  -7   2    2.31    0.40
  -3  -7   2   14.43    1.14
   2   7  -2    1.58    0.34
   2   7  -2    1.36    0.25
  -2  -7   2    1.82    0.57
  -2  -7   2    0.84    0.45
   1   7  -2   52.76    3.11
  -1  -7   2   53.31    3.32
  -1  -7   2   53.07    3.70
   0   7  -2   15.22    1.01
   0  -7   2   15.56    1.49
   0  -7   2   18.22    1.80
  -1   7  -2   17.61    1.12
  -1   7  -2   16.08    1.10
  -1   7  -2   19.24    1.15
   1  -7   2   18.71    1.70
   1  -7   2   18.02    1.33
  -2   7  -2    1.31    0.23
  -2   7  -2    2.22    0.34
  -2   7  -2    1.69    0.37
  -2   7  -2    2.21    0.33
   2  -7   2    1.68    0.52
  -3   7  -2    1.79    0.32
  -3   7  -2    2.10    0.32
   3  -7   2    2.52    0.49
  -4   7  -2    4.97    0.44
   4  -7   2    4.56    0.57
   4  -7   2    5.49    0.77
   9   6  -2    5.02    0.35
  -9  -6   2    4.97    0.62
  -9  -6   2    4.60    0.45
   8   6  -2    3.01    0.28
   8   6  -2    2.56    0.52
  -8  -6   2    3.46    0.48
  -8  -6   2    3.02    0.45
  -8  -6   2    4.31    0.64
   7   6  -2    6.56    0.43
   7   6  -2    6.12    0.47
  -7  -6   2    5.60    0.61
  -7  -6   2    5.58    0.60
   6   6  -2    2.93    0.57
  -6  -6   2    2.92    0.47
  -6  -6   2    2.29    0.43
  -6  -6   2    2.78    0.39
   5   6  -2    0.72    0.50
  -5  -6   2    0.30    0.28
   4   6  -2    6.42    0.58
  -4  -6   2    7.12    0.56
  -4  -6   2    7.26    0.75
  -4  -6   2    6.40    0.77
  -3  -6   2   42.44    2.50
  -3  -6   2   40.22    2.50
   2   6  -2   58.19    3.42
  -2  -6   2   60.59    3.48
   1   6  -2   41.48    2.33
  -1  -6   2   38.34    2.38
   0   6  -2    0.84    0.15
   0   6  -2    1.22    0.21
  -1   6  -2    9.36    0.59
  -1   6  -2    8.58    0.67
  -1   6  -2    8.98    0.66
   1  -6   2    6.54    1.39
   1  -6   2    8.18    0.64
   1  -6   2    7.22    0.90
  -2   6  -2    2.58    0.31
  -2   6  -2    2.33    0.41
   2  -6   2    2.37    0.43
   2  -6   2    2.83    0.60
   2  -6   2    2.66    0.48
  -3   6  -2    0.58    0.20
  -3   6  -2    0.40    0.16
  -3   6  -2    0.69    0.17
  -3   6  -2    0.43    0.21
   3  -6   2    0.51    0.30
   3  -6   2    0.91    0.34
  -4   6  -2    6.45    0.52
  -4   6  -2    6.11    0.47
  -4   6  -2    5.61    0.51
   4  -6   2    6.95    0.67
  -5   6  -2   17.05    1.07
  -5   6  -2   19.24    1.06
   5  -6   2   15.90    1.02
   5  -6   2   16.21    1.19
  -6   6  -2    1.93    0.23
   6  -6   2    1.27    0.24
   9   5  -2    0.98    0.16
   9   5  -2    0.87    0.27
  -9  -5   2    1.26    0.23
  -9  -5   2    0.87    0.29
  -9  -5   2    0.89    0.46
  -8  -5   2    1.39    0.27
  -8  -5   2    1.63    0.36
  -8  -5   2    1.78    0.25
  -8  -5   2    1.43    0.55
   7   5  -2    2.96    0.55
  -7  -5   2    2.90    0.43
   6   5  -2    1.19    0.56
  -6  -5   2    0.60    0.25
  -6  -5   2    0.79    0.25
   5   5  -2    4.22    0.48
   5   5  -2    4.13    0.71
  -5  -5   2    3.73    0.48
  -5  -5   2    4.06    0.40
  -5  -5   2    4.06    0.45
  -5  -5   2    3.12    0.54
   4   5  -2   22.07    1.60
  -4  -5   2   17.15    1.26
  -3  -5   2    4.11    0.39
  -3  -5   2    3.78    0.46
  -3  -5   2    3.85    0.35
  -3  -5   2    4.10    0.38
  -2  -5   2   37.84    2.03
  -2  -5   2   36.57    2.03
  -2  -5   2   29.46    2.05
   1   5  -2  170.66    9.79
  -1  -5   2  174.80    9.79
  -1  -5   2  171.87    9.79
   0   5  -2    5.20    0.39
   0   5  -2    5.15    0.36
   0  -5   2    5.32    0.43
   0  -5   2    4.82    0.38
  -1   5  -2   13.12    0.89
  -1   5  -2   15.36    0.90
  -2   5  -2    2.44    0.32
  -2   5  -2    2.09    0.25
  -3   5  -2    2.35    0.26
  -3   5  -2    2.28    0.47
  -3   5  -2    2.65    0.29
  -3   5  -2    2.12    0.31
   3  -5   2    1.70    0.36
  -4   5  -2   20.41    1.34
  -4   5  -2   20.75    1.31
  -4   5  -2   20.96    1.23
   4  -5   2   18.76    1.41
   4  -5   2   20.07    1.38
  -5   5  -2   31.89    1.86
  -5   5  -2   30.81    1.90
   5  -5   2   32.22    2.03
  -6   5  -2    2.08    0.38
  -6   5  -2    2.93    0.29
  -6   5  -2    2.81    0.32
   6  -5   2    2.52    0.31
   6  -5   2    2.38    0.50
   6  -5   2    2.53    0.25
  -7   5  -2    4.93    0.37
  -7   5  -2    5.08    0.38
   7  -5   2    5.27    0.49
   9   4  -2    7.01    0.67
   9   4  -2    8.21    0.51
  -9  -4   2    8.15    0.61
  -9  -4   2    7.96    1.24
  -9  -4   2    8.14    0.65
   8   4  -2   11.98    0.75
  -8  -4   2   11.83    0.87
   7   4  -2   10.53    0.68
   7   4  -2   11.39    0.71
  -7  -4   2    9.22    0.89
  -7  -4   2   10.62    0.76
  -7  -4   2    9.53    0.82
   6   4  -2    6.42    0.79
   6   4  -2    5.44    0.50
  -6  -4   2    5.71    0.56
  -6  -4   2    5.39    0.49
  -6  -4   2    5.59    0.56
  -6  -4   2    6.84    0.77
   5   4  -2    3.80    0.68
  -5  -4   2    3.63    0.47
  -5  -4   2    3.98    0.38
   4   4  -2    2.32    0.39
   4   4  -2    3.30    0.53
  -4  -4   2    2.76    0.43
  -4  -4   2    2.74    0.29
  -4  -4   2    3.02    0.29
   3   4  -2   15.93    1.18
  -3  -4   2   15.09    0.86
  -3  -4   2   14.24    0.87
  -3  -4   2   13.88    0.90
  -3  -4   2   12.56    0.87
   2   4  -2  117.47    6.66
   2   4  -2  108.15    6.39
  -2  -4   2  119.83    6.43
  -2  -4   2  102.07    6.40
  -2  -4   2  114.68    6.39
  -2  -4   2  113.12    6.40
   1   4  -2  172.78    8.93
   1   4  -2  144.45    8.70
  -1  -4   2  154.54    8.71
  -1  -4   2  156.22    8.69
  -1  -4   2  143.50    8.80
  -1  -4   2  149.09    8.71
   0   4  -2    9.47    0.60
   0   4  -2    9.68    0.58
   0  -4   2    9.55    0.59
   0  -4   2    9.41    0.62
   0  -4   2    9.07    0.60
  -1   4  -2    0.75    0.17
  -1   4  -2    1.16    0.18
   1  -4   2    1.05    0.19
  -2   4  -2   15.01    0.94
  -2   4  -2   17.57    1.11
  -2   4  -2   14.42    0.92
  -2   4  -2   15.22    0.93
   2  -4   2   15.60    1.07
  -3   4  -2    9.22    0.59
  -3   4  -2    9.49    0.62
  -3   4  -2    8.99    0.64
  -3   4  -2    9.18    0.59
  -4   4  -2   30.53    1.90
  -4   4  -2   32.49    1.86
   4  -4   2   30.90    1.91
   4  -4   2   32.87    2.07
  -5   4  -2   24.85    1.61
  -5   4  -2   28.99    1.71
  -5   4  -2   29.37    1.63
   5  -4   2   25.28    1.84
  -6   4  -2    9.31    0.60
  -6   4  -2    9.37    0.65
  -6   4  -2    7.46    0.70
   6  -4   2    7.60    0.78
  -7   4  -2    7.45    0.59
  -7   4  -2    6.90    0.52
  -7   4  -2    7.41    0.49
   7  -4   2    6.87    0.67
   7  -4   2    7.29    0.47
   7  -4   2    7.15    0.50
   9   3  -2    2.14    0.23
   9   3  -2    2.34    0.27
  -9  -3   2    2.08    0.42
   8   3  -2   37.79    2.90
   8   3  -2   46.16    2.52
   8   3  -2   42.43    2.53
  -8  -3   2   44.36    2.61
  -8  -3   2   45.73    2.56
   7   3  -2   38.97    2.48
   7   3  -2   43.91    2.83
   7   3  -2   41.15    2.50
  -7  -3   2   45.87    3.17
  -7  -3   2   42.87    2.57
  -7  -3   2   44.11    2.53
   6   3  -2    1.06    0.48
  -6  -3   2    1.13    0.24
  -6  -3   2    1.16    0.21
  -6  -3   2    0.87    0.26
   5   3  -2    1.75    0.46
   5   3  -2    2.64    0.55
  -5  -3   2    2.52    0.30
  -5  -3   2    2.63    0.42
  -5  -3   2    2.56    0.29
  -5  -3   2    2.04    0.30
  -5  -3   2    2.99    0.32
   4   3  -2   55.68    3.51
   4   3  -2   66.53    3.77
  -4  -3   2   56.02    3.39
  -4  -3   2   57.45    3.42
  -4  -3   2   58.58    3.37
  -4  -3   2   56.61    3.40
  -4  -3   2   61.78    3.39
   3   3  -2   44.21    2.64
   3   3  -2   38.55    2.43
  -3  -3   2   41.38    2.34
  -3  -3   2   40.18    2.33
  -3  -3   2   38.29    2.34
  -3  -3   2   40.93    2.37
   2   3  -2   65.26    3.83
  -2  -3   2   65.14    3.63
  -2  -3   2   63.00    3.62
  -2  -3   2   60.54    3.60
  -2  -3   2   62.18    3.61
   1   3  -2  142.89    7.74
   1   3  -2  137.81    7.56
  -1  -3   2  131.51    7.57
  -1  -3   2  122.94    7.56
  -1  -3   2  131.76    7.55
   0   3  -2   61.39    3.54
   0   3  -2   61.43    3.43
   0   3  -2   57.44    3.44
   0  -3   2   63.10    3.44
   0  -3   2   57.08    3.44
  -1   3  -2   20.83    1.20
  -1   3  -2   19.95    1.22
   1  -3   2   20.30    1.20
   1  -3   2   21.19    1.21
   1  -3   2   21.33    1.23
  -2   3  -2   31.43    1.67
  -2   3  -2   30.90    1.69
  -2   3  -2   27.49    1.67
   2  -3   2   27.26    1.66
   2  -3   2   27.29    1.69
  -3   3  -2   50.02    2.95
  -3   3  -2   53.91    2.94
  -3   3  -2   50.53    2.95
   3  -3   2   50.62    2.93
  -4   3  -2   38.15    2.29
  -4   3  -2   40.33    2.29
  -4   3  -2   39.96    2.28
  -5   3  -2    6.79    0.47
   5  -3   2    6.40    0.49
   5  -3   2    7.04    0.58
  -6   3  -2   13.60    0.90
  -6   3  -2   12.75    0.84
   6  -3   2   13.31    0.88
   6  -3   2   12.26    1.12
   6  -3   2   13.29    0.82
  -7   3  -2    3.98    0.37
  -7   3  -2    3.74    0.47
   7  -3   2    4.48    0.37
   7  -3   2    2.80    0.64
  -8   3  -2    7.93    0.55
  -8   3  -2    8.10    0.56
   8  -3   2    8.14    0.51
   8  -3   2    8.59    0.91
   8  -3   2    7.72    0.53
   9   2  -2    2.02    0.27
   9   2  -2    2.48    0.23
  -9  -2   2    1.94    0.30
  -9  -2   2    2.38    0.35
  -9  -2   2    1.90    0.36
   8   2  -2    0.51    0.17
   8   2  -2    1.13    0.19
   8   2  -2    0.71    0.33
  -8  -2   2    0.81    0.23
  -8  -2   2    0.45    0.27
   7   2  -2    3.71    0.49
   7   2  -2    4.91    0.40
   7   2  -2    5.63    0.73
  -7  -2   2    4.81    0.48
  -7  -2   2    4.91    0.52
   6   2  -2    0.52    0.16
   6   2  -2    1.00    0.43
  -6  -2   2    0.43    0.90
  -6  -2   2    0.68    0.25
  -6  -2   2    0.76    0.17
  -5  -2   2    4.73    0.36
  -5  -2   2    3.71    0.49
  -5  -2   2    4.25    0.37
   4   2  -2  122.06    7.05
   4   2  -2  128.63    7.24
   4   2  -2  138.38    6.91
  -4  -2   2  109.76    6.87
  -4  -2   2  115.92    6.88
  -4  -2   2  117.06    6.91
  -4  -2   2  114.73    6.86
   3   2  -2  133.12    7.95
   3   2  -2  151.23    7.89
   3   2  -2  136.49    8.11
  -3  -2   2  130.59    7.85
  -3  -2   2  140.89    7.84
   2   2  -2  114.80    6.32
   2   2  -2  119.15    6.57
  -2  -2   2  115.44    6.35
  -2  -2   2  100.58    6.32
  -2  -2   2  116.37    6.35
  -2  -2   2  104.69    6.33
   1   2  -2   26.72    1.55
   1   2  -2   28.16    1.72
   1   2  -2   30.10    1.57
  -1  -2   2   26.82    1.56
  -1  -2   2   25.84    1.55
  -1  -2   2   26.05    1.56
  -1  -2   2   25.72    1.54
  -1  -2   2   27.68    1.55
  -1  -2   2   26.90    1.57
   0   2  -2   76.94    4.44
   0   2  -2   81.69    4.45
   0   2  -2   78.14    4.56
   0  -2   2   75.47    4.44
   0  -2   2   80.88    4.48
   0  -2   2   76.11    4.45
   0  -2   2   77.81    4.46
   0  -2   2   80.06    4.45
  -1   2  -2   17.38    1.08
  -1   2  -2   20.52    1.14
  -1   2  -2   18.75    1.09
  -1   2  -2   19.14    1.08
   1  -2   2   16.70    1.09
   1  -2   2   17.58    1.10
   1  -2   2   19.81    1.07
   1  -2   2   18.76    1.10
   1  -2   2   18.96    1.07
  -2   2  -2   11.52    0.73
  -2   2  -2   13.28    0.76
   2  -2   2   12.80    0.76
  -3   2  -2   74.08    4.14
   3  -2   2   73.40    4.13
   3  -2   2   70.84    4.16
  -4   2  -2   43.82    2.49
  -4   2  -2   41.60    2.49
  -4   2  -2   44.52    2.49
   4  -2   2   43.29    2.52
  -5   2  -2   15.34    0.93
  -6   2  -2   26.77    1.55
   6  -2   2   25.89    1.60
   6  -2   2   25.30    1.54
  -7   2  -2   12.75    0.79
  -7   2  -2   12.21    0.83
   7  -2   2   11.85    0.82
   7  -2   2   12.09    0.77
  -8   2  -2    2.04    0.35
  -8   2  -2    2.36    0.27
   8  -2   2    1.87    0.37
   8  -2   2    2.16    0.25
  -9   2  -2    2.18    0.26
   9  -2   2    1.44    0.20
   9  -2   2    1.66    0.16
   9   1  -2    0.53    0.14
   9   1  -2    0.67    0.12
  -9  -1   2    1.31    0.40
  -9  -1   2    0.88    0.22
   8   1  -2    7.99    0.67
   8   1  -2    9.28    0.62
  -8  -1   2    8.70    0.71
  -8  -1   2    9.01    0.65
   7   1  -2    4.49    0.45
   7   1  -2    5.73    0.77
  -7  -1   2    4.84    0.51
  -7  -1   2    4.90    0.47
  -7  -1   2    4.96    0.45
  -6  -1   2    3.06    0.34
  -6  -1   2    2.80    0.43
  -6  -1   2    3.34    0.29
  -6  -1   2    3.11    0.31
   5   1  -2    3.79    0.29
  -5  -1   2    3.47    0.33
  -5  -1   2    3.34    0.44
  -5  -1   2    3.55    0.32
  -5  -1   2    3.48    0.27
   4   1  -2   89.96    5.30
   4   1  -2   83.19    4.94
   4   1  -2   90.66    5.10
   4   1  -2   95.05    4.98
  -4  -1   2   79.77    4.96
  -4  -1   2   83.65    4.96
  -4  -1   2   86.03    4.95
   3   1  -2   21.80    1.55
  -3  -1   2   21.05    1.28
  -3  -1   2   22.69    1.30
  -3  -1   2   22.83    1.28
   2   1  -2   36.82    2.45
   2   1  -2   42.51    2.24
   2   1  -2   38.68    2.27
  -2  -1   2   37.92    2.25
  -2  -1   2   42.10    2.25
  -2  -1   2   38.36    2.26
   1   1  -2   54.89    3.36
   1   1  -2   56.85    3.17
   1   1  -2   58.45    3.21
  -1  -1   2   51.98    3.19
  -1  -1   2   54.59    3.18
  -1  -1   2   56.14    3.19
  -1  -1   2   59.10    3.19
   0   1  -2  106.90    5.86
   0   1  -2   88.01    5.97
   0  -1   2  105.21    5.86
   0  -1   2  101.49    5.85
   0  -1   2  111.42    5.85
   0  -1   2  107.42    5.85
  -1   1  -2    2.57    0.17
  -1   1  -2    2.70    0.17
  -1   1  -2    2.50    0.20
  -1   1  -2    2.31    0.26
   1  -1   2    2.82    0.17
   1  -1   2    3.02    0.16
   1  -1   2    2.60    0.20
   1  -1   2    2.27    0.19
  -2   1  -2   27.72    1.49
  -2   1  -2   26.72    1.52
   2  -1   2   24.70    1.49
   2  -1   2   24.69    1.50
   2  -1   2   26.15    1.49
  -3   1  -2    7.12    0.46
   3  -1   2    7.55    0.44
   4  -1   2   22.54    1.32
  -5   1  -2   42.60    2.66
  -5   1  -2   48.48    2.63
  -6   1  -2   42.52    2.56
   6  -1   2   44.94    2.61
   6  -1   2   45.17    2.61
  -7   1  -2    4.40    0.42
  -7   1  -2    4.89    0.44
   7  -1   2    5.02    0.48
   7  -1   2    5.06    0.40
  -8   1  -2   12.56    0.82
  -8   1  -2   13.10    0.88
   8  -1   2   13.03    0.85
   8  -1   2   12.64    0.79
  -9   1  -2    4.33    0.42
   9  -1   2    5.03    0.34
   9  -1   2    5.71    0.40
   9   0  -2    3.20    0.30
   9   0  -2    3.43    0.27
  -9   0   2    3.68    0.40
  -9   0   2    3.49    0.36
   8   0  -2   22.59    1.37
   7   0  -2    7.83    0.58
   7   0  -2    7.92    0.59
  -7   0   2    6.52    0.77
  -7   0   2    8.23    0.64
  -7   0   2    7.38    0.57
   6   0  -2    5.10    0.71
  -6   0   2    6.27    0.56
  -6   0   2    6.33    0.48
  -6   0   2    7.53    0.47
  -6   0   2    6.11    0.47
   5   0  -2    6.64    0.84
   5   0  -2    5.72    0.42
  -5   0   2    4.90    0.52
  -5   0   2    5.78    0.43
  -5   0   2    6.55    0.40
  -5   0   2    5.38    0.44
   4   0  -2  121.01    7.02
   4   0  -2  122.34    6.76
   4   0  -2  122.32    6.82
   4   0  -2  120.31    6.68
  -4   0   2  116.62    6.68
  -4   0   2  113.46    6.69
  -4   0   2  106.62    6.68
   3   0  -2   72.73    4.47
   3   0  -2   78.86    4.71
  -3   0   2   82.01    4.43
   2   0  -2   16.02    0.99
   2   0  -2   18.12    0.97
   2   0  -2   15.66    1.18
  -2   0   2   16.55    0.97
  -2   0   2   17.87    0.99
  -2   0   2   16.23    0.96
   1   0  -2    1.45    0.11
   1   0  -2    1.34    0.15
   1   0  -2    1.13    0.29
  -1   0   2    1.38    0.14
  -1   0   2    1.68    0.12
  -1   0   2    1.55    0.11
   0   0  -2   31.13    1.80
   0   0  -2   29.46    1.77
   0   0  -2   26.67    1.91
   0   0   2   33.78    1.77
   0   0   2   30.94    1.80
   0   0   2   34.99    1.77
   0   0   2   31.69    1.78
  -1   0  -2    1.38    0.13
  -1   0  -2    1.47    0.10
  -1   0  -2    1.49    0.10
  -1   0  -2    1.24    0.24
   1   0   2    1.41    0.11
   1   0   2    1.32    0.13
   1   0   2    1.43    0.10
   1   0   2    1.44    0.13
  -2   0  -2    9.00    0.50
  -2   0  -2    7.90    0.51
   2   0   2    8.08    0.54
   2   0   2    8.74    0.53
   2   0   2    8.72    0.50
  -3   0  -2   79.73    4.31
  -3   0  -2   69.49    4.31
  -3   0  -2   78.72    4.30
   3   0   2   72.00    4.34
   3   0   2   79.73    4.33
   4   0   2   95.30    5.41
  -5   0  -2    1.04    0.15
  -5   0  -2    1.12    0.16
   5   0   2    0.99    0.17
  -6   0  -2    6.18    0.47
   6   0   2    5.51    0.46
   7   0   2    1.37    0.21
   7   0   2    1.23    0.25
  -8   0  -2    8.73    0.71
  -8   0  -2    8.18    0.58
   8   0   2    8.74    0.56
   8   0   2    7.20    0.62
  -9   0  -2    4.01    0.37
   9   0   2    4.79    0.42
   9   0   2    4.16    0.33
   9  -1  -2    0.57    0.12
   8  -1  -2    5.66    0.46
  -8   1   2    5.92    0.50
  -8   1   2    5.04    0.55
  -8   1   2    5.43    0.46
   7  -1  -2   10.04    0.70
  -7   1   2   10.16    0.71
  -7   1   2   10.06    0.72
  -7   1   2   10.65    1.14
   6  -1  -2   20.04    1.27
   6  -1  -2   19.32    1.26
  -6   1   2   17.17    1.48
  -6   1   2   21.39    1.23
  -6   1   2   21.57    1.25
  -6   1   2   20.22    1.29
  -6   1   2   21.14    1.24
   5  -1  -2   19.63    1.25
  -5   1   2   20.27    1.24
  -5   1   2   21.84    1.38
  -5   1   2   19.45    1.31
  -5   1   2   23.29    1.30
   4  -1  -2   26.34    1.49
   4  -1  -2   24.76    1.81
   4  -1  -2   25.25    1.60
  -4   1   2   23.50    1.49
  -4   1   2   25.19    1.50
  -4   1   2   25.37    1.47
  -4   1   2   26.28    1.48
   3  -1  -2    1.49    0.41
   3  -1  -2    1.94    0.15
  -3   1   2    1.54    0.16
  -3   1   2    1.59    0.19
  -3   1   2    1.55    0.22
   2  -1  -2    3.59    0.24
   2  -1  -2    3.28    0.26
   2  -1  -2    3.18    0.47
   2  -1  -2    3.54    0.26
  -2   1   2    3.35    0.25
  -2   1   2    3.47    0.26
  -2   1   2    3.77    0.24
  -2   1   2    3.75    0.23
   1  -1  -2   18.42    1.09
   1  -1  -2   20.01    1.07
   1  -1  -2   16.32    1.25
  -1   1   2   18.98    1.06
   0  -1  -2    1.32    0.29
   0  -1  -2    1.27    0.14
   0  -1  -2    1.59    0.12
   0   1   2    1.79    0.15
   0   1   2    1.57    0.11
   0   1   2    1.50    0.11
  -1  -1  -2  321.50   18.84
  -1  -1  -2  330.47   18.86
  -1  -1  -2  344.76   18.83
  -1  -1  -2  356.51   18.84
   1   1   2  337.62   19.04
   1   1   2  285.87   18.86
   1   1   2  340.76   18.98
   1   1   2  349.17   18.84
  -2  -1  -2  840.94   53.80
   2   1   2  943.84   54.08
   2   1   2  976.19   53.98
   2   1   2  999.95   53.79
   2   1   2 1000.00   53.83
  -3  -1  -2   91.07    4.93
  -3  -1  -2   83.52    4.93
   3   1   2   80.52    4.98
   3   1   2   92.23    4.93
   3   1   2   87.99    4.96
  -4  -1  -2    3.52    0.23
  -4  -1  -2    3.76    0.25
  -5  -1  -2    5.93    0.40
   5   1   2    6.50    0.41
   5   1   2    6.20    0.51
  -6  -1  -2   29.88    1.77
   7   1   2   12.37    0.81
  -8  -1  -2    1.73    0.22
   8   1   2    1.44    0.21
   8   1   2    1.16    0.33
  -9  -1  -2    5.79    0.46
  -9  -1  -2    6.44    0.58
   9   1   2    5.66    0.54
  10   1   2    4.20    0.33
  10   1   2    3.86    0.28
   8  -2  -2    4.32    0.37
   8  -2  -2    5.24    0.58
  -8   2   2    4.40    0.43
   7  -2  -2    1.05    0.23
  -7   2   2    1.32    0.22
  -7   2   2    1.40    0.26
   6  -2  -2   10.59    1.11
   6  -2  -2   10.19    0.81
   6  -2  -2   13.40    0.89
  -6   2   2   12.83    0.81
  -6   2   2   13.07    0.80
  -6   2   2   10.88    0.76
  -6   2   2   12.15    1.08
  -6   2   2   12.57    0.85
  -5   2   2   22.76    1.43
  -5   2   2   22.15    1.39
  -5   2   2   23.70    1.36
   4  -2  -2   15.00    0.97
  -4   2   2   17.20    1.00
  -4   2   2   15.79    1.04
   3  -2  -2    1.41    0.16
   3  -2  -2    1.86    0.23
  -3   2   2    1.19    0.22
  -3   2   2    1.86    0.19
  -3   2   2    1.72    0.21
  -3   2   2    1.60    0.19
  -3   2   2    1.68    0.15
   2  -2  -2    1.45    0.41
   2  -2  -2    1.80    0.19
  -2   2   2    1.89    0.16
  -2   2   2    1.50    0.13
  -2   2   2    1.80    0.19
  -2   2   2    1.94    0.18
   1  -2  -2   20.66    1.24
   1  -2  -2   22.69    1.23
   1  -2  -2   17.85    1.43
  -1   2   2   19.47    1.22
  -1   2   2   22.91    1.21
  -1   2   2   22.47    1.21
   0  -2  -2  206.88   11.36
   0   2   2  197.87   11.36
   0   2   2  200.54   11.35
   0   2   2  198.01   11.34
  -1  -2  -2    1.90    0.12
  -1  -2  -2    1.93    0.16
   1   2   2    1.81    0.13
   1   2   2    1.86    0.18
   1   2   2    1.83    0.17
   1   2   2    1.80    0.16
   1   2   2    1.93    0.11
  -2  -2  -2   24.39    1.46
  -2  -2  -2   25.16    1.48
  -2  -2  -2   27.01    1.47
   2   2   2   25.17    1.49
   2   2   2   26.23    1.46
   2   2   2   25.96    1.52
  -3  -2  -2   19.04    1.16
  -3  -2  -2   20.39    1.18
  -3  -2  -2   19.76    1.16
   3   2   2   21.90    1.18
   3   2   2   20.89    1.20
  -4  -2  -2   63.29    3.68
   4   2   2   66.27    3.69
  -5  -2  -2    2.56    0.22
  -5  -2  -2    2.30    0.21
   5   2   2    2.31    0.20
   6   2   2   78.38    4.49
  -8  -2  -2    7.32    0.56
   8   2   2    7.82    0.55
  -9  -2  -2    3.00    0.47
  -9  -2  -2    2.35    0.49
   9   2   2    2.14    0.27
  10   2   2    2.03    0.19
   8  -3  -2    7.00    0.46
   7  -3  -2   14.71    0.96
   7  -3  -2   13.55    1.05
   7  -3  -2   13.26    0.91
  -7   3   2   16.36    1.07
  -7   3   2   13.81    0.93
   6  -3  -2    6.89    0.65
  -6   3   2    6.38    0.58
  -6   3   2    6.63    0.64
  -6   3   2    6.03    0.51
   5  -3  -2    4.18    0.48
   5  -3  -2    4.96    0.61
  -5   3   2    4.15    0.45
  -5   3   2    4.41    0.57
  -5   3   2    4.09    0.40
  -5   3   2    4.30    0.38
  -5   3   2    4.51    0.37
  -4   3   2    5.29    0.43
  -4   3   2    5.09    0.44
   3  -3  -2   19.32    1.09
   3  -3  -2   17.19    1.06
  -3   3   2   16.57    1.07
  -3   3   2   18.43    1.05
  -3   3   2   17.04    1.06
   2  -3  -2   34.50    1.93
  -2   3   2   33.78    1.89
  -2   3   2   28.41    1.90
  -2   3   2   33.65    1.89
  -2   3   2   33.72    1.90
   1  -3  -2   81.53    4.41
   1  -3  -2   65.93    4.65
  -1   3   2   79.84    4.39
  -1   3   2   81.06    4.38
   0  -3  -2  157.91    8.69
   0   3   2  155.70    8.65
   0   3   2  146.02    8.68
  -1  -3  -2    1.47    0.13
  -1  -3  -2    1.73    0.18
   1   3   2    1.79    0.17
   1   3   2    1.43    0.16
   1   3   2    1.40    0.12
  -2  -3  -2    1.33    0.15
   2   3   2    1.03    0.13
  -3  -3  -2    1.73    0.19
   3   3   2    1.89    0.21
   3   3   2    1.76    0.17
  -4  -3  -2   50.07    2.75
   4   3   2   45.98    2.71
   4   3   2   46.24    2.82
  -5  -3  -2   18.34    1.05
  -5  -3  -2   18.25    1.12
   5   3   2   15.34    1.34
   5   3   2   18.08    1.04
  -6  -3  -2   26.43    1.57
   6   3   2   26.65    1.64
   6   3   2   24.02    1.52
  -7  -3  -2    8.58    0.68
  -8  -3  -2    8.57    0.62
   8   3   2    8.66    0.60
  -9  -3  -2    7.71    0.68
  -9  -3  -2    7.21    0.74
   9   3   2    7.50    0.53
   9   3   2    6.64    1.04
   9   3   2    7.30    0.69
  10   3   2    1.35    0.18
   7  -4  -2    2.65    0.36
   7  -4  -2    3.60    0.46
  -7   4   2    3.82    0.37
   6  -4  -2    8.99    0.67
   6  -4  -2    8.14    0.71
  -6   4   2    7.87    0.62
  -6   4   2    8.01    0.66
  -6   4   2    8.03    0.64
   5  -4  -2    1.14    0.31
   5  -4  -2    1.04    0.29
  -5   4   2    1.10    0.26
  -5   4   2    0.79    0.22
  -5   4   2    0.92    0.22
  -5   4   2    0.75    0.28
   4  -4  -2    9.50    0.82
   4  -4  -2    8.91    0.69
  -4   4   2    8.74    0.65
  -4   4   2    8.95    0.67
  -4   4   2    9.16    0.78
   3  -4  -2   28.28    1.71
   3  -4  -2   27.35    1.68
  -3   4   2   29.09    1.69
  -3   4   2   27.93    1.67
  -3   4   2   29.17    1.71
  -3   4   2   28.05    1.69
   2  -4  -2   55.90    3.26
  -2   4   2   54.77    3.23
  -2   4   2   56.03    3.24
  -2   4   2   58.17    3.22
   1  -4  -2   14.03    0.92
  -1   4   2   14.41    0.89
  -1   4   2   15.58    0.90
   0  -4  -2   45.72    2.72
   0   4   2   45.41    2.61
   0   4   2   45.61    2.63
  -1  -4  -2   32.27    1.85
   1   4   2   30.80    1.83
  -2  -4  -2   63.91    3.53
  -2  -4  -2   58.44    3.49
   2   4   2   63.96    3.57
   2   4   2   58.70    3.52
  -3  -4  -2   35.61    2.01
  -3  -4  -2   32.84    2.00
   3   4   2   33.13    1.98
   3   4   2   35.09    2.06
  -4  -4  -2   12.08    0.74
   4   4   2   12.64    0.87
   5   4   2    2.68    0.39
  -7  -4  -2    1.48    0.29
   7   4   2    1.41    0.41
  -8  -4  -2    3.94    0.82
  -8  -4  -2    2.93    0.38
   8   4   2    2.74    0.55
  -9  -4  -2    7.32    0.56
  -9  -4  -2    7.14    0.69
   9   4   2    8.62    0.78
   9   4   2    7.31    0.60
  10   4   2    4.29    0.31
   6  -5  -2    4.46    0.51
   6  -5  -2    5.04    0.47
  -6   5   2    5.15    0.43
  -6   5   2    3.99    0.41
   5  -5  -2   11.58    0.91
   5  -5  -2   12.88    0.88
  -5   5   2   11.90    0.84
   4  -5  -2    0.68    0.30
   4  -5  -2    1.09    0.29
  -4   5   2    0.51    0.25
   3  -5  -2    3.12    0.44
   3  -5  -2    3.02    0.60
   3  -5  -2    2.96    0.38
  -3   5   2    2.83    0.39
  -3   5   2    3.68    0.54
  -3   5   2    2.67    0.43
   2  -5  -2    8.14    0.60
  -2   5   2    8.52    0.61
   1  -5  -2   29.51    1.84
  -1   5   2   30.85    1.84
  -1   5   2   31.97    1.82
   0  -5  -2   91.13    5.37
   0  -5  -2   96.47    5.40
   0  -5  -2   87.21    5.42
   0   5   2  100.90    5.38
   0   5   2   94.63    5.38
  -1  -5  -2    1.01    0.21
  -1  -5  -2    1.06    0.15
   1   5   2    1.15    0.18
  -2  -5  -2    9.43    0.63
  -2  -5  -2   10.03    0.69
  -2  -5  -2   10.21    0.72
   2   5   2   10.33    0.66
  -3  -5  -2   68.87    3.88
  -3  -5  -2   70.12    3.84
   3   5   2   69.24    3.95
   3   5   2   60.20    3.85
  -4  -5  -2   36.41    2.11
   4   5   2   34.82    2.19
  -5  -5  -2    0.96    0.18
  -5  -5  -2    0.53    0.16
  -6  -5  -2    3.26    0.44
   6   5   2    4.65    0.70
  -7  -5  -2    0.84    0.31
  -7  -5  -2    0.93    0.20
   7   5   2    0.87    0.38
  -8  -5  -2    8.71    0.64
  -9  -5  -2    3.01    0.38
  -9  -5  -2    4.04    0.51
   9   5   2    2.93    0.53
   9   5   2    2.64    0.32
   6  -6  -2    1.75    0.34
  -6   6   2    2.03    0.25
   5  -6  -2    0.76    0.26
   5  -6  -2    0.54    0.26
  -5   6   2    0.30    0.18
   4  -6  -2    6.55    0.67
   4  -6  -2    7.71    0.66
   3  -6  -2   76.45    4.49
   3  -6  -2   75.85    4.51
   2  -6  -2   73.84    4.26
   2  -6  -2   69.06    4.17
   2  -6  -2   68.24    4.20
  -2   6   2   73.96    4.19
  -2   6   2   72.74    4.13
   1  -6  -2   20.70    1.28
  -1   6   2   19.77    1.24
   0  -6  -2   21.03    1.33
   0  -6  -2   18.73    1.47
   0  -6  -2   22.93    1.34
   0   6   2   23.01    1.31
  -1  -6  -2    1.38    0.27
  -1  -6  -2    1.63    0.25
  -2  -6  -2    4.00    0.41
  -2  -6  -2    3.49    0.36
   2   6   2    4.11    0.41
  -3  -6  -2    1.33    0.23
  -3  -6  -2    0.97    0.20
  -3  -6  -2    0.71    0.20
   3   6   2    1.24    0.23
  -4  -6  -2   16.90    1.10
  -4  -6  -2   17.38    1.05
  -5  -6  -2   16.36    1.21
  -5  -6  -2   18.91    1.13
   5   6   2   19.82    1.51
  -6  -6  -2   12.55    0.94
  -6  -6  -2   13.63    0.90
   6   6   2   14.04    1.30
  -7  -6  -2    2.19    0.35
   7   6   2    2.06    0.51
   8   6   2    0.60    0.28
   8   6   2    0.43    0.31
  -9  -6  -2    7.82    0.66
  -9  -6  -2    7.04    0.77
   9   6   2    6.49    0.68
   9   6   2    7.12    0.52
   5  -7  -2    1.25    0.23
   5  -7  -2    1.07    0.21
  -5   7   2    1.07    0.20
   4  -7  -2    1.08    0.27
   4  -7  -2    0.92    0.26
   3  -7  -2   41.80    2.55
  -3   7   2   41.93    2.67
   2  -7  -2   22.68    1.76
   2  -7  -2   27.11    1.64
   2  -7  -2   26.35    2.59
  -2   7   2   22.83    1.54
   1  -7  -2   25.62    1.65
  -1   7   2   26.57    1.67
  -1   7   2   27.74    1.61
   0  -7  -2    4.81    0.60
   0  -7  -2    4.57    0.50
   0  -7  -2    6.17    1.12
   0   7   2    4.86    0.61
   0   7   2    4.98    0.42
   0   7   2    4.65    0.59
   0   7   2    5.38    0.71
  -1  -7  -2    4.31    0.56
  -1  -7  -2    5.83    0.97
  -1  -7  -2    4.35    0.57
  -1  -7  -2    5.34    0.48
   1   7   2    4.86    0.57
   1   7   2    4.06    0.39
   1   7   2    3.66    0.63
  -2  -7  -2    8.32    0.62
  -2  -7  -2    6.86    1.06
  -2  -7  -2    7.36    0.61
  -2  -7  -2    8.29    0.69
   2   7   2    7.00    0.70
   2   7   2    7.66    0.73
  -3  -7  -2   31.46    1.90
  -3  -7  -2   34.63    2.32
  -3  -7  -2   31.46    1.87
  -3  -7  -2   30.04    1.91
  -3  -7  -2   29.86    1.94
   3   7   2   31.90    1.92
   3   7   2   29.74    1.98
  -4  -7  -2    6.80    0.74
  -4  -7  -2    6.42    0.62
  -4  -7  -2    8.12    0.58
  -4  -7  -2    7.41    0.76
   4   7   2    6.57    0.60
  -5  -7  -2    4.92    0.47
  -5  -7  -2    3.86    0.46
  -5  -7  -2    3.27    0.53
  -5  -7  -2    4.85    0.74
   5   7   2    5.15    1.03
   5   7   2    3.61    0.43
   5   7   2    4.67    0.60
  -6  -7  -2   10.94    0.93
   6   7   2   11.63    1.03
  -7  -7  -2    8.29    0.61
  -7  -7  -2    7.95    0.94
   7   7   2    7.35    0.73
   7   7   2    7.70    0.79
  -8  -7  -2    5.25    0.49
  -8  -7  -2    6.70    0.57
   8   7   2    5.86    0.85
   8   7   2    6.35    0.70
  -9  -7  -2    5.20    0.46
   9   7   2    4.18    0.47
   3  -8  -2   20.20    1.27
   3  -8  -2   19.81    1.30
  -3   8   2   20.06    1.18
  -3   8   2   18.64    1.34
   2  -8  -2    5.09    1.09
   2  -8  -2    6.96    0.71
  -2   8   2    7.02    1.01
  -2   8   2    5.77    0.62
   1  -8  -2    2.31    0.51
  -1   8   2    1.88    0.31
   0   8   2    2.96    0.55
   0   8   2    3.44    0.39
  -1  -8  -2    0.53    0.44
   1   8   2    0.65    0.27
   1   8   2    0.53    0.20
   1   8   2    0.70    0.57
  -2  -8  -2    0.79    0.28
  -2  -8  -2    1.40    0.46
  -2  -8  -2    1.40    0.35
  -2  -8  -2    0.91    0.26
   2   8   2    0.97    0.27
   2   8   2    0.84    0.23
   2   8   2    1.11    0.28
  -3  -8  -2    4.59    0.49
  -3  -8  -2    4.33    0.62
  -3  -8  -2    4.32    0.89
  -3  -8  -2    3.41    0.55
   3   8   2    5.08    0.54
   3   8   2    4.45    0.48
  -4  -8  -2    9.51    0.81
  -4  -8  -2   12.04    0.97
  -4  -8  -2    9.54    0.78
   4   8   2    9.91    0.71
  -5  -8  -2    3.56    0.51
  -5  -8  -2    3.05    0.35
  -6  -8  -2    3.56    0.46
  -7  -8  -2   19.52    1.20
  -7  -8  -2   18.89    1.22
  -7  -8  -2   19.78    1.30
   7   8   2   20.10    1.42
   7   8   2   18.18    1.27
  -8  -8  -2    4.08    0.42
   8   8   2    3.59    0.44
   2  -9  -2    1.36    0.28
  -2   9   2    1.99    0.33
   1  -9  -2    0.68    0.27
   1  -9  -2    0.40    0.42
  -1   9   2    0.45    0.22
   0  -9  -2    0.14    0.36
   0  -9  -2    1.00    0.42
   0  -9  -2    0.89    0.42
   0   9   2    0.87    0.26
  -1  -9  -2    4.19    0.61
  -1  -9  -2    3.44    0.73
  -1  -9  -2    4.21    0.56
   1   9   2    4.23    0.55
   2   9   2   12.18    0.90
  -3  -9  -2    6.79    0.63
  -3  -9  -2    8.81    1.22
   3   9   2    6.22    0.56
  -4  -9  -2    7.37    1.05
  -4  -9  -2    5.59    0.57
   4   9   2    6.29    0.62
  -5  -9  -2   19.10    1.60
  -5  -9  -2   19.07    1.28
  -5  -9  -2   19.85    1.24
   6   9   2    0.40    0.27
  -7  -9  -2    3.54    0.43
  -7  -9  -2    3.71    0.39
   7   9   2    3.61    0.49
   7   9   2    2.75    0.44
  -1 -10  -2    0.61    0.44
  -1 -10  -2    0.86    0.52
   1  10   2    0.77    0.19
  -2 -10  -2    1.17    0.34
   2  10   2    1.45    0.27
  -3 -10  -2   15.96    1.21
  -3 -10  -2   15.22    1.01
   3  10   2   15.32    0.95
  -4 -10  -2   15.50    1.09
  -4 -10  -2   18.91    1.49
   5   9  -3    1.19    0.26
  -5  -9   3    0.94    0.27
   4   9  -3    1.71    0.26
  -4  -9   3    2.14    0.81
  -4  -9   3    2.47    0.51
  -4  -9   3    2.19    0.42
   3   9  -3    6.18    0.48
  -3  -9   3    4.91    0.62
  -3  -9   3    6.18    0.98
  -3  -9   3    5.24    0.79
  -2  -9   3   21.84    1.57
  -2  -9   3   25.14    1.73
   1   9  -3    6.96    0.50
   1   9  -3    7.24    0.57
  -1  -9   3    7.32    0.89
  -1  -9   3    7.14    0.72
   0   9  -3    1.61    0.30
   0   9  -3    1.32    0.24
   0  -9   3    1.18    0.37
   0  -9   3    1.35    0.44
  -1   9  -3    1.28    0.20
   1  -9   3    1.54    0.32
   1  -9   3    1.16    0.36
   7   8  -3    0.68    0.10
  -7  -8   3    0.52    0.16
  -7  -8   3    1.41    0.38
   6   8  -3    2.65    0.28
  -6  -8   3    3.10    0.62
  -6  -8   3    1.88    0.39
   5   8  -3    5.24    0.45
  -5  -8   3    4.79    0.95
  -5  -8   3    5.96    0.58
   4   8  -3   10.96    0.82
  -4  -8   3   11.84    1.56
  -4  -8   3   11.85    1.57
  -4  -8   3    9.65    1.24
  -3  -8   3   14.14    1.05
  -2  -8   3   22.29    1.50
  -1  -8   3    1.16    0.37
  -1  -8   3    0.00    0.49
   0   8  -3    6.63    0.70
   0  -8   3    6.17    0.69
  -1   8  -3    9.63    0.73
   1  -8   3    8.80    1.25
   1  -8   3    8.89    0.60
   1  -8   3    9.25    1.11
  -2   8  -3    0.89    0.16
   2  -8   3    0.64    0.49
   2  -8   3    1.13    0.32
  -3   8  -3    4.78    0.34
   3  -8   3    3.94    0.48
   8   7  -3    4.67    0.31
  -8  -7   3    4.40    0.55
  -8  -7   3    4.40    0.42
   7   7  -3    5.53    0.43
   7   7  -3    5.59    0.38
   7   7  -3    4.63    0.56
  -7  -7   3    5.60    0.71
  -7  -7   3    6.08    0.53
   6   7  -3    5.08    0.69
  -6  -7   3    5.81    0.74
  -6  -7   3    7.38    1.07
   5   7  -3    6.38    0.51
   4   7  -3    1.10    0.23
   3   7  -3   12.47    0.88
   3   7  -3   13.68    0.95
   2   7  -3   12.16    0.95
   1   7  -3    6.90    0.57
  -1  -7   3    6.61    1.24
   0   7  -3   13.72    0.87
   0   7  -3   12.42    0.91
   0   7  -3   14.88    0.94
   0  -7   3   12.88    1.45
  -1   7  -3    8.89    0.67
  -1   7  -3    9.63    0.68
   1  -7   3    9.92    0.88
  -2   7  -3    8.88    0.61
  -2   7  -3    7.84    0.61
  -2   7  -3    8.32    0.61
  -2   7  -3    7.72    0.59
   2  -7   3   10.08    0.82
  -3   7  -3   10.78    0.68
   3  -7   3    9.90    1.38
   3  -7   3    9.87    0.64
   3  -7   3    9.78    0.93
  -4   7  -3    3.24    0.30
  -4   7  -3    3.18    0.31
   4  -7   3    3.29    0.30
   4  -7   3    3.16    0.67
   4  -7   3    2.44    0.47
  -5   7  -3    0.53    0.11
   5  -7   3    0.36    0.17
   8   6  -3    6.73    0.67
   8   6  -3    8.30    0.51
  -8  -6   3    7.91    0.77
  -8  -6   3    8.50    0.63
   7   6  -3    8.68    0.94
   7   6  -3    9.93    0.76
   7   6  -3   11.84    0.76
  -7  -6   3   12.54    1.59
  -7  -6   3   11.62    1.10
  -7  -6   3   10.20    0.82
  -7  -6   3   10.82    0.81
   6   6  -3   10.54    0.72
  -6  -6   3   10.10    0.81
  -6  -6   3   10.71    0.85
  -6  -6   3   10.65    0.86
   5   6  -3    2.67    0.39
  -5  -6   3    2.78    0.56
  -5  -6   3    2.81    0.43
  -5  -6   3    3.35    0.56
   4   6  -3    7.10    0.66
  -4  -6   3    6.93    0.78
  -4  -6   3    6.42    0.70
   3   6  -3   14.11    1.00
  -2  -6   3   55.26    3.33
  -2  -6   3   58.25    3.40
  -2  -6   3   59.82    3.77
   1   6  -3    2.06    0.28
  -1  -6   3    1.56    0.27
  -1  -6   3    1.12    0.36
  -1  -6   3    1.42    0.57
  -1  -6   3    2.22    0.54
   0   6  -3    5.66    0.43
   0   6  -3    5.44    0.50
   0  -6   3    5.70    0.84
   0  -6   3    5.35    1.19
  -1   6  -3    3.00    0.31
  -1   6  -3    2.78    0.30
  -1   6  -3    3.11    0.40
   1  -6   3    2.63    0.31
   1  -6   3    3.41    0.53
  -2   6  -3    2.93    0.31
  -2   6  -3    2.44    0.37
  -2   6  -3    3.04    0.32
   2  -6   3    2.24    0.46
  -3   6  -3    3.02    0.31
  -3   6  -3    2.54    0.37
  -3   6  -3    2.26    0.38
  -3   6  -3    2.19    0.32
   3  -6   3    2.60    0.40
  -4   6  -3   19.33    1.15
  -4   6  -3   18.47    1.12
   4  -6   3   16.80    1.26
   4  -6   3   18.71    1.29
  -5   6  -3    6.96    0.50
  -5   6  -3    7.19    0.51
   5  -6   3    6.84    0.67
   5  -6   3    6.49    0.45
  -6   6  -3    1.88    0.24
  -6   6  -3    1.97    0.24
   6  -6   3    2.22    0.47
   9   5  -3    2.59    0.21
  -9  -5   3    2.57    0.33
  -9  -5   3    2.86    0.60
   8   5  -3   10.42    0.75
   8   5  -3   11.74    0.95
  -8  -5   3   10.91    0.84
  -8  -5   3   12.38    1.08
   7   5  -3    0.80    0.13
   7   5  -3    1.42    0.44
  -7  -5   3    0.70    0.29
  -7  -5   3    1.04    0.30
   6   5  -3    2.41    0.35
   6   5  -3    2.66    0.55
  -6  -5   3    2.10    0.40
  -6  -5   3    2.09    0.33
   5   5  -3    0.87    0.25
   5   5  -3    0.80    0.50
   5   5  -3    1.07    0.43
  -5  -5   3    1.10    0.39
  -5  -5   3    0.86    0.39
  -5  -5   3    0.70    0.42
   4   5  -3   25.68    1.59
  -4  -5   3   26.14    1.62
  -4  -5   3   25.18    1.72
  -3  -5   3   19.25    1.31
  -3  -5   3   19.49    1.19
  -2  -5   3  147.74    8.41
   1   5  -3   13.75    0.83
   1   5  -3   12.84    0.79
  -1  -5   3   12.20    0.82
   0   5  -3    5.66    0.42
   0   5  -3    4.60    0.38
  -1   5  -3    2.06    0.30
  -1   5  -3    2.07    0.34
   1  -5   3    2.49    0.33
  -2   5  -3    6.81    0.51
  -2   5  -3    7.13    0.50
  -3   5  -3    5.96    0.44
  -3   5  -3    6.44    0.57
  -3   5  -3    5.19    0.45
   3  -5   3    5.14    0.42
   3  -5   3    4.20    0.71
   3  -5   3    6.37    0.72
  -4   5  -3    3.58    0.34
  -4   5  -3    3.17    0.35
   4  -5   3    3.35    0.62
  -5   5  -3    3.86    0.35
  -5   5  -3    3.75    0.39
   5  -5   3    2.67    0.52
  -6   5  -3    8.73    0.57
  -6   5  -3    8.47    0.61
  -6   5  -3    9.00    0.59
   6  -5   3    8.35    0.60
   6  -5   3    9.00    0.55
   6  -5   3    8.21    0.76
  -7   5  -3   11.36    0.68
   7  -5   3   11.24    0.77
   7  -5   3   10.46    0.65
   9   4  -3    4.58    0.35
  -9  -4   3    5.27    0.89
   8   4  -3    7.85    0.53
   8   4  -3    8.22    0.82
   8   4  -3    7.71    0.54
  -8  -4   3    7.65    0.66
  -8  -4   3    7.77    0.95
  -8  -4   3    6.49    0.67
   7   4  -3    0.76    0.15
   7   4  -3    0.73    0.30
  -7  -4   3    0.60    0.25
  -7  -4   3    0.45    0.31
   6   4  -3    3.80    0.90
  -6  -4   3    4.08    0.47
   5   4  -3   14.72    1.22
   5   4  -3   12.88    0.91
   5   4  -3   14.35    1.34
  -5  -4   3   13.01    1.10
  -5  -4   3   13.16    0.94
   4   4  -3   14.43    1.23
   4   4  -3   12.37    0.99
  -4  -4   3   13.69    0.85
  -4  -4   3   12.51    0.92
   3   4  -3    2.25    0.46
   3   4  -3    1.60    0.36
  -3  -4   3    1.56    0.28
  -3  -4   3    2.04    0.25
  -3  -4   3    1.97    0.37
   2   4  -3   58.84    3.79
  -2  -4   3   69.82    3.82
  -2  -4   3   67.46    3.79
  -2  -4   3   71.98    3.80
  -2  -4   3   62.37    3.78
   1   4  -3    4.19    0.52
   1   4  -3    4.48    0.34
  -1  -4   3    4.19    0.33
  -1  -4   3    4.38    0.41
  -1  -4   3    4.34    0.32
  -1  -4   3    3.79    0.35
   0   4  -3   11.31    0.69
   0   4  -3   11.17    0.66
   0  -4   3   10.10    0.69
   0  -4   3   11.10    0.69
   0  -4   3   10.24    0.67
  -1   4  -3    3.98    0.28
  -1   4  -3    3.87    0.28
  -1   4  -3    3.71    0.32
   1  -4   3    3.58    0.27
   1  -4   3    3.81    0.35
  -2   4  -3    1.35    0.19
  -2   4  -3    1.83    0.25
  -2   4  -3    1.78    0.27
  -2   4  -3    1.76    0.20
   2  -4   3    1.33    0.26
  -3   4  -3   14.35    0.91
  -3   4  -3   14.74    0.93
  -3   4  -3   14.46    0.86
   3  -4   3   12.85    0.97
  -4   4  -3   22.53    1.31
   4  -4   3   22.01    1.31
   4  -4   3   21.05    1.53
  -5   4  -3   17.46    1.07
   5  -4   3   16.08    1.26
   5  -4   3   16.72    1.02
  -6   4  -3   29.85    1.64
  -6   4  -3   29.05    1.77
   6  -4   3   23.91    1.78
  -7   4  -3   17.04    1.04
  -7   4  -3   15.14    1.01
   7  -4   3   17.64    1.00
   7  -4   3   17.54    1.18
   7  -4   3   16.96    1.02
   9   3  -3    3.37    0.27
   9   3  -3    4.20    0.42
  -9  -3   3    3.75    0.41
   8   3  -3   42.33    3.25
   8   3  -3   53.27    2.88
   8   3  -3   46.67    2.82
  -8  -3   3   50.46    2.82
  -8  -3   3   46.02    2.78
  -8  -3   3   45.35    3.02
   7   3  -3   44.95    2.72
   7   3  -3   46.75    2.68
  -7  -3   3   44.16    2.72
  -7  -3   3   45.62    2.67
  -7  -3   3   45.30    2.76
   6   3  -3    6.80    1.00
   6   3  -3    6.15    0.56
   6   3  -3    7.71    0.88
  -6  -3   3    7.27    0.97
  -6  -3   3    5.88    0.78
  -6  -3   3    6.94    0.62
  -6  -3   3    7.07    0.64
   5   3  -3    7.54    0.91
  -5  -3   3    7.11    0.55
   4   3  -3   22.38    1.51
   4   3  -3   24.73    1.78
  -4  -3   3   23.15    1.37
  -4  -3   3   20.34    1.39
   3   3  -3    1.22    0.41
   3   3  -3    1.66    0.28
  -3  -3   3    1.01    0.18
  -3  -3   3    1.43    0.25
   2   3  -3   13.95    1.09
   2   3  -3   15.36    0.84
   2   3  -3   13.21    0.90
  -2  -3   3   13.26    0.80
  -2  -3   3   13.33    0.82
  -2  -3   3   12.25    0.80
  -2  -3   3   12.76    0.79
   1   3  -3    1.02    0.19
   1   3  -3    1.18    0.32
  -1  -3   3    1.14    0.17
  -1  -3   3    1.24    0.14
   0   3  -3   26.91    1.64
   0   3  -3   28.86    1.79
   0   3  -3   30.46    1.65
   0  -3   3   25.55    1.64
   0  -3   3   29.02    1.63
  -1   3  -3   11.88    0.75
  -1   3  -3   12.28    0.73
  -1   3  -3   12.36    0.72
   1  -3   3   11.33    0.73
   1  -3   3   12.87    0.72
   1  -3   3   12.40    0.76
  -2   3  -3    6.63    0.42
  -2   3  -3    6.84    0.42
  -2   3  -3    6.16    0.44
   2  -3   3    6.27    0.40
   2  -3   3    6.22    0.52
  -3   3  -3    3.23    0.28
  -3   3  -3    3.60    0.31
  -3   3  -3    3.80    0.27
   3  -3   3    3.38    0.37
   3  -3   3    3.58    0.26
  -4   3  -3   34.17    1.85
  -4   3  -3   29.82    1.83
   4  -3   3   29.99    1.83
  -5   3  -3   48.18    2.57
   5  -3   3   39.77    2.56
   5  -3   3   43.01    2.78
   5  -3   3   45.78    2.61
  -6   3  -3    0.95    0.19
   6  -3   3    0.71    0.38
   6  -3   3    1.00    0.20
   6  -3   3    0.75    0.16
  -7   3  -3    8.37    0.63
   7  -3   3    9.07    0.56
   7  -3   3    9.80    0.62
   7  -3   3    6.94    0.90
  -8   3  -3    3.04    0.31
   8  -3   3    2.66    0.24
   8  -3   3    3.55    0.81
   8  -3   3    3.19    0.29
   9   2  -3   11.78    0.76
   9   2  -3   12.11    0.75
  -9  -2   3   12.92    0.83
   8   2  -3    8.16    0.58
  -8  -2   3    8.12    0.88
  -8  -2   3    7.97    0.70
  -8  -2   3    8.44    0.62
  -7  -2   3    0.92    0.33
  -7  -2   3    0.81    0.25
  -7  -2   3    0.77    0.24
  -7  -2   3    1.00    0.24
   6   2  -3    2.75    0.39
   6   2  -3    3.32    0.31
   6   2  -3    2.66    0.62
   6   2  -3    2.69    0.78
  -6  -2   3    3.29    0.69
  -6  -2   3    2.90    0.30
  -6  -2   3    2.13    0.42
  -6  -2   3    2.74    0.44
  -6  -2   3    2.79    0.37
   5   2  -3   13.08    1.20
  -5  -2   3   14.25    0.83
  -5  -2   3   11.71    0.92
   4   2  -3   16.05    1.34
   4   2  -3   17.98    1.05
   4   2  -3   15.31    1.15
  -4  -2   3   16.69    1.00
  -4  -2   3   17.58    1.03
   3   2  -3   59.14    3.57
   3   2  -3   61.49    3.80
   3   2  -3   67.06    3.49
  -3  -2   3   60.72    3.46
  -3  -2   3   60.10    3.45
  -3  -2   3   53.45    3.45
   2   2  -3  170.44   10.88
   2   2  -3  220.41   10.94
   2   2  -3  209.97   11.22
  -2  -2   3  200.72   10.92
  -2  -2   3  198.73   10.90
  -2  -2   3  180.16   10.91
  -2  -2   3  168.26   10.90
   1   2  -3    2.00    0.36
  -1  -2   3    1.90    0.21
  -1  -2   3    1.77    0.17
  -1  -2   3    1.54    0.17
  -1  -2   3    1.76    0.15
   0   2  -3   13.95    1.02
   0   2  -3   15.71    0.86
   0  -2   3   15.05    0.85
   0  -2   3   12.99    0.86
   0  -2   3   14.42    0.84
  -1   2  -3    3.42    0.36
  -1   2  -3    3.70    0.23
   1  -2   3    3.40    0.26
   1  -2   3    2.94    0.25
   1  -2   3    3.48    0.22
  -2   2  -3   64.00    3.41
  -2   2  -3   54.37    3.42
  -2   2  -3   60.66    3.43
   2  -2   3   54.51    3.42
   2  -2   3   59.22    3.39
   2  -2   3   66.45    3.41
  -3   2  -3  171.76    9.55
  -3   2  -3  171.27    9.57
   3  -2   3  162.93    9.55
  -4   2  -3   59.71    3.51
  -4   2  -3   61.90    3.50
   4  -2   3   62.04    3.50
  -6   2  -3    8.06    0.56
   6  -2   3    7.78    0.62
   6  -2   3    8.17    0.56
  -7   2  -3    1.47    0.25
  -7   2  -3    1.76    0.28
  -7   2  -3    1.48    0.20
   7  -2   3    1.38    0.23
   7  -2   3    1.71    0.24
  -8   2  -3    2.06    0.34
  -8   2  -3    2.12    0.27
   8  -2   3    1.94    0.66
   8  -2   3    2.12    0.32
   8  -2   3    2.01    0.25
   9  -2   3    3.82    0.35
   9  -2   3    4.09    0.27
   9   1  -3   14.90    0.87
  -9  -1   3   13.47    0.92
   8   1  -3   10.95    0.73
   8   1  -3    9.92    0.68
   8   1  -3    9.87    0.64
  -8  -1   3    9.56    0.74
  -8  -1   3   10.22    0.76
   7   1  -3    0.90    0.19
  -7  -1   3    0.07    0.23
  -7  -1   3    0.82    0.20
  -7  -1   3    0.50    0.31
  -7  -1   3    0.44    0.22
   6   1  -3    9.37    1.58
   6   1  -3    9.30    0.68
  -6  -1   3    9.43    0.64
  -6  -1   3    8.75    0.72
  -6  -1   3    9.57    0.63
  -6  -1   3    8.97    0.65
  -6  -1   3    8.99    0.89
  -5  -1   3    2.72    0.36
  -5  -1   3    2.85    0.25
  -5  -1   3    3.10    0.43
   4   1  -3   38.60    2.56
   4   1  -3   40.62    2.22
   4   1  -3   39.02    2.35
  -4  -1   3   34.07    2.19
  -4  -1   3   35.48    2.18
  -4  -1   3   36.63    2.18
  -4  -1   3   39.35    2.20
   3   1  -3   24.78    1.44
   3   1  -3   25.81    1.77
  -3  -1   3   23.60    1.42
  -3  -1   3   22.54    1.41
   2   1  -3   13.35    0.73
   2   1  -3   11.77    1.01
   2   1  -3   11.52    0.78
  -2  -1   3   12.83    0.75
  -2  -1   3   12.50    0.76
  -2  -1   3   13.21    0.76
   1   1  -3   33.59    2.40
   1   1  -3   37.44    2.16
   1   1  -3   38.81    2.20
  -1  -1   3   39.76    2.18
  -1  -1   3   38.96    2.19
  -1  -1   3   40.47    2.20
  -1  -1   3   37.38    2.17
   0  -1   3   34.33    1.96
   0  -1   3   34.01    1.98
   0  -1   3   36.15    1.97
   0  -1   3   35.40    1.97
   0  -1   3   32.56    1.99
  -1   1  -3   14.32    0.85
  -1   1  -3   12.80    0.98
   1  -1   3   15.35    0.85
   1  -1   3   15.76    0.83
   1  -1   3   15.22    0.87
   1  -1   3   12.66    0.84
  -2   1  -3   12.31    0.80
  -2   1  -3   13.98    0.81
   2  -1   3   13.57    0.83
   2  -1   3   14.47    0.89
   2  -1   3   14.71    0.79
  -3   1  -3   29.55    1.69
   3  -1   3   29.08    1.68
  -4   1  -3   22.03    1.32
   4  -1   3   22.82    1.31
   5  -1   3   44.78    2.67
  -6   1  -3    2.09    0.25
   6  -1   3    2.36    0.29
   6  -1   3    1.89    0.38
  -7   1  -3    0.88    0.18
   7  -1   3    0.83    0.20
   7  -1   3    1.10    0.18
  -8   1  -3   33.61    2.09
   8  -1   3   34.11    2.08
   8  -1   3   37.37    2.04
   9  -1   3    3.87    0.33
   9  -1   3    3.95    0.29
   9   0  -3    8.43    0.57
  -9   0   3    7.08    0.77
   8   0  -3    8.72    0.61
   8   0  -3    8.20    0.62
  -8   0   3    8.98    0.67
  -8   0   3    8.84    0.71
   7   0  -3    4.08    0.37
  -7   0   3    4.11    0.41
  -7   0   3    3.15    0.55
  -7   0   3    3.37    0.43
  -6   0   3    5.77    0.46
  -6   0   3    5.97    0.54
  -6   0   3    5.83    0.45
  -6   0   3    6.28    0.72
  -5   0   3   12.07    0.98
  -5   0   3   13.17    0.78
  -5   0   3   12.00    0.86
   4   0  -3   19.23    1.59
   4   0  -3   22.10    1.30
   4   0  -3   20.68    1.26
   4   0  -3   21.53    1.41
  -4   0   3   21.85    1.28
  -4   0   3   21.86    1.26
  -4   0   3   21.25    1.25
   3   0  -3   59.32    3.74
   3   0  -3   58.43    3.43
  -3   0   3   57.01    3.41
  -3   0   3   62.61    3.40
   2   0  -3   24.49    1.80
  -2   0   3   27.89    1.54
  -2   0   3   26.62    1.52
   1   0  -3   46.24    2.65
   1   0  -3   42.73    2.86
   1   0  -3   48.09    2.61
  -1   0   3   48.37    2.63
  -1   0   3   42.72    2.61
  -1   0   3   49.19    2.61
  -1   0   3   43.75    2.64
   0   0  -3    3.34    0.45
   0   0  -3    3.91    0.24
   0   0  -3    3.87    0.30
   0   0   3    4.12    0.24
   0   0   3    4.49    0.25
   0   0   3    4.36    0.30
   0   0   3    4.16    0.27
  -1   0  -3    6.31    0.38
  -1   0  -3    6.29    0.42
  -1   0  -3    5.99    0.38
  -1   0  -3    5.48    0.57
   1   0   3    6.83    0.38
   1   0   3    6.96    0.42
   1   0   3    7.07    0.39
   1   0   3    6.39    0.40
  -2   0  -3    5.22    0.35
  -2   0  -3    4.77    0.51
   2   0   3    5.69    0.32
   2   0   3    5.58    0.33
  -3   0  -3   35.15    2.42
  -3   0  -3   40.58    2.23
   3   0   3   40.43    2.26
   4   0   3   25.24    1.46
   4   0   3   25.18    1.58
   5   0   3   55.61    3.16
   5   0   3   54.34    3.24
   6   0   3    1.58    0.40
  -7   0  -3    4.43    0.41
   7   0   3    3.54    0.38
   7   0   3    3.06    0.47
  -8   0  -3    9.36    0.64
   8   0   3    9.80    0.63
   8   0   3    9.42    0.76
  -9   0  -3    4.00    0.53
  -9   0  -3    4.23    0.47
   9   0   3    3.84    0.31
   9   0   3    3.82    0.39
   8  -1  -3    2.68    0.29
  -8   1   3    2.52    0.39
   7  -1  -3    8.32    0.72
   7  -1  -3    9.09    0.65
  -7   1   3    8.92    0.64
  -7   1   3    8.57    0.88
  -7   1   3    9.04    0.70
  -7   1   3    8.15    0.64
  -6   1   3   10.51    0.72
  -6   1   3    9.89    0.69
  -6   1   3   11.04    0.73
  -5   1   3    3.82    0.34
  -5   1   3    4.76    0.36
  -5   1   3    4.14    0.46
   4  -1  -3    4.38    0.41
   4  -1  -3    4.53    0.36
   4  -1  -3    5.00    0.53
   4  -1  -3    5.46    0.72
  -4   1   3    4.00    0.46
  -4   1   3    4.97    0.38
  -4   1   3    5.09    0.48
   3  -1  -3   21.57    1.69
   3  -1  -3   22.66    1.35
   3  -1  -3   22.17    1.38
  -3   1   3   25.37    1.39
  -3   1   3   22.70    1.37
  -3   1   3   23.79    1.35
   2  -1  -3   31.74    2.34
  -2   1   3   34.50    2.05
  -2   1   3   36.55    2.04
  -2   1   3   38.86    2.07
  -2   1   3   36.92    2.05
   1  -1  -3  119.76    6.50
   1  -1  -3   99.87    6.75
  -1   1   3  113.45    6.50
  -1   1   3  121.15    6.54
  -1   1   3  113.01    6.51
  -1   1   3  117.95    6.49
  -1   1   3  115.25    6.50
  -1   1   3  117.18    6.49
   0  -1  -3   20.68    1.59
   0  -1  -3   22.85    1.39
   0  -1  -3   24.65    1.36
   0   1   3   25.70    1.35
   0   1   3   22.49    1.36
   0   1   3   24.81    1.39
   0   1   3   23.94    1.35
  -1  -1  -3   10.52    0.92
  -1  -1  -3   12.04    0.74
   1   1   3   12.87    0.73
   1   1   3   11.87    0.71
   1   1   3   12.52    0.69
  -2  -1  -3  318.25   18.75
  -2  -1  -3  325.06   18.78
  -2  -1  -3  335.95   18.75
   2   1   3  353.89   18.85
   2   1   3  326.83   18.91
   4   1   3    5.43    0.33
   4   1   3    5.24    0.34
  -5  -1  -3   13.53    0.79
   5   1   3   13.17    0.89
   5   1   3   12.50    0.80
  -6  -1  -3   10.33    0.70
   6   1   3   10.69    0.79
  -8  -1  -3    8.27    0.58
   8   1   3    7.30    0.63
   8   1   3    8.17    0.56
  -9  -1  -3    7.39    0.53
   9   1   3    6.41    0.57
   9   1   3    7.83    0.52
  10   1   3   16.41    0.99
   8  -2  -3    3.49    0.29
  -8   2   3    3.22    0.34
  -8   2   3    2.71    0.53
  -7   2   3    2.33    0.44
  -7   2   3    1.61    0.27
   6  -2  -3    0.83    0.22
   6  -2  -3    0.86    0.27
  -6   2   3    0.96    0.21
  -6   2   3    0.60    0.28
  -6   2   3    0.36    0.21
   5  -2  -3    8.15    0.62
   5  -2  -3    5.96    0.70
  -5   2   3    6.49    0.74
  -5   2   3    7.64    0.53
  -5   2   3    7.59    0.53
  -5   2   3    7.62    0.53
   4  -2  -3   55.20    3.57
   4  -2  -3   56.68    3.17
  -4   2   3   58.56    3.15
  -4   2   3   57.50    3.22
  -4   2   3   46.20    3.21
   3  -2  -3   63.48    3.89
   3  -2  -3   72.65    3.86
   3  -2  -3   57.38    4.19
  -3   2   3   67.55    3.87
  -3   2   3   66.94    3.86
  -3   2   3   65.51    3.85
  -3   2   3   69.01    3.84
  -3   2   3   73.23    3.94
  -3   2   3   70.14    3.85
  -3   2   3   67.96    3.85
   2  -2  -3   15.23    0.93
   2  -2  -3   14.90    1.25
  -2   2   3   15.63    0.93
  -2   2   3   16.20    0.90
  -2   2   3   14.89    0.91
   1  -2  -3    1.92    0.18
   1  -2  -3    2.03    0.45
  -1   2   3    2.08    0.18
  -1   2   3    1.92    0.14
  -1   2   3    1.94    0.16
   0  -2  -3    2.83    0.21
   0  -2  -3    2.40    0.46
   0   2   3    2.79    0.21
   0   2   3    2.75    0.18
  -1  -2  -3   58.20    3.22
  -1  -2  -3   53.41    3.31
   1   2   3   55.60    3.22
   1   2   3   57.67    3.20
   1   2   3   57.46    3.27
  -2  -2  -3   19.36    1.11
  -2  -2  -3   19.80    1.14
  -2  -2  -3   19.21    1.21
   2   2   3   19.64    1.20
   2   2   3   20.86    1.12
   2   2   3   18.02    1.13
  -3  -2  -3  226.76   13.08
  -3  -2  -3  224.82   13.06
   3   2   3  242.10   13.06
  -4  -2  -3   52.57    3.32
   4   2   3   62.68    3.32
   4   2   3   58.91    3.40
   5   2   3   15.33    1.07
   5   2   3   15.45    0.95
   5   2   3   16.91    1.17
   6   2   3    9.03    0.66
   6   2   3   11.87    0.81
  -8  -2  -3   44.87    2.58
   8   2   3   43.90    2.59
  -9  -2  -3    6.85    0.51
   9   2   3    5.99    0.57
  10   2   3    4.80    0.33
   7  -3  -3    3.77    0.49
   7  -3  -3    3.40    0.41
   7  -3  -3    3.40    0.37
  -7   3   3    3.13    0.49
  -7   3   3    2.48    0.44
   6  -3  -3    4.87    0.56
  -6   3   3    4.88    0.46
  -6   3   3    4.51    0.51
  -6   3   3    5.15    0.50
   5  -3  -3    0.51    0.38
   5  -3  -3    0.67    0.31
   4  -3  -3   11.16    0.90
  -4   3   3   11.41    0.76
  -4   3   3   10.75    0.72
  -4   3   3   11.39    0.79
  -4   3   3   12.62    0.94
   3  -3  -3   38.38    2.13
   3  -3  -3   32.77    2.50
  -3   3   3   38.27    2.13
  -3   3   3   35.87    2.10
  -3   3   3   36.46    2.12
  -3   3   3   36.12    2.11
   2  -3  -3   13.02    0.86
   2  -3  -3   13.92    0.85
   2  -3  -3   12.78    1.22
  -2   3   3   13.47    0.80
  -2   3   3   13.51    0.80
  -2   3   3   13.16    0.81
  -2   3   3   12.75    0.82
   1  -3  -3  111.82    7.11
   1  -3  -3  123.24    6.75
  -1   3   3  122.49    6.73
  -1   3   3  117.02    6.74
   0  -3  -3    5.28    0.71
   0  -3  -3    6.42    0.41
   0   3   3    6.81    0.55
   0   3   3    6.58    0.39
   0   3   3    6.04    0.36
   0   3   3    6.16    0.40
   0   3   3    5.64    0.38
  -1  -3  -3   36.51    2.27
  -1  -3  -3   40.25    2.23
   1   3   3   38.67    2.22
  -2  -3  -3   63.07    3.55
  -2  -3  -3   62.42    3.59
  -2  -3  -3   62.07    3.51
   2   3   3   60.93    3.54
   2   3   3   61.46    3.60
  -3  -3  -3    9.15    0.58
  -3  -3  -3    9.07    0.61
   3   3   3    9.01    0.63
  -4  -3  -3  111.49    6.42
   4   3   3  113.69    6.53
   5   3   3    4.07    0.44
   6   3   3    5.83    0.71
   6   3   3    5.79    0.80
   7   3   3    7.25    0.85
   7   3   3    7.04    0.64
  -8  -3  -3   29.54    1.85
   8   3   3   34.93    2.25
   8   3   3   29.70    1.86
  -9  -3  -3   20.40    1.25
   9   3   3   20.96    1.33
  10   3   3    7.02    0.45
   7  -4  -3    0.83    0.23
  -7   4   3    1.30    0.26
  -6   4   3    5.90    0.52
   5  -4  -3    1.26    0.37
  -5   4   3    0.77    0.24
  -5   4   3    1.19    0.33
   4  -4  -3    7.83    0.74
   3  -4  -3   52.94    2.93
  -3   4   3   49.23    2.93
  -3   4   3   50.80    2.90
  -3   4   3   46.26    2.94
   2  -4  -3   17.21    1.59
  -2   4   3   19.22    1.14
  -2   4   3   19.45    1.12
  -2   4   3   19.30    1.12
   1  -4  -3   60.52    3.72
   1  -4  -3   69.50    3.76
   1  -4  -3   60.88    3.78
   1  -4  -3   61.53    4.18
  -1   4   3   70.04    3.72
  -1   4   3   68.21    3.74
   0  -4  -3    3.37    0.28
   0  -4  -3    3.17    0.67
   0  -4  -3    4.13    0.38
   0   4   3    3.91    0.30
   0   4   3    3.89    0.36
   0   4   3    3.54    0.26
  -1  -4  -3   14.92    0.98
  -1  -4  -3   17.28    1.05
  -1  -4  -3   17.93    1.06
   1   4   3   16.83    1.01
   1   4   3   16.40    1.06
  -2  -4  -3    7.96    0.60
  -2  -4  -3    8.98    0.60
  -2  -4  -3    8.16    0.53
   2   4   3    9.16    0.62
   2   4   3    9.33    0.58
  -3  -4  -3   34.42    2.07
  -3  -4  -3   36.87    2.11
   3   4   3   37.72    2.19
   3   4   3   35.12    2.09
   4   4   3    3.55    0.39
   6   4   3    3.03    0.46
   7   4   3   24.64    1.77
   7   4   3   22.28    1.52
  -8  -4  -3   20.75    1.29
   8   4   3   21.34    1.42
  -9  -4  -3    6.97    0.51
   9   4   3    6.08    0.65
   9   4   3    5.19    0.50
   6  -5  -3    3.38    0.40
   6  -5  -3    3.54    0.44
  -6   5   3    3.39    0.35
   5  -5  -3    2.63    0.41
   5  -5  -3    2.16    0.42
   4  -5  -3   41.80    2.48
   4  -5  -3   38.31    2.46
   3  -5  -3   10.56    0.88
   3  -5  -3   10.83    0.88
   3  -5  -3    9.52    0.74
   3  -5  -3    9.66    0.87
   2  -5  -3   20.06    1.27
  -2   5   3   20.64    1.24
   1  -5  -3    4.81    0.43
   1  -5  -3    3.66    0.40
   0   5   3    1.31    0.24
  -1  -5  -3   15.64    1.01
   1   5   3   15.77    0.96
   1   5   3   16.65    0.99
  -2  -5  -3   60.74    3.46
   2   5   3   62.33    3.49
   2   5   3   58.10    3.54
  -3  -5  -3   61.26    3.48
  -3  -5  -3   57.32    3.30
   3   5   3   54.34    3.41
  -4  -5  -3    2.48    0.37
   4   5   3    1.96    0.40
   6   5   3    3.74    0.55
   6   5   3    5.07    0.73
   7   5   3   12.68    1.23
   7   5   3   10.60    0.88
  -8  -5  -3   20.35    1.50
  -8  -5  -3   20.47    1.29
   8   5   3   22.56    1.53
  -9  -5  -3    9.81    0.68
  -9  -5  -3    8.92    0.80
   9   5   3    9.79    0.79
   9   5   3    9.60    0.87
   5  -6  -3    7.66    0.59
   5  -6  -3    7.33    0.63
  -5   6   3    6.78    0.55
   4  -6  -3   13.53    1.02
   4  -6  -3   14.59    0.99
  -4   6   3   13.55    1.16
   3  -6  -3   33.51    2.03
   3  -6  -3   29.74    2.00
   2  -6  -3    2.35    0.48
   2  -6  -3    3.35    0.60
   2  -6  -3    1.42    1.03
  -2   6   3    2.14    0.33
  -2   6   3    2.45    0.41
   1  -6  -3    1.37    0.26
   1  -6  -3    0.64    0.34
  -1   6   3    1.19    0.47
  -1   6   3    0.90    0.17
   0  -6  -3    0.91    0.21
   0  -6  -3    0.91    0.22
   0   6   3    0.64    0.15
   0   6   3    0.71    0.74
  -1  -6  -3   16.91    1.05
  -1  -6  -3   15.00    1.20
   1   6   3   16.96    1.03
  -2  -6  -3    7.72    0.54
  -2  -6  -3    8.01    0.56
  -2  -6  -3    6.74    0.55
  -2  -6  -3    6.92    0.80
   2   6   3    7.70    0.56
  -3  -6  -3    1.02    0.31
  -3  -6  -3    0.46    0.19
  -3  -6  -3    0.80    0.15
   3   6   3    0.36    0.25
  -4  -6  -3    1.93    0.25
  -4  -6  -3    1.51    0.28
  -5  -6  -3   13.05    1.00
   5   6   3   13.79    1.23
  -6  -6  -3   28.83    1.81
   6   6   3   32.44    2.24
  -7  -6  -3   10.82    1.07
   7   6   3    9.55    1.01
   7   6   3   11.96    1.03
  -8  -6  -3    0.95    0.21
  -8  -6  -3    0.88    0.28
   8   6   3    0.92    0.51
  -9  -6  -3    0.42    0.27
   9   6   3    0.60    0.32
   9   6   3    0.81    0.28
   4  -7  -3    4.99    0.57
   4  -7  -3    6.71    0.54
  -4   7   3    6.71    0.71
  -4   7   3    5.10    0.42
   3  -7  -3    5.50    0.93
   3  -7  -3    3.21    0.60
  -3   7   3    3.83    0.66
  -3   7   3    4.02    0.43
   2  -7  -3    2.09    0.60
  -1   7   3   49.74    2.86
  -1   7   3   46.20    2.76
  -1   7   3   43.46    2.78
   0  -7  -3   29.08    2.02
   0  -7  -3   31.13    2.14
   0   7   3   32.65    1.93
   0   7   3   35.62    2.08
  -1  -7  -3    3.48    0.44
   1   7   3    3.08    0.35
   1   7   3    2.36    0.52
   1   7   3    3.55    0.60
  -2  -7  -3    2.30    0.46
  -2  -7  -3    2.85    0.41
  -2  -7  -3    1.91    0.39
  -2  -7  -3    2.65    0.42
   2   7   3    2.58    0.40
   2   7   3    2.52    0.41
  -3  -7  -3    2.20    0.35
  -3  -7  -3    2.19    0.34
  -3  -7  -3    1.48    0.28
   3   7   3    1.59    0.39
  -4  -7  -3    8.12    0.73
  -4  -7  -3   10.15    0.69
  -4  -7  -3    8.91    0.95
  -4  -7  -3    9.47    0.69
   4   7   3    9.18    0.81
   4   7   3    9.73    0.78
  -5  -7  -3    6.45    0.56
  -5  -7  -3    7.26    0.58
   5   7   3    7.14    0.69
  -6  -7  -3   12.83    0.85
   6   7   3   11.88    0.94
   6   7   3   13.20    1.12
  -7  -7  -3    4.77    0.46
  -7  -7  -3    4.74    0.52
   7   7   3    3.82    0.60
  -8  -7  -3    3.01    0.40
  -8  -7  -3    3.52    0.46
   8   7   3    3.81    0.56
   8   7   3    4.56    0.64
   9   7   3    3.77    0.45
   3  -8  -3    4.46    0.48
   2  -8  -3    4.88    0.59
  -2   8   3    5.63    0.56
  -2   8   3    4.70    0.45
   1  -8  -3    2.88    0.75
   1  -8  -3    2.71    0.68
   0   8   3    0.87    0.20
   0   8   3    1.07    0.30
  -1  -8  -3    0.87    0.31
  -1  -8  -3    0.82    0.42
  -1  -8  -3    0.69    0.27
   1   8   3    0.66    0.49
   1   8   3    0.93    0.28
  -2  -8  -3    3.79    0.80
  -2  -8  -3    2.42    0.47
  -2  -8  -3    3.39    0.55
   2   8   3    2.03    0.45
   2   8   3    2.60    0.43
  -3  -8  -3    3.64    0.83
  -3  -8  -3    3.84    0.49
  -3  -8  -3    2.69    0.54
   3   8   3    2.54    0.44
  -4  -8  -3   22.25    1.58
  -4  -8  -3   24.23    1.45
  -5  -8  -3    3.38    0.44
   5   8   3    2.81    0.37
  -6  -8  -3   16.62    1.07
  -6  -8  -3   15.95    1.29
   6   8   3   17.47    1.13
   6   8   3   13.56    1.52
  -7  -8  -3    8.99    0.66
  -7  -8  -3    8.27    0.79
  -7  -8  -3    9.03    0.62
   7   8   3    7.17    0.76
   7   8   3    8.78    0.75
  -8  -8  -3    2.55    0.37
   8   8   3    2.82    0.42
   8   8   3    2.01    0.35
   1  -9  -3    1.01    0.51
  -1   9   3    0.88    0.24
   0  -9  -3    2.00    0.29
   0  -9  -3    1.41    0.45
   0   9   3    1.46    0.27
  -1  -9  -3    3.24    0.48
  -1  -9  -3    2.83    0.55
   1   9   3    2.99    0.45
  -2  -9  -3    9.04    1.56
  -2  -9  -3   10.13    1.00
   2   9   3    8.12    0.81
  -3  -9  -3    2.91    0.45
  -3  -9  -3    4.43    0.97
   3   9   3    3.99    0.57
  -4  -9  -3   21.29    1.39
  -4  -9  -3   20.62    1.34
  -4  -9  -3   21.25    1.65
   4   9   3   23.04    1.40
   4   9   3   20.44    1.29
  -5  -9  -3    1.86    0.38
  -5  -9  -3    1.41    0.30
  -5  -9  -3    1.86    0.54
   5   9   3    2.06    0.36
  -6  -9  -3    3.87    0.43
  -6  -9  -3    4.58    0.55
   6   9   3    3.86    0.50
  -7  -9  -3    1.52    0.29
   7   9   3    1.80    0.39
   7   9   3    1.82    0.34
  -1 -10  -3    0.45    0.32
   1  10   3    0.60    0.15
  -2 -10  -3    2.17    0.41
  -2 -10  -3    2.12    0.42
   2  10   3    2.41    0.43
  -3 -10  -3   10.42    0.93
  -3 -10  -3   10.31    0.72
  -4 -10  -3   42.82    2.51
  -4 -10  -3   42.51    2.73
  -5 -10  -3    2.84    0.37
   4   9  -4    2.81    0.28
  -4  -9   4    4.08    0.71
  -3  -9   4   16.79    1.65
  -3  -9   4   15.31    1.03
  -3  -9   4   17.73    1.34
   2   9  -4    8.36    0.60
  -2  -9   4    7.27    0.74
  -2  -9   4    8.98    1.04
   1   9  -4    0.42    0.22
  -1  -9   4    0.74    0.29
  -1  -9   4    0.42    0.35
   0   9  -4    1.53    0.21
   0  -9   4    1.45    0.67
   6   8  -4    3.03    0.25
  -6  -8   4    3.04    0.40
   5   8  -4    8.56    0.56
  -5  -8   4    6.56    1.41
  -5  -8   4    7.72    1.29
  -5  -8   4    7.35    0.65
   4   8  -4    4.07    0.40
  -4  -8   4    3.36    0.59
  -4  -8   4    3.94    0.58
   3   8  -4   34.52    2.13
   3   8  -4   37.62    2.18
  -3  -8   4   36.82    2.52
  -3  -8   4   38.72    2.37
  -3  -8   4   35.30    2.24
   2   8  -4   13.65    0.89
   2   8  -4   11.78    0.81
  -2  -8   4   13.93    1.48
  -2  -8   4    9.46    1.38
   1   8  -4    1.76    0.31
   1   8  -4    1.66    0.32
   0   8  -4    5.00    0.45
   0  -8   4    4.63    0.98
   0  -8   4    5.72    0.75
  -1   8  -4    0.63    0.16
   1  -8   4    0.79    0.34
   1  -8   4    0.63    0.50
  -2   8  -4    4.20    0.34
   2  -8   4    4.07    0.42
   2  -8   4    3.32    0.87
   2  -8   4    3.47    0.52
  -3   8  -4    8.36    0.53
   7   7  -4    0.98    0.15
  -7  -7   4    0.79    0.21
  -7  -7   4    0.51    0.38
   6   7  -4    0.59    0.16
  -6  -7   4    0.82    0.42
  -6  -7   4    0.47    0.26
   5   7  -4   23.76    1.60
  -5  -7   4   23.81    1.73
   4   7  -4   10.08    0.72
  -4  -7   4    9.81    1.10
  -2  -7   4    0.54    0.44
  -2  -7   4    0.24    0.54
  -2  -7   4    0.93    0.45
  -1  -7   4    1.71    0.55
  -1  -7   4    2.15    0.45
   0   7  -4    5.11    0.45
   0   7  -4    4.60    0.46
   0   7  -4    5.38    0.44
   0  -7   4    5.15    0.39
   0  -7   4    3.59    1.03
  -1   7  -4    3.24    0.47
  -1   7  -4    3.43    0.38
  -1   7  -4    3.00    0.38
   1  -7   4    3.54    0.56
  -2   7  -4   31.49    1.87
  -2   7  -4   31.61    1.89
   2  -7   4   36.70    2.91
   2  -7   4   29.07    2.00
  -3   7  -4   20.10    1.17
  -3   7  -4   19.63    1.18
   3  -7   4   17.32    2.25
   3  -7   4   20.42    1.31
   3  -7   4   18.66    1.25
   3  -7   4   20.88    1.49
   3  -7   4   17.62    1.14
  -4   7  -4    2.34    0.25
   4  -7   4    2.00    0.40
   8   6  -4    0.49    0.10
  -8  -6   4    0.66    0.35
   7   6  -4    7.14    0.47
   7   6  -4    7.06    0.56
  -7  -6   4    6.80    0.78
  -7  -6   4    7.65    0.62
   6   6  -4   18.79    1.29
   6   6  -4   23.99    1.75
   5   6  -4   34.86    2.07
  -5  -6   4   33.97    2.31
   4   6  -4    5.00    0.51
   4   6  -4    5.11    0.52
  -4  -6   4    5.77    0.93
   2   6  -4   10.01    0.75
  -2  -6   4   11.61    1.45
  -2  -6   4   11.21    1.15
  -2  -6   4   11.03    1.03
   1   6  -4   38.18    2.30
   1   6  -4   39.79    2.27
  -1  -6   4   37.31    2.27
  -1  -6   4   40.92    2.55
  -1  -6   4   38.37    2.77
   0   6  -4    6.76    0.55
   0   6  -4    6.45    0.54
   0  -6   4    6.71    0.49
   0  -6   4    6.12    1.26
   0  -6   4    6.82    0.87
  -1   6  -4   30.16    1.66
  -1   6  -4   27.93    1.68
  -1   6  -4   28.59    1.70
   1  -6   4   27.15    1.87
   1  -6   4   25.82    2.27
   1  -6   4   27.69    1.66
  -2   6  -4   15.11    0.97
  -2   6  -4   15.29    0.93
  -2   6  -4   15.98    0.95
   2  -6   4   13.93    1.12
   2  -6   4   14.16    0.92
  -3   6  -4    4.90    0.45
  -3   6  -4    4.36    0.46
  -3   6  -4    5.19    0.40
   3  -6   4    4.67    0.72
   3  -6   4    4.15    0.90
  -4   6  -4    7.65    0.55
  -4   6  -4    8.95    0.79
  -4   6  -4    8.05    0.58
   4  -6   4    7.54    0.73
   4  -6   4    8.71    0.66
  -5   6  -4    7.61    0.52
  -5   6  -4    7.21    0.52
   5  -6   4    6.97    0.64
   5  -6   4    8.05    0.49
   8   5  -4    0.94    0.13
   8   5  -4    0.95    0.17
  -8  -5   4    0.97    0.40
  -8  -5   4    0.62    0.24
   7   5  -4    1.88    0.39
   7   5  -4    1.93    0.27
   7   5  -4    2.58    0.57
  -7  -5   4    2.40    0.80
  -7  -5   4    2.06    0.35
   6   5  -4    5.43    0.47
   6   5  -4    5.32    0.70
  -6  -5   4    5.43    0.69
   5   5  -4   22.33    1.36
   5   5  -4   23.32    1.64
   5   5  -4   21.29    1.91
  -5  -5   4   21.06    1.47
  -5  -5   4   18.68    1.40
  -5  -5   4   22.19    1.66
   4   5  -4    1.38    0.29
   4   5  -4    0.70    0.51
  -4  -5   4    1.84    0.46
  -4  -5   4    1.03    0.42
   2   5  -4   16.85    1.00
   2   5  -4   15.13    0.99
   1   5  -4   50.21    2.93
   1   5  -4   50.95    2.91
   0   5  -4   39.09    2.32
  -1   5  -4    2.84    0.31
  -1   5  -4    3.11    0.40
  -1   5  -4    3.08    0.30
   1  -5   4    2.68    0.30
   1  -5   4    3.13    0.51
  -2   5  -4    8.00    0.55
  -2   5  -4    7.76    0.52
  -2   5  -4    8.33    0.62
  -2   5  -4    7.65    0.54
   2  -5   4    8.11    0.81
   2  -5   4    7.14    0.82
   2  -5   4    6.86    0.53
  -3   5  -4    5.30    0.44
  -3   5  -4    6.26    0.44
  -3   5  -4    5.59    0.49
   3  -5   4    4.71    0.42
   3  -5   4    5.52    0.86
   4  -5   4    1.13    0.29
   4  -5   4    1.07    0.41
   4  -5   4    0.70    0.13
  -5   5  -4    2.75    0.32
   5  -5   4    1.91    0.33
   5  -5   4    2.61    0.25
  -6   5  -4    1.97    0.34
  -6   5  -4    1.16    0.22
   6  -5   4    1.39    0.23
   6  -5   4    1.32    0.28
   6  -5   4    1.45    0.19
   8   4  -4    3.32    0.29
   8   4  -4    3.75    0.32
   8   4  -4    3.88    0.33
  -8  -4   4    4.13    0.45
  -8  -4   4    3.15    0.68
   7   4  -4    0.96    0.18
   7   4  -4    0.87    0.14
  -7  -4   4    0.94    0.39
  -7  -4   4    0.96    0.35
   6   4  -4    0.37    0.18
  -6  -4   4    1.00    0.29
  -6  -4   4    0.59    0.32
  -6  -4   4    0.09    0.53
  -6  -4   4    0.50    0.42
   5   4  -4   15.94    1.26
   5   4  -4   14.73    1.45
   5   4  -4   12.59    0.93
  -5  -4   4   12.96    1.23
  -5  -4   4   12.50    1.09
   4   4  -4    1.15    0.46
   4   4  -4    0.96    0.43
   4   4  -4    0.52    0.26
  -4  -4   4    0.80    0.31
  -4  -4   4    0.91    0.32
   3   4  -4   15.25    1.29
  -3  -4   4   13.74    0.89
   2   4  -4    3.82    0.35
  -2  -4   4    4.46    0.33
  -2  -4   4    5.09    0.39
   1   4  -4    5.30    0.40
   1   4  -4    6.58    0.85
   1   4  -4    6.17    0.43
   1   4  -4    5.87    0.46
  -1  -4   4    6.19    0.45
  -1  -4   4    5.69    0.41
   0   4  -4   31.60    1.99
   0   4  -4   35.91    2.01
   0  -4   4   35.14    2.02
  -1   4  -4   38.47    2.38
  -1   4  -4   40.42    2.36
  -1   4  -4   40.92    2.40
  -1   4  -4   44.02    2.40
  -2   4  -4   16.46    1.01
  -2   4  -4   15.95    0.96
  -2   4  -4   15.60    0.99
  -2   4  -4   15.63    0.99
  -3   4  -4   13.01    0.81
  -3   4  -4   14.00    0.83
  -3   4  -4   13.26    0.79
   3  -4   4   11.35    1.01
   3  -4   4   11.87    0.80
  -4   4  -4   14.45    0.89
   4  -4   4   15.33    0.94
   4  -4   4   14.73    0.89
   4  -4   4   12.29    1.11
   4  -4   4   13.43    1.20
  -5   4  -4   11.73    0.73
   5  -4   4   10.64    0.71
   5  -4   4   10.79    0.75
   5  -4   4   11.84    0.94
  -6   4  -4    0.79    0.18
   6  -4   4    0.83    0.15
   6  -4   4    0.45    0.30
  -7   4  -4   15.23    0.95
   7  -4   4   12.54    1.00
   7  -4   4   14.06    0.85
   7  -4   4   13.83    0.83
   8   3  -4    2.76    0.30
   8   3  -4    2.95    0.30
   8   3  -4    2.33    0.26
  -8  -3   4    3.03    0.55
  -8  -3   4    2.87    0.57
   7   3  -4   23.74    1.40
  -7  -3   4   22.74    1.47
  -7  -3   4   22.74    1.44
  -7  -3   4   21.94    1.49
   6   3  -4   13.04    1.78
   6   3  -4   13.51    0.97
   6   3  -4   14.68    1.22
  -6  -3   4   14.63    1.67
  -6  -3   4   14.64    1.08
   5   3  -4   10.91    1.31
   5   3  -4    9.62    0.75
   5   3  -4   11.72    1.03
  -5  -3   4   10.80    0.80
  -5  -3   4    8.86    0.91
  -5  -3   4    9.39    1.16
  -5  -3   4   10.20    0.74
   4   3  -4    3.39    0.68
  -4  -3   4    2.92    0.31
  -4  -3   4    3.34    0.42
  -4  -3   4    2.68    0.26
   3   3  -4    4.45    0.41
   3   3  -4    4.15    0.65
   3   3  -4    4.01    0.50
  -3  -3   4    3.94    0.30
  -3  -3   4    4.40    0.31
  -3  -3   4    4.34    0.35
   2   3  -4    2.10    0.48
   2   3  -4    2.21    0.27
   2   3  -4    2.00    0.37
   2   3  -4    2.28    0.27
  -2  -3   4    2.15    0.18
  -2  -3   4    1.94    0.19
  -2  -3   4    2.17    0.24
   1   3  -4    4.46    0.29
   1   3  -4    4.87    0.59
   1   3  -4    3.46    0.34
   1   3  -4    4.11    0.29
  -1  -3   4    3.94    0.33
  -1  -3   4    3.78    0.30
  -1  -3   4    3.89    0.30
   0   3  -4   26.96    1.48
   0   3  -4   24.01    1.44
   0   3  -4   25.42    1.66
   0   3  -4   24.91    1.44
   0  -3   4   24.80    1.47
   0  -3   4   25.16    1.46
   0  -3   4   22.04    1.43
  -1   3  -4   33.52    2.19
  -1   3  -4   40.86    2.21
  -1   3  -4   38.94    2.18
   1  -3   4   37.34    2.21
   1  -3   4   38.88    2.18
  -2   3  -4   20.58    1.37
  -2   3  -4   23.62    1.34
  -2   3  -4   24.73    1.35
   2  -3   4   22.65    1.34
  -3   3  -4    1.02    0.14
   3  -3   4    0.60    0.12
   4  -3   4    2.62    0.63
   4  -3   4    2.06    0.29
   4  -3   4    2.97    0.69
  -5   3  -4   26.03    1.52
   5  -3   4   22.80    1.74
   5  -3   4   26.49    1.57
   5  -3   4   26.57    1.53
  -6   3  -4    0.97    0.33
  -6   3  -4    0.87    0.17
   6  -3   4    1.41    0.18
   6  -3   4    1.15    0.19
  -7   3  -4    7.37    0.49
  -7   3  -4    7.82    0.55
   7  -3   4    5.66    0.87
  -8   3  -4    2.48    0.29
   8  -3   4    1.68    0.21
   8  -3   4    2.12    0.19
   8   2  -4    2.22    0.29
   8   2  -4    1.74    0.27
  -8  -2   4    2.25    0.64
  -8  -2   4    1.52    0.31
   7   2  -4    4.93    0.41
  -7  -2   4    3.81    0.43
  -7  -2   4    4.07    0.55
   6   2  -4   33.95    2.08
   6   2  -4   34.67    2.05
   6   2  -4   35.82    2.36
  -6  -2   4   30.92    2.01
  -6  -2   4   35.43    2.05
  -6  -2   4   33.95    2.42
  -6  -2   4   35.09    2.18
   5   2  -4   40.19    2.51
   5   2  -4   48.73    2.86
   5   2  -4   47.43    3.01
  -5  -2   4   43.32    2.50
  -5  -2   4   35.35    2.80
  -5  -2   4   39.37    2.60
  -5  -2   4   42.75    2.47
  -5  -2   4   41.07    2.54
   4   2  -4    0.49    0.21
   4   2  -4    0.77    0.30
   4   2  -4    1.12    0.40
  -4  -2   4    0.81    0.32
  -4  -2   4    1.22    0.18
  -4  -2   4    0.75    0.22
  -4  -2   4    1.36    0.28
   3   2  -4    0.78    0.18
   3   2  -4    0.97    0.37
  -3  -2   4    1.24    0.22
  -3  -2   4    0.90    0.15
  -3  -2   4    0.84    0.18
   2   2  -4  100.64    5.41
   2   2  -4  104.11    5.79
  -2  -2   4   80.36    5.35
  -2  -2   4   95.69    5.40
  -2  -2   4   91.48    5.39
  -2  -2   4   94.19    5.37
   1   2  -4   98.19    5.62
   1   2  -4   99.19    5.32
  -1  -2   4   91.62    5.30
  -1  -2   4   88.51    5.28
  -1  -2   4   86.87    5.27
   0   2  -4    1.16    0.36
   0  -2   4    1.31    0.15
   0  -2   4    1.14    0.11
   0  -2   4    1.00    0.15
  -1   2  -4    2.42    0.42
  -1   2  -4    2.13    0.18
  -1   2  -4    2.29    0.19
   1  -2   4    2.44    0.17
   1  -2   4    2.49    0.23
   1  -2   4    2.20    0.23
  -2   2  -4   24.78    1.47
   2  -2   4   26.55    1.50
   2  -2   4   24.22    1.46
  -3   2  -4   69.46    4.01
  -3   2  -4   71.86    3.99
  -3   2  -4   65.93    3.98
   3  -2   4   72.34    3.99
  -4   2  -4   56.37    3.07
   4  -2   4   49.70    3.04
   5  -2   4   20.10    1.16
   5  -2   4   17.86    1.19
  -6   2  -4    5.93    0.44
  -6   2  -4    5.32    0.44
   6  -2   4    5.67    0.50
   6  -2   4    5.21    0.88
   6  -2   4    6.02    0.44
  -7   2  -4    7.81    0.80
  -7   2  -4    7.32    0.53
   7  -2   4    7.76    0.56
   7  -2   4    7.40    0.53
  -8   2  -4    6.76    0.55
   8  -2   4    7.36    0.53
   8  -2   4    8.08    0.50
   8   1  -4   12.81    0.84
   8   1  -4   13.84    0.86
  -8  -1   4   13.04    0.93
  -8  -1   4   14.66    1.06
   7   1  -4    6.27    0.48
  -7  -1   4    6.00    0.78
  -7  -1   4    5.56    0.51
  -7  -1   4    6.06    0.60
   6   1  -4   17.22    1.12
  -6  -1   4   15.93    1.07
  -6  -1   4   17.24    1.24
  -6  -1   4   17.31    1.53
  -6  -1   4   18.78    1.11
   5   1  -4   28.28    1.87
   5   1  -4   32.47    2.29
  -5  -1   4   30.43    1.78
  -5  -1   4   28.62    1.98
  -5  -1   4   30.66    1.86
  -5  -1   4   30.35    1.80
   4   1  -4   19.57    1.66
  -4  -1   4   20.25    1.17
  -4  -1   4   19.99    1.20
  -4  -1   4   18.28    1.20
   3   1  -4   63.64    3.77
   3   1  -4   62.31    3.37
  -3  -1   4   51.43    3.32
  -3  -1   4   61.17    3.32
  -3  -1   4   51.00    3.33
   2   1  -4   87.73    5.00
   2   1  -4   89.06    5.36
  -2  -1   4   85.67    4.96
  -2  -1   4   85.92    4.97
   1   1  -4   71.52    4.01
   1   1  -4   65.25    4.29
  -1  -1   4   70.96    3.98
  -1  -1   4   71.63    3.97
  -1  -1   4   76.19    4.00
  -1  -1   4   63.34    3.96
   0   1  -4   42.02    2.81
   0  -1   4   42.61    2.53
   0  -1   4   45.46    2.55
   0  -1   4   46.12    2.54
   0  -1   4   45.51    2.53
  -1   1  -4   12.55    1.05
   1  -1   4   14.68    0.85
   1  -1   4   14.34    0.82
   1  -1   4   14.90    0.85
  -2   1  -4   22.88    1.43
  -2   1  -4   25.44    1.43
   2  -1   4   25.13    1.49
   2  -1   4   25.51    1.45
   2  -1   4   24.49    1.42
  -3   1  -4   10.73    0.68
   3  -1   4   11.78    0.68
  -4   1  -4   23.74    1.44
  -4   1  -4   24.91    1.45
   4  -1   4   25.22    1.42
   4  -1   4   23.75    1.52
   5  -1   4   34.04    2.11
  -6   1  -4    7.38    0.55
   6  -1   4    8.41    0.56
   6  -1   4    8.14    0.62
  -7   1  -4   16.00    0.99
   7  -1   4   15.23    1.00
   7  -1   4   14.76    0.94
  -8   1  -4   17.17    1.10
   8  -1   4   19.71    1.15
   8  -1   4   17.76    1.09
   9  -1   4   20.54    1.23
   9  -1   4   20.63    1.20
   8   0  -4    4.30    0.38
   8   0  -4    5.26    0.37
  -8   0   4    4.05    0.43
   7   0  -4    0.67    0.18
  -7   0   4    0.81    0.32
   6   0  -4    1.65    0.35
  -6   0   4    1.69    0.30
  -6   0   4    1.33    0.21
  -6   0   4    1.27    0.34
   5   0  -4    2.24    0.38
   5   0  -4    2.17    0.71
  -5   0   4    2.48    0.27
  -5   0   4    2.06    0.27
  -5   0   4    2.20    0.46
  -5   0   4    1.87    0.41
   4   0  -4   23.32    1.86
  -4   0   4   24.79    1.46
  -4   0   4   25.91    1.50
   3   0  -4   20.33    1.60
   3   0  -4   20.75    1.25
  -3   0   4   19.84    1.19
  -3   0   4   19.88    1.22
   2   0  -4  117.69    6.67
   2   0  -4  112.44    7.01
  -2   0   4  123.58    6.63
  -2   0   4  113.15    6.64
   1   0  -4    5.21    0.65
   1   0  -4    5.80    0.41
   1   0  -4    5.84    0.36
  -1   0   4    5.65    0.39
  -1   0   4    5.97    0.35
  -1   0   4    5.72    0.37
   0   0  -4   12.25    1.07
   0   0   4   14.30    0.79
   0   0   4   13.19    0.77
   0   0   4   13.98    0.81
  -1   0  -4   24.11    1.80
   1   0   4   29.45    1.54
  -2   0  -4   75.01    5.16
   2   0   4   99.07    5.05
  -3   0  -4    3.84    0.26
   3   0   4    3.67    0.32
   3   0   4    3.82    0.25
   4   0   4    1.05    0.14
   5   0   4    1.23    0.33
   6   0   4    2.22    0.38
   7   0   4   44.66    2.67
   7   0   4   45.70    2.63
   8   0   4   12.55    0.72
   8   0   4    9.42    0.90
   9   0   4    9.38    0.68
   9   0   4   10.91    0.64
   8  -1  -4    0.72    0.13
  -8   1   4    0.84    0.22
   7  -1  -4    1.64    0.25
   7  -1  -4    1.89    0.35
   7  -1  -4    2.12    0.37
  -7   1   4    1.55    0.27
   6  -1  -4    2.93    0.36
  -6   1   4    1.98    0.33
  -6   1   4    2.39    0.43
  -6   1   4    2.12    0.44
   5  -1  -4    6.58    0.58
  -5   1   4    7.70    0.55
  -5   1   4    6.53    0.51
  -5   1   4    7.17    0.50
  -5   1   4    7.48    0.74
  -4   1   4   79.17    4.60
  -4   1   4   80.41    4.59
  -4   1   4   81.24    4.62
   3  -1  -4    8.08    0.97
   3  -1  -4    8.31    0.53
  -3   1   4    8.44    0.52
  -3   1   4    7.98    0.68
  -3   1   4    7.72    0.61
   2  -1  -4   54.41    3.53
   2  -1  -4   54.27    3.14
  -2   1   4   52.35    3.12
  -2   1   4   55.48    3.11
  -2   1   4   53.43    3.14
  -2   1   4   51.60    3.09
  -2   1   4   56.29    3.08
   1  -1  -4   51.00    3.08
   1  -1  -4   50.57    3.40
  -1   1   4   54.72    3.05
  -1   1   4   56.00    3.03
  -1   1   4   53.67    3.01
  -1   1   4   50.52    3.04
  -1   1   4   54.86    3.08
   0  -1  -4    5.24    0.66
   0   1   4    6.93    0.51
   0   1   4    6.87    0.40
   0   1   4    6.33    0.40
  -1  -1  -4    1.35    0.41
   1   1   4    1.33    0.12
  -2  -1  -4   77.37    4.72
  -3  -1  -4    6.76    0.79
  -3  -1  -4    8.52    0.46
  -4  -1  -4    2.73    0.67
   4   1   4    3.60    0.24
   4   1   4    4.01    0.34
   4   1   4    3.35    0.28
   5   1   4   17.32    1.10
   5   1   4   14.92    1.09
   6   1   4    1.05    0.27
   7   1   4    8.87    0.72
   7   1   4    8.62    0.73
   7   1   4    9.82    0.70
   8   1   4    3.14    0.31
   9   1   4    3.77    0.44
   9   1   4    5.74    0.38
  10   1   4    4.76    0.32
   8  -2  -4    2.06    0.22
  -8   2   4    1.74    0.27
   7  -2  -4    0.86    0.25
   7  -2  -4    0.64    0.16
  -7   2   4    1.19    0.30
  -7   2   4    0.37    0.22
   6  -2  -4    0.65    0.20
  -5   2   4    4.03    0.36
  -5   2   4    3.43    0.46
  -5   2   4    3.53    0.37
  -4   2   4   99.36    5.76
  -4   2   4  102.75    5.79
   3  -2  -4   37.92    2.26
  -3   2   4   36.68    2.24
  -3   2   4   42.43    2.30
  -3   2   4   36.84    2.44
  -3   2   4   39.79    2.27
   2  -2  -4   21.25    1.43
  -2   2   4   23.15    1.43
  -2   2   4   23.59    1.37
  -2   2   4   23.68    1.38
  -2   2   4   24.92    1.36
  -2   2   4   22.57    1.35
   1  -2  -4   38.77    2.27
   1  -2  -4   35.09    2.61
   1  -2  -4   39.20    2.22
  -1   2   4   40.99    2.21
  -1   2   4   36.68    2.22
  -1   2   4   40.05    2.28
   0  -2  -4   25.77    1.99
   0  -2  -4   28.61    1.68
   0  -2  -4   28.72    1.63
   0   2   4   26.70    1.64
   0   2   4   30.38    1.62
   0   2   4   29.28    1.69
   0   2   4   28.04    1.63
  -1  -2  -4    8.20    0.54
  -1  -2  -4    6.92    0.81
   1   2   4    8.63    0.49
   1   2   4    7.30    0.58
   1   2   4    7.98    0.47
   1   2   4    8.27    0.53
  -2  -2  -4   51.70    3.06
   2   2   4   53.81    2.99
  -3  -2  -4   74.65    4.18
  -3  -2  -4   71.25    4.22
   3   2   4   71.66    4.24
   3   2   4   74.74    4.25
  -4  -2  -4  189.38   11.30
   4   2   4  205.39   11.35
   4   2   4  203.48   11.28
  -5  -2  -4   34.51    2.21
   5   2   4   40.48    2.30
   6   2   4    1.25    0.31
   7   2   4    8.79    0.74
   7   2   4    9.87    0.82
   8   2   4    8.59    0.75
   9   2   4    1.46    0.25
  10   2   4    3.94    0.29
   7  -3  -4    1.11    0.23
   7  -3  -4    0.74    0.21
  -7   3   4    0.68    0.20
   6  -3  -4    2.32    0.38
   6  -3  -4    2.40    0.44
   5  -3  -4    4.42    0.45
   5  -3  -4    3.06    0.52
  -5   3   4    3.78    0.51
  -5   3   4    4.18    0.50
  -5   3   4    5.37    0.57
   4  -3  -4   78.64    4.40
   4  -3  -4   72.18    4.34
  -4   3   4   71.79    4.31
  -4   3   4   77.22    4.39
  -4   3   4   73.54    4.31
  -3   3   4    4.19    0.38
  -2   3   4   21.02    1.36
  -2   3   4   22.97    1.26
  -2   3   4   21.35    1.28
  -2   3   4   20.23    1.26
   1  -3  -4    1.67    0.19
   1  -3  -4    1.60    0.31
   1  -3  -4    1.83    0.23
  -1   3   4    1.71    0.18
  -1   3   4    1.77    0.21
  -1   3   4    1.56    0.29
  -1   3   4    1.60    0.31
   0  -3  -4    5.15    0.48
   0  -3  -4    5.54    0.81
   0  -3  -4    5.36    0.37
   0  -3  -4    5.50    0.46
   0   3   4    6.33    0.46
   0   3   4    6.01    0.40
   0   3   4    5.64    0.37
  -1  -3  -4    9.36    1.03
  -1  -3  -4   10.30    0.69
  -1  -3  -4    9.62    0.62
  -1  -3  -4   10.75    0.64
   1   3   4   10.85    0.65
   1   3   4   11.02    0.70
  -2  -3  -4  104.68    6.24
  -2  -3  -4  114.28    6.18
   2   3   4  106.27    6.18
   2   3   4  109.15    6.22
  -3  -3  -4    4.67    0.36
  -3  -3  -4    4.22    0.38
   3   3   4    4.84    0.41
   3   3   4    4.46    0.33
  -4  -3  -4   14.03    0.88
  -4  -3  -4   12.88    0.94
   4   3   4   14.39    0.96
   5   3   4    0.65    0.27
   6   3   4   12.87    0.95
   7   3   4   12.80    0.94
   7   3   4   12.99    1.17
   8   3   4   28.00    1.83
   8   3   4   29.51    2.01
   9   3   4   13.60    0.97
   9   3   4   18.02    1.08
   6  -4  -4    6.85    0.64
   6  -4  -4    5.32    0.56
  -6   4   4    6.15    0.52
   5  -4  -4   21.90    1.49
   5  -4  -4   24.09    1.47
   4  -4  -4   55.69    3.36
   4  -4  -4   58.50    3.42
   3  -4  -4    0.43    0.28
   3  -4  -4    0.29    0.26
  -3   4   4    0.07    0.32
   2  -4  -4    3.64    0.98
  -2   4   4    3.78    0.35
   1  -4  -4    1.46    0.27
   1  -4  -4    1.80    0.22
  -1   4   4    1.92    0.20
  -1   4   4    1.70    0.24
  -1   4   4    1.89    0.38
   0  -4  -4   30.12    1.76
   0  -4  -4   27.27    1.80
   0  -4  -4   31.78    1.78
   0   4   4   27.40    1.75
   0   4   4   30.67    1.74
   0   4   4   31.48    1.86
  -1  -4  -4   76.87    5.40
  -1  -4  -4   88.24    4.93
  -1  -4  -4   84.67    5.01
  -1  -4  -4   90.96    4.95
   1   4   4   83.33    5.02
   1   4   4   95.17    4.96
  -2  -4  -4   33.56    1.89
  -2  -4  -4   29.99    1.84
  -2  -4  -4   30.70    1.95
   2   4   4   32.40    1.88
   2   4   4   33.67    1.94
  -3  -4  -4    1.50    0.17
  -3  -4  -4    1.41    0.25
  -3  -4  -4    1.83    0.29
   3   4   4    1.40    0.23
   3   4   4    1.06    0.25
  -4  -4  -4    6.47    0.59
  -4  -4  -4    7.19    0.61
   4   4   4    5.40    0.55
   5   4   4    1.64    0.45
   5   4   4    2.31    0.46
   6   4   4    3.93    0.53
   7   4   4    6.16    0.61
   8   4   4   14.81    1.10
   9   4   4    3.52    0.48
   6  -5  -4    6.71    0.53
   6  -5  -4    6.63    0.54
   5  -5  -4    4.82    0.57
   5  -5  -4    5.73    0.56
  -5   5   4    5.19    0.50
   4  -5  -4   29.67    1.95
   4  -5  -4   33.20    1.96
   3  -5  -4    1.95    0.32
   3  -5  -4    2.07    0.37
   3  -5  -4    1.57    0.35
   2  -5  -4    0.83    0.27
   2  -5  -4    0.54    0.30
  -2   5   4    1.15    0.51
   1  -5  -4    5.01    0.44
  -1   5   4    4.64    0.39
  -1   5   4    6.27    0.73
   0  -5  -4    8.47    0.59
  -1  -5  -4    7.48    0.48
  -1  -5  -4    7.02    0.53
  -1  -5  -4    6.28    0.96
   1   5   4    7.98    0.55
  -2  -5  -4   23.41    1.47
  -2  -5  -4   25.72    1.45
  -2  -5  -4   22.63    1.62
   2   5   4   26.57    1.50
  -3  -5  -4   52.50    3.23
  -3  -5  -4   56.98    3.09
   3   5   4   52.08    3.13
  -4  -5  -4   17.44    1.55
   4   5   4   18.54    1.12
   4   5   4   18.25    1.30
   5   5   4    7.85    0.92
   6   5   4   14.91    1.26
   6   5   4   12.13    1.12
  -7  -5  -4    3.44    0.37
   7   5   4    2.53    0.50
   8   5   4   23.14    1.55
   9   5   4    7.91    0.74
   9   5   4    8.32    0.66
   5  -6  -4   18.60    1.16
   5  -6  -4   18.42    1.18
   4  -6  -4   18.53    1.27
   4  -6  -4   19.93    1.26
  -4   6   4   18.09    1.31
  -4   6   4   18.93    1.20
   3  -6  -4    2.49    0.34
  -2   6   4    1.25    0.30
  -2   6   4    0.90    0.40
   1  -6  -4   10.71    0.86
  -1   6   4    9.17    0.68
  -1   6   4   11.01    1.07
   0  -6  -4    8.20    2.09
   0  -6  -4    6.54    0.51
   0  -6  -4    6.77    0.53
   0   6   4    5.69    0.78
   0   6   4    6.89    0.50
  -1  -6  -4   13.00    1.59
  -1  -6  -4   15.51    0.95
  -1  -6  -4   14.85    1.04
  -1  -6  -4   15.25    0.98
   1   6   4   16.42    0.97
   1   6   4   16.44    1.14
  -2  -6  -4   17.27    1.84
  -2  -6  -4   23.01    1.27
  -2  -6  -4   20.90    1.22
   2   6   4   21.06    1.25
   2   6   4   18.33    1.38
  -3  -6  -4   21.40    1.29
  -3  -6  -4   22.07    1.26
   3   6   4   19.29    1.45
  -4  -6  -4   17.00    1.11
   4   6   4   19.73    1.56
   5   6   4   12.83    1.16
   5   6   4   10.03    1.06
  -6  -6  -4   10.87    0.71
   6   6   4   10.63    0.90
   6   6   4   10.42    1.03
   6   6   4    9.67    0.92
  -7  -6  -4    0.85    0.20
  -7  -6  -4    0.76    0.29
   7   6   4    0.91    0.30
   7   6   4    0.95    0.46
  -8  -6  -4    5.14    0.48
  -8  -6  -4    6.08    0.64
   8   6   4    5.71    0.63
   9   6   4    2.38    0.41
   9   6   4    2.08    0.40
   4  -7  -4    5.32    0.51
   4  -7  -4    6.48    0.51
  -4   7   4    5.05    0.56
   3  -7  -4    0.34    0.34
   3  -7  -4    0.86    0.28
  -3   7   4    1.01    0.30
   2  -7  -4    0.80    0.64
   2  -7  -4    1.05    0.32
  -1   7   4   21.16    1.44
  -1   7   4   21.17    1.31
   0  -7  -4   40.80    2.35
   0  -7  -4   36.91    2.30
   0   7   4   39.40    2.42
   0   7   4   38.23    2.41
  -1  -7  -4   26.71    1.59
  -1  -7  -4   24.75    1.52
   1   7   4   24.94    1.60
   1   7   4   23.38    1.51
   1   7   4   24.84    1.63
  -2  -7  -4    9.77    0.72
  -2  -7  -4   12.19    0.81
   2   7   4    9.20    0.72
  -3  -7  -4   21.38    1.35
  -3  -7  -4   21.62    1.36
   3   7   4   23.03    1.55
  -4  -7  -4    2.25    0.35
  -4  -7  -4    2.00    0.35
   4   7   4    2.34    0.39
  -5  -7  -4    2.04    0.35
   5   7   4    2.22    0.57
  -6  -7  -4   10.11    0.67
   6   7   4    8.77    0.90
   6   7   4    9.57    0.97
  -7  -7  -4    4.06    0.47
   7   7   4    2.96    0.51
   7   7   4    2.77    0.58
  -8  -7  -4    9.09    0.65
   8   7   4    8.15    0.77
   9   7   4    1.62    0.34
   3  -8  -4    0.92    0.23
  -3   8   4    1.20    0.23
   2  -8  -4    1.51    0.33
  -2   8   4    1.98    0.40
   1  -8  -4    8.25    0.86
   1  -8  -4    8.49    0.68
  -1   8   4    8.99    0.75
   0  -8  -4    9.61    1.03
   0   8   4    7.34    0.69
   1   8   4   24.13    1.42
   1   8   4   19.21    1.35
  -2  -8  -4    5.08    0.74
  -2  -8  -4    3.60    0.49
  -2  -8  -4    4.77    0.50
  -2  -8  -4    5.08    0.58
   2   8   4    4.17    0.48
  -3  -8  -4   16.79    1.15
  -3  -8  -4   17.08    1.14
  -3  -8  -4   17.10    1.14
  -3  -8  -4   20.49    1.46
   3   8   4   16.04    1.16
  -4  -8  -4    4.67    0.51
  -5  -8  -4    2.01    0.39
  -5  -8  -4    1.85    0.27
  -6  -8  -4    5.02    0.47
  -6  -8  -4    5.10    0.47
   6   8   4    4.72    0.66
   6   8   4    4.79    0.55
   7   8   4    1.47    0.42
   7   8   4    1.03    0.53
   8   8   4   10.14    0.74
   8   8   4   10.50    0.82
   1  -9  -4    0.20    0.29
   0  -9  -4    2.51    0.40
   0  -9  -4    2.05    0.41
   0   9   4    2.91    0.35
  -1  -9  -4    7.09    0.61
  -1  -9  -4    8.68    0.88
   1   9   4    7.70    0.63
  -2  -9  -4    1.49    0.43
  -2  -9  -4    2.28    0.39
  -2  -9  -4    0.93    0.37
   2   9   4    1.55    0.25
   2   9   4    1.97    0.36
  -3  -9  -4   12.21    0.86
  -3  -9  -4   11.33    0.81
  -3  -9  -4   13.05    1.13
  -3  -9  -4   10.46    0.92
   3   9   4   12.91    0.90
   3   9   4   11.63    0.85
  -4  -9  -4    1.80    0.36
  -4  -9  -4    1.41    0.28
  -4  -9  -4    1.30    0.45
  -5  -9  -4    0.81    0.26
  -5  -9  -4    0.41    0.46
  -5  -9  -4    0.54    0.25
   5   9   4    0.56    0.21
   5   9   4    0.62    0.39
  -6  -9  -4    4.69    0.42
   6   9   4    3.72    0.51
   6   9   4    4.72    0.49
  -7  -9  -4    0.46    0.22
   7   9   4    0.19    0.23
  -2 -10  -4    1.13    0.20
  -2 -10  -4    1.24    0.32
  -3 -10  -4   16.29    1.08
  -3 -10  -4   18.33    1.25
  -4 -10  -4    1.10    0.20
   5   8  -5    9.95    0.66
  -5  -8   5   11.18    0.99
   4   8  -5    3.63    0.33
  -4  -8   5    2.82    0.53
   3   8  -5    0.83    0.23
   3   8  -5    0.97    0.33
  -3  -8   5    0.45    0.50
  -3  -8   5    0.88    0.33
   2   8  -5    1.92    0.36
   2   8  -5    2.19    0.28
  -2  -8   5    2.44    0.42
  -2  -8   5    3.13    0.80
  -2  -8   5    1.85    0.44
   1   8  -5   14.98    0.86
  -1  -8   5   13.43    1.26
  -1  -8   5   12.33    1.06
   0   8  -5   10.95    0.66
   0  -8   5    9.17    0.83
   0  -8   5    9.77    0.75
   0  -8   5    9.80    1.03
  -1   8  -5    6.78    0.46
   1  -8   5    6.67    0.55
   1  -8   5    6.37    0.63
   1  -8   5    6.33    0.86
   2  -8   5    1.94    0.27
   6   7  -5    2.95    0.29
  -6  -7   5    2.55    0.60
  -6  -7   5    3.78    0.57
   5   7  -5    0.74    0.19
  -5  -7   5    0.60    0.53
  -5  -7   5    0.99    0.51
  -5  -7   5    0.88    0.30
   4   7  -5    9.25    0.68
  -4  -7   5   10.62    1.14
  -4  -7   5    7.23    0.98
  -4  -7   5    8.10    0.77
  -3  -7   5   15.96    1.27
  -2  -7   5    0.57    0.40
  -1  -7   5    6.80    1.06
  -1  -7   5    9.49    0.86
   0   7  -5    5.07    0.45
   0  -7   5    4.64    0.37
   0  -7   5    4.68    0.68
  -1   7  -5    4.25    0.43
   1  -7   5    4.43    0.72
   1  -7   5    6.29    1.40
  -2   7  -5    9.81    0.67
  -2   7  -5   10.59    0.66
  -2   7  -5   10.36    0.69
   2  -7   5   10.13    1.54
   2  -7   5   10.42    0.66
   2  -7   5   10.37    0.84
   2  -7   5    9.63    0.92
  -3   7  -5   10.73    0.66
   3  -7   5   10.49    0.74
   3  -7   5    9.50    0.63
  -4   7  -5    6.39    0.44
   4  -7   5    6.76    0.41
   7   6  -5    0.76    0.15
   7   6  -5    0.95    0.16
  -7  -6   5    0.57    0.24
  -7  -6   5    0.52    0.37
   6   6  -5   18.42    1.14
  -6  -6   5   17.53    1.39
  -6  -6   5   18.14    1.23
   5   6  -5    9.37    0.68
  -5  -6   5    9.76    1.36
  -5  -6   5    9.59    1.08
  -5  -6   5   10.01    0.87
   4   6  -5    4.01    0.42
  -4  -6   5    4.66    0.80
  -3  -6   5    7.64    1.16
  -3  -6   5    7.57    1.00
  -2  -6   5   -0.25    0.45
   1   6  -5    8.51    0.59
   1   6  -5    8.57    0.63
  -1  -6   5    9.96    1.24
  -1  -6   5    8.02    0.98
  -1  -6   5    8.25    0.58
   0   6  -5    4.52    0.47
   0   6  -5    3.93    0.38
   0   6  -5    2.86    0.40
   0   6  -5    3.47    0.33
   0  -6   5    2.73    0.66
   0  -6   5    3.15    0.53
   0  -6   5    3.13    0.32
  -1   6  -5   17.20    1.22
  -1   6  -5   18.93    1.13
  -1   6  -5   19.19    1.15
  -1   6  -5   19.10    1.17
   1  -6   5   19.08    1.45
   1  -6   5   18.52    1.13
  -2   6  -5   30.62    1.89
  -2   6  -5   32.81    1.90
  -2   6  -5   32.72    1.93
  -2   6  -5   31.71    1.87
   2  -6   5   31.62    1.87
  -3   6  -5   13.94    0.91
   3  -6   5   14.43    0.97
   3  -6   5   15.05    1.23
   3  -6   5   14.88    0.88
   3  -6   5   13.37    1.06
  -4   6  -5   14.58    0.95
  -4   6  -5   14.28    0.97
  -4   6  -5   16.65    0.97
   4  -6   5   17.01    1.19
   4  -6   5   16.28    0.95
  -5   6  -5    0.75    0.15
  -5   6  -5    0.89    0.18
   5  -6   5    0.54    0.11
   7   5  -5    0.56    0.12
   7   5  -5    0.71    0.15
  -7  -5   5    0.39    0.42
  -7  -5   5    0.63    0.25
   6   5  -5    6.56    0.53
   5   5  -5   15.71    1.02
   4   5  -5   22.30    1.37
   4   5  -5   20.71    1.33
   3   5  -5    2.79    0.53
  -3  -5   5    1.42    0.65
  -3  -5   5    1.60    0.71
   2   5  -5    0.50    0.18
   2   5  -5    1.01    0.21
  -2  -5   5    1.45    0.54
  -2  -5   5    0.52    0.20
  -2  -5   5    0.21    0.67
   1   5  -5   25.29    1.50
   1   5  -5   23.24    1.44
  -1  -5   5   25.70    1.47
  -1  -5   5   24.33    2.06
  -1  -5   5   23.81    1.76
   0   5  -5   32.56    1.77
   0   5  -5   28.98    1.77
   0  -5   5   27.96    2.31
   0  -5   5   27.98    1.98
   0  -5   5   29.04    1.74
  -1   5  -5    5.89    0.49
  -1   5  -5    5.81    0.43
  -1   5  -5    5.32    0.45
   1  -5   5    5.02    0.78
   1  -5   5    5.92    0.43
   1  -5   5    4.53    0.84
  -2   5  -5   12.02    0.92
  -2   5  -5   11.95    0.74
  -2   5  -5   11.79    0.72
  -2   5  -5   11.39    0.75
   2  -5   5    9.87    0.75
   2  -5   5   10.34    0.98
   2  -5   5   10.09    1.17
  -3   5  -5    4.31    0.45
  -3   5  -5    5.36    0.40
  -3   5  -5    5.35    0.43
   3  -5   5    5.24    0.65
   3  -5   5    5.45    0.40
  -4   5  -5    1.89    0.26
  -4   5  -5    1.57    0.30
   4  -5   5    2.31    0.49
   4  -5   5    1.59    0.33
   4  -5   5    1.85    0.23
  -5   5  -5    9.33    0.60
  -5   5  -5    8.42    0.62
  -5   5  -5    8.51    0.57
   5  -5   5    8.69    0.57
   5  -5   5    9.20    0.60
   5  -5   5    8.27    0.81
  -6   5  -5    2.54    0.26
   6  -5   5    3.13    0.24
   6  -5   5    2.69    0.34
   8   4  -5    2.30    0.21
  -8  -4   5    2.42    0.47
  -8  -4   5    2.65    0.44
   7   4  -5    5.74    0.41
   7   4  -5    6.49    0.48
  -7  -4   5    4.37    0.78
  -7  -4   5    5.92    0.59
   6   4  -5   10.24    0.72
   5   4  -5    0.87    0.37
   5   4  -5    0.87    0.24
  -5  -4   5    1.22    0.52
   4   4  -5    2.21    0.63
   4   4  -5    1.21    0.28
   4   4  -5    0.96    0.26
   4   4  -5    1.83    0.61
  -4  -4   5    1.26    0.22
  -4  -4   5    1.43    0.43
  -4  -4   5    1.76    0.59
  -4  -4   5    1.50    0.24
   3   4  -5    5.39    0.50
  -3  -4   5    5.46    0.43
  -3  -4   5    5.34    0.44
   2   4  -5   27.25    1.66
   2   4  -5   28.26    1.68
   2   4  -5   26.99    1.63
  -2  -4   5   26.77    1.64
  -2  -4   5   27.95    1.66
  -2  -4   5   30.40    2.94
   1   4  -5    5.87    0.47
  -1  -4   5    5.81    0.42
  -1  -4   5    5.44    0.44
   0   4  -5   42.89    2.66
   0   4  -5   46.51    2.68
   0  -4   5   48.29    2.69
  -1   4  -5  100.43    5.91
  -1   4  -5  107.52    6.01
  -1   4  -5  103.87    5.95
  -2   4  -5   35.61    2.08
  -2   4  -5   35.25    2.07
  -2   4  -5   36.87    2.05
   2  -4   5   34.68    2.26
   2  -4   5   33.66    2.06
  -3   4  -5    0.81    0.16
  -3   4  -5    0.60    0.15
   3  -4   5    1.16    0.18
   3  -4   5    0.51    0.47
   3  -4   5    1.15    0.34
   3  -4   5    0.81    0.21
  -4   4  -5    9.94    0.61
   4  -4   5    9.33    0.65
   4  -4   5    8.85    0.86
   4  -4   5    8.68    0.60
   4  -4   5    8.58    0.93
  -5   4  -5    6.23    0.47
  -5   4  -5    6.88    0.52
   5  -4   5    6.82    0.74
   5  -4   5    6.45    0.68
   5  -4   5    6.70    0.46
   5  -4   5    6.35    0.48
  -6   4  -5    0.78    0.17
  -6   4  -5    1.17    0.16
   6  -4   5    0.84    0.16
   6  -4   5    0.87    0.15
   6  -4   5    0.72    0.35
  -7   4  -5    6.82    0.49
   7  -4   5    7.32    0.51
   7  -4   5    7.68    0.46
   8   3  -5    0.68    0.14
   8   3  -5    0.85    0.14
   8   3  -5    0.83    0.15
  -8  -3   5    0.71    0.18
  -8  -3   5    1.44    0.51
   7   3  -5    0.94    0.16
  -7  -3   5    1.57    0.55
  -7  -3   5    0.95    0.47
   6   3  -5    1.13    0.22
  -6  -3   5    1.50    0.55
  -6  -3   5    1.82    0.36
  -6  -3   5    1.73    0.39
   5   3  -5    7.97    1.13
   5   3  -5    8.97    0.89
   5   3  -5    7.01    0.63
  -5  -3   5    7.31    0.55
  -5  -3   5    6.77    1.04
  -5  -3   5    7.19    0.58
  -5  -3   5    5.91    1.02
   4   3  -5   18.62    1.49
  -4  -3   5   18.34    1.14
  -4  -3   5   16.87    1.46
   3   3  -5    5.68    0.82
  -3  -3   5    5.66    0.44
  -3  -3   5    5.31    0.40
   2   3  -5   11.03    0.78
   2   3  -5   11.41    0.80
  -2  -3   5   11.17    0.75
  -2  -3   5   11.91    0.70
  -2  -3   5   10.22    0.69
   1   3  -5    3.29    0.29
   1   3  -5    2.84    0.33
   1   3  -5    3.26    0.26
  -1  -3   5    3.33    0.26
  -1  -3   5    3.08    0.30
  -1  -3   5    3.51    0.37
  -1  -3   5    2.94    0.25
   0   3  -5   10.71    1.42
   0   3  -5   14.03    0.83
   0   3  -5   13.01    0.77
   0   3  -5   12.58    0.79
   0  -3   5   12.37    0.82
   0  -3   5   13.03    0.77
   0  -3   5   13.06    0.85
   0  -3   5   13.25    0.81
  -1   3  -5    8.59    0.54
  -1   3  -5    8.52    0.56
  -1   3  -5    8.65    0.58
  -1   3  -5    9.10    0.61
   1  -3   5    9.67    0.62
   1  -3   5    7.51    0.54
  -2   3  -5   38.50    2.17
  -2   3  -5   38.76    2.20
  -2   3  -5   38.89    2.16
   2  -3   5   33.45    2.16
  -3   3  -5    2.40    0.28
   3  -3   5    3.80    1.36
  -4   3  -5    3.30    0.32
   4  -3   5    3.59    0.34
   4  -3   5    4.09    0.67
   4  -3   5    3.81    0.40
  -5   3  -5    9.68    0.61
   5  -3   5    9.09    0.64
   5  -3   5    9.32    0.89
   5  -3   5    8.67    0.92
   5  -3   5    8.89    0.61
  -6   3  -5   16.67    1.03
  -6   3  -5   16.15    1.07
   6  -3   5   18.19    1.03
   6  -3   5   17.06    1.06
  -7   3  -5   26.46    1.60
   7  -3   5   28.40    1.63
   7  -3   5   27.19    1.60
   8  -3   5   15.90    0.88
   8  -3   5   13.93    0.89
   8   2  -5    0.61    0.15
  -8  -2   5    0.65    0.20
  -8  -2   5    0.53    0.58
   7   2  -5    1.57    0.25
  -7  -2   5    1.34    0.62
   6   2  -5   18.61    1.17
  -6  -2   5   18.31    1.32
  -6  -2   5   18.59    1.55
  -6  -2   5   17.19    1.31
  -6  -2   5   19.07    1.17
   5   2  -5   84.40    4.99
   5   2  -5   71.75    4.42
  -5  -2   5   75.91    4.37
  -5  -2   5   72.81    4.52
  -5  -2   5   77.89    4.74
  -5  -2   5   76.15    4.44
  -5  -2   5   73.46    4.40
   4   2  -5   40.15    2.74
   4   2  -5   39.49    2.54
  -4  -2   5   35.85    2.20
  -4  -2   5   34.38    2.21
   3   2  -5    8.71    0.66
   3   2  -5   10.45    1.05
  -3  -2   5    9.84    0.60
  -3  -2   5    7.78    0.58
   2   2  -5    8.83    0.63
   2   2  -5    8.48    0.65
   2   2  -5    8.84    0.93
  -2  -2   5    8.78    0.60
  -2  -2   5    7.99    0.55
  -2  -2   5    9.20    0.56
   1   2  -5   15.43    0.93
   1   2  -5   15.33    0.95
   1   2  -5   14.83    1.45
  -1  -2   5   14.80    0.90
  -1  -2   5   14.43    0.89
  -1  -2   5   15.02    0.93
   0   2  -5   17.40    1.08
   0   2  -5   17.41    1.40
   0   2  -5   19.39    1.10
   0  -2   5   19.74    1.13
   0  -2   5   18.97    1.11
   0  -2   5   18.42    1.09
  -1   2  -5   62.48    3.66
  -1   2  -5   65.91    3.65
   1  -2   5   64.02    3.74
   1  -2   5   63.19    3.65
   1  -2   5   64.79    3.69
  -2   2  -5   26.06    1.48
  -2   2  -5   25.46    1.46
   2  -2   5   26.75    1.51
   2  -2   5   22.29    1.46
  -3   2  -5    3.89    0.35
  -3   2  -5    3.25    0.31
   3  -2   5    3.77    0.28
   5  -2   5    4.93    0.76
   5  -2   5    4.09    0.36
   5  -2   5    3.70    0.42
  -6   2  -5   20.90    1.32
   6  -2   5   22.82    1.37
   6  -2   5   23.10    1.33
  -7   2  -5   27.50    1.65
   7  -2   5   28.39    1.69
   7  -2   5   28.88    1.66
   8  -2   5    0.53    0.11
   8  -2   5    0.77    0.15
   8   1  -5    0.71    0.13
  -8  -1   5    0.38    0.19
  -7  -1   5    8.51    1.07
   6   1  -5    1.66    0.32
  -6  -1   5    1.40    0.32
  -6  -1   5    1.00    0.23
  -6  -1   5    1.32    0.37
   5   1  -5    8.81    0.67
   5   1  -5    8.59    1.13
  -5  -1   5    7.82    0.84
  -5  -1   5    7.54    0.59
  -5  -1   5    8.23    0.73
  -5  -1   5    8.55    0.62
  -5  -1   5    9.95    1.16
   4   1  -5    3.27    0.75
  -4  -1   5    3.59    0.93
  -4  -1   5    4.06    0.36
  -4  -1   5    4.46    0.34
   3   1  -5    6.81    0.55
   3   1  -5    7.16    0.91
  -3  -1   5    6.42    0.46
  -3  -1   5    7.34    0.52
   2   1  -5   47.67    2.71
   2   1  -5   49.39    3.18
  -2  -1   5   46.50    2.73
  -2  -1   5   43.84    2.70
  -2  -1   5   47.59    2.70
   1   1  -5   27.95    1.68
   1   1  -5   32.00    1.75
   1   1  -5   30.48    2.16
  -1  -1   5   28.96    1.72
  -1  -1   5   26.40    1.69
   0   1  -5   81.06    5.30
   0   1  -5   85.42    4.93
   0  -1   5   91.04    4.95
   0  -1   5   85.55    4.94
   0  -1   5   90.46    5.00
   0  -1   5   87.93    4.97
  -1   1  -5   25.90    1.47
  -1   1  -5   23.26    1.78
   1  -1   5   25.67    1.51
   1  -1   5   27.00    1.55
   1  -1   5   25.99    1.49
   1  -1   5   25.15    1.47
  -2   1  -5    4.56    0.34
   2  -1   5    4.89    0.42
   2  -1   5    4.95    0.43
   2  -1   5    5.01    0.32
  -3   1  -5   16.22    0.94
   3  -1   5   15.72    1.05
   3  -1   5   15.08    0.93
  -4   1  -5   26.62    1.52
   4  -1   5   24.24    1.59
   5  -1   5   21.73    1.36
   7  -1   5   17.06    1.06
   7  -1   5   17.91    1.11
   8  -1   5    5.15    0.43
   8  -1   5    4.52    0.38
   9  -1   5    1.93    0.24
   8   0  -5   13.19    0.80
  -8   0   5   10.53    0.78
   7   0  -5    7.59    0.58
   7   0  -5    8.14    0.56
  -7   0   5    6.84    0.64
   6   0  -5    0.79    0.19
  -6   0   5    0.66    0.21
  -6   0   5    0.62    0.34
   5   0  -5   22.28    1.49
   5   0  -5   22.81    1.52
  -5   0   5   25.23    1.43
  -5   0   5   22.55    1.39
  -5   0   5   22.75    1.48
  -5   0   5   22.93    1.88
  -4   0   5    0.57    0.76
  -4   0   5    1.03    0.30
  -4   0   5    0.79    0.14
  -4   0   5    0.52    0.14
   3   0  -5    0.86    0.35
  -3   0   5    0.96    0.15
  -3   0   5    1.34    0.27
   2   0  -5   20.54    1.27
   2   0  -5   19.78    1.63
   2   0  -5   19.56    1.20
  -2   0   5   21.32    1.21
  -2   0   5   20.09    1.23
   1   0  -5    5.80    0.38
   1   0  -5    5.45    0.44
   1   0  -5    5.40    0.85
  -1   0   5    5.83    0.43
  -1   0   5    6.00    0.38
  -1   0   5    6.45    0.41
   0   0  -5   32.90    2.48
   0   0  -5   36.95    2.15
   0   0  -5   37.30    2.17
   0   0   5   37.83    2.14
   0   0   5   38.63    2.12
   0   0   5   36.64    2.17
   0   0   5   36.93    2.11
  -1   0  -5   20.25    1.69
   1   0   5   24.07    1.38
   1   0   5   24.10    1.35
   1   0   5   24.01    1.36
   1   0   5   23.85    1.42
  -2   0  -5   10.44    1.02
   2   0   5   11.56    0.76
   2   0   5   11.57    0.69
   2   0   5   12.54    0.72
  -3   0  -5    1.11    0.15
   3   0   5    1.06    0.27
   3   0   5    1.34    0.14
   4   0   5   24.26    1.42
   5   0   5    1.07    0.28
   6   0   5   15.04    1.07
   7   0   5   24.21    1.48
   7   0   5   24.05    1.44
   8   0   5    5.43    0.41
   8   0   5    5.45    0.48
   9   0   5    5.29    0.36
   7  -1  -5    8.06    0.57
   7  -1  -5    8.51    0.59
  -7   1   5    8.21    0.64
   6  -1  -5    2.37    0.34
  -6   1   5    2.46    0.46
   5  -1  -5   35.11    2.13
   5  -1  -5   35.23    2.17
  -5   1   5   34.63    2.11
  -5   1   5   36.44    2.16
   4  -1  -5   14.76    1.04
   4  -1  -5   14.72    1.00
   4  -1  -5   15.60    1.46
  -4   1   5   14.74    0.92
  -4   1   5   11.58    1.41
  -4   1   5   15.57    0.94
   3  -1  -5   21.97    1.81
  -3   1   5   22.59    1.38
  -3   1   5   22.68    1.41
   2  -1  -5   24.90    1.94
   2  -1  -5   25.50    1.53
   2  -1  -5   22.86    1.44
  -2   1   5   24.47    1.52
  -2   1   5   25.89    1.48
   1  -1  -5    1.03    0.18
   1  -1  -5    0.71    0.35
   1  -1  -5    1.05    0.15
  -1   1   5    0.75    0.10
  -1   1   5    1.13    0.22
  -1   1   5    1.09    0.22
  -1   1   5    0.96    0.14
   0  -1  -5   15.42    0.97
   0  -1  -5   16.48    1.05
   0  -1  -5   15.37    1.40
   0   1   5   17.22    0.98
   0   1   5   17.04    1.05
   0   1   5   17.74    0.97
   0   1   5   16.98    1.01
  -1  -1  -5   30.07    2.38
  -1  -1  -5   35.67    2.07
   1   1   5   39.14    2.09
   2   1   5   12.40    0.81
  -3  -1  -5    1.43    0.45
   3   1   5    1.76    0.15
   3   1   5    1.62    0.26
   4   1   5    1.79    0.18
   5   1   5   11.38    0.88
   6   1   5   23.42    1.52
   7   1   5    7.94    0.68
   8   1   5    3.03    0.32
   9   1   5    2.95    0.26
   9   1   5    2.05    0.33
   7  -2  -5    4.53    0.40
   7  -2  -5    4.99    0.49
  -7   2   5    5.07    0.44
   6  -2  -5    1.14    0.21
   6  -2  -5    1.67    0.29
   5  -2  -5   67.32    3.83
   5  -2  -5   65.95    3.87
  -5   2   5   63.79    3.81
   4  -2  -5    7.76    0.69
   4  -2  -5    8.19    0.71
   4  -2  -5    9.53    1.23
   4  -2  -5    9.71    0.81
  -4   2   5    8.77    0.82
   3  -2  -5    0.82    0.44
  -3   2   5    0.66    0.17
   2  -2  -5    7.15    1.04
   2  -2  -5    7.64    0.61
   2  -2  -5    7.16    0.48
  -2   2   5    7.57    0.61
  -2   2   5    7.27    0.63
   1  -2  -5    4.54    0.38
   1  -2  -5    5.08    0.46
   1  -2  -5    4.24    0.74
  -1   2   5    5.67    0.46
  -1   2   5    5.36    0.38
  -1   2   5    5.17    0.37
  -1   2   5    5.68    0.39
   0  -2  -5   19.97    1.19
   0  -2  -5   19.65    1.29
   0   2   5   22.04    1.24
   0   2   5   20.04    1.21
  -1  -2  -5    5.54    0.37
  -1  -2  -5    5.54    0.85
  -1  -2  -5    5.92    0.47
   1   2   5    6.55    0.41
   1   2   5    5.94    0.45
  -2  -2  -5    0.73    0.45
  -2  -2  -5    1.10    0.20
   2   2   5    0.92    0.13
   2   2   5    0.86    0.21
  -3  -2  -5   34.57    2.67
   3   2   5   42.15    2.29
  -4  -2  -5  116.41    8.16
   4   2   5  141.74    7.34
   5   2   5   72.72    4.28
   6   2   5    6.38    0.61
   7   2   5    4.92    0.53
   7   2   5    5.17    0.59
   8   2   5    0.56    0.21
   9   2   5    0.66    0.15
   7  -3  -5   14.18    0.85
  -7   3   5   12.97    0.84
   6  -3  -5    1.01    0.28
  -6   3   5    1.84    0.37
   5  -3  -5    4.04    0.51
   5  -3  -5    4.76    0.45
   4  -3  -5    0.86    0.26
   4  -3  -5    0.86    0.27
   4  -3  -5    0.78    0.24
  -4   3   5    1.07    0.30
   3  -3  -5   13.60    1.47
   3  -3  -5   13.66    0.98
   2  -3  -5   24.15    1.49
  -2   3   5   26.36    1.53
   1  -3  -5    2.94    0.26
   1  -3  -5    3.15    0.31
  -1   3   5    2.53    0.42
  -1   3   5    3.47    0.30
   0  -3  -5    0.70    0.37
   0  -3  -5    0.94    0.23
   0  -3  -5    1.17    0.15
   0   3   5    0.77    0.14
   0   3   5    0.90    0.22
  -1  -3  -5    0.76    0.22
  -1  -3  -5    0.85    0.14
  -1  -3  -5    1.10    0.38
   1   3   5    0.77    0.14
   1   3   5    0.85    0.22
  -2  -3  -5    7.00    0.91
  -2  -3  -5    8.19    0.52
  -2  -3  -5    8.76    0.64
   2   3   5    9.32    0.63
   2   3   5    8.60    0.55
  -3  -3  -5   34.05    2.65
  -3  -3  -5   38.94    2.26
   3   3   5   39.38    2.25
   4   3   5   10.24    0.80
   6   3   5   13.08    0.98
   7   3   5    4.05    0.68
   7   3   5    4.14    0.51
   8   3   5    3.43    0.50
   8   3   5    3.02    0.59
   8   3   5    3.57    0.69
   9   3   5   17.37    1.30
   6  -4  -5    0.86    0.21
   6  -4  -5    1.10    0.22
  -6   4   5    0.85    0.17
  -5   4   5   15.77    1.31
  -5   4   5   20.76    1.38
   4  -4  -5    1.59    0.26
   4  -4  -5    1.11    0.24
   4  -4  -5    1.05    0.40
   3  -4  -5    1.34    0.40
   2  -4  -5    6.53    1.19
   2  -4  -5    8.79    0.71
   2  -4  -5    6.58    0.58
  -2   4   5    8.70    0.99
   1  -4  -5    2.94    0.33
   1  -4  -5    3.12    0.86
  -1   4   5    3.32    0.30
   0  -4  -5    8.42    0.59
   0  -4  -5    7.90    0.71
   0   4   5    9.23    0.61
   0   4   5    9.32    0.86
  -1  -4  -5   50.75    3.59
  -1  -4  -5   53.04    3.00
  -1  -4  -5   49.05    3.01
  -1  -4  -5   51.74    3.11
   1   4   5   57.21    3.04
  -2  -4  -5   68.80    3.96
  -2  -4  -5   63.84    4.51
  -2  -4  -5   67.41    4.02
   2   4   5   73.83    3.95
  -3  -4  -5   56.80    3.46
   3   4   5   60.00    3.37
  -4  -4  -5    1.47    0.43
   4   4   5    1.68    0.48
   5   4   5    1.42    0.38
   6   4   5   25.70    1.85
   6   4   5   32.15    2.16
   7   4   5    3.34    0.50
   8   4   5   15.04    1.17
   8   4   5   13.97    1.07
   9   4   5    6.84    0.68
   9   4   5    7.86    0.68
   5  -5  -5    3.37    0.44
   5  -5  -5    4.03    0.43
  -5   5   5    3.41    0.36
  -5   5   5    5.02    0.96
   4  -5  -5    7.81    0.66
   4  -5  -5    8.32    0.85
  -4   5   5    6.06    1.12
   3  -5  -5    1.75    0.30
   2  -5  -5    0.80    0.26
  -2   5   5    1.20    0.35
  -2   5   5    1.06    0.45
   1  -5  -5    9.20    0.66
   1  -5  -5    9.61    0.71
  -1   5   5   10.21    1.01
  -1   5   5    9.81    0.65
   0  -5  -5   36.12    2.15
   0  -5  -5   30.84    2.13
   0  -5  -5   35.19    2.11
   0   5   5   40.73    2.56
   0   5   5   36.83    2.12
   0   5   5   36.98    2.30
  -1  -5  -5   26.18    1.45
  -1  -5  -5   21.03    2.03
   1   5   5   24.82    1.45
  -2  -5  -5   24.19    1.36
  -2  -5  -5   21.09    1.98
  -2  -5  -5   21.86    1.38
   2   5   5   24.94    1.41
  -3  -5  -5   37.40    3.03
  -3  -5  -5   44.21    2.37
   4   5   5    0.97    0.47
   5   5   5   11.89    1.19
   6   5   5    0.54    0.34
   6   5   5   -0.06    0.45
   6   5   5    0.85    0.35
  -7  -5  -5   10.55    0.87
   7   5   5    8.00    0.90
   8   5   5   11.71    0.97
   8   5   5   14.28    1.21
   9   5   5    9.04    0.77
   9   5   5   10.52    0.73
   4  -6  -5    3.46    0.43
   4  -6  -5    3.08    0.42
  -4   6   5    3.10    0.48
  -4   6   5    2.35    0.34
   3  -6  -5    9.78    0.92
   3  -6  -5    7.50    1.09
   3  -6  -5    7.71    0.77
  -3   6   5    7.42    0.63
  -2   6   5    9.47    0.87
   1  -6  -5    3.09    0.53
   1  -6  -5    2.67    0.42
  -1   6   5    2.89    0.39
  -1   6   5    2.70    0.47
   0  -6  -5    5.10    0.46
   0   6   5    4.04    0.40
  -1  -6  -5    9.83    0.76
  -1  -6  -5    8.47    1.47
  -1  -6  -5   10.92    0.70
   1   6   5   10.83    0.70
   1   6   5   10.93    0.90
   1   6   5    9.26    0.86
  -2  -6  -5   25.81    2.47
  -2  -6  -5   31.59    1.75
  -2  -6  -5   30.81    1.82
  -2  -6  -5   31.38    1.76
   2   6   5   29.86    1.77
   2   6   5   26.69    1.99
   2   6   5   29.45    1.92
  -3  -6  -5   15.47    0.91
   3   6   5   13.49    1.09
  -4  -6  -5    1.23    0.23
   4   6   5    1.95    0.66
   4   6   5    0.50    0.39
  -5  -6  -5   33.45    1.95
   5   6   5   33.04    2.37
  -6  -6  -5    2.54    0.32
   6   6   5    1.96    0.52
  -7  -6  -5    6.17    0.65
   7   6   5    5.72    0.72
  -8  -6  -5    5.22    0.54
   8   6   5    5.88    0.64
   8   6   5    6.24    0.69
   9   6   5    5.12    0.47
   9   6   5    4.35    0.50
   3  -7  -5    4.42    0.74
   3  -7  -5    3.79    0.47
  -3   7   5    3.87    0.48
   2  -7  -5    0.91    0.25
   2  -7  -5    1.26    0.34
  -2   7   5    0.76    0.31
   1  -7  -5   14.68    1.21
  -1   7   5   11.07    0.92
   0  -7  -5   18.55    1.31
   0  -7  -5   20.03    1.26
   0   7   5   19.78    1.31
   0   7   5   17.24    1.16
  -1  -7  -5    1.80    0.34
  -1  -7  -5    1.48    0.26
  -1  -7  -5    1.56    0.37
   1   7   5    1.19    0.24
   1   7   5    1.32    0.33
  -2  -7  -5   13.76    0.89
  -2  -7  -5   12.97    0.97
  -2  -7  -5   14.99    0.98
   2   7   5   12.39    0.97
   2   7   5   13.50    0.95
  -3  -7  -5   21.37    1.33
  -3  -7  -5   21.78    1.32
   3   7   5   21.48    1.44
  -4  -7  -5   10.93    0.77
  -4  -7  -5   11.36    0.75
  -5  -7  -5    0.81    0.25
  -5  -7  -5    1.23    0.22
   5   7   5    0.23    0.51
  -6  -7  -5    0.71    0.19
  -6  -7  -5    0.78    0.23
   6   7   5    0.69    0.29
   6   7   5    0.94    0.34
  -7  -7  -5   18.49    1.13
  -7  -7  -5   18.83    1.09
   7   7   5   16.33    1.25
   7   7   5   16.82    1.35
  -8  -7  -5   13.24    0.95
   8   7   5   15.35    1.00
   8   7   5   13.98    1.06
   2  -8  -5    1.18    0.38
  -2   8   5    0.87    0.23
   1  -8  -5    0.51    0.34
   1  -8  -5    1.22    0.43
   1  -8  -5    0.18    0.21
   0  -8  -5   28.44    1.94
   0  -8  -5   27.43    1.75
   0   8   5   29.75    1.80
  -1  -8  -5   49.84    3.15
  -1  -8  -5   57.74    3.37
   1   8   5   55.41    3.22
  -2  -8  -5   37.36    2.27
  -2  -8  -5   33.91    2.09
   2   8   5   34.41    2.11
  -3  -8  -5    1.02    0.23
  -3  -8  -5    0.84    0.24
   3   8   5    1.03    0.32
   3   8   5    0.77    0.21
  -4  -8  -5    7.03    0.56
  -4  -8  -5    7.22    0.64
   4   8   5    6.08    0.87
  -5  -8  -5    7.73    0.76
  -5  -8  -5    7.99    0.61
  -5  -8  -5    7.54    0.60
  -5  -8  -5    7.06    0.97
   5   8   5    7.71    0.83
   5   8   5    8.23    0.85
  -6  -8  -5    1.23    0.22
  -6  -8  -5    0.99    0.22
   6   8   5    1.19    0.36
   6   8   5    1.08    0.25
   6   8   5    0.57    0.40
  -7  -8  -5    4.61    0.44
   7   8   5    4.99    0.56
   7   8   5    5.41    0.57
   8   8   5    7.77    0.62
   0  -9  -5   16.96    1.09
   0   9   5   16.24    1.06
  -1  -9  -5    2.27    0.63
  -1  -9  -5    1.50    0.25
   1   9   5    2.09    0.32
  -2  -9  -5    2.68    0.38
   2   9   5    3.05    0.33
   2   9   5    2.47    0.35
  -3  -9  -5    0.43    0.21
  -3  -9  -5    0.99    0.35
  -3  -9  -5    0.66    0.21
   3   9   5    0.74    0.21
  -4  -9  -5    7.87    0.85
  -4  -9  -5    7.17    0.61
  -4  -9  -5    6.35    0.56
   4   9   5    8.03    0.59
  -5  -9  -5    5.96    0.58
  -5  -9  -5    4.46    0.43
   5   9   5    5.14    0.44
  -6  -9  -5    9.26    0.64
   6   9   5    9.49    0.71
   3   8  -6    0.66    0.15
  -3  -8   6    0.52    0.36
   2   8  -6    2.14    0.39
   2   8  -6    2.76    0.30
  -2  -8   6    1.81    0.37
  -2  -8   6    2.51    0.37
  -2  -8   6    2.90    0.62
   1   8  -6    3.30    0.42
  -1  -8   6    4.10    0.75
  -1  -8   6    3.28    0.57
  -1  -8   6    3.39    0.38
   0  -8   6    7.78    0.64
   0  -8   6    9.00    0.83
   5   7  -6    0.82    0.24
  -5  -7   6    0.45    0.39
   4   7  -6    4.58    0.42
  -4  -7   6    5.14    0.73
   3   7  -6    3.14    0.38
  -3  -7   6    2.10    0.44
  -3  -7   6    2.70    0.78
   2   7  -6   10.58    0.68
   2   7  -6    8.96    0.77
  -2  -7   6   10.26    0.94
  -2  -7   6    9.47    1.20
  -2  -7   6   10.63    0.78
   1   7  -6   12.77    0.82
  -1  -7   6   13.88    0.94
  -1  -7   6   12.34    1.05
  -1  -7   6   11.89    1.24
   0   7  -6    6.71    0.51
   0  -7   6    7.59    1.02
   0  -7   6    7.97    0.67
   0  -7   6    6.12    0.75
   1  -7   6    5.49    0.88
   1  -7   6    6.34    0.58
   1  -7   6    5.74    0.65
   1  -7   6    6.28    0.45
  -2   7  -6    7.57    0.52
   2  -7   6    8.01    1.02
   2  -7   6    7.33    0.50
   2  -7   6    8.18    0.63
  -3   7  -6    5.27    0.37
   3  -7   6    5.75    0.37
   3  -7   6    4.57    0.42
   6   6  -6    0.59    0.12
   6   6  -6    0.36    0.14
  -6  -6   6    0.65    0.47
  -6  -6   6    0.50    0.41
   5   6  -6    1.11    0.21
  -5  -6   6    1.34    0.31
  -5  -6   6    1.04    0.47
  -5  -6   6    1.77    0.44
   4   6  -6    6.43    0.55
   4   6  -6    7.30    0.60
  -4  -6   6    6.69    1.01
  -4  -6   6    7.40    0.74
  -4  -6   6    6.83    0.95
  -3  -6   6   16.03    1.25
  -2  -6   6    5.09    0.78
  -1  -6   6    1.51    0.84
  -1  -6   6    1.17    0.43
   0   6  -6    2.43    0.30
   0   6  -6    2.11    0.32
   0   6  -6    2.51    0.31
   0  -6   6    2.45    0.60
   0  -6   6    2.82    0.63
   0  -6   6    2.91    0.51
   0  -6   6    2.20    0.26
  -1   6  -6    7.67    0.53
  -1   6  -6    7.62    0.56
   1  -6   6    7.18    0.85
   1  -6   6    7.40    0.51
   1  -6   6    8.10    0.80
  -2   6  -6    1.14    0.24
  -2   6  -6    0.98    0.18
   2  -6   6    1.18    0.21
   2  -6   6    1.36    0.37
   2  -6   6    0.96    0.68
   2  -6   6    1.06    0.15
  -3   6  -6    9.18    0.62
  -3   6  -6    8.73    0.60
  -3   6  -6   10.36    0.67
   3  -6   6    9.52    0.81
   3  -6   6    9.53    0.64
   3  -6   6    9.40    0.61
  -4   6  -6    7.24    0.48
  -4   6  -6    6.28    0.55
   4  -6   6    7.65    0.57
   4  -6   6    7.61    0.47
   4  -6   6    7.17    0.52
   7   5  -6    1.10    0.21
   7   5  -6    0.69    0.11
  -7  -5   6    0.90    0.34
   6   5  -6    2.65    0.32
   6   5  -6    2.60    0.23
  -6  -5   6    2.28    0.36
  -6  -5   6    2.47    0.61
  -6  -5   6    4.11    0.87
  -5  -5   6   17.26    2.15
  -5  -5   6   15.31    1.28
   3   5  -6   43.62    2.40
  -3  -5   6   40.97    3.06
  -3  -5   6   35.67    2.31
  -3  -5   6   35.73    2.61
   2   5  -6    4.44    0.41
   2   5  -6    4.76    0.54
  -2  -5   6    5.10    0.88
  -2  -5   6    4.17    0.42
   1   5  -6    0.53    0.17
   1   5  -6    0.46    0.22
   1   5  -6    0.72    0.23
  -1  -5   6    0.40    0.16
  -1  -5   6    1.56    0.46
  -1  -5   6    1.28    0.61
  -1  -5   6    0.60    0.17
   0   5  -6    1.64    0.24
   0   5  -6    1.31    0.23
   0   5  -6    1.62    0.32
   0  -5   6    1.77    0.45
   0  -5   6    0.86    0.54
  -1   5  -6    1.01    0.21
  -1   5  -6    0.80    0.21
  -1   5  -6    1.18    0.24
   1  -5   6    0.64    0.43
   1  -5   6    1.69    0.40
   1  -5   6    0.56    0.58
   1  -5   6    1.28    0.19
  -2   5  -6    2.45    0.29
  -2   5  -6    2.82    0.35
   2  -5   6    3.16    0.28
   2  -5   6    2.10    0.46
  -3   5  -6   16.71    0.99
  -3   5  -6   15.37    1.03
  -3   5  -6   17.04    1.02
   3  -5   6   15.87    0.99
  -4   5  -6    0.53    0.15
  -4   5  -6    0.67    0.19
  -4   5  -6    0.61    0.16
   4  -5   6    0.24    0.33
   4  -5   6    0.76    0.18
  -5   5  -6    0.59    0.15
  -5   5  -6    0.75    0.17
   5  -5   6    0.75    0.13
   5  -5   6    1.03    0.31
   5  -5   6    0.83    0.19
   6  -5   6   21.12    1.19
   6  -5   6   19.95    1.19
   7   4  -6    1.48    0.21
   7   4  -6    2.12    0.26
  -7  -4   6    1.58    0.29
  -7  -4   6    1.81    0.43
   6   4  -6    5.13    0.47
   6   4  -6    5.30    0.43
  -6  -4   6    5.23    0.86
  -6  -4   6    5.16    0.59
  -6  -4   6    3.80    0.70
   5   4  -6   25.22    1.59
  -4  -4   6    3.37    0.72
  -4  -4   6    3.98    0.40
   3   4  -6    3.69    0.41
  -3  -4   6    4.48    0.83
  -3  -4   6    4.04    0.78
  -3  -4   6    2.41    0.73
  -3  -4   6    3.45    0.45
  -3  -4   6    2.40    0.37
  -3  -4   6    3.47    0.36
   2   4  -6    4.45    0.43
  -2  -4   6    4.23    0.48
  -2  -4   6    4.19    0.39
  -2  -4   6    3.63    0.64
  -2  -4   6    4.29    0.39
   1   4  -6    6.44    0.52
   1   4  -6    6.61    0.44
  -1  -4   6    6.64    0.97
  -1  -4   6    5.71    0.50
  -1  -4   6    5.52    1.39
  -1  -4   6    5.78    0.55
  -1  -4   6    6.07    0.49
  -1  -4   6    6.17    0.48
   0   4  -6   51.85    2.94
   0   4  -6   52.20    2.97
   0   4  -6   51.61    2.97
   0   4  -6   51.00    2.92
   0  -4   6   50.59    2.98
   0  -4   6   50.57    2.98
   0  -4   6   50.49    3.45
   0  -4   6   47.91    3.15
   0  -4   6   50.88    2.94
   0  -4   6   50.52    3.10
  -1   4  -6  100.43    5.32
  -1   4  -6  100.08    5.29
  -1   4  -6   99.74    5.29
  -1   4  -6   86.05    5.30
   1  -4   6   84.53    5.77
   1  -4   6   81.87    5.44
   1  -4   6   93.21    5.46
  -2   4  -6    8.54    0.54
  -2   4  -6    7.84    0.58
  -2   4  -6    7.66    0.56
   2  -4   6    7.76    0.54
   2  -4   6    6.28    1.10
   2  -4   6    6.82    0.93
   2  -4   6    7.52    0.58
   2  -4   6    7.46    0.83
  -3   4  -6    3.15    0.47
  -3   4  -6    2.92    0.37
   3  -4   6    3.78    0.58
   3  -4   6    3.09    0.52
   3  -4   6    3.68    0.31
  -4   4  -6    1.21    0.22
  -4   4  -6    1.84    0.25
   4  -4   6    1.34    0.22
   4  -4   6    2.28    0.49
   4  -4   6    1.59    0.29
   4  -4   6    0.63    0.96
  -5   4  -6    0.79    0.17
  -5   4  -6    0.81    0.16
   5  -4   6    0.52    0.35
   5  -4   6    0.93    0.17
   5  -4   6    0.68    0.28
   5  -4   6    0.79    0.14
  -6   4  -6    7.59    0.53
  -6   4  -6    7.30    0.54
   6  -4   6    8.52    0.51
   6  -4   6    8.29    0.53
   7   3  -6    3.35    0.32
  -7  -3   6    2.52    0.54
  -7  -3   6    2.96    0.41
   6   3  -6   11.86    0.76
  -6  -3   6   12.97    1.44
   5   3  -6   12.53    0.83
   5   3  -6   10.84    0.88
  -5  -3   6   11.82    0.80
   4   3  -6    0.96    0.56
   4   3  -6    0.95    0.25
  -4  -3   6    0.59    0.40
  -4  -3   6    0.54    0.17
  -4  -3   6    0.71    0.19
   3   3  -6   13.67    0.98
   3   3  -6   17.06    1.55
  -3  -3   6   14.58    0.99
  -3  -3   6   12.33    1.41
  -3  -3   6   15.15    0.96
  -3  -3   6   14.64    1.43
  -3  -3   6   15.79    0.95
   2   3  -6    3.46    0.40
   2   3  -6    2.82    0.37
   2   3  -6    3.44    0.35
  -2  -3   6    2.66    0.67
  -2  -3   6    3.35    0.34
  -2  -3   6    3.32    0.32
  -2  -3   6    3.60    0.44
   1   3  -6    2.64    0.27
   1   3  -6    2.71    0.25
  -1  -3   6    2.35    0.29
  -1  -3   6    2.56    0.27
   0   3  -6   27.42    1.59
   0   3  -6   25.46    1.61
   0  -3   6   27.12    1.59
   0  -3   6   27.43    1.62
  -1   3  -6   35.46    1.97
  -1   3  -6   32.40    2.00
   1  -3   6   33.42    2.01
  -2   3  -6    1.11    0.17
  -2   3  -6    0.80    0.16
   2  -3   6    0.78    0.19
   2  -3   6    0.26    0.35
  -3   3  -6   15.95    0.94
  -3   3  -6   14.55    1.01
   3  -3   6   16.37    0.99
   3  -3   6   14.72    0.95
  -4   3  -6    2.46    0.36
   4  -3   6    1.60    1.46
   4  -3   6    1.60    0.30
   4  -3   6    1.68    0.25
   4  -3   6    1.78    0.40
  -5   3  -6    5.60    0.48
  -5   3  -6    6.10    0.43
   5  -3   6    5.72    0.42
   5  -3   6    6.26    0.46
   5  -3   6    5.28    0.68
  -6   3  -6   25.59    1.57
  -6   3  -6   26.63    1.55
   6  -3   6   27.40    1.58
   6  -3   6   26.46    1.59
  -7   3  -6    4.73    0.41
   7  -3   6    5.18    0.38
   7  -3   6    5.17    0.35
   7   2  -6    0.45    0.16
  -7  -2   6    0.73    0.23
  -7  -2   6    0.42    0.44
   6   2  -6   23.82    1.43
  -6  -2   6   22.41    1.96
   5   2  -6   71.12    4.05
  -5  -2   6   65.09    4.04
  -5  -2   6   72.83    4.37
   4   2  -6    1.88    0.39
   4   2  -6    1.13    0.54
   4   2  -6    2.20    0.46
  -4  -2   6    1.67    0.61
  -4  -2   6    1.89    0.69
  -4  -2   6    2.14    0.43
  -4  -2   6    1.94    0.30
  -4  -2   6    1.53    0.29
   3   2  -6    8.03    1.11
   3   2  -6    7.42    0.58
  -3  -2   6    7.37    1.05
  -3  -2   6    7.29    0.63
  -3  -2   6    8.75    1.13
  -3  -2   6    8.02    0.56
  -3  -2   6    8.22    0.56
   2   2  -6    2.29    0.28
   2   2  -6    2.49    0.67
  -2  -2   6    1.98    0.24
  -2  -2   6    1.91    0.26
   1   2  -6    6.66    0.45
  -1  -2   6    5.83    0.42
  -1  -2   6    6.02    0.43
   0   2  -6    1.57    0.17
   0   2  -6    1.56    0.22
   0  -2   6    1.46    0.20
   0  -2   6    1.98    0.30
  -1   2  -6   10.90    0.68
  -1   2  -6   10.02    0.67
   1  -2   6   10.32    0.65
   1  -2   6   10.84    0.72
  -2   2  -6    3.24    0.34
   2  -2   6    4.09    0.43
   2  -2   6    3.63    0.30
  -3   2  -6   16.57    1.04
   4  -2   6    0.80    0.18
   4  -2   6    0.61    0.36
  -5   2  -6    2.83    0.33
   5  -2   6    1.56    0.43
   5  -2   6    1.75    0.40
   5  -2   6    2.03    0.27
   5  -2   6    2.19    0.31
  -6   2  -6   13.46    0.85
   6  -2   6   14.49    0.95
   6  -2   6   13.87    0.89
  -7   2  -6   11.09    0.77
   7  -2   6   12.01    0.76
   7  -2   6   13.71    0.81
   8  -2   6    3.96    0.33
   8  -2   6    4.57    0.31
   7   1  -6    2.83    0.33
  -7  -1   6    3.90    0.44
  -7  -1   6    4.04    0.77
   6   1  -6   14.74    0.93
  -6  -1   6   12.79    1.60
   5   1  -6   25.69    1.59
  -5  -1   6   25.51    1.75
  -5  -1   6   25.04    1.58
  -5  -1   6   26.99    1.93
   4   1  -6   15.27    1.03
  -4  -1   6   16.40    1.47
  -4  -1   6   14.88    0.98
  -4  -1   6   15.40    1.00
  -4  -1   6   16.76    1.19
   3   1  -6   31.09    2.36
  -3  -1   6   31.61    1.81
  -3  -1   6   29.26    1.83
   2   1  -6   16.40    1.49
   2   1  -6   16.08    1.07
   2   1  -6   15.97    1.00
  -2  -1   6   16.06    1.07
  -2  -1   6   17.54    1.00
  -2  -1   6   15.55    1.00
   1   1  -6    6.44    0.45
   1   1  -6    6.38    0.55
   1   1  -6    5.83    1.01
  -1  -1   6    6.37    0.50
  -1  -1   6    5.80    0.44
  -1  -1   6    7.37    0.46
   0   1  -6  106.23    6.43
   0   1  -6  109.29    6.42
   0  -1   6  120.19    6.47
   0  -1   6  116.91    6.43
  -1   1  -6   46.60    2.77
   1  -1   6   48.14    2.88
   1  -1   6   47.18    2.78
   1  -1   6   49.73    2.80
   1  -1   6   51.05    2.83
  -2   1  -6    8.29    0.55
   2  -1   6    8.34    0.66
   2  -1   6    8.22    0.57
  -3   1  -6    6.80    0.46
   3  -1   6    5.72    0.61
   5  -1   6   34.39    1.96
   5  -1   6   31.13    2.09
   6  -1   6   27.53    1.57
   6  -1   6   24.26    1.53
   7  -1   6    9.96    0.65
   7  -1   6   10.55    0.69
   8  -1   6    3.06    0.31
   8  -1   6    2.85    0.26
   7   0  -6   13.76    0.86
   7   0  -6   13.80    0.87
  -7   0   6   14.11    0.92
   6   0  -6   43.93    2.58
   6   0  -6   45.23    2.53
  -6   0   6   38.62    2.76
  -6   0   6   43.50    2.67
   5   0  -6   10.83    0.79
  -5   0   6   10.58    0.74
   4   0  -6   62.81    3.97
   4   0  -6   55.85    3.33
   4   0  -6   61.12    3.38
   4   0  -6   56.97    3.36
  -4   0   6   48.08    3.60
  -4   0   6   54.63    3.64
  -4   0   6   56.94    3.69
  -4   0   6   59.48    3.31
   3   0  -6   11.65    1.30
  -3   0   6   11.46    0.76
  -3   0   6   12.40    0.79
   2   0  -6    6.12    0.90
   2   0  -6    6.07    0.58
   2   0  -6    6.26    0.47
  -2   0   6    6.47    0.45
   1   0  -6   33.71    2.01
   1   0  -6   34.23    2.05
   1   0  -6   31.98    1.98
   1   0  -6   35.15    2.50
  -1   0   6   34.77    2.02
   0   0  -6   24.51    1.67
   0   0  -6   27.43    1.73
   0   0  -6   28.65    1.64
   0   0   6   28.64    1.75
   0   0   6   31.28    1.70
   0   0   6   30.17    1.66
  -1   0  -6   74.04    4.49
  -1   0  -6   82.64    4.68
   1   0   6   80.30    4.50
   1   0   6   79.02    4.58
   1   0   6   82.37    4.53
   1   0   6   74.51    4.48
  -2   0  -6   36.69    2.69
   2   0   6   40.19    2.33
  -3   0  -6    3.91    0.35
   3   0   6    4.85    0.49
   4   0   6    2.76    0.50
   5   0   6   12.75    0.96
   6   0   6   13.28    1.10
   6   0   6   14.10    0.86
   6   0   6   11.99    0.85
   8   0   6    2.30    0.31
   8   0   6    2.51    0.26
   7  -1  -6   10.42    0.69
   7  -1  -6   10.26    0.69
  -7   1   6   11.57    0.74
   6  -1  -6   13.98    0.97
   6  -1  -6   13.47    0.91
  -6   1   6   13.36    1.21
  -6   1   6   14.65    0.97
  -6   1   6   11.24    1.27
   5  -1  -6    4.43    0.57
   5  -1  -6    5.02    0.46
  -5   1   6    4.26    0.44
   4  -1  -6    1.43    0.35
  -4   1   6    0.10    0.79
   3  -1  -6    3.27    0.40
   3  -1  -6    4.46    0.92
   3  -1  -6    4.30    0.49
  -3   1   6    3.06    0.65
  -3   1   6    4.08    0.36
  -3   1   6    4.94    1.03
   2  -1  -6    3.00    0.31
   2  -1  -6    2.15    0.75
   1  -1  -6   40.18    2.33
   1  -1  -6   41.36    2.42
   1  -1  -6   40.77    2.89
  -1   1   6   38.52    2.41
   0  -1  -6   51.32    2.89
   0  -1  -6   51.58    2.99
   0  -1  -6   51.12    2.91
   0  -1  -6   46.30    3.39
   0   1   6   49.47    2.99
   0   1   6   51.47    2.90
   0   1   6   52.47    2.93
  -1  -1  -6    1.12    0.17
  -1  -1  -6    1.21    0.25
   1   1   6    0.67    0.19
   1   1   6    0.69    0.10
   1   1   6    0.97    0.22
  -2  -1  -6    4.44    0.31
   2   1   6    4.68    0.32
   2   1   6    4.80    0.38
   2   1   6    4.62    0.45
   3   1   6   24.86    1.56
   6   1   6    1.46    0.39
   6   1   6    1.73    0.43
   6   1   6    1.74    0.35
   7   1   6    6.66    0.80
   8   1   6    3.60    0.35
   8   1   6    3.97    0.40
   6  -2  -6    1.29    0.25
   6  -2  -6    1.32    0.21
   6  -2  -6    0.66    0.34
  -6   2   6    1.92    0.36
  -6   2   6    1.96    0.51
   5  -2  -6    2.44    0.37
   5  -2  -6    3.49    0.43
   4  -2  -6    2.31    0.41
  -4   2   6    1.80    0.33
   3  -2  -6   21.71    2.12
   3  -2  -6   21.87    1.41
  -3   2   6   20.32    1.74
  -3   2   6   22.75    1.67
   2  -2  -6   12.04    1.34
   2  -2  -6   11.49    0.77
   2  -2  -6   12.98    0.91
  -2   2   6   13.15    0.83
   1  -2  -6    4.71    0.37
   1  -2  -6    4.43    0.84
   1  -2  -6    4.63    0.52
  -1   2   6    4.04    0.38
  -1   2   6    4.35    0.52
   0  -2  -6   40.31    2.94
   0  -2  -6   41.54    2.40
   0  -2  -6   42.36    2.49
   0  -2  -6   40.16    2.40
   0   2   6   42.52    2.50
  -1  -2  -6   66.89    3.72
  -1  -2  -6   60.32    4.16
  -1  -2  -6   60.20    3.60
   1   2   6   65.72    3.73
  -2  -2  -6   25.64    1.62
   2   2   6   26.42    1.63
   4   2   6   26.84    1.72
   5   2   6   19.55    1.43
   6   2   6    3.03    0.64
   6   2   6    2.50    0.84
   8   2   6    5.63    0.60
   8   2   6    4.36    0.43
   9   2   6    1.46    0.25
   6  -3  -6    7.27    0.57
   6  -3  -6    6.87    0.57
  -6   3   6    7.20    0.53
  -6   3   6    6.32    0.90
   5  -3  -6    1.36    0.34
  -5   3   6    1.05    0.55
  -5   3   6    0.78    0.27
   4  -3  -6    2.19    0.41
   3  -3  -6    3.84    0.47
   3  -3  -6    4.82    0.52
  -3   3   6    4.65    0.79
  -3   3   6    3.99    0.64
   2  -3  -6   37.65    2.24
   2  -3  -6   36.40    2.20
   2  -3  -6   36.32    2.28
   2  -3  -6   43.50    2.29
  -2   3   6   37.37    2.65
  -2   3   6   34.42    2.52
   1  -3  -6   33.20    2.60
  -1   3   6   34.56    2.01
   0  -3  -6    4.26    0.35
   0  -3  -6    4.43    0.31
   0  -3  -6    4.35    0.53
   0  -3  -6    3.64    0.79
   0   3   6    4.36    0.53
  -1  -3  -6    3.44    0.80
  -1  -3  -6    4.47    0.52
  -1  -3  -6    4.82    0.31
   1   3   6    3.87    0.49
  -2  -3  -6   20.05    1.78
  -2  -3  -6   22.35    1.39
   4   3   6    5.09    0.61
   5   3   6   27.52    1.77
   6   3   6   95.43    5.70
   6   3   6   86.54    5.37
   7   3   6   28.88    2.08
   8   3   6    1.12    0.35
   5  -4  -6    2.11    0.39
   5  -4  -6    1.54    0.35
  -5   4   6    1.63    0.26
   4  -4  -6    4.42    0.49
   3  -4  -6    0.72    0.23
  -3   4   6    0.61    0.31
  -3   4   6    0.87    0.41
   2  -4  -6    4.56    0.56
  -2   4   6    2.73    0.77
   1  -4  -6   11.07    1.51
   1  -4  -6   14.37    0.84
   1  -4  -6   13.89    0.89
   1  -4  -6   12.98    0.82
  -1   4   6   12.80    0.83
  -1   4   6   12.97    1.44
  -1   4   6   12.77    1.18
   0  -4  -6   37.48    2.22
   0  -4  -6   38.57    2.18
   0  -4  -6   33.86    2.79
   0   4   6   38.68    2.19
   0   4   6   37.28    2.85
   0   4   6   39.51    2.44
   0   4   6   34.99    2.47
  -1  -4  -6   10.73    0.63
  -1  -4  -6    8.08    1.16
   1   4   6    9.85    0.64
  -2  -4  -6    9.96    0.66
  -2  -4  -6    9.50    1.27
  -2  -4  -6   10.50    0.63
   2   4   6   10.73    0.69
  -3  -4  -6    2.35    0.89
  -4  -4  -6   32.73    2.88
   4   4   6   42.51    2.77
   4   4   6   39.00    2.39
   5   4   6    0.80    0.39
   5   4   6    1.01    0.45
   6   4   6    8.81    0.97
   6   4   6    9.61    0.84
   7   4   6    4.26    0.66
   8   4   6   11.66    0.88
   8   4   6   10.18    0.94
   9   4   6    1.08    0.28
   5  -5  -6    0.89    0.22
   5  -5  -6    0.62    0.24
   4  -5  -6    5.95    0.56
   4  -5  -6    6.52    0.56
  -4   5   6    5.32    0.51
  -4   5   6    5.53    0.65
   3  -5  -6   13.10    0.87
  -2   5   6    9.88    0.92
   1  -5  -6    2.08    0.35
   1  -5  -6    2.03    0.35
  -1   5   6    2.12    0.79
  -1   5   6    1.42    0.42
  -1   5   6    2.03    0.30
   0  -5  -6    7.95    0.61
   0  -5  -6    7.25    1.83
   0   5   6    8.86    0.88
   0   5   6    7.68    1.13
   0   5   6    7.35    0.55
  -1  -5  -6   18.39    1.19
  -1  -5  -6   19.30    1.12
  -1  -5  -6   16.35    1.85
  -1  -5  -6   18.93    1.13
   1   5   6   18.36    1.15
   1   5   6   19.47    1.32
  -2  -5  -6   71.69    5.98
  -2  -5  -6   73.52    4.24
   2   5   6   70.67    4.27
   2   5   6   84.06    4.89
   2   5   6   70.22    4.39
  -3  -5  -6    0.72    0.64
  -3  -5  -6    0.97    0.15
   3   5   6    1.03    0.47
   3   5   6    1.07    0.37
  -4  -5  -6    3.46    1.22
   4   5   6    4.39    0.79
   4   5   6    4.62    0.64
   5   5   6    4.69    0.70
   5   5   6    4.11    0.74
  -6  -5  -6    6.15    0.52
   6   5   6    8.24    0.87
   7   5   6    2.06    0.42
   7   5   6    1.73    0.45
   8   5   6    0.75    0.29
   8   5   6    1.26    0.37
   9   5   6    2.17    0.36
   4  -6  -6    5.51    0.49
   4  -6  -6    5.56    0.49
  -4   6   6    6.12    0.54
   3  -6  -6    0.92    0.22
   3  -6  -6    1.09    0.26
   3  -6  -6    0.70    0.26
  -3   6   6    0.73    0.54
   2  -6  -6    5.43    0.72
   2  -6  -6    5.90    0.53
  -2   6   6    5.50    0.65
  -1   6   6    8.42    0.80
  -1   6   6    8.83    0.62
   0  -6  -6    5.00    0.45
   0  -6  -6    4.41    0.40
   0   6   6    2.96    0.61
   0   6   6    3.53    0.39
  -1  -6  -6    2.05    0.39
   1   6   6    1.40    0.34
   1   6   6    1.10    0.19
  -2  -6  -6   18.08    1.05
  -2  -6  -6   18.66    1.05
  -2  -6  -6   14.08    1.88
   2   6   6   17.64    1.70
   2   6   6   16.60    1.15
   2   6   6   15.08    1.18
  -3  -6  -6    6.51    0.50
  -3  -6  -6    5.91    1.37
   3   6   6    6.77    0.71
   3   6   6    5.19    0.69
   3   6   6    8.18    1.26
  -4  -6  -6   10.26    0.65
   4   6   6    9.14    0.85
   4   6   6    8.94    1.15
  -5  -6  -6   13.43    0.91
   5   6   6   16.15    1.33
  -6  -6  -6   11.59    0.75
  -6  -6  -6   12.37    0.92
   6   6   6   10.81    1.02
  -7  -6  -6   14.17    0.93
   7   6   6   13.93    1.02
   8   6   6    6.28    0.67
   8   6   6    5.75    0.68
   9   6   6    0.73    0.20
   3  -7  -6    6.90    0.59
  -3   7   6    7.47    0.54
   2  -7  -6    2.75    0.51
   2  -7  -6    3.83    0.39
  -2   7   6    4.04    0.47
   1  -7  -6   11.93    0.82
  -1   7   6   11.03    0.87
   0  -7  -6   10.30    0.75
   0   7   6   10.81    0.83
   0   7   6   11.66    0.88
  -1  -7  -6    3.57    0.40
  -1  -7  -6    3.31    0.41
   1   7   6    2.42    0.35
  -2  -7  -6    2.87    0.41
  -2  -7  -6    3.50    0.39
   2   7   6    2.45    0.37
  -3  -7  -6    5.07    0.45
  -3  -7  -6    4.63    0.48
   3   7   6    4.99    0.54
  -4  -7  -6   17.13    1.08
  -4  -7  -6   16.27    1.05
  -5  -7  -6    8.33    0.62
  -5  -7  -6    9.15    0.66
   5   7   6    8.89    0.88
  -6  -7  -6    6.39    0.50
  -6  -7  -6    5.48    0.45
   6   7   6    4.84    0.73
   6   7   6    5.19    0.58
  -7  -7  -6    8.88    0.77
  -7  -7  -6    9.58    0.70
   7   7   6    9.18    0.70
   7   7   6   11.10    0.89
   8   7   6    6.26    0.57
   8   7   6    6.64    0.59
   1  -8  -6    2.53    0.40
  -1   8   6    3.00    0.35
   0  -8  -6    0.89    0.35
   0  -8  -6    0.70    0.20
   0   8   6    0.74    0.22
  -1  -8  -6   16.33    1.14
  -1  -8  -6   12.03    0.95
  -1  -8  -6   15.86    0.96
   1   8   6   13.30    0.93
   1   8   6   13.74    1.10
  -2  -8  -6   45.93    2.56
  -2  -8  -6   41.87    2.51
   2   8   6   42.25    2.51
   2   8   6   41.53    2.56
  -3  -8  -6    0.45    0.26
  -3  -8  -6    0.82    0.21
   3   8   6    0.87    0.30
  -4  -8  -6    3.32    0.50
  -4  -8  -6    3.16    0.39
  -4  -8  -6    3.35    0.38
   4   8   6    3.56    0.47
   4   8   6    2.94    0.58
  -5  -8  -6    5.44    0.47
  -5  -8  -6    4.67    0.82
  -5  -8  -6    6.55    0.66
  -5  -8  -6    5.96    0.48
   5   8   6    5.00    0.63
   5   8   6    5.68    0.90
   5   8   6    5.52    0.52
  -6  -8  -6    0.70    0.18
   6   8   6    1.00    0.34
   6   8   6    0.66    0.26
   6   8   6    0.88    0.21
  -7  -8  -6    1.07    0.27
   7   8   6    0.92    0.29
   7   8   6    0.41    0.24
   7   8   6    0.94    0.31
  -1  -9  -6    1.73    0.31
  -1  -9  -6    1.52    0.34
  -2  -9  -6    3.32    0.61
  -2  -9  -6    2.60    0.34
   2   9   6    2.62    0.35
  -3  -9  -6    4.22    0.43
   3   9   6    4.48    0.39
  -4  -9  -6    4.99    0.44
   4   9   6    5.61    0.44
  -5  -9  -6    2.05    0.41
  -5  -9  -6    2.45    0.32
  -5  -9  -6    3.67    0.62
   3   7  -7    8.47    0.64
  -3  -7   7    8.37    0.73
   2   7  -7    0.62    0.14
  -2  -7   7    1.11    0.31
   1   7  -7    1.10    0.21
  -1  -7   7    1.35    0.40
  -1  -7   7    1.22    0.26
  -1  -7   7    1.68    0.35
   0   7  -7    9.55    0.59
   0  -7   7   10.04    0.67
   0  -7   7    7.40    0.73
   0  -7   7    9.36    0.94
  -1   7  -7    7.77    0.51
   1  -7   7    7.53    0.88
   1  -7   7    8.05    0.60
  -2   7  -7    2.14    0.22
   2  -7   7    2.75    0.28
   5   6  -7    1.87    0.25
  -5  -6   7    1.37    0.31
   4   6  -7    0.25    0.18
   4   6  -7    0.57    0.24
  -4  -6   7    0.65    0.40
   3   6  -7    1.63    0.27
   3   6  -7    1.34    0.26
  -3  -6   7    0.96    0.40
  -3  -6   7    1.15    0.65
   2   6  -7    7.12    0.50
  -2  -6   7    6.69    1.13
  -2  -6   7    5.77    0.76
  -1  -6   7   14.14    1.00
  -1  -6   7   16.62    1.52
  -1  -6   7   15.49    1.07
   0   6  -7    6.04    0.63
   0   6  -7    5.66    0.44
   0  -6   7    5.60    0.83
   0  -6   7    5.97    0.48
   0  -6   7    5.91    0.63
   0  -6   7    5.67    1.54
  -1   6  -7    3.31    0.33
  -1   6  -7    3.01    0.31
   1  -6   7    2.87    0.62
   1  -6   7    2.26    0.34
   1  -6   7    2.61    0.49
   1  -6   7    3.04    0.30
   1  -6   7    2.20    0.42
  -2   6  -7    1.39    0.22
  -2   6  -7    0.74    0.21
   2  -6   7    0.75    0.43
   2  -6   7    1.07    0.17
   2  -6   7    1.42    0.30
   2  -6   7    1.01    0.19
  -3   6  -7    1.94    0.27
  -3   6  -7    1.66    0.22
   3  -6   7    1.91    0.21
   3  -6   7    2.56    0.35
   3  -6   7    2.27    0.26
   6   5  -7    7.85    0.52
  -6  -5   7    7.64    0.74
   5   5  -7    1.90    0.28
  -5  -5   7    1.74    0.52
  -5  -5   7    1.75    0.50
   4   5  -7   16.23    1.12
  -4  -5   7   14.73    1.27
  -4  -5   7   14.47    1.21
   3   5  -7    5.85    0.59
   3   5  -7    6.10    0.81
  -3  -5   7    4.61    0.98
  -3  -5   7    6.00    1.50
  -3  -5   7    4.96    0.77
  -2  -5   7    0.91    0.22
   1   5  -7   17.99    1.09
   1   5  -7   18.10    1.16
   1   5  -7   16.30    1.08
  -1  -5   7   19.49    2.11
  -1  -5   7   14.60    1.29
  -1  -5   7   18.29    1.12
   0   5  -7    3.48    0.34
   0   5  -7    3.89    0.38
   0  -5   7    3.82    0.32
   0  -5   7    3.13    0.61
  -1   5  -7   23.23    1.40
  -1   5  -7   21.89    1.42
  -1   5  -7   24.96    1.39
   1  -5   7   23.03    1.54
  -2   5  -7    6.54    0.47
  -2   5  -7    6.27    0.46
   2  -5   7    6.10    0.44
  -3   5  -7   18.88    1.12
  -3   5  -7   19.03    1.16
  -3   5  -7   19.72    1.14
   3  -5   7   16.28    1.78
   3  -5   7   19.66    1.18
   3  -5   7   20.64    1.18
   3  -5   7   16.72    1.37
  -4   5  -7    6.86    0.55
  -4   5  -7    7.90    0.50
   4  -5   7    6.88    0.50
   4  -5   7    7.46    0.63
   4  -5   7    7.37    0.48
  -5   5  -7   20.55    1.25
   5  -5   7   19.42    1.28
   5  -5   7   23.53    1.26
   5  -5   7   21.89    1.29
   6   4  -7   13.69    0.86
  -6  -4   7   14.24    1.11
  -6  -4   7   13.40    1.20
   5   4  -7    2.05    0.29
  -5  -4   7    3.00    0.56
  -5  -4   7    2.99    0.61
   4   4  -7    6.50    0.50
  -3  -4   7   16.00    1.30
  -3  -4   7   15.98    1.04
   2   4  -7    6.42    0.49
   2   4  -7    6.37    0.50
  -2  -4   7    6.14    0.58
  -2  -4   7    6.57    0.88
  -2  -4   7    6.17    1.29
  -2  -4   7    6.47    0.53
   1   4  -7    0.30    0.20
   1   4  -7    0.52    0.23
  -1  -4   7   -0.05    0.44
   0   4  -7    5.38    0.48
   0   4  -7    5.60    0.52
   0   4  -7    5.68    0.42
   0   4  -7    5.49    0.49
   0  -4   7    6.09    1.17
   0  -4   7    6.06    0.43
   0  -4   7    5.46    0.49
   0  -4   7    4.78    0.47
   0  -4   7    6.27    0.81
  -1   4  -7   23.87    1.35
  -1   4  -7   23.54    1.36
  -1   4  -7   22.57    1.40
   1  -4   7   20.06    1.93
   1  -4   7   22.09    1.98
   1  -4   7   20.84    1.35
   1  -4   7   22.30    1.39
   1  -4   7   24.42    1.54
  -2   4  -7   11.93    0.79
  -2   4  -7   12.61    0.74
  -2   4  -7   11.46    0.75
   2  -4   7   11.58    0.97
   2  -4   7   11.95    0.77
   2  -4   7   10.32    0.73
  -3   4  -7    2.76    0.32
  -3   4  -7    2.12    0.27
  -3   4  -7    2.38    0.37
   3  -4   7    2.36    0.30
   3  -4   7    2.10    0.25
  -4   4  -7    2.67    0.30
  -4   4  -7    2.36    0.36
   4  -4   7    2.51    0.30
   4  -4   7    2.69    0.26
  -5   4  -7   14.51    0.93
  -5   4  -7   15.27    1.01
   5  -4   7   14.65    0.96
   5  -4   7   16.34    0.94
   5  -4   7   17.33    1.08
  -6   4  -7    0.61    0.16
   6  -4   7    0.81    0.14
   6  -4   7    0.88    0.15
   6   3  -7   34.21    2.05
  -6  -3   7   35.10    2.09
  -6  -3   7   33.60    2.23
  -6  -3   7   36.82    2.29
   5   3  -7    2.38    0.38
  -5  -3   7    1.93    0.63
  -5  -3   7    3.62    0.57
  -4  -3   7    3.83    0.68
  -4  -3   7    2.37    0.44
  -3  -3   7    4.79    0.91
   2   3  -7    1.11    0.27
   2   3  -7    1.58    0.24
  -2  -3   7    1.67    0.62
  -2  -3   7   -0.05    1.19
  -2  -3   7    2.23    0.38
  -2  -3   7    1.79    0.31
  -2  -3   7    2.01    0.39
   1   3  -7   12.21    0.86
  -1  -3   7   13.50    0.88
  -1  -3   7   13.46    0.85
  -1  -3   7   12.75    0.89
  -1  -3   7   12.55    1.68
   0   3  -7   12.16    0.75
   0   3  -7   12.05    0.80
   0   3  -7   12.41    0.79
   0  -3   7   10.45    0.99
   0  -3   7   11.94    1.55
   0  -3   7   11.79    0.79
   0  -3   7   10.58    1.12
   0  -3   7   11.83    0.82
  -1   3  -7    2.04    0.34
  -1   3  -7    2.20    0.32
  -1   3  -7    2.90    0.40
   1  -3   7    1.97    0.71
   1  -3   7    2.06    0.31
   1  -3   7    1.99    0.39
   1  -3   7    2.50    0.35
  -2   3  -7   43.48    2.42
  -2   3  -7   43.76    2.47
   2  -3   7   35.79    3.81
  -3   3  -7   68.32    3.93
  -3   3  -7   66.63    3.91
   3  -3   7   64.43    4.09
   3  -3   7   69.92    3.89
   3  -3   7   69.47    3.92
  -4   3  -7    7.30    0.48
  -4   3  -7    7.02    0.53
   4  -3   7    5.59    1.09
   4  -3   7    6.85    0.51
   4  -3   7    7.41    0.52
  -5   3  -7    1.38    0.25
  -5   3  -7    1.68    0.28
   5  -3   7    1.35    0.21
   5  -3   7    1.63    0.24
  -6   3  -7    4.26    0.35
  -6   3  -7    3.93    0.36
   6  -3   7    4.57    0.35
   6  -3   7    3.92    0.32
   7  -3   7    1.40    0.17
   7  -3   7    1.27    0.23
   7   2  -7    3.63    0.31
   7   2  -7    2.95    0.28
  -7  -2   7    2.42    0.60
   6   2  -7   11.73    0.79
  -6  -2   7   11.89    1.07
  -6  -2   7   11.23    1.07
  -6  -2   7   12.56    0.85
  -5  -2   7    1.02    0.44
  -4  -2   7    4.94    0.45
  -4  -2   7    4.00    0.64
  -4  -2   7    5.51    0.73
   3   2  -7    2.79    0.35
   3   2  -7    2.79    0.95
  -3  -2   7    2.22    0.33
  -3  -2   7    1.22    0.61
  -3  -2   7    1.68    0.31
  -3  -2   7    2.08    0.53
   2   2  -7    3.12    0.91
   2   2  -7    2.30    0.32
   2   2  -7    1.96    0.36
  -2  -2   7    2.73    0.56
  -2  -2   7    1.92    0.39
  -2  -2   7    1.60    0.63
  -2  -2   7    2.26    0.35
  -2  -2   7    2.83    0.43
   1   2  -7   11.86    0.69
   1   2  -7   11.18    0.70
   1   2  -7   10.32    0.77
  -1  -2   7    9.14    1.23
  -1  -2   7   10.97    0.74
  -1  -2   7   10.47    0.78
  -1  -2   7   10.08    1.98
   0   2  -7   17.30    1.05
   0   2  -7   17.10    1.03
   0  -2   7   16.11    1.09
   0  -2   7   17.64    1.06
   0  -2   7   17.38    1.85
   0  -2   7   17.52    1.09
  -1   2  -7    6.97    0.58
  -1   2  -7    6.26    0.42
   1  -2   7    5.96    0.51
   1  -2   7    4.90    1.38
   1  -2   7    6.42    0.73
   1  -2   7    6.23    0.52
  -2   2  -7    2.61    0.24
   2  -2   7    2.52    0.56
   2  -2   7    2.41    0.35
  -3   2  -7    3.16    0.35
   3  -2   7    3.07    0.61
   3  -2   7    2.51    0.37
  -4   2  -7   14.41    0.98
   4  -2   7   16.19    0.96
   4  -2   7   11.67    2.98
  -5   2  -7    2.65    0.28
   5  -2   7    2.83    0.30
  -6   2  -7    1.49    0.26
   6  -2   7    1.34    0.36
   6  -2   7    0.94    0.18
   7  -2   7    2.93    0.25
   7  -2   7    2.87    0.28
   7   1  -7    1.73    0.25
   7   1  -7    1.75    0.21
  -7  -1   7    1.98    0.73
   6   1  -7   11.99    0.78
  -6  -1   7   10.84    1.07
  -6  -1   7   12.59    0.85
  -6  -1   7   10.82    1.02
   5   1  -7    2.29    0.45
  -5  -1   7    2.21    0.37
  -4  -1   7   16.22    1.37
  -4  -1   7   14.35    1.40
  -4  -1   7   15.96    1.02
   3   1  -7   51.06    3.48
   3   1  -7   47.01    2.74
  -3  -1   7   40.25    2.74
  -3  -1   7   50.03    2.78
   2   1  -7   20.62    1.34
   2   1  -7   23.55    1.97
   2   1  -7   23.02    1.31
   2   1  -7   22.96    1.30
  -2  -1   7   21.79    1.35
  -2  -1   7   20.56    1.80
  -2  -1   7   20.50    1.32
  -2  -1   7   19.66    1.63
   1   1  -7    5.26    1.10
   1   1  -7    5.83    0.42
   1   1  -7    5.21    0.48
  -1  -1   7    4.95    0.90
  -1  -1   7    5.28    0.45
  -1  -1   7    5.48    0.44
   0   1  -7    4.20    0.28
   0   1  -7    2.96    0.37
   0  -1   7    3.90    0.43
   0  -1   7    0.58    1.76
  -1   1  -7   12.47    0.75
   1  -1   7   12.37    0.82
   2  -1   7   16.02    1.17
   3  -1   7    4.02    0.58
   4  -1   7    1.31    0.82
  -5   1  -7    1.19    0.16
   5  -1   7    0.85    0.16
   6  -1   7   17.01    1.19
   7  -1   7    3.16    0.27
   7  -1   7    3.23    0.34
   8  -1   7    3.77    0.27
   8  -1   7    3.07    0.32
   6   0  -7    8.52    0.66
   6   0  -7    8.92    0.62
  -6   0   7    8.90    0.91
  -6   0   7    8.77    0.93
  -6   0   7    9.01    0.68
   5   0  -7    3.91    0.47
  -4   0   7    0.09    0.90
  -4   0   7    1.24    0.58
  -4   0   7    1.16    0.38
  -4   0   7    1.82    0.34
   3   0  -7    6.39    1.12
   3   0  -7    5.36    0.48
  -3   0   7    6.23    0.52
   2   0  -7    0.47    0.56
   2   0  -7    0.50    0.15
   2   0  -7    0.79    0.16
   2   0  -7    1.05    0.21
  -2   0   7    0.28    0.51
  -2   0   7    0.71    0.59
   1   0  -7   33.33    2.58
   1   0  -7   34.70    2.00
   0   0  -7   39.32    2.29
   0   0  -7   37.97    2.83
   0   0  -7   40.51    2.26
   0   0   7   38.40    2.46
  -1   0  -7   47.43    2.85
  -1   0  -7   51.59    2.84
   2   0   7   38.23    2.38
   5   0   7    5.09    0.63
   5   0   7    3.88    0.43
   6   0   7   22.88    1.65
   7   0   7   30.47    1.78
   8   0   7    8.78    0.60
   8   0   7    9.50    0.60
   6  -1  -7   22.19    1.30
   6  -1  -7   21.64    1.27
   6  -1  -7   18.74    1.23
  -6   1   7   17.60    1.51
  -6   1   7   24.10    1.60
  -6   1   7   21.53    1.29
   5  -1  -7    0.53    0.25
  -5   1   7    1.02    0.30
  -5   1   7    0.73    0.50
  -5   1   7    1.69    0.59
   4  -1  -7    1.64    0.37
  -4   1   7    1.36    0.48
  -4   1   7    1.60    0.52
   3  -1  -7    3.39    0.44
   3  -1  -7    3.69    1.05
  -3   1   7    4.05    0.41
  -3   1   7    3.68    0.67
  -3   1   7    2.82    0.61
   2  -1  -7    2.26    0.98
   2  -1  -7    2.55    0.36
   2  -1  -7    2.40    0.28
   2  -1  -7    1.99    0.30
  -2   1   7    3.97    0.89
  -2   1   7    2.12    0.58
   1  -1  -7    1.23    0.60
   1  -1  -7    0.95    0.21
   1  -1  -7    1.73    0.27
  -1   1   7    2.33    0.58
  -1   1   7    1.59    0.26
  -1   1   7    1.21    0.64
   0  -1  -7   31.23    2.08
   0  -1  -7   37.80    2.03
   0  -1  -7   35.42    2.66
   0   1   7   35.26    2.11
  -1  -1  -7   69.21    3.90
  -1  -1  -7   65.74    3.92
   1   1   7   67.71    4.18
   1   1   7   70.90    3.97
   7   1   7    1.17    0.20
   8   1   7    0.85    0.19
   6  -2  -7    2.37    0.37
  -6   2   7    3.09    0.63
   5  -2  -7    3.25    0.46
   5  -2  -7    3.26    0.40
   5  -2  -7    3.23    0.35
  -5   2   7    2.79    0.58
  -5   2   7    4.01    0.76
   4  -2  -7    0.78    0.20
  -4   2   7    0.81    0.31
   3  -2  -7    3.43    0.45
  -3   2   7    2.72    0.52
  -3   2   7    3.61    0.83
   2  -2  -7   27.96    2.50
   2  -2  -7   33.96    1.96
   2  -2  -7   31.77    1.90
  -2   2   7   34.20    2.29
  -2   2   7   31.25    2.15
   1  -2  -7   63.26    3.47
   1  -2  -7   62.21    3.49
   1  -2  -7   57.53    3.64
  -1   2   7   59.55    3.98
  -1   2   7   59.15    3.86
   0  -2  -7   10.67    0.67
   0  -2  -7   10.06    1.27
   0  -2  -7   11.53    0.70
  -1  -2  -7   18.74    1.10
  -1  -2  -7   17.92    1.72
  -1  -2  -7   19.00    1.13
  -2  -2  -7    3.05    0.88
   2   2   7    4.01    1.21
   3   2   7    1.40    0.96
   4   2   7    2.73    0.57
   5   2   7    0.56    0.44
   5   2   7    0.91    0.35
   6   2   7   20.45    1.57
   6   2   7   19.13    1.37
   6   2   7   18.96    1.48
   7   2   7    8.59    0.77
   5  -3  -7    3.41    0.39
  -5   3   7    3.17    0.56
   4  -3  -7    1.72    0.28
   4  -3  -7    1.77    0.37
   4  -3  -7    1.48    0.38
  -4   3   7    1.49    0.57
   3  -3  -7   13.12    0.92
   2  -3  -7    7.89    0.65
   2  -3  -7    7.30    0.62
   2  -3  -7    7.02    0.57
  -2   3   7    7.87    0.89
  -2   3   7    6.88    1.00
   1  -3  -7   20.92    1.33
   1  -3  -7   19.86    1.27
   1  -3  -7   18.33    1.93
  -1   3   7   22.86    1.73
  -1   3   7   21.07    1.50
   0  -3  -7   19.88    1.19
   0  -3  -7   18.35    1.24
   0  -3  -7   20.99    1.21
   0   3   7   20.84    1.81
   0   3   7   18.39    1.60
   0   3   7   20.95    1.46
  -1  -3  -7   16.75    1.00
  -1  -3  -7   15.32    1.65
  -1  -3  -7   17.28    0.98
   1   3   7   15.42    1.60
   1   3   7   16.59    1.52
  -2  -3  -7   10.60    1.40
  -2  -3  -7   11.45    0.76
   2   3   7   12.24    0.93
   2   3   7   10.98    1.30
   2   3   7   13.03    1.38
   3   3   7    2.75    0.84
   3   3   7    3.49    0.56
   4   3   7   16.90    1.31
   4   3   7   20.85    1.67
   6   3   7   70.18    4.18
   7   3   7   31.71    1.97
   7   3   7   31.05    2.10
   7   3   7   29.46    1.93
   8   3   7    2.10    0.48
   5  -4  -7    8.30    0.58
   5  -4  -7    7.17    0.68
  -5   4   7    7.40    0.68
   4  -4  -7    0.34    0.30
   4  -4  -7    0.19    0.21
   4  -4  -7    0.86    0.29
  -4   4   7    0.51    0.46
   3  -4  -7    0.55    0.21
  -3   4   7    0.97    0.37
   2  -4  -7    8.97    0.67
   2  -4  -7    7.33    0.62
  -2   4   7    7.42    0.80
   1  -4  -7   33.28    1.90
  -1   4   7   31.74    2.06
  -1   4   7   29.49    2.22
   0  -4  -7    7.98    0.55
   0  -4  -7    7.93    0.57
   0  -4  -7    7.56    0.61
   0  -4  -7    7.69    1.34
   0   4   7    8.67    1.18
   0   4   7    9.11    1.10
   0   4   7    7.62    0.84
  -1  -4  -7   16.32    1.85
  -1  -4  -7   18.36    1.06
  -1  -4  -7   17.36    1.06
   1   4   7   17.12    1.62
   1   4   7   17.04    1.50
  -2  -4  -7   12.57    0.74
  -2  -4  -7   11.34    1.57
   2   4   7   11.06    1.26
   2   4   7   11.95    0.93
  -3  -4  -7   11.16    1.62
   3   4   7   15.79    1.43
   3   4   7   13.51    1.04
  -4  -4  -7   14.77    0.93
  -4  -4  -7   13.17    2.02
   4   4   7   14.97    1.17
   4   4   7   17.80    1.49
   6   4   7   11.45    1.17
   6   4   7   12.81    1.04
   7   4   7    7.02    1.01
   7   4   7    6.90    0.80
   7   4   7    6.59    0.77
   8   4   7    3.12    0.52
   8   4   7    4.21    0.55
   4  -5  -7    0.57    0.27
   4  -5  -7    0.50    0.20
  -4   5   7    0.61    0.29
   3  -5  -7    5.05    0.44
   3  -5  -7    4.78    0.60
   3  -5  -7    5.37    0.66
  -3   5   7    4.66    0.60
  -2   5   7   10.98    0.88
   1  -5  -7   17.10    1.11
   1  -5  -7   18.10    1.10
   1  -5  -7   16.72    1.11
  -1   5   7   17.22    1.33
   0  -5  -7    1.02    0.20
   0  -5  -7    0.72    0.19
   0  -5  -7    1.42    0.26
   0   5   7    0.54    0.35
  -1  -5  -7    1.11    0.20
  -1  -5  -7    0.38    0.78
  -1  -5  -7    1.21    0.22
   1   5   7    1.38    0.35
  -2  -5  -7    1.84    0.85
  -2  -5  -7    1.17    0.24
   2   5   7    1.52    0.34
   2   5   7    1.04    0.42
   2   5   7    0.86    0.50
  -3  -5  -7   22.80    2.36
  -3  -5  -7   28.10    1.53
   3   5   7   24.94    1.67
  -4  -5  -7   48.36    3.04
   4   5   7   51.86    3.19
   4   5   7   51.26    3.22
   4   5   7   60.93    3.64
  -5  -5  -7    8.54    0.55
   5   5   7    7.37    0.88
  -6  -5  -7    6.91    0.63
   6   5   7    6.04    0.73
   7   5   7    0.42    0.41
   7   5   7    0.30    0.39
   7   5   7    1.14    0.38
   8   5   7    7.35    0.74
   8   5   7    7.49    0.68
   3  -6  -7    3.38    0.41
  -3   6   7    3.65    0.39
   2  -6  -7   11.64    0.77
   2  -6  -7   11.33    0.84
  -2   6   7   12.01    1.03
   1  -6  -7    6.34    0.72
  -1   6   7    6.03    0.82
   0  -6  -7    1.48    0.25
   0  -6  -7    1.40    0.31
   0  -6  -7    1.42    0.22
   0   6   7    1.23    0.30
  -1  -6  -7   11.33    0.82
  -1  -6  -7   11.51    0.77
  -1  -6  -7   12.21    0.81
  -2  -6  -7    2.26    0.31
  -3  -6  -7    3.73    0.37
   3   6   7    3.60    0.53
   3   6   7    4.43    0.71
  -4  -6  -7   27.61    1.70
  -4  -6  -7   27.03    1.71
   4   6   7   26.92    1.82
   4   6   7   33.38    2.16
  -5  -6  -7   18.84    1.11
  -5  -6  -7   17.59    1.13
   5   6   7   17.86    1.44
  -6  -6  -7    2.91    0.35
  -6  -6  -7    2.71    0.42
   6   6   7    3.84    0.61
   7   6   7    2.58    0.72
   7   6   7    3.40    0.43
   7   6   7    3.67    0.53
   8   6   7    2.24    0.35
   8   6   7    1.71    0.42
  -2   7   7    6.75    0.56
   1  -7  -7   10.30    0.67
   1  -7  -7    7.53    1.27
  -1   7   7   10.34    0.71
   0  -7  -7   -0.01    0.25
   0   7   7    0.44    0.25
  -1  -7  -7    1.48    0.23
   1   7   7    2.09    0.41
   1   7   7    1.89    0.40
  -2  -7  -7    4.64    0.41
  -2  -7  -7    3.99    0.41
   2   7   7    3.61    0.76
   2   7   7    3.79    0.62
  -3  -7  -7    5.33    0.46
   3   7   7    5.44    1.39
   3   7   7    5.06    0.52
  -4  -7  -7   10.36    0.72
  -4  -7  -7   10.07    0.70
  -4  -7  -7   10.06    0.97
   4   7   7   11.44    1.47
  -5  -7  -7    4.33    0.43
  -5  -7  -7    4.56    0.40
   5   7   7    4.54    0.91
   5   7   7    4.73    0.69
   5   7   7    5.30    0.57
  -6  -7  -7   10.05    0.72
  -6  -7  -7    9.42    0.80
   6   7   7   10.06    0.73
   6   7   7    8.89    0.86
   6   7   7   11.70    0.92
   7   7   7    8.90    0.78
   7   7   7    8.87    0.81
   7   7   7   10.10    0.78
   0  -8  -7    0.73    0.26
   0   8   7    0.60    0.17
  -1  -8  -7    7.79    0.61
  -1  -8  -7    9.84    0.81
   1   8   7    9.09    0.73
  -2  -8  -7    7.42    0.58
  -2  -8  -7    7.25    0.64
   2   8   7    7.54    0.56
  -3  -8  -7    2.15    0.45
  -3  -8  -7    2.31    0.46
   3   8   7    2.99    0.37
  -4  -8  -7    7.01    0.61
  -4  -8  -7    7.43    0.53
  -4  -8  -7    7.66    0.66
   4   8   7    7.26    0.56
   4   8   7    5.68    0.67
  -5  -8  -7    5.21    0.97
  -5  -8  -7    7.90    0.52
   5   8   7    7.57    0.56
  -6  -8  -7    0.29    0.17
   6   8   7    0.30    0.22
   6   8   7    0.32    0.22
   3   6  -8    0.47    0.15
  -3  -6   8    0.36    0.31
   2   6  -8    7.60    0.49
  -2  -6   8    6.64    0.66
   1   6  -8   13.39    0.80
  -1  -6   8   11.82    0.89
  -1  -6   8   14.10    1.19
  -1  -6   8   12.29    0.95
   0   6  -8    6.73    0.48
   0  -6   8    7.03    0.66
   0  -6   8    6.88    0.54
   0  -6   8    7.30    0.88
  -1   6  -8    0.99    0.20
   1  -6   8    0.90    0.41
   1  -6   8    0.75    0.20
   1  -6   8    0.67    0.15
  -2   6  -8    6.12    0.41
   2  -6   8    5.95    0.41
   2  -6   8    5.43    0.47
   4   5  -8    0.92    0.20
  -4  -5   8    0.94    0.34
   3   5  -8    0.91    0.17
  -3  -5   8    1.00    0.39
   2   5  -8   10.58    0.65
  -2  -5   8    7.70    0.84
  -2  -5   8    9.60    1.22
   1   5  -8    8.52    0.63
   1   5  -8    7.80    0.57
  -1  -5   8    7.74    0.83
  -1  -5   8    9.46    0.77
  -1  -5   8    8.38    0.60
  -1  -5   8    7.49    1.15
   0   5  -8    4.98    0.43
   0   5  -8    4.40    0.39
   0  -5   8    5.74    0.55
   0  -5   8    6.62    1.23
   0  -5   8    4.02    0.44
  -1   5  -8    0.78    0.15
  -1   5  -8    0.59    0.17
   1  -5   8    0.73    0.17
   1  -5   8    0.45    0.14
   1  -5   8    0.27    0.45
   1  -5   8    0.39    0.25
  -2   5  -8    1.89    0.29
  -2   5  -8    1.81    0.24
  -2   5  -8    1.97    0.24
   2  -5   8    1.75    0.28
   2  -5   8    1.76    0.35
   2  -5   8    2.00    0.23
   2  -5   8    2.55    0.95
  -3   5  -8    0.85    0.14
   3  -5   8    0.82    0.22
   3  -5   8    0.65    0.15
   3  -5   8    0.50    0.46
   3  -5   8    0.73    0.13
  -4   5  -8    5.63    0.39
   4  -5   8    5.28    0.39
   4  -5   8    6.72    0.39
   4  -5   8    5.13    0.45
  -5  -4   8    2.82    0.43
  -5  -4   8    3.23    0.68
   4   4  -8    2.28    0.28
   4   4  -8    1.66    0.35
  -4  -4   8    2.15    0.52
  -4  -4   8    1.82    0.43
   3   4  -8    5.94    0.56
  -3  -4   8    6.99    1.38
   2   4  -8   33.01    2.09
  -2  -4   8   38.38    2.08
  -2  -4   8   33.49    2.22
   1   4  -8   25.85    1.46
   1   4  -8   23.20    1.49
   1   4  -8   25.96    1.48
  -1  -4   8   22.58    1.49
  -1  -4   8   23.30    1.62
  -1  -4   8   24.41    1.48
   0   4  -8    1.54    0.27
   0   4  -8    2.06    0.28
   0  -4   8    1.89    0.33
   0  -4   8    1.16    0.48
   0  -4   8    1.28    0.45
  -1   4  -8    0.58    0.16
  -1   4  -8    0.62    0.15
   1  -4   8    0.34    0.16
  -2   4  -8    1.88    0.27
  -2   4  -8    1.58    0.25
   2  -4   8    1.60    0.24
   2  -4   8    1.43    0.29
  -3   4  -8    0.46    0.14
  -3   4  -8    0.66    0.14
  -3   4  -8    0.75    0.20
   3  -4   8    0.64    0.23
   3  -4   8    0.42    0.53
   3  -4   8    0.73    0.15
   3  -4   8    1.06    0.65
  -4   4  -8    2.62    0.26
   4  -4   8    2.76    0.24
   4  -4   8    2.28    0.74
   4  -4   8    2.82    0.29
  -5   4  -8    5.63    0.41
   5  -4   8    6.38    0.41
   5  -4   8    5.86    0.41
   5   3  -8    0.68    0.19
  -5  -3   8    0.44    0.36
   4   3  -8    9.92    0.72
   4   3  -8   10.42    0.69
  -4  -3   8   10.66    1.07
  -4  -3   8    9.60    1.02
  -3  -3   8    4.60    0.84
  -2  -3   8    2.08    0.45
  -2  -3   8    1.55    0.32
  -2  -3   8    2.27    0.36
   1   3  -8    1.61    0.21
   1   3  -8    0.90    0.20
  -1  -3   8    1.12    0.23
  -1  -3   8    1.37    0.21
  -1  -3   8    1.41    0.43
   0   3  -8    3.44    0.34
   0   3  -8    4.01    0.37
   0   3  -8    2.88    0.42
   0  -3   8    3.58    0.40
   0  -3   8    3.93    0.39
   0  -3   8    2.55    0.63
   0  -3   8    3.77    0.79
  -1   3  -8    9.89    0.61
  -1   3  -8    8.83    0.67
   1  -3   8    8.85    0.66
   1  -3   8    8.95    1.29
  -2   3  -8   18.84    1.13
  -2   3  -8   17.79    1.19
   2  -3   8   19.59    1.17
   2  -3   8   19.03    1.31
  -3   3  -8   49.60    2.92
  -3   3  -8   49.81    2.93
  -3   3  -8   47.45    2.96
   3  -3   8   56.46    3.03
  -4   3  -8   12.16    0.77
  -4   3  -8   12.32    0.74
   4  -3   8   11.17    0.76
  -5   3  -8    1.09    0.23
  -5   3  -8    1.11    0.19
   5  -3   8    1.44    0.19
   5  -3   8    0.83    0.15
   5  -3   8    0.70    0.28
   6  -3   8    0.82    0.16
   6  -3   8    0.77    0.12
   6   2  -8    1.16    0.19
  -6  -2   8    1.77    0.46
  -6  -2   8    1.62    0.38
   5   2  -8    0.99    0.21
   5   2  -8    1.08    0.20
  -5  -2   8    0.43    0.39
   4   2  -8    6.93    0.59
   4   2  -8    6.77    0.66
  -4  -2   8    6.85    1.16
  -3  -2   8    3.70    0.39
  -3  -2   8    2.53    0.50
   2   2  -8    7.25    0.53
   2   2  -8    6.63    0.53
  -2  -2   8    5.51    0.87
  -2  -2   8    7.44    0.55
  -2  -2   8    6.77    0.56
   1   2  -8    6.10    0.47
   1   2  -8    6.39    0.55
   1   2  -8    5.86    0.49
  -1  -2   8    5.04    0.50
  -1  -2   8    6.16    0.51
  -1  -2   8    4.42    0.91
  -1  -2   8    5.60    0.79
   0   2  -8    1.87    0.26
   0   2  -8    1.70    0.32
   0  -2   8    0.97    0.48
   0  -2   8    1.71    0.33
   0  -2   8    1.14    0.22
   0  -2   8    0.68    0.61
  -1   2  -8   13.07    0.82
  -1   2  -8   13.23    0.82
   1  -2   8   11.28    1.50
   1  -2   8   12.90    0.87
   1  -2   8   14.05    1.01
  -2   2  -8    4.30    0.34
  -2   2  -8    3.28    0.42
   2  -2   8    4.32    0.57
   2  -2   8    3.98    0.40
  -3   2  -8    4.86    0.37
  -3   2  -8    4.92    0.49
   3  -2   8    4.33    0.41
   3  -2   8    4.92    0.60
  -4   2  -8    0.90    0.15
  -4   2  -8    0.85    0.17
   4  -2   8    1.03    0.18
  -5   2  -8   13.85    0.86
  -5   2  -8   13.04    0.86
   5  -2   8   11.04    1.27
   5  -2   8   15.12    0.87
   5  -2   8   14.25    0.85
   6  -2   8    7.06    0.47
   6  -2   8    6.85    0.59
   6  -2   8    7.24    0.49
   7  -2   8    1.60    0.23
   6   1  -8    0.84    0.17
  -6  -1   8    1.65    0.37
  -6  -1   8    1.11    0.38
   5   1  -8    0.95    0.22
   5   1  -8    1.48    0.30
   5   1  -8    1.24    0.23
  -5  -1   8    0.47    0.46
  -5  -1   8    1.00    0.38
   4   1  -8   11.28    0.92
   4   1  -8   12.14    1.02
  -4  -1   8   11.60    1.11
   3   1  -8   18.50    1.35
  -3  -1   8   19.38    1.20
  -3  -1   8   19.42    1.42
   2   1  -8   12.26    0.82
   2   1  -8   12.41    0.84
   2   1  -8   13.33    0.85
  -2  -1   8   13.77    0.88
  -2  -1   8   12.78    1.34
  -2  -1   8   12.31    1.47
  -2  -1   8   12.78    1.00
   1   1  -8   17.20    1.11
   1   1  -8   18.32    1.07
  -1  -1   8   18.63    1.15
  -1  -1   8   14.29    1.73
   0   1  -8   22.51    1.28
   0   1  -8   20.76    1.31
   0   1  -8   22.17    1.28
   0  -1   8   19.56    1.52
   0  -1   8   20.99    1.33
   0  -1   8   20.20    1.96
  -1   1  -8    3.24    0.33
  -1   1  -8    3.36    0.32
   1  -1   8    2.57    0.41
   1  -1   8    2.53    0.69
   1  -1   8    3.24    0.61
  -2   1  -8   17.25    0.95
   2  -1   8   15.40    1.19
   2  -1   8   14.57    1.09
   2  -1   8   14.42    1.75
  -3   1  -8   12.39    0.78
   3  -1   8   12.71    0.83
   3  -1   8   11.97    0.96
  -4   1  -8    1.68    0.22
  -4   1  -8    1.22    0.28
   4  -1   8    1.17    0.31
  -5   1  -8    4.27    0.37
   5  -1   8    4.56    0.38
   5  -1   8    5.26    0.39
   6  -1   8    3.61    0.38
   6  -1   8    4.70    0.66
   7  -1   8    2.20    0.26
   6   0  -8    0.35    0.15
   6   0  -8    0.38    0.10
  -6   0   8    0.70    0.35
  -6   0   8    0.46    0.40
   5   0  -8    1.81    0.34
   5   0  -8    2.50    0.37
   5   0  -8    2.96    0.35
  -5   0   8    2.37    0.44
  -5   0   8    2.76    0.68
   4   0  -8    5.23    0.50
   4   0  -8    4.57    0.63
  -4   0   8    3.74    0.72
   3   0  -8   10.30    0.72
  -3   0   8    9.05    0.96
   2   0  -8   31.93    1.88
   2   0  -8   31.22    1.87
   2   0  -8   29.72    1.90
  -2   0   8   32.68    1.95
   1   0  -8   16.51    1.69
   1   0  -8   15.16    1.14
   1   0  -8   17.24    1.03
  -1   0   8   18.39    1.95
   0   0  -8    2.31    0.27
   0   0  -8    2.09    0.38
   0   0  -8    2.14    1.06
   0   0   8    2.59    0.43
   0   0   8    2.74    0.84
   0   0   8    1.20    0.67
  -1   0  -8   12.98    0.87
   1   0   8   14.02    1.06
   1   0   8   14.53    1.64
   2   0   8    3.52    1.39
   2   0   8    2.54    0.54
  -3   0  -8   16.94    1.04
   3   0   8   16.71    1.28
   3   0   8   17.92    1.11
   3   0   8   18.72    2.29
  -4   0  -8    0.95    0.15
   4   0   8    1.54    0.26
   4   0   8    1.01    0.30
   6   0   8    8.10    0.61
   6   0   8    9.03    0.82
   5  -1  -8   12.28    0.82
   5  -1  -8   13.32    0.85
  -5   1   8   12.54    1.07
  -5   1   8   12.74    1.00
   4  -1  -8    8.84    0.64
   4  -1  -8    8.90    0.70
  -4   1   8    8.97    1.42
  -3   1   8    0.57    0.40
   2  -1  -8    4.19    0.41
   2  -1  -8    4.80    0.48
   2  -1  -8    5.02    0.39
   2  -1  -8    4.59    0.43
  -2   1   8    3.48    0.77
  -2   1   8    5.21    0.87
   1  -1  -8    3.35    0.33
   1  -1  -8    2.51    1.11
   1  -1  -8    3.16    0.51
  -1   1   8    2.15    0.38
   0  -1  -8    9.29    1.42
   0  -1  -8    9.83    0.63
   0  -1  -8    9.33    0.68
   0   1   8    8.05    1.23
   0   1   8   11.16    1.51
   0   1   8    9.30    1.09
  -1  -1  -8    8.87    1.63
  -1  -1  -8    8.99    0.56
   1   1   8    6.69    1.41
   1   1   8    7.84    1.42
   1   1   8    7.64    1.34
  -2  -1  -8    1.40    0.20
   2   1   8    1.50    0.68
   2   1   8    1.28    0.35
  -3  -1  -8   51.25    3.08
   3   1   8   50.44    3.61
   3   1   8   58.06    3.26
  -4  -1  -8    6.97    0.48
   4   1   8    6.63    1.02
   4   1   8    7.99    1.55
   4   1   8    8.09    0.71
   6   1   8    5.53    0.46
   7   1   8    2.60    0.40
   7   1   8    3.03    0.47
   5  -2  -8    6.70    0.49
   5  -2  -8    6.18    0.60
  -5   2   8    6.03    0.75
  -5   2   8    4.34    0.85
   4  -2  -8    2.19    0.38
   4  -2  -8    1.94    0.30
   4  -2  -8    1.95    0.29
  -4   2   8    1.75    0.52
  -4   2   8    2.16    0.64
  -4   2   8    2.42    0.44
   3  -2  -8    3.18    0.39
  -3   2   8    2.44    0.42
   2  -2  -8   10.73    0.80
   2  -2  -8   12.53    0.84
   2  -2  -8   11.88    0.79
  -2   2   8   13.24    1.15
  -2   2   8   11.44    0.99
   1  -2  -8    9.90    0.67
   1  -2  -8   10.56    0.73
   1  -2  -8    9.73    0.68
  -1   2   8    8.89    1.12
  -1   2   8    8.92    0.95
   0  -2  -8   11.20    0.71
   0  -2  -8   10.69    1.52
   0  -2  -8   11.60    0.71
   0  -2  -8   10.81    0.85
   0   2   8   11.14    1.51
   0   2   8    8.84    1.34
  -1  -2  -8    6.25    1.33
   1   2   8    6.36    1.09
   1   2   8    5.07    1.10
   2   2   8    6.93    0.69
   2   2   8    4.78    1.34
   2   2   8    5.38    1.14
  -3  -2  -8    9.53    0.63
   3   2   8   10.11    0.84
  -4  -2  -8    3.64    0.31
   4   2   8    4.50    0.83
   4   2   8    3.34    0.54
   6   2   8    5.44    0.69
   4  -3  -8    1.78    0.34
   4  -3  -8    1.96    0.29
  -4   3   8    1.27    0.31
  -4   3   8    1.59    0.47
   3  -3  -8    8.74    0.95
  -3   3   8    8.23    0.99
  -3   3   8    7.74    0.94
   2  -3  -8   31.26    1.82
  -2   3   8   26.97    1.93
   1  -3  -8    7.86    0.59
   1  -3  -8    8.86    0.62
   1  -3  -8    8.47    0.68
   1  -3  -8    8.80    0.67
  -1   3   8    9.64    1.11
  -1   3   8    9.90    1.02
  -1   3   8    6.92    0.83
   0  -3  -8    4.89    0.40
   0  -3  -8    4.42    0.44
   0  -3  -8    5.51    0.39
   0   3   8    3.59    0.88
   0   3   8    4.37    0.89
   0   3   8    5.07    0.70
  -1  -3  -8    2.81    0.29
  -1  -3  -8    2.35    0.85
   1   3   8    1.80    0.88
   1   3   8    1.29    0.86
   1   3   8    1.83    0.61
  -2  -3  -8    1.50    0.24
  -2  -3  -8    1.11    0.74
   2   3   8    1.05    0.93
   2   3   8    0.97    0.50
   2   3   8    0.82    0.95
   3   3   8   37.37    2.54
   3   3   8   45.05    3.04
  -4  -3  -8    3.05    0.29
   4   3   8    3.47    0.53
   5   3   8    6.63    0.69
   6   3   8   23.32    1.61
   6   3   8   17.28    1.57
   7   3   8    7.81    0.71
   7   3   8    6.97    0.75
   7   3   8    6.16    0.62
   4  -4  -8    1.25    0.30
   3  -4  -8    2.04    0.36
   3  -4  -8    1.75    0.29
   3  -4  -8    1.67    0.39
  -3   4   8    1.28    0.37
  -3   4   8    1.17    0.46
  -2   4   8    1.72    0.53
  -2   4   8    2.28    0.35
   1  -4  -8    3.79    0.37
   1  -4  -8    3.83    0.37
   1  -4  -8    4.48    0.48
  -1   4   8    3.26    0.59
   0  -4  -8   14.50    0.97
   0  -4  -8   15.61    0.95
   0  -4  -8   15.45    0.98
   0   4   8   14.38    1.32
   0   4   8   15.70    1.11
   0   4   8   15.46    1.45
  -1  -4  -8    3.98    0.35
  -1  -4  -8    3.84    0.33
   1   4   8    3.11    0.81
   1   4   8    4.14    0.82
  -2  -4  -8    3.43    0.37
   2   4   8    2.40    0.71
  -3  -4  -8    6.93    0.45
   3   4   8    5.00    0.84
   3   4   8    6.27    0.62
  -4  -4  -8    5.53    0.42
   4   4   8    6.17    0.62
  -5  -4  -8    3.50    0.33
   6   4   8    6.41    0.69
   7   4   8    9.82    0.96
   7   4   8   13.92    0.93
   8   4   8   21.31    1.36
   3  -5  -8    4.20    0.61
   3  -5  -8    4.56    0.41
  -3   5   8    5.58    0.49
   2  -5  -8    9.19    0.65
   2  -5  -8    9.60    0.70
  -2   5   8    9.70    0.77
   1  -5  -8    0.91    0.20
   1  -5  -8    1.29    0.28
  -1   5   8    1.37    0.52
   0  -5  -8    1.03    0.21
   0  -5  -8    1.45    0.29
  -1  -5  -8    8.80    0.61
  -1  -5  -8    8.15    0.59
  -2  -5  -8    6.60    0.54
  -2  -5  -8    6.88    0.49
   2   5   8    6.42    0.90
  -3  -5  -8   11.12    0.76
  -3  -5  -8   12.05    0.74
   3   5   8   10.86    0.88
   3   5   8   11.98    1.17
  -4  -5  -8    8.12    0.56
  -4  -5  -8    7.61    0.59
   4   5   8    9.86    0.98
   4   5   8    7.69    0.73
  -5  -5  -8    9.61    0.66
   6   5   8   13.77    1.03
   6   5   8   13.97    1.23
   6   5   8   13.34    1.00
   7   5   8    2.05    0.43
   7   5   8    1.49    0.37
   7   5   8    2.14    0.36
   2  -6  -8    8.22    0.66
  -2   6   8    9.19    0.65
   1  -6  -8    8.87    0.63
  -1   6   8    9.41    0.69
   0  -6  -8    3.00    0.45
   0  -6  -8    3.42    0.40
   0  -6  -8    3.30    0.35
   0   6   8    2.89    0.45
  -1  -6  -8    0.75    0.18
  -1  -6  -8    0.70    0.26
   1   6   8    0.63    0.29
   1   6   8    0.44    0.27
   1   6   8    0.54    0.40
  -2  -6  -8    6.15    0.48
  -3  -6  -8   15.86    1.08
  -3  -6  -8   17.56    1.01
  -3  -6  -8   14.38    1.13
  -4  -6  -8   21.26    1.31
  -4  -6  -8   20.92    1.30
   4   6   8   23.24    1.68
  -5  -6  -8    7.98    0.55
  -5  -6  -8    6.96    0.56
   5   6   8    8.42    0.89
   5   6   8    8.36    0.73
   6   6   8    6.47    0.60
   6   6   8    8.10    0.78
   7   6   8    0.13    0.23
   0  -7  -8    7.46    0.53
  -1  -7  -8    4.25    0.40
  -2  -7  -8    0.73    0.18
  -2  -7  -8    0.52    0.19
   2   7   8    0.07    0.22
   2   7   8    0.41    0.36
  -3  -7  -8    0.82    0.22
  -3  -7  -8    0.95    0.18
   3   7   8    1.08    0.35
   3   7   8    0.63    0.24
  -4  -7  -8   11.98    0.76
  -4  -7  -8   10.98    0.84
   4   7   8   12.43    0.84
  -5  -7  -8    1.70    0.28
   5   7   8    2.22    0.34
   6   7   8    1.59    0.35
  -2  -8  -8    6.95    0.47
   2   8   8    5.36    0.46
  -3  -8  -8    3.41    0.34
  -3  -8  -8    4.12    0.39
   3   8   8    3.64    0.32
  -4  -8  -8    0.53    0.28
  -4  -8  -8    0.45    0.17
   4   8   8    0.64    0.23
   4   8   8    0.04    0.42
   5   8   8    1.68    0.35
   2   5  -9    3.50    0.30
  -2  -5   9    2.60    0.57
   1   5  -9    5.20    0.40
  -1  -5   9    6.70    0.91
  -1  -5   9    5.15    0.77
   0   5  -9    9.81    0.68
   0   5  -9    9.63    0.63
   0  -5   9   10.41    0.72
   0  -5   9    9.75    0.64
   0  -5   9   10.15    1.00
  -1   5  -9    5.28    0.41
   1  -5   9    5.43    0.39
   1  -5   9    6.43    0.83
   1  -5   9    5.25    0.45
  -2   5  -9    1.36    0.20
  -2   5  -9    1.11    0.22
   2  -5   9    1.39    0.20
   2  -5   9    2.05    0.82
   2  -5   9    1.23    0.24
  -4  -4   9    1.01    0.29
   3   4  -9    5.58    0.40
  -3  -4   9    4.87    0.59
   2   4  -9   14.99    0.92
  -2  -4   9   13.65    1.06
  -2  -4   9   15.91    1.42
   1   4  -9   10.80    0.77
   1   4  -9   10.13    0.77
  -1  -4   9   13.03    1.22
  -1  -4   9    9.74    0.87
  -1  -4   9   10.70    0.72
   0   4  -9    9.07    0.62
   0   4  -9    9.13    0.61
   0  -4   9   10.36    0.73
   0  -4   9    9.14    0.64
   0  -4   9    8.11    1.03
  -1   4  -9    1.10    0.23
  -1   4  -9    1.51    0.27
  -1   4  -9    1.84    0.33
   1  -4   9    1.19    0.26
   1  -4   9    0.79    0.17
   1  -4   9    1.52    0.49
  -2   4  -9    1.44    0.27
  -2   4  -9    1.32    0.28
  -2   4  -9    0.91    0.16
   2  -4   9    1.76    0.53
   2  -4   9    1.18    0.18
   2  -4   9    1.81    0.35
  -3   4  -9    6.62    0.48
   3  -4   9    7.40    0.55
   3  -4   9    6.42    1.10
   3  -4   9    7.33    0.59
   3  -4   9    7.95    0.50
  -4   4  -9    0.78    0.17
   4  -4   9    0.45    0.19
   4   3  -9    1.19    0.20
   4   3  -9    1.50    0.26
  -4  -3   9    1.17    0.33
  -4  -3   9    1.80    0.50
   3   3  -9    2.81    0.35
   3   3  -9    3.37    0.33
  -3  -3   9    2.78    0.58
  -3  -3   9    3.95    0.75
   2   3  -9   16.78    1.02
  -2  -3   9   15.05    1.22
  -2  -3   9   18.03    1.50
  -2  -3   9   14.83    1.55
   1   3  -9   16.53    1.03
   1   3  -9   15.00    0.94
  -1  -3   9   13.89    0.99
   0   3  -9    7.37    0.55
   0   3  -9    8.23    0.56
   0  -3   9    8.49    0.77
   0  -3   9    7.93    0.57
   0  -3   9    7.68    1.06
  -1   3  -9    6.42    0.48
  -1   3  -9    6.67    0.55
   1  -3   9    5.76    0.49
   1  -3   9    6.78    0.78
  -2   3  -9    2.86    0.30
  -2   3  -9    2.64    0.29
  -2   3  -9    2.54    0.34
   2  -3   9    3.31    0.38
  -3   3  -9   21.43    1.24
  -3   3  -9   20.47    1.23
   3  -3   9   17.93    1.80
   3  -3   9   21.37    1.39
   3  -3   9   22.36    1.28
  -4   3  -9    9.02    0.63
  -4   3  -9    8.56    0.55
   4  -3   9    8.46    0.57
   4  -3   9    7.76    0.69
   5  -3   9    6.88    0.47
   4   2  -9   12.09    0.76
   4   2  -9   11.13    0.81
  -4  -2   9   13.00    1.04
  -4  -2   9   12.96    0.94
   3   2  -9   14.91    0.92
   3   2  -9   14.95    0.90
  -3  -2   9   11.38    1.06
  -3  -2   9   14.39    1.20
   2   2  -9    7.01    0.52
  -2  -2   9    8.14    1.47
  -2  -2   9    6.60    0.77
  -2  -2   9    8.89    1.34
   1   2  -9    1.36    0.27
   1   2  -9    0.71    0.21
  -1  -2   9    0.34    0.15
  -1  -2   9    0.89    0.79
   0   2  -9    0.47    0.17
   0   2  -9    0.55    0.18
   0  -2   9    0.86    0.58
   0  -2   9    0.49    0.52
  -1   2  -9    7.46    0.60
  -1   2  -9    8.05    0.56
  -1   2  -9    7.84    0.54
   1  -2   9    6.87    1.43
   1  -2   9    7.58    0.57
  -2   2  -9    5.15    0.40
  -2   2  -9    3.55    0.46
  -2   2  -9    4.71    0.37
   2  -2   9    4.20    0.40
  -3   2  -9   11.28    0.69
   3  -2   9    9.61    1.34
   3  -2   9   10.46    0.71
  -4   2  -9   24.14    1.47
  -4   2  -9   24.48    1.48
   4  -2   9   26.82    1.52
   4  -2   9   25.49    1.66
  -5   2  -9   33.29    2.05
   5  -2   9   35.95    2.07
   6  -2   9    1.80    0.24
   5   1  -9    0.94    0.21
  -5  -1   9    1.20    0.31
   4   1  -9    3.49    0.31
   4   1  -9    2.75    0.34
  -4  -1   9    2.74    0.53
  -4  -1   9    2.83    0.65
   3   1  -9    9.42    0.66
   3   1  -9    9.11    0.67
  -3  -1   9    9.75    1.03
  -3  -1   9    8.04    0.93
   2   1  -9    9.89    0.67
  -2  -1   9   10.72    0.92
   1   1  -9    0.96    0.19
   1   1  -9    1.63    0.31
  -1  -1   9    1.02    0.44
  -1  -1   9    0.84    0.18
   0   1  -9    7.59    0.54
   0   1  -9    7.92    0.68
   0  -1   9    8.38    1.23
   0  -1   9    6.61    0.57
  -1   1  -9    4.50    0.37
   1  -1   9    3.94    0.42
   1  -1   9    3.55    0.97
   1  -1   9    5.11    1.07
  -2   1  -9    7.25    0.58
  -2   1  -9    7.70    0.54
   2  -1   9    8.00    0.71
   2  -1   9    8.95    0.70
   2  -1   9    8.27    1.18
  -3   1  -9    5.87    0.44
  -3   1  -9    6.08    0.41
  -3   1  -9    4.66    0.52
  -4   1  -9    2.51    0.29
  -4   1  -9    1.91    0.28
   4  -1   9    1.29    0.75
   4  -1   9    2.07    0.29
  -5   1  -9    3.48    0.34
   5  -1   9    3.36    0.55
   6  -1   9    2.11    0.25
   4   0  -9    4.82    0.37
   4   0  -9    4.46    0.43
  -4   0   9    3.63    0.66
  -4   0   9    3.91    0.56
   3   0  -9    7.15    0.52
   3   0  -9    6.52    0.57
  -3   0   9    5.38    0.92
  -3   0   9    5.74    0.79
   2   0  -9   26.83    1.64
   2   0  -9   29.41    1.70
  -2   0   9   26.71    1.80
   1   0  -9   23.34    1.38
   1   0  -9   22.86    1.40
   0   0  -9    8.50    0.57
   0   0  -9    7.35    0.62
   0   0   9    9.06    1.87
  -1   0  -9   13.84    0.86
  -1   0  -9   14.09    0.85
   1   0   9   11.83    1.91
   1   0   9   13.23    1.45
  -2   0  -9   15.64    0.95
   2   0   9   15.22    1.56
  -3   0  -9   18.53    1.12
  -3   0  -9   18.88    1.16
   3   0   9   18.63    1.27
  -4   0  -9    5.93    0.42
  -4   0  -9    5.41    0.45
   5   0   9    4.67    0.40
   5   0   9    4.07    0.70
   6   0   9    0.64    0.25
   4  -1  -9   11.07    0.71
   4  -1  -9   10.23    0.67
  -4   1   9   10.29    0.82
  -4   1   9    8.95    0.94
  -4   1   9   11.31    0.95
   3  -1  -9   21.07    1.30
   3  -1  -9   20.25    1.26
  -3   1   9   20.40    1.53
  -3   1   9   20.10    1.43
   2  -1  -9    0.42    0.16
  -2   1   9   -0.21    0.33
   1  -1  -9   16.12    1.13
   1  -1  -9   17.09    1.01
   1  -1  -9   15.72    0.98
  -1   1   9   14.50    1.39
   0  -1  -9    2.03    0.29
   0  -1  -9    1.95    0.30
   0   1   9    1.42    0.54
  -1  -1  -9    0.60    0.16
  -1  -1  -9    0.53    0.15
   1   1   9    1.35    0.58
   1   1   9    0.83    0.73
  -2  -1  -9   27.28    1.62
   2   1   9   27.72    2.18
   2   1   9   27.99    1.83
  -3  -1  -9   30.90    1.96
  -3  -1  -9   33.27    1.92
   3   1   9   35.39    2.10
  -4  -1  -9   27.22    1.58
   4   1   9   27.31    1.68
   4   1   9   26.52    2.01
   6   1   9    0.80    0.28
   4  -2  -9   18.40    1.06
   4  -2  -9   15.39    1.05
  -4   2   9   18.65    1.13
  -4   2   9   16.35    1.27
  -4   2   9   15.80    1.22
   3  -2  -9    8.14    0.62
   3  -2  -9    8.35    0.57
  -3   2   9    7.67    0.88
  -3   2   9    8.36    0.87
  -3   2   9    7.96    0.74
   2  -2  -9    2.22    0.37
  -2   2   9    2.78    0.54
  -2   2   9    2.16    0.68
   1  -2  -9    1.83    0.30
   1  -2  -9    1.49    0.27
   1  -2  -9    1.88    0.34
  -1   2   9    1.05    0.43
   0  -2  -9    1.73    0.27
   0  -2  -9    2.07    0.33
   0  -2  -9    1.75    0.34
   0   2   9    1.15    0.48
  -1  -2  -9    2.18    0.30
  -1  -2  -9    2.00    0.27
   1   2   9    2.01    0.59
  -2  -2  -9   47.31    2.79
   2   2   9   49.83    3.35
  -3  -2  -9   20.64    1.22
  -3  -2  -9   20.58    1.25
   3   2   9   20.22    1.37
  -4  -2  -9    0.80    0.16
   4   2   9    0.88    0.26
   5   2   9    4.14    1.00
   6   2   9    5.87    0.56
   7   2   9    1.96    0.43
   3  -3  -9    3.06    0.31
   3  -3  -9    2.80    0.36
  -3   3   9    2.65    0.47
  -3   3   9    2.42    0.72
  -3   3   9    3.43    0.56
   2  -3  -9    0.64    0.21
  -2   3   9    0.58    0.33
  -2   3   9    0.23    0.41
   1  -3  -9    2.45    0.29
   1  -3  -9    2.31    0.28
   1  -3  -9    1.87    0.33
  -1   3   9    1.68    0.53
  -1   3   9    1.81    0.36
   0  -3  -9   31.77    1.82
   0  -3  -9   29.86    1.81
  -1  -3  -9   12.21    0.76
  -1  -3  -9   12.87    0.79
   1   3   9   10.67    1.22
  -2  -3  -9   12.93    0.84
  -2  -3  -9   13.40    0.81
   2   3   9   12.71    1.31
  -3  -3  -9   14.18    0.87
  -3  -3  -9   13.67    0.89
   3   3   9   15.09    1.01
  -4  -3  -9    4.64    0.42
  -4  -3  -9    5.13    0.38
   4   3   9    4.96    0.56
   5   3   9    0.46    0.37
   6   3   9    0.65    0.24
   7   3   9    2.11    0.40
   3  -4  -9    3.14    0.33
  -3   4   9    2.88    0.41
   2  -4  -9    0.67    0.16
   2  -4  -9    0.95    0.21
  -2   4   9    1.28    0.26
  -2   4   9    0.79    0.43
   1  -4  -9    2.79    0.33
   1  -4  -9    3.90    0.37
   1  -4  -9    3.35    0.52
  -1   4   9    3.54    0.68
  -1   4   9    2.66    0.52
  -1   4   9    2.63    0.68
   0  -4  -9   10.47    0.68
   0  -4  -9   10.18    0.78
   0  -4  -9   10.36    0.68
   0  -4  -9   10.68    0.73
   0   4   9    8.87    1.24
  -1  -4  -9   11.83    0.73
  -1  -4  -9   11.61    0.73
   1   4   9   10.03    1.10
  -2  -4  -9   10.19    0.64
  -2  -4  -9    9.57    0.70
  -3  -4  -9    1.45    0.25
  -3  -4  -9    2.02    0.28
  -4  -4  -9    0.62    0.23
  -4  -4  -9    0.50    0.21
  -5  -4  -9    3.68    0.36
   5   4   9    4.76    0.87
   6   4   9    0.80    0.31
   6   4   9    1.04    0.24
   7   4   9    4.15    0.49
   2  -5  -9    1.71    0.30
   2  -5  -9    1.30    0.24
  -2   5   9    1.20    0.23
   1  -5  -9    1.23    0.24
   1  -5  -9    0.62    0.33
  -1   5   9    0.94    0.24
   0  -5  -9    2.65    0.32
   0  -5  -9    2.23    0.29
   0  -5  -9    2.94    0.46
   0   5   9    2.34    0.59
  -1  -5  -9    9.41    0.61
  -1  -5  -9    9.33    0.65
  -1  -5  -9    8.85    0.61
   1   5   9    7.84    0.74
   1   5   9   10.08    1.01
  -2  -5  -9    5.63    0.51
  -2  -5  -9    6.15    0.44
  -2  -5  -9    5.90    0.43
   2   5   9    4.99    0.59
   2   5   9    5.15    0.94
  -3  -5  -9    8.24    0.58
  -3  -5  -9    8.46    0.57
   3   5   9    9.43    1.35
   3   5   9    8.35    0.91
  -4  -5  -9    1.05    0.17
  -4  -5  -9    0.89    0.16
   4   5   9    0.49    0.37
   4   5   9    0.61    0.27
  -5  -5  -9    0.48    0.19
  -5  -5  -9    0.53    0.18
   5   5   9    0.95    0.36
   5   5   9    0.46    0.23
   6   5   9    1.59    0.33
   6   5   9    1.54    0.43
   7   5   9    6.22    0.57
   0  -6  -9    8.01    0.55
  -1  -6  -9    4.16    0.35
  -1  -6  -9    5.03    0.39
   1   6   9    3.48    0.55
  -2  -6  -9    1.87    0.28
  -2  -6  -9    1.85    0.34
  -2  -6  -9    1.20    0.20
   2   6   9    1.41    0.38
   2   6   9    1.89    0.37
  -3  -6  -9    2.36    0.28
  -3  -6  -9    1.67    0.28
  -3  -6  -9    1.67    0.29
   3   6   9    1.96    0.37
  -4  -6  -9   10.46    0.70
   4   6   9   12.49    0.81
   4   6   9   10.41    0.93
  -5  -6  -9   16.07    0.96
   5   6   9   15.58    1.03
   5   6   9   15.61    1.19
   6   6   9    0.97    0.25
   6   6   9    0.47    0.23
  -2  -7  -9    0.57    0.17
   2   7   9    0.44    0.21
  -3  -7  -9    4.21    0.34
   3   7   9    3.47    0.50
   3   7   9    4.37    0.36
  -4  -7  -9    4.72    0.35
   4   7   9    3.65    0.43
   5   7   9    2.58    0.27
   5   7   9    2.89    0.37
   1   4 -10    3.39    0.28
  -1  -4  10    3.37    0.78
   0   4 -10    0.80    0.16
   0  -4  10    0.93    0.45
  -1   4 -10    0.49    0.13
   1  -4  10    0.28    0.15
   1  -4  10   -0.13    0.66
   2  -4  10   10.03    0.99
   2   3 -10    1.35    0.22
   1   3 -10   13.67    0.87
  -1  -3  10   14.81    1.29
   0   3 -10    4.43    0.36
   0   3 -10    3.78    0.46
   0  -3  10    4.38    0.37
   0  -3  10    5.92    0.88
  -1   3 -10    1.31    0.22
  -1   3 -10    1.42    0.26
   1  -3  10    1.58    0.24
   1  -3  10    0.99    0.43
   1  -3  10    1.82    0.35
  -2   3 -10    7.49    0.50
   2  -3  10    7.62    0.58
   2  -3  10    7.61    0.98
   2  -3  10    7.47    0.51
  -3   3 -10    0.95    0.19
   3  -3  10    1.13    0.20
   3  -3  10    0.80    0.20
   3   2 -10   13.30    0.80
  -3  -2  10   11.73    1.12
   2   2 -10    2.24    0.31
   2   2 -10    2.19    0.27
  -2  -2  10    2.38    0.97
  -2  -2  10    2.33    0.55
  -2  -2  10    1.68    0.34
  -1  -2  10    1.73    0.49
  -1  -2  10    1.83    0.34
  -1  -2  10    1.89    0.50
   0   2 -10    5.19    0.41
   0  -2  10    4.61    0.94
   0  -2  10    5.14    0.43
  -1   2 -10    0.88    0.17
  -1   2 -10    0.78    0.16
  -1   2 -10    0.50    0.15
   1  -2  10    0.47    0.15
   1  -2  10    0.29    0.46
   1  -2  10    0.71    0.24
  -2   2 -10   15.01    0.93
  -2   2 -10   14.61    0.91
  -2   2 -10   14.82    0.94
   2  -2  10   14.71    0.95
   2  -2  10   16.36    1.41
   2  -2  10   15.48    1.03
  -3   2 -10    3.40    0.28
  -3   2 -10    2.47    0.32
   3  -2  10    2.01    0.73
   3  -2  10    2.62    0.30
   3  -2  10    3.05    0.39
  -4   2 -10   25.68    1.52
   4  -2  10   27.17    1.54
   4  -2  10   25.38    1.61
   3   1 -10    6.46    0.47
   3   1 -10    6.65    0.63
  -3  -1  10    7.56    0.86
  -3  -1  10    6.26    0.61
   2   1 -10    1.35    0.26
  -2  -1  10    0.71    0.32
  -2  -1  10    1.24    0.49
  -2  -1  10    0.76    0.39
   1   1 -10    3.06    0.31
   1   1 -10    3.33    0.34
  -1  -1  10    3.32    0.71
   0   1 -10    2.00    0.29
   0   1 -10    2.29    0.29
   0   1 -10    2.56    0.33
   0  -1  10    2.08    0.63
   0  -1  10    2.05    0.33
  -1   1 -10    1.16    0.20
  -1   1 -10    1.27    0.25
  -1   1 -10    1.81    0.30
   1  -1  10    1.23    0.30
   1  -1  10    2.40    0.82
   1  -1  10    1.07    0.53
   1  -1  10    1.61    0.31
  -2   1 -10   16.30    1.01
  -2   1 -10   16.71    1.03
  -2   1 -10   16.31    1.05
   2  -1  10   17.39    1.16
   2  -1  10   17.34    1.06
   2  -1  10   16.92    1.63
  -3   1 -10    6.09    0.45
  -3   1 -10    5.91    0.43
   3  -1  10    5.77    0.58
   3  -1  10    6.47    0.49
  -4   1 -10    5.92    0.45
   4  -1  10    6.02    0.56
   4  -1  10    6.67    0.46
   5  -1  10    0.47    0.17
   5  -1  10    0.52    0.21
   3   0 -10    3.47    0.32
   3   0 -10    2.74    0.29
  -3   0  10    4.03    0.60
  -3   0  10    2.50    0.52
  -3   0  10    2.87    0.53
   2   0 -10    0.75    0.18
   2   0 -10    0.58    0.16
  -2   0  10    0.21    0.30
  -2   0  10    0.60    0.44
  -2   0  10    0.18    0.34
   1   0 -10   15.18    1.00
   1   0 -10   17.17    1.07
   1   0 -10   17.45    1.04
  -1   0  10   16.77    1.53
  -1   0  10   16.61    1.40
  -1   0  10   16.47    1.17
   0   0 -10    4.43    0.37
   0   0 -10    4.41    0.44
   0   0 -10    4.63    0.37
   0   0  10    3.26    0.92
   0   0  10    4.30    0.82
  -1   0 -10    9.80    0.76
  -1   0 -10   11.03    0.71
  -1   0 -10   11.05    0.70
   1   0  10   10.93    0.75
   1   0  10   11.81    0.86
   1   0  10   11.18    1.14
   1   0  10    8.47    1.76
  -2   0 -10   22.84    1.34
  -2   0 -10   23.30    1.36
   2   0  10   23.39    1.39
   2   0  10   20.94    1.85
  -3   0 -10    1.90    0.28
   3   0  10    1.48    0.34
   3   0  10    1.97    0.66
  -4   0 -10    1.09    0.19
   4   0  10    0.92    0.27
   5   0  10    0.91    0.23
   6   0  10    0.27    0.18
   3  -1 -10    6.30    0.52
  -3   1  10    7.74    0.76
   2  -1 -10    1.30    0.26
   2  -1 -10    0.76    0.19
  -2   1  10    0.52    0.33
  -2   1  10    0.71    0.42
  -2   1  10    0.21    0.23
   1  -1 -10    4.37    0.38
   1  -1 -10    3.72    0.39
   1  -1 -10    4.77    0.44
   1  -1 -10    3.59    0.34
  -1   1  10    4.77    0.84
  -1   1  10    3.18    0.67
  -1   1  10    3.24    0.74
   0  -1 -10    6.69    0.52
   0  -1 -10    5.96    0.45
   0  -1 -10    5.45    0.43
   0   1  10    4.66    1.55
   0   1  10    6.19    1.01
  -1  -1 -10   15.35    0.90
  -1  -1 -10   14.07    0.97
  -1  -1 -10   14.63    0.90
   1   1  10   13.08    1.47
   1   1  10   14.64    1.03
   1   1  10   13.33    1.48
  -2  -1 -10   10.22    0.68
  -2  -1 -10   10.30    0.67
  -3  -1 -10    5.32    0.38
  -3  -1 -10    5.18    0.45
   3   1  10    3.89    0.87
  -4  -1 -10    8.95    0.60
   4   1  10    9.68    0.75
   5   1  10    4.07    0.46
   6   1  10    0.02    0.23
   3  -2 -10    7.65    0.51
  -3   2  10    6.31    0.67
  -3   2  10    7.57    0.56
   2  -2 -10    2.96    0.29
   2  -2 -10    3.12    0.34
  -2   2  10    2.64    0.45
  -2   2  10    2.56    0.54
  -2   2  10    2.93    0.59
   1  -2 -10    3.95    0.44
   1  -2 -10    3.67    0.38
  -1   2  10    4.30    0.68
  -1   2  10    3.11    0.66
  -1   2  10    2.85    0.48
   0  -2 -10    6.09    0.51
   0  -2 -10    6.20    0.45
   0  -2 -10    5.30    0.44
   0  -2 -10    6.32    0.56
   0   2  10    6.93    0.92
   0   2  10    6.07    0.97
  -1  -2 -10    3.53    0.34
  -1  -2 -10    3.30    0.41
  -1  -2 -10    3.34    0.32
  -1  -2 -10    3.27    0.51
   1   2  10    3.25    0.51
   1   2  10    2.90    0.73
  -2  -2 -10    8.07    0.51
  -2  -2 -10    6.63    0.58
  -2  -2 -10    7.30    0.52
   2   2  10    6.96    1.15
   2   2  10    8.98    0.95
  -3  -2 -10   13.64    0.90
  -3  -2 -10   13.47    0.99
   3   2  10   15.10    1.23
  -4  -2 -10    3.88    0.47
  -4  -2 -10    4.77    0.36
   4   2  10    5.30    0.53
   5   2  10    4.98    0.48
   5   2  10    4.09    0.73
   6   2  10    1.10    0.23
  -2   3  10    1.29    0.42
  -2   3  10    0.69    0.27
   1  -3 -10    1.87    0.32
   1  -3 -10    1.37    0.25
  -1   3  10    2.00    0.44
  -1   3  10    1.20    0.38
  -1   3  10    1.03    0.26
   0  -3 -10   10.31    0.71
   0  -3 -10   10.42    0.69
   0  -3 -10    9.51    0.65
   0   3  10   11.08    1.01
   0   3  10    8.99    1.00
  -1  -3 -10   11.04    0.76
  -1  -3 -10   11.40    0.73
  -1  -3 -10   11.73    0.73
   1   3  10   11.13    0.89
   1   3  10   13.13    1.26
  -2  -3 -10    3.81    0.33
  -2  -3 -10    4.23    0.34
  -2  -3 -10    3.97    0.44
  -2  -3 -10    3.35    0.77
   2   3  10    4.39    0.49
   2   3  10    3.21    0.84
  -3  -3 -10    4.06    0.33
  -3  -3 -10    4.35    0.35
   3   3  10    4.21    0.50
  -4  -3 -10    2.48    0.38
  -4  -3 -10    1.89    0.25
   4   3  10    2.64    0.41
   5   3  10    0.41    0.23
   5   3  10    0.28    0.31
   6   3  10    0.61    0.20
   6   3  10    0.83    0.51
   1  -4 -10    4.44    0.42
   1  -4 -10    3.80    0.33
   0  -4 -10    8.77    0.80
   0  -4 -10    9.84    0.63
  -1  -4 -10    3.46    0.31
  -1  -4 -10    4.18    0.39
   1   4  10    3.01    0.60
  -2  -4 -10    5.66    0.43
  -2  -4 -10    5.98    0.42
  -2  -4 -10    5.57    0.48
   2   4  10    6.79    0.56
   2   4  10    5.11    0.74
  -3  -4 -10    8.11    0.56
  -3  -4 -10    9.76    0.68
   3   4  10    8.33    0.91
   3   4  10    8.61    0.67
  -4  -4 -10    1.39    0.26
  -4  -4 -10    1.43    0.21
   4   4  10    1.59    0.34
   5   4  10    0.31    0.30
   5   4  10    0.65    0.20
   6   4  10    0.28    0.19
   0  -5 -10    1.25    0.24
   0   5  10    1.17    0.30
  -1  -5 -10    1.51    0.29
  -1  -5 -10    1.20    0.21
   1   5  10    1.37    0.41
  -2  -5 -10    4.08    0.31
   2   5  10    3.11    0.50
   2   5  10    4.11    0.55
  -3  -5 -10    7.06    0.48
   3   5  10    7.74    0.57
   3   5  10    6.58    0.72
  -4  -5 -10    0.46    0.14
   4   5  10    0.50    0.28
   4   5  10    0.13    0.19
   5   5  10    3.00    0.32
   5   5  10    2.13    0.42
   2   6  10    0.59    0.20
  -3  -6 -10    6.20    0.49
   3   6  10    6.38    0.46
   3   6  10    5.77    0.56
   4   6  10    2.11    0.35
   4   6  10    2.47    0.25
   0   2 -11    1.97    0.30
   0   2 -11    1.64    0.22
  -1   2 -11   21.85    1.32
   2  -2  11    2.98    0.31
   2  -2  11    3.52    0.27
   1   1 -11   12.35    0.76
   1   1 -11   12.75    0.80
   0   1 -11    3.80    0.35
  -1   1 -11    2.00    0.25
  -1   1 -11    1.77    0.26
  -2   1 -11    1.58    0.21
   2  -1  11    1.27    0.28
  -3   1 -11    0.47    0.18
   3  -1  11    0.70    0.17
   1   0 -11    3.40    0.32
  -1   0  11    3.56    0.52
   0   0 -11    3.60    0.32
   0   0 -11    3.76    0.34
   0   0 -11    2.88    0.28
   0   0  11    4.17    0.71
  -1   0 -11    6.60    0.43
   1   0  11    5.65    0.99
  -2   0 -11    5.43    0.39
   2   0  11    6.13    0.48
  -3   0 -11    0.86    0.15
   3   0  11    1.34    0.26
   4   0  11    1.06    0.20
   1  -1 -11    7.09    0.47
   1  -1 -11    5.98    0.43
  -1   1  11    5.42    0.65
   0  -1 -11    8.98    0.62
   0  -1 -11   10.54    0.66
   0  -1 -11   10.91    0.64
   0   1  11    8.89    0.90
  -1  -1 -11    8.85    0.59
  -1  -1 -11    9.51    0.63
  -2  -1 -11    6.05    0.41
  -2  -1 -11    6.26    0.48
   2   1  11    5.22    0.77
   2   1  11    6.22    0.50
  -3  -1 -11    1.12    0.21
  -3  -1 -11    0.84    0.21
   3   1  11    0.85    0.45
   3   1  11    0.81    0.20
   4   1  11    3.36    0.36
   0  -2 -11    0.32    0.18
   0  -2 -11    0.48    0.19
   0   2  11    0.46    0.27
  -1  -2 -11    8.05    0.65
  -1  -2 -11    7.43    0.47
  -1  -2 -11    7.18    0.60
   1   2  11    6.32    0.76
  -2  -2 -11    1.65    0.25
  -2  -2 -11    2.16    0.21
   2   2  11    2.38    0.42
   2   2  11    1.38    0.41
  -3  -2 -11    3.60    0.30
   3   2  11    2.81    0.61
   3   2  11    4.00    0.38
   4   2  11    3.33    0.35
   0  -3 -11    0.56    0.19
   0  -3 -11    0.31    0.12
   0   3  11    0.40    0.21
  -1  -3 -11    0.85    0.18
  -1  -3 -11    1.08    0.23
   1   3  11    0.86    0.32
  -2  -3 -11    1.81    0.21
   2   3  11    1.72    0.47
   2   3  11    2.14    0.34
  -3  -3 -11    0.98    0.19
   3   3  11    0.61    0.34
   4   3  11    1.77    0.45
   4   3  11    2.28    0.36
   2   4  11   23.11    1.55
   3   4  11    8.89    0.76
   3   4  11    8.04    0.58
   0   0   0    0.00    0.00
;
_shelx_hkl_checksum              51286
loop_
_space_group_symop_operation_xyz
'x, y, z'
'-x, -y, -z'
loop_
_atom_site_label
_atom_site_type_symbol
_atom_site_fract_x
_atom_site_fract_y
_atom_site_fract_z
_atom_site_U_iso_or_equiv
_atom_site_adp_type
_atom_site_occupancy
_atom_site_site_symmetry_order
_atom_site_calc_flag
_atom_site_refinement_flags_posn
_atom_site_refinement_flags_adp
_atom_site_refinement_flags_occupancy
_atom_site_disorder_assembly
_atom_site_disorder_group
Co1 Co 0.5000 0.0000 0.0000 0.01182(14) Uani 1 2 d S . P . .
O1 O 0.65447(17) 0.08351(17) -0.16452(15) 0.0165(3) Uani 1 1 d . . . . .
O2 O 0.6740(2) 0.3044(2) -0.31130(17) 0.0274(4) Uani 1 1 d . . . . .
N1 N 0.3835(2) 0.2577(2) 0.00187(18) 0.0142(3) Uani 1 1 d . . . . .
N2 N 0.6583(2) 0.0101(2) 0.15824(18) 0.0143(3) Uani 1 1 d . . . . .
C1 C 0.2503(3) 0.3422(3) 0.0904(2) 0.0183(4) Uani 1 1 d . . . . .
H1 H 0.2031 0.2850 0.1720 0.022 Uiso 1 1 calc R U . . .
C2 C 0.1789(3) 0.5109(3) 0.0667(3) 0.0238(5) Uani 1 1 d . . . . .
H2 H 0.0853 0.5685 0.1316 0.029 Uiso 1 1 calc R U . . .
C3 C 0.2465(3) 0.5926(3) -0.0526(3) 0.0260(5) Uani 1 1 d . . . . .
H3 H 0.1984 0.7074 -0.0722 0.031 Uiso 1 1 calc R U . . .
C4 C 0.3851(3) 0.5065(3) -0.1441(3) 0.0225(5) Uani 1 1 d . . . . .
H4 H 0.4342 0.5613 -0.2263 0.027 Uiso 1 1 calc R U . . .
C5 C 0.4506(3) 0.3387(2) -0.1131(2) 0.0158(4) Uani 1 1 d . . . . .
C6 C 0.6056(3) 0.2358(3) -0.2055(2) 0.0169(4) Uani 1 1 d . . . . .
C7 C 0.8259(3) -0.0513(3) 0.1294(2) 0.0163(4) Uani 1 1 d . . . . .
H7 H 0.8722 -0.1088 0.0433 0.020 Uiso 1 1 calc R U . . .
C8 C 0.9340(3) -0.0351(3) 0.2181(2) 0.0193(4) Uani 1 1 d . . . . .
H8 H 1.0514 -0.0816 0.1930 0.023 Uiso 1 1 calc R U . . .
C9 C 0.8705(3) 0.0495(3) 0.3445(2) 0.0180(4) Uani 1 1 d . . . . .
C10 C 0.6962(3) 0.1091(3) 0.3768(2) 0.0203(4) Uani 1 1 d . . . . .
H10 H 0.6465 0.1651 0.4633 0.024 Uiso 1 1 calc R U . . .
C11 C 0.5962(3) 0.0865(3) 0.2829(2) 0.0173(4) Uani 1 1 d . . . . .
H11 H 0.4780 0.1269 0.3077 0.021 Uiso 1 1 calc R U . . .
C12 C 0.9849(3) 0.0721(3) 0.4424(2) 0.0223(5) Uani 1 1 d . . . . .
H12A H 0.9341 0.1777 0.4908 0.027 Uiso 1 1 calc R U . . .
H12B H 1.0933 0.0780 0.3839 0.027 Uiso 1 1 calc R U . . .
O1A O 0.2542(3) 0.3966(3) 0.4069(2) 0.0515(6) Uani 1 1 d . . . . .
H1A H 0.2787 0.4836 0.3709 0.077 Uiso 1 1 calc R U . . .
C1A C 0.2295(6) 0.3970(5) 0.5571(3) 0.0604(10) Uani 1 1 d . . . . .
H1A1 H 0.3240 0.4231 0.5881 0.091 Uiso 1 1 calc R U . . .
H1A2 H 0.2216 0.2877 0.5989 0.091 Uiso 1 1 calc R U . . .
H1A3 H 0.1254 0.4807 0.5902 0.091 Uiso 1 1 calc R U . . .
loop_
_atom_site_aniso_label
_atom_site_aniso_U_11
_atom_site_aniso_U_22
_atom_site_aniso_U_33
_atom_site_aniso_U_23
_atom_site_aniso_U_13
_atom_site_aniso_U_12
Co1 0.0095(2) 0.0115(2) 0.0138(2) -0.00032(15) -0.00251(16) -0.00145(16)
O1 0.0121(6) 0.0161(7) 0.0193(7) -0.0011(5) -0.0004(6) -0.0016(5)
O2 0.0333(9) 0.0239(8) 0.0216(8) 0.0025(6) 0.0052(7) -0.0092(7)
N1 0.0138(8) 0.0134(8) 0.0155(8) -0.0027(6) -0.0038(7) -0.0021(6)
N2 0.0130(8) 0.0147(8) 0.0145(8) 0.0001(6) -0.0037(7) -0.0021(6)
C1 0.0148(9) 0.0190(10) 0.0202(10) -0.0042(8) -0.0013(8) -0.0030(8)
C2 0.0169(10) 0.0196(11) 0.0318(12) -0.0075(9) -0.0032(9) 0.0017(8)
C3 0.0260(12) 0.0119(10) 0.0373(13) -0.0016(9) -0.0085(10) 0.0015(9)
C4 0.0252(11) 0.0168(11) 0.0247(11) 0.0017(8) -0.0045(9) -0.0051(9)
C5 0.0149(9) 0.0158(10) 0.0181(10) -0.0008(8) -0.0056(8) -0.0044(8)
C6 0.0172(10) 0.0191(10) 0.0152(9) -0.0021(8) -0.0036(8) -0.0052(8)
C7 0.0154(9) 0.0172(10) 0.0161(9) -0.0022(7) -0.0032(8) -0.0034(8)
C8 0.0127(9) 0.0225(11) 0.0219(10) -0.0006(8) -0.0045(8) -0.0027(8)
C9 0.0199(10) 0.0170(10) 0.0179(10) 0.0029(8) -0.0078(8) -0.0049(8)
C10 0.0207(10) 0.0213(11) 0.0172(10) -0.0029(8) -0.0029(9) -0.0024(8)
C11 0.0148(9) 0.0184(10) 0.0175(9) -0.0029(8) -0.0021(8) -0.0022(8)
C12 0.0214(11) 0.0249(12) 0.0236(11) 0.0011(9) -0.0096(9) -0.0082(9)
O1A 0.0813(17) 0.0415(12) 0.0341(11) -0.0018(9) 0.0010(11) -0.0266(12)
C1A 0.099(3) 0.049(2) 0.0338(16) 0.0038(14) -0.0087(18) -0.0231(19)
loop_
_atom_type_symbol
_atom_type_description
_atom_type_scat_dispersion_real
_atom_type_scat_dispersion_imag
_atom_type_scat_source
C C 0.0181 0.0091 'International Tables Vol C Tables 4.2.6.8 and 6.1.1.4'
H H 0.0000 0.0000 'International Tables Vol C Tables 4.2.6.8 and 6.1.1.4'
Co Co -2.3653 3.6143 'International Tables Vol C Tables 4.2.6.8 and 6.1.1.4'
N N 0.0311 0.0180 'International Tables Vol C Tables 4.2.6.8 and 6.1.1.4'
O O 0.0492 0.0322 'International Tables Vol C Tables 4.2.6.8 and 6.1.1.4'
loop_
_geom_angle_atom_site_label_1
_geom_angle_atom_site_label_2
_geom_angle_atom_site_label_3
_geom_angle
_geom_angle_site_symmetry_1
_geom_angle_site_symmetry_3
O1 Co1 O1 180.0 . 2_655
O1 Co1 N1 79.83(6) . .
O1 Co1 N1 100.17(6) 2_655 .
O1 Co1 N1 100.17(6) . 2_655
O1 Co1 N1 79.83(6) 2_655 2_655
N1 Co1 N1 180.0 . 2_655
O1 Co1 N2 91.67(6) . .
O1 Co1 N2 88.33(6) 2_655 .
N1 Co1 N2 92.71(6) . .
N1 Co1 N2 87.29(6) 2_655 .
O1 Co1 N2 88.33(6) . 2_655
O1 Co1 N2 91.67(6) 2_655 2_655
N1 Co1 N2 87.29(6) . 2_655
N1 Co1 N2 92.71(6) 2_655 2_655
N2 Co1 N2 180.0 . 2_655
C6 O1 Co1 116.23(12) . .
C1 N1 C5 118.92(17) . .
C1 N1 Co1 129.77(14) . .
C5 N1 Co1 111.02(13) . .
C11 N2 C7 116.85(18) . .
C11 N2 Co1 122.39(13) . .
C7 N2 Co1 120.60(14) . .
N1 C1 C2 122.1(2) . .
N1 C1 H1 118.9 . .
C2 C1 H1 118.9 . .
C3 C2 C1 118.7(2) . .
C3 C2 H2 120.7 . .
C1 C2 H2 120.7 . .
C2 C3 C4 119.6(2) . .
C2 C3 H3 120.2 . .
C4 C3 H3 120.2 . .
C5 C4 C3 118.6(2) . .
C5 C4 H4 120.7 . .
C3 C4 H4 120.7 . .
N1 C5 C4 122.06(19) . .
N1 C5 C6 115.93(17) . .
C4 C5 C6 121.99(19) . .
O2 C6 O1 125.41(19) . .
O2 C6 C5 118.72(19) . .
O1 C6 C5 115.87(17) . .
N2 C7 C8 123.54(19) . .
N2 C7 H7 118.2 . .
C8 C7 H7 118.2 . .
C7 C8 C9 119.70(19) . .
C7 C8 H8 120.1 . .
C9 C8 H8 120.1 . .
C8 C9 C10 116.9(2) . .
C8 C9 C12 121.16(19) . .
C10 C9 C12 122.0(2) . .
C11 C10 C9 119.9(2) . .
C11 C10 H10 120.1 . .
C9 C10 H10 120.1 . .
N2 C11 C10 123.09(19) . .
N2 C11 H11 118.5 . .
C10 C11 H11 118.5 . .
C9 C12 C12 110.8(2) . 2_756
C9 C12 H12A 109.5 . .
C12 C12 H12A 109.5 2_756 .
C9 C12 H12B 109.5 . .
C12 C12 H12B 109.5 2_756 .
H12A C12 H12B 108.1 . .
C1A O1A H1A 109.5 . .
O1A C1A H1A1 109.5 . .
O1A C1A H1A2 109.5 . .
H1A1 C1A H1A2 109.5 . .
O1A C1A H1A3 109.5 . .
H1A1 C1A H1A3 109.5 . .
H1A2 C1A H1A3 109.5 . .
loop_
_geom_bond_atom_site_label_1
_geom_bond_atom_site_label_2
_geom_bond_distance
_geom_bond_site_symmetry_2
Co1 O1 2.0390(14) .
Co1 O1 2.0391(14) 2_655
Co1 N1 2.1163(16) .
Co1 N1 2.1163(16) 2_655
Co1 N2 2.1859(17) .
Co1 N2 2.1859(17) 2_655
O1 C6 1.274(3) .
O2 C6 1.233(3) .
N1 C1 1.340(3) .
N1 C5 1.343(3) .
N2 C11 1.344(3) .
N2 C7 1.345(3) .
C1 C2 1.390(3) .
C1 H1 0.9500 .
C2 C3 1.375(3) .
C2 H2 0.9500 .
C3 C4 1.386(3) .
C3 H3 0.9500 .
C4 C5 1.386(3) .
C4 H4 0.9500 .
C5 C6 1.523(3) .
C7 C8 1.379(3) .
C7 H7 0.9500 .
C8 C9 1.391(3) .
C8 H8 0.9500 .
C9 C10 1.397(3) .
C9 C12 1.504(3) .
C10 C11 1.382(3) .
C10 H10 0.9500 .
C11 H11 0.9500 .
C12 C12 1.538(4) 2_756
C12 H12A 0.9900 .
C12 H12B 0.9900 .
O1A C1A 1.388(4) .
O1A H1A 0.8400 .
C1A H1A1 0.9800 .
C1A H1A2 0.9800 .
C1A H1A3 0.9800 .
loop_
_geom_torsion_atom_site_label_1
_geom_torsion_atom_site_label_2
_geom_torsion_atom_site_label_3
_geom_torsion_atom_site_label_4
_geom_torsion
_geom_torsion_site_symmetry_1
_geom_torsion_site_symmetry_2
_geom_torsion_site_symmetry_3
_geom_torsion_site_symmetry_4
C5 N1 C1 C2 0.3(3) . . . .
Co1 N1 C1 C2 -172.96(16) . . . .
N1 C1 C2 C3 0.8(4) . . . .
C1 C2 C3 C4 -1.3(4) . . . .
C2 C3 C4 C5 0.8(4) . . . .
C1 N1 C5 C4 -0.8(3) . . . .
Co1 N1 C5 C4 173.60(17) . . . .
C1 N1 C5 C6 177.79(18) . . . .
Co1 N1 C5 C6 -7.8(2) . . . .
C3 C4 C5 N1 0.3(3) . . . .
C3 C4 C5 C6 -178.2(2) . . . .
Co1 O1 C6 O2 -172.99(18) . . . .
Co1 O1 C6 C5 7.6(2) . . . .
N1 C5 C6 O2 -178.90(19) . . . .
C4 C5 C6 O2 -0.3(3) . . . .
N1 C5 C6 O1 0.5(3) . . . .
C4 C5 C6 O1 179.12(19) . . . .
C11 N2 C7 C8 -1.9(3) . . . .
Co1 N2 C7 C8 173.69(15) . . . .
N2 C7 C8 C9 -0.5(3) . . . .
C7 C8 C9 C10 2.3(3) . . . .
C7 C8 C9 C12 -178.91(19) . . . .
C8 C9 C10 C11 -1.7(3) . . . .
C12 C9 C10 C11 179.49(19) . . . .
C7 N2 C11 C10 2.5(3) . . . .
Co1 N2 C11 C10 -173.00(15) . . . .
C9 C10 C11 N2 -0.7(3) . . . .
C8 C9 C12 C12 -90.1(3) . . . 2_756
C10 C9 C12 C12 88.6(3) . . . 2_756
