#------------------------------------------------------------------------------
#$Date: 2021-06-02 04:17:46 +0300 (Wed, 02 Jun 2021) $
#$Revision: 265660 $
#$URL: file:///home/coder/svn-repositories/cod/cif/1/56/30/1563063.cif $
#------------------------------------------------------------------------------
#
# This file is available in the Crystallography Open Database (COD),
# http://www.crystallography.net/
#
# All data on this site have been placed in the public domain by the
# contributors.
#
data_1563063
loop_
_publ_author_name
'Magott, Michal'
'Gawe\/l, Bart\/lomiej A.'
'Sarewicz, Marcin'
'Reczy\'nski, Mateusz'
'Ogorza\/ly, Karolina'
'Makowski, Wac\/law'
'Pinkowicz, Dawid'
_publ_section_title
;
 Large breathing effect induced by water sorption in a remarkably stable
 nonporous cyanide-bridged coordination polymer
;
_journal_name_full               'Chemical Science'
_journal_paper_doi               10.1039/D1SC02060A
_journal_year                    2021
_chemical_formula_sum            'C14 H8 Mn2 Mo N12'
_chemical_formula_weight         550.14
_space_group_IT_number           2
_space_group_name_Hall           '-P 1'
_space_group_name_H-M_alt        'P -1'
_symmetry_cell_setting           triclinic
_symmetry_Int_Tables_number      2
_symmetry_space_group_name_Hall  '-P 1'
_symmetry_space_group_name_H-M   'P -1'
_audit_block_doi                 10.5517/ccdc.csd.cc26rxnk
_audit_update_record
;
2021-04-07 deposited with the CCDC.	2021-06-01 downloaded from the CCDC.
;
_cell_angle_alpha                95.383(10)
_cell_angle_beta                 103.956(9)
_cell_angle_gamma                103.284(6)
_cell_formula_units_Z            2
_cell_length_a                   9.8543(5)
_cell_length_b                   10.0005(5)
_cell_length_c                   10.8395(6)
_cell_measurement_temperature    293
_cell_volume                     996.27(11)
_diffrn_ambient_temperature      293
_diffrn_measurement_device_type  'Bruker D8Advance'
_diffrn_radiation_probe          x-ray
_diffrn_radiation_type           CuKa
_diffrn_radiation_wavelength     1.5418
_exptl_absorpt_coefficient_mu    15.486
_exptl_crystal_density_diffrn    1.834
_exptl_crystal_description       powder
_exptl_crystal_F_000             536
_pd_char_colour                  orange
_pd_instr_location               ' ?'
_pd_meas_2theta_range_inc        0.01
_pd_meas_2theta_range_max        70.000
_pd_meas_2theta_range_min        3.000
_pd_meas_number_of_points        6602
_pd_proc_2theta_range_inc        0.01
_pd_proc_2theta_range_max        70.000
_pd_proc_2theta_range_min        6.9788
_pd_proc_ls_background_function  '9 Chebyshev polynoms'
_pd_proc_ls_pref_orient_corr     none
_pd_proc_ls_profile_function     Pseudo-Voigt
_pd_proc_ls_prof_R_factor        0.0205
_pd_proc_ls_prof_wR_expected     0.0731
_pd_proc_ls_prof_wR_factor       0.0303
_refine_ls_goodness_of_fit_all   0.41
_refine_ls_hydrogen_treatment    mixed
_refine_ls_number_constraints    0
_refine_ls_number_parameters     43
_refine_ls_R_factor_all          0.0460
_refine_ls_R_factor_gt           0.0455
_refine_ls_shift/su_max          0.019041
_refine_ls_shift/su_mean         0.01384
_refine_ls_weighting_scheme      sigma
_refine_ls_wR_factor_all         0.0519
_refine_ls_wR_factor_gt          0.0517
_cod_data_source_file            d1sc02060a2.cif
_cod_data_source_block           (I)_CCDC2
_cod_depositor_comments
;
The following automatic conversions were performed:

data item '_diffrn_radiation_probe' value 'X-ray' was changed to
'x-ray' in accordance with the
/home/data/users/saulius/crontab/automatic-downloads/rss-feeds/RSC/lib/dictionaries/cif_core.dic
dictionary named 'cif_core.dic' version 2.4.2 last updated on
2011-04-26.

Automatic conversion script
Id: cif_fix_values 7556 2019-12-06 15:28:31Z antanas 
;
_cod_database_code               1563063
loop_
_space_group_symop_id
_space_group_symop_operation_xyz
1 x,y,z
2 -x,-y,-z
loop_
_atom_site_label
_atom_site_type_symbol
_atom_site_fract_x
_atom_site_fract_y
_atom_site_fract_z
_atom_site_adp_type
_atom_site_U_iso_or_equiv
_atom_site_site_symmetry_multiplicity
_atom_site_occupancy
_atom_site_calc_flag
_atom_site_refinement_flags
_atom_site_disorder_assembly
_atom_site_disorder_group
Mo1 Mo -0.4263(5) -0.7423(5) -0.7185(3) Uiso 0.067(3) 2 1 d . . .
C1 C -0.4288(5) -0.7422(5) -0.9186(3) Uiso 0.07(5) 2 1 d . . .
C2 C -0.3774(5) -0.7266(5) -0.5112(3) Uiso 0.07(5) 2 1 d . . .
N2 N -0.3546(5) -0.7127(5) -0.4023(3) Uiso 0.07(5) 2 1 d . . .
N1 N -0.4241(5) -0.7530(5) -1.0228(3) Uiso 0.07(5) 2 1 d . . .
C3 C -0.6217(5) -0.8180(5) -0.8753(3) Uiso 0.07(5) 2 1 d . . .
N3 N -0.7255(5) -0.8622(5) -0.9553(3) Uiso 0.07(5) 2 1 d . . .
C4 C -0.2722(5) -0.5414(5) -0.6471(3) Uiso 0.07(5) 2 1 d . . .
N4 N -0.1947(5) -0.4356(5) -0.6058(3) Uiso 0.07(5) 2 1 d . . .
C5 C -0.2206(5) -0.7979(5) -0.6671(3) Uiso 0.07(5) 2 1 d . . .
N5 N -0.1177(5) -0.8328(5) -0.6336(3) Uiso 0.07(5) 2 1 d . . .
C6 C -0.5174(5) -0.5656(5) -0.7370(3) Uiso 0.07(5) 2 1 d . . .
N6 N -0.5626(5) -0.4712(5) -0.7460(3) Uiso 0.07(5) 2 1 d . . .
C7 C -0.4714(5) -0.9655(5) -0.7322(3) Uiso 0.07(5) 2 1 d . . .
N7 N -0.5203(5) -1.0822(5) -0.7427(3) Uiso 0.07(5) 2 1 d . . .
C8 C -0.6099(5) -0.7641(5) -0.6386(3) Uiso 0.07(5) 2 1 d . . .
N8 N -0.7006(5) -0.7735(5) -0.5908(3) Uiso 0.07(5) 2 1 d . . .
C9 C -0.0317(10) -0.6190(8) -1.1933(6) Uiso 0.061(7) 2 1 d . . .
H1 H -0.0585(10) -0.5941(8) -1.2741(6) Uiso 0.1 2 1 d . . .
C10 C 0.1006(10) -0.6096(8) -1.1315(6) Uiso 0.061(7) 2 1 d . . .
H2 H 0.1832(10) -0.5777(8) -1.1580(6) Uiso 0.1 2 1 d . . .
N9 N 0.0927(10) -0.6563(8) -1.0205(6) Uiso 0.061(7) 2 1 d . . .
H3 H 0.1634(10) -0.6639(8) -0.9602(6) Uiso 0.1 2 1 d . . .
C11 C -0.0454(10) -0.6880(8) -1.0227(6) Uiso 0.061(7) 2 1 d . . .
H4 H -0.0803(10) -0.7206(8) -0.9562(6) Uiso 0.1 2 1 d . . .
N10 N -0.1253(10) -0.6682(8) -1.1273(6) Uiso 0.061(7) 2 1 d . . .
Mn1 Mn -0.3572(10) -0.7016(8) -1.1851(6) Uiso 0.079(5) 2 1 d . . .
C12 C -0.0597(9) -0.9504(9) -0.3805(7) Uiso 0.087(10) 2 1 d . . .
H5 H -0.1437(9) -0.9697(9) -0.4473(7) Uiso 0.1 2 1 d . . .
C13 C -0.0511(9) -0.9996(9) -0.2744(7) Uiso 0.087(10) 2 1 d . . .
H6 H -0.1248(9) -1.0580(9) -0.2507(7) Uiso 0.1 2 1 d . . .
N11 N 0.0878(9) -0.9480(9) -0.2050(7) Uiso 0.087(10) 2 1 d . . .
H7 H 0.1261(9) -0.9638(9) -0.1298(7) Uiso 0.1 2 1 d . . .
C14 C 0.1637(9) -0.8755(9) -0.2897(7) Uiso 0.087(10) 2 1 d . . .
H8 H 0.2498(9) -0.8197(9) -0.2479(7) Uiso 0.1 2 1 d . . .
N12 N 0.0670(9) -0.8684(9) -0.3829(7) Uiso 0.087(10) 2 1 d . . .
Mn2 Mn 0.1098(9) -0.7608(9) -0.5351(7) Uiso 0.062(5) 2 1 d . . .
loop_
_atom_type_symbol
_atom_type_scat_dispersion_real
_atom_type_scat_dispersion_imag
_atom_type_scat_source
C 0.0181 0.0091 'International Tables Vol C tables 4.2.6.8 and 6.1.1.1'
H 0.0000 0.0000 'International Tables Vol C tables 4.2.6.8 and 6.1.1.1'
Mn -0.5299 2.8052 'International Tables Vol C tables 4.2.6.8 and 6.1.1.1'
N 0.0311 0.0180 'International Tables Vol C tables 4.2.6.8 and 6.1.1.1'
W -5.4734 5.5774 'International Tables Vol C tables 4.2.6.8 and 6.1.1.1'
loop_
_exptl_crystal_face_index_h
_exptl_crystal_face_index_k
_exptl_crystal_face_index_l
_exptl_crystal_face_perp_dist
? ? ? ?
loop_
_geom_angle_atom_site_label_1
_geom_angle_atom_site_label_2
_geom_angle_atom_site_label_3
_geom_angle_site_symmetry_1
_geom_angle_site_symmetry_2
_geom_angle_site_symmetry_3
_geom_angle
_geom_angle_publ_flag
C1 Mo1 C2 . . . 168.5(3) ?
C1 Mo1 C3 . . . 56.86(18) ?
C1 Mo1 C4 . . . 96.1(2) ?
C1 Mo1 C5 . . . 93.8(3) ?
C1 Mo1 C6 . . . 85.6(2) ?
C1 Mo1 C7 . . . 94.5(2) ?
C1 Mo1 C8 . . . 127.1(2) ?
C2 Mo1 C3 . . . 134.6(3) ?
C2 Mo1 C4 . . . 75.64(18) ?
C2 Mo1 C5 . . . 76.8(2) ?
C2 Mo1 C6 . . . 97.7(2) ?
C2 Mo1 C7 . . . 88.8(2) ?
C2 Mo1 C8 . . . 64.1(2) ?
C3 Mo1 C4 . . . 134.0(3) ?
C3 Mo1 C5 . . . 134.1(3) ?
C3 Mo1 C6 . . . 75.6(2) ?
C3 Mo1 C7 . . . 76.2(2) ?
C3 Mo1 C8 . . . 71.9(2) ?
C4 Mo1 C5 . . . 77.7(2) ?
C4 Mo1 C6 . . . 65.0(2) ?
C4 Mo1 C7 . . . 148.1(3) ?
C4 Mo1 C8 . . . 111.7(3) ?
C5 Mo1 C6 . . . 142.4(3) ?
C5 Mo1 C7 . . . 71.6(2) ?
C5 Mo1 C8 . . . 134.6(2) ?
C6 Mo1 C7 . . . 146.0(3) ?
C6 Mo1 C8 . . . 68.6(2) ?
C7 Mo1 C8 . . . 84.9(2) ?
Mo1 C1 N1 . . . 173.2(5) ?
Mo1 C2 N2 . . . 176.5(5) ?
C1 N1 Mn1 . . . 158.3(4) ?
Mo1 C3 N3 . . . 177.3(4) ?
Mo1 C4 N4 . . . 177.0(4) ?
Mo1 C5 N5 . . . 174.5(4) ?
C5 N5 Mn2 . . . 143.8(5) ?
Mo1 C6 N6 . . . 178.7(4) ?
C6 N6 Mn1 . . 2_443 164.7(4) ?
Mo1 C7 N7 . . . 167.7(5) ?
C7 N7 Mn1 . . 2_433 164.5(4) ?
Mo1 C8 N8 . . . 176.4(3) ?
C8 N8 Mn2 . . 1_455 165.7(5) ?
H1 C9 C10 . . . 123.8(11) ?
H1 C9 N10 . . . 123.9(11) ?
C10 C9 N10 . . . 112.3(7) ?
C9 C10 H2 . . . 127.4(9) ?
C9 C10 N9 . . . 105.2(8) ?
H2 C10 N9 . . . 127.4(10) ?
C10 N9 H3 . . . 126.8(12) ?
C10 N9 C11 . . . 106.5(7) ?
H3 N9 C11 . . . 126.7(10) ?
N9 C11 H4 . . . 124.0(9) ?
N9 C11 N10 . . . 112.0(8) ?
H4 C11 N10 . . . 124.0(11) ?
C9 N10 C11 . . . 104.0(8) ?
C9 N10 Mn1 . . . 127.3(6) ?
C11 N10 Mn1 . . . 128.7(7) ?
N1 Mn1 N6 . . 2_443 110.8(5) ?
N1 Mn1 N7 . . 2_433 80.3(3) ?
N1 Mn1 N10 . . . 104.8(4) ?
N6 Mn1 N7 2_443 . 2_433 121.7(4) ?
N6 Mn1 N10 2_443 . . 116.4(4) ?
N7 Mn1 N10 2_433 . . 114.8(5) ?
H5 C12 C13 . . . 124.0(10) ?
H5 C12 N12 . . . 124.1(10) ?
C13 C12 N12 . . . 111.8(7) ?
C12 C13 H6 . . . 127.3(9) ?
C12 C13 N11 . . . 105.3(8) ?
H6 C13 N11 . . . 127.4(9) ?
C13 N11 H7 . . . 126.6(11) ?
C13 N11 C14 . . . 106.3(7) ?
H7 N11 C14 . . . 126.7(10) ?
N11 C14 H8 . . . 113.2(9) ?
N11 C14 N12 . . . 104.8(8) ?
H8 C14 N12 . . . 134.0(11) ?
C12 N12 C14 . . . 110.3(8) ?
C12 N12 Mn2 . . . 126.6(6) ?
C14 N12 Mn2 . . . 122.5(7) ?
N5 Mn2 N8 . . 1_655 132.8(4) ?
N5 Mn2 N12 . . . 88.5(4) ?
N8 Mn2 N12 1_655 . . 116.9(5) ?
loop_
_geom_bond_atom_site_label_1
_geom_bond_atom_site_label_2
_geom_bond_site_symmetry_1
_geom_bond_site_symmetry_2
_geom_bond_distance
_geom_bond_publ_flag
Mo1 C1 . . 2.163(5) ?
Mo1 C2 . . 2.164(5) ?
Mo1 C3 . . 2.163(5) ?
Mo1 C4 . . 2.164(6) ?
Mo1 C5 . . 2.182(7) ?
Mo1 C6 . . 2.163(8) ?
Mo1 C7 . . 2.157(7) ?
Mo1 C8 . . 2.164(7) ?
C1 N1 . . 1.138(5) ?
C2 N2 . . 1.136(5) ?
N1 Mn1 . . 2.090(9) ?
C3 N3 . . 1.134(5) ?
C4 N4 . . 1.130(6) ?
C5 N5 . . 1.136(7) ?
N5 Mn2 . . 2.155(9) ?
C6 N6 . . 1.135(8) ?
N6 Mn1 . 2_443 2.180(10) ?
C7 N7 . . 1.139(7) ?
N7 Mn1 . 2_433 2.184(8) ?
C8 N8 . . 1.127(7) ?
N8 Mn2 . 1_455 2.124(11) ?
C9 H1 . . 0.927(10) ?
C9 C10 . . 1.291(13) ?
C9 N10 . . 1.334(13) ?
C10 H2 . . 0.926(13) ?
C10 N9 . . 1.344(10) ?
N9 H3 . . 0.856(11) ?
N9 C11 . . 1.318(14) ?
C11 H4 . . 0.925(11) ?
C11 N10 . . 1.276(10) ?
N10 Mn1 . . 2.155(13) ?
C12 H5 . . 0.926(10) ?
C12 C13 . . 1.285(12) ?
C12 N12 . . 1.335(12) ?
C13 H6 . . 0.926(12) ?
C13 N11 . . 1.346(10) ?
N11 H7 . . 0.857(11) ?
N11 C14 . . 1.461(12) ?
C14 H8 . . 0.887(10) ?
C14 N12 . . 1.230(11) ?
N12 Mn2 . . 2.125(12) ?
loop_
_pd_proc_point_id
_pd_proc_2theta_corrected
_pd_proc_intensity_net
_pd_calc_intensity_net
_pd_proc_ls_weight
1 7.0426 251.51 250.54 15.86
2 7.0527 250.50 250.37 15.83
3 7.0629 250.12 250.19 15.82
4 7.0730 249.07 250.02 15.78
5 7.0832 252.71 249.84 15.90
6 7.0933 247.22 249.67 15.72
7 7.1035 247.62 249.50 15.74
8 7.1136 247.86 249.32 15.74
9 7.1238 248.17 249.15 15.75
10 7.1339 249.00 248.98 15.78
11 7.1441 248.21 248.81 15.75
12 7.1542 250.48 248.64 15.83
13 7.1644 246.78 248.47 15.71
14 7.1745 245.82 248.30 15.68
15 7.1847 249.25 248.13 15.79
16 7.1948 249.81 247.96 15.81
17 7.2050 244.93 247.79 15.65
18 7.2151 251.52 247.62 15.86
19 7.2253 246.95 247.45 15.71
20 7.2354 247.72 247.29 15.74
21 7.2456 246.98 247.12 15.72
22 7.2557 246.99 246.95 15.72
23 7.2659 247.54 246.78 15.73
24 7.2760 245.83 246.62 15.68
25 7.2862 241.27 246.45 15.53
26 7.2963 245.33 246.29 15.66
27 7.3065 246.24 246.12 15.69
28 7.3166 244.71 245.96 15.64
29 7.3268 244.87 245.79 15.65
30 7.3369 245.54 245.63 15.67
31 7.3471 247.05 245.46 15.72
32 7.3572 244.68 245.30 15.64
33 7.3674 243.13 245.14 15.59
34 7.3775 243.56 244.98 15.61
35 7.3877 244.25 244.81 15.63
36 7.3978 244.31 244.65 15.63
37 7.4080 246.46 244.49 15.70
38 7.4181 241.53 244.33 15.54
39 7.4283 245.87 244.17 15.68
40 7.4384 246.51 244.01 15.70
41 7.4486 242.21 243.85 15.56
42 7.4587 241.04 243.69 15.53
43 7.4689 243.76 243.53 15.61
44 7.4790 242.84 243.37 15.58
45 7.4892 246.04 243.21 15.69
46 7.4993 242.67 243.05 15.58
47 7.5095 242.69 242.90 15.58
48 7.5196 241.15 242.74 15.53
49 7.5298 240.13 242.58 15.50
50 7.5399 242.26 242.43 15.56
51 7.5501 243.40 242.27 15.60
52 7.5602 241.75 242.11 15.55
53 7.5704 240.47 241.96 15.51
54 7.5805 245.97 241.80 15.68
55 7.5907 237.69 241.65 15.42
56 7.6008 242.89 241.49 15.59
57 7.6110 240.45 241.34 15.51
58 7.6211 241.43 241.18 15.54
59 7.6313 243.58 241.03 15.61
60 7.6414 241.56 240.88 15.54
61 7.6516 241.98 240.72 15.56
62 7.6617 243.05 240.57 15.59
63 7.6719 241.50 240.52 15.54
64 7.6820 239.33 240.37 15.47
65 7.6922 239.27 240.22 15.47
66 7.7023 241.07 240.13 15.53
67 7.7125 241.67 239.98 15.55
68 7.7226 239.59 239.83 15.48
69 7.7328 238.33 239.69 15.44
70 7.7429 238.14 239.54 15.43
71 7.7531 239.43 239.40 15.47
72 7.7632 235.78 239.25 15.35
73 7.7734 237.21 239.11 15.40
74 7.7835 239.70 238.96 15.48
75 7.7937 238.02 238.82 15.43
76 7.8038 236.95 238.68 15.39
77 7.8140 232.90 238.54 15.26
78 7.8241 237.79 238.40 15.42
79 7.8343 235.87 238.25 15.36
80 7.8444 236.31 238.11 15.37
81 7.8546 239.18 237.97 15.47
82 7.8647 237.05 237.84 15.40
83 7.8749 239.27 237.70 15.47
84 7.8850 238.91 237.56 15.46
85 7.8952 236.38 237.42 15.37
86 7.9053 236.43 237.29 15.38
87 7.9155 235.71 237.15 15.35
88 7.9256 239.00 237.02 15.46
89 7.9358 234.24 236.88 15.31
90 7.9459 235.91 236.75 15.36
91 7.9561 236.24 236.62 15.37
92 7.9662 235.99 236.49 15.36
93 7.9764 237.45 236.36 15.41
94 7.9865 235.65 236.23 15.35
95 7.9967 237.30 236.10 15.40
96 8.0068 234.82 235.97 15.32
97 8.0170 233.73 235.85 15.29
98 8.0271 235.05 235.72 15.33
99 8.0373 235.40 235.60 15.34
100 8.0474 233.26 235.48 15.27
101 8.0576 234.04 235.36 15.30
102 8.0677 235.13 235.24 15.33
103 8.0779 235.37 235.13 15.34
104 8.0880 233.85 235.01 15.29
105 8.0982 235.46 234.90 15.34
106 8.1083 232.52 234.80 15.25
107 8.1185 235.37 234.69 15.34
108 8.1286 234.39 234.59 15.31
109 8.1388 231.98 234.49 15.23
110 8.1489 233.82 234.39 15.29
111 8.1591 234.21 234.30 15.30
112 8.1692 234.55 234.21 15.32
113 8.1794 234.32 234.13 15.31
114 8.1895 232.44 234.05 15.25
115 8.1997 233.21 233.98 15.27
116 8.2098 233.34 233.92 15.28
117 8.2200 233.53 233.86 15.28
118 8.2301 237.26 233.82 15.40
119 8.2403 237.64 233.78 15.42
120 8.2504 235.71 233.76 15.35
121 8.2606 236.57 233.74 15.38
122 8.2707 236.70 233.75 15.39
123 8.2809 239.01 233.77 15.46
124 8.2910 239.46 233.82 15.47
125 8.3012 238.38 233.89 15.44
126 8.3113 240.79 233.99 15.52
127 8.3215 243.88 234.14 15.62
128 8.3316 242.07 234.34 15.56
129 8.3418 241.90 234.62 15.55
130 8.3519 246.61 235.04 15.70
131 8.3621 249.85 235.65 15.81
132 8.3722 252.34 236.59 15.89
133 8.3824 254.21 238.03 15.94
134 8.3925 256.95 240.26 16.03
135 8.4027 261.98 243.63 16.19
136 8.4128 265.86 248.57 16.31
137 8.4230 272.30 255.53 16.50
138 8.4331 274.94 264.88 16.58
139 8.4433 284.64 276.80 16.87
140 8.4534 288.71 291.14 16.99
141 8.4636 298.27 307.28 17.27
142 8.4737 308.97 324.05 17.58
143 8.4839 321.11 339.69 17.92
144 8.4940 337.51 352.00 18.37
145 8.5042 348.50 358.82 18.67
146 8.5143 357.56 358.85 18.91
147 8.5245 361.63 352.17 19.02
148 8.5346 354.28 340.07 18.82
149 8.5448 341.94 324.54 18.49
150 8.5549 317.45 307.70 17.82
151 8.5651 292.89 291.32 17.11
152 8.5752 275.55 276.61 16.60
153 8.5854 257.64 264.23 16.05
154 8.5955 248.46 254.39 15.76
155 8.6057 241.54 246.93 15.54
156 8.6158 234.76 241.51 15.32
157 8.6260 232.30 237.70 15.24
158 8.6361 231.04 235.07 15.20
159 8.6463 232.31 233.25 15.24
160 8.6564 231.81 231.98 15.23
161 8.6666 226.18 231.06 15.04
162 8.6767 231.80 230.36 15.22
163 8.6869 228.88 229.79 15.13
164 8.6970 225.69 229.31 15.02
165 8.7072 228.22 228.89 15.11
166 8.7173 226.88 228.52 15.06
167 8.7275 229.25 228.18 15.14
168 8.7376 227.19 227.97 15.07
169 8.7478 227.42 227.68 15.08
170 8.7579 226.08 227.46 15.04
171 8.7681 225.56 227.21 15.02
172 8.7782 226.71 226.97 15.06
173 8.7884 223.93 226.75 14.96
174 8.7985 226.94 226.53 15.06
175 8.8087 226.56 226.33 15.05
176 8.8188 226.43 226.13 15.05
177 8.8290 222.61 225.94 14.92
178 8.8391 227.33 225.76 15.08
179 8.8493 222.59 225.58 14.92
180 8.8594 223.16 225.41 14.94
181 8.8696 225.15 225.24 15.01
182 8.8797 221.54 225.08 14.88
183 8.8899 222.71 224.92 14.92
184 8.9000 224.92 224.76 15.00
185 8.9102 223.24 224.61 14.94
186 8.9203 225.83 224.46 15.03
187 8.9305 224.48 224.31 14.98
188 8.9406 221.12 224.17 14.87
189 8.9508 225.05 224.03 15.00
190 8.9609 224.14 223.89 14.97
191 8.9711 225.24 223.75 15.01
192 8.9812 225.33 223.62 15.01
193 8.9914 225.66 223.48 15.02
194 9.0015 222.23 223.35 14.91
195 9.0117 220.75 223.22 14.86
196 9.0218 224.25 223.10 14.98
197 9.0320 221.57 222.97 14.89
198 9.0421 224.36 222.85 14.98
199 9.0523 224.69 222.73 14.99
200 9.0624 223.48 222.60 14.95
201 9.0726 222.81 222.49 14.93
202 9.0827 223.13 222.37 14.94
203 9.0929 222.55 222.26 14.92
204 9.1030 225.48 222.15 15.02
205 9.1132 219.11 222.05 14.80
206 9.1233 223.66 221.95 14.96
207 9.1335 224.39 221.85 14.98
208 9.1436 223.62 221.76 14.95
209 9.1538 224.11 221.68 14.97
210 9.1639 220.19 221.59 14.84
211 9.1741 222.39 221.51 14.91
212 9.1842 228.53 221.43 15.12
213 9.1944 226.50 221.34 15.05
214 9.2045 226.08 221.25 15.04
215 9.2147 227.99 221.16 15.10
216 9.2248 222.66 221.06 14.92
217 9.2350 224.49 220.97 14.98
218 9.2451 223.49 220.88 14.95
219 9.2553 227.47 220.79 15.08
220 9.2654 224.96 220.71 15.00
221 9.2756 222.68 220.65 14.92
222 9.2857 220.77 220.59 14.86
223 9.2959 224.51 220.54 14.98
224 9.3060 220.50 220.50 14.85
225 9.3162 219.57 220.48 14.82
226 9.3263 219.66 220.47 14.82
227 9.3365 220.26 220.47 14.84
228 9.3466 220.94 220.39 14.86
229 9.3568 224.98 220.43 15.00
230 9.3669 219.77 220.44 14.82
231 9.3771 221.67 220.54 14.89
232 9.3872 223.44 220.66 14.95
233 9.3974 223.66 220.84 14.96
234 9.4075 224.70 221.09 14.99
235 9.4177 225.17 221.44 15.01
236 9.4278 227.66 221.94 15.09
237 9.4380 228.20 222.71 15.11
238 9.4481 228.70 223.87 15.12
239 9.4583 232.26 225.63 15.24
240 9.4684 234.16 228.28 15.30
241 9.4786 237.67 232.16 15.42
242 9.4887 242.86 237.64 15.58
243 9.4989 244.94 245.03 15.65
244 9.5090 255.44 254.54 15.98
245 9.5192 259.70 266.13 16.12
246 9.5293 263.24 279.41 16.22
247 9.5395 273.55 293.55 16.54
248 9.5496 281.86 307.25 16.79
249 9.5598 291.29 318.76 17.07
250 9.5699 299.24 326.24 17.30
251 9.5801 304.19 328.31 17.44
252 9.5902 306.94 324.65 17.52
253 9.6004 300.31 315.99 17.33
254 9.6105 290.07 303.82 17.03
255 9.6207 278.20 289.85 16.68
256 9.6308 267.10 275.71 16.34
257 9.6410 254.12 262.59 15.94
258 9.6511 245.46 251.22 15.67
259 9.6613 233.16 241.91 15.27
260 9.6714 226.41 234.67 15.05
261 9.6816 222.40 229.27 14.91
262 9.6917 220.96 225.38 14.86
263 9.7019 218.32 222.65 14.78
264 9.7120 220.60 220.75 14.85
265 9.7222 218.29 219.42 14.77
266 9.7323 214.31 218.46 14.64
267 9.7425 213.00 217.74 14.59
268 9.7526 213.76 217.18 14.62
269 9.7628 216.17 216.72 14.70
270 9.7729 213.11 216.32 14.60
271 9.7831 215.16 215.96 14.67
272 9.7932 212.67 215.65 14.58
273 9.8034 214.65 215.36 14.65
274 9.8135 214.71 215.09 14.65
275 9.8237 212.83 214.84 14.59
276 9.8338 213.56 214.61 14.61
277 9.8440 212.25 214.39 14.57
278 9.8541 211.55 214.18 14.54
279 9.8643 214.00 213.98 14.63
280 9.8744 215.30 213.79 14.67
281 9.8846 213.05 213.61 14.60
282 9.8947 215.35 213.43 14.67
283 9.9049 214.21 213.26 14.64
284 9.9150 213.74 213.10 14.62
285 9.9252 211.40 212.94 14.54
286 9.9353 211.01 212.79 14.53
287 9.9455 213.08 212.64 14.60
288 9.9556 211.06 212.49 14.53
289 9.9658 212.76 212.35 14.59
290 9.9759 210.06 212.21 14.49
291 9.9861 212.08 212.07 14.56
292 9.9962 210.08 211.93 14.49
293 10.0064 208.93 211.80 14.45
294 10.0165 210.31 211.66 14.50
295 10.0267 212.71 211.53 14.58
296 10.0368 212.07 211.40 14.56
297 10.0470 210.42 211.28 14.51
298 10.0571 213.32 211.15 14.61
299 10.0673 210.37 211.03 14.50
300 10.0774 214.96 210.90 14.66
301 10.0876 212.23 210.78 14.57
302 10.0977 207.65 210.69 14.41
303 10.1079 210.17 210.57 14.50
304 10.1180 212.20 210.45 14.57
305 10.1282 209.21 210.35 14.46
306 10.1383 210.59 210.23 14.51
307 10.1485 213.71 210.11 14.62
308 10.1586 208.84 210.00 14.45
309 10.1688 211.95 209.88 14.56
310 10.1789 207.41 209.77 14.40
311 10.1891 208.92 209.66 14.45
312 10.1992 209.21 209.55 14.46
313 10.2094 210.35 209.43 14.50
314 10.2195 209.08 209.32 14.46
315 10.2297 211.59 209.21 14.55
316 10.2398 211.47 209.10 14.54
317 10.2500 211.42 208.99 14.54
318 10.2601 208.91 208.88 14.45
319 10.2703 206.48 208.78 14.37
320 10.2804 206.51 208.67 14.37
321 10.2906 208.57 208.56 14.44
322 10.3007 210.86 208.46 14.52
323 10.3109 207.51 208.35 14.41
324 10.3210 205.99 208.24 14.35
325 10.3312 206.51 208.14 14.37
326 10.3413 210.44 208.03 14.51
327 10.3515 207.16 207.93 14.39
328 10.3616 209.42 207.82 14.47
329 10.3718 209.60 207.72 14.48
330 10.3819 206.74 207.62 14.38
331 10.3921 206.07 207.51 14.36
332 10.4022 209.42 207.41 14.47
333 10.4124 206.49 207.31 14.37
334 10.4225 208.69 207.12 14.45
335 10.4327 207.50 207.02 14.40
336 10.4428 205.03 206.87 14.32
337 10.4530 205.74 206.77 14.34
338 10.4631 209.45 206.68 14.47
339 10.4733 206.77 206.58 14.38
340 10.4834 205.47 206.49 14.33
341 10.4936 207.26 206.39 14.40
342 10.5037 208.04 206.30 14.42
343 10.5139 206.17 206.20 14.36
344 10.5240 208.28 206.11 14.43
345 10.5342 203.79 206.02 14.28
346 10.5443 205.96 205.93 14.35
347 10.5545 205.30 205.84 14.33
348 10.5646 204.91 205.75 14.31
349 10.5748 203.52 205.66 14.27
350 10.5849 208.27 205.57 14.43
351 10.5951 203.84 205.48 14.28
352 10.6052 204.41 205.40 14.30
353 10.6154 205.85 205.31 14.35
354 10.6255 203.14 205.23 14.25
355 10.6357 201.98 205.14 14.21
356 10.6458 204.02 205.07 14.28
357 10.6560 206.14 204.99 14.36
358 10.6661 205.69 204.91 14.34
359 10.6763 205.94 204.84 14.35
360 10.6864 204.09 204.77 14.29
361 10.6966 206.04 204.70 14.35
362 10.7067 204.94 204.63 14.32
363 10.7169 202.74 204.57 14.24
364 10.7270 204.62 204.51 14.30
365 10.7372 205.07 204.46 14.32
366 10.7473 202.96 204.42 14.25
367 10.7575 204.86 204.38 14.31
368 10.7676 205.17 204.36 14.32
369 10.7778 202.67 204.35 14.24
370 10.7879 204.25 204.36 14.29
371 10.7981 204.02 204.40 14.28
372 10.8082 206.77 204.49 14.38
373 10.8184 203.78 204.65 14.28
374 10.8285 204.38 204.93 14.30
375 10.8387 205.09 205.38 14.32
376 10.8488 206.23 206.07 14.36
377 10.8590 204.80 207.08 14.31
378 10.8691 207.30 208.51 14.40
379 10.8793 205.52 210.43 14.34
380 10.8894 207.76 212.86 14.41
381 10.8996 206.37 215.79 14.37
382 10.9097 207.52 219.11 14.41
383 10.9199 206.96 222.59 14.39
384 10.9300 212.80 225.90 14.59
385 10.9402 212.51 228.61 14.58
386 10.9503 215.11 230.27 14.67
387 10.9605 214.64 230.59 14.65
388 10.9706 213.53 229.54 14.61
389 10.9808 213.96 227.31 14.63
390 10.9909 210.16 224.24 14.50
391 11.0011 208.93 220.71 14.45
392 11.0112 210.91 217.13 14.52
393 11.0214 205.26 213.77 14.33
394 11.0315 205.74 210.83 14.34
395 11.0417 201.66 208.38 14.20
396 11.0518 202.21 206.44 14.22
397 11.0620 203.11 204.95 14.25
398 11.0721 202.41 203.84 14.23
399 11.0823 200.54 203.03 14.16
400 11.0924 200.62 202.44 14.16
401 11.1026 200.82 202.01 14.17
402 11.1127 201.65 201.68 14.20
403 11.1229 200.75 201.41 14.17
404 11.1330 197.63 201.20 14.06
405 11.1432 198.09 201.01 14.07
406 11.1533 199.26 200.84 14.12
407 11.1635 198.36 200.68 14.08
408 11.1736 200.18 200.54 14.15
409 11.1838 200.83 200.40 14.17
410 11.1939 200.35 200.27 14.15
411 11.2041 197.37 200.15 14.05
412 11.2142 199.00 200.04 14.11
413 11.2244 201.22 199.92 14.19
414 11.2345 199.73 199.82 14.13
415 11.2447 203.01 199.71 14.25
416 11.2548 200.66 199.61 14.17
417 11.2650 202.10 199.52 14.22
418 11.2751 201.43 199.43 14.19
419 11.2853 200.80 199.35 14.17
420 11.2954 202.21 199.28 14.22
421 11.3056 202.73 199.22 14.24
422 11.3157 201.74 199.18 14.20
423 11.3259 201.94 199.18 14.21
424 11.3360 204.38 199.22 14.30
425 11.3462 205.41 199.31 14.33
426 11.3563 202.66 199.48 14.24
427 11.3665 207.22 199.73 14.40
428 11.3766 209.53 200.05 14.48
429 11.3868 211.18 200.46 14.53
430 11.3969 214.02 200.92 14.63
431 11.4071 214.72 201.41 14.65
432 11.4172 215.29 201.86 14.67
433 11.4274 219.43 202.21 14.81
434 11.4375 218.68 202.43 14.79
435 11.4477 215.66 202.55 14.69
436 11.4578 215.89 202.58 14.69
437 11.4680 213.96 202.57 14.63
438 11.4781 211.94 202.54 14.56
439 11.4883 213.84 202.46 14.62
440 11.4984 213.55 202.31 14.61
441 11.5086 213.09 202.06 14.60
442 11.5187 211.36 201.67 14.54
443 11.5289 207.66 201.17 14.41
444 11.5390 206.49 200.58 14.37
445 11.5492 208.50 199.94 14.44
446 11.5593 205.42 199.29 14.33
447 11.5695 202.46 198.68 14.23
448 11.5796 201.65 198.13 14.20
449 11.5898 200.59 197.66 14.16
450 11.5999 199.58 197.26 14.13
451 11.6101 198.38 196.93 14.08
452 11.6202 197.42 196.67 14.05
453 11.6304 197.21 196.45 14.04
454 11.6405 198.82 196.27 14.10
455 11.6507 195.88 196.12 14.00
456 11.6608 196.53 195.98 14.02
457 11.6710 195.43 195.86 13.98
458 11.6811 196.12 195.75 14.00
459 11.6913 194.45 195.65 13.94
460 11.7014 195.45 195.55 13.98
461 11.7116 195.89 195.45 14.00
462 11.7217 196.20 195.35 14.01
463 11.7319 196.67 195.26 14.02
464 11.7420 196.77 195.16 14.03
465 11.7522 194.02 195.07 13.93
466 11.7623 194.10 194.98 13.93
467 11.7725 194.57 194.89 13.95
468 11.7826 192.50 194.80 13.87
469 11.7928 193.73 194.71 13.92
470 11.8029 192.46 194.63 13.87
471 11.8131 194.84 194.51 13.96
472 11.8232 194.96 194.43 13.96
473 11.8334 193.69 194.34 13.92
474 11.8435 191.40 194.25 13.83
475 11.8537 190.96 194.16 13.82
476 11.8638 195.21 194.08 13.97
477 11.8740 193.70 193.99 13.92
478 11.8841 192.21 193.91 13.86
479 11.8943 193.30 193.83 13.90
480 11.9044 193.10 193.75 13.90
481 11.9146 192.95 193.66 13.89
482 11.9247 192.51 193.58 13.88
483 11.9349 193.61 193.50 13.91
484 11.9450 193.48 193.42 13.91
485 11.9552 194.68 193.34 13.95
486 11.9653 191.85 193.26 13.85
487 11.9755 191.90 193.18 13.85
488 11.9856 196.30 193.10 14.01
489 11.9958 193.98 193.02 13.93
490 12.0059 191.41 192.94 13.84
491 12.0161 192.63 192.86 13.88
492 12.0262 194.36 192.78 13.94
493 12.0364 192.13 192.70 13.86
494 12.0465 191.63 192.62 13.84
495 12.0567 195.03 192.54 13.97
496 12.0668 196.27 192.47 14.01
497 12.0770 193.65 192.39 13.92
498 12.0871 189.72 192.31 13.77
499 12.0973 193.52 192.23 13.91
500 12.1074 191.61 192.15 13.84
501 12.1176 193.52 192.08 13.91
502 12.1277 192.81 192.00 13.89
503 12.1379 191.96 191.92 13.85
504 12.1480 190.88 191.85 13.82
505 12.1582 194.36 191.77 13.94
506 12.1683 191.82 191.69 13.85
507 12.1785 191.41 191.62 13.84
508 12.1886 190.21 191.54 13.79
509 12.1988 191.04 191.46 13.82
510 12.2089 193.17 191.39 13.90
511 12.2191 188.44 191.31 13.73
512 12.2292 193.71 191.24 13.92
513 12.2394 190.45 191.16 13.80
514 12.2495 192.51 191.09 13.88
515 12.2597 191.88 191.01 13.85
516 12.2698 188.53 190.93 13.73
517 12.2800 193.14 190.86 13.90
518 12.2901 191.14 190.78 13.83
519 12.3003 190.92 190.71 13.82
520 12.3104 190.18 190.63 13.79
521 12.3206 192.41 190.56 13.87
522 12.3307 190.73 190.49 13.81
523 12.3409 190.33 190.41 13.80
524 12.3510 189.44 190.34 13.76
525 12.3612 190.86 190.26 13.82
526 12.3713 191.58 190.19 13.84
527 12.3815 193.04 190.11 13.89
528 12.3916 191.68 190.04 13.84
529 12.4018 189.62 189.97 13.77
530 12.4119 188.66 189.89 13.74
531 12.4221 190.62 189.82 13.81
532 12.4322 191.42 189.75 13.84
533 12.4424 190.02 189.68 13.78
534 12.4525 189.60 189.61 13.77
535 12.4627 191.68 189.53 13.84
536 12.4728 189.02 189.46 13.75
537 12.4830 189.25 189.39 13.76
538 12.4931 190.09 189.32 13.79
539 12.5033 190.01 189.25 13.78
540 12.5134 192.05 189.18 13.86
541 12.5236 187.27 189.11 13.68
542 12.5337 189.54 189.04 13.77
543 12.5439 188.44 188.97 13.73
544 12.5540 189.98 188.90 13.78
545 12.5642 188.32 188.83 13.72
546 12.5743 188.81 188.76 13.74
547 12.5845 188.89 188.69 13.74
548 12.5946 186.36 188.62 13.65
549 12.6048 193.23 188.55 13.90
550 12.6149 188.07 188.58 13.71
551 12.6251 189.76 188.51 13.78
552 12.6352 187.69 188.45 13.70
553 12.6454 186.82 188.43 13.67
554 12.6555 188.46 188.36 13.73
555 12.6657 188.64 188.30 13.73
556 12.6758 187.87 188.24 13.71
557 12.6860 187.62 188.17 13.70
558 12.6961 185.28 188.11 13.61
559 12.7063 187.30 188.04 13.69
560 12.7164 187.45 187.98 13.69
561 12.7266 189.15 187.92 13.75
562 12.7367 188.99 187.86 13.75
563 12.7469 186.91 187.79 13.67
564 12.7570 186.75 187.73 13.67
565 12.7672 186.30 187.67 13.65
566 12.7773 189.29 187.61 13.76
567 12.7875 188.85 187.55 13.74
568 12.7976 186.17 187.49 13.64
569 12.8078 188.21 187.43 13.72
570 12.8179 187.02 187.37 13.68
571 12.8281 186.62 187.31 13.66
572 12.8382 189.31 187.26 13.76
573 12.8484 186.76 187.20 13.67
574 12.8585 188.91 187.14 13.74
575 12.8687 188.94 187.09 13.75
576 12.8788 187.29 187.03 13.69
577 12.8890 186.13 186.97 13.64
578 12.8991 188.12 186.92 13.72
579 12.9093 186.89 186.87 13.67
580 12.9194 184.77 186.81 13.59
581 12.9296 188.91 186.76 13.74
582 12.9397 185.04 186.71 13.60
583 12.9499 185.44 186.66 13.62
584 12.9600 184.26 186.61 13.57
585 12.9702 185.41 186.56 13.62
586 12.9803 186.01 186.51 13.64
587 12.9905 190.96 186.47 13.82
588 13.0006 185.78 186.42 13.63
589 13.0108 186.51 186.38 13.66
590 13.0209 184.74 186.33 13.59
591 13.0311 185.60 186.29 13.62
592 13.0412 183.12 186.25 13.53
593 13.0514 187.81 186.21 13.70
594 13.0615 184.99 186.18 13.60
595 13.0717 187.61 186.14 13.70
596 13.0818 187.01 186.11 13.68
597 13.0920 188.44 186.08 13.73
598 13.1021 189.00 186.05 13.75
599 13.1123 186.49 186.03 13.66
600 13.1224 185.78 186.01 13.63
601 13.1326 185.16 185.99 13.61
602 13.1427 186.92 185.98 13.67
603 13.1529 186.92 185.97 13.67
604 13.1630 186.91 185.96 13.67
605 13.1732 184.42 185.96 13.58
606 13.1833 187.51 185.97 13.69
607 13.1935 184.64 185.98 13.59
608 13.2036 185.99 186.01 13.64
609 13.2138 187.15 186.03 13.68
610 13.2239 186.48 186.07 13.66
611 13.2341 187.37 186.12 13.69
612 13.2442 187.23 186.18 13.68
613 13.2544 189.02 186.26 13.75
614 13.2645 186.49 186.36 13.66
615 13.2747 187.05 186.47 13.68
616 13.2848 186.51 186.61 13.66
617 13.2950 187.56 186.78 13.70
618 13.3051 188.75 186.99 13.74
619 13.3153 191.34 187.25 13.83
620 13.3254 192.05 187.58 13.86
621 13.3356 191.05 188.01 13.82
622 13.3457 192.69 188.61 13.88
623 13.3559 193.58 189.44 13.91
624 13.3660 196.70 190.64 14.02
625 13.3762 196.70 192.36 14.02
626 13.3863 200.48 194.83 14.16
627 13.3965 202.47 198.28 14.23
628 13.4066 207.53 202.99 14.41
629 13.4168 208.64 209.18 14.44
630 13.4269 217.34 216.99 14.74
631 13.4371 221.46 226.41 14.88
632 13.4472 230.87 237.20 15.19
633 13.4574 235.09 248.80 15.33
634 13.4675 242.18 260.33 15.56
635 13.4777 255.56 270.52 15.99
636 13.4878 264.48 277.96 16.26
637 13.4980 268.56 281.55 16.39
638 13.5081 277.10 280.90 16.65
639 13.5183 277.07 276.32 16.65
640 13.5284 269.51 268.52 16.42
641 13.5386 264.08 258.46 16.25
642 13.5487 255.92 247.27 16.00
643 13.5589 245.98 236.02 15.68
644 13.5690 234.55 225.53 15.32
645 13.5792 226.62 216.31 15.05
646 13.5893 217.82 208.60 14.76
647 13.5995 209.16 202.41 14.46
648 13.6096 205.11 197.62 14.32
649 13.6198 198.99 194.02 14.11
650 13.6299 195.89 191.38 14.00
651 13.6401 194.59 189.46 13.95
652 13.6502 189.56 188.07 13.77
653 13.6604 192.09 187.06 13.86
654 13.6705 191.91 186.30 13.85
655 13.6807 189.84 185.72 13.78
656 13.6908 188.50 185.26 13.73
657 13.7010 188.21 184.87 13.72
658 13.7111 189.95 184.54 13.78
659 13.7213 188.28 184.25 13.72
660 13.7314 185.55 184.00 13.62
661 13.7416 186.73 183.77 13.66
662 13.7517 187.18 183.56 13.68
663 13.7619 186.61 183.37 13.66
664 13.7720 185.85 183.20 13.63
665 13.7822 185.99 183.03 13.64
666 13.7923 185.10 182.88 13.61
667 13.8025 182.15 182.74 13.50
668 13.8126 184.55 182.61 13.59
669 13.8228 184.01 182.48 13.56
670 13.8329 185.35 182.37 13.61
671 13.8431 184.32 182.25 13.58
672 13.8532 183.19 182.15 13.53
673 13.8634 182.07 182.04 13.49
674 13.8735 180.43 181.95 13.43
675 13.8837 181.91 181.85 13.49
676 13.8938 185.15 181.76 13.61
677 13.9040 184.51 181.67 13.58
678 13.9141 185.13 181.59 13.61
679 13.9243 183.78 181.51 13.56
680 13.9344 184.29 181.43 13.58
681 13.9446 182.53 181.35 13.51
682 13.9547 181.60 181.28 13.48
683 13.9649 183.10 181.20 13.53
684 13.9750 182.76 181.13 13.52
685 13.9852 180.48 181.06 13.43
686 13.9953 183.54 180.99 13.55
687 14.0055 183.28 180.93 13.54
688 14.0156 179.90 180.86 13.41
689 14.0258 182.66 180.80 13.52
690 14.0359 180.98 181.07 13.45
691 14.0461 181.29 181.02 13.46
692 14.0562 181.96 180.96 13.49
693 14.0664 182.28 181.17 13.50
694 14.0765 183.64 181.16 13.55
695 14.0867 181.79 181.12 13.48
696 14.0968 182.68 181.08 13.52
697 14.1070 182.50 181.04 13.51
698 14.1171 178.81 181.01 13.37
699 14.1273 178.38 180.97 13.36
700 14.1374 181.99 180.93 13.49
701 14.1476 183.10 180.90 13.53
702 14.1577 179.71 181.07 13.41
703 14.1679 181.26 181.04 13.46
704 14.1780 180.67 181.02 13.44
705 14.1882 178.78 181.10 13.37
706 14.1983 182.68 181.08 13.52
707 14.2085 181.39 181.07 13.47
708 14.2186 180.88 181.05 13.45
709 14.2288 183.83 181.04 13.56
710 14.2389 180.69 181.04 13.44
711 14.2491 180.44 181.03 13.43
712 14.2592 183.48 181.03 13.55
713 14.2694 182.63 181.04 13.51
714 14.2795 180.29 181.04 13.43
715 14.2897 181.18 181.06 13.46
716 14.2998 182.94 181.08 13.53
717 14.3100 182.27 181.11 13.50
718 14.3201 182.39 181.15 13.51
719 14.3303 183.07 181.22 13.53
720 14.3404 179.41 181.31 13.39
721 14.3506 181.51 181.44 13.47
722 14.3607 185.49 181.60 13.62
723 14.3709 181.10 181.82 13.46
724 14.3810 183.06 182.00 13.53
725 14.3912 181.50 182.34 13.47
726 14.4013 184.71 182.73 13.59
727 14.4115 184.27 183.10 13.57
728 14.4216 183.93 183.54 13.56
729 14.4318 182.01 183.96 13.49
730 14.4419 185.25 184.30 13.61
731 14.4521 183.38 184.53 13.54
732 14.4622 183.60 184.63 13.55
733 14.4724 184.73 184.60 13.59
734 14.4825 183.64 184.46 13.55
735 14.4927 185.79 184.25 13.63
736 14.5028 182.96 183.99 13.53
737 14.5130 183.82 183.72 13.56
738 14.5231 180.92 183.49 13.45
739 14.5333 183.66 183.29 13.55
740 14.5434 183.91 183.16 13.56
741 14.5536 181.86 183.10 13.49
742 14.5637 184.29 183.10 13.58
743 14.5739 182.01 183.16 13.49
744 14.5840 181.70 183.28 13.48
745 14.5942 179.75 183.45 13.41
746 14.6043 182.39 183.66 13.51
747 14.6145 183.96 183.92 13.56
748 14.6246 184.05 184.21 13.57
749 14.6348 182.97 184.55 13.53
750 14.6449 184.70 184.94 13.59
751 14.6551 186.00 185.37 13.64
752 14.6652 187.96 185.85 13.71
753 14.6754 184.74 186.40 13.59
754 14.6855 187.31 187.01 13.69
755 14.6957 189.03 187.71 13.75
756 14.7058 190.77 188.49 13.81
757 14.7160 192.35 189.39 13.87
758 14.7261 194.12 190.43 13.93
759 14.7363 194.65 191.64 13.95
760 14.7464 198.17 193.08 14.08
761 14.7566 202.25 194.84 14.22
762 14.7667 208.95 197.06 14.45
763 14.7769 211.12 199.96 14.53
764 14.7870 221.67 203.89 14.89
765 14.7972 231.31 209.31 15.21
766 14.8073 238.56 216.88 15.45
767 14.8175 249.23 227.41 15.79
768 14.8276 257.94 241.84 16.06
769 14.8378 280.89 261.11 16.76
770 14.8479 297.35 286.05 17.24
771 14.8581 317.82 317.12 17.83
772 14.8682 351.00 354.20 18.73
773 14.8784 380.48 396.35 19.51
774 14.8885 413.50 441.57 20.33
775 14.8987 457.21 486.54 21.38
776 14.9088 495.16 526.66 22.25
777 14.9190 531.64 556.79 23.06
778 14.9291 563.81 573.20 23.74
779 14.9393 582.01 575.21 24.12
780 14.9494 589.86 564.99 24.29
781 14.9596 576.09 545.76 24.00
782 14.9697 551.02 520.89 23.47
783 14.9799 521.48 494.02 22.84
784 14.9900 484.97 468.77 22.02
785 15.0002 453.71 447.94 21.30
786 15.0103 425.80 432.91 20.63
787 15.0205 405.93 423.36 20.15
788 15.0306 401.43 417.48 20.04
789 15.0408 393.71 412.55 19.84
790 15.0509 393.95 405.82 19.85
791 15.0611 390.33 395.55 19.76
792 15.0712 376.30 381.28 19.40
793 15.0814 357.59 363.33 18.91
794 15.0915 335.66 342.54 18.32
795 15.1017 307.53 320.14 17.54
796 15.1118 284.86 297.65 16.88
797 15.1220 257.15 276.45 16.04
798 15.1321 241.40 257.52 15.54
799 15.1423 223.03 241.34 14.93
800 15.1524 210.12 228.04 14.50
801 15.1626 200.36 217.46 14.15
802 15.1727 196.38 209.25 14.01
803 15.1829 190.38 203.03 13.80
804 15.1930 189.67 198.38 13.77
805 15.2032 186.25 194.90 13.65
806 15.2133 185.03 192.29 13.60
807 15.2235 184.49 190.29 13.58
808 15.2336 180.74 188.72 13.44
809 15.2438 181.24 187.46 13.46
810 15.2539 180.15 186.40 13.42
811 15.2641 182.65 185.50 13.51
812 15.2742 181.30 184.71 13.46
813 15.2844 178.14 184.02 13.35
814 15.2945 176.78 183.40 13.30
815 15.3047 179.11 182.84 13.38
816 15.3148 177.93 182.33 13.34
817 15.3250 177.00 181.87 13.30
818 15.3351 179.73 181.45 13.41
819 15.3453 177.48 181.06 13.32
820 15.3554 176.20 180.70 13.27
821 15.3656 178.78 180.37 13.37
822 15.3757 177.60 180.07 13.33
823 15.3859 176.20 179.79 13.27
824 15.3960 177.22 179.52 13.31
825 15.4062 177.17 179.28 13.31
826 15.4163 176.88 179.05 13.30
827 15.4265 178.86 178.83 13.37
828 15.4366 176.56 178.63 13.29
829 15.4468 178.68 178.44 13.37
830 15.4569 175.20 178.26 13.24
831 15.4671 176.25 178.09 13.28
832 15.4772 177.01 177.93 13.30
833 15.4874 177.55 177.77 13.32
834 15.4975 175.88 177.63 13.26
835 15.5077 176.52 177.49 13.29
836 15.5178 177.86 177.36 13.34
837 15.5280 176.75 177.23 13.29
838 15.5381 174.03 177.11 13.19
839 15.5483 174.22 176.99 13.20
840 15.5584 176.10 176.88 13.27
841 15.5686 173.59 176.78 13.18
842 15.5787 173.81 176.67 13.18
843 15.5889 175.46 176.58 13.25
844 15.5990 174.92 176.48 13.23
845 15.6092 172.42 176.39 13.13
846 15.6193 172.91 176.30 13.15
847 15.6295 173.35 176.22 13.17
848 15.6396 175.48 176.13 13.25
849 15.6498 173.47 176.05 13.17
850 15.6599 174.29 175.98 13.20
851 15.6701 174.64 175.90 13.22
852 15.6802 175.24 175.83 13.24
853 15.6904 172.56 175.76 13.14
854 15.7005 176.34 175.69 13.28
855 15.7107 175.55 175.62 13.25
856 15.7208 171.41 175.56 13.09
857 15.7310 173.66 175.49 13.18
858 15.7411 172.23 175.43 13.12
859 15.7513 171.80 175.37 13.11
860 15.7614 173.62 175.31 13.18
861 15.7716 174.50 175.25 13.21
862 15.7817 174.09 175.20 13.19
863 15.7919 173.80 175.14 13.18
864 15.8020 171.32 175.09 13.09
865 15.8122 172.79 175.04 13.15
866 15.8223 171.34 174.65 13.09
867 15.8325 173.85 174.52 13.19
868 15.8426 175.26 174.48 13.24
869 15.8528 173.18 174.44 13.16
870 15.8629 171.60 174.24 13.10
871 15.8731 173.73 174.16 13.18
872 15.8832 174.04 174.13 13.19
873 15.8934 173.73 174.09 13.18
874 15.9035 173.07 174.06 13.16
875 15.9137 173.55 174.03 13.17
876 15.9238 170.34 173.99 13.05
877 15.9340 173.16 173.96 13.16
878 15.9441 171.89 173.93 13.11
879 15.9543 170.81 173.71 13.07
880 15.9644 172.88 173.68 13.15
881 15.9746 174.34 173.65 13.20
882 15.9847 171.26 173.53 13.09
883 15.9949 171.59 173.50 13.10
884 16.0050 173.69 173.48 13.18
885 16.0152 172.81 173.45 13.15
886 16.0253 172.55 173.43 13.14
887 16.0355 174.00 173.41 13.19
888 16.0456 174.58 173.38 13.21
889 16.0558 172.63 173.36 13.14
890 16.0659 172.35 173.34 13.13
891 16.0761 170.56 173.31 13.06
892 16.0862 174.62 173.29 13.21
893 16.0964 172.47 173.26 13.13
894 16.1065 171.77 173.24 13.11
895 16.1167 173.40 173.22 13.17
896 16.1268 172.63 173.20 13.14
897 16.1370 173.13 173.17 13.16
898 16.1471 174.31 173.26 13.20
899 16.1573 171.40 173.24 13.09
900 16.1674 173.17 173.21 13.16
901 16.1776 171.03 173.20 13.08
902 16.1877 176.38 173.23 13.28
903 16.1979 176.74 173.21 13.29
904 16.2080 173.62 173.19 13.18
905 16.2182 174.00 173.17 13.19
906 16.2283 172.24 173.15 13.12
907 16.2385 173.24 173.59 13.16
908 16.2486 171.58 173.58 13.10
909 16.2588 170.22 173.58 13.05
910 16.2689 171.16 173.57 13.08
911 16.2791 172.27 173.79 13.13
912 16.2892 171.66 173.79 13.10
913 16.2994 172.09 173.79 13.12
914 16.3095 172.68 173.79 13.14
915 16.3197 170.40 173.79 13.05
916 16.3298 171.85 173.80 13.11
917 16.3400 173.16 173.80 13.16
918 16.3501 171.26 173.81 13.09
919 16.3603 172.93 173.82 13.15
920 16.3704 170.25 173.83 13.05
921 16.3806 172.74 173.84 13.14
922 16.3907 173.16 173.85 13.16
923 16.4009 172.52 173.86 13.13
924 16.4110 172.42 173.88 13.13
925 16.4212 172.11 173.89 13.12
926 16.4313 169.65 173.91 13.03
927 16.4415 170.47 173.93 13.06
928 16.4516 170.87 173.95 13.07
929 16.4618 172.53 173.97 13.14
930 16.4719 171.90 174.00 13.11
931 16.4821 171.54 174.03 13.10
932 16.4922 172.01 174.06 13.12
933 16.5024 172.77 174.09 13.14
934 16.5125 171.83 174.12 13.11
935 16.5227 173.49 174.16 13.17
936 16.5328 173.80 174.20 13.18
937 16.5430 171.36 174.24 13.09
938 16.5531 174.64 174.29 13.22
939 16.5633 174.80 174.34 13.22
940 16.5734 170.79 174.40 13.07
941 16.5836 175.68 174.46 13.25
942 16.5937 174.03 174.52 13.19
943 16.6039 176.44 174.59 13.28
944 16.6140 175.52 174.66 13.25
945 16.6242 178.43 174.74 13.36
946 16.6343 177.98 174.82 13.34
947 16.6445 176.62 174.92 13.29
948 16.6546 178.96 175.01 13.38
949 16.6648 178.66 175.12 13.37
950 16.6749 176.95 175.24 13.30
951 16.6851 179.86 175.36 13.41
952 16.6952 178.79 175.49 13.37
953 16.7054 180.75 175.64 13.44
954 16.7155 181.36 175.79 13.47
955 16.7257 181.62 175.96 13.48
956 16.7358 180.61 176.15 13.44
957 16.7460 177.28 176.35 13.31
958 16.7561 177.17 176.56 13.31
959 16.7663 176.45 176.80 13.28
960 16.7764 175.90 177.06 13.26
961 16.7866 178.86 177.34 13.37
962 16.7967 177.22 177.65 13.31
963 16.8069 175.27 178.00 13.24
964 16.8170 176.00 178.37 13.27
965 16.8272 177.17 178.79 13.31
966 16.8373 175.70 179.25 13.26
967 16.8475 174.68 179.77 13.22
968 16.8576 174.89 180.35 13.22
969 16.8678 177.01 181.00 13.30
970 16.8779 176.16 181.75 13.27
971 16.8881 181.87 182.62 13.49
972 16.8982 180.77 183.64 13.45
973 16.9084 181.39 184.88 13.47
974 16.9185 186.94 186.42 13.67
975 16.9287 188.05 188.37 13.71
976 16.9388 191.52 190.89 13.84
977 16.9490 194.85 194.16 13.96
978 16.9591 201.06 198.40 14.18
979 16.9693 208.04 203.88 14.42
980 16.9794 214.16 210.82 14.63
981 16.9896 225.33 219.44 15.01
982 16.9997 238.62 229.92 15.45
983 17.0099 252.27 242.33 15.88
984 17.0200 269.53 256.65 16.42
985 17.0302 289.83 272.72 17.02
986 17.0403 313.68 290.22 17.71
987 17.0505 339.38 308.80 18.42
988 17.0606 367.42 328.34 19.17
989 17.0708 389.65 349.25 19.74
990 17.0809 408.02 372.37 20.20
991 17.0911 427.70 398.50 20.68
992 17.1012 444.07 427.93 21.07
993 17.1114 472.01 460.25 21.73
994 17.1215 501.13 494.11 22.39
995 17.1317 541.07 526.93 23.26
996 17.1418 577.97 554.99 24.04
997 17.1520 620.44 573.56 24.91
998 17.1621 645.59 579.63 25.41
999 17.1723 648.49 572.56 25.47
1000 17.1824 627.89 553.78 25.06
1001 17.1926 589.50 525.51 24.28
1002 17.2027 536.79 489.81 23.17
1003 17.2129 488.11 449.44 22.09
1004 17.2230 419.58 407.51 20.48
1005 17.2332 366.15 367.04 19.14
1006 17.2433 323.78 330.20 17.99
1007 17.2535 282.25 298.26 16.80
1008 17.2636 250.75 271.63 15.84
1009 17.2738 228.70 250.17 15.12
1010 17.2839 218.02 233.36 14.77
1011 17.2941 205.03 220.52 14.32
1012 17.3042 197.37 210.88 14.05
1013 17.3144 195.33 203.74 13.98
1014 17.3245 189.15 198.45 13.75
1015 17.3347 188.00 194.51 13.71
1016 17.3448 184.64 191.52 13.59
1017 17.3550 183.34 189.20 13.54
1018 17.3651 182.49 187.35 13.51
1019 17.3753 181.81 185.82 13.48
1020 17.3854 182.31 184.54 13.50
1021 17.3956 180.41 183.44 13.43
1022 17.4057 180.69 182.48 13.44
1023 17.4159 179.40 181.63 13.39
1024 17.4260 176.10 180.88 13.27
1025 17.4362 179.17 180.21 13.39
1026 17.4463 177.07 179.61 13.31
1027 17.4565 176.16 179.07 13.27
1028 17.4666 176.08 178.59 13.27
1029 17.4768 179.22 178.15 13.39
1030 17.4869 177.37 177.74 13.32
1031 17.4971 178.14 177.38 13.35
1032 17.5072 177.72 177.29 13.33
1033 17.5174 176.00 177.00 13.27
1034 17.5275 176.83 176.73 13.30
1035 17.5377 179.23 176.48 13.39
1036 17.5478 177.59 176.26 13.33
1037 17.5580 178.34 176.65 13.35
1038 17.5681 178.28 176.70 13.35
1039 17.5783 181.81 176.55 13.48
1040 17.5884 180.60 176.42 13.44
1041 17.5986 180.24 176.30 13.43
1042 17.6087 181.87 176.20 13.49
1043 17.6189 181.30 176.11 13.46
1044 17.6290 178.67 176.03 13.37
1045 17.6392 178.65 175.97 13.37
1046 17.6493 181.10 175.92 13.46
1047 17.6595 177.27 175.88 13.31
1048 17.6696 178.10 175.86 13.35
1049 17.6798 176.76 175.84 13.30
1050 17.6899 175.37 175.84 13.24
1051 17.7001 176.89 175.85 13.30
1052 17.7102 176.13 175.88 13.27
1053 17.7204 174.62 175.91 13.21
1054 17.7305 177.35 175.96 13.32
1055 17.7407 173.85 176.03 13.19
1056 17.7508 173.94 176.11 13.19
1057 17.7610 175.50 176.21 13.25
1058 17.7711 176.02 176.32 13.27
1059 17.7813 175.90 176.46 13.26
1060 17.7914 175.42 176.61 13.24
1061 17.8016 175.13 176.79 13.23
1062 17.8117 177.64 176.99 13.33
1063 17.8219 177.19 177.22 13.31
1064 17.8320 175.48 177.49 13.25
1065 17.8422 179.02 177.79 13.38
1066 17.8523 176.64 178.13 13.29
1067 17.8625 177.42 178.53 13.32
1068 17.8726 178.70 178.99 13.37
1069 17.8828 181.30 179.52 13.46
1070 17.8929 179.85 180.17 13.41
1071 17.9031 180.62 180.96 13.44
1072 17.9132 184.32 181.95 13.58
1073 17.9234 184.82 183.24 13.59
1074 17.9335 188.72 184.95 13.74
1075 17.9437 191.11 187.27 13.82
1076 17.9538 195.40 190.43 13.98
1077 17.9640 201.53 194.70 14.20
1078 17.9741 204.41 200.39 14.30
1079 17.9843 209.38 207.70 14.47
1080 17.9944 214.95 217.08 14.66
1081 18.0046 227.09 228.55 15.07
1082 18.0147 233.90 242.04 15.29
1083 18.0249 243.49 257.15 15.60
1084 18.0350 257.56 273.28 16.05
1085 18.0452 267.98 289.22 16.37
1086 18.0553 284.51 303.37 16.87
1087 18.0655 292.55 313.98 17.10
1088 18.0756 296.77 319.28 17.23
1089 18.0858 301.90 320.25 17.38
1090 18.0959 302.80 316.14 17.40
1091 18.1061 297.20 308.16 17.24
1092 18.1162 287.86 297.14 16.97
1093 18.1264 279.21 283.93 16.71
1094 18.1365 266.93 269.75 16.34
1095 18.1467 256.57 255.60 16.02
1096 18.1568 241.09 242.48 15.53
1097 18.1670 231.14 230.98 15.20
1098 18.1771 223.11 221.42 14.94
1099 18.1873 216.48 213.77 14.71
1100 18.1974 208.08 208.02 14.43
1101 18.2076 203.92 203.83 14.28
1102 18.2177 200.83 201.03 14.17
1103 18.2279 200.23 199.38 14.15
1104 18.2380 199.88 198.70 14.14
1105 18.2482 201.10 198.80 14.18
1106 18.2583 202.14 199.60 14.22
1107 18.2685 206.07 201.09 14.36
1108 18.2786 206.37 203.48 14.37
1109 18.2888 214.76 206.73 14.65
1110 18.2989 219.93 211.27 14.83
1111 18.3091 227.77 217.61 15.09
1112 18.3192 239.72 226.44 15.48
1113 18.3294 249.88 238.85 15.81
1114 18.3395 266.69 255.52 16.33
1115 18.3497 289.10 277.78 17.00
1116 18.3598 313.53 306.80 17.71
1117 18.3700 340.80 343.27 18.46
1118 18.3801 379.22 387.61 19.47
1119 18.3903 423.02 439.40 20.57
1120 18.4004 478.10 497.12 21.87
1121 18.4106 536.63 557.81 23.17
1122 18.4207 595.19 616.87 24.40
1123 18.4309 661.25 668.16 25.71
1124 18.4410 713.22 705.31 26.71
1125 18.4512 740.09 723.91 27.20
1126 18.4613 744.58 723.00 27.29
1127 18.4715 734.53 704.77 27.10
1128 18.4816 695.95 671.92 26.38
1129 18.4918 638.71 627.72 25.27
1130 18.5019 578.98 575.58 24.06
1131 18.5121 517.24 519.63 22.74
1132 18.5222 456.05 463.93 21.36
1133 18.5324 395.77 411.99 19.89
1134 18.5425 339.51 366.00 18.43
1135 18.5527 303.36 326.93 17.42
1136 18.5628 273.47 294.91 16.54
1137 18.5730 250.95 269.43 15.84
1138 18.5831 233.58 249.68 15.28
1139 18.5933 221.80 234.69 14.89
1140 18.6034 212.75 223.50 14.59
1141 18.6136 207.13 215.23 14.39
1142 18.6237 201.21 209.12 14.18
1143 18.6339 197.58 204.57 14.06
1144 18.6441 197.85 201.16 14.07
1145 18.6542 193.38 198.54 13.91
1146 18.6644 190.97 196.49 13.82
1147 18.6745 189.26 194.86 13.76
1148 18.6847 187.81 193.57 13.70
1149 18.6948 189.08 192.54 13.75
1150 18.7050 186.32 191.74 13.65
1151 18.7151 186.77 191.13 13.67
1152 18.7253 186.80 190.71 13.67
1153 18.7354 183.98 190.45 13.56
1154 18.7456 189.40 190.34 13.76
1155 18.7557 190.24 190.37 13.79
1156 18.7659 187.80 190.51 13.70
1157 18.7760 190.80 190.76 13.81
1158 18.7861 191.34 191.10 13.83
1159 18.7963 194.89 191.54 13.96
1160 18.8064 196.46 192.07 14.02
1161 18.8166 195.58 192.75 13.98
1162 18.8267 197.83 193.61 14.06
1163 18.8369 198.46 194.71 14.09
1164 18.8470 203.16 196.14 14.25
1165 18.8572 205.19 198.07 14.32
1166 18.8674 212.61 200.68 14.58
1167 18.8775 216.71 204.27 14.72
1168 18.8877 228.07 209.24 15.10
1169 18.8978 234.17 216.09 15.30
1170 18.9080 241.71 225.41 15.55
1171 18.9181 255.42 237.90 15.98
1172 18.9283 272.89 254.21 16.52
1173 18.9384 290.09 274.91 17.03
1174 18.9486 313.88 300.35 17.72
1175 18.9587 341.23 330.49 18.47
1176 18.9689 368.32 364.74 19.19
1177 18.9790 401.41 401.78 20.04
1178 18.9892 436.36 439.34 20.89
1179 18.9993 477.71 473.98 21.86
1180 19.0095 507.08 502.33 22.52
1181 19.0196 530.04 521.26 23.02
1182 19.0298 544.43 529.75 23.33
1183 19.0399 545.03 528.68 23.35
1184 19.0501 535.36 519.53 23.14
1185 19.0602 518.86 503.80 22.78
1186 19.0704 490.98 482.79 22.16
1187 19.0805 466.83 458.43 21.61
1188 19.0907 445.94 433.18 21.12
1189 19.1008 416.46 409.30 20.41
1190 19.1110 389.38 388.32 19.73
1191 19.1211 368.49 370.97 19.20
1192 19.1313 354.38 357.54 18.83
1193 19.1414 345.38 348.20 18.58
1194 19.1516 336.25 343.10 18.34
1195 19.1617 331.01 342.25 18.19
1196 19.1719 331.69 345.30 18.21
1197 19.1820 336.53 351.54 18.34
1198 19.1922 336.24 359.86 18.34
1199 19.2023 345.67 368.91 18.59
1200 19.2125 348.93 377.19 18.68
1201 19.2226 356.98 383.36 18.89
1202 19.2328 367.00 386.39 19.16
1203 19.2429 372.42 385.55 19.30
1204 19.2531 374.75 380.48 19.36
1205 19.2632 373.59 371.32 19.33
1206 19.2734 363.19 358.98 19.06
1207 19.2835 349.22 344.73 18.69
1208 19.2937 335.73 329.88 18.32
1209 19.3038 320.64 315.61 17.91
1210 19.3140 306.98 303.05 17.52
1211 19.3241 293.13 293.24 17.12
1212 19.3343 286.83 286.97 16.94
1213 19.3444 278.58 284.61 16.69
1214 19.3546 276.57 286.09 16.63
1215 19.3647 278.11 290.88 16.68
1216 19.3749 286.09 297.76 16.91
1217 19.3850 291.39 305.33 17.07
1218 19.3952 301.71 312.47 17.37
1219 19.4053 308.78 316.97 17.57
1220 19.4155 316.72 317.74 17.80
1221 19.4256 314.34 314.52 17.73
1222 19.4358 310.15 307.82 17.61
1223 19.4459 304.28 298.58 17.44
1224 19.4561 290.89 287.14 17.06
1225 19.4662 279.95 274.14 16.73
1226 19.4764 268.76 260.45 16.39
1227 19.4865 250.49 246.99 15.83
1228 19.4967 241.50 234.54 15.54
1229 19.5068 227.59 223.60 15.09
1230 19.5170 217.54 214.40 14.75
1231 19.5271 209.53 206.93 14.48
1232 19.5373 202.22 201.09 14.22
1233 19.5474 195.41 196.65 13.98
1234 19.5576 191.10 193.36 13.82
1235 19.5677 190.53 190.94 13.80
1236 19.5779 186.25 189.10 13.65
1237 19.5880 183.86 187.62 13.56
1238 19.5982 186.15 186.30 13.64
1239 19.6083 181.39 185.07 13.47
1240 19.6185 182.91 183.86 13.52
1241 19.6286 178.61 182.67 13.36
1242 19.6388 176.96 181.48 13.30
1243 19.6489 173.86 180.29 13.19
1244 19.6591 173.85 179.14 13.19
1245 19.6692 175.54 178.06 13.25
1246 19.6794 175.27 177.07 13.24
1247 19.6895 173.97 176.19 13.19
1248 19.6997 174.87 175.41 13.22
1249 19.7098 171.12 174.74 13.08
1250 19.7200 170.79 174.26 13.07
1251 19.7301 174.01 173.77 13.19
1252 19.7403 171.92 173.36 13.11
1253 19.7504 170.29 173.00 13.05
1254 19.7606 169.24 172.69 13.01
1255 19.7707 167.89 172.47 12.96
1256 19.7809 170.31 172.23 13.05
1257 19.7910 172.53 172.01 13.14
1258 19.8012 166.66 171.82 12.91
1259 19.8113 168.35 171.64 12.97
1260 19.8215 169.26 171.48 13.01
1261 19.8316 168.06 171.33 12.96
1262 19.8418 167.48 171.19 12.94
1263 19.8519 170.43 171.06 13.05
1264 19.8621 170.65 170.94 13.06
1265 19.8722 169.07 170.83 13.00
1266 19.8824 168.12 170.73 12.97
1267 19.8925 168.77 170.63 12.99
1268 19.9027 167.32 170.55 12.94
1269 19.9128 167.68 170.47 12.95
1270 19.9230 168.06 170.40 12.96
1271 19.9331 171.04 170.34 13.08
1272 19.9433 172.03 170.29 13.12
1273 19.9534 171.80 170.24 13.11
1274 19.9636 167.28 169.80 12.93
1275 19.9737 168.65 169.78 12.99
1276 19.9839 165.42 169.77 12.86
1277 19.9940 168.61 169.77 12.98
1278 20.0042 164.44 169.58 12.82
1279 20.0143 169.06 169.57 13.00
1280 20.0245 171.97 169.62 13.11
1281 20.0346 169.15 169.70 13.01
1282 20.0448 168.35 169.81 12.97
1283 20.0549 169.63 169.98 13.02
1284 20.0651 171.33 170.19 13.09
1285 20.0752 170.87 170.46 13.07
1286 20.0854 168.16 170.93 12.97
1287 20.0955 173.11 171.57 13.16
1288 20.1057 172.78 172.43 13.14
1289 20.1158 173.49 173.55 13.17
1290 20.1260 173.85 174.95 13.19
1291 20.1361 174.75 176.70 13.22
1292 20.1463 175.89 178.75 13.26
1293 20.1564 179.49 180.95 13.40
1294 20.1666 178.28 183.44 13.35
1295 20.1767 182.37 185.92 13.50
1296 20.1869 181.18 188.17 13.46
1297 20.1970 185.49 189.79 13.62
1298 20.2072 182.77 190.75 13.52
1299 20.2173 186.89 190.98 13.67
1300 20.2275 185.09 190.49 13.60
1301 20.2376 182.44 189.42 13.51
1302 20.2478 181.14 187.82 13.46
1303 20.2579 182.43 185.91 13.51
1304 20.2681 181.48 183.74 13.47
1305 20.2782 182.34 181.47 13.50
1306 20.2884 181.39 179.25 13.47
1307 20.2985 175.43 177.21 13.24
1308 20.3087 175.57 175.41 13.25
1309 20.3188 173.73 173.90 13.18
1310 20.3290 171.97 172.66 13.11
1311 20.3391 175.61 171.68 13.25
1312 20.3493 171.10 170.77 13.08
1313 20.3594 171.45 170.22 13.09
1314 20.3696 172.71 169.83 13.14
1315 20.3797 172.70 169.57 13.14
1316 20.3899 172.92 169.42 13.15
1317 20.4000 169.53 169.26 13.02
1318 20.4102 169.56 169.25 13.02
1319 20.4203 170.38 169.30 13.05
1320 20.4305 166.02 169.39 12.88
1321 20.4406 168.92 169.51 13.00
1322 20.4508 172.16 169.66 13.12
1323 20.4609 170.77 169.83 13.07
1324 20.4711 170.97 170.03 13.08
1325 20.4812 173.53 170.25 13.17
1326 20.4914 168.79 170.52 12.99
1327 20.5015 172.10 170.86 13.12
1328 20.5117 172.03 171.32 13.12
1329 20.5218 171.48 171.93 13.10
1330 20.5320 173.09 172.78 13.16
1331 20.5421 173.61 173.97 13.18
1332 20.5523 174.88 175.66 13.22
1333 20.5624 175.65 177.88 13.25
1334 20.5726 176.95 180.80 13.30
1335 20.5827 182.12 184.56 13.50
1336 20.5929 185.60 189.23 13.62
1337 20.6030 186.43 194.82 13.65
1338 20.6132 191.45 201.29 13.84
1339 20.6233 196.76 208.36 14.03
1340 20.6335 201.15 215.68 14.18
1341 20.6436 205.24 222.66 14.33
1342 20.6538 213.70 228.55 14.62
1343 20.6639 215.18 232.60 14.67
1344 20.6741 219.05 234.39 14.80
1345 20.6842 221.88 233.95 14.90
1346 20.6944 220.45 231.63 14.85
1347 20.7045 214.83 227.84 14.66
1348 20.7147 211.67 222.85 14.55
1349 20.7248 206.06 216.94 14.35
1350 20.7350 199.89 210.45 14.14
1351 20.7451 195.25 203.83 13.97
1352 20.7553 191.21 197.50 13.83
1353 20.7654 183.53 191.76 13.55
1354 20.7756 178.85 186.76 13.37
1355 20.7857 177.27 182.56 13.31
1356 20.7959 172.88 179.12 13.15
1357 20.8060 173.80 176.43 13.18
1358 20.8162 171.39 174.29 13.09
1359 20.8263 172.37 172.65 13.13
1360 20.8365 168.42 171.39 12.98
1361 20.8466 170.78 170.43 13.07
1362 20.8568 168.31 169.71 12.97
1363 20.8669 168.87 169.16 12.99
1364 20.8771 169.12 168.72 13.00
1365 20.8872 166.86 168.35 12.92
1366 20.8974 168.16 168.05 12.97
1367 20.9075 165.91 167.79 12.88
1368 20.9177 168.18 167.57 12.97
1369 20.9278 163.96 167.38 12.80
1370 20.9380 166.79 167.20 12.91
1371 20.9481 166.36 167.04 12.90
1372 20.9583 167.00 166.90 12.92
1373 20.9684 167.48 166.78 12.94
1374 20.9786 165.83 166.66 12.88
1375 20.9887 164.57 166.55 12.83
1376 20.9989 166.16 166.46 12.89
1377 21.0090 164.85 166.37 12.84
1378 21.0192 164.10 166.28 12.81
1379 21.0293 166.42 166.21 12.90
1380 21.0395 167.92 166.24 12.96
1381 21.0496 165.52 166.18 12.87
1382 21.0598 168.40 166.12 12.98
1383 21.0699 164.54 166.07 12.83
1384 21.0801 167.67 166.02 12.95
1385 21.0902 165.28 166.03 12.86
1386 21.1004 168.52 165.99 12.98
1387 21.1105 167.47 165.95 12.94
1388 21.1207 166.08 165.92 12.89
1389 21.1308 166.30 165.90 12.90
1390 21.1410 167.03 165.87 12.92
1391 21.1511 166.54 165.85 12.90
1392 21.1613 166.74 165.81 12.91
1393 21.1714 166.46 165.80 12.90
1394 21.1816 168.54 165.79 12.98
1395 21.1917 164.82 165.79 12.84
1396 21.2019 163.96 165.80 12.80
1397 21.2120 166.47 165.79 12.90
1398 21.2222 166.34 165.80 12.90
1399 21.2323 166.49 165.82 12.90
1400 21.2425 166.80 165.85 12.92
1401 21.2526 165.07 165.88 12.85
1402 21.2628 166.63 165.93 12.91
1403 21.2729 166.61 165.98 12.91
1404 21.2831 167.42 166.04 12.94
1405 21.2932 166.78 166.12 12.91
1406 21.3034 166.24 166.20 12.89
1407 21.3135 166.94 166.31 12.92
1408 21.3237 164.95 166.44 12.84
1409 21.3338 167.93 166.60 12.96
1410 21.3440 166.85 166.79 12.92
1411 21.3541 166.20 167.05 12.89
1412 21.3643 171.10 167.38 13.08
1413 21.3744 169.71 167.81 13.03
1414 21.3846 169.15 168.40 13.01
1415 21.3947 172.10 169.20 13.12
1416 21.4049 173.23 170.25 13.16
1417 21.4150 176.13 171.64 13.27
1418 21.4252 175.64 173.43 13.25
1419 21.4353 179.66 175.69 13.40
1420 21.4455 180.16 178.44 13.42
1421 21.4556 185.85 181.70 13.63
1422 21.4658 186.99 185.39 13.67
1423 21.4759 192.54 189.39 13.88
1424 21.4861 195.35 193.46 13.98
1425 21.4962 201.00 197.27 14.18
1426 21.5064 204.99 200.39 14.32
1427 21.5165 212.77 202.46 14.59
1428 21.5267 214.27 203.31 14.64
1429 21.5368 213.65 202.99 14.62
1430 21.5470 213.88 201.72 14.62
1431 21.5571 215.62 199.71 14.68
1432 21.5673 212.23 197.07 14.57
1433 21.5774 207.69 193.99 14.41
1434 21.5876 209.47 190.61 14.47
1435 21.5977 200.91 187.20 14.17
1436 21.6079 197.27 183.99 14.05
1437 21.6180 192.62 181.17 13.88
1438 21.6282 190.49 178.74 13.80
1439 21.6383 190.51 176.95 13.80
1440 21.6485 191.45 175.74 13.84
1441 21.6586 180.66 175.15 13.44
1442 21.6688 184.78 175.17 13.59
1443 21.6789 184.38 175.77 13.58
1444 21.6891 183.69 177.05 13.55
1445 21.6992 186.26 178.96 13.65
1446 21.7094 189.54 181.45 13.77
1447 21.7195 194.17 184.46 13.93
1448 21.7297 197.23 187.85 14.04
1449 21.7398 202.19 191.44 14.22
1450 21.7500 208.46 194.92 14.44
1451 21.7601 212.81 197.91 14.59
1452 21.7703 214.97 200.04 14.66
1453 21.7804 219.34 201.08 14.81
1454 21.7906 217.23 201.05 14.74
1455 21.8007 213.84 200.12 14.62
1456 21.8109 213.79 198.51 14.62
1457 21.8210 210.69 196.36 14.52
1458 21.8312 205.76 193.79 14.34
1459 21.8413 201.97 190.98 14.21
1460 21.8515 200.69 188.15 14.17
1461 21.8616 194.52 185.56 13.95
1462 21.8718 193.45 183.44 13.91
1463 21.8819 188.49 181.96 13.73
1464 21.8921 187.71 181.29 13.70
1465 21.9022 188.50 181.53 13.73
1466 21.9124 190.61 182.82 13.81
1467 21.9225 192.23 185.25 13.86
1468 21.9327 194.80 188.89 13.96
1469 21.9428 203.40 193.76 14.26
1470 21.9530 215.82 199.81 14.69
1471 21.9631 224.13 206.88 14.97
1472 21.9733 238.62 214.68 15.45
1473 21.9834 258.79 222.64 16.09
1474 21.9936 273.04 230.01 16.52
1475 22.0037 284.33 235.83 16.86
1476 22.0139 293.38 239.30 17.13
1477 22.0240 290.52 240.11 17.04
1478 22.0342 284.49 238.39 16.87
1479 22.0443 277.57 234.60 16.66
1480 22.0545 263.25 229.14 16.22
1481 22.0646 247.78 222.43 15.74
1482 22.0748 238.52 214.96 15.44
1483 22.0849 223.09 207.30 14.94
1484 22.0951 211.04 199.95 14.53
1485 22.1052 199.83 193.27 14.14
1486 22.1154 188.15 187.46 13.72
1487 22.1255 183.51 182.57 13.55
1488 22.1357 176.72 178.57 13.29
1489 22.1458 173.81 175.39 13.18
1490 22.1560 169.50 172.90 13.02
1491 22.1661 169.01 171.00 13.00
1492 22.1763 168.54 169.56 12.98
1493 22.1864 166.98 168.47 12.92
1494 22.1966 167.35 167.65 12.94
1495 22.2067 164.33 167.04 12.82
1496 22.2169 166.92 166.59 12.92
1497 22.2270 166.43 166.27 12.90
1498 22.2372 164.77 166.06 12.84
1499 22.2473 163.41 165.96 12.78
1500 22.2575 164.32 165.98 12.82
1501 22.2676 164.60 166.11 12.83
1502 22.2778 164.35 166.37 12.82
1503 22.2879 165.58 166.78 12.87
1504 22.2981 164.72 167.32 12.83
1505 22.3082 164.80 168.01 12.84
1506 22.3184 166.69 168.82 12.91
1507 22.3285 166.28 169.71 12.89
1508 22.3387 168.36 170.62 12.98
1509 22.3488 165.29 171.46 12.86
1510 22.3590 168.62 172.13 12.99
1511 22.3691 167.32 172.54 12.94
1512 22.3793 168.54 172.68 12.98
1513 22.3894 166.98 172.57 12.92
1514 22.3996 169.55 172.29 13.02
1515 22.4097 168.23 171.89 12.97
1516 22.4199 168.25 171.43 12.97
1517 22.4300 168.64 170.96 12.99
1518 22.4402 171.05 170.54 13.08
1519 22.4503 167.51 170.26 12.94
1520 22.4605 166.99 170.33 12.92
1521 22.4706 168.99 170.47 13.00
1522 22.4808 168.57 170.84 12.98
1523 22.4909 171.19 171.37 13.08
1524 22.5011 171.51 172.08 13.10
1525 22.5112 168.98 172.81 13.00
1526 22.5214 171.47 173.52 13.09
1527 22.5315 172.20 173.91 13.12
1528 22.5417 172.75 173.96 13.14
1529 22.5518 172.40 173.71 13.13
1530 22.5620 174.74 173.22 13.22
1531 22.5721 172.43 172.52 13.13
1532 22.5823 170.52 171.66 13.06
1533 22.5924 168.56 170.68 12.98
1534 22.6026 167.82 169.59 12.95
1535 22.6127 167.75 168.47 12.95
1536 22.6229 165.65 167.37 12.87
1537 22.6330 167.12 166.36 12.93
1538 22.6432 166.69 165.46 12.91
1539 22.6533 165.85 164.69 12.88
1540 22.6635 163.72 164.05 12.80
1541 22.6736 163.96 163.54 12.80
1542 22.6838 163.25 163.14 12.78
1543 22.6939 161.54 162.83 12.71
1544 22.7041 164.25 162.61 12.82
1545 22.7142 162.80 162.45 12.76
1546 22.7244 163.33 162.35 12.78
1547 22.7345 163.64 162.29 12.79
1548 22.7447 163.08 162.23 12.77
1549 22.7548 161.93 162.25 12.73
1550 22.7650 164.38 162.30 12.82
1551 22.7751 162.55 162.40 12.75
1552 22.7853 161.55 162.55 12.71
1553 22.7954 163.33 162.76 12.78
1554 22.8056 162.82 163.04 12.76
1555 22.8157 161.17 163.46 12.70
1556 22.8259 163.75 164.03 12.80
1557 22.8360 162.92 164.81 12.76
1558 22.8462 163.76 165.84 12.80
1559 22.8563 166.75 167.18 12.91
1560 22.8665 165.46 168.87 12.86
1561 22.8766 169.17 170.96 13.01
1562 22.8868 167.38 173.43 12.94
1563 22.8969 171.51 176.28 13.10
1564 22.9071 174.99 179.40 13.23
1565 22.9172 175.07 182.66 13.23
1566 22.9274 175.61 185.82 13.25
1567 22.9375 175.15 188.59 13.23
1568 22.9477 179.55 190.67 13.40
1569 22.9578 177.89 191.87 13.34
1570 22.9680 179.43 192.19 13.40
1571 22.9781 176.09 191.63 13.27
1572 22.9883 178.51 190.57 13.36
1573 22.9984 180.49 189.04 13.43
1574 23.0086 177.30 187.16 13.32
1575 23.0187 176.76 185.05 13.30
1576 23.0289 174.24 182.85 13.20
1577 23.0390 174.24 180.67 13.20
1578 23.0492 171.12 178.75 13.08
1579 23.0593 173.68 177.12 13.18
1580 23.0695 172.09 175.79 13.12
1581 23.0796 172.35 174.73 13.13
1582 23.0898 170.34 173.85 13.05
1583 23.0999 172.29 173.08 13.13
1584 23.1101 173.88 172.37 13.19
1585 23.1202 172.56 171.68 13.14
1586 23.1304 170.00 170.99 13.04
1587 23.1405 173.26 170.28 13.16
1588 23.1507 171.99 169.54 13.11
1589 23.1608 171.35 168.80 13.09
1590 23.1710 170.38 168.06 13.05
1591 23.1811 170.83 167.35 13.07
1592 23.1913 169.97 166.71 13.04
1593 23.2014 169.06 166.15 13.00
1594 23.2116 167.56 165.71 12.94
1595 23.2217 168.68 165.38 12.99
1596 23.2319 168.26 165.20 12.97
1597 23.2420 165.92 165.16 12.88
1598 23.2522 167.44 165.28 12.94
1599 23.2623 166.98 165.58 12.92
1600 23.2725 169.59 166.09 13.02
1601 23.2826 169.13 166.85 13.01
1602 23.2928 171.57 167.95 13.10
1603 23.3029 175.33 169.48 13.24
1604 23.3131 175.84 171.57 13.26
1605 23.3232 177.52 174.41 13.32
1606 23.3334 181.75 178.18 13.48
1607 23.3435 186.04 183.07 13.64
1608 23.3537 193.31 189.28 13.90
1609 23.3638 198.19 196.93 14.08
1610 23.3740 206.60 206.05 14.37
1611 23.3841 211.86 216.56 14.56
1612 23.3943 225.69 228.18 15.02
1613 23.4044 231.90 240.37 15.23
1614 23.4146 241.85 252.28 15.55
1615 23.4247 252.63 262.75 15.89
1616 23.4349 262.92 270.56 16.21
1617 23.4450 269.00 274.82 16.40
1618 23.4552 272.59 275.41 16.51
1619 23.4653 273.06 272.86 16.52
1620 23.4755 266.23 267.91 16.32
1621 23.4856 260.75 261.12 16.15
1622 23.4958 253.78 252.79 15.93
1623 23.5059 244.87 243.18 15.65
1624 23.5161 237.70 232.72 15.42
1625 23.5262 227.49 222.06 15.08
1626 23.5364 218.60 211.83 14.78
1627 23.5465 208.98 202.48 14.46
1628 23.5567 199.19 194.27 14.11
1629 23.5668 193.73 187.29 13.92
1630 23.5770 184.12 181.52 13.57
1631 23.5871 178.90 176.88 13.38
1632 23.5973 177.38 173.23 13.32
1633 23.6074 171.34 170.42 13.09
1634 23.6176 174.09 168.29 13.19
1635 23.6277 167.17 166.72 12.93
1636 23.6379 166.21 165.57 12.89
1637 23.6480 164.91 164.72 12.84
1638 23.6582 165.26 164.09 12.86
1639 23.6683 162.58 163.60 12.75
1640 23.6785 163.74 163.16 12.80
1641 23.6886 161.37 162.74 12.70
1642 23.6988 157.87 162.31 12.56
1643 23.7089 158.53 161.87 12.59
1644 23.7191 159.52 161.42 12.63
1645 23.7292 161.03 160.97 12.69
1646 23.7394 159.97 160.51 12.65
1647 23.7495 159.58 160.05 12.63
1648 23.7597 155.94 159.60 12.49
1649 23.7698 160.55 159.16 12.67
1650 23.7800 157.88 158.74 12.56
1651 23.7901 158.70 158.36 12.60
1652 23.8003 158.52 158.01 12.59
1653 23.8104 160.30 157.69 12.66
1654 23.8206 158.51 157.41 12.59
1655 23.8307 155.85 157.16 12.48
1656 23.8409 157.33 156.95 12.54
1657 23.8510 157.14 156.75 12.54
1658 23.8612 154.61 156.57 12.43
1659 23.8713 156.81 156.41 12.52
1660 23.8815 154.84 156.27 12.44
1661 23.8916 154.00 156.13 12.41
1662 23.9018 157.56 156.01 12.55
1663 23.9119 154.53 155.89 12.43
1664 23.9221 155.59 155.78 12.47
1665 23.9322 155.59 155.64 12.47
1666 23.9424 158.14 155.53 12.58
1667 23.9525 155.06 155.43 12.45
1668 23.9627 155.24 155.34 12.46
1669 23.9728 154.97 155.24 12.45
1670 23.9830 153.95 155.16 12.41
1671 23.9931 154.50 155.05 12.43
1672 24.0033 155.25 155.01 12.46
1673 24.0134 156.79 154.93 12.52
1674 24.0236 153.91 154.85 12.41
1675 24.0337 154.42 154.77 12.43
1676 24.0439 153.42 154.70 12.39
1677 24.0540 153.88 154.63 12.41
1678 24.0642 155.47 154.58 12.47
1679 24.0743 154.98 154.50 12.45
1680 24.0845 155.93 154.43 12.49
1681 24.0946 154.60 154.36 12.43
1682 24.1048 152.55 154.30 12.35
1683 24.1149 153.22 154.23 12.38
1684 24.1251 153.17 154.17 12.38
1685 24.1352 154.28 154.10 12.42
1686 24.1454 154.32 154.04 12.42
1687 24.1555 154.87 154.01 12.44
1688 24.1657 154.22 153.95 12.42
1689 24.1758 151.90 153.89 12.32
1690 24.1860 152.29 153.84 12.34
1691 24.1961 151.60 153.78 12.31
1692 24.2063 151.82 153.72 12.32
1693 24.2164 154.08 153.68 12.41
1694 24.2266 154.48 153.63 12.43
1695 24.2367 152.72 153.58 12.36
1696 24.2469 152.96 153.52 12.37
1697 24.2570 150.54 153.47 12.27
1698 24.2672 153.48 153.42 12.39
1699 24.2773 150.99 153.36 12.29
1700 24.2875 153.39 153.31 12.38
1701 24.2976 153.35 153.26 12.38
1702 24.3078 153.27 153.21 12.38
1703 24.3179 153.85 153.16 12.40
1704 24.3281 154.53 153.11 12.43
1705 24.3382 153.22 153.06 12.38
1706 24.3484 152.76 153.02 12.36
1707 24.3585 151.54 152.97 12.31
1708 24.3687 152.54 152.92 12.35
1709 24.3788 151.00 152.87 12.29
1710 24.3890 154.08 152.83 12.41
1711 24.3991 150.83 152.78 12.28
1712 24.4093 154.74 152.74 12.44
1713 24.4194 152.93 152.69 12.37
1714 24.4296 151.31 152.58 12.30
1715 24.4397 151.18 152.54 12.30
1716 24.4499 150.20 152.51 12.26
1717 24.4600 150.71 152.47 12.28
1718 24.4702 151.26 152.43 12.30
1719 24.4803 154.48 152.40 12.43
1720 24.4905 152.78 152.33 12.36
1721 24.5006 152.46 152.30 12.35
1722 24.5108 151.66 152.27 12.32
1723 24.5209 151.07 152.24 12.29
1724 24.5311 150.21 152.21 12.26
1725 24.5412 152.80 152.19 12.36
1726 24.5514 152.39 152.16 12.34
1727 24.5615 152.22 152.14 12.34
1728 24.5717 149.36 152.11 12.22
1729 24.5818 151.75 152.09 12.32
1730 24.5920 152.93 152.07 12.37
1731 24.6021 151.57 152.05 12.31
1732 24.6123 151.75 152.03 12.32
1733 24.6224 151.60 152.02 12.31
1734 24.6326 151.08 152.01 12.29
1735 24.6427 151.09 151.99 12.29
1736 24.6529 152.39 151.99 12.34
1737 24.6630 152.40 152.05 12.35
1738 24.6732 150.61 152.04 12.27
1739 24.6833 152.72 152.05 12.36
1740 24.6935 153.26 152.06 12.38
1741 24.7036 151.93 152.07 12.33
1742 24.7138 152.71 152.09 12.36
1743 24.7239 153.22 152.15 12.38
1744 24.7341 153.70 152.19 12.40
1745 24.7442 154.56 152.23 12.43
1746 24.7544 152.41 152.29 12.35
1747 24.7645 153.47 152.36 12.39
1748 24.7747 153.33 152.44 12.38
1749 24.7848 154.02 152.54 12.41
1750 24.7950 154.34 152.66 12.42
1751 24.8051 153.79 152.80 12.40
1752 24.8153 154.85 152.98 12.44
1753 24.8254 154.21 153.18 12.42
1754 24.8356 156.54 153.43 12.51
1755 24.8457 154.98 153.73 12.45
1756 24.8559 156.46 154.10 12.51
1757 24.8660 155.12 154.55 12.45
1758 24.8762 159.71 155.12 12.64
1759 24.8863 158.85 155.83 12.60
1760 24.8965 159.91 156.74 12.65
1761 24.9066 162.24 157.90 12.74
1762 24.9168 164.53 159.35 12.83
1763 24.9269 163.18 161.11 12.77
1764 24.9371 165.73 163.21 12.87
1765 24.9472 168.40 165.61 12.98
1766 24.9574 169.88 168.28 13.03
1767 24.9675 171.52 171.10 13.10
1768 24.9777 175.88 173.90 13.26
1769 24.9878 177.41 176.44 13.32
1770 24.9980 181.84 178.45 13.48
1771 25.0081 180.89 179.81 13.45
1772 25.0183 183.06 180.39 13.53
1773 25.0284 180.52 180.38 13.44
1774 25.0386 182.40 179.99 13.51
1775 25.0487 182.12 179.41 13.50
1776 25.0589 178.98 178.75 13.38
1777 25.0690 179.53 178.08 13.40
1778 25.0792 176.21 177.43 13.27
1779 25.0893 180.10 176.94 13.42
1780 25.0995 178.02 176.73 13.34
1781 25.1096 177.09 176.85 13.31
1782 25.1198 174.70 177.27 13.22
1783 25.1299 175.44 177.87 13.25
1784 25.1401 173.76 178.42 13.18
1785 25.1502 172.41 178.70 13.13
1786 25.1604 172.93 178.53 13.15
1787 25.1705 173.94 177.90 13.19
1788 25.1807 171.07 176.89 13.08
1789 25.1908 170.20 175.62 13.05
1790 25.2010 168.54 174.18 12.98
1791 25.2111 167.12 172.59 12.93
1792 25.2213 168.27 170.86 12.97
1793 25.2314 166.98 169.04 12.92
1794 25.2416 164.96 167.22 12.84
1795 25.2517 164.09 165.54 12.81
1796 25.2619 163.50 164.09 12.79
1797 25.2720 162.83 162.96 12.76
1798 25.2822 161.32 162.23 12.70
1799 25.2923 161.42 161.94 12.71
1800 25.3025 163.34 162.15 12.78
1801 25.3126 161.64 162.94 12.71
1802 25.3228 166.30 164.38 12.90
1803 25.3329 166.88 166.55 12.92
1804 25.3431 169.32 169.55 13.01
1805 25.3532 170.09 173.43 13.04
1806 25.3634 172.65 178.22 13.14
1807 25.3735 176.65 183.90 13.29
1808 25.3837 182.12 190.35 13.50
1809 25.3938 188.53 197.33 13.73
1810 25.4040 195.71 204.46 13.99
1811 25.4141 201.07 211.15 14.18
1812 25.4243 204.13 216.70 14.29
1813 25.4344 207.54 220.44 14.41
1814 25.4446 211.55 222.07 14.54
1815 25.4547 210.74 221.70 14.52
1816 25.4649 211.62 219.79 14.55
1817 25.4750 207.60 216.80 14.41
1818 25.4852 202.16 213.01 14.22
1819 25.4953 200.80 208.54 14.17
1820 25.5055 196.08 203.48 14.00
1821 25.5156 189.70 198.00 13.77
1822 25.5258 187.02 192.48 13.68
1823 25.5359 180.13 187.27 13.42
1824 25.5461 177.42 182.74 13.32
1825 25.5562 176.34 179.09 13.28
1826 25.5664 175.97 176.48 13.27
1827 25.5765 172.45 174.97 13.13
1828 25.5867 174.03 174.57 13.19
1829 25.5968 171.28 175.25 13.09
1830 25.6070 174.81 176.93 13.22
1831 25.6171 178.32 179.45 13.35
1832 25.6273 179.30 182.61 13.39
1833 25.6374 181.83 186.11 13.48
1834 25.6476 183.20 189.53 13.54
1835 25.6577 187.20 192.41 13.68
1836 25.6679 188.19 194.34 13.72
1837 25.6780 187.99 195.09 13.71
1838 25.6882 190.48 194.73 13.80
1839 25.6983 189.60 193.47 13.77
1840 25.7085 187.60 191.54 13.70
1841 25.7186 182.45 189.08 13.51
1842 25.7288 181.08 186.14 13.46
1843 25.7389 179.90 182.77 13.41
1844 25.7491 178.86 179.10 13.37
1845 25.7592 169.31 175.31 13.01
1846 25.7694 167.41 171.60 12.94
1847 25.7795 166.73 168.13 12.91
1848 25.7897 162.43 165.00 12.74
1849 25.7998 160.61 162.28 12.67
1850 25.8100 159.49 159.99 12.63
1851 25.8201 159.61 158.11 12.63
1852 25.8303 157.41 156.63 12.55
1853 25.8404 157.60 155.51 12.55
1854 25.8506 156.17 154.72 12.50
1855 25.8607 156.79 154.23 12.52
1856 25.8709 154.34 154.02 12.42
1857 25.8810 157.44 154.09 12.55
1858 25.8912 156.71 154.44 12.52
1859 25.9013 156.37 155.09 12.50
1860 25.9115 160.93 156.07 12.69
1861 25.9216 159.51 157.41 12.63
1862 25.9318 161.09 159.18 12.69
1863 25.9419 162.26 161.34 12.74
1864 25.9521 164.85 163.93 12.84
1865 25.9622 168.61 166.90 12.98
1866 25.9724 171.26 170.18 13.09
1867 25.9825 173.25 173.58 13.16
1868 25.9927 178.15 176.85 13.35
1869 26.0028 180.98 179.64 13.45
1870 26.0130 184.45 181.58 13.58
1871 26.0231 183.03 182.52 13.53
1872 26.0333 183.01 182.44 13.53
1873 26.0434 181.81 181.50 13.48
1874 26.0536 178.36 179.95 13.36
1875 26.0637 177.77 177.96 13.33
1876 26.0739 177.79 175.57 13.33
1877 26.0840 176.45 172.85 13.28
1878 26.0942 171.10 169.86 13.08
1879 26.1043 171.10 166.72 13.08
1880 26.1145 165.26 163.63 12.86
1881 26.1246 164.15 160.71 12.81
1882 26.1348 157.51 158.08 12.55
1883 26.1449 158.14 155.77 12.58
1884 26.1551 158.22 153.85 12.58
1885 26.1652 155.00 152.17 12.45
1886 26.1754 154.43 150.83 12.43
1887 26.1855 149.10 149.74 12.21
1888 26.1957 151.79 148.86 12.32
1889 26.2058 149.00 148.16 12.21
1890 26.2160 148.04 147.60 12.17
1891 26.2261 147.60 147.16 12.15
1892 26.2363 146.12 146.80 12.09
1893 26.2464 146.04 146.49 12.08
1894 26.2566 144.82 146.24 12.03
1895 26.2667 146.91 146.02 12.12
1896 26.2769 145.73 145.83 12.07
1897 26.2870 144.59 145.65 12.02
1898 26.2972 145.38 145.50 12.06
1899 26.3073 144.45 145.37 12.02
1900 26.3175 143.98 145.25 12.00
1901 26.3276 145.59 145.15 12.07
1902 26.3378 140.78 145.07 11.87
1903 26.3479 143.70 144.99 11.99
1904 26.3581 148.22 144.93 12.17
1905 26.3682 142.41 144.89 11.93
1906 26.3784 143.60 144.85 11.98
1907 26.3885 142.37 144.83 11.93
1908 26.3987 146.97 144.81 12.12
1909 26.4088 143.88 144.79 11.99
1910 26.4190 145.27 144.76 12.05
1911 26.4291 144.46 144.71 12.02
1912 26.4393 144.62 144.65 12.03
1913 26.4494 144.45 144.46 12.02
1914 26.4596 142.79 144.37 11.95
1915 26.4697 142.81 144.28 11.95
1916 26.4799 143.05 144.18 11.96
1917 26.4900 144.25 144.08 12.01
1918 26.5002 141.93 143.98 11.91
1919 26.5103 144.20 143.82 12.01
1920 26.5205 144.49 143.71 12.02
1921 26.5306 141.07 143.61 11.88
1922 26.5408 142.06 143.51 11.92
1923 26.5509 143.05 143.42 11.96
1924 26.5611 142.95 143.34 11.96
1925 26.5712 140.35 143.27 11.85
1926 26.5814 141.80 143.20 11.91
1927 26.5915 144.90 143.14 12.04
1928 26.6017 144.74 143.09 12.03
1929 26.6118 143.74 143.05 11.99
1930 26.6220 142.79 143.01 11.95
1931 26.6321 142.93 142.97 11.96
1932 26.6423 142.15 142.95 11.92
1933 26.6524 139.47 142.92 11.81
1934 26.6626 143.63 142.90 11.98
1935 26.6727 142.59 142.88 11.94
1936 26.6829 143.36 142.81 11.97
1937 26.6930 142.34 142.80 11.93
1938 26.7032 145.70 142.81 12.07
1939 26.7133 143.94 142.81 12.00
1940 26.7235 141.96 142.85 11.91
1941 26.7336 140.84 142.88 11.87
1942 26.7438 143.96 142.91 12.00
1943 26.7539 141.71 142.93 11.90
1944 26.7641 143.46 143.00 11.98
1945 26.7742 141.28 143.09 11.89
1946 26.7844 142.12 143.21 11.92
1947 26.7945 143.38 143.40 11.97
1948 26.8047 142.70 143.61 11.95
1949 26.8148 145.14 143.90 12.05
1950 26.8250 146.38 144.30 12.10
1951 26.8351 142.79 144.80 11.95
1952 26.8453 146.08 145.45 12.09
1953 26.8554 147.85 146.26 12.16
1954 26.8656 148.38 147.26 12.18
1955 26.8757 149.34 148.45 12.22
1956 26.8859 151.39 149.84 12.30
1957 26.8960 151.58 151.39 12.31
1958 26.9062 153.79 153.07 12.40
1959 26.9163 154.97 154.77 12.45
1960 26.9265 154.46 156.37 12.43
1961 26.9366 157.44 157.71 12.55
1962 26.9468 156.90 158.64 12.53
1963 26.9569 159.45 159.09 12.63
1964 26.9671 158.95 159.09 12.61
1965 26.9772 157.77 158.74 12.56
1966 26.9874 157.85 158.23 12.56
1967 26.9975 157.65 157.52 12.56
1968 27.0077 157.77 156.71 12.56
1969 27.0178 157.21 155.81 12.54
1970 27.0280 154.42 154.86 12.43
1971 27.0381 154.78 153.88 12.44
1972 27.0483 155.73 153.10 12.48
1973 27.0584 154.81 152.58 12.44
1974 27.0686 152.06 152.38 12.33
1975 27.0787 152.51 152.54 12.35
1976 27.0889 152.48 153.12 12.35
1977 27.0990 152.32 154.09 12.34
1978 27.1092 154.11 155.50 12.41
1979 27.1193 154.22 157.29 12.42
1980 27.1295 156.77 159.40 12.52
1981 27.1396 154.97 161.73 12.45
1982 27.1498 158.31 164.11 12.58
1983 27.1599 160.44 166.34 12.67
1984 27.1701 162.17 168.15 12.73
1985 27.1802 165.58 169.35 12.87
1986 27.1904 163.95 169.86 12.80
1987 27.2005 163.46 169.74 12.79
1988 27.2107 164.44 169.13 12.82
1989 27.2208 163.77 168.15 12.80
1990 27.2310 166.74 166.88 12.91
1991 27.2411 163.94 165.37 12.80
1992 27.2513 161.93 163.63 12.73
1993 27.2614 159.33 161.72 12.62
1994 27.2716 157.39 159.73 12.55
1995 27.2817 159.49 157.75 12.63
1996 27.2919 157.49 155.86 12.55
1997 27.3020 155.54 154.10 12.47
1998 27.3122 153.54 152.52 12.39
1999 27.3223 151.46 151.14 12.31
2000 27.3325 151.70 149.96 12.32
2001 27.3426 149.60 148.93 12.23
2002 27.3528 149.96 148.04 12.25
2003 27.3629 147.18 147.23 12.13
2004 27.3731 147.96 146.49 12.16
2005 27.3832 146.62 145.82 12.11
2006 27.3934 148.11 145.20 12.17
2007 27.4035 144.84 144.65 12.04
2008 27.4137 143.35 144.15 11.97
2009 27.4238 142.56 143.69 11.94
2010 27.4340 143.01 143.27 11.96
2011 27.4441 144.30 142.88 12.01
2012 27.4543 144.25 142.53 12.01
2013 27.4644 140.32 142.23 11.85
2014 27.4746 143.23 141.96 11.97
2015 27.4847 143.02 141.74 11.96
2016 27.4949 144.04 141.56 12.00
2017 27.5050 140.58 141.42 11.86
2018 27.5152 140.08 141.32 11.84
2019 27.5253 139.95 141.25 11.83
2020 27.5355 142.11 141.22 11.92
2021 27.5456 143.35 141.22 11.97
2022 27.5558 142.75 141.26 11.95
2023 27.5659 143.81 141.33 11.99
2024 27.5761 142.10 141.45 11.92
2025 27.5862 141.41 141.61 11.89
2026 27.5964 144.91 141.84 12.04
2027 27.6065 142.88 142.15 11.95
2028 27.6167 145.89 142.55 12.08
2029 27.6268 143.69 143.08 11.99
2030 27.6370 144.45 143.77 12.02
2031 27.6471 145.78 144.64 12.07
2032 27.6573 146.99 145.74 12.12
2033 27.6674 146.29 147.09 12.10
2034 27.6776 147.30 148.72 12.14
2035 27.6877 148.31 150.65 12.18
2036 27.6979 150.58 152.87 12.27
2037 27.7080 152.22 155.36 12.34
2038 27.7182 155.03 158.05 12.45
2039 27.7283 156.68 160.81 12.52
2040 27.7385 157.12 163.48 12.53
2041 27.7486 161.00 165.89 12.69
2042 27.7588 164.18 167.91 12.81
2043 27.7689 164.20 169.48 12.81
2044 27.7791 164.29 170.59 12.82
2045 27.7892 167.55 171.24 12.94
2046 27.7994 169.27 171.40 13.01
2047 27.8095 169.68 171.13 13.03
2048 27.8197 168.49 170.30 12.98
2049 27.8298 171.15 169.01 13.08
2050 27.8400 168.55 167.36 12.98
2051 27.8501 171.92 165.46 13.11
2052 27.8603 168.36 163.46 12.98
2053 27.8704 167.09 161.46 12.93
2054 27.8806 166.80 159.60 12.92
2055 27.8907 165.59 157.91 12.87
2056 27.9009 163.18 156.52 12.77
2057 27.9110 160.04 155.49 12.65
2058 27.9212 162.70 154.92 12.76
2059 27.9313 161.91 154.87 12.72
2060 27.9415 158.26 155.34 12.58
2061 27.9516 162.02 156.36 12.73
2062 27.9618 160.69 157.89 12.68
2063 27.9719 161.34 159.84 12.70
2064 27.9821 159.28 162.05 12.62
2065 27.9922 162.60 164.40 12.75
2066 28.0024 162.77 166.57 12.76
2067 28.0125 162.02 168.32 12.73
2068 28.0227 164.79 169.44 12.84
2069 28.0328 166.87 169.91 12.92
2070 28.0430 163.16 169.83 12.77
2071 28.0531 165.89 169.39 12.88
2072 28.0633 162.06 168.71 12.73
2073 28.0734 164.21 167.82 12.81
2074 28.0836 163.24 166.65 12.78
2075 28.0937 160.37 165.13 12.66
2076 28.1039 160.46 163.23 12.67
2077 28.1140 157.69 161.02 12.56
2078 28.1242 155.63 158.67 12.48
2079 28.1343 154.31 156.31 12.42
2080 28.1445 154.65 154.06 12.44
2081 28.1546 150.71 151.98 12.28
2082 28.1648 149.77 150.09 12.24
2083 28.1749 147.92 148.36 12.16
2084 28.1851 147.58 146.79 12.15
2085 28.1952 141.68 145.37 11.90
2086 28.2054 145.02 144.10 12.04
2087 28.2155 145.50 142.96 12.06
2088 28.2257 140.41 142.01 11.85
2089 28.2358 141.22 141.20 11.88
2090 28.2460 142.12 140.51 11.92
2091 28.2561 141.93 139.94 11.91
2092 28.2663 139.78 139.47 11.82
2093 28.2764 140.47 139.05 11.85
2094 28.2866 139.95 138.74 11.83
2095 28.2967 138.96 138.47 11.79
2096 28.3069 138.31 138.24 11.76
2097 28.3170 139.28 138.11 11.80
2098 28.3272 140.05 137.94 11.83
2099 28.3373 139.78 137.80 11.82
2100 28.3475 138.91 137.68 11.79
2101 28.3576 137.85 137.57 11.74
2102 28.3678 139.44 137.47 11.81
2103 28.3779 138.31 137.38 11.76
2104 28.3881 139.02 137.33 11.79
2105 28.3982 137.42 137.26 11.72
2106 28.4084 137.68 137.20 11.73
2107 28.4185 139.29 137.15 11.80
2108 28.4287 138.76 137.10 11.78
2109 28.4388 137.62 137.06 11.73
2110 28.4490 140.92 137.04 11.87
2111 28.4591 140.14 137.01 11.84
2112 28.4693 139.12 136.99 11.79
2113 28.4794 136.29 136.98 11.67
2114 28.4896 137.96 136.98 11.75
2115 28.4997 138.55 136.97 11.77
2116 28.5099 136.15 136.98 11.67
2117 28.5200 139.96 136.99 11.83
2118 28.5302 138.14 137.01 11.75
2119 28.5403 137.21 137.04 11.71
2120 28.5505 138.71 137.08 11.78
2121 28.5606 136.68 137.13 11.69
2122 28.5708 136.12 137.20 11.67
2123 28.5809 137.56 137.29 11.73
2124 28.5911 137.23 137.40 11.71
2125 28.6012 137.24 137.54 11.71
2126 28.6114 139.62 137.71 11.82
2127 28.6215 138.65 137.93 11.78
2128 28.6317 139.00 138.19 11.79
2129 28.6418 140.24 138.51 11.84
2130 28.6520 139.79 138.89 11.82
2131 28.6621 138.31 139.34 11.76
2132 28.6723 138.84 139.87 11.78
2133 28.6824 141.46 140.48 11.89
2134 28.6926 141.99 141.18 11.92
2135 28.7027 143.24 141.98 11.97
2136 28.7129 142.10 142.87 11.92
2137 28.7230 142.28 143.87 11.93
2138 28.7332 145.12 145.00 12.05
2139 28.7433 148.38 146.32 12.18
2140 28.7535 147.51 147.89 12.15
2141 28.7636 150.36 149.78 12.26
2142 28.7738 155.06 152.05 12.45
2143 28.7839 157.25 154.71 12.54
2144 28.7941 161.00 157.72 12.69
2145 28.8042 165.03 161.05 12.85
2146 28.8144 168.93 164.54 13.00
2147 28.8245 173.99 167.97 13.19
2148 28.8347 172.46 171.07 13.13
2149 28.8448 179.59 173.49 13.40
2150 28.8550 179.84 174.98 13.41
2151 28.8651 180.50 175.45 13.44
2152 28.8753 177.79 175.11 13.33
2153 28.8854 175.33 174.19 13.24
2154 28.8956 176.28 172.90 13.28
2155 28.9057 171.92 171.37 13.11
2156 28.9159 170.34 169.63 13.05
2157 28.9260 171.07 167.60 13.08
2158 28.9362 164.12 165.30 12.81
2159 28.9463 162.57 162.80 12.75
2160 28.9565 159.18 160.20 12.62
2161 28.9666 155.54 157.61 12.47
2162 28.9768 153.04 155.11 12.37
2163 28.9869 149.57 152.77 12.23
2164 28.9971 148.18 150.65 12.17
2165 29.0072 147.61 148.78 12.15
2166 29.0174 146.93 147.16 12.12
2167 29.0275 145.19 145.79 12.05
2168 29.0377 143.90 144.62 12.00
2169 29.0478 139.96 143.62 11.83
2170 29.0580 143.81 142.74 11.99
2171 29.0681 144.88 142.04 12.04
2172 29.0783 141.65 141.47 11.90
2173 29.0884 142.44 141.03 11.93
2174 29.0986 143.87 140.70 11.99
2175 29.1087 143.93 140.48 12.00
2176 29.1189 142.40 140.35 11.93
2177 29.1290 144.43 140.27 12.02
2178 29.1392 141.50 140.28 11.90
2179 29.1493 144.71 140.35 12.03
2180 29.1595 141.74 140.51 11.91
2181 29.1696 143.75 140.79 11.99
2182 29.1798 144.06 141.20 12.00
2183 29.1899 143.17 141.77 11.97
2184 29.2001 143.65 142.53 11.99
2185 29.2102 143.83 143.49 11.99
2186 29.2204 144.01 144.70 12.00
2187 29.2305 147.36 146.18 12.14
2188 29.2407 147.17 147.96 12.13
2189 29.2508 146.59 150.04 12.11
2190 29.2610 148.42 152.42 12.18
2191 29.2711 147.85 155.04 12.16
2192 29.2813 150.19 157.85 12.26
2193 29.2914 154.41 160.81 12.43
2194 29.3016 154.67 163.86 12.44
2195 29.3117 159.26 166.99 12.62
2196 29.3219 161.69 170.14 12.72
2197 29.3320 164.31 173.15 12.82
2198 29.3422 165.26 175.76 12.86
2199 29.3523 167.25 177.68 12.93
2200 29.3625 168.80 178.65 12.99
2201 29.3726 171.19 178.66 13.08
2202 29.3828 169.93 178.01 13.04
2203 29.3929 168.89 176.72 13.00
2204 29.4031 172.93 175.20 13.15
2205 29.4132 170.31 173.58 13.05
2206 29.4234 167.69 171.86 12.95
2207 29.4335 169.75 169.99 13.03
2208 29.4437 166.30 167.90 12.90
2209 29.4538 163.64 165.61 12.79
2210 29.4640 163.32 163.31 12.78
2211 29.4741 163.78 160.77 12.80
2212 29.4843 159.40 158.23 12.63
2213 29.4944 156.11 155.83 12.49
2214 29.5046 154.57 153.55 12.43
2215 29.5147 151.51 151.48 12.31
2216 29.5249 152.97 149.63 12.37
2217 29.5350 148.53 147.96 12.19
2218 29.5452 148.37 146.45 12.18
2219 29.5553 145.81 145.04 12.07
2220 29.5655 145.40 143.75 12.06
2221 29.5756 143.30 142.56 11.97
2222 29.5858 141.10 141.50 11.88
2223 29.5959 142.80 140.57 11.95
2224 29.6061 140.23 139.76 11.84
2225 29.6162 142.26 139.07 11.93
2226 29.6264 137.43 138.49 11.72
2227 29.6365 139.64 138.01 11.82
2228 29.6467 138.87 137.61 11.78
2229 29.6568 138.78 137.29 11.78
2230 29.6670 139.32 137.04 11.80
2231 29.6771 137.49 136.85 11.73
2232 29.6873 138.21 136.72 11.76
2233 29.6974 137.25 136.64 11.72
2234 29.7076 137.57 136.60 11.73
2235 29.7177 136.47 136.62 11.68
2236 29.7279 139.41 136.68 11.81
2237 29.7380 136.40 136.81 11.68
2238 29.7482 137.07 137.01 11.71
2239 29.7583 138.32 137.31 11.76
2240 29.7685 139.08 137.72 11.79
2241 29.7786 138.26 138.26 11.76
2242 29.7888 138.93 138.98 11.79
2243 29.7989 140.04 139.89 11.83
2244 29.8091 141.99 141.02 11.92
2245 29.8192 139.72 142.38 11.82
2246 29.8294 142.80 143.98 11.95
2247 29.8395 145.79 145.80 12.07
2248 29.8497 147.53 147.79 12.15
2249 29.8598 145.29 149.87 12.05
2250 29.8700 149.31 151.91 12.22
2251 29.8801 151.41 153.73 12.31
2252 29.8903 151.01 155.11 12.29
2253 29.9004 149.24 155.93 12.22
2254 29.9106 150.35 156.07 12.26
2255 29.9207 151.22 155.77 12.30
2256 29.9309 149.17 155.11 12.21
2257 29.9410 147.08 154.22 12.13
2258 29.9512 147.05 153.15 12.13
2259 29.9613 145.06 151.93 12.04
2260 29.9715 145.44 150.55 12.06
2261 29.9816 148.73 149.02 12.20
2262 29.9918 143.23 147.45 11.97
2263 30.0019 144.18 145.93 12.01
2264 30.0121 142.47 144.52 11.94
2265 30.0222 142.85 143.27 11.95
2266 30.0324 142.25 142.24 11.93
2267 30.0425 141.54 141.42 11.90
2268 30.0527 140.88 140.81 11.87
2269 30.0628 139.95 140.39 11.83
2270 30.0730 141.20 140.16 11.88
2271 30.0831 143.05 140.04 11.96
2272 30.0933 143.68 140.01 11.99
2273 30.1034 140.96 140.03 11.87
2274 30.1136 142.78 140.06 11.95
2275 30.1237 141.58 140.10 11.90
2276 30.1339 142.70 140.12 11.95
2277 30.1440 139.98 140.14 11.83
2278 30.1542 140.83 140.17 11.87
2279 30.1643 142.25 140.23 11.93
2280 30.1745 141.87 140.31 11.91
2281 30.1846 141.50 140.41 11.90
2282 30.1948 144.93 140.54 12.04
2283 30.2049 143.44 140.73 11.98
2284 30.2151 143.82 140.97 11.99
2285 30.2252 143.50 141.31 11.98
2286 30.2354 144.30 141.76 12.01
2287 30.2455 146.83 142.38 12.12
2288 30.2557 143.33 143.18 11.97
2289 30.2658 144.40 144.20 12.02
2290 30.2760 144.91 145.49 12.04
2291 30.2861 147.79 147.10 12.16
2292 30.2963 148.42 149.08 12.18
2293 30.3064 150.66 151.51 12.27
2294 30.3166 151.25 154.45 12.30
2295 30.3267 156.91 157.96 12.53
2296 30.3369 156.71 162.12 12.52
2297 30.3470 165.51 166.96 12.86
2298 30.3572 165.07 172.60 12.85
2299 30.3673 175.26 179.12 13.24
2300 30.3775 183.29 186.60 13.54
2301 30.3876 188.09 195.12 13.71
2302 30.3978 202.16 204.59 14.22
2303 30.4079 212.30 214.78 14.57
2304 30.4181 222.21 225.17 14.91
2305 30.4282 229.79 235.19 15.16
2306 30.4384 240.48 243.97 15.51
2307 30.4485 252.57 250.79 15.89
2308 30.4587 253.76 255.27 15.93
2309 30.4688 256.15 257.35 16.00
2310 30.4790 256.89 257.19 16.03
2311 30.4891 253.26 255.01 15.91
2312 30.4993 252.04 251.11 15.88
2313 30.5094 248.79 245.77 15.77
2314 30.5196 242.75 239.26 15.58
2315 30.5297 238.20 231.81 15.43
2316 30.5399 229.88 223.70 15.16
2317 30.5500 219.75 215.17 14.82
2318 30.5602 211.55 206.46 14.54
2319 30.5703 201.87 197.77 14.21
2320 30.5805 194.52 189.33 13.95
2321 30.5906 186.76 181.40 13.67
2322 30.6008 176.57 174.15 13.29
2323 30.6109 173.18 167.72 13.16
2324 30.6211 164.14 162.16 12.81
2325 30.6312 159.99 157.44 12.65
2326 30.6414 155.99 153.49 12.49
2327 30.6515 152.80 150.24 12.36
2328 30.6617 152.68 147.59 12.36
2329 30.6718 146.35 145.44 12.10
2330 30.6820 142.87 143.71 11.95
2331 30.6921 144.06 142.32 12.00
2332 30.7023 142.49 141.20 11.94
2333 30.7124 142.49 140.28 11.94
2334 30.7226 138.64 139.53 11.77
2335 30.7327 138.59 138.91 11.77
2336 30.7429 139.62 138.38 11.82
2337 30.7530 138.64 137.94 11.77
2338 30.7632 139.84 137.57 11.83
2339 30.7733 139.10 137.24 11.79
2340 30.7835 135.06 136.97 11.62
2341 30.7936 137.82 136.73 11.74
2342 30.8038 138.32 136.53 11.76
2343 30.8139 136.45 136.36 11.68
2344 30.8241 135.86 136.24 11.66
2345 30.8342 137.94 136.14 11.74
2346 30.8444 139.07 136.10 11.79
2347 30.8545 137.61 136.09 11.73
2348 30.8647 139.27 136.13 11.80
2349 30.8748 139.34 136.21 11.80
2350 30.8850 140.86 136.36 11.87
2351 30.8951 140.64 136.58 11.86
2352 30.9053 142.37 136.85 11.93
2353 30.9154 140.77 137.18 11.86
2354 30.9256 142.59 137.59 11.94
2355 30.9357 140.71 138.06 11.86
2356 30.9459 143.32 138.61 11.97
2357 30.9560 145.77 139.17 12.07
2358 30.9662 145.29 139.83 12.05
2359 30.9763 148.76 140.56 12.20
2360 30.9865 145.63 141.37 12.07
2361 30.9966 147.32 142.30 12.14
2362 31.0068 147.10 143.36 12.13
2363 31.0169 145.69 144.55 12.07
2364 31.0271 147.33 145.85 12.14
2365 31.0372 147.42 147.19 12.14
2366 31.0474 148.37 148.50 12.18
2367 31.0575 145.56 149.65 12.06
2368 31.0677 146.23 150.54 12.09
2369 31.0778 145.38 151.09 12.06
2370 31.0880 144.10 151.32 12.00
2371 31.0981 142.98 151.28 11.96
2372 31.1083 145.38 151.12 12.06
2373 31.1184 145.21 150.93 12.05
2374 31.1286 143.38 150.76 11.97
2375 31.1387 142.84 150.61 11.95
2376 31.1489 143.29 150.43 11.97
2377 31.1590 142.66 150.18 11.94
2378 31.1692 144.70 149.80 12.03
2379 31.1793 145.53 149.26 12.06
2380 31.1895 143.12 148.55 11.96
2381 31.1996 144.82 147.68 12.03
2382 31.2098 145.19 146.69 12.05
2383 31.2199 141.63 145.65 11.90
2384 31.2301 144.95 144.64 12.04
2385 31.2402 142.15 143.69 11.92
2386 31.2504 140.73 142.82 11.86
2387 31.2605 141.40 142.02 11.89
2388 31.2707 138.76 141.27 11.78
2389 31.2808 140.71 140.57 11.86
2390 31.2910 139.37 139.88 11.81
2391 31.3011 135.62 139.24 11.65
2392 31.3113 139.34 138.66 11.80
2393 31.3214 136.95 138.16 11.70
2394 31.3316 139.72 137.76 11.82
2395 31.3417 136.99 137.45 11.70
2396 31.3519 138.77 137.20 11.78
2397 31.3620 137.68 137.03 11.73
2398 31.3722 137.61 136.88 11.73
2399 31.3823 137.33 136.76 11.72
2400 31.3925 137.50 136.67 11.73
2401 31.4026 136.91 136.60 11.70
2402 31.4128 137.57 136.59 11.73
2403 31.4229 138.47 136.62 11.77
2404 31.4331 138.83 136.74 11.78
2405 31.4432 139.66 136.96 11.82
2406 31.4534 138.01 137.27 11.75
2407 31.4635 139.69 137.70 11.82
2408 31.4737 139.73 138.25 11.82
2409 31.4838 137.85 138.93 11.74
2410 31.4940 142.16 139.75 11.92
2411 31.5041 140.78 140.70 11.87
2412 31.5143 139.01 141.60 11.79
2413 31.5244 139.19 142.70 11.80
2414 31.5346 141.81 143.75 11.91
2415 31.5447 142.87 144.67 11.95
2416 31.5549 141.63 145.24 11.90
2417 31.5650 141.68 145.58 11.90
2418 31.5752 140.57 145.58 11.86
2419 31.5853 142.18 145.32 11.92
2420 31.5955 141.21 144.82 11.88
2421 31.6056 141.43 144.31 11.89
2422 31.6158 139.65 143.73 11.82
2423 31.6259 142.21 143.10 11.93
2424 31.6361 140.40 142.36 11.85
2425 31.6462 140.65 141.59 11.86
2426 31.6564 140.43 140.75 11.85
2427 31.6665 137.61 139.88 11.73
2428 31.6767 140.39 139.02 11.85
2429 31.6868 139.99 138.25 11.83
2430 31.6970 141.10 137.59 11.88
2431 31.7071 137.01 137.02 11.71
2432 31.7173 138.33 136.57 11.76
2433 31.7274 138.09 136.26 11.75
2434 31.7376 139.73 136.08 11.82
2435 31.7477 140.01 136.03 11.83
2436 31.7579 140.96 136.12 11.87
2437 31.7680 142.93 136.31 11.96
2438 31.7782 142.06 136.62 11.92
2439 31.7883 142.28 137.03 11.93
2440 31.7985 145.87 137.51 12.08
2441 31.8086 148.12 138.06 12.17
2442 31.8188 149.03 138.63 12.21
2443 31.8289 154.02 139.18 12.41
2444 31.8391 158.18 139.67 12.58
2445 31.8492 157.43 140.09 12.55
2446 31.8594 158.63 140.44 12.59
2447 31.8695 158.28 140.76 12.58
2448 31.8797 156.43 141.11 12.51
2449 31.8898 155.04 141.54 12.45
2450 31.9000 157.38 142.05 12.55
2451 31.9101 157.46 142.66 12.55
2452 31.9203 154.29 143.35 12.42
2453 31.9304 154.41 144.10 12.43
2454 31.9406 152.64 144.86 12.35
2455 31.9507 153.54 145.59 12.39
2456 31.9609 154.54 146.23 12.43
2457 31.9710 151.14 146.73 12.29
2458 31.9812 152.55 147.04 12.35
2459 31.9913 149.24 147.18 12.22
2460 32.0015 150.39 147.23 12.26
2461 32.0116 149.58 147.27 12.23
2462 32.0218 145.71 147.36 12.07
2463 32.0319 144.90 147.54 12.04
2464 32.0421 147.11 147.78 12.13
2465 32.0522 144.13 148.05 12.01
2466 32.0624 144.70 148.30 12.03
2467 32.0725 144.25 148.49 12.01
2468 32.0827 145.22 148.68 12.05
2469 32.0928 144.90 148.73 12.04
2470 32.1030 145.62 148.78 12.07
2471 32.1131 145.28 148.88 12.05
2472 32.1233 146.73 149.06 12.11
2473 32.1334 144.61 149.31 12.03
2474 32.1436 147.51 149.59 12.15
2475 32.1537 151.18 149.75 12.30
2476 32.1639 149.03 149.80 12.21
2477 32.1740 149.77 149.55 12.24
2478 32.1842 148.00 149.04 12.17
2479 32.1943 145.94 148.34 12.08
2480 32.2045 145.46 147.56 12.06
2481 32.2146 145.43 146.77 12.06
2482 32.2248 145.06 146.03 12.04
2483 32.2349 144.50 145.37 12.02
2484 32.2451 143.92 144.78 12.00
2485 32.2552 145.15 144.28 12.05
2486 32.2654 141.23 143.83 11.88
2487 32.2755 144.19 143.47 12.01
2488 32.2857 140.64 143.27 11.86
2489 32.2958 142.72 143.24 11.95
2490 32.3060 141.38 143.40 11.89
2491 32.3161 143.36 143.74 11.97
2492 32.3263 141.23 144.23 11.88
2493 32.3364 142.72 144.79 11.95
2494 32.3466 145.08 145.36 12.04
2495 32.3567 144.24 145.82 12.01
2496 32.3669 143.31 146.13 11.97
2497 32.3770 144.65 146.24 12.03
2498 32.3872 144.17 146.21 12.01
2499 32.3973 143.58 146.10 11.98
2500 32.4075 144.41 145.99 12.02
2501 32.4176 144.24 145.90 12.01
2502 32.4278 143.92 145.84 12.00
2503 32.4380 145.45 145.79 12.06
2504 32.4481 144.23 145.69 12.01
2505 32.4582 143.99 145.51 12.00
2506 32.4684 147.56 145.21 12.15
2507 32.4785 142.75 144.80 11.95
2508 32.4887 143.24 144.28 11.97
2509 32.4988 142.06 143.68 11.92
2510 32.5090 141.80 143.03 11.91
2511 32.5191 143.24 142.41 11.97
2512 32.5293 142.09 141.85 11.92
2513 32.5394 141.28 141.38 11.89
2514 32.5496 140.71 141.00 11.86
2515 32.5597 140.85 140.71 11.87
2516 32.5699 138.59 140.53 11.77
2517 32.5800 139.15 140.45 11.80
2518 32.5902 142.59 140.45 11.94
2519 32.6003 142.18 140.61 11.92
2520 32.6105 143.76 140.94 11.99
2521 32.6206 142.05 141.46 11.92
2522 32.6308 142.72 142.18 11.95
2523 32.6409 145.72 143.07 12.07
2524 32.6511 147.59 144.16 12.15
2525 32.6613 147.22 145.38 12.13
2526 32.6714 147.62 146.63 12.15
2527 32.6815 150.75 147.84 12.28
2528 32.6917 153.84 148.92 12.40
2529 32.7019 149.98 149.82 12.25
2530 32.7120 150.77 150.53 12.28
2531 32.7221 151.03 151.07 12.29
2532 32.7323 150.78 151.51 12.28
2533 32.7425 147.55 151.83 12.15
2534 32.7526 151.83 151.99 12.32
2535 32.7627 152.58 151.92 12.35
2536 32.7729 152.51 151.57 12.35
2537 32.7831 150.06 150.91 12.25
2538 32.7932 149.17 150.01 12.21
2539 32.8033 146.80 148.95 12.12
2540 32.8135 146.96 147.84 12.12
2541 32.8237 147.74 146.74 12.15
2542 32.8338 145.95 145.68 12.08
2543 32.8439 141.72 144.68 11.90
2544 32.8541 143.70 143.73 11.99
2545 32.8643 144.74 142.82 12.03
2546 32.8744 140.34 141.96 11.85
2547 32.8845 143.87 141.20 11.99
2548 32.8947 140.02 140.54 11.83
2549 32.9049 141.77 139.99 11.91
2550 32.9150 138.16 139.58 11.75
2551 32.9252 141.08 139.28 11.88
2552 32.9353 140.08 139.08 11.84
2553 32.9454 139.26 138.98 11.80
2554 32.9556 137.37 138.96 11.72
2555 32.9658 139.13 139.01 11.80
2556 32.9759 138.71 139.14 11.78
2557 32.9860 138.72 139.35 11.78
2558 32.9962 139.77 139.64 11.82
2559 33.0064 139.78 140.03 11.82
2560 33.0165 140.66 140.50 11.86
2561 33.0266 139.12 141.08 11.79
2562 33.0368 139.64 141.77 11.82
2563 33.0470 141.17 142.60 11.88
2564 33.0571 141.49 143.63 11.90
2565 33.0672 142.87 144.89 11.95
2566 33.0774 145.33 146.50 12.06
2567 33.0876 146.96 148.49 12.12
2568 33.0977 147.90 150.88 12.16
2569 33.1078 156.26 153.69 12.50
2570 33.1180 156.35 156.89 12.50
2571 33.1282 162.96 160.40 12.77
2572 33.1383 166.78 164.11 12.91
2573 33.1485 173.40 167.78 13.17
2574 33.1586 178.26 171.16 13.35
2575 33.1688 179.28 173.91 13.39
2576 33.1789 183.88 175.76 13.56
2577 33.1891 185.21 176.59 13.61
2578 33.1992 182.49 176.52 13.51
2579 33.2094 179.22 175.85 13.39
2580 33.2195 177.84 174.86 13.34
2581 33.2297 177.25 173.76 13.31
2582 33.2398 174.90 172.63 13.23
2583 33.2500 172.09 171.40 13.12
2584 33.2601 172.85 169.92 13.15
2585 33.2703 169.82 168.16 13.03
2586 33.2804 163.68 166.01 12.79
2587 33.2906 163.00 163.55 12.77
2588 33.3007 157.68 160.90 12.56
2589 33.3109 155.94 158.20 12.49
2590 33.3210 152.47 155.58 12.35
2591 33.3312 150.40 153.13 12.26
2592 33.3413 146.36 150.91 12.10
2593 33.3515 146.89 148.95 12.12
2594 33.3616 144.55 147.24 12.02
2595 33.3718 140.91 145.72 11.87
2596 33.3819 140.49 144.38 11.85
2597 33.3921 137.31 143.19 11.72
2598 33.4022 139.10 142.12 11.79
2599 33.4124 137.44 141.20 11.72
2600 33.4225 138.15 140.41 11.75
2601 33.4327 137.05 139.78 11.71
2602 33.4428 137.87 139.29 11.74
2603 33.4530 134.82 138.96 11.61
2604 33.4631 135.80 138.77 11.65
2605 33.4733 136.87 138.76 11.70
2606 33.4834 140.33 138.93 11.85
2607 33.4936 141.37 139.26 11.89
2608 33.5037 140.70 139.77 11.86
2609 33.5139 143.51 140.47 11.98
2610 33.5240 144.57 141.36 12.02
2611 33.5342 149.34 142.42 12.22
2612 33.5443 152.44 143.63 12.35
2613 33.5545 156.61 144.98 12.51
2614 33.5646 161.37 146.39 12.70
2615 33.5748 164.02 147.78 12.81
2616 33.5849 168.46 149.05 12.98
2617 33.5951 167.57 150.15 12.94
2618 33.6052 171.84 151.06 13.11
2619 33.6154 168.18 151.82 12.97
2620 33.6255 168.60 152.48 12.98
2621 33.6357 164.89 153.11 12.84
2622 33.6458 164.70 153.69 12.83
2623 33.6560 166.69 154.22 12.91
2624 33.6661 163.79 154.47 12.80
2625 33.6763 162.79 154.38 12.76
2626 33.6864 162.42 153.98 12.74
2627 33.6966 155.93 153.17 12.49
2628 33.7067 156.77 152.11 12.52
2629 33.7169 154.22 150.94 12.42
2630 33.7270 149.76 149.79 12.24
2631 33.7372 146.40 148.70 12.10
2632 33.7473 147.04 147.69 12.13
2633 33.7575 143.07 146.73 11.96
2634 33.7676 142.91 145.79 11.95
2635 33.7778 140.41 144.84 11.85
2636 33.7879 137.56 143.87 11.73
2637 33.7981 135.23 142.90 11.63
2638 33.8082 137.69 141.94 11.73
2639 33.8184 137.89 141.03 11.74
2640 33.8285 136.11 140.16 11.67
2641 33.8387 135.04 139.38 11.62
2642 33.8488 135.55 138.68 11.64
2643 33.8590 131.81 138.06 11.48
2644 33.8691 131.82 137.50 11.48
2645 33.8793 131.83 137.04 11.48
2646 33.8894 132.19 136.62 11.50
2647 33.8996 129.00 136.26 11.36
2648 33.9097 131.00 135.92 11.45
2649 33.9199 128.47 135.61 11.33
2650 33.9300 131.77 135.34 11.48
2651 33.9402 130.95 135.10 11.44
2652 33.9503 130.66 134.88 11.43
2653 33.9605 130.10 134.71 11.41
2654 33.9706 132.70 134.57 11.52
2655 33.9808 129.59 134.45 11.38
2656 33.9909 132.71 134.37 11.52
2657 34.0011 130.24 134.30 11.41
2658 34.0112 130.67 134.29 11.43
2659 34.0214 133.16 134.27 11.54
2660 34.0315 132.95 134.26 11.53
2661 34.0417 130.63 134.27 11.43
2662 34.0518 132.28 134.30 11.50
2663 34.0620 131.61 134.36 11.47
2664 34.0721 128.83 134.44 11.35
2665 34.0823 130.13 134.54 11.41
2666 34.0924 131.51 134.69 11.47
2667 34.1026 132.32 134.90 11.50
2668 34.1127 133.67 135.13 11.56
2669 34.1229 134.71 135.40 11.61
2670 34.1330 134.85 135.75 11.61
2671 34.1432 136.81 136.14 11.70
2672 34.1533 140.11 136.61 11.84
2673 34.1635 138.49 137.16 11.77
2674 34.1736 138.34 137.79 11.76
2675 34.1838 142.42 138.52 11.93
2676 34.1939 142.65 139.28 11.94
2677 34.2041 143.90 140.10 12.00
2678 34.2142 143.55 140.99 11.98
2679 34.2244 147.46 141.94 12.14
2680 34.2345 146.96 142.97 12.12
2681 34.2447 149.64 144.05 12.23
2682 34.2548 149.86 145.13 12.24
2683 34.2650 150.69 146.13 12.28
2684 34.2751 154.19 146.95 12.42
2685 34.2853 153.05 147.40 12.37
2686 34.2954 154.12 147.59 12.41
2687 34.3056 155.12 147.48 12.45
2688 34.3157 151.90 147.13 12.32
2689 34.3259 153.26 146.66 12.38
2690 34.3360 150.95 146.15 12.29
2691 34.3462 149.10 145.64 12.21
2692 34.3563 149.12 145.16 12.21
2693 34.3665 148.68 144.64 12.19
2694 34.3766 146.61 144.14 12.11
2695 34.3868 144.95 143.64 12.04
2696 34.3969 145.81 143.14 12.07
2697 34.4071 142.73 142.73 11.95
2698 34.4172 141.66 142.43 11.90
2699 34.4274 137.24 142.30 11.71
2700 34.4375 142.09 142.32 11.92
2701 34.4477 139.79 142.52 11.82
2702 34.4578 141.04 142.88 11.88
2703 34.4680 141.55 143.38 11.90
2704 34.4781 143.04 143.96 11.96
2705 34.4883 142.88 144.55 11.95
2706 34.4984 143.87 145.10 11.99
2707 34.5086 142.43 145.54 11.93
2708 34.5187 144.36 145.86 12.01
2709 34.5289 145.31 146.06 12.05
2710 34.5390 144.59 146.24 12.02
2711 34.5492 144.37 146.47 12.02
2712 34.5593 144.76 146.83 12.03
2713 34.5695 144.87 147.39 12.04
2714 34.5796 145.43 148.19 12.06
2715 34.5898 146.09 149.26 12.09
2716 34.5999 147.36 150.65 12.14
2717 34.6101 148.12 152.40 12.17
2718 34.6202 150.91 154.57 12.28
2719 34.6304 154.71 157.23 12.44
2720 34.6405 155.31 160.40 12.46
2721 34.6507 158.92 164.07 12.61
2722 34.6608 164.59 168.15 12.83
2723 34.6710 171.66 172.49 13.10
2724 34.6811 176.27 176.84 13.28
2725 34.6913 181.40 180.85 13.47
2726 34.7014 187.58 184.10 13.70
2727 34.7116 188.78 186.25 13.74
2728 34.7217 186.77 187.15 13.67
2729 34.7319 184.65 186.84 13.59
2730 34.7420 184.30 185.63 13.58
2731 34.7522 180.66 183.92 13.44
2732 34.7623 178.11 181.93 13.35
2733 34.7725 178.17 179.88 13.35
2734 34.7826 174.62 177.76 13.21
2735 34.7928 172.23 175.49 13.12
2736 34.8029 170.16 173.03 13.04
2737 34.8131 167.30 170.28 12.93
2738 34.8232 162.14 167.30 12.73
2739 34.8334 159.20 164.22 12.62
2740 34.8435 155.26 161.19 12.46
2741 34.8537 152.03 158.28 12.33
2742 34.8638 151.44 155.57 12.31
2743 34.8740 147.79 153.10 12.16
2744 34.8841 145.22 150.89 12.05
2745 34.8943 143.87 148.97 11.99
2746 34.9044 140.68 147.35 11.86
2747 34.9146 142.43 146.01 11.93
2748 34.9247 139.85 145.02 11.83
2749 34.9349 139.43 144.18 11.81
2750 34.9450 141.26 143.53 11.89
2751 34.9552 140.03 143.03 11.83
2752 34.9653 138.15 142.65 11.75
2753 34.9755 138.83 142.38 11.78
2754 34.9856 139.97 142.23 11.83
2755 34.9958 142.51 142.18 11.94
2756 35.0059 139.34 142.27 11.80
2757 35.0161 140.46 142.57 11.85
2758 35.0262 140.36 143.02 11.85
2759 35.0364 142.95 143.69 11.96
2760 35.0465 141.91 144.60 11.91
2761 35.0567 144.61 145.77 12.03
2762 35.0668 146.66 147.19 12.11
2763 35.0770 147.14 148.82 12.13
2764 35.0871 151.96 150.63 12.33
2765 35.0973 152.19 152.53 12.34
2766 35.1074 153.52 154.39 12.39
2767 35.1176 157.72 156.09 12.56
2768 35.1277 159.42 157.50 12.63
2769 35.1379 158.53 158.53 12.59
2770 35.1480 160.53 159.18 12.67
2771 35.1582 158.73 159.49 12.60
2772 35.1683 156.45 159.56 12.51
2773 35.1785 158.44 159.46 12.59
2774 35.1886 157.72 159.28 12.56
2775 35.1988 158.41 159.10 12.59
2776 35.2089 157.18 158.99 12.54
2777 35.2191 157.24 158.95 12.54
2778 35.2292 156.71 159.00 12.52
2779 35.2394 157.53 159.20 12.55
2780 35.2495 154.96 159.53 12.45
2781 35.2597 156.07 159.87 12.49
2782 35.2698 155.13 160.24 12.46
2783 35.2800 156.00 160.52 12.49
2784 35.2901 156.08 160.60 12.49
2785 35.3003 156.76 160.35 12.52
2786 35.3104 155.69 159.71 12.48
2787 35.3206 154.57 158.70 12.43
2788 35.3307 151.28 157.43 12.30
2789 35.3409 150.44 156.07 12.27
2790 35.3510 149.82 154.70 12.24
2791 35.3612 148.81 153.40 12.20
2792 35.3713 146.52 152.21 12.10
2793 35.3815 143.32 151.07 11.97
2794 35.3916 143.43 149.93 11.98
2795 35.4018 147.27 148.78 12.14
2796 35.4119 143.50 147.54 11.98
2797 35.4221 141.23 146.35 11.88
2798 35.4322 138.64 145.24 11.77
2799 35.4424 140.18 144.26 11.84
2800 35.4525 138.97 143.49 11.79
2801 35.4627 141.69 142.95 11.90
2802 35.4728 137.70 142.67 11.73
2803 35.4830 139.82 142.63 11.82
2804 35.4931 140.67 142.80 11.86
2805 35.5033 140.99 143.18 11.87
2806 35.5134 143.21 143.71 11.97
2807 35.5236 145.26 144.32 12.05
2808 35.5337 145.18 144.91 12.05
2809 35.5439 147.49 145.38 12.14
2810 35.5540 147.36 145.63 12.14
2811 35.5642 147.16 145.66 12.13
2812 35.5743 148.99 145.43 12.21
2813 35.5845 147.55 145.03 12.15
2814 35.5946 147.96 144.54 12.16
2815 35.6048 147.18 144.03 12.13
2816 35.6149 146.86 143.53 12.12
2817 35.6251 143.64 143.08 11.99
2818 35.6352 144.63 142.56 12.03
2819 35.6454 141.52 142.01 11.90
2820 35.6555 141.54 141.41 11.90
2821 35.6657 143.02 140.78 11.96
2822 35.6758 139.83 140.14 11.82
2823 35.6860 138.07 139.55 11.75
2824 35.6961 138.23 139.03 11.76
2825 35.7063 135.66 138.61 11.65
2826 35.7164 136.94 138.32 11.70
2827 35.7266 137.26 138.18 11.72
2828 35.7367 134.52 138.21 11.60
2829 35.7469 136.11 138.42 11.67
2830 35.7570 137.21 138.83 11.71
2831 35.7672 137.98 139.46 11.75
2832 35.7773 136.88 140.34 11.70
2833 35.7875 140.78 141.46 11.87
2834 35.7976 141.07 142.84 11.88
2835 35.8078 145.14 144.46 12.05
2836 35.8179 144.14 146.34 12.01
2837 35.8281 146.05 148.42 12.09
2838 35.8382 151.15 150.57 12.29
2839 35.8484 153.58 152.79 12.39
2840 35.8585 158.63 154.92 12.59
2841 35.8687 156.40 156.83 12.51
2842 35.8788 161.87 158.25 12.72
2843 35.8890 160.85 159.18 12.68
2844 35.8991 161.37 159.68 12.70
2845 35.9093 161.40 159.93 12.70
2846 35.9194 161.54 160.14 12.71
2847 35.9296 161.94 160.44 12.73
2848 35.9397 165.36 161.05 12.86
2849 35.9499 165.68 161.99 12.87
2850 35.9600 164.76 163.26 12.84
2851 35.9702 167.44 164.86 12.94
2852 35.9803 168.99 166.67 13.00
2853 35.9905 168.32 168.73 12.97
2854 36.0006 169.59 171.02 13.02
2855 36.0108 172.77 173.51 13.14
2856 36.0209 172.53 176.05 13.14
2857 36.0311 173.35 178.40 13.17
2858 36.0412 177.20 180.26 13.31
2859 36.0514 176.16 181.35 13.27
2860 36.0615 179.09 181.55 13.38
2861 36.0717 176.66 180.90 13.29
2862 36.0818 177.39 179.62 13.32
2863 36.0920 178.05 178.00 13.34
2864 36.1021 178.07 176.25 13.34
2865 36.1123 175.82 174.54 13.26
2866 36.1224 176.06 172.89 13.27
2867 36.1326 172.98 171.28 13.15
2868 36.1427 171.98 169.65 13.11
2869 36.1529 173.82 167.94 13.18
2870 36.1630 171.64 166.23 13.10
2871 36.1732 167.73 164.63 12.95
2872 36.1833 168.81 163.32 12.99
2873 36.1935 168.55 162.40 12.98
2874 36.2036 168.33 162.06 12.97
2875 36.2138 167.23 162.27 12.93
2876 36.2239 167.61 163.15 12.95
2877 36.2341 168.68 164.58 12.99
2878 36.2442 169.49 166.50 13.02
2879 36.2544 171.21 168.76 13.08
2880 36.2645 169.72 171.09 13.03
2881 36.2747 173.25 173.27 13.16
2882 36.2848 172.78 174.96 13.14
2883 36.2950 174.16 175.96 13.20
2884 36.3051 175.90 176.26 13.26
2885 36.3153 176.02 176.01 13.27
2886 36.3254 175.54 175.50 13.25
2887 36.3356 173.41 174.96 13.17
2888 36.3457 175.69 174.48 13.25
2889 36.3559 173.57 174.17 13.17
2890 36.3660 175.68 174.01 13.25
2891 36.3762 172.72 173.92 13.14
2892 36.3863 171.71 173.69 13.10
2893 36.3965 171.74 173.34 13.11
2894 36.4066 170.53 172.85 13.06
2895 36.4168 172.07 172.28 13.12
2896 36.4269 168.26 171.65 12.97
2897 36.4371 168.09 170.90 12.96
2898 36.4472 168.71 170.06 12.99
2899 36.4574 165.23 169.04 12.85
2900 36.4675 166.87 167.84 12.92
2901 36.4777 162.37 166.50 12.74
2902 36.4878 161.57 165.05 12.71
2903 36.4980 160.30 163.62 12.66
2904 36.5081 161.35 162.36 12.70
2905 36.5183 160.96 161.25 12.69
2906 36.5284 159.47 160.39 12.63
2907 36.5386 158.47 159.72 12.59
2908 36.5487 159.33 159.21 12.62
2909 36.5589 161.63 158.85 12.71
2910 36.5690 158.47 158.62 12.59
2911 36.5792 160.74 158.51 12.68
2912 36.5893 162.35 158.49 12.74
2913 36.5995 163.58 158.54 12.79
2914 36.6096 166.49 158.65 12.90
2915 36.6198 165.01 158.84 12.85
2916 36.6299 164.83 159.12 12.84
2917 36.6401 168.58 159.52 12.98
2918 36.6502 169.81 160.06 13.03
2919 36.6604 170.35 160.69 13.05
2920 36.6705 170.59 161.32 13.06
2921 36.6807 169.56 161.89 13.02
2922 36.6908 171.23 162.26 13.09
2923 36.7010 170.63 162.41 13.06
2924 36.7111 169.24 162.26 13.01
2925 36.7213 171.47 161.87 13.09
2926 36.7314 169.23 161.21 13.01
2927 36.7416 168.39 160.45 12.98
2928 36.7517 164.77 159.68 12.84
2929 36.7619 165.54 158.94 12.87
2930 36.7720 166.16 158.25 12.89
2931 36.7822 164.95 157.57 12.84
2932 36.7923 161.43 156.87 12.71
2933 36.8025 161.56 156.03 12.71
2934 36.8126 159.83 154.99 12.64
2935 36.8228 158.82 153.73 12.60
2936 36.8329 156.58 152.31 12.51
2937 36.8431 157.82 150.88 12.56
2938 36.8532 153.53 149.58 12.39
2939 36.8634 154.88 148.54 12.45
2940 36.8735 152.52 147.85 12.35
2941 36.8837 151.46 147.55 12.31
2942 36.8938 148.54 147.64 12.19
2943 36.9040 149.39 148.12 12.22
2944 36.9141 148.59 148.96 12.19
2945 36.9243 148.07 150.14 12.17
2946 36.9344 148.30 151.64 12.18
2947 36.9446 148.31 153.46 12.18
2948 36.9547 149.17 155.56 12.21
2949 36.9649 149.37 157.87 12.22
2950 36.9750 151.24 160.29 12.30
2951 36.9852 152.20 162.62 12.34
2952 36.9953 151.66 164.63 12.32
2953 37.0055 155.39 166.10 12.47
2954 37.0156 155.30 166.86 12.46
2955 37.0258 155.39 167.03 12.47
2956 37.0359 156.27 166.71 12.50
2957 37.0461 154.82 166.14 12.44
2958 37.0562 158.14 165.36 12.58
2959 37.0664 158.14 164.46 12.58
2960 37.0765 157.58 163.54 12.55
2961 37.0867 156.63 162.60 12.52
2962 37.0968 157.96 161.63 12.57
2963 37.1070 156.13 160.62 12.50
2964 37.1171 156.24 159.52 12.50
2965 37.1273 155.66 158.42 12.48
2966 37.1374 158.14 157.36 12.58
2967 37.1476 156.57 156.43 12.51
2968 37.1577 155.36 155.71 12.46
2969 37.1679 158.00 155.28 12.57
2970 37.1780 158.00 155.20 12.57
2971 37.1882 161.54 155.51 12.71
2972 37.1983 163.34 156.15 12.78
2973 37.2085 159.95 157.25 12.65
2974 37.2186 165.35 158.69 12.86
2975 37.2288 164.26 160.35 12.82
2976 37.2389 165.04 162.16 12.85
2977 37.2491 166.05 164.01 12.89
2978 37.2592 167.35 165.83 12.94
2979 37.2694 170.45 167.59 13.06
2980 37.2795 171.30 169.32 13.09
2981 37.2897 168.99 171.02 13.00
2982 37.2998 174.55 172.91 13.21
2983 37.3100 173.61 175.04 13.18
2984 37.3201 176.75 177.50 13.29
2985 37.3303 179.31 180.30 13.39
2986 37.3404 182.09 183.35 13.49
2987 37.3506 182.30 186.47 13.50
2988 37.3607 189.87 189.40 13.78
2989 37.3709 189.26 191.82 13.76
2990 37.3810 191.22 193.41 13.83
2991 37.3912 189.67 194.02 13.77
2992 37.4013 189.82 193.62 13.78
2993 37.4115 188.47 192.44 13.73
2994 37.4216 186.56 190.85 13.66
2995 37.4318 188.24 189.18 13.72
2996 37.4419 188.40 187.78 13.73
2997 37.4521 185.63 186.84 13.62
2998 37.4622 184.84 186.34 13.60
2999 37.4724 184.51 186.22 13.58
3000 37.4825 182.75 186.41 13.52
3001 37.4927 181.71 186.61 13.48
3002 37.5028 181.74 186.80 13.48
3003 37.5130 183.45 186.95 13.54
3004 37.5231 181.60 186.92 13.48
3005 37.5333 179.61 186.76 13.40
3006 37.5434 183.47 186.57 13.55
3007 37.5536 181.25 186.28 13.46
3008 37.5637 180.67 185.90 13.44
3009 37.5739 179.90 185.39 13.41
3010 37.5840 179.97 184.55 13.42
3011 37.5942 176.70 183.30 13.29
3012 37.6043 172.87 181.56 13.15
3013 37.6145 172.08 179.34 13.12
3014 37.6246 167.65 176.77 12.95
3015 37.6348 167.80 174.01 12.95
3016 37.6449 166.46 171.24 12.90
3017 37.6551 165.32 168.51 12.86
3018 37.6652 162.61 165.91 12.75
3019 37.6754 161.38 163.43 12.70
3020 37.6855 160.48 161.03 12.67
3021 37.6957 155.19 158.71 12.46
3022 37.7058 159.05 156.50 12.61
3023 37.7160 155.89 154.44 12.49
3024 37.7261 152.30 152.64 12.34
3025 37.7363 150.88 151.19 12.28
3026 37.7464 151.40 150.07 12.30
3027 37.7566 151.45 149.38 12.31
3028 37.7667 150.21 148.94 12.26
3029 37.7769 149.52 148.74 12.23
3030 37.7870 147.26 148.67 12.13
3031 37.7972 150.40 148.56 12.26
3032 37.8073 149.81 148.32 12.24
3033 37.8175 149.62 147.86 12.23
3034 37.8276 148.59 147.22 12.19
3035 37.8378 149.04 146.44 12.21
3036 37.8479 149.20 145.66 12.21
3037 37.8581 146.32 144.84 12.10
3038 37.8682 145.97 144.10 12.08
3039 37.8784 146.85 143.42 12.12
3040 37.8885 143.27 142.74 11.97
3041 37.8987 143.17 142.03 11.97
3042 37.9088 142.97 141.25 11.96
3043 37.9190 140.99 140.38 11.87
3044 37.9291 141.85 139.52 11.91
3045 37.9393 139.54 138.67 11.81
3046 37.9494 140.54 137.92 11.85
3047 37.9596 140.34 137.31 11.85
3048 37.9697 140.21 136.92 11.84
3049 37.9799 138.60 136.74 11.77
3050 37.9900 137.37 136.84 11.72
3051 38.0002 141.14 137.23 11.88
3052 38.0103 139.52 137.92 11.81
3053 38.0205 140.97 138.93 11.87
3054 38.0306 143.82 140.28 11.99
3055 38.0408 141.80 141.96 11.91
3056 38.0509 142.41 143.95 11.93
3057 38.0611 145.62 146.18 12.07
3058 38.0712 147.53 148.56 12.15
3059 38.0814 152.23 150.96 12.34
3060 38.0915 150.99 153.18 12.29
3061 38.1017 155.54 154.99 12.47
3062 38.1118 153.79 156.20 12.40
3063 38.1220 156.90 156.69 12.53
3064 38.1321 156.50 156.51 12.51
3065 38.1423 155.59 155.80 12.47
3066 38.1524 155.34 154.78 12.46
3067 38.1626 155.48 153.63 12.47
3068 38.1727 153.12 152.43 12.37
3069 38.1829 151.05 151.33 12.29
3070 38.1930 150.17 150.25 12.25
3071 38.2032 149.74 149.10 12.24
3072 38.2133 149.09 147.80 12.21
3073 38.2235 149.38 146.35 12.22
3074 38.2336 146.67 144.73 12.11
3075 38.2438 144.97 143.01 12.04
3076 38.2539 140.13 141.27 11.84
3077 38.2641 140.30 139.56 11.85
3078 38.2742 137.24 138.01 11.71
3079 38.2844 141.21 136.61 11.88
3080 38.2945 136.89 135.39 11.70
3081 38.3047 138.36 134.36 11.76
3082 38.3148 136.70 133.52 11.69
3083 38.3250 137.26 132.89 11.72
3084 38.3351 134.49 132.41 11.60
3085 38.3453 133.76 132.08 11.57
3086 38.3554 136.60 131.89 11.69
3087 38.3656 136.18 131.82 11.67
3088 38.3757 136.06 131.88 11.66
3089 38.3859 135.85 132.04 11.66
3090 38.3960 135.63 132.34 11.65
3091 38.4062 137.60 132.76 11.73
3092 38.4163 136.57 133.33 11.69
3093 38.4265 140.49 134.07 11.85
3094 38.4366 140.23 134.96 11.84
3095 38.4468 142.34 136.10 11.93
3096 38.4569 143.49 137.49 11.98
3097 38.4671 146.53 139.19 12.10
3098 38.4772 148.09 141.24 12.17
3099 38.4874 148.71 143.69 12.19
3100 38.4975 148.76 146.57 12.20
3101 38.5077 156.86 149.89 12.52
3102 38.5178 156.46 153.61 12.51
3103 38.5280 161.85 157.65 12.72
3104 38.5381 164.34 161.87 12.82
3105 38.5483 163.37 166.15 12.78
3106 38.5584 169.89 170.24 13.03
3107 38.5686 172.30 173.96 13.13
3108 38.5787 173.26 177.08 13.16
3109 38.5889 173.95 179.48 13.19
3110 38.5990 176.35 181.17 13.28
3111 38.6092 177.10 182.28 13.31
3112 38.6193 178.41 182.85 13.36
3113 38.6295 176.59 182.96 13.29
3114 38.6396 180.89 182.72 13.45
3115 38.6498 177.79 182.10 13.33
3116 38.6599 176.60 181.24 13.29
3117 38.6701 178.17 180.17 13.35
3118 38.6802 173.63 178.97 13.18
3119 38.6904 175.04 177.68 13.23
3120 38.7005 174.63 176.52 13.21
3121 38.7107 175.62 175.55 13.25
3122 38.7208 176.37 174.91 13.28
3123 38.7310 176.25 174.69 13.28
3124 38.7411 178.04 174.97 13.34
3125 38.7513 181.73 175.71 13.48
3126 38.7614 183.58 176.96 13.55
3127 38.7716 185.88 178.69 13.63
3128 38.7817 189.84 180.71 13.78
3129 38.7919 190.73 182.82 13.81
3130 38.8020 191.98 184.71 13.86
3131 38.8122 192.93 186.09 13.89
3132 38.8223 191.49 186.75 13.84
3133 38.8325 191.92 186.64 13.85
3134 38.8426 187.50 185.82 13.69
3135 38.8528 184.17 184.46 13.57
3136 38.8629 180.67 182.81 13.44
3137 38.8731 181.25 181.07 13.46
3138 38.8832 175.58 179.39 13.25
3139 38.8934 177.65 177.82 13.33
3140 38.9035 175.76 176.36 13.26
3141 38.9137 173.59 174.95 13.18
3142 38.9238 169.78 173.50 13.03
3143 38.9340 168.55 171.99 12.98
3144 38.9441 170.09 170.43 13.04
3145 38.9543 163.13 168.84 12.77
3146 38.9644 160.25 167.22 12.66
3147 38.9746 158.65 165.51 12.60
3148 38.9847 159.15 163.78 12.62
3149 38.9949 157.66 161.90 12.56
3150 39.0050 154.18 159.89 12.42
3151 39.0152 155.32 157.81 12.46
3152 39.0253 151.87 155.77 12.32
3153 39.0355 152.60 153.88 12.35
3154 39.0456 151.98 152.21 12.33
3155 39.0558 153.36 150.78 12.38
3156 39.0659 148.11 149.56 12.17
3157 39.0761 148.43 148.46 12.18
3158 39.0862 148.28 147.40 12.18
3159 39.0964 145.65 146.30 12.07
3160 39.1065 145.27 145.08 12.05
3161 39.1167 145.22 143.73 12.05
3162 39.1268 143.52 142.29 11.98
3163 39.1370 143.61 140.83 11.98
3164 39.1471 140.92 139.41 11.87
3165 39.1573 143.73 138.09 11.99
3166 39.1674 141.40 136.87 11.89
3167 39.1776 139.26 135.79 11.80
3168 39.1877 138.62 134.83 11.77
3169 39.1979 140.49 133.99 11.85
3170 39.2080 138.78 133.24 11.78
3171 39.2182 135.34 132.58 11.63
3172 39.2283 135.74 131.99 11.65
3173 39.2385 134.70 131.47 11.61
3174 39.2486 132.54 131.05 11.51
3175 39.2588 132.13 130.72 11.49
3176 39.2689 133.15 130.49 11.54
3177 39.2791 131.60 130.38 11.47
3178 39.2892 132.00 130.35 11.49
3179 39.2994 132.66 130.50 11.52
3180 39.3095 131.94 130.79 11.49
3181 39.3197 132.09 131.22 11.49
3182 39.3298 132.45 131.78 11.51
3183 39.3400 133.02 132.48 11.53
3184 39.3501 131.90 133.29 11.48
3185 39.3603 131.29 134.21 11.46
3186 39.3704 133.06 135.18 11.53
3187 39.3806 133.90 136.14 11.57
3188 39.3907 133.16 137.07 11.54
3189 39.4009 135.13 137.89 11.62
3190 39.4110 136.37 138.57 11.68
3191 39.4212 133.90 139.01 11.57
3192 39.4313 134.64 139.23 11.60
3193 39.4415 136.37 139.23 11.68
3194 39.4516 135.50 139.05 11.64
3195 39.4618 134.12 138.76 11.58
3196 39.4719 135.57 138.41 11.64
3197 39.4821 133.60 138.04 11.56
3198 39.4922 134.71 137.68 11.61
3199 39.5024 133.77 137.33 11.57
3200 39.5125 133.57 136.99 11.56
3201 39.5227 132.71 136.65 11.52
3202 39.5328 135.71 136.32 11.65
3203 39.5430 136.26 136.01 11.67
3204 39.5531 133.96 135.74 11.57
3205 39.5633 133.66 135.55 11.56
3206 39.5734 135.36 135.49 11.63
3207 39.5836 135.67 135.59 11.65
3208 39.5937 136.76 135.88 11.69
3209 39.6039 135.12 136.37 11.62
3210 39.6140 137.71 137.07 11.74
3211 39.6242 137.75 137.98 11.74
3212 39.6343 141.36 139.06 11.89
3213 39.6445 140.38 140.27 11.85
3214 39.6546 143.95 141.53 12.00
3215 39.6648 146.51 142.74 12.10
3216 39.6749 144.74 143.77 12.03
3217 39.6851 148.80 144.53 12.20
3218 39.6952 149.43 144.95 12.22
3219 39.7054 149.29 145.03 12.22
3220 39.7155 149.19 144.85 12.21
3221 39.7257 144.62 144.52 12.03
3222 39.7358 145.70 144.16 12.07
3223 39.7460 146.90 143.82 12.12
3224 39.7561 147.59 143.45 12.15
3225 39.7663 145.01 143.19 12.04
3226 39.7764 146.98 142.91 12.12
3227 39.7866 147.52 142.57 12.15
3228 39.7967 146.49 142.15 12.10
3229 39.8069 145.50 141.62 12.06
3230 39.8170 143.62 141.11 11.98
3231 39.8272 141.21 140.62 11.88
3232 39.8373 142.70 140.22 11.95
3233 39.8475 140.17 139.95 11.84
3234 39.8576 139.19 139.79 11.80
3235 39.8678 140.27 139.79 11.84
3236 39.8779 139.85 139.91 11.83
3237 39.8881 138.77 140.10 11.78
3238 39.8982 138.08 140.31 11.75
3239 39.9084 137.90 140.48 11.74
3240 39.9185 137.01 140.61 11.71
3241 39.9287 136.44 140.66 11.68
3242 39.9388 140.72 140.66 11.86
3243 39.9490 139.13 140.66 11.80
3244 39.9591 139.44 140.72 11.81
3245 39.9693 136.12 140.88 11.67
3246 39.9794 134.79 141.20 11.61
3247 39.9896 138.56 141.59 11.77
3248 39.9997 134.91 142.11 11.62
3249 40.0099 138.82 142.76 11.78
3250 40.0200 138.28 143.46 11.76
3251 40.0302 138.01 144.13 11.75
loop_
_pd_proc_info_excluded_regions
'from 3.000 to 76.9788'
