#------------------------------------------------------------------------------
#$Date: 2021-07-07 11:45:47 +0300 (Wed, 07 Jul 2021) $
#$Revision: 267325 $
#$URL: file:///home/coder/svn-repositories/cod/cif/1/56/39/1563999.cif $
#------------------------------------------------------------------------------
#
# This file is available in the Crystallography Open Database (COD),
# http://www.crystallography.net/
#
# All data on this site have been placed in the public domain by the
# contributors.
#
data_1563999
loop_
_publ_author_name
'Harringer, Sophia'
'Matzinger, Manuel'
'Gajic, Natalie'
'Hejl, Michaela'
'Jakupec, Michael A.'
'Kandioller, Wolfgang'
'Keppler, Bernhard K.'
_publ_section_title
;
 First insights into the novel class of organometallic compounds bearing a
 bidentate selenopyridone coordination motif: Synthesis, characterization,
 stability and biological investigations
;
_journal_name_full               'Inorganica Chimica Acta'
_journal_page_first              119919
_journal_paper_doi               10.1016/j.ica.2020.119919
_journal_volume                  513
_journal_year                    2020
_chemical_formula_moiety         'C13 H13 N O Se'
_chemical_formula_sum            'C13 H13 N O Se'
_chemical_formula_weight         278.20
_chemical_name_systematic
1-Benzyl-3-hydroxy-2-methylpyridine-4(1H)-selenone
_space_group_crystal_system      triclinic
_space_group_IT_number           2
_space_group_name_Hall           '-P 1'
_space_group_name_H-M_alt        'P -1'
_atom_sites_solution_hydrogens   geom
_atom_sites_solution_primary     heavy
_cell_angle_alpha                109.332(2)
_cell_angle_beta                 95.120(3)
_cell_angle_gamma                107.446(2)
_cell_formula_units_Z            2
_cell_length_a                   7.1172(4)
_cell_length_b                   8.2231(5)
_cell_length_c                   11.2069(6)
_cell_measurement_reflns_used    8544
_cell_measurement_temperature    100
_cell_measurement_theta_max      30.041
_cell_measurement_theta_min      2.753
_cell_volume                     577.35(6)
_computing_cell_refinement       'SAINT V8.38A (2016)'
_computing_data_collection       APEX3
_computing_data_reduction        'SAINT V8.38A (2016)'
_computing_molecular_graphics    'Olex2 (Dolomanov et al., 2009)'
_computing_publication_material  'Olex2 (Dolomanov et al., 2009)'
_computing_structure_refinement  'XL (Sheldrick, 2008)'
_computing_structure_solution    'ShelXS (Sheldrick, 2008)'
_diffrn_ambient_temperature      100
_diffrn_measured_fraction_theta_full 0.996
_diffrn_measured_fraction_theta_max 0.996
_diffrn_measurement_device_type  'Bruker D8 Venture'
_diffrn_measurement_method       '\f and \w scans'
_diffrn_radiation_probe          x-ray
_diffrn_radiation_type           MoK\a
_diffrn_radiation_wavelength     0.71073
_diffrn_reflns_av_R_equivalents  0.0506
_diffrn_reflns_av_unetI/netI     0.0362
_diffrn_reflns_Laue_measured_fraction_full 0.996
_diffrn_reflns_Laue_measured_fraction_max 0.996
_diffrn_reflns_limit_h_max       8
_diffrn_reflns_limit_h_min       -8
_diffrn_reflns_limit_k_max       9
_diffrn_reflns_limit_k_min       -9
_diffrn_reflns_limit_l_max       13
_diffrn_reflns_limit_l_min       -13
_diffrn_reflns_number            10995
_diffrn_reflns_point_group_measured_fraction_full 0.996
_diffrn_reflns_point_group_measured_fraction_max 0.996
_diffrn_reflns_theta_full        25.242
_diffrn_reflns_theta_max         25.350
_diffrn_reflns_theta_min         2.753
_diffrn_source                   'Sealed xray tube'
_diffrn_source_type              'Incoatec IuS'
_diffrn_standards_number         0
_exptl_absorpt_coefficient_mu    3.228
_exptl_absorpt_correction_T_max  0.7460
_exptl_absorpt_correction_T_min  0.5963
_exptl_absorpt_correction_type   multi-scan
_exptl_absorpt_process_details
;
SADABS-2016/2 (Bruker,2016/2) was used for absorption correction. 
wR2(int) was 0.1606 before and 0.0741 after correction. 
The Ratio of minimum to maximum transmission is 0.7926. 
The \l/2 correction factor is Not present.
;
_exptl_crystal_colour            'clear yellow'
_exptl_crystal_colour_lustre     clear
_exptl_crystal_colour_primary    yellow
_exptl_crystal_density_diffrn    1.600
_exptl_crystal_description       plate
_exptl_crystal_F_000             280
_exptl_crystal_size_max          0.2
_exptl_crystal_size_mid          0.18
_exptl_crystal_size_min          0.04
_refine_diff_density_max         0.503
_refine_diff_density_min         -0.316
_refine_diff_density_rms         0.074
_refine_ls_extinction_coef       .
_refine_ls_extinction_method     none
_refine_ls_goodness_of_fit_ref   1.078
_refine_ls_hydrogen_treatment    constr
_refine_ls_matrix_type           full
_refine_ls_number_parameters     147
_refine_ls_number_reflns         2099
_refine_ls_number_restraints     0
_refine_ls_restrained_S_all      1.078
_refine_ls_R_factor_all          0.0266
_refine_ls_R_factor_gt           0.0247
_refine_ls_shift/su_max          0.001
_refine_ls_shift/su_mean         0.000
_refine_ls_structure_factor_coef Fsqd
_refine_ls_weighting_details
'w=1/[\s^2^(Fo^2^)+(0.0265P)^2^+0.3271P] where P=(Fo^2^+2Fc^2^)/3'
_refine_ls_weighting_scheme      calc
_refine_ls_wR_factor_gt          0.0620
_refine_ls_wR_factor_ref         0.0632
_reflns_Friedel_coverage         0.000
_reflns_Friedel_fraction_full    .
_reflns_Friedel_fraction_max     .
_reflns_number_gt                1983
_reflns_number_total             2099
_reflns_threshold_expression     'I > 2\s(I)'
_iucr_refine_instructions_details
;
TITL mo_RAP012_P-1 in P-1 #2
    mo_rap012_p-1.res
    created by SHELXL-2018/3 at 12:56:57 on 14-Feb-2020
REM reset to P-1 #2
CELL 0.71073 7.1172 8.2231 11.2069 109.3316 95.1201 107.4464
ZERR 2 0.0004 0.0005 0.0006 0.0022 0.0025 0.0024
LATT 1
SFAC C H N O Se
UNIT 26 26 2 2 2

L.S. 10
PLAN  20
SIZE 0.04 0.18 0.2
TEMP -173.15
BOND
CONF
HTAB
fmap 2 53
acta
SHEL 999 0.83
REM <olex2.extras>
REM <HklSrc "%.\\mo_RAP012_P-1.hkl">
REM </olex2.extras>

WGHT    0.026500    0.327100
FVAR       0.26414
SE1   5    0.620161   -0.405680   -0.204847    11.00000    0.01832    0.01874 =
         0.01496    0.00315    0.00322    0.00524
O1    4    0.734542   -0.006702   -0.173228    11.00000    0.03068    0.02355 =
         0.01213    0.00888    0.00589    0.00729
AFIX 147
H1    2    0.705314   -0.111230   -0.231517    11.00000   -1.50000
AFIX   0
N1    3    0.791692    0.119770    0.170950    11.00000    0.01627    0.01419 =
         0.01401    0.00677    0.00301    0.00491
C1    1    0.787931    0.135784    0.053074    11.00000    0.01244    0.01903 =
         0.01548    0.00969    0.00376    0.00574
C2    1    0.736256   -0.022800   -0.056280    11.00000    0.01202    0.02055 =
         0.01470    0.00873    0.00477    0.00565
C3    1    0.685324   -0.200354   -0.050643    11.00000    0.01040    0.01916 =
         0.01619    0.00717    0.00308    0.00496
C4    1    0.687320   -0.206379    0.072528    11.00000    0.02024    0.01615 =
         0.02022    0.01013    0.00236    0.00625
AFIX  43
H4    2    0.651792   -0.321694    0.082046    11.00000   -1.20000
AFIX   0
C5    1    0.739865   -0.048062    0.179448    11.00000    0.02176    0.01843 =
         0.01411    0.00962    0.00377    0.00678
AFIX  43
H5    2    0.740099   -0.055789    0.262181    11.00000   -1.20000
AFIX   0
C16   1    0.850186    0.291318    0.290277    11.00000    0.02237    0.01417 =
         0.01577    0.00581    0.00275    0.00634
AFIX  23
H16A  2    0.744362    0.346643    0.290068    11.00000   -1.20000
H16B  2    0.976763    0.380770    0.287041    11.00000   -1.20000
AFIX   0
C17   1    0.841287    0.322862    0.045861    11.00000    0.02066    0.01821 =
         0.01900    0.01131    0.00381    0.00531
AFIX 137
H17A  2    0.762173    0.389311    0.095096    11.00000   -1.50000
H17B  2    0.811399    0.309606   -0.044650    11.00000   -1.50000
H17C  2    0.985111    0.391764    0.082430    11.00000   -1.50000
AFIX   0
C18   1    0.879794    0.260887    0.414648    11.00000    0.02227    0.01073 =
         0.01518    0.00399    0.00353    0.00427
C19   1    1.069077    0.272484    0.469935    11.00000    0.02115    0.01399 =
         0.01527    0.00516    0.00538    0.00430
AFIX  43
H19   2    1.178303    0.297311    0.427849    11.00000   -1.20000
AFIX   0
C20   1    1.099255    0.248107    0.585754    11.00000    0.02231    0.01643 =
         0.01821    0.00496   -0.00190    0.00488
AFIX  43
H20   2    1.228764    0.256003    0.622563    11.00000   -1.20000
AFIX   0
C21   1    0.940116    0.212033    0.648394    11.00000    0.03443    0.01316 =
         0.01298    0.00424    0.00375    0.00469
AFIX  43
H21   2    0.960708    0.194985    0.727695    11.00000   -1.20000
AFIX   0
C22   1    0.751651    0.201157    0.594399    11.00000    0.02712    0.01938 =
         0.02048    0.00654    0.01149    0.00511
AFIX  43
H22   2    0.642747    0.176378    0.636747    11.00000   -1.20000
AFIX   0
C23   1    0.721493    0.226354    0.478636    11.00000    0.01853    0.02008 =
         0.02130    0.00654    0.00495    0.00679
AFIX  43
H23   2    0.592272    0.220067    0.442671    11.00000   -1.20000
AFIX   0
HKLF 4




REM  mo_RAP012_P-1 in P-1 #2
REM wR2 = 0.063163, GooF = S = 1.07807, Restrained GooF = 1.07807 for all data
REM R1 = 0.024668 for 1983 Fo > 4sig(Fo) and 0.026623 for all 2099 data
REM 147 parameters refined using 0 restraints

END  
     
WGHT      0.0265      0.3271 

REM Instructions for potential hydrogen bonds
HTAB O1 Se1
EQIV $1 -x+1, -y, -z
HTAB C16 Se1_$1
EQIV $2 -x+2, -y, -z
HTAB C16 Se1_$2
HTAB C17 Se1_$1
HTAB C17 Se1_$2

REM Highest difference peak  0.503,  deepest hole -0.316,  1-sigma level  0.074
Q1    1   0.4692 -0.4071 -0.2024  11.00000  0.05    0.50
Q2    1   0.7612 -0.4201 -0.1987  11.00000  0.05    0.44
Q3    1   0.7210 -0.1135 -0.0611  11.00000  0.05    0.32
Q4    1   0.7782  0.2168  0.0482  11.00000  0.05    0.30
Q5    1   1.0008  0.1828  0.5842  11.00000  0.05    0.30
Q6    1   0.8158  0.1933  0.2237  11.00000  0.05    0.29
Q7    1   0.8644  0.2811  0.3547  11.00000  0.05    0.28
Q8    1   0.8420  0.1599  0.6040  11.00000  0.05    0.27
Q9    1   0.9833  0.3157  0.4599  11.00000  0.05    0.27
Q10   1   0.7956  0.0406  0.1749  11.00000  0.05    0.27
Q11   1   0.7796  0.1256  0.1122  11.00000  0.05    0.26
Q12   1   0.6800 -0.2006  0.0035  11.00000  0.05    0.26
Q13   1   0.7586 -0.3127 -0.2138  11.00000  0.05    0.26
Q14   1   0.6677  0.4164  0.2399  11.00000  0.05    0.25
Q15   1   0.6962 -0.5391 -0.2762  11.00000  0.05    0.24
Q16   1   0.9522  0.2221  0.4205  11.00000  0.05    0.23
Q17   1   0.7713 -0.0370  0.2392  11.00000  0.05    0.23
Q18   1   1.1912  0.1028  0.4861  11.00000  0.05    0.22
Q19   1   0.6754  0.4010 -0.0141  11.00000  0.05    0.22
Q20   1   1.5000  0.5000  0.5000  10.50000  0.05    0.22

  REM The information below was added by Olex2.
  REM
  REM R1 = 0.024668 for 1983 Fo > 4sig(Fo) and 0.026623 for all 15117 data
  REM n/a parameters refined using n/a restraints
  REM Highest difference peak 0.50, deepest hole -0.32
  REM Mean Shift 0, Max Shift -0.001.

  REM +++ Tabular Listing of Refinement Information +++
  REM R1_all = 0.026623
  REM R1_gt = 0.024668
  REM wR_ref = 0.063163
  REM GOOF = 1.07807
  REM Shift_max = -0.001
  REM Shift_mean = 0
  REM Reflections_all = 15117
  REM Reflections_gt = 1983
  REM Parameters = n/a
  REM Hole = -0.32
  REM Peak = 0.50
  REM Flack = n/a

  
;
_cod_data_source_file            ICA-2020-513-1199192.cif
_cod_data_source_block           mo_rap012_p-1
_cod_database_code               1563999
_shelx_space_group_comment
;
The symmetry employed for this shelxl refinement is uniquely defined
by the following loop, which should always be used as a source of
symmetry information in preference to the above space-group names.
They are only intended as comments.
;
_shelx_estimated_absorpt_t_max   0.882
_shelx_estimated_absorpt_t_min   0.564
loop_
_space_group_symop_operation_xyz
'x, y, z'
'-x, -y, -z'
loop_
_atom_site_label
_atom_site_type_symbol
_atom_site_fract_x
_atom_site_fract_y
_atom_site_fract_z
_atom_site_U_iso_or_equiv
_atom_site_adp_type
_atom_site_occupancy
_atom_site_site_symmetry_order
_atom_site_calc_flag
_atom_site_refinement_flags_posn
_atom_site_refinement_flags_adp
_atom_site_refinement_flags_occupancy
_atom_site_disorder_assembly
_atom_site_disorder_group
Se1 Se 0.62016(3) -0.40568(3) -0.20485(2) 0.01852(10) Uani 1 1 d . . . . .
O1 O 0.7345(3) -0.0067(2) -0.17323(15) 0.0220(4) Uani 1 1 d . . . . .
H1 H 0.705314 -0.111230 -0.231517 0.033 Uiso 1 1 calc GR . . . .
N1 N 0.7917(3) 0.1198(2) 0.17095(17) 0.0145(4) Uani 1 1 d . . . . .
C1 C 0.7879(3) 0.1358(3) 0.0531(2) 0.0147(4) Uani 1 1 d . . . . .
C2 C 0.7363(3) -0.0228(3) -0.0563(2) 0.0151(4) Uani 1 1 d . . . . .
C3 C 0.6853(3) -0.2004(3) -0.0506(2) 0.0151(4) Uani 1 1 d . . . . .
C4 C 0.6873(3) -0.2064(3) 0.0725(2) 0.0181(5) Uani 1 1 d . . . . .
H4 H 0.651792 -0.321694 0.082046 0.022 Uiso 1 1 calc R . . . .
C5 C 0.7399(3) -0.0481(3) 0.1794(2) 0.0172(5) Uani 1 1 d . . . . .
H5 H 0.740099 -0.055789 0.262181 0.021 Uiso 1 1 calc R . . . .
C16 C 0.8502(4) 0.2913(3) 0.2903(2) 0.0175(5) Uani 1 1 d . . . . .
H16A H 0.744362 0.346643 0.290068 0.021 Uiso 1 1 calc R . . . .
H16B H 0.976763 0.380770 0.287041 0.021 Uiso 1 1 calc R . . . .
C17 C 0.8413(3) 0.3229(3) 0.0459(2) 0.0185(5) Uani 1 1 d . . . . .
H17A H 0.762173 0.389311 0.095096 0.028 Uiso 1 1 calc GR . . . .
H17B H 0.811399 0.309606 -0.044650 0.028 Uiso 1 1 calc GR . . . .
H17C H 0.985111 0.391764 0.082430 0.028 Uiso 1 1 calc GR . . . .
C18 C 0.8798(3) 0.2609(3) 0.4146(2) 0.0167(5) Uani 1 1 d . . . . .
C19 C 1.0691(3) 0.2725(3) 0.4699(2) 0.0172(5) Uani 1 1 d . . . . .
H19 H 1.178303 0.297311 0.427849 0.021 Uiso 1 1 calc R . . . .
C20 C 1.0993(4) 0.2481(3) 0.5858(2) 0.0203(5) Uani 1 1 d . . . . .
H20 H 1.228764 0.256003 0.622563 0.024 Uiso 1 1 calc R . . . .
C21 C 0.9401(4) 0.2120(3) 0.6484(2) 0.0213(5) Uani 1 1 d . . . . .
H21 H 0.960708 0.194985 0.727695 0.026 Uiso 1 1 calc R . . . .
C22 C 0.7517(4) 0.2012(3) 0.5944(2) 0.0229(5) Uani 1 1 d . . . . .
H22 H 0.642747 0.176378 0.636747 0.027 Uiso 1 1 calc R . . . .
C23 C 0.7215(4) 0.2264(3) 0.4786(2) 0.0203(5) Uani 1 1 d . . . . .
H23 H 0.592272 0.220067 0.442671 0.024 Uiso 1 1 calc R . . . .
loop_
_atom_site_aniso_label
_atom_site_aniso_U_11
_atom_site_aniso_U_22
_atom_site_aniso_U_33
_atom_site_aniso_U_23
_atom_site_aniso_U_13
_atom_site_aniso_U_12
Se1 0.01832(14) 0.01874(14) 0.01496(14) 0.00315(10) 0.00322(9) 0.00524(10)
O1 0.0307(10) 0.0236(9) 0.0121(8) 0.0089(7) 0.0059(7) 0.0073(8)
N1 0.0163(9) 0.0142(9) 0.0140(9) 0.0068(8) 0.0030(7) 0.0049(7)
C1 0.0124(11) 0.0190(11) 0.0155(11) 0.0097(9) 0.0038(8) 0.0057(9)
C2 0.0120(10) 0.0206(11) 0.0147(11) 0.0087(9) 0.0048(8) 0.0056(9)
C3 0.0104(10) 0.0192(11) 0.0162(11) 0.0072(9) 0.0031(8) 0.0050(9)
C4 0.0202(12) 0.0162(11) 0.0202(12) 0.0101(10) 0.0024(9) 0.0063(9)
C5 0.0218(12) 0.0184(11) 0.0141(11) 0.0096(9) 0.0038(9) 0.0068(9)
C16 0.0224(12) 0.0142(11) 0.0158(11) 0.0058(9) 0.0028(9) 0.0063(9)
C17 0.0207(12) 0.0182(11) 0.0190(12) 0.0113(10) 0.0038(9) 0.0053(9)
C18 0.0223(12) 0.0107(10) 0.0152(11) 0.0040(9) 0.0035(9) 0.0043(9)
C19 0.0212(12) 0.0140(11) 0.0153(11) 0.0052(9) 0.0054(9) 0.0043(9)
C20 0.0223(12) 0.0164(11) 0.0182(12) 0.0050(9) -0.0019(9) 0.0049(9)
C21 0.0344(14) 0.0132(11) 0.0130(11) 0.0042(9) 0.0037(10) 0.0047(10)
C22 0.0271(13) 0.0194(12) 0.0205(12) 0.0065(10) 0.0115(10) 0.0051(10)
C23 0.0185(12) 0.0201(11) 0.0213(12) 0.0065(10) 0.0050(9) 0.0068(9)
loop_
_atom_type_symbol
_atom_type_description
_atom_type_scat_dispersion_real
_atom_type_scat_dispersion_imag
_atom_type_scat_source
C C 0.0033 0.0016 'International Tables Vol C Tables 4.2.6.8 and 6.1.1.4'
H H 0.0000 0.0000 'International Tables Vol C Tables 4.2.6.8 and 6.1.1.4'
N N 0.0061 0.0033 'International Tables Vol C Tables 4.2.6.8 and 6.1.1.4'
O O 0.0106 0.0060 'International Tables Vol C Tables 4.2.6.8 and 6.1.1.4'
Se Se -0.0929 2.2259 'International Tables Vol C Tables 4.2.6.8 and 6.1.1.4'
loop_
_geom_angle_atom_site_label_1
_geom_angle_atom_site_label_2
_geom_angle_atom_site_label_3
_geom_angle
_geom_angle_site_symmetry_1
_geom_angle_site_symmetry_3
C1 N1 C16 118.69(17) . .
C5 N1 C1 120.61(19) . .
C5 N1 C16 120.68(18) . .
N1 C1 C2 118.32(19) . .
N1 C1 C17 119.66(19) . .
C2 C1 C17 122.0(2) . .
O1 C2 C1 118.31(19) . .
O1 C2 C3 119.19(19) . .
C1 C2 C3 122.5(2) . .
C2 C3 Se1 118.89(16) . .
C4 C3 Se1 125.14(17) . .
C4 C3 C2 116.0(2) . .
C5 C4 C3 120.6(2) . .
N1 C5 C4 121.9(2) . .
N1 C16 C18 114.18(17) . .
C19 C18 C16 120.0(2) . .
C19 C18 C23 118.9(2) . .
C23 C18 C16 121.1(2) . .
C20 C19 C18 120.5(2) . .
C19 C20 C21 120.2(2) . .
C22 C21 C20 119.7(2) . .
C21 C22 C23 120.2(2) . .
C22 C23 C18 120.5(2) . .
loop_
_geom_bond_atom_site_label_1
_geom_bond_atom_site_label_2
_geom_bond_distance
_geom_bond_site_symmetry_2
Se1 C3 1.873(2) .
O1 C2 1.360(3) .
N1 C1 1.369(3) .
N1 C5 1.356(3) .
N1 C16 1.500(3) .
C1 C2 1.383(3) .
C1 C17 1.502(3) .
C2 C3 1.419(3) .
C3 C4 1.397(3) .
C4 C5 1.366(3) .
C16 C18 1.503(3) .
C18 C19 1.394(3) .
C18 C23 1.397(3) .
C19 C20 1.385(3) .
C20 C21 1.394(3) .
C21 C22 1.386(4) .
C22 C23 1.388(3) .
loop_
_geom_torsion_atom_site_label_1
_geom_torsion_atom_site_label_2
_geom_torsion_atom_site_label_3
_geom_torsion_atom_site_label_4
_geom_torsion
_geom_torsion_site_symmetry_1
_geom_torsion_site_symmetry_2
_geom_torsion_site_symmetry_3
_geom_torsion_site_symmetry_4
Se1 C3 C4 C5 179.08(17) . . . .
O1 C2 C3 Se1 0.6(3) . . . .
O1 C2 C3 C4 -179.04(19) . . . .
N1 C1 C2 O1 -179.34(19) . . . .
N1 C1 C2 C3 0.7(3) . . . .
N1 C16 C18 C19 90.0(2) . . . .
N1 C16 C18 C23 -92.0(2) . . . .
C1 N1 C5 C4 1.7(3) . . . .
C1 N1 C16 C18 -171.20(19) . . . .
C1 C2 C3 Se1 -179.40(16) . . . .
C1 C2 C3 C4 0.9(3) . . . .
C2 C3 C4 C5 -1.3(3) . . . .
C3 C4 C5 N1 0.0(3) . . . .
C5 N1 C1 C2 -2.0(3) . . . .
C5 N1 C1 C17 178.57(19) . . . .
C5 N1 C16 C18 10.0(3) . . . .
C16 N1 C1 C2 179.22(19) . . . .
C16 N1 C1 C17 -0.2(3) . . . .
C16 N1 C5 C4 -179.5(2) . . . .
C16 C18 C19 C20 178.80(19) . . . .
C16 C18 C23 C22 -179.1(2) . . . .
C17 C1 C2 O1 0.1(3) . . . .
C17 C1 C2 C3 -179.9(2) . . . .
C18 C19 C20 C21 -0.1(3) . . . .
C19 C18 C23 C22 -1.0(3) . . . .
C19 C20 C21 C22 -0.2(3) . . . .
C20 C21 C22 C23 -0.1(3) . . . .
C21 C22 C23 C18 0.7(3) . . . .
C23 C18 C19 C20 0.7(3) . . . .
loop_
_refln_index_h
_refln_index_k
_refln_index_l
_refln_F_squared_meas
_refln_F_squared_sigma
-1 0 0 1.24 0.24
-1 0 0 1.26 0.28
-1 0 0 1.38 0.27
1 0 0 1.65 0.29
1 0 0 2.15 0.35
1 0 0 1.95 0.28
-2 0 0 296.04 17.95
-2 0 0 319.56 17.7
-2 0 0 296.46 17.79
2 0 0 288.85 17.9
2 0 0 296.75 17.88
2 0 0 300.27 17.82
-3 0 0 64 4.1
-3 0 0 59.23 4.28
3 0 0 63.18 4.26
3 0 0 63.68 4.16
3 0 0 64.34 4.24
3 0 0 56.05 4.08
-4 0 0 43.07 3.37
-4 0 0 39.23 3.01
4 0 0 37.64 3.06
4 0 0 42.97 3.16
4 0 0 43.35 3.27
4 0 0 44.79 3.28
-5 0 0 16.2 1.6
-5 0 0 16.49 1.93
5 0 0 16.82 1.83
5 0 0 17.22 1.84
5 0 0 14.47 1.66
5 0 0 14.81 1.68
-6 0 0 11.62 1.45
-6 0 0 12.58 1.83
6 0 0 15.53 2.8
6 0 0 12.82 1.74
6 0 0 13.04 1.63
6 0 0 13.16 1.68
-7 0 0 5.36 1.45
7 0 0 7.49 1.54
7 0 0 6.01 1.34
7 0 0 8.1 1.66
-8 0 0 25.59 3.06
8 0 0 18.06 2.39
8 0 0 26.28 2.73
8 0 0 19.5 2.64
-9 0 0 16.22 3.44
9 0 0 14.52 3.04
9 0 0 12.09 2.31
9 0 0 16.17 2.42
9 -1 0 4.67 1.38
9 -1 0 5.6 1.45
9 -1 0 4.76 1.4
-9 1 0 7.24 2
-9 1 0 5.28 1.61
8 -1 0 13.53 2.71
8 -1 0 13.14 2.79
8 -1 0 17.84 2.18
-8 1 0 16.04 2.34
7 -1 0 0.02 0.45
7 -1 0 0.4 0.47
7 -1 0 0.72 0.69
7 -1 0 -0.19 0.45
-7 1 0 0.64 0.62
6 -1 0 2.51 0.89
6 -1 0 3.74 0.99
6 -1 0 3.29 0.85
6 -1 0 3.46 0.91
-6 1 0 2.32 0.9
-6 1 0 3.97 0.89
5 -1 0 105.93 7.06
5 -1 0 93.91 7.12
5 -1 0 102.99 7.15
-5 1 0 103.27 6.95
-5 1 0 110.83 7.39
-5 1 0 111.35 6.66
-5 1 0 109.97 7.22
4 -1 0 417.34 25.28
4 -1 0 411.9 25.16
-4 1 0 419.46 25.42
-4 1 0 430.59 25.3
3 -1 0 9.1 1.07
3 -1 0 9.81 1.05
3 -1 0 9.94 1.01
-3 1 0 9.06 1.09
-3 1 0 8.51 0.95
-3 1 0 9.19 1.03
2 -1 0 797.18 47.72
2 -1 0 812.67 47.8
2 -1 0 831.85 47.68
-2 1 0 825.78 47.81
-2 1 0 773.09 47.72
-2 1 0 838.98 47.7
1 -1 0 41.18 2.58
1 -1 0 42.51 2.62
1 -1 0 44.47 2.68
-1 1 0 40.6 2.65
-1 1 0 40 2.59
-1 1 0 41.55 2.63
0 -1 0 0.71 0.16
0 -1 0 1.2 0.19
0 -1 0 0.77 0.15
0 1 0 0.85 0.17
0 1 0 0.88 0.16
0 1 0 0.72 0.16
-1 -1 0 73.68 4.53
-1 -1 0 71.06 4.44
-1 -1 0 72.71 4.38
1 1 0 74.93 4.42
1 1 0 68.94 4.4
-2 -1 0 11.94 0.98
-2 -1 0 11.73 1.16
-2 -1 0 10.51 1.02
2 1 0 11.1 1.08
2 1 0 11.19 1.02
2 1 0 11.86 1.02
-3 -1 0 131.31 8.42
-3 -1 0 141.18 8.12
3 1 0 122.71 8.14
3 1 0 129.6 8.06
3 1 0 129.84 8.29
3 1 0 123.97 8.29
3 1 0 136.16 8.24
-4 -1 0 77.84 5.8
-4 -1 0 85.35 5.43
4 1 0 80.3 5.65
4 1 0 89.19 5.64
4 1 0 76.51 5.49
4 1 0 85.47 5.74
-5 -1 0 10.37 1.23
-5 -1 0 6.91 1.45
5 1 0 10.11 1.34
5 1 0 10.72 1.49
5 1 0 10.94 1.35
5 1 0 11.45 1.63
-6 -1 0 15.91 1.68
-6 -1 0 16.78 2.22
6 1 0 16.72 1.89
6 1 0 15.63 1.91
6 1 0 16.35 2.04
6 1 0 16.78 1.96
-7 -1 0 20.08 2.7
7 1 0 19.91 2.41
7 1 0 21.27 2.43
7 1 0 18.73 2.64
-8 -1 0 7.83 1.99
8 1 0 7.46 1.62
8 1 0 8.98 1.92
8 1 0 8.36 1.76
9 1 0 7.3 1.84
9 -2 0 8.94 1.75
9 -2 0 7.91 1.72
9 -2 0 6.78 1.64
-9 2 0 7.97 1.88
-9 2 0 9.33 2.19
8 -2 0 12.68 1.92
8 -2 0 18.87 2.22
8 -2 0 16.7 2.29
-8 2 0 19.51 2.53
7 -2 0 17.6 2.22
7 -2 0 20.87 2.19
7 -2 0 18.72 2.22
-7 2 0 17.37 2.01
-7 2 0 20.88 2.49
6 -2 0 164.91 10.35
6 -2 0 156.72 10.49
6 -2 0 144.79 10.47
-6 2 0 167.1 10.6
-6 2 0 161.77 10.72
-6 2 0 160.09 10.32
5 -2 0 66.67 5.06
5 -2 0 68.64 4.98
5 -2 0 69.29 4.85
-5 2 0 71.09 5.04
-5 2 0 70.09 4.88
-5 2 0 69.31 5.14
4 -2 0 28.91 2.51
4 -2 0 29.3 2.39
4 -2 0 28.75 2.29
-4 2 0 27.78 2.4
-4 2 0 30.03 2.53
3 -2 0 21.92 1.64
3 -2 0 17.41 1.72
3 -2 0 22.64 1.73
-3 2 0 19 1.7
-3 2 0 19.79 1.77
-3 2 0 19.85 1.65
2 -2 0 77.52 4.97
2 -2 0 70.65 4.76
2 -2 0 75.82 4.85
-2 2 0 79.39 4.73
-2 2 0 76.69 4.9
-2 2 0 82.21 4.85
-2 2 0 77.2 4.93
1 -2 0 452.23 26.49
1 -2 0 460.5 26.65
1 -2 0 424.1 26.42
1 -2 0 456.1 26.4
1 -2 0 484.25 26.55
-1 2 0 388.53 26.5
-1 2 0 471.55 26.59
-1 2 0 461.37 26.6
-1 2 0 471.87 26.38
0 -2 0 86.38 5.2
0 -2 0 83.93 5.15
0 -2 0 87.56 5.17
0 2 0 86.89 5.15
0 2 0 84.3 5.15
0 2 0 79.06 5.02
0 2 0 86.78 5.16
-1 -2 0 4.87 0.67
-1 -2 0 5.09 0.62
-1 -2 0 5.28 0.54
1 2 0 4.56 0.56
1 2 0 4.92 0.53
-2 -2 0 140.9 8.29
-2 -2 0 131.47 8.45
2 2 0 128.31 8.42
2 2 0 145.23 8.43
2 2 0 136.01 8.33
-3 -2 0 110.83 6.24
-3 -2 0 89.7 6.36
-3 -2 0 103.68 6.68
3 2 0 88.86 6.34
3 2 0 106.02 6.31
3 2 0 89.56 6.32
-4 -2 0 3.31 0.69
-4 -2 0 3.67 0.97
4 2 0 2.22 0.67
4 2 0 2.9 0.75
4 2 0 3.54 0.77
4 2 0 3.04 0.85
4 2 0 3.72 0.77
-5 -2 0 4.99 0.89
-5 -2 0 5.95 1.42
5 2 0 6.33 1.33
5 2 0 4.34 1
5 2 0 2.94 0.85
5 2 0 4.78 1.05
-6 -2 0 46.83 3.59
-6 -2 0 37.85 4.17
6 2 0 47.74 4.18
6 2 0 47.87 4.21
6 2 0 53.1 3.9
-7 -2 0 26.07 3.26
7 2 0 28.14 2.83
7 2 0 31.23 3.11
7 2 0 28.51 3.18
-8 -2 0 6.95 1.92
8 2 0 3.25 1.09
8 2 0 5.31 1.59
8 2 0 6.12 1.63
9 -3 0 2.77 1.01
9 -3 0 3.14 1.14
9 -3 0 3.82 1.14
-9 3 0 2.18 1.01
-9 3 0 4.38 1.54
8 -3 0 41.55 3.98
8 -3 0 48.62 4.32
-8 3 0 52.03 3.54
-8 3 0 52.93 4.64
-8 3 0 50.38 4.96
7 -3 0 26.57 2.75
7 -3 0 29.7 2.98
7 -3 0 32.3 3.14
-7 3 0 34.37 3.04
-7 3 0 35.35 3.02
-7 3 0 30.09 3.19
-7 3 0 32.42 3.18
6 -3 0 17.67 2.06
6 -3 0 19.93 1.93
6 -3 0 18.43 2.03
-6 3 0 19.14 1.97
-6 3 0 17.86 2.08
-6 3 0 18.25 1.94
-6 3 0 17.76 2.14
5 -3 0 15.92 1.71
5 -3 0 17.13 1.64
5 -3 0 12.98 1.72
-5 3 0 18.77 1.77
-5 3 0 15.78 1.6
-5 3 0 16.37 1.79
-5 3 0 14.78 1.78
4 -3 0 15.83 1.87
4 -3 0 14.92 1.52
4 -3 0 16.22 1.46
-4 3 0 14.75 1.58
-4 3 0 15.68 1.65
-4 3 0 15.85 1.53
-4 3 0 16.53 1.43
3 -3 0 35.77 2.74
3 -3 0 40.16 2.67
3 -3 0 37.41 2.93
-3 3 0 39.74 2.89
-3 3 0 39.6 2.88
-3 3 0 39.94 2.58
-3 3 0 37.63 2.75
2 -3 0 175.48 10.26
2 -3 0 182.25 10.18
2 -3 0 163.9 10.05
2 -3 0 165.93 10.43
-2 3 0 164.55 10.23
-2 3 0 166.26 9.99
-2 3 0 168.66 10.34
1 -3 0 106.43 6.81
1 -3 0 133.54 7.22
1 -3 0 118.33 6.99
1 -3 0 108.64 6.83
1 -3 0 114.25 6.98
-1 3 0 113.79 7.05
-1 3 0 113.64 6.88
-1 3 0 119.43 7.1
0 -3 0 16.45 1.31
0 -3 0 17.33 1.38
0 -3 0 18.35 1.32
0 3 0 15.47 1.27
0 3 0 16.45 1.33
0 3 0 17.41 1.29
0 3 0 16.91 1.12
-1 -3 0 96.88 5.98
-1 -3 0 80.76 6.02
-1 -3 0 99.22 5.84
1 3 0 99.04 5.91
1 3 0 92.79 5.9
1 3 0 96.92 5.85
-2 -3 0 102.1 6.35
-2 -3 0 104.18 6.63
-2 -3 0 95.65 6.74
2 3 0 96.99 6.35
2 3 0 112.28 6.57
-3 -3 0 45.07 3.5
-3 -3 0 40.87 2.9
-3 -3 0 40.69 3.23
3 3 0 39.49 3.08
3 3 0 41.05 3.15
3 3 0 43.68 3
-4 -3 0 0.37 0.46
-4 -3 0 0.57 0.49
4 3 0 0.61 0.49
4 3 0 0 0.35
4 3 0 0.27 0.34
4 3 0 0.6 0.44
-5 -3 0 16.18 1.73
-5 -3 0 17.83 2.35
5 3 0 21.4 2.38
5 3 0 20.18 2.15
5 3 0 19.05 2
5 3 0 19.41 1.95
-6 -3 0 24.28 2.91
6 3 0 22.33 2.48
6 3 0 19.04 2.14
6 3 0 19.65 2.59
-7 -3 0 34.78 4.07
7 3 0 39.82 3.48
7 3 0 41.73 3.91
7 3 0 38.7 4.08
-8 -3 0 -0.25 0.95
8 3 0 0.46 0.89
8 3 0 1.73 0.9
8 3 0 0.23 0.83
9 -4 0 2.29 0.89
9 -4 0 0.66 0.72
-9 4 0 0.94 0.76
-9 4 0 -1.42 0.76
-9 4 0 -0.1 0.72
8 -4 0 11.38 1.91
8 -4 0 9.92 1.91
-8 4 0 14.07 1.84
-8 4 0 14.97 2.13
-8 4 0 13.15 2.29
7 -4 0 31.26 3.15
7 -4 0 37.98 3.12
7 -4 0 37.55 3.48
-7 4 0 42.71 3.65
-7 4 0 34.51 3.5
-7 4 0 35.19 3.11
-7 4 0 34.71 3.4
6 -4 0 29.57 2.71
6 -4 0 27.54 2.87
6 -4 0 30.76 2.56
-6 4 0 30.83 2.89
-6 4 0 28.18 2.51
-6 4 0 30.36 2.89
-6 4 0 31.19 2.75
5 -4 0 3.07 0.96
5 -4 0 3.18 0.8
5 -4 0 3.3 0.75
-5 4 0 4.14 0.81
-5 4 0 2.31 0.69
-5 4 0 3.4 0.98
-5 4 0 2.55 0.86
4 -4 0 79.49 5.35
4 -4 0 81.65 5.19
4 -4 0 77.79 5.62
-4 4 0 77.81 5.36
-4 4 0 77.01 5.49
-4 4 0 82.67 5.07
-4 4 0 81.14 5.5
3 -4 0 103.86 6.73
3 -4 0 103.92 6.3
3 -4 0 101.53 6.42
3 -4 0 98.38 6.14
-3 4 0 94.99 6.54
-3 4 0 99.56 6.53
-3 4 0 98.69 6.06
-3 4 0 107.95 6.77
2 -4 0 28.21 2.1
2 -4 0 29.55 1.89
2 -4 0 29.46 2.05
2 -4 0 27.92 2.32
-2 4 0 30.14 2.23
-2 4 0 30.56 2.27
-2 4 0 31.18 2.16
1 -4 0 13.29 1.34
1 -4 0 16.2 1.25
1 -4 0 16.49 1.28
1 -4 0 14.49 1.02
-1 4 0 15.28 1.28
-1 4 0 14.01 1.06
-1 4 0 15.05 1.31
0 -4 0 0.13 0.36
0 -4 0 0.86 0.34
0 -4 0 0.97 0.38
0 4 0 0.62 0.2
0 4 0 1.36 0.46
0 4 0 1.05 0.37
0 4 0 1.03 0.38
-1 -4 0 113.66 7.59
-1 -4 0 118.92 7.77
1 4 0 133.61 7.57
1 4 0 115.74 7.43
-2 -4 0 61.42 3.91
-2 -4 0 51.64 4.14
-2 -4 0 62 4.44
2 4 0 61.53 4.13
2 4 0 57.49 4
-3 -4 0 12.47 1.77
-3 -4 0 14.94 1.73
-3 -4 0 15.24 1.39
3 4 0 17.1 1.7
3 4 0 12.69 1.44
3 4 0 15.9 1.46
-4 -4 0 9.96 1.33
-4 -4 0 8.94 1.5
-4 -4 0 12.8 1.86
4 4 0 9.79 1.32
4 4 0 11.02 1.54
4 4 0 12.64 1.37
-5 -4 0 210.13 13.8
5 4 0 196.25 13.11
5 4 0 210.54 12.65
5 4 0 187.17 12.87
5 4 0 199.67 13.52
-6 -4 0 2.04 1.08
6 4 0 2.04 0.81
6 4 0 1.15 0.83
6 4 0 2.16 0.95
-7 -4 0 4.22 1.56
7 4 0 6.59 1.91
7 4 0 6.78 2.24
7 4 0 5.44 1.96
9 -5 0 18.95 2.47
9 -5 0 15.85 2.15
-9 5 0 21.58 2.39
-9 5 0 18.45 2.94
-9 5 0 20.52 2.77
8 -5 0 16.15 2.2
8 -5 0 18.6 2.06
-8 5 0 20.69 2.15
-8 5 0 16.37 2.32
-8 5 0 16.28 2.37
7 -5 0 10.82 2
7 -5 0 8.26 1.94
7 -5 0 12.08 1.5
-7 5 0 9.27 1.93
-7 5 0 9.29 1.82
-7 5 0 11.28 1.42
6 -5 0 0.77 0.52
6 -5 0 -0.49 0.55
6 -5 0 0.63 0.48
-6 5 0 0.07 0.44
-6 5 0 0.55 0.51
-6 5 0 0.14 0.33
-6 5 0 0.41 0.45
5 -5 0 18.07 1.64
5 -5 0 18.57 1.81
5 -5 0 16.72 2.05
-5 5 0 16.74 1.94
-5 5 0 17.69 1.48
-5 5 0 17.57 1.92
-5 5 0 18.42 1.84
4 -5 0 27.65 2.27
4 -5 0 28.08 2.14
4 -5 0 28.74 1.99
4 -5 0 27.33 2.59
-4 5 0 27.7 2.48
-4 5 0 27.93 2.42
-4 5 0 27.34 1.86
-4 5 0 26.59 2.32
3 -5 0 134.84 7.88
3 -5 0 133.35 8.05
3 -5 0 136.05 8.17
3 -5 0 131.24 8.59
-3 5 0 128.12 8.42
-3 5 0 122.95 8.24
-3 5 0 127.8 8.29
2 -5 0 6.35 1.13
2 -5 0 5.59 0.76
2 -5 0 6.78 0.58
2 -5 0 6.71 0.81
-2 5 0 5.93 0.85
-2 5 0 6.6 0.86
-2 5 0 5.43 0.89
1 -5 0 17.76 1.68
1 -5 0 20.74 1.61
1 -5 0 17.29 1.48
1 -5 0 16.61 1.24
-1 5 0 19.64 1.54
-1 5 0 19.76 1.55
-1 5 0 17.13 1.58
-1 5 0 16.8 1.28
0 -5 0 168.44 9.76
0 -5 0 160.17 9.9
0 -5 0 157.47 9.79
0 5 0 159.75 9.4
0 5 0 153.91 9.68
0 5 0 146.05 9.65
-1 -5 0 159.14 10.17
-1 -5 0 167.78 10.39
1 5 0 159.88 10.16
1 5 0 166.56 10.26
1 5 0 172.52 10.18
-2 -5 0 1.61 0.77
-2 -5 0 0.23 0.42
-2 -5 0 1.11 0.59
2 5 0 0.75 0.51
2 5 0 1.99 0.57
2 5 0 1.33 0.52
-3 -5 0 76.81 6.04
-3 -5 0 76.18 5.84
-3 -5 0 76.32 5.29
3 5 0 84.68 5.76
3 5 0 77.57 5.43
3 5 0 88.58 5.42
-4 -5 0 6.9 1.49
-4 -5 0 12.11 2.37
-4 -5 0 6.07 1.07
4 5 0 9.5 1.29
4 5 0 8.4 1.55
-5 -5 0 1.7 1.08
5 5 0 1.71 0.87
5 5 0 1.55 0.85
5 5 0 1.62 0.76
-6 -5 0 9.06 2.39
6 5 0 11.73 2.39
6 5 0 12.46 2.2
6 5 0 9.85 1.57
9 -6 0 7.11 1.46
9 -6 0 8.89 1.73
-9 6 0 9.32 2.06
-9 6 0 6.2 1.73
8 -6 0 14.44 2.04
8 -6 0 15.41 1.86
-8 6 0 16.5 2.81
-8 6 0 16.8 1.8
-8 6 0 15.13 2.18
7 -6 0 4.82 1.23
7 -6 0 5.26 1.07
-7 6 0 5.62 1.47
-7 6 0 7.47 1.66
-7 6 0 5.71 1.04
6 -6 0 10.69 1.69
6 -6 0 13.75 1.47
6 -6 0 11.48 2
-6 6 0 12.67 1.71
-6 6 0 10.82 1.57
-6 6 0 11.85 1.16
-6 6 0 11.25 1.73
5 -6 0 61.31 4.85
5 -6 0 62.16 4.15
5 -6 0 62.32 3.95
5 -6 0 58.87 4.3
-5 6 0 57.19 4.47
-5 6 0 57.05 4.63
-5 6 0 58.67 3.77
4 -6 0 53.48 4.18
4 -6 0 51.91 3.5
4 -6 0 50.25 3.63
4 -6 0 51.37 3.29
-4 6 0 50.53 3.79
-4 6 0 47.74 3.93
-4 6 0 49.18 3.77
3 -6 0 26.12 1.81
3 -6 0 29.55 2.13
3 -6 0 26.54 2.12
3 -6 0 27.27 2.57
-3 6 0 27.02 2.27
-3 6 0 26.47 2.43
-3 6 0 25.59 2.25
2 -6 0 43.62 2.91
2 -6 0 37.81 3.17
2 -6 0 41.76 2.85
-2 6 0 40.3 3.14
-2 6 0 31.83 2.86
-2 6 0 40.85 2.92
1 -6 0 106.77 6.76
1 -6 0 117.26 7.22
1 -6 0 116.97 7.08
-1 6 0 108.24 7.2
-1 6 0 109.27 6.79
-1 6 0 110.68 7.05
0 -6 0 61.21 4.32
0 -6 0 60.7 4.13
0 -6 0 58.96 4.18
0 6 0 56.69 3.69
0 6 0 58.56 4.01
0 6 0 59.34 4.07
0 6 0 57.04 4.02
-1 -6 0 4.51 1.07
-1 -6 0 4.62 0.94
-1 -6 0 4.85 1.04
1 6 0 5.32 0.6
1 6 0 4.79 0.89
1 6 0 2.7 0.71
1 6 0 4.07 0.79
-2 -6 0 -0.27 0.4
-2 -6 0 0.02 0.56
-2 -6 0 0.19 0.43
2 6 0 0.53 0.54
2 6 0 0.88 0.42
2 6 0 0.2 0.44
-3 -6 0 8.86 2.09
-3 -6 0 5.24 1.37
-3 -6 0 10.04 1.27
3 6 0 10.64 1.54
3 6 0 8.75 1.23
-4 -6 0 54.01 4.84
4 6 0 51.89 3.91
4 6 0 50.01 4.37
-5 -6 0 0.47 0.92
5 6 0 0.33 0.75
5 6 0 -0.2 0.64
5 6 0 0.72 0.75
9 -7 0 8.41 1.75
9 -7 0 8.11 1.5
-9 7 0 8.28 1.26
-9 7 0 3.77 1.77
-9 7 0 8.62 1.96
8 -7 0 3.89 0.99
8 -7 0 3.38 1.11
-8 7 0 3.34 0.8
-8 7 0 4.66 1.32
7 -7 0 0.9 0.6
7 -7 0 0.42 0.44
7 -7 0 0.58 0.6
-7 7 0 0.83 0.72
-7 7 0 1.01 0.39
-7 7 0 1.17 0.8
6 -7 0 33.33 3.61
6 -7 0 37.08 2.74
6 -7 0 38.42 3.2
-6 7 0 41.07 3.44
-6 7 0 40.51 2.54
-6 7 0 34.38 3.55
5 -7 0 77.62 5.98
5 -7 0 75.46 4.82
5 -7 0 77.28 5.25
5 -7 0 75.43 5.07
-5 7 0 72.12 5.42
4 -7 0 9.61 0.94
4 -7 0 8.53 1.57
4 -7 0 11.33 1.32
4 -7 0 10.15 1.22
-4 7 0 10.81 1.68
-4 7 0 12.22 1.67
-4 7 0 11.88 1.48
3 -7 0 64.85 4.54
3 -7 0 65.49 4.16
3 -7 0 63.16 5.07
3 -7 0 70.49 4.59
-3 7 0 70.9 4.71
-3 7 0 67.91 5.03
2 -7 0 21.16 1.9
2 -7 0 21.87 2.21
2 -7 0 19.96 1.82
-2 7 0 19.12 2.09
-2 7 0 19.66 1.84
1 -7 0 12.98 1.67
1 -7 0 14.12 1.47
1 -7 0 10.47 1.52
1 -7 0 13.3 1.08
-1 7 0 14.26 1.48
-1 7 0 14.42 1.18
-1 7 0 16.87 1.72
0 -7 0 18.36 2
0 -7 0 17.71 1.83
0 -7 0 16.96 1.82
0 7 0 17.79 1.72
0 7 0 20.61 2.5
0 7 0 16.54 1.32
0 7 0 15.24 1.6
-1 -7 0 0.4 0.56
-1 -7 0 0.81 0.69
-1 -7 0 0.1 0.48
1 7 0 0.28 0.29
1 7 0 0.71 0.56
-2 -7 0 13.67 2.05
2 7 0 12.61 1.17
2 7 0 15.02 1.62
2 7 0 14.43 1.8
-3 -7 0 21.33 2.63
-3 -7 0 20.52 2.71
3 7 0 27.49 2.38
3 7 0 22.42 2.52
-4 -7 0 9.58 2.16
4 7 0 11.04 2.04
4 7 0 6.81 2.33
8 -8 0 5.85 1
-8 8 0 9.04 2.31
-8 8 0 5.76 0.81
-8 8 0 4.29 1.34
7 -8 0 37.03 2.78
7 -8 0 36.47 3.25
7 -8 0 39.19 3.04
-7 8 0 37.06 3.48
6 -8 0 12.38 1.24
6 -8 0 14.96 1.6
6 -8 0 13.41 1.71
-6 8 0 13.78 1.88
-6 8 0 13.58 2.34
5 -8 0 0.29 0.33
5 -8 0 1.64 1
5 -8 0 0.76 0.84
5 -8 0 0.03 0.52
-5 8 0 -0.14 0.57
-5 8 0 0.69 0.6
4 -8 0 2.39 0.77
4 -8 0 -0.08 0.47
4 -8 0 0.64 0.34
4 -8 0 1.13 0.54
-4 8 0 1.13 0.68
-4 8 0 0.54 0.67
3 -8 0 9.64 1.87
3 -8 0 6.44 1.17
3 -8 0 10.11 1.31
-3 8 0 6.85 1.49
2 -8 0 36.2 2.92
2 -8 0 34.32 3.19
2 -8 0 32.92 2.75
-2 8 0 34.05 3.14
1 -8 0 32.94 2.34
1 -8 0 35.58 3.23
1 -8 0 34.91 2.87
1 -8 0 37.33 3.11
-1 8 0 41.04 3.21
-1 8 0 37.93 2.5
-1 8 0 31.45 2.81
0 -8 0 0.12 0.73
0 -8 0 0.11 0.53
0 8 0 1.14 0.37
0 8 0 2.39 0.87
0 8 0 0.76 0.6
-1 -8 0 11.92 1.76
-1 -8 0 12.64 1.92
1 8 0 13.03 1.71
1 8 0 15.23 1.69
1 8 0 14.12 1.25
-2 -8 0 16.88 2.2
2 8 0 15.3 1.56
2 8 0 18.52 1.95
2 8 0 21.65 2.33
-3 -8 0 13.72 2.41
-3 -8 0 8.07 1.67
3 8 0 9.34 1.56
3 8 0 8.36 1.75
8 -9 0 3.9 1.07
8 -9 0 4.37 2.08
8 -9 0 3.87 0.84
-8 9 0 2.18 1.68
-8 9 0 4.4 1.37
7 -9 0 5.64 1.04
7 -9 0 7.21 1.25
7 -9 0 4.33 1.2
-7 9 0 8.1 1.68
-7 9 0 11.39 3.39
6 -9 0 9.46 1
6 -9 0 8.77 1.48
6 -9 0 7.42 1.31
-6 9 0 7.37 1.46
-6 9 0 11.91 2.35
5 -9 0 2.42 0.77
5 -9 0 1.8 0.8
5 -9 0 2.05 0.48
-5 9 0 1.64 0.8
4 -9 0 24.1 2.22
-4 9 0 22.48 2.27
-4 9 0 21.3 2.7
3 -9 0 16.68 1.87
3 -9 0 17.72 1.81
-3 9 0 15.57 2.14
-3 9 0 15.18 1.8
2 -9 0 11.12 1.47
2 -9 0 10.66 1.6
-2 9 0 11.39 1.76
-2 9 0 10.49 1.6
1 -9 0 0.93 0.68
1 -9 0 -0.41 0.61
-1 9 0 0.65 0.56
0 -9 0 1.71 0.79
0 -9 0 0.95 0.72
0 9 0 1.15 0.44
0 9 0 1.97 0.86
0 9 0 2.1 0.83
-1 -9 0 14.9 2.52
-1 -9 0 11.72 1.87
1 9 0 11.45 1.88
1 9 0 11.33 1.16
-2 -9 0 24.55 3.13
2 9 0 24.96 2.8
2 9 0 30.71 3.21
-7 10 0 8.02 1.59
6 -10 0 -0.1 0.36
6 -10 0 0.99 0.67
6 -10 0 0.07 0.73
-6 10 0 0.85 0.94
-6 10 0 0.25 0.94
5 -10 0 0.76 0.81
5 -10 0 0.78 0.78
-5 10 0 1.07 0.89
-5 10 0 0.97 0.94
4 -10 0 8.03 1.44
4 -10 0 6.77 1.39
-4 10 0 8.06 1.45
-4 10 0 10.35 2.3
3 -10 0 16.9 2.15
-3 10 0 24.29 3.53
-3 10 0 15.72 1.93
2 -10 0 6.45 1.39
2 -10 0 7.97 1.49
-2 10 0 8.52 1.49
-2 10 0 9.03 1.96
1 -10 0 5.56 1.49
1 -10 0 3.62 1.17
-1 10 0 8.39 1.64
-1 10 0 5.48 1.27
0 -10 0 19.39 2.4
0 -10 0 17.47 1.7
0 10 0 14.47 2.04
-2 11 -1 12.82 1.8
2 -11 1 15.23 2.41
-3 11 -1 10 1.71
3 -11 1 12.64 1.84
-4 11 -1 0.44 0.77
4 -11 1 1.82 0.88
-5 11 -1 2.45 0.95
5 -11 1 6.01 1.38
1 10 -1 0.7 0.71
-1 -10 1 1.23 0.65
0 10 -1 11.94 1.32
0 -10 1 9.98 1.9
-1 10 -1 25.23 2.44
-1 10 -1 29.72 2.86
1 -10 1 20.56 2.45
-2 10 -1 2.11 0.89
-2 10 -1 1.96 1.02
2 -10 1 2.94 0.89
2 -10 1 1.25 0.74
-3 10 -1 0.57 0.82
-3 10 -1 -0.31 0.53
3 -10 1 -0.87 0.53
3 -10 1 1.13 0.73
-4 10 -1 1.16 0.74
-4 10 -1 -0.92 0.73
4 -10 1 0.58 0.65
4 -10 1 1.1 0.68
-5 10 -1 8.94 1.95
-5 10 -1 12.51 1.7
5 -10 1 4.7 1.16
5 -10 1 7.56 1.33
5 -10 1 7.84 0.95
-6 10 -1 8.89 1.76
-6 10 -1 11.43 2.39
6 -10 1 6.16 1.43
6 -10 1 8.19 1.42
-7 10 -1 2.37 1.02
7 -10 1 2.81 0.75
7 -10 1 2.89 0.95
2 9 -1 -0.32 0.54
2 9 -1 0.7 0.7
-2 -9 1 0.48 0.85
-2 -9 1 -0.5 0.63
1 9 -1 16.32 1.42
1 9 -1 17.88 2.04
-1 -9 1 14.44 2.02
-1 -9 1 16.82 1.86
-1 -9 1 15.08 2.17
0 9 -1 6.62 0.83
0 9 -1 5.5 1.15
0 9 -1 6.86 1.45
0 -9 1 4.33 1.24
0 -9 1 7.09 0.95
0 -9 1 4.93 1.2
-1 9 -1 11.54 1.15
-1 9 -1 13.13 1.93
-1 9 -1 10.49 1.5
1 -9 1 13.03 2.01
1 -9 1 10.84 1.48
1 -9 1 13.07 2.31
-2 9 -1 12.75 1.76
-2 9 -1 10.69 1.46
2 -9 1 10.12 1.86
2 -9 1 8.09 1.47
2 -9 1 8.94 1.32
-3 9 -1 4.15 1.18
-3 9 -1 1.77 0.73
3 -9 1 4.1 1.11
3 -9 1 4.57 1.01
-4 9 -1 11.1 1.56
-4 9 -1 10.65 2.1
4 -9 1 7.35 1.67
4 -9 1 10.64 1.01
4 -9 1 6.88 1.25
-5 9 -1 25.81 3.04
-5 9 -1 30.06 2.72
5 -9 1 28.18 2.41
5 -9 1 27.06 2.45
5 -9 1 26.54 2.02
-6 9 -1 5.51 1.35
-6 9 -1 3.89 1.32
6 -9 1 4.58 0.97
6 -9 1 4.21 0.77
6 -9 1 5.64 1.16
-7 9 -1 0.44 0.81
-7 9 -1 -0.22 0.56
7 -9 1 0.75 0.76
7 -9 1 0.2 0.41
7 -9 1 0.82 0.57
-8 9 -1 9.75 1.98
8 -9 1 7.58 1.25
8 -9 1 12.66 1.52
4 8 -1 0.26 0.73
-4 -8 1 0.57 0.95
3 8 -1 1.37 0.75
3 8 -1 -0.61 0.68
-3 -8 1 -0.68 0.6
-3 -8 1 1.57 0.97
2 8 -1 0.34 0.63
2 8 -1 1.04 0.35
2 8 -1 -1.19 0.52
-2 -8 1 0.12 0.63
-2 -8 1 -0.46 0.4
1 8 -1 12.97 1.24
1 8 -1 12.77 1.7
1 8 -1 18.39 1.79
-1 -8 1 14.54 2.01
-1 -8 1 15.87 1.76
-1 -8 1 13.91 1.79
0 8 -1 36.94 3.01
0 8 -1 37.04 2.53
0 8 -1 39.6 2.98
0 -8 1 42.29 3.36
0 -8 1 30.89 2.49
0 -8 1 34.65 2.98
-1 8 -1 15.06 1.34
-1 8 -1 17.17 1.69
-1 8 -1 14.47 1.78
1 -8 1 15.37 1.9
1 -8 1 13.83 1.6
1 -8 1 15.5 1.76
-2 8 -1 0.17 0.45
-2 8 -1 -0.3 0.39
-2 8 -1 1.03 0.5
2 -8 1 0.14 0.49
2 -8 1 0.45 0.61
2 -8 1 0.99 0.54
-3 8 -1 22.69 2.33
-3 8 -1 25.18 2.35
-3 8 -1 29.26 2.74
3 -8 1 26.42 2.25
3 -8 1 28.43 2.76
3 -8 1 27.44 2.29
-4 8 -1 39.03 3.7
-4 8 -1 45.08 3.62
4 -8 1 45.34 3.24
4 -8 1 43.24 4.49
4 -8 1 40.75 3.15
4 -8 1 42.6 2.85
-5 8 -1 16.02 1.99
-5 8 -1 13.08 2.11
5 -8 1 18.35 1.48
5 -8 1 21.55 1.79
5 -8 1 17.9 1.81
5 -8 1 16.7 2.67
-6 8 -1 -0.02 0.66
-6 8 -1 0.25 0.53
6 -8 1 0.26 0.38
6 -8 1 0.29 0.54
6 -8 1 0.28 0.48
-7 8 -1 15.66 2.58
-7 8 -1 25.63 2.7
7 -8 1 23.02 2.38
7 -8 1 22.63 1.96
7 -8 1 25.54 2.15
-8 8 -1 11.7 1.15
-8 8 -1 13.15 2.3
-8 8 -1 10.82 2.2
8 -8 1 12.2 1.38
8 -8 1 9.94 1.8
-9 8 -1 4.78 1.38
5 7 -1 9.85 2.1
5 7 -1 15.14 2.19
-5 -7 1 17.03 2.43
4 7 -1 6.57 1.53
-4 -7 1 5.18 1.5
-4 -7 1 1.5 1.51
3 7 -1 -0.66 0.53
3 7 -1 -0.28 0.32
-3 -7 1 0.88 0.68
-3 -7 1 0.17 0.55
2 7 -1 37.23 2.55
2 7 -1 40.86 2.97
2 7 -1 42.52 3.28
-2 -7 1 34.26 3.42
-2 -7 1 33.77 3.24
-2 -7 1 31.71 2.89
1 7 -1 24.69 2.22
1 7 -1 22.96 2.06
1 7 -1 23.48 1.74
1 7 -1 22.35 1.99
-1 -7 1 24.26 2.45
-1 -7 1 23.8 2.18
-1 -7 1 25.04 2.34
0 7 -1 26.57 1.84
0 7 -1 25.1 2.13
0 7 -1 22.55 2.34
0 7 -1 24.87 2.12
0 -7 1 24.28 2.52
0 -7 1 24.86 2.39
0 -7 1 27.14 2.26
-1 7 -1 2.34 0.71
-1 7 -1 2.38 0.75
-1 7 -1 3.19 0.57
1 -7 1 2.65 0.74
1 -7 1 1.14 0.63
1 -7 1 2.78 0.94
-2 7 -1 33.24 2.69
-2 7 -1 34.07 2.87
-2 7 -1 35.2 2.67
2 -7 1 30.74 2.52
2 -7 1 36.45 2.68
-3 7 -1 62.19 4.65
-3 7 -1 61.58 4.38
-3 7 -1 59.3 4.41
3 -7 1 65.84 4.26
3 -7 1 63.37 4.79
3 -7 1 63.01 3.92
3 -7 1 59.48 4.2
-4 7 -1 51.73 3.97
-4 7 -1 54.32 4.44
-4 7 -1 49.85 4.27
4 -7 1 54.12 3.92
4 -7 1 55.69 3.68
4 -7 1 51.2 3.42
-5 7 -1 2.01 0.84
-5 7 -1 0.88 0.65
-5 7 -1 1.9 0.87
5 -7 1 1.62 0.49
5 -7 1 1.14 0.78
5 -7 1 1.82 0.73
5 -7 1 1.95 0.59
-6 7 -1 9.92 1.89
-6 7 -1 10.13 1.77
-6 7 -1 11.56 0.95
6 -7 1 11.53 1.2
6 -7 1 13.94 1.94
6 -7 1 9.16 1.41
-7 7 -1 30.67 3.02
-7 7 -1 26.73 3.07
-7 7 -1 29.01 2.15
7 -7 1 26.16 2.64
7 -7 1 28.3 2.43
7 -7 1 24.9 2.4
-8 7 -1 15.2 2.62
-8 7 -1 15.45 1.58
-8 7 -1 15.23 2.57
8 -7 1 15.45 2.02
8 -7 1 14.55 1.64
8 -7 1 14.85 1.76
-9 7 -1 0.29 0.48
-9 7 -1 -1.07 0.71
9 -7 1 0.99 0.86
9 -7 1 0.34 0.67
6 6 -1 20.22 2.86
6 6 -1 22.13 3.03
6 6 -1 19.92 2.54
-6 -6 1 22.69 3.27
5 6 -1 0.6 0.61
5 6 -1 0.83 0.85
5 6 -1 1.75 0.74
-5 -6 1 0.89 0.86
4 6 -1 3.32 0.9
4 6 -1 2.19 0.94
-4 -6 1 2.97 0.97
-4 -6 1 1.3 0.76
3 6 -1 5.81 1.03
-3 -6 1 3.13 0.98
-3 -6 1 4.38 0.88
-3 -6 1 4.18 1.29
2 6 -1 45.55 3.44
2 6 -1 52.94 4.11
-2 -6 1 40.43 3.67
-2 -6 1 38.98 3.79
-2 -6 1 58.65 3.55
1 6 -1 76.85 5.31
1 6 -1 84.85 5.46
1 6 -1 81.28 5.04
1 6 -1 80.55 5.31
-1 -6 1 84.03 5.6
-1 -6 1 80 5.76
0 6 -1 3.05 0.71
0 6 -1 1.82 0.53
0 6 -1 1.99 0.56
0 -6 1 2.71 0.7
0 -6 1 2.38 0.69
0 -6 1 3.45 0.81
-1 6 -1 76.03 4.78
-1 6 -1 75.02 4.98
-1 6 -1 75.92 4.97
-1 6 -1 76.35 5.12
1 -6 1 69.08 5.18
1 -6 1 81.72 4.98
1 -6 1 75.04 4.6
1 -6 1 78.93 5.1
-2 6 -1 86.21 5.33
-2 6 -1 79.69 5.32
-2 6 -1 83.46 5.51
2 -6 1 83.06 4.96
2 -6 1 71.69 5.13
-3 6 -1 37.54 2.98
-3 6 -1 36.93 3.1
-3 6 -1 42.39 3.01
3 -6 1 40.27 2.57
3 -6 1 40.97 2.84
3 -6 1 40.07 2.75
3 -6 1 34.59 3.18
-4 6 -1 3.42 0.86
-4 6 -1 2.94 0.86
4 -6 1 2.21 0.56
4 -6 1 3.58 0.59
4 -6 1 2.81 0.91
4 -6 1 4.01 0.81
-5 6 -1 19.64 2.02
-5 6 -1 18.91 2.13
-5 6 -1 20.05 2.12
-5 6 -1 19.6 1.46
5 -6 1 20.76 1.77
5 -6 1 19.08 2.58
5 -6 1 21.91 1.67
5 -6 1 19.13 1.91
-6 6 -1 46.38 3
-6 6 -1 42.15 3.86
-6 6 -1 42.33 3.64
-6 6 -1 35.27 3.38
6 -6 1 45.62 3.46
6 -6 1 39.9 3.79
6 -6 1 36.07 3.07
-7 6 -1 5.63 1.38
-7 6 -1 6.24 1.08
-7 6 -1 3.91 1.25
7 -6 1 5.22 1.15
7 -6 1 5.08 1.54
-8 6 -1 4.26 1.03
-8 6 -1 3.9 1.21
-8 6 -1 4.67 1.38
8 -6 1 1.78 0.94
8 -6 1 2.18 0.83
-9 6 -1 0.37 0.89
-9 6 -1 -0.51 0.76
9 -6 1 0.74 0.69
6 5 -1 20.91 2.29
6 5 -1 17.81 2.63
6 5 -1 23.47 2.95
-6 -5 1 22.4 3.06
5 5 -1 7.87 1.63
5 5 -1 5.45 1.3
5 5 -1 9.03 1.32
5 5 -1 7.51 1.86
-5 -5 1 5.74 1.67
4 5 -1 19.44 1.81
-4 -5 1 17.26 1.66
-4 -5 1 14.34 2
3 5 -1 110.06 8.09
3 5 -1 112.34 7.31
-3 -5 1 105.86 6.89
-3 -5 1 102.93 7.45
-3 -5 1 107.97 7.64
2 5 -1 25.64 2
2 5 -1 23.58 2.12
-2 -5 1 23.16 2.23
-2 -5 1 25.34 1.99
1 5 -1 3.89 0.7
1 5 -1 4.1 0.78
1 5 -1 3.82 0.68
1 5 -1 3.39 0.53
-1 -5 1 3.54 0.86
-1 -5 1 4.03 0.71
-1 -5 1 3.7 0.81
0 5 -1 10.05 0.84
0 5 -1 10.46 1.03
0 5 -1 11.07 1.07
0 5 -1 9.82 1.04
0 -5 1 8.89 1.09
0 -5 1 11.21 1.1
0 -5 1 9.54 1.15
-1 5 -1 114.45 7.73
-1 5 -1 126.44 7.92
-1 5 -1 125.8 8.01
-1 5 -1 141.91 7.98
1 -5 1 110.46 7.83
1 -5 1 140.73 8.21
1 -5 1 143.1 8.04
-2 5 -1 75.41 5.11
-2 5 -1 79.04 5
-2 5 -1 79.26 5.04
2 -5 1 78.71 4.89
2 -5 1 76.49 4.86
2 -5 1 75.08 4.68
2 -5 1 73.97 5.21
-3 5 -1 8.22 1.01
-3 5 -1 8.69 1.11
-3 5 -1 8.44 1.12
3 -5 1 7.94 0.85
3 -5 1 8.64 0.78
3 -5 1 8.39 0.96
-4 5 -1 35.73 2.75
-4 5 -1 25.29 2.44
-4 5 -1 30.65 2.67
-4 5 -1 32.61 2.12
4 -5 1 31.09 2.8
4 -5 1 32.91 2.52
4 -5 1 32.59 2.34
4 -5 1 31.75 2.24
-5 5 -1 12.2 1.55
-5 5 -1 10.34 1.1
-5 5 -1 9.67 1.47
-5 5 -1 11.17 1.6
5 -5 1 12.54 1.61
5 -5 1 11.26 1.37
5 -5 1 12.7 1.26
-6 5 -1 46.02 3.79
-6 5 -1 41.38 3.54
-6 5 -1 42.18 3.73
-6 5 -1 44.42 3.27
6 -5 1 40.55 3.22
6 -5 1 44.1 3.54
6 -5 1 42.98 3.79
-7 5 -1 22.85 2.88
-7 5 -1 21.83 2.57
-7 5 -1 22.61 2.24
7 -5 1 24.05 2.65
7 -5 1 26.16 2.31
7 -5 1 24.33 2.51
-8 5 -1 1.24 0.96
-8 5 -1 1.5 0.93
-8 5 -1 1.98 0.86
8 -5 1 2.25 0.81
8 -5 1 1.09 0.77
-9 5 -1 12.85 2.5
-9 5 -1 9.49 1.87
-9 5 -1 11.06 2.11
9 -5 1 10.75 2.09
9 -5 1 8.38 1.64
7 4 -1 47.26 4.76
7 4 -1 42.04 4.19
7 4 -1 39.54 4.27
-7 -4 1 38.5 4.3
6 4 -1 1.32 0.64
6 4 -1 0.13 0.48
6 4 -1 0.41 0.66
-6 -4 1 -0.5 0.52
5 4 -1 2.37 0.87
5 4 -1 2.26 0.78
5 4 -1 1.64 0.73
5 4 -1 0.69 0.62
-5 -4 1 2.39 1.1
-5 -4 1 2.49 0.63
4 4 -1 72.48 5.07
4 4 -1 70.12 4.75
4 4 -1 73.61 5.15
-4 -4 1 78.24 5.55
-4 -4 1 58.46 4.98
-4 -4 1 64.67 4.58
3 4 -1 75.71 5.29
3 4 -1 77.91 5.11
3 4 -1 83.16 5.44
-3 -4 1 76.07 5.48
-3 -4 1 77.61 5.04
-3 -4 1 78.21 5.7
2 4 -1 10.17 1.07
2 4 -1 11.77 1.23
2 4 -1 10.59 1.18
-2 -4 1 12.57 1.34
-2 -4 1 12.45 1.11
-2 -4 1 12.2 1.44
1 4 -1 44.02 2.96
1 4 -1 42.92 3.01
-1 -4 1 47.28 3.5
-1 -4 1 44.68 2.97
-1 -4 1 42.8 3.1
0 4 -1 159.89 9.5
0 4 -1 159.12 9.68
0 4 -1 159.76 9.67
0 4 -1 165.52 9.67
0 -4 1 161.6 9.81
0 -4 1 154.6 9.73
0 -4 1 158.61 9.68
-1 4 -1 4.97 0.68
-1 4 -1 4.93 0.67
-1 4 -1 5.77 0.63
-1 4 -1 4.3 0.51
1 -4 1 5.07 0.49
1 -4 1 4.76 0.8
1 -4 1 6.03 0.68
1 -4 1 5.85 0.66
-2 4 -1 38.92 2.86
-2 4 -1 39.1 2.86
-2 4 -1 39.79 2.75
2 -4 1 39.95 2.98
2 -4 1 42.62 2.67
2 -4 1 42.97 2.76
2 -4 1 40.7 2.58
-3 4 -1 12.95 1.31
-3 4 -1 12.56 0.92
-3 4 -1 11.91 1.48
-3 4 -1 11.52 1.17
3 -4 1 12.16 1.19
3 -4 1 11.66 1.35
3 -4 1 11.58 1
3 -4 1 12.81 1.08
-4 4 -1 44.76 3.37
-4 4 -1 46.34 3.51
-4 4 -1 46.16 3.14
-4 4 -1 44.58 3.52
4 -4 1 48.32 3.2
4 -4 1 44.07 3.56
4 -4 1 48.05 3.4
-5 4 -1 119.94 8.02
-5 4 -1 135.03 8.37
-5 4 -1 124.2 8.19
5 -4 1 121.46 8.02
5 -4 1 128.82 8.32
5 -4 1 106.78 7.71
-6 4 -1 24.26 2.55
-6 4 -1 21.35 2.26
-6 4 -1 24.6 2.48
6 -4 1 22.8 2.3
6 -4 1 24.19 2.49
6 -4 1 24.19 2.17
-7 4 -1 -0.56 0.54
-7 4 -1 0.17 0.49
-7 4 -1 0.44 0.52
7 -4 1 -0.48 0.31
7 -4 1 0.12 0.45
7 -4 1 0.08 0.57
-8 4 -1 11.03 2.2
-8 4 -1 14.87 2.15
-8 4 -1 14.16 1.9
8 -4 1 12.5 1.88
8 -4 1 12.44 1.78
-9 4 -1 18.62 2
-9 4 -1 19.85 2.54
-9 4 -1 21.23 2.79
9 -4 1 17.69 2.55
9 -4 1 23.34 2.45
8 3 -1 15.48 2.03
8 3 -1 16.6 2.61
8 3 -1 14 2.41
-8 -3 1 14.94 2.86
7 3 -1 2.7 1.42
7 3 -1 2.82 1.03
7 3 -1 1.38 0.91
-7 -3 1 5.15 1.61
6 3 -1 11.9 1.68
6 3 -1 12.7 2.32
6 3 -1 9.79 1.82
-6 -3 1 14.68 2.15
5 3 -1 48.52 4.04
5 3 -1 42.85 3.66
5 3 -1 45.63 3.8
5 3 -1 45.16 3.78
5 3 -1 52.25 3.66
-5 -3 1 43.25 3.32
-5 -3 1 44.72 4.06
4 3 -1 37.47 3.56
4 3 -1 38.15 3.18
4 3 -1 39.35 3.01
-4 -3 1 43.43 2.91
-4 -3 1 38.16 3.42
3 3 -1 3.62 0.8
3 3 -1 3.33 0.68
3 3 -1 3.95 0.78
-3 -3 1 2.64 0.55
-3 -3 1 3.51 0.91
-3 -3 1 1.81 0.6
2 3 -1 7.4 0.8
2 3 -1 7.7 1.41
2 3 -1 6.63 0.85
-2 -3 1 8.51 1.06
-2 -3 1 6.71 0.89
-2 -3 1 6.83 0.74
1 3 -1 17.24 1.32
1 3 -1 17.97 1.29
1 3 -1 13.99 1.3
-1 -3 1 18.01 1.4
-1 -3 1 16 1.45
-1 -3 1 16.9 1.27
0 3 -1 321.8 18.54
0 3 -1 307.47 18.49
0 3 -1 298.06 18.39
0 3 -1 324.27 18.51
0 -3 1 320.98 18.51
0 -3 1 308.02 18.54
0 -3 1 313.23 18.59
-1 3 -1 172.94 10.3
-1 3 -1 172.18 10.18
-1 3 -1 165.94 10.3
1 -3 1 181.27 10.13
1 -3 1 160.86 10.36
1 -3 1 169.77 10.21
1 -3 1 177.04 10.21
-2 3 -1 1.48 0.23
-2 3 -1 1.68 0.42
-2 3 -1 3.11 0.61
-2 3 -1 1.69 0.39
2 -3 1 2.2 0.45
2 -3 1 2.51 0.57
2 -3 1 2 0.35
2 -3 1 2.35 0.32
-3 3 -1 205.18 12.83
-3 3 -1 215.84 13.04
-3 3 -1 203.2 12.92
3 -3 1 220.3 12.72
3 -3 1 207.14 13.01
3 -3 1 216.69 12.88
-4 3 -1 40.11 2.9
-4 3 -1 36.08 3.02
-4 3 -1 36.08 2.92
4 -3 1 38.56 3.04
4 -3 1 38.18 2.74
4 -3 1 36.31 2.87
-5 3 -1 48.42 3.84
-5 3 -1 46.82 3.7
-5 3 -1 53.3 4.06
5 -3 1 53.84 3.67
5 -3 1 50.66 3.93
5 -3 1 45.85 3.74
-6 3 -1 8.41 1.65
-6 3 -1 9.97 1.49
-6 3 -1 8.08 1.23
6 -3 1 9.92 1.71
6 -3 1 8.72 1.29
6 -3 1 9.73 1.42
-7 3 -1 21.41 2.56
-7 3 -1 21.75 2.44
-7 3 -1 20.46 2.24
7 -3 1 20.36 2.31
7 -3 1 18.11 2.11
7 -3 1 20.33 2.36
-8 3 -1 49.64 4.45
-8 3 -1 40.57 4.08
8 -3 1 39.04 3.65
8 -3 1 41.46 3.93
-9 3 -1 13.11 2.53
-9 3 -1 16.54 2.97
9 -3 1 15.56 2.05
9 -3 1 12.63 2.04
8 2 -1 5.08 1.45
8 2 -1 4.42 1.23
8 2 -1 6.32 1.54
-8 -2 1 5.84 1.72
7 2 -1 4.33 1.14
7 2 -1 2.83 1.03
7 2 -1 3.54 1.12
-7 -2 1 2.69 1.16
6 2 -1 1.41 0.71
6 2 -1 1.39 0.89
6 2 -1 1.26 0.71
-6 -2 1 1.95 0.91
-6 -2 1 1.05 0.54
5 2 -1 94.95 6.46
5 2 -1 96.81 6.3
5 2 -1 101.02 6.67
5 2 -1 84.86 6.31
-5 -2 1 78.88 6.54
4 2 -1 31.06 2.66
4 2 -1 38.09 2.92
4 2 -1 34.58 2.55
4 2 -1 34.07 2.78
-4 -2 1 33.29 3
-4 -2 1 36.53 2.58
3 2 -1 3.16 0.65
3 2 -1 2.35 0.6
-3 -2 1 4.14 0.59
-3 -2 1 2.62 0.78
2 2 -1 71.26 4.53
2 2 -1 72.08 4.57
2 2 -1 71.12 4.67
-2 -2 1 68.16 4.61
-2 -2 1 69.4 4.75
-2 -2 1 75.9 4.46
1 2 -1 327.23 19.08
1 2 -1 314.39 19.15
1 2 -1 325.31 19.06
-1 -2 1 314.4 19.13
-1 -2 1 336.18 19.03
0 2 -1 5.9 0.54
0 2 -1 6.15 0.54
0 2 -1 5.07 0.51
0 2 -1 5.56 0.46
0 -2 1 6.89 0.58
0 -2 1 5.65 0.52
0 -2 1 6.11 0.56
-1 2 -1 50.66 2.94
-1 2 -1 48.73 2.92
-1 2 -1 47.44 3
1 -2 1 41.8 3.02
1 -2 1 49.65 2.97
1 -2 1 44.35 2.89
1 -2 1 49.18 2.9
-2 2 -1 2.49 0.46
-2 2 -1 2.29 0.44
-2 2 -1 2.65 0.56
2 -2 1 2.53 0.55
2 -2 1 2.71 0.44
-3 2 -1 187.71 11.37
-3 2 -1 188.09 11.57
-3 2 -1 183.35 11.43
3 -2 1 182.91 11.49
3 -2 1 182.69 11.41
3 -2 1 191.55 11.31
-4 2 -1 247.46 15.47
-4 2 -1 260.7 15.68
-4 2 -1 262.45 15.68
4 -2 1 251.19 15.31
4 -2 1 244.27 15.44
4 -2 1 245.65 15.51
-5 2 -1 3.41 0.91
-5 2 -1 1.96 0.65
-5 2 -1 2.58 0.88
5 -2 1 2.31 0.73
5 -2 1 2.79 0.72
5 -2 1 2.36 0.8
-6 2 -1 66.01 5.07
-6 2 -1 60.02 4.59
-6 2 -1 65.45 4.89
6 -2 1 63.99 4.65
6 -2 1 59.55 4.77
6 -2 1 60.56 4.78
-7 2 -1 33.52 3.47
7 -2 1 34.25 3.07
7 -2 1 29.16 2.94
7 -2 1 37.92 3.33
7 -2 1 33.96 3.22
-8 2 -1 4.96 1.49
8 -2 1 7.39 1.63
8 -2 1 5.15 1.31
8 -2 1 6.85 1.46
-9 2 -1 1.32 1.1
9 -2 1 1.99 0.97
9 -2 1 1.58 1
9 -2 1 4.63 1.17
9 1 -1 4.44 1.32
9 1 -1 6.87 1.68
9 1 -1 4.49 1.28
-9 -1 1 5.42 1.77
-9 -1 1 3.14 2.2
8 1 -1 -0.08 0.5
8 1 -1 0.76 0.62
-8 -1 1 -0.27 0.66
7 1 -1 11.81 1.83
7 1 -1 19.11 2.16
7 1 -1 13.59 1.81
-7 -1 1 12.01 2.24
6 1 -1 27.39 2.59
6 1 -1 26.16 2.67
6 1 -1 25.88 2.5
6 1 -1 25.88 2.6
-6 -1 1 28.67 2.92
-6 -1 1 24.96 2.47
5 1 -1 59.73 4.35
5 1 -1 62.28 4.43
5 1 -1 47.14 4.5
-5 -1 1 66.41 4.23
-5 -1 1 58.4 4.64
4 1 -1 5.57 1.05
4 1 -1 5.44 0.91
4 1 -1 8.4 1.12
4 1 -1 8.39 1.06
-4 -1 1 6.98 0.88
-4 -1 1 7.58 1.35
3 1 -1 40.55 2.98
3 1 -1 38.79 2.86
3 1 -1 40.04 2.64
3 1 -1 42.01 2.9
3 1 -1 41.46 3.03
-3 -1 1 39.25 2.76
-3 -1 1 39.35 3.05
2 1 -1 144.25 8.86
2 1 -1 140.92 8.73
2 1 -1 157.13 8.75
2 1 -1 140.57 8.82
-2 -1 1 131.88 8.62
-2 -1 1 147.81 8.9
1 1 -1 280.2 16.41
1 1 -1 280.6 16.3
1 1 -1 264.1 16.32
-1 -1 1 312.02 16.28
-1 -1 1 270.15 16.41
-1 -1 1 255.73 16.33
0 1 -1 222.93 12.85
0 1 -1 228.36 12.81
0 1 -1 193.5 12.81
0 1 -1 235.56 12.83
0 -1 1 239.74 12.83
0 -1 1 218.55 12.84
0 -1 1 195.59 12.81
-1 1 -1 126.45 7.46
-1 1 -1 123.47 7.38
-1 1 -1 120.71 7.42
1 -1 1 122.01 7.35
1 -1 1 124.96 7.44
1 -1 1 126.52 7.42
-2 1 -1 885.78 53.87
-2 1 -1 965.03 53.98
-2 1 -1 887.23 53.82
2 -1 1 884.22 53.79
2 -1 1 890.28 53.87
2 -1 1 1000 53.95
-3 1 -1 26.63 2.13
-3 1 -1 30.25 2.28
-3 1 -1 26.75 2.05
3 -1 1 24.71 2.11
3 -1 1 27.26 2.06
3 -1 1 25.34 2.1
-4 1 -1 0.5 0.35
-4 1 -1 0.38 0.44
-4 1 -1 0.36 0.36
4 -1 1 0.28 0.32
4 -1 1 0.34 0.34
-5 1 -1 5.51 0.99
-5 1 -1 5.83 0.84
-5 1 -1 6.26 1.26
5 -1 1 5.97 1.14
5 -1 1 5.86 1.08
5 -1 1 3.31 0.85
5 -1 1 6.09 1.17
-6 1 -1 29.19 2.53
-6 1 -1 28.26 2.88
6 -1 1 30.72 2.75
6 -1 1 27.58 2.71
6 -1 1 25.01 2.5
6 -1 1 27.28 2.58
-7 1 -1 27.79 3.45
7 -1 1 26.85 2.77
7 -1 1 24.82 2.58
-8 1 -1 11.13 2.21
8 -1 1 9.59 1.8
8 -1 1 12.24 1.87
8 -1 1 9.16 1.76
-9 1 -1 0.26 0.86
9 -1 1 0.58 0.86
9 -1 1 0.68 0.85
9 -1 1 1.93 1.06
9 0 -1 2.95 1.78
9 0 -1 2.08 1.01
9 0 -1 1.45 0.88
-9 0 1 2.17 1.24
-9 0 1 3.77 1.63
8 0 -1 4.97 1.26
8 0 -1 3.79 1.25
8 0 -1 2.12 0.96
-8 0 1 4.05 1.31
-8 0 1 6.36 1.84
7 0 -1 32.42 3.06
7 0 -1 29.84 2.95
7 0 -1 32.48 3.18
-7 0 1 30.36 2.75
-7 0 1 33.5 3.65
6 0 -1 89.73 6.09
6 0 -1 67.59 5.64
6 0 -1 87.16 5.92
6 0 -1 85.53 6.08
-6 0 1 85.64 5.65
-6 0 1 72.93 6.01
5 0 -1 1.36 0.58
5 0 -1 1.07 0.56
5 0 -1 1 0.51
5 0 -1 1.26 0.57
-5 0 1 1.41 0.67
-5 0 1 1.4 0.57
4 0 -1 4.77 0.95
4 0 -1 4.43 0.83
4 0 -1 4.6 0.93
-4 0 1 6.26 1.4
-4 0 1 5.51 1.05
3 0 -1 144.62 9.23
3 0 -1 145.54 9.3
3 0 -1 151.91 9.18
-3 0 1 147.78 9.33
-3 0 1 150.29 9.1
2 0 -1 849.3 49.64
2 0 -1 840.2 49.58
-2 0 1 854.06 49.55
-2 0 1 846.45 49.63
-2 0 1 837.89 49.68
1 0 -1 24.43 1.56
1 0 -1 23.09 1.59
1 0 -1 23.61 1.6
-1 0 1 25.09 1.55
-1 0 1 22.99 1.59
-1 0 -1 221.77 14.7
-1 0 -1 261.95 14.8
-1 0 -1 258.84 14.72
-1 0 -1 239.32 14.75
1 0 1 243.16 14.71
1 0 1 268.39 14.74
1 0 1 252.64 14.73
-2 0 -1 83.37 4.96
-2 0 -1 80.8 4.92
-2 0 -1 76.38 5.03
2 0 1 84.81 5.04
2 0 1 69.32 4.89
2 0 1 71.57 4.94
2 0 1 81.03 4.95
-3 0 -1 39.89 2.68
-3 0 -1 37.82 2.87
3 0 1 34.21 2.64
3 0 1 36.02 2.69
3 0 1 34.74 2.72
3 0 1 38.72 2.8
-4 0 -1 3.92 0.77
-4 0 -1 3.9 0.95
4 0 1 3.94 0.87
4 0 1 3.55 0.81
4 0 1 3.78 0.86
4 0 1 3.01 0.74
-5 0 -1 45.81 3.22
-5 0 -1 34.46 3.4
5 0 1 38.59 3.35
5 0 1 42.46 3.36
5 0 1 39.72 3.22
5 0 1 43.63 3.34
-6 0 -1 22.36 2.16
-6 0 -1 23.92 2.67
6 0 1 24.54 2.42
6 0 1 25.55 2.54
6 0 1 17.58 2.54
6 0 1 25.27 2.38
-7 0 -1 16.57 2.43
7 0 1 20.17 2.28
7 0 1 18.7 2.31
7 0 1 18.09 2.11
-8 0 -1 1.41 0.89
8 0 1 0.29 0.51
8 0 1 1.53 0.83
8 0 1 1.35 0.86
-9 0 -1 6.82 1.93
9 0 1 5.96 1.53
9 0 1 4.49 1.36
9 0 1 4.71 1.36
9 -1 -1 6.97 1.76
9 -1 -1 5.99 1.52
9 -1 -1 5.14 1.37
-9 1 1 4.5 1.62
-9 1 1 5.64 1.68
8 -1 -1 3.28 1.17
8 -1 -1 4.4 1.26
8 -1 -1 5.22 1.29
-8 1 1 6.53 1.64
-8 1 1 6.72 1.61
7 -1 -1 24.31 2.52
7 -1 -1 26.13 2.66
7 -1 -1 27.64 2.88
7 -1 -1 19.8 2.33
-7 1 1 23.72 2.29
-7 1 1 25.75 2.8
6 -1 -1 109.06 7.86
6 -1 -1 109.37 7.78
6 -1 -1 116.84 7.71
-6 1 1 109.33 7.51
-6 1 1 115.37 7.99
-6 1 1 119.13 7.9
5 -1 -1 10.16 1.48
5 -1 -1 13.66 1.54
5 -1 -1 12.53 1.45
-5 1 1 12.62 1.53
-5 1 1 13.21 1.63
-5 1 1 11.73 1.35
4 -1 -1 368.63 22.93
-4 1 1 399.51 22.93
-4 1 1 385.77 23.06
-4 1 1 373.15 23.13
3 -1 -1 118.23 7.39
3 -1 -1 116.96 7.29
3 -1 -1 101.12 7.15
-3 1 1 118.03 7.25
-3 1 1 116.6 7.36
-3 1 1 117.17 7.3
-3 1 1 117.77 7.22
2 -1 -1 12.31 1.13
2 -1 -1 11.99 1.03
2 -1 -1 13.81 1.09
-2 1 1 12.58 1.09
-2 1 1 11.75 1.04
-2 1 1 11.62 1.09
-2 1 1 12.39 1.02
1 -1 -1 37.49 2.45
1 -1 -1 36.61 2.36
1 -1 -1 39.02 2.41
-1 1 1 38.05 2.42
-1 1 1 37.76 2.34
-1 1 1 38.49 2.43
-1 1 1 38.88 2.41
0 -1 -1 75.46 4.33
0 -1 -1 76.24 4.32
0 -1 -1 66.93 4.32
0 1 1 74.84 4.32
0 1 1 65.27 4.31
-1 -1 -1 73.19 4.58
-1 -1 -1 74.6 4.66
-1 -1 -1 72.56 4.51
1 1 1 81.42 4.55
1 1 1 67.19 4.53
-2 -1 -1 24.47 1.77
-2 -1 -1 27.15 2.03
-2 -1 -1 22.38 1.83
2 1 1 25.32 1.87
2 1 1 25.86 1.92
2 1 1 23.55 1.78
2 1 1 23.67 1.83
-3 -1 -1 32.56 2.63
-3 -1 -1 35.07 2.94
3 1 1 44.19 3.4
3 1 1 34.89 2.75
3 1 1 45.38 2.91
-4 -1 -1 24.38 2.13
-4 -1 -1 26.71 2.54
4 1 1 25.34 2.39
4 1 1 30.54 2.32
4 1 1 28.4 2.35
4 1 1 26.12 2.3
-5 -1 -1 93.31 6.27
-5 -1 -1 97.31 6.92
5 1 1 95.7 6.52
5 1 1 91.26 6.49
5 1 1 90.36 6.65
5 1 1 98.1 6.44
-6 -1 -1 32.36 3.54
-6 -1 -1 40.56 3.12
6 1 1 41.46 3.43
6 1 1 38.64 3.53
6 1 1 35.41 3.18
6 1 1 38.8 3.31
-7 -1 -1 0.15 0.7
7 1 1 0.87 1.08
7 1 1 1.08 0.7
7 1 1 2.15 0.92
-8 -1 -1 20.21 2.98
8 1 1 19.06 2.43
8 1 1 15.83 2.39
8 1 1 18.37 2.26
9 -2 -1 20.77 2.51
9 -2 -1 15 2.34
9 -2 -1 20.21 2.61
-9 2 1 25.84 2.98
-9 2 1 20.27 2.78
8 -2 -1 98.17 6.85
8 -2 -1 89.62 6.9
-8 2 1 94.62 7.04
-8 2 1 85.04 7.05
7 -2 -1 8.22 1.69
7 -2 -1 9.74 1.54
7 -2 -1 8.88 1.6
-7 2 1 10.28 1.41
-7 2 1 10.7 1.66
-7 2 1 7.25 1.61
-7 2 1 10.15 1.57
6 -2 -1 90.51 6.19
6 -2 -1 83.19 6.24
6 -2 -1 88.51 6.01
-6 2 1 84.52 6.26
-6 2 1 91.8 6.25
-6 2 1 88.47 6.12
-6 2 1 70.47 5.8
5 -2 -1 6.83 1.3
5 -2 -1 6.05 1.05
5 -2 -1 6.75 1.05
-5 2 1 5.46 1.05
-5 2 1 4.93 1.08
-5 2 1 4.55 1.05
-5 2 1 6.64 1.23
4 -2 -1 44.62 3.3
4 -2 -1 45.97 3.23
-4 2 1 43.87 3.2
-4 2 1 44.6 3.74
-4 2 1 42.59 3.36
3 -2 -1 76.06 4.78
3 -2 -1 79.3 5.03
3 -2 -1 75.61 4.85
-3 2 1 77.25 4.74
-3 2 1 61.63 4.74
-3 2 1 73.87 4.9
-3 2 1 73.24 4.9
2 -2 -1 0.16 0.21
2 -2 -1 0.14 0.18
2 -2 -1 0.28 0.18
2 -2 -1 0.25 0.27
-2 2 1 0.29 0.16
-2 2 1 0.32 0.26
-2 2 1 -0.05 0.17
-2 2 1 0.12 0.18
1 -2 -1 33.58 2.2
1 -2 -1 30.35 2.13
1 -2 -1 31.97 2.31
1 -2 -1 39.25 2.25
-1 2 1 33.81 2.13
-1 2 1 35.69 2.25
-1 2 1 35.65 2.28
-1 2 1 35.2 2.29
0 -2 -1 842.14 45.35
0 -2 -1 800.61 45.3
0 -2 -1 760.43 45.28
0 2 1 748.43 45.27
0 2 1 769.37 45.28
0 2 1 721.77 45.26
-1 -2 -1 112.77 7.19
-1 -2 -1 113.82 6.97
-1 -2 -1 119.46 7.12
1 2 1 109.17 7.03
1 2 1 116.25 6.99
1 2 1 119.06 7.06
-2 -2 -1 2.67 0.58
-2 -2 -1 3.62 0.82
-2 -2 -1 2.53 0.49
2 2 1 3.27 0.58
2 2 1 2.99 0.62
-3 -2 -1 42.75 2.86
-3 -2 -1 40.14 3.26
-3 -2 -1 34.78 2.98
3 2 1 36.94 2.97
3 2 1 44.01 3.13
3 2 1 41.7 2.9
3 2 1 40 2.96
-4 -2 -1 91.49 6.48
-4 -2 -1 92.2 5.86
4 2 1 91.07 5.94
4 2 1 80.33 5.96
4 2 1 88.8 6.1
4 2 1 91.47 6.09
-5 -2 -1 25.27 2.68
5 2 1 22.29 2.45
5 2 1 23.06 2.29
5 2 1 24.04 2.17
5 2 1 18.81 2.16
-6 -2 -1 3.7 1.29
6 2 1 6.11 1.39
6 2 1 5.43 1.14
6 2 1 6.71 1.43
-7 -2 -1 0.45 0.75
7 2 1 2.01 0.91
7 2 1 0.39 0.83
7 2 1 0.97 0.78
-8 -2 -1 13.83 4.05
8 2 1 18.17 2.6
8 2 1 14.2 3.61
8 2 1 15.96 3.43
10 -3 -1 31.43 3.63
10 -3 -1 26.21 3.21
10 -3 -1 30.12 3.23
-10 3 1 30.1 3.58
-10 3 1 36.25 3.63
9 -3 -1 1.47 1.03
9 -3 -1 4.07 1.18
-9 3 1 2.89 1.21
-9 3 1 2.31 1.07
8 -3 -1 5.28 1.25
8 -3 -1 4.43 1.3
-8 3 1 3.34 1.72
-8 3 1 7.1 1.63
-8 3 1 3.87 1.26
7 -3 -1 6.23 1.5
7 -3 -1 6.15 1.31
7 -3 -1 6.81 1.45
-7 3 1 5.37 1.48
-7 3 1 6.73 1.32
-7 3 1 7.7 1.56
-7 3 1 7.76 1.54
6 -3 -1 24.88 2.36
6 -3 -1 21.5 2.41
6 -3 -1 23.89 2.2
-6 3 1 23.35 2.43
-6 3 1 22.84 2.24
-6 3 1 21.38 2.36
-6 3 1 22.77 2.2
5 -3 -1 76.23 4.97
5 -3 -1 70.53 5.05
5 -3 -1 68.14 5.25
-5 3 1 74.56 4.94
-5 3 1 71.09 5.18
-5 3 1 68.05 5.14
-5 3 1 71.64 5.05
4 -3 -1 65.92 4.58
4 -3 -1 71.18 4.51
4 -3 -1 67.07 4.82
-4 3 1 66.32 4.7
-4 3 1 59.05 4.52
-4 3 1 67.92 4.69
-4 3 1 69.34 4.42
3 -3 -1 11.88 1.33
3 -3 -1 12.04 1.11
3 -3 -1 11.29 1.16
-3 3 1 12.75 1.27
-3 3 1 12.66 1.2
-3 3 1 11.83 0.99
2 -3 -1 70.7 4.26
2 -3 -1 63.33 3.95
2 -3 -1 61.93 3.84
2 -3 -1 62.75 4.26
2 -3 -1 64.31 4.02
-2 3 1 64.04 4.14
-2 3 1 61.04 3.86
-2 3 1 61.77 4.09
-2 3 1 62.45 4.18
1 -3 -1 72.35 4.45
1 -3 -1 68.89 4.33
1 -3 -1 69.15 4.59
1 -3 -1 74.95 4.46
-1 3 1 72.14 4.54
-1 3 1 69.46 4.48
-1 3 1 72.14 4.49
0 -3 -1 124.23 7.71
0 -3 -1 132.6 7.77
0 -3 -1 126.66 7.79
0 3 1 127.42 7.7
0 3 1 116.61 7.67
0 3 1 136.04 7.71
0 3 1 121.03 7.45
-1 -3 -1 40.22 2.83
-1 -3 -1 40.58 2.67
1 3 1 38.24 2.67
-2 -3 -1 10.66 1.34
-2 -3 -1 10.26 0.99
-2 -3 -1 11.12 1.24
2 3 1 9.72 1.05
2 3 1 9.47 0.99
-3 -3 -1 90.86 6.34
-3 -3 -1 85.61 6.05
-3 -3 -1 85.74 5.65
3 3 1 95.93 5.76
3 3 1 83.91 5.8
3 3 1 87.46 5.95
-4 -3 -1 56.42 4.96
-4 -3 -1 66.89 4.37
-4 -3 -1 55.44 4.68
4 3 1 66.8 4.76
4 3 1 61.52 4.4
4 3 1 75.76 4.68
4 3 1 61.34 4.72
-5 -3 -1 20.66 1.96
-5 -3 -1 24.61 2.77
5 3 1 22.07 2.11
5 3 1 21.95 2.49
5 3 1 17.7 2.37
-6 -3 -1 8.77 2.08
6 3 1 7.73 1.46
6 3 1 9.59 1.96
6 3 1 11.01 1.91
7 3 1 44.36 4.28
7 3 1 45.11 3.83
7 3 1 47.95 4.63
10 -4 -1 7.6 1.65
10 -4 -1 8.48 1.95
-10 4 1 7.99 2
-10 4 1 7.49 1.7
9 -4 -1 10.65 2.08
9 -4 -1 8.77 1.73
-9 4 1 11.7 2.46
-9 4 1 9.93 1.87
-9 4 1 13.52 2.48
8 -4 -1 1.46 0.74
8 -4 -1 0.35 0.83
-8 4 1 0.42 0.63
-8 4 1 1.32 0.92
-8 4 1 1.11 0.65
7 -4 -1 8.16 1.59
7 -4 -1 7.42 1.76
7 -4 -1 10.74 1.45
-7 4 1 8.71 1.32
-7 4 1 9.54 1.75
-7 4 1 7.98 1.48
-7 4 1 6.89 1.62
6 -4 -1 19.94 2.07
6 -4 -1 18 2.21
6 -4 -1 18.33 1.87
-6 4 1 21.21 1.91
-6 4 1 18.28 2.03
-6 4 1 19.09 2.18
-6 4 1 19.58 2.19
5 -4 -1 102.83 7.16
5 -4 -1 105.71 7.53
5 -4 -1 122.09 7.11
-5 4 1 104.99 7.22
-5 4 1 104.17 7.37
-5 4 1 110.74 6.93
-5 4 1 107.51 7.32
4 -4 -1 12.74 1.56
4 -4 -1 12.84 1.22
4 -4 -1 12.48 1.32
-4 4 1 11.5 1.35
-4 4 1 10.9 1.37
-4 4 1 12.53 1.06
-4 4 1 10.67 1.3
3 -4 -1 11.68 1.11
3 -4 -1 11.53 0.93
3 -4 -1 12.69 1.42
3 -4 -1 12.75 1.2
-3 4 1 11.77 1.2
-3 4 1 10.97 1.28
-3 4 1 11.82 1.25
-3 4 1 11.85 0.91
2 -4 -1 77.35 4.94
2 -4 -1 87.04 5.14
2 -4 -1 83.17 5.09
2 -4 -1 76.06 4.83
2 -4 -1 78.93 5.4
-2 4 1 79.39 4.9
-2 4 1 83.43 5.38
-2 4 1 81.06 5.32
-2 4 1 82.57 5.2
1 -4 -1 356.24 19.19
1 -4 -1 314.22 19.32
1 -4 -1 323.61 19.52
1 -4 -1 336.68 19.36
-1 4 1 295.81 19.4
-1 4 1 331.3 19.35
-1 4 1 317.39 19.08
0 -4 -1 6.89 0.93
0 -4 -1 7.41 0.87
0 -4 -1 6.97 0.99
0 4 1 5.5 0.77
0 4 1 7.04 0.85
0 4 1 8.39 0.88
0 4 1 6.77 0.57
-1 -4 -1 3.35 0.75
-1 -4 -1 3.11 0.81
-1 -4 -1 2.35 0.53
1 4 1 2.39 0.55
1 4 1 2.13 0.53
1 4 1 1.82 0.5
-2 -4 -1 72.87 4.59
-2 -4 -1 63.35 4.87
-2 -4 -1 69.98 5.13
2 4 1 67.77 4.63
2 4 1 71.81 4.6
2 4 1 71.48 4.81
-3 -4 -1 147.33 10.03
-3 -4 -1 158.87 10.37
-3 -4 -1 154.48 9.52
3 4 1 140.86 9.6
3 4 1 158.41 9.92
3 4 1 158.71 9.56
-4 -4 -1 -0.35 0.37
-4 -4 -1 0.65 0.54
-4 -4 -1 0.44 0.64
4 4 1 0.6 0.46
4 4 1 0.14 0.48
4 4 1 0.5 0.48
4 4 1 0.87 0.65
-5 -4 -1 4.98 1.44
5 4 1 8.17 1.25
5 4 1 7.06 1.54
5 4 1 5.78 1.4
-6 -4 -1 7.15 2.03
6 4 1 7.97 1.98
6 4 1 6.86 1.35
6 4 1 4.34 1.39
-7 -4 -1 3.36 1.81
7 4 1 4.11 1.22
7 4 1 3.57 1.65
7 4 1 2.11 1.1
9 -5 -1 8.93 1.68
9 -5 -1 10.41 1.91
-9 5 1 12.13 1.76
-9 5 1 13.12 2.46
-9 5 1 9.2 1.89
8 -5 -1 4.19 1.15
8 -5 -1 5.29 1.14
-8 5 1 4.15 1.32
-8 5 1 5.2 1.14
-8 5 1 4.58 1.39
7 -5 -1 33.83 3.23
7 -5 -1 37.39 3.3
-7 5 1 37.39 3.59
-7 5 1 35.61 3.38
-7 5 1 40.33 3.06
6 -5 -1 37.98 2.92
6 -5 -1 34.36 3.81
6 -5 -1 36.51 3.09
-6 5 1 35.42 3.21
-6 5 1 29.84 3.18
-6 5 1 39.04 2.79
-6 5 1 39.99 3.26
5 -5 -1 22.16 2.06
5 -5 -1 21.98 2.38
5 -5 -1 24.21 1.95
-5 5 1 20.73 1.7
-5 5 1 20.7 2.22
-5 5 1 21.7 2.11
-5 5 1 19 2.07
4 -5 -1 8.47 0.85
4 -5 -1 8.9 1.13
4 -5 -1 10.46 1.48
4 -5 -1 10.63 1.09
-4 5 1 9.9 1.24
-4 5 1 7.69 1.22
-4 5 1 8.96 1.16
-4 5 1 8.95 0.8
3 -5 -1 31.11 2.2
3 -5 -1 30.35 1.94
3 -5 -1 30.07 2.64
3 -5 -1 32.75 2.09
3 -5 -1 29.47 2.26
-3 5 1 24.62 1.91
-3 5 1 30.81 2.54
-3 5 1 28.68 2.34
-3 5 1 29.83 2.38
2 -5 -1 70.52 5.11
2 -5 -1 73.98 4.77
2 -5 -1 77.59 4.78
2 -5 -1 70.9 4.54
2 -5 -1 69.59 4.43
-2 5 1 69.2 5
-2 5 1 78.12 4.87
-2 5 1 81.16 4.94
1 -5 -1 164.02 10.43
1 -5 -1 178.78 10.55
1 -5 -1 169.57 10.24
1 -5 -1 173.15 10.7
-1 5 1 178.76 10.47
-1 5 1 161.11 10.56
0 -5 -1 8.34 0.93
0 -5 -1 10.24 1.19
0 -5 -1 10.74 1.19
0 -5 -1 9.38 1.24
0 5 1 10.57 0.8
0 5 1 10.94 1.17
0 5 1 10.44 1.11
0 5 1 10.61 1.09
-1 -5 -1 176.79 10.56
-1 -5 -1 175.11 10.76
-1 -5 -1 166.43 10.31
1 5 1 161.41 10.24
1 5 1 154.71 10.35
1 5 1 164.94 10.95
-2 -5 -1 20.23 2.22
-2 -5 -1 22.99 2
-2 -5 -1 29.27 2.67
2 5 1 23.05 1.99
2 5 1 26.83 2.08
2 5 1 24.5 2.23
-3 -5 -1 0.49 0.43
-3 -5 -1 0.08 0.57
-3 -5 -1 -0.21 0.4
3 5 1 0.41 0.39
3 5 1 0.47 0.5
3 5 1 0.17 0.47
-4 -5 -1 2.05 1.05
-4 -5 -1 0.9 0.64
4 5 1 3.08 0.96
4 5 1 0.81 0.59
-5 -5 -1 1.12 1.09
5 5 1 1.99 0.89
5 5 1 1.54 0.89
5 5 1 0.52 0.71
-6 -5 -1 13.56 2.75
6 5 1 13.66 1.79
6 5 1 11.41 2.49
9 -6 -1 -0.45 0.56
9 -6 -1 0.03 0.76
-9 6 1 -1.14 0.6
8 -6 -1 13.33 1.7
8 -6 -1 10.75 1.99
-8 6 1 11.79 2.09
-8 6 1 14.54 2.29
-8 6 1 14.07 1.58
7 -6 -1 27.65 2.59
7 -6 -1 28.53 2.43
-7 6 1 22.24 2.07
-7 6 1 23.91 2.63
-7 6 1 25.94 3
6 -6 -1 32.2 2.92
6 -6 -1 39.23 2.88
6 -6 -1 40.06 3.58
-6 6 1 34.95 3.56
-6 6 1 34.9 2.49
-6 6 1 32.2 3.06
-6 6 1 30.09 3.2
5 -6 -1 1.73 0.71
5 -6 -1 1.34 0.53
5 -6 -1 1.81 0.47
5 -6 -1 2.62 0.95
-5 6 1 1.55 0.65
-5 6 1 -0.08 0.57
-5 6 1 1.68 0.75
-5 6 1 1.99 0.44
4 -6 -1 59.95 4.68
4 -6 -1 59.69 4.03
4 -6 -1 56.45 4.13
4 -6 -1 58.55 4.13
-4 6 1 60.16 4.55
-4 6 1 61.88 4.28
-4 6 1 62.64 4.39
-4 6 1 55.54 3.67
3 -6 -1 215.78 12.1
3 -6 -1 205.99 11.81
3 -6 -1 198.04 12.66
3 -6 -1 184.18 11.66
3 -6 -1 198.55 12.08
-3 6 1 192.8 12.17
-3 6 1 182.51 12.45
-3 6 1 199.15 12.32
2 -6 -1 12.2 1.49
2 -6 -1 10.95 1.19
2 -6 -1 11.17 1.23
2 -6 -1 9.78 0.86
-2 6 1 10.96 1.42
-2 6 1 9.08 1.16
-2 6 1 10.72 1.37
1 -6 -1 95.11 6.41
1 -6 -1 95.97 6.27
1 -6 -1 93.39 6.14
-1 6 1 97.02 6.32
-1 6 1 92.79 6.1
-1 6 1 94 5.77
0 -6 -1 8.61 1.15
0 -6 -1 8.81 1.25
0 -6 -1 6.68 1.16
0 6 1 7.25 1.03
0 6 1 6.81 0.67
0 6 1 7.13 1.06
0 6 1 6.23 0.92
-1 -6 -1 17.56 2.13
-1 -6 -1 16.6 1.76
-1 -6 -1 19.18 2
1 6 1 21.75 1.96
1 6 1 21.15 1.76
1 6 1 19.88 1.81
-2 -6 -1 38.17 4.39
-2 -6 -1 54.72 4.35
-2 -6 -1 45.43 3.58
2 6 1 56.12 3.69
2 6 1 49.31 4.3
-3 -6 -1 3.07 1.02
-3 -6 -1 4.58 1.41
3 6 1 4.08 0.96
3 6 1 2.62 0.96
-4 -6 -1 -0.06 0.67
-4 -6 -1 2.14 1.1
4 6 1 0.59 0.64
4 6 1 0.88 0.64
-5 -6 -1 48.45 4.77
5 6 1 39.9 4.05
5 6 1 38.55 4.51
5 6 1 43.02 3.52
9 -7 -1 6.5 2.14
-9 7 1 8.27 2
-9 7 1 9.35 1.28
-9 7 1 8.6 1.9
8 -7 -1 19.32 2.38
8 -7 -1 24.23 2.36
-8 7 1 23.43 2.96
-8 7 1 22.54 1.95
-8 7 1 19.52 2.54
7 -7 -1 31.17 2.44
7 -7 -1 34.34 2.99
7 -7 -1 33.09 2.76
-7 7 1 28.12 3.27
-7 7 1 30.34 2.32
-7 7 1 31.42 3.1
6 -7 -1 2.57 0.6
6 -7 -1 3.36 0.96
-6 7 1 3.46 0.6
-6 7 1 4.4 1.33
-6 7 1 4.45 1.17
5 -7 -1 74.81 4.57
5 -7 -1 74.87 4.93
5 -7 -1 73.76 5.59
5 -7 -1 62.5 5.61
-5 7 1 70.93 5.59
4 -7 -1 1.84 0.68
4 -7 -1 1.99 0.43
4 -7 -1 1.06 0.54
4 -7 -1 2.71 0.89
-4 7 1 1.56 0.68
-4 7 1 1.87 0.75
-4 7 1 2.41 0.9
3 -7 -1 9.55 1.19
3 -7 -1 7.33 1.43
3 -7 -1 7.29 1.13
-3 7 1 7.7 1.33
-3 7 1 8.15 1.55
-3 7 1 8.64 1.21
2 -7 -1 30.26 2.58
2 -7 -1 33.21 3.05
2 -7 -1 35.06 2.75
-2 7 1 34.96 2.66
-2 7 1 34.6 2.77
1 -7 -1 4.54 1.02
1 -7 -1 4.06 0.59
1 -7 -1 4.88 0.97
-1 7 1 3.95 0.82
-1 7 1 4.05 1.05
-1 7 1 3.69 0.82
0 -7 -1 58.3 4.5
0 -7 -1 63.71 4.73
0 7 1 58.83 4.36
0 7 1 59.44 4.41
0 7 1 61 3.87
0 7 1 74.27 5.43
-1 -7 -1 42.37 3.55
1 7 1 41.15 3.4
1 7 1 41.73 2.78
1 7 1 44.79 3.32
-2 -7 -1 1.55 0.78
-2 -7 -1 5.56 1.54
2 7 1 3.75 0.94
2 7 1 3.8 1.08
2 7 1 2.95 0.54
-3 -7 -1 8.01 1.85
-3 -7 -1 6.1 1.5
3 7 1 5.05 1.25
3 7 1 3.02 0.94
-4 -7 -1 8.89 2.17
4 7 1 10.8 2.59
8 -8 -1 0.89 0.58
8 -8 -1 1.54 0.98
-8 8 1 1.89 0.54
-8 8 1 4.77 1.27
-8 8 1 2.85 1.18
7 -8 -1 0.94 0.68
7 -8 -1 1.95 0.57
7 -8 -1 1.58 0.86
-7 8 1 1.77 1.12
-7 8 1 0.8 0.69
6 -8 -1 0.09 0.53
6 -8 -1 -0.02 0.33
6 -8 -1 0.82 0.69
-6 8 1 0.19 0.71
-6 8 1 0.34 0.55
5 -8 -1 10.99 1
5 -8 -1 9.55 1.41
5 -8 -1 11.53 1.43
-5 8 1 12.73 2.29
-5 8 1 10.76 1.54
4 -8 -1 39.61 3.05
4 -8 -1 35.31 2.49
4 -8 -1 40.79 3.08
-4 8 1 41.74 3.74
-4 8 1 37.36 3.13
3 -8 -1 12.29 2.36
3 -8 -1 10.19 1.36
-3 8 1 10.44 1.39
-3 8 1 8.62 1.74
2 -8 -1 9.47 1.34
2 -8 -1 6.28 2.11
-2 8 1 8.19 1.59
-2 8 1 9.28 1.32
1 -8 -1 7.79 1.49
1 -8 -1 10.14 0.96
1 -8 -1 8.2 1.34
-1 8 1 8.41 1.26
-1 8 1 10.76 1.54
0 -8 -1 48.85 3.98
0 -8 -1 52.48 4.31
0 8 1 49.69 3.91
0 8 1 54.34 4.09
-1 -8 -1 2.86 0.92
-1 -8 -1 4.6 1.28
1 8 1 3.04 0.95
1 8 1 2.99 0.53
1 8 1 3.39 1.15
-2 -8 -1 0.77 0.77
-2 -8 -1 -0.97 0.6
2 8 1 0.54 0.69
2 8 1 0.07 0.61
2 8 1 0.25 0.37
-3 -8 -1 6.88 1.57
-3 -8 -1 7.1 1.92
3 8 1 8.78 1.79
3 8 1 11.39 1.58
-8 9 1 7.96 1.83
7 -9 -1 -0.92 0.55
7 -9 -1 -1.3 1.45
-7 9 1 0.04 0.82
-7 9 1 0.42 1.05
6 -9 -1 16.58 1.87
6 -9 -1 15.28 1.32
6 -9 -1 16.09 1.85
-6 9 1 14.77 2.74
-6 9 1 16.29 2.03
5 -9 -1 18.24 1.95
5 -9 -1 20.92 2.04
5 -9 -1 15.58 1.37
-5 9 1 16.87 2.91
-5 9 1 19.79 2.12
4 -9 -1 14.73 1.7
-4 9 1 14.89 2.65
-4 9 1 10.96 1.63
3 -9 -1 3.29 1.01
3 -9 -1 2.06 0.8
-3 9 1 3.68 1.4
-3 9 1 3.5 0.97
2 -9 -1 16.73 1.94
-2 9 1 16.55 1.88
-2 9 1 22.65 2.48
1 -9 -1 15.72 1.93
1 -9 -1 20.35 2.27
-1 9 1 16.56 1.86
0 -9 -1 4.66 1.38
0 -9 -1 8.95 1.56
0 9 1 6.76 1.32
0 9 1 12.2 1.74
-1 -9 -1 0.66 1
1 9 1 0.66 0.79
6 -10 -1 13.2 1.75
6 -10 -1 10.33 1.74
-6 10 1 6.23 1.81
-6 10 1 9.76 1.78
5 -10 -1 3.97 1.04
-5 10 1 3.98 1.5
4 -10 -1 0.9 0.82
4 -10 -1 -1.2 0.69
-4 10 1 -1.85 1.25
-4 10 1 -0.14 0.55
3 -10 -1 5.36 1.27
3 -10 -1 7.95 1.65
-3 10 1 9.74 3.16
-3 10 1 8.7 1.5
2 -10 -1 12.51 2.12
2 -10 -1 13.12 1.89
-2 10 1 12.46 2.27
1 -10 -1 15.68 2.54
-1 10 1 15.29 2.32
-1 10 1 15.43 1.94
-1 11 -2 3.08 0.88
1 -11 2 2.73 1.04
-2 11 -2 1.92 0.81
2 -11 2 -0.44 0.72
3 -11 2 11.97 1.76
-4 11 -2 2.06 1.33
4 -11 2 3.31 0.98
-5 11 -2 -0.25 0.81
5 -11 2 0.59 0.74
1 10 -2 16.31 2.4
-1 -10 2 14.5 2.22
-1 -10 2 16.76 1.78
0 10 -2 0.21 0.63
0 10 -2 0.35 0.59
0 -10 2 -0.14 0.71
-1 10 -2 0.56 0.58
-1 10 -2 1.42 0.53
-1 10 -2 1.36 0.77
1 -10 2 0.62 0.54
1 -10 2 0.65 0.68
-2 10 -2 2.92 1.28
-2 10 -2 4.26 1.09
2 -10 2 3.89 1.02
2 -10 2 2.49 1.69
2 -10 2 4.15 1.14
-3 10 -2 9.25 1.9
-3 10 -2 8.75 1.43
3 -10 2 7.16 1.42
3 -10 2 8.05 1.37
-4 10 -2 16.76 1.95
-4 10 -2 13.87 2.23
4 -10 2 12.74 1.65
4 -10 2 13.78 1.71
-5 10 -2 0.52 0.9
-5 10 -2 0.15 0.64
5 -10 2 0.15 0.55
5 -10 2 -0.38 0.61
5 -10 2 -0.33 0.4
-6 10 -2 2.4 2.19
-6 10 -2 3.01 1.1
6 -10 2 4.75 1.08
6 -10 2 5.23 0.87
-7 10 -2 9.31 1.87
7 -10 2 5.5 1.15
7 -10 2 5.69 0.94
3 9 -2 10.21 2
-3 -9 2 16.49 2.17
2 9 -2 1.57 0.83
2 9 -2 1.09 0.7
-2 -9 2 1.87 0.95
-2 -9 2 1.52 0.81
1 9 -2 10.6 1.55
1 9 -2 10.01 1.11
-1 -9 2 6.37 1.52
-1 -9 2 11.07 1.68
-1 -9 2 12.48 1.42
0 9 -2 1.02 0.66
0 9 -2 2.32 0.89
0 -9 2 0.2 0.52
0 -9 2 1.11 0.66
0 -9 2 2.49 1.04
0 -9 2 1.7 0.76
-1 9 -2 8.78 1.32
-1 9 -2 5.26 0.85
-1 9 -2 2.9 0.8
1 -9 2 4.7 1.02
1 -9 2 4.99 1.14
-2 9 -2 27.55 3.87
-2 9 -2 30.72 2.56
2 -9 2 27.2 2.42
2 -9 2 31.49 2.65
2 -9 2 27.83 3.01
-3 9 -2 22.96 3.09
-3 9 -2 24.33 2.2
3 -9 2 22.96 2.11
3 -9 2 19.86 1.95
3 -9 2 15.62 2.49
-4 9 -2 3.34 0.97
-4 9 -2 2.24 1.22
4 -9 2 1.85 0.72
4 -9 2 3.46 1.18
4 -9 2 0.77 0.64
4 -9 2 2 0.53
-5 9 -2 11.7 1.82
-5 9 -2 7.36 1.72
5 -9 2 8.9 1.74
5 -9 2 10.45 1.08
5 -9 2 10.53 1.3
5 -9 2 8.8 1.32
-6 9 -2 33.65 3.63
-6 9 -2 32.89 3.18
6 -9 2 33.3 2.7
-7 9 -2 4.54 1.33
-7 9 -2 2.33 1.24
7 -9 2 2.84 0.81
7 -9 2 3.42 1.08
7 -9 2 3.61 0.75
-8 9 -2 1.98 0.94
8 -9 2 -0.28 0.46
8 -9 2 0.64 0.62
4 8 -2 1.61 0.97
-4 -8 2 1.51 0.91
-4 -8 2 0.75 0.91
3 8 -2 20.27 2.36
3 8 -2 18.31 1.97
-3 -8 2 18.41 2.38
-3 -8 2 17.61 2.36
-3 -8 2 17.78 2.48
2 8 -2 21.2 2.02
2 8 -2 22.04 2.27
2 8 -2 19.53 1.61
-2 -8 2 18.15 1.99
-2 -8 2 20.74 2.16
-2 -8 2 19.15 2.36
-2 -8 2 17.31 2.2
1 8 -2 2.25 0.77
1 8 -2 1.03 0.63
1 8 -2 1.86 0.52
-1 -8 2 1.68 0.81
-1 -8 2 1.86 0.94
-1 -8 2 2.96 0.86
-1 -8 2 2.41 0.77
0 8 -2 5.47 1.1
0 8 -2 3.8 0.92
0 -8 2 4.56 0.88
0 -8 2 3.05 1.03
0 -8 2 3.36 1
0 -8 2 2.45 0.76
-1 8 -2 62.06 4.33
-1 8 -2 64.74 4.61
-1 8 -2 65.4 4.14
1 -8 2 63.45 4.36
1 -8 2 55.63 4.67
1 -8 2 59.39 4.51
-2 8 -2 38.72 2.91
-2 8 -2 34.68 3.03
2 -8 2 27.68 2.69
2 -8 2 39.48 2.76
2 -8 2 34.5 3.11
-3 8 -2 2.46 0.85
-3 8 -2 2.86 0.83
-3 8 -2 2.5 0.73
3 -8 2 1.74 0.64
3 -8 2 2.13 0.67
3 -8 2 0.52 0.7
3 -8 2 1.77 0.48
-4 8 -2 11.44 1.56
-4 8 -2 14.6 1.69
-4 8 -2 10.18 1.69
4 -8 2 13.61 1.4
4 -8 2 14.42 1.47
4 -8 2 12.03 1.15
4 -8 2 14.27 1.9
-5 8 -2 21.45 2.37
-5 8 -2 18.8 2.33
5 -8 2 22.31 1.64
5 -8 2 19.93 1.77
5 -8 2 15.63 1.79
5 -8 2 17.41 2.27
-6 8 -2 18.02 2.24
-6 8 -2 16.37 2.38
6 -8 2 17.12 1.94
6 -8 2 20.23 2.53
6 -8 2 18.86 1.75
6 -8 2 18.94 1.65
-7 8 -2 8.49 1.93
-7 8 -2 10.41 2.01
7 -8 2 11.68 1.59
7 -8 2 8.42 1.2
7 -8 2 9.31 1.19
-8 8 -2 3.22 1.22
-8 8 -2 2.42 1.15
-8 8 -2 5.43 0.83
8 -8 2 6.13 1.35
8 -8 2 3.34 0.88
-9 8 -2 8.93 1.91
-5 -7 2 2.61 1.03
-5 -7 2 2.19 1.15
4 7 -2 20.05 2.37
4 7 -2 11.92 2.34
-4 -7 2 21.72 2.6
-4 -7 2 15.74 2.24
3 7 -2 19.76 2.34
3 7 -2 23.51 1.82
-3 -7 2 18.68 2.39
-3 -7 2 24.6 2.69
-3 -7 2 24.76 2.13
2 7 -2 25.77 1.91
2 7 -2 25.71 2.54
-2 -7 2 26.35 2.27
-2 -7 2 24.4 2.61
-2 -7 2 25.3 2.53
1 7 -2 28.14 2.25
1 7 -2 26.46 2.2
1 7 -2 26.41 1.94
1 7 -2 26.07 2.31
-1 -7 2 23.92 2.27
-1 -7 2 28.22 2.62
-1 -7 2 29.08 2.51
0 7 -2 45.43 3.75
0 7 -2 57.53 3.63
0 7 -2 51.46 3.84
0 -7 2 57.36 3.77
0 -7 2 55.72 3.96
0 -7 2 68.77 4.26
-1 7 -2 43.28 3.54
-1 7 -2 38.52 2.88
-1 7 -2 38.42 2.88
-1 7 -2 36.49 2.7
1 -7 2 40.02 2.89
1 -7 2 38.86 3.15
1 -7 2 39.6 3.02
-2 7 -2 9.2 1.17
-2 7 -2 10.4 1.24
-2 7 -2 10.08 1.35
2 -7 2 11.25 1.24
2 -7 2 13.26 1.53
-3 7 -2 5.46 1.02
-3 7 -2 5.46 1.03
-3 7 -2 4.64 1.09
3 -7 2 4.79 0.91
3 -7 2 6.14 1.32
3 -7 2 4.74 0.83
3 -7 2 5.25 0.68
-4 7 -2 26.3 2.42
-4 7 -2 26.12 2.53
-4 7 -2 26.66 2.4
4 -7 2 26.02 2.59
4 -7 2 24.33 2.15
4 -7 2 26.04 1.91
4 -7 2 27.36 2.06
-5 7 -2 50.18 4.24
-5 7 -2 52.48 4.18
-5 7 -2 49.33 4.05
5 -7 2 53.56 3.63
5 -7 2 52.98 3.56
5 -7 2 54.58 3.89
-6 7 -2 5.31 1.4
-6 7 -2 7.59 0.73
6 -7 2 7.1 1.77
6 -7 2 4.45 1.07
6 -7 2 6.9 0.94
-7 7 -2 1.55 0.79
-7 7 -2 0.86 0.41
-7 7 -2 0.31 0.67
7 -7 2 0.25 0.52
7 -7 2 0.7 0.48
7 -7 2 1.13 0.66
7 -7 2 0.15 0.83
-8 7 -2 10.64 2.09
-8 7 -2 11.85 1.44
-8 7 -2 12.6 2.04
8 -7 2 14.68 1.63
8 -7 2 11.14 2.43
8 -7 2 10.63 1.47
-9 7 -2 3.87 1.7
-9 7 -2 5.11 1.11
-9 7 -2 3.68 1.4
9 -7 2 4.01 1.04
6 6 -2 1.45 1.12
6 6 -2 0.9 0.85
6 6 -2 0.24 0.62
-6 -6 2 -0.1 0.81
-6 -6 2 -0.13 0.84
5 6 -2 34.71 3.82
5 6 -2 33.66 3.46
-5 -6 2 35.73 3.67
4 6 -2 29.95 3.01
4 6 -2 34.1 2.62
-4 -6 2 28.72 3.15
-4 -6 2 24.29 2.81
3 6 -2 3.42 0.77
3 6 -2 1.64 0.73
3 6 -2 3.28 0.79
-3 -6 2 1.73 0.85
-3 -6 2 2.62 0.69
-3 -6 2 2.65 0.86
2 6 -2 2.43 0.66
2 6 -2 2.41 0.51
2 6 -2 1.91 0.61
2 6 -2 2.76 0.8
-2 -6 2 1.57 0.64
-2 -6 2 2.14 0.8
-2 -6 2 2.07 0.63
1 6 -2 33.6 2.48
1 6 -2 30.31 2.99
1 6 -2 34.74 2.27
1 6 -2 35.34 2.59
-1 -6 2 31.43 2.55
-1 -6 2 34.05 2.85
-1 -6 2 30.9 2.64
0 6 -2 79.32 4.96
0 6 -2 76.39 4.75
0 6 -2 80.99 4.98
0 6 -2 82.17 5.02
0 -6 2 81.17 5.04
0 -6 2 60.38 4.98
0 -6 2 70.84 4.86
-1 6 -2 25.83 2.06
-1 6 -2 30.95 2.14
-1 6 -2 26.62 2.16
-1 6 -2 25.78 2.04
1 -6 2 24.43 2.25
1 -6 2 26.78 2.03
-2 6 -2 0.71 0.38
-2 6 -2 0.05 0.33
-2 6 -2 0.21 0.34
2 -6 2 0.68 0.28
2 -6 2 0.63 0.41
2 -6 2 -0.05 0.3
2 -6 2 0.1 0.33
-3 6 -2 76.96 5.37
-3 6 -2 76.51 5.18
-3 6 -2 80.02 5.3
3 -6 2 78.1 5.05
3 -6 2 76.01 4.82
3 -6 2 76.92 5.48
3 -6 2 78.54 4.95
-4 6 -2 72.02 5.01
-4 6 -2 72.78 5.15
-4 6 -2 71.19 5.19
4 -6 2 72.32 4.66
4 -6 2 69.56 4.85
4 -6 2 79.15 5.39
4 -6 2 70.49 4.61
-5 6 -2 6.13 1.29
-5 6 -2 5.2 0.66
-5 6 -2 6.24 1.18
-5 6 -2 7.12 1.42
5 -6 2 7.13 0.86
5 -6 2 8.33 1.54
5 -6 2 6.2 0.87
-6 6 -2 -0.35 0.35
-6 6 -2 0.07 0.5
-6 6 -2 0.07 0.38
-6 6 -2 -0.13 0.27
6 -6 2 0.07 0.38
6 -6 2 0.53 0.65
6 -6 2 0.21 0.47
6 -6 2 -0.2 0.31
-7 6 -2 4.28 1.33
-7 6 -2 6.08 1.12
-7 6 -2 4.43 1.34
7 -6 2 5.71 1.26
7 -6 2 5.57 1.44
7 -6 2 5.04 0.98
-8 6 -2 13.97 2.46
-8 6 -2 13.34 2.15
-8 6 -2 15.67 1.8
8 -6 2 12.15 1.68
8 -6 2 17.27 2.09
-9 6 -2 19.89 2.3
-9 6 -2 21.14 2.89
-9 6 -2 18.51 2.86
9 -6 2 19.16 2.43
9 -6 2 21.82 2.28
7 5 -2 0 0.98
7 5 -2 0.56 0.87
-7 -5 2 0.14 0.79
-7 -5 2 -0.36 0.92
6 5 -2 17.11 2.42
6 5 -2 12.54 2.69
6 5 -2 12.73 2.27
-6 -5 2 11.97 2.33
5 5 -2 40.3 3.7
5 5 -2 42.9 3.25
-5 -5 2 39.41 4.28
-5 -5 2 36.03 2.96
4 5 -2 15.59 1.61
4 5 -2 15.99 1.75
4 5 -2 16.68 1.94
-4 -5 2 16.79 2.11
-4 -5 2 12.6 1.79
-4 -5 2 16.11 1.53
3 5 -2 0.47 0.41
3 5 -2 0.28 0.39
3 5 -2 0.48 0.5
-3 -5 2 -0.11 0.41
-3 -5 2 0.47 0.58
-3 -5 2 0 0.34
2 5 -2 73.03 5.07
2 5 -2 76.4 4.9
2 5 -2 68.58 4.98
-2 -5 2 77.07 4.9
-2 -5 2 77.62 5.39
-2 -5 2 79.38 5.27
1 5 -2 76.66 4.78
1 5 -2 68.59 4.8
1 5 -2 80.41 4.86
1 5 -2 69.98 4.59
-1 -5 2 70.11 4.92
-1 -5 2 80.55 5.16
0 5 -2 65.06 4.04
0 5 -2 67.97 4.21
0 5 -2 66.09 4.19
0 5 -2 67.11 4.23
0 -5 2 61.83 4.34
0 -5 2 61.68 4.29
0 -5 2 65.57 4.22
0 -5 2 61.7 4.15
-1 5 -2 9.17 0.96
-1 5 -2 6.01 0.72
-1 5 -2 8.4 0.85
1 -5 2 8.87 0.74
1 -5 2 9.8 0.94
1 -5 2 7.57 0.83
1 -5 2 7.65 0.98
-2 5 -2 59.54 4.39
-2 5 -2 65.02 4.41
-2 5 -2 67.26 4.46
2 -5 2 68.21 4.07
2 -5 2 69.08 4.17
2 -5 2 70.74 4.22
2 -5 2 56.17 4.42
-3 5 -2 7.97 1.05
-3 5 -2 8.58 1.09
-3 5 -2 9.1 1.01
3 -5 2 7.8 0.91
3 -5 2 8.51 0.96
3 -5 2 8.36 0.8
3 -5 2 7.12 1.09
-4 5 -2 67.77 4.6
-4 5 -2 70.44 5.14
-4 5 -2 69.36 4.99
-4 5 -2 88.15 5.36
4 -5 2 72.03 5.23
4 -5 2 71.83 4.96
4 -5 2 77.57 4.75
4 -5 2 74.51 4.72
-5 5 -2 18.83 2.11
-5 5 -2 17.24 2
-5 5 -2 20.6 1.88
5 -5 2 22.28 1.75
5 -5 2 21.21 2.18
5 -5 2 18.37 1.89
-6 5 -2 7.43 1.55
-6 5 -2 7.63 1.38
-6 5 -2 8.08 1.76
6 -5 2 7.47 1.42
6 -5 2 9.23 1.15
6 -5 2 7.86 1.48
-7 5 -2 55.01 4.36
-7 5 -2 60.53 5.1
-7 5 -2 52.98 4.71
7 -5 2 65.24 4.35
7 -5 2 56.56 4.57
7 -5 2 55.29 4.7
-8 5 -2 21.3 2.7
-8 5 -2 20.19 2.63
-8 5 -2 23.27 2.42
8 -5 2 18.7 2.36
8 -5 2 21.51 2.23
-9 5 -2 2.48 0.98
-9 5 -2 2.51 1.1
9 -5 2 1.58 0.88
9 -5 2 1.61 0.89
7 4 -2 7.2 2.11
7 4 -2 10.96 1.67
7 4 -2 10.09 2.01
-7 -4 2 10.15 2.23
-7 -4 2 9.23 2.26
6 4 -2 35.37 3.27
6 4 -2 40.98 3.72
6 4 -2 42.05 3.97
-6 -4 2 37.72 3.85
5 4 -2 7.68 1.54
5 4 -2 6.56 1.23
5 4 -2 6.81 1.22
5 4 -2 8.05 1.64
-5 -4 2 7.54 1.72
4 4 -2 3.15 0.77
4 4 -2 2.51 0.74
4 4 -2 4.13 1.01
-4 -4 2 2.1 0.59
-4 -4 2 2.7 0.96
3 4 -2 30.03 2.69
3 4 -2 35.29 2.82
3 4 -2 34.83 2.59
-3 -4 2 43.31 3.21
-3 -4 2 36.22 2.52
2 4 -2 115.49 7.65
2 4 -2 117.13 7.83
2 4 -2 140.4 7.92
-2 -4 2 122.26 8.1
-2 -4 2 128.07 7.66
-2 -4 2 126.3 7.97
1 4 -2 15.58 1.24
1 4 -2 14.33 1.25
1 4 -2 14.63 1.29
-1 -4 2 15.09 1.35
-1 -4 2 16.24 1.48
-1 -4 2 15.69 1.26
0 4 -2 5.04 0.65
0 4 -2 5.35 0.54
0 4 -2 5.61 0.64
0 4 -2 5.18 0.64
0 -4 2 6.01 0.62
0 -4 2 4.95 0.68
0 -4 2 5.33 0.65
0 -4 2 6.05 0.75
-1 4 -2 6.73 0.75
-1 4 -2 6.18 0.62
-1 4 -2 5.26 0.62
-1 4 -2 6.34 0.72
1 -4 2 6.29 0.57
1 -4 2 6.2 0.65
1 -4 2 5.97 0.76
1 -4 2 6.84 0.69
-2 4 -2 150.61 8.98
-2 4 -2 149.83 9.16
-2 4 -2 147.75 9.12
2 -4 2 132.55 8.84
2 -4 2 156.22 8.99
2 -4 2 145.81 9.19
2 -4 2 153.28 8.86
-3 4 -2 169.71 10.7
-3 4 -2 167.63 10.63
-3 4 -2 171.4 10.5
3 -4 2 183.03 10.31
3 -4 2 164.33 10.67
3 -4 2 164.43 10.31
3 -4 2 176.22 10.52
-4 4 -2 13.61 1.59
-4 4 -2 12.77 1.48
-4 4 -2 13.42 1.41
4 -4 2 13.48 1.43
4 -4 2 15.61 1.29
4 -4 2 15.66 1.63
-5 4 -2 21.24 2.13
-5 4 -2 16.27 1.75
-5 4 -2 16.43 1.85
5 -4 2 17.79 1.62
5 -4 2 16.56 1.88
5 -4 2 15.97 1.74
-6 4 -2 62.7 4.93
-6 4 -2 60.04 4.79
-6 4 -2 68.04 5.18
6 -4 2 67.75 4.6
6 -4 2 62.91 4.82
-7 4 -2 30.82 3.78
-7 4 -2 27.57 2.88
7 -4 2 23.56 2.72
7 -4 2 29.75 2.6
7 -4 2 26.86 2.74
-8 4 -2 4.08 1.32
-8 4 -2 5.29 1.61
8 -4 2 4.15 1.27
8 -4 2 5.91 1.23
-9 4 -2 3.02 0.91
-9 4 -2 1.68 1.04
-9 4 -2 2.98 1.14
9 -4 2 3.47 1.11
9 -4 2 0.75 0.7
9 -4 2 2.19 0.95
8 3 -2 2.1 0.82
8 3 -2 1.49 1.09
8 3 -2 0.89 0.93
-8 -3 2 1.43 1.02
-8 -3 2 0.59 1
7 3 -2 25.64 2.92
7 3 -2 25.11 2.63
7 3 -2 24.76 2.98
-7 -3 2 28.81 3.21
-7 -3 2 25.58 3.15
6 3 -2 45.16 3.94
6 3 -2 41.87 3.99
6 3 -2 48.18 3.72
-6 -3 2 45.94 3.38
-6 -3 2 43.44 4.15
5 3 -2 1.26 0.72
5 3 -2 1.27 0.61
5 3 -2 0.76 0.63
5 3 -2 1.88 0.57
5 3 -2 0.66 0.55
-5 -3 2 0.55 0.44
-5 -3 2 0.88 0.66
4 3 -2 14.58 1.7
4 3 -2 19.64 1.72
4 3 -2 16.61 1.75
-4 -3 2 16.53 1.93
-4 -3 2 16.76 1.47
3 3 -2 32.73 2.37
3 3 -2 32.67 2.48
3 3 -2 31.11 2.53
-3 -3 2 28.74 2.45
-3 -3 2 32.75 2.23
-3 -3 2 29.32 2.61
2 3 -2 44.93 2.97
2 3 -2 49.56 3.1
-2 -3 2 46.5 2.9
-2 -3 2 42.94 3.11
-2 -3 2 38.19 3.17
1 3 -2 187.36 11.28
1 3 -2 177.35 11.35
1 3 -2 200.79 11.27
-1 -3 2 193.95 11.25
-1 -3 2 180.74 11.45
-1 -3 2 192.32 11.37
0 3 -2 14.11 1.02
0 3 -2 11.16 0.91
0 3 -2 12.74 0.97
0 3 -2 12.41 0.98
0 -3 2 13.39 1.04
0 -3 2 13.06 0.98
0 -3 2 13.84 1
-1 3 -2 322.04 18.89
-1 3 -2 330.48 18.81
-1 3 -2 306.62 18.92
-1 3 -2 331.4 18.84
1 -3 2 318.2 18.81
1 -3 2 300.92 18.93
1 -3 2 327.07 18.78
-2 3 -2 140.98 8.59
-2 3 -2 159.08 8.77
-2 3 -2 144.2 8.79
2 -3 2 139.06 8.64
2 -3 2 135.21 8.51
2 -3 2 142.62 8.48
2 -3 2 134.2 8.73
-3 3 -2 67.68 4.52
-3 3 -2 62.94 4.59
-3 3 -2 68.28 4.43
3 -3 2 72.36 4.29
3 -3 2 64.66 4.52
3 -3 2 65.58 4.44
-4 3 -2 46.28 3.44
-4 3 -2 49.82 3.64
-4 3 -2 47.12 3.37
4 -3 2 45.51 3.44
4 -3 2 40.98 3.32
4 -3 2 44.89 3.18
-5 3 -2 52.54 4.31
-5 3 -2 56.48 4.19
-5 3 -2 48.77 3.98
5 -3 2 51.8 4.13
5 -3 2 60.53 3.97
5 -3 2 57.32 4.15
-6 3 -2 55.45 4.48
-6 3 -2 52.01 4.07
-6 3 -2 52.84 4.25
6 -3 2 47.68 3.9
6 -3 2 55.81 4.24
-7 3 -2 12.47 2.68
7 -3 2 11.39 1.72
7 -3 2 12.59 1.74
7 -3 2 12.18 1.67
-8 3 -2 1.59 0.95
-8 3 -2 1.78 0.78
8 -3 2 1.34 0.74
8 -3 2 1.22 0.71
8 -3 2 -0.07 0.63
-9 3 -2 7.18 1.85
9 -3 2 6.99 1.5
9 -3 2 5.27 1.37
9 -3 2 7.58 1.82
8 2 -2 13.21 1.9
8 2 -2 10.86 2.25
8 2 -2 10.57 1.94
-8 -2 2 9.23 2.06
-8 -2 2 14.82 2.83
7 2 -2 12.96 1.77
7 2 -2 8.93 1.72
7 2 -2 12.44 1.94
-7 -2 2 12.01 2.42
-7 -2 2 8.87 1.87
6 2 -2 0.85 0.59
6 2 -2 1.37 0.68
6 2 -2 1.34 0.77
6 2 -2 2.3 0.87
-6 -2 2 1.95 0.86
5 2 -2 16.98 1.91
5 2 -2 17.02 1.8
5 2 -2 17.82 1.88
-5 -2 2 17.28 1.59
-5 -2 2 16.02 2.01
4 2 -2 85.88 5.89
4 2 -2 85.29 5.68
4 2 -2 86.99 5.75
4 2 -2 80.1 5.35
4 2 -2 79.94 5.84
-4 -2 2 89.06 6.02
-4 -2 2 88.3 5.48
3 2 -2 326.91 17.96
-3 -2 2 302.98 17.72
-3 -2 2 262.02 18.06
2 2 -2 39.6 2.68
2 2 -2 40.4 2.69
-2 -2 2 42.16 2.57
-2 -2 2 40.71 2.87
-2 -2 2 36.75 2.71
1 2 -2 41.45 2.73
1 2 -2 45.94 2.63
1 2 -2 38.13 2.6
-1 -2 2 42.24 2.68
-1 -2 2 41.18 2.74
-1 -2 2 45.54 2.58
-1 -2 2 35.96 2.75
0 2 -2 311.05 18.34
0 2 -2 326.6 18.32
0 2 -2 330.27 18.35
0 2 -2 302.14 18.39
0 2 -2 312.35 18.35
0 -2 2 289.87 18.32
0 -2 2 301.03 18.36
0 -2 2 329.06 18.35
-1 2 -2 179.14 10.22
-1 2 -2 177.29 10.07
-1 2 -2 159.72 10.15
-1 2 -2 172.47 10.13
-1 2 -2 172.14 10.04
1 -2 2 161.75 10.02
1 -2 2 175.09 10.1
1 -2 2 171.27 10.14
1 -2 2 167.84 10.23
-2 2 -2 17.43 1.35
-2 2 -2 18.03 1.42
-2 2 -2 17.61 1.49
2 -2 2 18.36 1.43
2 -2 2 17.87 1.28
2 -2 2 17.31 1.39
-3 2 -2 -0.19 0.16
-3 2 -2 -0.19 0.2
-3 2 -2 0.06 0.27
3 -2 2 0.07 0.21
3 -2 2 0.07 0.21
3 -2 2 0.14 0.26
-4 2 -2 50.67 3.6
-4 2 -2 50.19 3.74
-4 2 -2 46.04 3.44
4 -2 2 45.31 3.51
4 -2 2 45.48 3.52
4 -2 2 48.81 3.41
-5 2 -2 88.23 5.9
-5 2 -2 83.83 6.03
-5 2 -2 77.25 5.62
5 -2 2 82.57 5.81
5 -2 2 80.61 5.76
5 -2 2 82.83 5.63
-6 2 -2 17.94 2.26
-6 2 -2 22.11 2.3
-6 2 -2 20.71 2.05
6 -2 2 18.17 2
6 -2 2 19.61 2.04
6 -2 2 23.21 2.3
6 -2 2 20 2.15
-7 2 -2 1.24 1.07
7 -2 2 0.76 0.57
7 -2 2 1.41 0.79
7 -2 2 2.27 0.84
7 -2 2 2.65 0.87
-8 2 -2 11.16 2.15
8 -2 2 9.8 1.82
8 -2 2 12.93 1.93
8 -2 2 15.11 1.93
-9 2 -2 15.65 2.84
9 -2 2 15.76 2.35
9 -2 2 12.52 2.5
9 -2 2 15.97 2.17
9 1 -2 1.21 1.18
9 1 -2 2.4 0.87
9 1 -2 2.1 1.01
-9 -1 2 1.38 1.11
-9 -1 2 2.14 1.3
8 1 -2 32.15 3.42
8 1 -2 31.48 3.25
-8 -1 2 32.94 3.66
-8 -1 2 32.11 3.53
7 1 -2 40.21 3.43
7 1 -2 37.48 3.59
7 1 -2 32.65 3.34
-7 -1 2 38.2 3.79
-7 -1 2 38.37 3.11
6 1 -2 9.94 1.54
6 1 -2 10.35 1.49
6 1 -2 11.31 1.53
6 1 -2 11.21 1.6
-6 -1 2 6.82 1.54
5 1 -2 67.63 5
5 1 -2 67.02 5.19
5 1 -2 70.59 5.07
5 1 -2 78.84 5.33
-5 -1 2 70.12 4.81
-5 -1 2 73.39 5.33
4 1 -2 97.96 6.45
4 1 -2 91.62 6.32
4 1 -2 98.03 6.25
-4 -1 2 87.36 6.18
-4 -1 2 96.75 6.45
3 1 -2 13.94 1.35
3 1 -2 16.09 1.41
3 1 -2 16.24 1.48
-3 -1 2 16.44 1.54
-3 -1 2 14.82 1.26
2 1 -2 11.3 1.06
2 1 -2 10.45 0.91
2 1 -2 9.85 0.91
2 1 -2 9.95 0.97
-2 -1 2 8.94 0.81
-2 -1 2 9.52 1
-2 -1 2 11.6 1.03
1 1 -2 103.13 6.15
1 1 -2 103 6.23
1 1 -2 99.72 6.14
-1 -1 2 101.86 6.21
-1 -1 2 96.74 6.07
-1 -1 2 105.61 6
0 1 -2 418.39 25.27
0 -1 2 411.84 25.26
0 -1 2 465.59 25.24
-1 1 -2 82.29 5.22
-1 1 -2 95.52 5.28
-1 1 -2 87.7 5.21
1 -1 2 84.47 5.25
1 -1 2 83.49 5.15
1 -1 2 85.69 5.16
-2 1 -2 7.04 0.76
-2 1 -2 7.76 0.97
-2 1 -2 8.5 0.88
2 -1 2 7.09 0.79
2 -1 2 7.55 0.76
2 -1 2 7.29 0.77
-3 1 -2 127.96 8.39
-3 1 -2 136.78 8.23
3 -1 2 132.47 8.26
3 -1 2 127.84 8.3
3 -1 2 133.18 8.21
-4 1 -2 55.21 3.73
-4 1 -2 51.94 3.97
-4 1 -2 53.99 3.72
4 -1 2 52.02 3.84
4 -1 2 46.66 3.65
4 -1 2 52.25 3.73
-5 1 -2 56.76 4.13
-5 1 -2 59.97 4.21
-5 1 -2 66.66 4.71
5 -1 2 56.01 4.26
5 -1 2 60.6 4.42
5 -1 2 59.27 4.27
5 -1 2 47.58 4.14
-6 1 -2 -0.02 0.45
-6 1 -2 -0.06 0.33
6 -1 2 0.12 0.4
6 -1 2 0.03 0.38
6 -1 2 0.18 0.38
6 -1 2 0.57 0.49
-7 1 -2 7.6 1.74
7 -1 2 10.19 1.61
7 -1 2 6.76 1.42
7 -1 2 10.35 2.01
-8 1 -2 5.97 1.65
8 -1 2 4.06 1.22
8 -1 2 6.43 1.47
8 -1 2 6.08 1.4
-9 1 -2 18.41 3.19
9 -1 2 12.81 2.13
9 -1 2 19.15 2.46
9 0 -2 18.35 2.49
9 0 -2 17.44 2.6
-9 0 2 18.76 3.09
-9 0 2 25.3 3.09
8 0 -2 12.7 1.99
8 0 -2 11.34 2.05
8 0 -2 14.7 1.97
-8 0 2 16.07 2.74
-8 0 2 10.02 2.28
7 0 -2 1.6 0.8
7 0 -2 0.69 0.73
7 0 -2 1.12 0.73
-7 0 2 2.48 1.33
-7 0 2 2.34 1
-7 0 2 1.07 0.56
6 0 -2 3.41 0.98
6 0 -2 2.65 0.87
6 0 -2 3.48 0.93
6 0 -2 3.57 0.91
-6 0 2 1.83 0.67
-6 0 2 3.14 1.06
-6 0 2 2.43 0.91
5 0 -2 171.16 10.97
5 0 -2 162.36 10.32
-5 0 2 156.26 10.44
-5 0 2 152.97 10.08
-5 0 2 162.6 10.52
4 0 -2 81.16 5.75
4 0 -2 86.97 5.87
4 0 -2 84.93 5.98
-4 0 2 88.06 5.66
-4 0 2 86.53 5.9
-4 0 2 85.91 5.92
-4 0 2 94.9 5.93
3 0 -2 2.82 0.58
3 0 -2 2.96 0.62
3 0 -2 2.35 0.6
-3 0 2 3.6 0.61
-3 0 2 3.1 0.62
-3 0 2 2.85 0.66
2 0 -2 132.58 8.03
2 0 -2 123.05 7.99
2 0 -2 128.8 7.96
-2 0 2 132.28 8
-2 0 2 133.6 7.89
-2 0 2 130.9 7.95
1 0 -2 207.38 12.26
1 0 -2 207.15 12.26
1 0 -2 213.95 12.26
1 0 -2 206.21 12.32
-1 0 2 213.2 12.24
-1 0 2 206.45 12.28
-1 0 2 221.07 12.21
-1 0 2 185.03 12.28
0 0 -2 22.25 1.39
0 0 -2 21.4 1.31
0 0 -2 20.69 1.51
0 0 -2 24.2 1.33
0 0 -2 20.2 1.29
0 0 2 21.3 1.29
0 0 2 20.44 1.31
0 0 2 17.88 1.31
0 0 2 22.1 1.39
0 0 2 20.14 1.29
-1 0 -2 49.6 3.04
-1 0 -2 44.82 2.99
-1 0 -2 48.27 3.17
-1 0 -2 45.62 2.98
1 0 2 46.93 2.99
1 0 2 48.99 2.96
-2 0 -2 24.18 1.82
-2 0 -2 23.35 1.69
-2 0 -2 20.68 1.78
2 0 2 22.04 1.7
2 0 2 21.57 1.65
2 0 2 22.87 1.68
-3 0 -2 132.91 8.02
-3 0 -2 124.38 8.23
3 0 2 128.76 8.06
3 0 2 124.05 7.99
3 0 2 133.6 8.19
3 0 2 124.2 8.03
-4 0 -2 44.47 3.64
-4 0 -2 46.02 3.33
4 0 2 44.83 3.41
4 0 2 46.63 3.55
4 0 2 47.09 3.44
4 0 2 45.47 3.37
-5 0 -2 13.94 1.85
-5 0 -2 15.27 1.55
5 0 2 15.39 1.64
5 0 2 14.43 1.59
5 0 2 13.69 1.65
5 0 2 13.75 1.71
-6 0 -2 -0.29 0.32
-6 0 -2 -0.02 0.52
6 0 2 0.44 0.57
6 0 2 0.11 0.39
6 0 2 -0.11 0.39
6 0 2 -0.15 0.36
-7 0 -2 41.64 4.17
7 0 2 43.22 3.96
7 0 2 44.69 3.83
7 0 2 41.12 3.62
-8 0 -2 34.38 3.8
8 0 2 27.1 3.24
8 0 2 28.51 3.15
-9 0 -2 1.61 1.18
9 0 2 1.22 1.03
9 0 2 1.14 0.87
9 -1 -2 17.87 2.3
9 -1 -2 13.48 2.05
-9 1 2 16.38 2.42
-9 1 2 11.68 2.23
8 -1 -2 2.14 0.98
8 -1 -2 2.56 0.96
8 -1 -2 1.91 0.84
-8 1 2 1.73 0.99
-8 1 2 2.48 1.03
7 -1 -2 34.92 3.43
7 -1 -2 41.46 4.01
7 -1 -2 44.49 3.55
-7 1 2 42.96 3.71
-7 1 2 33.42 3.08
-7 1 2 36.39 3.55
6 -1 -2 60.1 4.37
6 -1 -2 51.34 4.32
6 -1 -2 47.82 4.06
-6 1 2 59.1 4.44
-6 1 2 50.14 4.21
5 -1 -2 36.99 3.22
5 -1 -2 36.01 3.02
5 -1 -2 32.56 3.02
-5 1 2 44.38 3.24
-5 1 2 40.9 3.25
-5 1 2 40.8 3.01
-5 1 2 37.16 3.18
4 -1 -2 0.73 0.39
4 -1 -2 1.07 0.5
-4 1 2 0.81 0.43
-4 1 2 1.62 0.49
-4 1 2 1.37 0.53
-4 1 2 1.16 0.5
3 -1 -2 1.53 0.47
3 -1 -2 1.13 0.46
3 -1 -2 1.45 0.42
-3 1 2 1.47 0.48
-3 1 2 1.16 0.37
-3 1 2 1.23 0.4
-3 1 2 1 0.38
2 -1 -2 212.97 12.83
2 -1 -2 216.35 12.76
2 -1 -2 207.34 12.72
-2 1 2 200.99 12.78
-2 1 2 217.38 12.75
-2 1 2 213.1 12.75
-2 1 2 221.18 12.72
1 -1 -2 306 18.53
1 -1 -2 322.57 18.53
1 -1 -2 328.67 18.59
1 -1 -2 312.23 18.53
-1 1 2 298.75 18.54
-1 1 2 323.83 18.52
-1 1 2 312.6 18.51
0 -1 -2 0.63 0.2
0 -1 -2 0.66 0.21
0 -1 -2 0.56 0.2
0 -1 -2 0.72 0.23
0 1 2 0.46 0.19
0 1 2 0.39 0.17
0 1 2 0.47 0.21
-1 -1 -2 3.41 0.49
-1 -1 -2 2.31 0.47
-1 -1 -2 2.25 0.38
1 1 2 2.95 0.44
1 1 2 2.95 0.41
1 1 2 2.05 0.4
-2 -1 -2 72.01 4.56
-2 -1 -2 70.8 4.68
-2 -1 -2 73.49 4.82
2 1 2 84.59 4.66
2 1 2 68.75 4.54
2 1 2 71.5 4.81
2 1 2 60.94 4.58
-3 -1 -2 69.02 5.15
-3 -1 -2 80.62 5.08
-3 -1 -2 80.52 5.45
3 1 2 80.47 5.21
3 1 2 75.62 5.07
3 1 2 82.47 5.42
-4 -1 -2 104.03 6.55
-4 -1 -2 99.56 7.03
4 1 2 103.37 6.6
4 1 2 99.65 6.71
4 1 2 98.17 6.87
4 1 2 97.45 6.62
-5 -1 -2 5.76 1.07
-5 -1 -2 6.4 1.49
5 1 2 6.05 1.14
5 1 2 9.3 1.22
5 1 2 7.59 1.37
5 1 2 8.15 1.54
6 1 2 50.44 4.11
6 1 2 48.95 4.25
6 1 2 54.86 4.13
6 1 2 55.99 4.55
-7 -1 -2 24.8 3.07
7 1 2 22.2 2.54
7 1 2 20.8 2.36
7 1 2 20.54 2.61
-8 -1 -2 5.17 1.69
8 1 2 4.62 1.33
8 1 2 8.15 1.81
8 1 2 7.29 1.59
9 -2 -2 0.99 1.31
9 -2 -2 0.28 0.65
9 -2 -2 -0.05 0.67
-9 2 2 0.4 0.78
-9 2 2 1.14 0.89
8 -2 -2 14.04 2.04
8 -2 -2 15.67 2.04
-8 2 2 14.88 2.1
-8 2 2 15.91 2.24
-8 2 2 16.69 2.29
7 -2 -2 13.08 1.69
7 -2 -2 10.49 1.66
7 -2 -2 10.37 1.93
-7 2 2 12.5 2.1
-7 2 2 13.76 1.62
-7 2 2 12.88 1.75
-7 2 2 12.58 1.81
6 -2 -2 97.79 7.2
6 -2 -2 98.29 7.01
6 -2 -2 101.94 6.91
-6 2 2 98.58 7.09
-6 2 2 101.6 7.12
-6 2 2 110.4 7
-6 2 2 97.48 6.93
5 -2 -2 1.42 0.54
5 -2 -2 2.26 0.82
5 -2 -2 1.91 0.69
-5 2 2 1.56 0.65
-5 2 2 1.85 0.63
-5 2 2 1.64 0.58
-5 2 2 0.96 0.54
4 -2 -2 16.49 1.63
4 -2 -2 13.73 1.41
4 -2 -2 10.47 1.26
-4 2 2 13.98 1.33
-4 2 2 12.91 1.43
-4 2 2 14.73 1.5
3 -2 -2 58.34 3.78
3 -2 -2 53.43 3.78
3 -2 -2 62.97 3.87
-3 2 2 52.1 3.67
-3 2 2 52.35 3.86
-3 2 2 63.6 3.88
-3 2 2 54.13 3.82
2 -2 -2 72.02 4.77
2 -2 -2 83.44 4.7
2 -2 -2 77.41 4.63
2 -2 -2 74.42 4.62
-2 2 2 71.36 4.52
-2 2 2 74.78 4.67
-2 2 2 62.67 4.67
-2 2 2 72.75 4.66
1 -2 -2 56.41 3.38
1 -2 -2 49.48 3.45
1 -2 -2 53.61 3.34
1 -2 -2 50.55 3.34
-1 2 2 57.16 3.41
-1 2 2 53.83 3.33
-1 2 2 54.17 3.45
-1 2 2 53.27 3.39
0 -2 -2 134.22 8.4
0 -2 -2 128.74 8.42
0 -2 -2 153.26 8.44
0 -2 -2 142.1 8.4
0 2 2 132.85 8.39
0 2 2 145.07 8.4
0 2 2 138.95 8.38
-1 -2 -2 211.65 11.97
-1 -2 -2 191.86 12.01
-1 -2 -2 191.57 11.78
1 2 2 194.39 11.87
1 2 2 186.86 11.82
1 2 2 206.15 11.81
-2 -2 -2 324.89 19.55
-2 -2 -2 295.21 19.67
2 2 2 317.73 19.21
2 2 2 340.43 19.15
2 2 2 326.82 19.29
-3 -2 -2 25.91 1.99
-3 -2 -2 27.67 2.47
-3 -2 -2 24.75 2.22
3 2 2 25.96 2.18
3 2 2 28.2 2.36
3 2 2 23.43 1.97
3 2 2 21.74 1.99
-4 -2 -2 10.64 1.57
-4 -2 -2 9.24 1.12
4 2 2 9.65 1.31
4 2 2 9.17 1.19
-5 -2 -2 28.93 2.44
-5 -2 -2 28.62 3.09
5 2 2 27.28 2.52
5 2 2 28.05 2.71
5 2 2 30.25 2.56
5 2 2 29.64 2.96
-6 -2 -2 26.49 3.33
6 2 2 30.91 3.02
6 2 2 33.24 2.84
-7 -2 -2 8.1 2.17
7 2 2 8.05 1.66
7 2 2 10.6 1.64
7 2 2 9.83 2.06
-8 -2 -2 0.2 1
8 2 2 -0.28 0.85
8 2 2 -1.22 0.81
8 2 2 0.48 0.86
10 -3 -2 1.08 0.79
10 -3 -2 0.25 1.01
10 -3 -2 -0.5 0.85
-10 3 2 0.71 0.77
-10 3 2 0.18 0.89
9 -3 -2 1.13 0.81
9 -3 -2 2.04 1.04
-9 3 2 1.08 0.92
-9 3 2 1.8 0.94
-9 3 2 0.25 0.97
8 -3 -2 18.36 2.14
8 -3 -2 15.46 2.07
-8 3 2 18.01 2.43
-8 3 2 17.1 2.28
7 -3 -2 16.17 1.89
7 -3 -2 14.68 2.38
7 -3 -2 16.95 2.02
-7 3 2 15.98 1.89
-7 3 2 17.18 2.16
-7 3 2 16.72 1.9
-7 3 2 14.66 2.04
6 -3 -2 26.75 2.54
6 -3 -2 25.47 2.71
6 -3 -2 26.57 2.41
-6 3 2 26.61 2.61
-6 3 2 25.12 2.61
-6 3 2 26.57 2.46
-6 3 2 29.69 2.48
5 -3 -2 2.33 0.68
5 -3 -2 1.98 0.65
5 -3 -2 2.07 0.79
-5 3 2 2.38 0.68
-5 3 2 1.59 0.63
-5 3 2 2.39 0.67
-5 3 2 2.09 0.74
4 -3 -2 26.67 2.19
4 -3 -2 25.66 2.1
4 -3 -2 26.44 2.4
-4 3 2 27.03 2.25
-4 3 2 25.44 2.18
-4 3 2 26.16 2.37
-4 3 2 26.43 2.01
3 -3 -2 231.01 15.51
3 -3 -2 264.61 15.5
3 -3 -2 274.53 15.49
3 -3 -2 252.03 15.78
-3 3 2 252.69 15.57
-3 3 2 266.78 15.33
-3 3 2 262.48 15.6
-3 3 2 255.64 15.69
2 -3 -2 190.71 11.16
2 -3 -2 176.36 11.39
2 -3 -2 188.82 11.18
-2 3 2 181.68 11.32
-2 3 2 188.06 11.22
-2 3 2 185.51 11.03
1 -3 -2 43.87 2.72
1 -3 -2 40.07 2.7
1 -3 -2 39.95 2.63
1 -3 -2 39.25 2.82
-1 3 2 41.24 2.73
-1 3 2 39.33 2.79
-1 3 2 40.5 2.74
0 -3 -2 158.47 9.48
0 -3 -2 136.51 9.29
0 -3 -2 153.82 9.37
0 -3 -2 164.44 9.4
0 3 2 162.38 9.37
0 3 2 151.55 9.33
0 3 2 150.71 9.33
-1 -3 -2 82.23 5.91
-1 -3 -2 95.78 6.11
-1 -3 -2 91.27 5.78
1 3 2 92.23 5.97
1 3 2 99.72 5.9
1 3 2 93.53 5.89
-2 -3 -2 12.85 1.55
-2 -3 -2 11.64 1.38
-2 -3 -2 13.05 1.2
2 3 2 12.24 1.31
2 3 2 13.08 1.24
2 3 2 13.69 1.22
-3 -3 -2 15.32 1.93
-3 -3 -2 14.17 1.66
-3 -3 -2 15.05 1.74
3 3 2 16.81 1.86
3 3 2 14.07 1.42
3 3 2 16.85 1.69
3 3 2 15.9 1.5
-4 -3 -2 26.38 2.15
-4 -3 -2 21.82 2.43
-4 -3 -2 24.24 2.75
4 3 2 26.2 2.19
4 3 2 25.73 2.54
4 3 2 24.66 2.41
4 3 2 26.59 2.6
-5 -3 -2 41.61 4.65
5 3 2 61.19 4.94
5 3 2 60.29 4.17
5 3 2 55.51 4.49
-6 -3 -2 8.87 2.22
6 3 2 9.82 1.99
6 3 2 11.71 1.62
6 3 2 9.25 1.83
-7 -3 -2 -0.18 0.84
7 3 2 -0.13 0.65
7 3 2 0.28 0.73
7 3 2 0.44 0.71
10 -4 -2 1.77 0.92
10 -4 -2 0.44 0.79
-10 4 2 0.14 0.71
9 -4 -2 7.41 1.55
9 -4 -2 11.5 1.81
-9 4 2 6.74 1.55
-9 4 2 5.87 1.89
-9 4 2 6.96 1.73
8 -4 -2 25.29 2.64
8 -4 -2 22.08 2.41
-8 4 2 21.38 2.37
-8 4 2 24.14 2.75
-8 4 2 21.25 2.7
7 -4 -2 40.56 3.91
-7 4 2 52.74 4.38
-7 4 2 54.07 3.94
-7 4 2 49.8 4.08
-7 4 2 51.81 4.25
6 -4 -2 4.69 1.01
6 -4 -2 3.63 0.97
6 -4 -2 4.7 1.7
-6 4 2 3.81 0.85
-6 4 2 3.61 0.94
-6 4 2 3.44 1.03
-6 4 2 4.47 1.06
5 -4 -2 25.21 2.8
5 -4 -2 24.33 2.02
5 -4 -2 23.31 2.13
-5 4 2 23.04 2.18
-5 4 2 21.29 2.23
-5 4 2 22.59 2.11
-5 4 2 20.55 1.81
4 -4 -2 138.74 8.29
4 -4 -2 129.83 8.37
4 -4 -2 129.45 8.75
-4 4 2 129.51 8.43
-4 4 2 134.31 8.09
-4 4 2 135.42 8.64
-4 4 2 124.46 8.43
3 -4 -2 60.56 4.29
3 -4 -2 58.25 3.6
3 -4 -2 57.85 3.84
3 -4 -2 59.31 3.93
3 -4 -2 58.09 3.87
-3 4 2 59.47 4
-3 4 2 52.62 4.09
-3 4 2 59.26 4.03
-3 4 2 59.57 3.69
2 -4 -2 2.58 0.41
2 -4 -2 3.42 0.75
2 -4 -2 2.97 0.58
2 -4 -2 3 0.58
-2 4 2 2.83 0.58
-2 4 2 2.52 0.67
-2 4 2 3.15 0.62
-2 4 2 3.02 0.46
1 -4 -2 0.43 0.34
1 -4 -2 0.33 0.3
1 -4 -2 0.46 0.23
1 -4 -2 1.38 0.46
-1 4 2 0.66 0.37
-1 4 2 0.71 0.35
-1 4 2 0.55 0.38
0 -4 -2 247.26 14.26
0 -4 -2 217.93 14.12
0 -4 -2 234.69 14.35
0 -4 -2 234.83 14.25
0 4 2 231.75 14.19
0 4 2 250.48 14.24
0 4 2 231.12 14.17
-1 -4 -2 91.07 6.34
-1 -4 -2 98.11 6.18
-1 -4 -2 102.85 6.58
1 4 2 95.6 6.17
1 4 2 96.72 6.28
1 4 2 98.77 6.17
-2 -4 -2 0.32 0.42
-2 -4 -2 0.03 0.39
2 4 2 -0.01 0.35
2 4 2 0.03 0.34
-3 -4 -2 31.55 2.84
-3 -4 -2 28.41 2.96
3 4 2 27.69 2.32
3 4 2 29.54 2.64
-4 -4 -2 17.73 2.28
4 4 2 20.29 1.92
4 4 2 22.73 2.48
-5 -4 -2 7.06 1.95
5 4 2 7.47 1.63
5 4 2 8.91 1.68
-6 -4 -2 9.21 2.37
6 4 2 8.13 1.82
6 4 2 7.76 1.42
6 4 2 6.05 1.55
9 -5 -2 18.51 2.18
9 -5 -2 12.76 2.07
-9 5 2 14.22 2.45
-9 5 2 16.23 1.96
-9 5 2 15.11 2.67
8 -5 -2 18.93 2.23
8 -5 -2 21.86 2.79
-8 5 2 21.61 2.2
-8 5 2 23.63 2.67
-8 5 2 22.89 3.43
7 -5 -2 6.16 1.23
7 -5 -2 6.54 1.35
-7 5 2 8.25 1.58
-7 5 2 7.61 1.13
-7 5 2 7.22 1.63
6 -5 -2 33.26 2.89
6 -5 -2 32.14 3.29
6 -5 -2 36.21 2.8
-6 5 2 33.69 3.02
-6 5 2 30.44 2.91
-6 5 2 32.24 3.15
-6 5 2 34.7 2.57
5 -5 -2 60.35 4.26
5 -5 -2 59.79 4.14
5 -5 -2 59.43 4.73
-5 5 2 61.65 4.37
-5 5 2 59.23 3.87
-5 5 2 54.51 4.5
-5 5 2 54.05 4.31
4 -5 -2 50 3.58
4 -5 -2 52.9 3.69
4 -5 -2 49.38 3.27
4 -5 -2 48.78 4.1
-4 5 2 54.76 3.88
-4 5 2 52.32 3.76
-4 5 2 51.53 3.33
-4 5 2 51.72 4
3 -5 -2 13.04 1.28
3 -5 -2 13.09 1.56
3 -5 -2 11.3 1.07
3 -5 -2 12.73 1.2
-3 5 2 11.83 1.45
-3 5 2 10.51 0.98
-3 5 2 13.14 1.35
-3 5 2 11.85 1.29
2 -5 -2 51.28 3.32
2 -5 -2 42.11 3.24
2 -5 -2 43.88 3.1
2 -5 -2 49.08 3.67
-2 5 2 46.35 3.54
-2 5 2 54.24 3.47
-2 5 2 49.17 3.35
1 -5 -2 78.14 5.34
1 -5 -2 85.14 5.25
1 -5 -2 82.32 5.15
-1 5 2 76.58 5.1
-1 5 2 73.85 5.15
-1 5 2 75.47 5.26
0 -5 -2 31.09 2.56
0 -5 -2 29.57 2.41
0 -5 -2 29.68 2.42
0 5 2 31.71 2.34
0 5 2 29.54 2.36
0 5 2 31.31 2.4
-1 -5 -2 2.09 0.75
-1 -5 -2 1.69 0.73
-1 -5 -2 1.93 0.57
1 5 2 2.79 0.6
1 5 2 1.54 0.58
1 5 2 2.81 0.76
-2 -5 -2 1.56 0.77
-2 -5 -2 1.25 0.52
-2 -5 -2 1.96 0.71
2 5 2 1.38 0.53
2 5 2 1.64 0.6
2 5 2 2.92 0.83
-3 -5 -2 22.68 2.61
3 5 2 27.27 2.8
3 5 2 29.35 2.35
-4 -5 -2 26.11 3.22
-4 -5 -2 38.14 3.87
4 5 2 34.42 3.53
4 5 2 40.16 2.98
-5 -5 -2 7.56 2.04
5 5 2 6.19 1.55
5 5 2 7.15 1.74
5 5 2 4.32 1.17
-6 -5 -2 1.9 1.34
6 5 2 1.27 1.15
6 5 2 0.78 0.91
6 5 2 1.33 0.93
9 -6 -2 9.67 1.83
9 -6 -2 9.93 1.68
-9 6 2 10.85 2.1
-9 6 2 7.52 1.98
-9 6 2 11.56 1.58
8 -6 -2 0.65 0.63
8 -6 -2 0.96 0.64
-8 6 2 1.4 0.6
-8 6 2 1.51 0.84
-8 6 2 1.65 1.17
7 -6 -2 7.62 1.73
7 -6 -2 7.55 1.35
-7 6 2 8.29 1.61
-7 6 2 6.17 1.64
-7 6 2 9.14 1.11
6 -6 -2 9.83 1.43
-6 6 2 10.33 1.1
-6 6 2 12.1 1.85
-6 6 2 10.7 2.43
5 -6 -2 98.98 6.47
5 -6 -2 97.57 5.99
5 -6 -2 92.99 7.08
-5 6 2 93.31 6.54
-5 6 2 93.95 6.69
-5 6 2 102.31 6.03
-5 6 2 91.23 6.88
4 -6 -2 2.16 0.61
4 -6 -2 1.53 0.33
4 -6 -2 2.93 0.73
4 -6 -2 2.15 0.99
-4 6 2 2.07 0.74
-4 6 2 1.8 0.68
-4 6 2 1.56 0.39
-4 6 2 1.28 0.76
3 -6 -2 26.74 2.18
3 -6 -2 26.1 2.58
3 -6 -2 27.86 2.19
3 -6 -2 25.9 1.97
-3 6 2 26.97 2.38
-3 6 2 26.52 2.25
-3 6 2 29.43 2.61
2 -6 -2 5.75 0.98
2 -6 -2 4.97 1.16
2 -6 -2 5.28 0.92
-2 6 2 2.85 0.87
-2 6 2 5.71 0.96
-2 6 2 4.61 0.91
1 -6 -2 94.44 6.3
1 -6 -2 101.39 6.48
1 -6 -2 93.78 6.08
1 -6 -2 93.5 6.56
-1 6 2 102.99 6.42
-1 6 2 104.61 6.56
-1 6 2 89.19 6.25
0 -6 -2 6.92 1.32
0 -6 -2 10.23 1.4
0 -6 -2 9.45 1.29
0 6 2 8.91 1.12
0 6 2 8.51 1.16
0 6 2 7.35 1.18
-1 -6 -2 -0.39 0.41
-1 -6 -2 -0.21 0.6
-1 -6 -2 0.16 0.37
1 6 2 0.26 0.23
1 6 2 -0.04 0.46
1 6 2 1.23 0.51
1 6 2 0.72 0.52
-2 -6 -2 21.27 2.5
-2 -6 -2 16.72 2.12
2 6 2 20.23 2.14
-3 -6 -2 24.48 2.86
-3 -6 -2 23.96 3.03
3 6 2 30.65 2.49
3 6 2 25.3 2.72
-4 -6 -2 5.04 1.52
-4 -6 -2 10.67 2.22
4 6 2 7.72 1.35
4 6 2 7.19 1.64
4 6 2 5.95 1.54
-5 -6 -2 -0.29 0.88
-5 -6 -2 -0.06 1.34
5 6 2 2.28 1.1
5 6 2 0.62 0.92
5 6 2 0.92 0.8
9 -7 -2 13.74 2.07
9 -7 -2 8.94 1.66
-9 7 2 13.3 1.54
-9 7 2 8.4 1.95
-9 7 2 16.89 2.61
8 -7 -2 3.07 1.05
8 -7 -2 4.44 1.08
-8 7 2 4.9 1.51
-8 7 2 3.52 0.8
-8 7 2 2.88 1.12
7 -7 -2 52.12 3.65
7 -7 -2 55.5 4.07
7 -7 -2 54.5 4.22
-7 7 2 48.97 4.26
-7 7 2 46.18 4.66
-7 7 2 56.16 3.63
6 -7 -2 5.06 0.79
6 -7 -2 5.53 1.19
-6 7 2 4.95 0.71
-6 7 2 5.52 1.28
-6 7 2 2.06 1.8
5 -7 -2 2.98 0.84
5 -7 -2 1.79 0.65
5 -7 -2 2.12 0.47
-5 7 2 2.15 0.8
-5 7 2 2.89 0.54
-5 7 2 2.98 1.1
4 -7 -2 2.32 1.04
4 -7 -2 1.78 0.64
4 -7 -2 1.81 0.66
-4 7 2 2.3 1
-4 7 2 1.3 0.72
-4 7 2 1.36 0.7
3 -7 -2 13.22 1.46
3 -7 -2 12.41 1.44
3 -7 -2 12.25 1.12
3 -7 -2 13.63 2.18
-3 7 2 12.87 1.59
-3 7 2 12.55 1.48
-3 7 2 12.84 1.78
2 -7 -2 31.76 3.11
2 -7 -2 33.17 2.38
2 -7 -2 34.03 2.72
2 -7 -2 35.24 2.84
-2 7 2 33.27 3.06
-2 7 2 34.4 2.85
-2 7 2 36.43 2.75
1 -7 -2 46.41 3.57
1 -7 -2 46.13 3.75
1 -7 -2 49.1 3.89
-1 7 2 45.66 3.56
-1 7 2 51.41 3.86
-1 7 2 50.56 4.1
0 -7 -2 0.95 0.85
0 -7 -2 1.18 0.71
0 7 2 0.84 0.52
0 7 2 1.17 0.67
-1 -7 -2 18.83 2.15
1 7 2 17.36 1.99
1 7 2 18.98 1.93
-2 -7 -2 51.63 4.45
-2 -7 -2 39 3.92
2 7 2 48.28 3.63
2 7 2 47.84 3.05
-3 -7 -2 10.74 2.25
-3 -7 -2 10.5 2.03
3 7 2 10.77 1.92
3 7 2 12.78 1.7
3 7 2 9.42 1.29
-4 -7 -2 0.07 1.1
-4 -7 -2 -1.27 1.02
4 7 2 -1.16 0.72
4 7 2 -0.94 0.77
8 -8 -2 1.22 0.85
8 -8 -2 0.39 0.47
-8 8 2 -1.17 0.95
-8 8 2 0.75 0.45
-8 8 2 2.88 1.2
7 -8 -2 3.96 0.71
7 -8 -2 4.81 1.22
7 -8 -2 3.78 0.94
-7 8 2 1.91 1.33
-7 8 2 5.05 1.35
-7 8 2 3.62 0.64
6 -8 -2 41.76 2.9
6 -8 -2 44.99 3.55
6 -8 -2 45.59 3.48
-6 8 2 43.26 4.31
-6 8 2 44.09 3.65
5 -8 -2 -0.57 0.44
5 -8 -2 1.08 0.69
-5 8 2 -0.16 0.5
-5 8 2 0.13 0.64
4 -8 -2 16.78 1.8
4 -8 -2 15.02 1.69
-4 8 2 12.46 2.05
3 -8 -2 36.34 2.93
3 -8 -2 37.55 3.03
-3 8 2 35.43 2.9
-3 8 2 31.6 3.27
2 -8 -2 42.51 2.9
2 -8 -2 42.4 3.36
2 -8 -2 48.17 3.61
-2 8 2 36.56 3.63
1 -8 -2 6.16 1.34
1 -8 -2 5.65 1.21
-1 8 2 6.95 1.29
-1 8 2 7.71 1.55
0 -8 -2 2.36 0.86
0 -8 -2 3 1.11
0 8 2 4.15 1.15
-1 -8 -2 22.19 2.79
-1 -8 -2 26.07 2.7
1 8 2 23.72 2.53
1 8 2 25.74 2.47
-2 -8 -2 14 2.53
-2 -8 -2 14.31 2.04
2 8 2 8.77 1.08
2 8 2 9.72 1.79
7 -9 -2 4.01 0.7
7 -9 -2 3.63 1.36
7 -9 -2 6.21 1.57
-7 9 2 6.83 1.95
-7 9 2 8.31 1.64
6 -9 -2 1.98 0.83
6 -9 -2 1.52 0.76
-6 9 2 1.23 0.87
-6 9 2 -0.77 1.24
5 -9 -2 5.3 1.17
5 -9 -2 8.92 1.47
-5 9 2 5.16 1.2
-5 9 2 11.63 2.33
4 -9 -2 12.17 1.68
-4 9 2 11.83 1.58
-4 9 2 10.13 2.04
3 -9 -2 17.14 1.99
3 -9 -2 12.75 1.78
-3 9 2 16.94 2.31
-3 9 2 14.01 1.79
2 -9 -2 8.12 1.42
2 -9 -2 5.9 1.43
-2 9 2 7.97 1.8
-2 9 2 5.99 1.22
1 -9 -2 7.36 1.56
1 -9 -2 10.66 1.92
-1 9 2 9.19 1.67
0 -9 -2 15.16 2.12
0 -9 -2 10.5 2.24
0 9 2 21.78 2.23
0 9 2 16.72 2.08
1 9 2 10.66 2.02
1 9 2 7.93 1.57
5 -10 -2 10.79 1.79
-5 10 2 12.89 2.64
-5 10 2 14.63 1.79
4 -10 -2 11.76 1.84
4 -10 -2 10.38 1.88
-4 10 2 11.94 1.72
-4 10 2 13.33 3.68
3 -10 -2 0.75 0.74
3 -10 -2 0.04 0.8
-3 10 2 0.17 0.58
-3 10 2 2.41 1.48
2 -10 -2 5.04 1.6
-2 10 2 4.24 1.16
-2 10 2 7.9 1.6
-1 11 -3 18.64 2.2
1 -11 3 15.91 2.16
-2 11 -3 1.74 0.93
2 -11 3 2.72 0.95
-3 11 -3 0.26 0.68
3 -11 3 0.2 0.64
-4 11 -3 0.76 0.72
4 -11 3 0.36 0.63
5 -11 3 6.92 1.32
1 10 -3 5.47 1.28
-1 -10 3 5.12 1.3
-1 -10 3 5.28 0.93
0 10 -3 3.83 1.04
-1 10 -3 9.53 1.46
-1 10 -3 11.86 1.25
1 -10 3 10.97 1.77
1 -10 3 11.46 1.99
1 -10 3 9.82 1.57
-2 10 -3 18.01 1.88
-2 10 -3 16.11 2.07
2 -10 3 12.21 1.74
2 -10 3 17.5 1.82
-3 10 -3 4.66 1.2
-3 10 -3 4.69 1.05
3 -10 3 4.39 1.05
3 -10 3 8.14 1.29
-4 10 -3 20.56 2.52
-4 10 -3 20.05 2.15
4 -10 3 19.31 2.53
4 -10 3 15.43 1.84
4 -10 3 19.47 1.93
-5 10 -3 9.97 2
-5 10 -3 9.74 1.67
5 -10 3 8.88 1.13
5 -10 3 10.2 1.44
5 -10 3 8.14 1.79
-6 10 -3 4.87 1.34
6 -10 3 5.58 0.94
6 -10 3 4.32 0.97
-7 10 -3 3.57 1.58
7 -10 3 3.16 0.8
7 -10 3 3.81 0.86
3 9 -3 2.91 1.73
-3 -9 3 0.8 0.91
-3 -9 3 2.65 1.16
2 9 -3 0.38 0.59
2 9 -3 0.51 0.73
-2 -9 3 1.01 0.93
-2 -9 3 1.2 0.76
-1 -9 3 16.66 1.65
-1 -9 3 13.85 1.87
-1 -9 3 13.7 1.88
0 9 -3 43.68 3.42
0 9 -3 40.36 2.97
0 9 -3 45.04 3.33
0 -9 3 41.39 3.42
0 -9 3 38.54 2.76
0 -9 3 41.87 3.53
0 -9 3 44.36 2.84
0 -9 3 40.08 3.47
-1 9 -3 1.71 0.77
-1 9 -3 1.72 0.67
1 -9 3 1.69 0.67
1 -9 3 1.21 0.65
-2 9 -3 -0.29 0.48
-2 9 -3 -0.2 0.41
2 -9 3 0.21 0.65
2 -9 3 0.58 0.49
2 -9 3 0.48 0.5
-3 9 -3 17.17 2.25
3 -9 3 17.31 1.69
3 -9 3 15.93 1.73
-4 9 -3 24.32 2.42
-4 9 -3 26.45 2.74
4 -9 3 25.52 1.95
4 -9 3 25.63 2.18
4 -9 3 20.93 2.65
4 -9 3 26.83 2.23
-5 9 -3 3.26 1.09
-5 9 -3 3.48 1.16
5 -9 3 4.8 0.96
5 -9 3 3.37 0.71
5 -9 3 4.19 0.88
5 -9 3 5.31 1.35
-6 9 -3 2.37 1.12
-6 9 -3 1.46 0.83
6 -9 3 2.86 1.07
6 -9 3 0.38 0.43
6 -9 3 1.25 0.6
-7 9 -3 6.19 1.67
-7 9 -3 2.17 1.12
7 -9 3 3.92 0.86
7 -9 3 6.97 1.53
7 -9 3 5.55 0.96
-8 9 -3 22.89 2.79
8 -9 3 17.29 1.85
8 -9 3 20.31 1.96
4 8 -3 8.19 1.75
-4 -8 3 7.41 1.67
-4 -8 3 8.77 1.79
3 8 -3 -0.44 0.55
3 8 -3 0.01 0.58
-3 -8 3 -0.5 0.65
-3 -8 3 -0.09 0.66
-3 -8 3 0.54 0.63
2 8 -3 22.53 2.26
2 8 -3 22.86 2.02
2 8 -3 23.67 2.04
-2 -8 3 21.71 2.18
-2 -8 3 19.33 2.32
-2 -8 3 20.63 2.13
-2 -8 3 18.46 2.27
1 8 -3 25.64 2.23
1 8 -3 32.48 2.78
-1 -8 3 29.94 2.78
-1 -8 3 34.66 2.79
-1 -8 3 26.58 2.38
-1 -8 3 28.15 2.64
0 8 -3 24.84 2.08
0 8 -3 25.7 2.17
0 8 -3 22.84 2
0 8 -3 21.64 1.77
0 -8 3 21.75 2.22
0 -8 3 19.07 2.02
0 -8 3 23.12 2.27
0 -8 3 23.17 1.77
-1 8 -3 -0.42 0.41
-1 8 -3 -0.08 0.4
-1 8 -3 -0.49 0.3
1 -8 3 -0.18 0.5
1 -8 3 -0.13 0.45
1 -8 3 -0.05 0.38
-2 8 -3 35.81 3.1
-2 8 -3 38.52 2.98
-2 8 -3 36.32 2.87
-2 8 -3 37.34 2.78
2 -8 3 37.86 2.79
2 -8 3 34.05 3.13
2 -8 3 39.04 2.91
-3 8 -3 16.46 1.82
-3 8 -3 21.32 2.2
-3 8 -3 17.83 1.84
3 -8 3 20.53 1.53
3 -8 3 20.48 1.75
3 -8 3 16.8 2.07
3 -8 3 17.02 1.67
-4 8 -3 31.26 2.68
-4 8 -3 30.2 2.65
-4 8 -3 28.22 2.79
4 -8 3 28.56 2.3
4 -8 3 26.1 2.3
4 -8 3 30.62 2.15
-5 8 -3 0.82 0.63
-5 8 -3 1.02 0.68
5 -8 3 0.36 0.53
5 -8 3 0.72 0.43
5 -8 3 0.48 0.47
-6 8 -3 14.22 2.16
-6 8 -3 17.93 2.28
6 -8 3 22.01 1.8
6 -8 3 20.4 2.99
6 -8 3 21.13 2.05
-7 8 -3 6.29 1.58
7 -8 3 5.95 1.5
7 -8 3 7.77 1.06
7 -8 3 6.87 1.11
7 -8 3 5.51 1.29
-8 8 -3 8.36 1.03
-8 8 -3 7.54 2.02
-8 8 -3 9.55 2.1
8 -8 3 8.11 1.42
8 -8 3 8 2.08
5 7 -3 2.79 1.27
5 7 -3 3.51 1.35
-5 -7 3 7.04 1.65
-5 -7 3 2.76 1.03
4 7 -3 0.38 0.59
4 7 -3 0.72 0.65
-4 -7 3 1.76 0.61
-4 -7 3 -0.04 0.61
-4 -7 3 0.05 0.65
3 7 -3 24.38 2.1
-3 -7 3 19.33 1.95
-3 -7 3 22.44 2.46
-3 -7 3 22.86 2.43
-3 -7 3 19.65 2.31
2 7 -3 35.94 2.88
-2 -7 3 27.3 2.83
-2 -7 3 34.89 3.11
-2 -7 3 35.9 2.94
-2 -7 3 32.99 2.67
1 7 -3 19 2.18
1 7 -3 21.88 1.95
1 7 -3 22.65 1.7
1 7 -3 21.27 1.88
-1 -7 3 19.66 2.03
-1 -7 3 27.42 2.34
-1 -7 3 21.89 1.99
-1 -7 3 22.03 1.95
0 7 -3 0.18 0.24
0 7 -3 -0.25 0.3
0 7 -3 0.2 0.44
0 7 -3 -0.02 0.39
0 -7 3 -0.21 0.3
0 -7 3 -0.38 0.35
0 -7 3 0.19 0.26
0 -7 3 0.72 0.48
-1 7 -3 2.55 0.64
-1 7 -3 3.52 0.7
-1 7 -3 2.28 0.54
-1 7 -3 3.11 0.76
1 -7 3 3.28 0.78
1 -7 3 2.86 0.67
-2 7 -3 81.97 4.93
-2 7 -3 67.02 4.71
-2 7 -3 59.56 4.74
2 -7 3 72.79 4.7
2 -7 3 77.14 4.56
2 -7 3 73.47 4.77
-3 7 -3 37.5 2.96
-3 7 -3 36.86 3.07
3 -7 3 40.17 2.71
3 -7 3 39.74 3.18
3 -7 3 33.73 2.51
3 -7 3 37.39 2.71
-4 7 -3 2.57 0.77
-4 7 -3 2.36 0.8
-4 7 -3 2.25 0.7
4 -7 3 1.79 0.47
4 -7 3 2.47 0.79
4 -7 3 2.54 0.6
4 -7 3 2.85 0.72
-5 7 -3 5.68 1.31
-5 7 -3 6.11 1.31
-5 7 -3 5.95 1.13
5 -7 3 5.01 1.25
5 -7 3 4.22 0.95
5 -7 3 5.03 0.83
5 -7 3 5.26 0.83
-6 7 -3 40.39 3.67
-6 7 -3 45.66 4.27
-6 7 -3 38.63 2.76
6 -7 3 38.05 3.25
6 -7 3 42.06 3.01
6 -7 3 41.51 3.65
-7 7 -3 12 2.19
-7 7 -3 9.45 1.15
-7 7 -3 11.78 1.85
7 -7 3 9.62 1.25
7 -7 3 11.35 1.96
7 -7 3 8.14 1.2
7 -7 3 10.37 1.56
-8 7 -3 2 0.75
-8 7 -3 1.55 1.04
-8 7 -3 2.66 1.01
8 -7 3 0.62 0.57
8 -7 3 1.24 0.86
8 -7 3 0.68 0.55
-9 7 -3 1.32 0.88
-9 7 -3 0.1 0.49
9 -7 3 0.96 0.66
6 6 -3 18.41 2.55
6 6 -3 12.68 1.78
6 6 -3 11.85 2.51
-6 -6 3 10.56 2.23
-6 -6 3 13.08 2.37
5 6 -3 -0.15 0.65
-5 -6 3 1.22 0.69
-5 -6 3 -0.08 0.58
-5 -6 3 0.33 0.55
4 6 -3 8.69 1.59
4 6 -3 4.39 1.1
-4 -6 3 6.04 1.43
-4 -6 3 5.38 0.96
-4 -6 3 5.17 1.22
-4 -6 3 8.2 1.68
3 6 -3 34.06 2.87
3 6 -3 36.7 2.78
-3 -6 3 39.28 3.35
-3 -6 3 37.27 3.23
-3 -6 3 35.64 2.73
-3 -6 3 34.98 3.18
2 6 -3 39.38 2.77
2 6 -3 36.49 2.76
2 6 -3 32.42 2.76
2 6 -3 33.49 2.6
-2 -6 3 32.28 2.89
-2 -6 3 38.86 3.12
-2 -6 3 35.24 2.93
1 6 -3 9.4 1.06
1 6 -3 9.51 1.1
1 6 -3 9.57 0.91
-1 -6 3 8.12 1.07
-1 -6 3 12.01 1.35
-1 -6 3 9.15 1.14
-1 -6 3 5.9 1.44
0 6 -3 15.3 1.26
0 6 -3 15.68 1.37
0 6 -3 15.3 1.39
0 6 -3 16.09 1.39
0 -6 3 13.14 1.24
0 -6 3 17.59 1.46
0 -6 3 14.94 1.48
-1 6 -3 93.24 5.83
-1 6 -3 87.92 5.9
-1 6 -3 83.38 5.71
-1 6 -3 92.89 5.81
1 -6 3 91.54 5.75
1 -6 3 97.47 5.89
1 -6 3 94.07 6.03
-2 6 -3 46.49 3.45
-2 6 -3 50.54 3.35
-2 6 -3 52.62 3.45
-2 6 -3 42.23 3.22
2 -6 3 44.23 3.49
2 -6 3 49.65 3.1
2 -6 3 49.11 3.23
2 -6 3 48.61 3.21
-3 6 -3 10.61 1.23
-3 6 -3 9.35 1.29
-3 6 -3 13.16 1.42
3 -6 3 15.6 1.57
3 -6 3 12.06 1.04
3 -6 3 12.17 1.08
3 -6 3 12.15 1.2
-4 6 -3 9.56 1.33
-4 6 -3 10.5 1.4
-4 6 -3 10.04 1.23
4 -6 3 11.43 1.07
4 -6 3 10.58 1.21
4 -6 3 9.71 1.41
4 -6 3 11.37 1.04
-5 6 -3 17.24 1.97
-5 6 -3 13.79 1.82
-5 6 -3 14.88 1.71
-5 6 -3 17.8 1.41
5 -6 3 17.04 1.91
5 -6 3 16.41 1.7
5 -6 3 15.54 1.45
-6 6 -3 27.43 2.73
-6 6 -3 32.43 3
-6 6 -3 28.65 2.97
-6 6 -3 29.35 2.4
6 -6 3 32.65 2.41
6 -6 3 28.38 2.36
6 -6 3 29.33 2.68
-7 6 -3 40.5 3.76
-7 6 -3 35.28 3
-7 6 -3 33.56 3.44
7 -6 3 35.38 2.86
7 -6 3 37.98 3.28
7 -6 3 37.81 3.45
-8 6 -3 4.59 1.4
-8 6 -3 3.11 0.99
-8 6 -3 2.69 1.12
8 -6 3 1.64 0.81
8 -6 3 3.06 0.87
-9 6 -3 19.53 2.73
-9 6 -3 17.85 3.62
-9 6 -3 19.57 2.36
9 -6 3 20.87 2.17
7 5 -3 2.46 1.24
7 5 -3 2.01 1.34
-7 -5 3 3.84 1.35
-7 -5 3 3.32 1.49
6 5 -3 4.06 1.3
6 5 -3 3.23 0.94
6 5 -3 3.55 1.35
6 5 -3 2.87 0.98
-6 -5 3 3.28 1.2
-6 -5 3 2.4 1.13
5 5 -3 1.17 0.71
5 5 -3 1.28 0.63
5 5 -3 2.11 0.92
-5 -5 3 4.77 1.36
-5 -5 3 1.55 0.69
-5 -5 3 2.73 1.06
4 5 -3 45.9 3.69
4 5 -3 52.35 3.95
4 5 -3 49.51 3.5
-4 -5 3 43.82 3.29
-4 -5 3 44.94 3.98
-4 -5 3 49.17 4.06
3 5 -3 39.1 3.01
3 5 -3 34.82 2.67
3 5 -3 32.12 2.8
-3 -5 3 37.92 3.15
-3 -5 3 38.03 3.16
2 5 -3 42.07 2.7
2 5 -3 36.78 2.8
2 5 -3 30.45 2.7
-2 -5 3 37.31 3.02
-2 -5 3 39.48 2.66
-2 -5 3 36.57 2.97
-2 -5 3 38.63 2.94
1 5 -3 24.05 1.75
1 5 -3 22.29 1.58
1 5 -3 21 1.65
1 5 -3 21.49 1.74
-1 -5 3 22.05 1.72
-1 -5 3 20.03 1.85
-1 -5 3 20.38 1.95
-1 -5 3 21.29 1.81
0 5 -3 65.74 4.28
0 5 -3 67.3 4.3
0 5 -3 69.06 4.29
0 -5 3 63.16 4.36
0 -5 3 65.18 4.4
0 -5 3 70.57 4.32
-1 5 -3 60.05 4.34
-1 5 -3 61.78 4.34
-1 5 -3 81.02 4.51
-1 5 -3 68.66 4.48
1 -5 3 68.63 4.34
1 -5 3 73.22 4.57
1 -5 3 72.1 4.42
1 -5 3 68.3 4.3
-2 5 -3 24.39 1.97
-2 5 -3 25.88 1.99
-2 5 -3 25.38 1.85
2 -5 3 20.84 1.7
2 -5 3 22.6 1.96
2 -5 3 25.17 1.71
2 -5 3 26.83 1.8
-3 5 -3 4.71 0.8
-3 5 -3 4.39 0.9
-3 5 -3 5.65 1.01
3 -5 3 5.37 0.62
3 -5 3 3.94 0.83
3 -5 3 5.05 0.73
3 -5 3 4.7 0.61
-4 5 -3 48.13 3.61
-4 5 -3 43.92 3.67
-4 5 -3 55.45 3.93
4 -5 3 48.58 3.74
4 -5 3 49.29 3.36
4 -5 3 53.95 3.33
4 -5 3 50.2 3.58
-5 5 -3 104.86 7.24
-5 5 -3 101.67 7.05
5 -5 3 96.63 6.83
5 -5 3 110.57 6.55
5 -5 3 99.24 7
-6 5 -3 9.71 1.37
-6 5 -3 6.83 1.49
-6 5 -3 8.65 1.6
6 -5 3 7.76 1.1
6 -5 3 10.77 1.49
6 -5 3 7.12 1.35
-7 5 -3 0.47 0.63
-7 5 -3 0.3 0.62
7 -5 3 0.65 0.49
7 -5 3 -0.18 0.63
7 -5 3 0.34 0.48
-8 5 -3 13.56 2.44
-8 5 -3 11.21 2.26
8 -5 3 11.91 1.78
8 -5 3 10.93 1.55
-9 5 -3 14.72 2.06
-9 5 -3 14.44 2.66
9 -5 3 9.02 1.7
9 -5 3 13.7 2.15
7 4 -3 5.07 1.49
7 4 -3 3.17 0.98
7 4 -3 1.79 1.05
-7 -4 3 3.86 1.44
-7 -4 3 3.95 1.4
6 4 -3 -0.81 0.82
6 4 -3 1.14 0.79
6 4 -3 1.19 0.74
-6 -4 3 1.1 0.56
-6 -4 3 1.43 1.02
-6 -4 3 1.63 0.74
5 4 -3 36.38 3.37
5 4 -3 39.35 3.6
5 4 -3 46.94 3.28
5 4 -3 40.68 3.5
-5 -4 3 39.78 3.69
-5 -4 3 35.87 2.86
-5 -4 3 37.72 3.57
4 4 -3 63.54 4.87
4 4 -3 56.66 4.71
4 4 -3 72.71 4.92
4 4 -3 60.95 4.95
-4 -4 3 69.19 5.1
-4 -4 3 73.17 4.39
3 4 -3 1.64 0.59
3 4 -3 1.27 0.46
3 4 -3 1.29 0.53
-3 -4 3 0.86 0.52
-3 -4 3 1.42 0.55
-3 -4 3 1.51 0.65
-3 -4 3 1.22 0.48
2 4 -3 0.05 0.27
2 4 -3 0.13 0.3
2 4 -3 0.28 0.25
-2 -4 3 0.17 0.28
-2 -4 3 0.14 0.27
-2 -4 3 -0.06 0.3
-2 -4 3 0.95 0.42
1 4 -3 7.88 0.79
1 4 -3 7.9 0.73
1 4 -3 7.01 0.74
1 4 -3 6.74 0.8
-1 -4 3 8.91 0.8
-1 -4 3 7.36 0.84
-1 -4 3 7.6 0.87
-1 -4 3 7.3 0.88
0 4 -3 165.9 9.85
0 4 -3 153.69 9.78
0 4 -3 166.45 9.82
0 4 -3 174.67 9.84
0 -4 3 160.74 9.88
0 -4 3 159.64 9.82
0 -4 3 168.48 9.83
0 -4 3 160.86 9.86
-1 4 -3 116.59 7.8
-1 4 -3 126.05 7.9
-1 4 -3 129.64 8.02
-1 4 -3 135.57 8.01
-1 4 -3 138.18 7.97
1 -4 3 136.03 7.9
1 -4 3 135.12 7.87
1 -4 3 143.91 7.89
1 -4 3 131.19 7.77
1 -4 3 121.85 7.99
-2 4 -3 0.08 0.25
-2 4 -3 0.09 0.17
-2 4 -3 0.12 0.1
-2 4 -3 0.06 0.24
2 -4 3 0.14 0.18
2 -4 3 0.05 0.18
2 -4 3 0.26 0.2
2 -4 3 0.54 0.29
-3 4 -3 81.31 5.75
-3 4 -3 88.46 5.91
-3 4 -3 83.16 5.64
3 -4 3 94.99 5.82
3 -4 3 90.89 5.7
3 -4 3 88.32 5.52
3 -4 3 92.05 5.44
-4 4 -3 80.7 5.72
-4 4 -3 91.07 5.98
-4 4 -3 79.07 5.61
4 -4 3 87.44 5.56
4 -4 3 84.67 5.64
4 -4 3 84.91 5.72
-5 4 -3 44.26 3.42
-5 4 -3 42.75 3.66
-5 4 -3 44.35 3.51
5 -4 3 42.46 3.13
5 -4 3 44.75 3.44
5 -4 3 41.78 3.42
-6 4 -3 0.06 0.49
-6 4 -3 -0.68 0.84
6 -4 3 1.14 0.54
6 -4 3 -0.28 0.39
6 -4 3 0.24 0.51
-7 4 -3 27.08 3.57
-7 4 -3 24.57 2.69
7 -4 3 25.55 2.34
7 -4 3 21.78 2.5
7 -4 3 22.86 2.46
-8 4 -3 10.62 2.23
8 -4 3 11.47 1.79
8 -4 3 13.89 1.78
-9 4 -3 7.58 1.65
-9 4 -3 11.12 2.32
9 -4 3 10.02 1.77
9 -4 3 8.2 1.68
9 -4 3 8.57 1.83
8 3 -3 1.92 1.27
8 3 -3 3.96 1.27
-8 -3 3 4.87 1.79
-8 -3 3 3.17 1.17
7 3 -3 0.04 0.54
7 3 -3 1.22 0.72
7 3 -3 1.15 0.8
-7 -3 3 1.62 1.02
-7 -3 3 -0.04 0.62
6 3 -3 15.47 1.84
6 3 -3 14.54 1.96
-6 -3 3 13.97 2.11
-6 -3 3 15.62 2.1
5 3 -3 24.48 2.52
5 3 -3 25.3 1.97
5 3 -3 25.73 2.47
5 3 -3 26.25 2.32
-5 -3 3 27.99 2.7
-5 -3 3 23.74 2.62
-5 -3 3 24.28 2.03
4 3 -3 42.07 3.46
4 3 -3 43.79 3.35
4 3 -3 43.84 3.22
4 3 -3 42.44 3.44
-4 -3 3 42.26 3.57
-4 -3 3 44.45 3.55
-4 -3 3 43.91 2.98
3 3 -3 50.74 3.86
3 3 -3 54.97 3.68
3 3 -3 51.51 3.73
-3 -3 3 49.21 3.94
-3 -3 3 54.43 3.48
-3 -3 3 64.36 4.07
2 3 -3 148.02 10.04
2 3 -3 176.52 9.9
2 3 -3 168.01 9.95
-2 -3 3 163.61 9.76
-2 -3 3 173.93 10.24
-2 -3 3 149.95 10.06
1 3 -3 201.94 12.7
1 3 -3 197.68 12.57
1 3 -3 225.47 12.58
-1 -3 3 211.21 12.69
-1 -3 3 207.34 12.54
-1 -3 3 217.27 12.81
-1 -3 3 223.96 12.69
0 3 -3 111.79 6.27
0 3 -3 105.32 6.28
0 3 -3 97.15 6.28
0 3 -3 99.31 6.36
0 -3 3 107.18 6.29
0 -3 3 107.54 6.31
0 -3 3 102.9 6.26
-1 3 -3 1.92 0.37
-1 3 -3 1.93 0.28
-1 3 -3 1.61 0.24
-1 3 -3 1.89 0.34
-1 3 -3 1.62 0.38
1 -3 3 1.8 0.3
1 -3 3 2.26 0.31
1 -3 3 1.68 0.3
-2 3 -3 87.51 5.33
-2 3 -3 88.96 5.45
-2 3 -3 87.15 5.56
-2 3 -3 88.8 5.66
2 -3 3 90.66 5.51
2 -3 3 86.07 5.4
-3 3 -3 102.23 6.43
-3 3 -3 99.04 6.26
-3 3 -3 88.8 6.12
3 -3 3 103.14 6.23
3 -3 3 88.96 6.16
3 -3 3 99.57 5.97
-4 3 -3 52.72 3.76
-4 3 -3 48.05 3.86
-4 3 -3 50.03 3.66
4 -3 3 49.62 3.67
4 -3 3 52.52 3.72
-5 3 -3 2.95 0.85
-5 3 -3 3.55 1.02
-5 3 -3 4.5 0.95
5 -3 3 4.71 0.87
5 -3 3 2.9 0.84
5 -3 3 3.61 0.88
-6 3 -3 1.01 0.91
-6 3 -3 3.06 1.05
6 -3 3 3.09 0.78
6 -3 3 1.92 0.68
-7 3 -3 43.55 4.09
7 -3 3 38.81 3.5
7 -3 3 47.23 3.55
7 -3 3 33.86 3.34
7 -3 3 42.6 3.72
-8 3 -3 23.85 2.8
-8 3 -3 18.7 2.47
8 -3 3 19.84 2.19
8 -3 3 18.39 2.33
8 -3 3 12.44 1.95
-9 3 -3 2.47 1.22
9 -3 3 2.09 0.92
9 -3 3 1.79 0.93
9 -3 3 0.89 0.97
8 2 -3 -0.36 0.7
8 2 -3 -0.27 0.59
8 2 -3 -0.5 0.91
-8 -2 3 -0.8 0.49
-8 -2 3 0.15 0.8
7 2 -3 1.05 0.69
7 2 -3 0.75 0.63
7 2 -3 1.5 0.82
-7 -2 3 0.6 0.81
-7 -2 3 0.62 0.8
-7 -2 3 0.21 0.49
6 2 -3 68.14 5.52
6 2 -3 69.42 5.28
6 2 -3 69.77 5.42
-6 -2 3 87.08 5.88
-6 -2 3 74.61 4.99
-6 -2 3 71.23 5.73
5 2 -3 65.12 4.81
5 2 -3 67.08 4.87
5 2 -3 62.46 4.58
5 2 -3 63.47 4.66
-5 -2 3 57.43 4.75
-5 -2 3 65.01 4.3
-5 -2 3 61.88 4.91
4 2 -3 0.18 0.34
4 2 -3 0.06 0.28
4 2 -3 0.16 0.38
4 2 -3 0.68 0.45
-4 -2 3 0.66 0.43
-4 -2 3 0.78 0.53
-4 -2 3 0.58 0.37
3 2 -3 18.29 1.58
3 2 -3 18.96 1.58
3 2 -3 19 1.69
3 2 -3 20.19 1.79
-3 -2 3 17.37 1.75
-3 -2 3 18.5 1.7
-3 -2 3 17.86 1.39
2 2 -3 216.53 12.06
2 2 -3 193.96 12.19
2 2 -3 196.62 12
-2 -2 3 189.69 12.09
-2 -2 3 201.4 12.27
-2 -2 3 204.3 11.86
1 2 -3 203.65 11.49
1 2 -3 197.55 11.76
1 2 -3 187.16 11.5
-1 -2 3 202.26 11.57
-1 -2 3 183.53 11.7
0 2 -3 7.09 0.54
0 2 -3 5.75 0.55
0 -2 3 5.63 0.53
0 -2 3 6.07 0.52
-1 2 -3 11.93 0.86
-1 2 -3 11.96 0.8
-1 2 -3 11.66 0.9
-1 2 -3 11.52 0.9
1 -2 3 12.63 0.89
1 -2 3 11.17 0.87
-2 2 -3 90.88 4.97
-2 2 -3 78.74 4.99
-2 2 -3 78.25 5.04
2 -2 3 76.31 4.86
2 -2 3 71.92 4.94
2 -2 3 76.23 4.78
-3 2 -3 104.76 7.08
-3 2 -3 107.17 6.91
-3 2 -3 122.74 7.07
3 -2 3 107.3 6.98
3 -2 3 108.79 6.9
3 -2 3 106.2 6.79
-4 2 -3 40.26 3.25
-4 2 -3 40.47 3.01
4 -2 3 38.11 2.98
4 -2 3 38.59 3.07
4 -2 3 40.99 2.93
-5 2 -3 7.76 1.11
-5 2 -3 7.2 1.41
5 -2 3 6.7 1.12
5 -2 3 6.41 1.22
5 -2 3 7.83 1.15
5 -2 3 5.5 1.08
-6 2 -3 54.73 4.07
-6 2 -3 50.63 4.32
-6 2 -3 48.47 3.81
6 -2 3 49.07 4.48
6 -2 3 48.79 3.85
6 -2 3 52.7 3.88
6 -2 3 38.98 3.99
-7 2 -3 19.46 2.56
7 -2 3 21.05 2.23
7 -2 3 18.32 2.15
7 -2 3 21.71 2.25
7 -2 3 21.1 2.41
-8 2 -3 5.69 1.59
8 -2 3 4.51 1.31
8 -2 3 6.13 1.35
8 -2 3 5.28 1.3
-9 2 -3 -0.4 0.77
9 -2 3 -0.3 0.7
9 -2 3 0.01 0.78
9 -2 3 2.16 0.84
9 1 -3 5.26 1.49
9 1 -3 7.01 1.74
9 1 -3 6.33 1.48
-9 -1 3 4.66 1.47
-9 -1 3 2.89 1.51
8 1 -3 3.98 1.15
8 1 -3 4.95 1.31
8 1 -3 4.2 1.3
-8 -1 3 4.18 1.28
-8 -1 3 4.14 1.47
7 1 -3 43.87 3.77
7 1 -3 42.8 3.84
7 1 -3 39.26 3.82
-7 -1 3 46.48 4.2
-7 -1 3 43.87 3.41
-7 -1 3 49.63 4.15
6 1 -3 59.69 4.72
6 1 -3 53.83 4.46
-6 -1 3 58.56 4.4
-6 -1 3 58.62 4.78
-6 -1 3 62.06 4.75
5 1 -3 1.82 0.63
5 1 -3 4.01 0.93
5 1 -3 4.19 1
5 1 -3 3.5 0.92
-5 -1 3 3.75 0.97
-5 -1 3 2.9 0.66
-5 -1 3 2.9 0.91
4 1 -3 30.17 2.41
4 1 -3 30.11 2.42
4 1 -3 29.08 2.57
4 1 -3 28.93 2.48
-4 -1 3 31.28 2.61
-4 -1 3 30.03 2.22
-4 -1 3 28.69 2.54
3 1 -3 169.2 10.96
3 1 -3 176.39 10.9
3 1 -3 195.5 10.85
-3 -1 3 174.44 10.97
-3 -1 3 178.94 10.62
-3 -1 3 162.68 10.82
2 1 -3 5.72 0.74
2 1 -3 6.09 0.7
2 1 -3 6.02 0.64
2 1 -3 7.49 0.79
-2 -1 3 6.15 0.76
-2 -1 3 6.13 0.56
-2 -1 3 6.21 0.67
1 1 -3 107.07 6.53
-1 -1 3 111.06 6.54
0 1 -3 2.7 0.34
0 1 -3 2.96 0.3
0 -1 3 2.18 0.34
0 -1 3 3.4 0.31
-1 1 -3 223.94 13.22
-1 1 -3 209.43 13.22
-1 1 -3 240.92 13.4
1 -1 3 233.84 13.22
1 -1 3 212.23 13.21
1 -1 3 223.11 13.28
-2 1 -3 172.02 10.11
-2 1 -3 148.25 9.98
2 -1 3 169.29 9.94
2 -1 3 174.42 10.11
2 -1 3 162.92 9.96
-3 1 -3 89.99 5.81
-3 1 -3 88.79 5.99
3 -1 3 91.17 5.93
3 -1 3 102.07 5.84
3 -1 3 80.94 5.75
3 -1 3 89.4 5.8
-4 1 -3 16.52 1.58
-4 1 -3 17.56 1.69
-4 1 -3 15.23 1.74
4 -1 3 15.09 1.65
4 -1 3 17.61 1.64
4 -1 3 17.47 1.79
4 -1 3 15.27 1.55
-5 1 -3 39.81 3.45
-5 1 -3 40.37 3.13
5 -1 3 37.19 3.05
5 -1 3 35.5 3.15
5 -1 3 35.64 3.01
5 -1 3 39.38 3.11
-6 1 -3 36.38 3.08
-6 1 -3 39.05 3.63
6 -1 3 36.59 3.18
6 -1 3 38.82 3.2
6 -1 3 35.44 3.1
-7 1 -3 17.61 2.41
7 -1 3 16.23 1.99
7 -1 3 16.18 1.95
7 -1 3 14.08 2.01
-8 1 -3 2.54 1.11
8 -1 3 1.41 0.94
8 -1 3 1.96 0.95
8 -1 3 2.6 1.02
-9 1 -3 12.64 2.65
9 -1 3 8.03 2
9 -1 3 8.78 1.78
9 0 -3 7.76 1.76
9 0 -3 5.77 1.63
9 0 -3 7.59 1.54
-9 0 3 7.91 1.83
-9 0 3 7.6 2.1
8 0 -3 18.11 2.3
8 0 -3 17.12 2.26
8 0 -3 15.09 2.11
-8 0 3 16.55 2.39
-8 0 3 17.04 2.37
7 0 -3 34.68 3.39
7 0 -3 39.34 3.38
-7 0 3 34.07 3.45
-7 0 3 39.22 3.09
6 0 -3 1.67 0.71
6 0 -3 1.68 0.76
6 0 -3 2.1 0.72
-6 0 3 1.42 0.56
-6 0 3 1.52 0.77
-6 0 3 3.16 0.97
5 0 -3 0.59 0.42
5 0 -3 0.55 0.43
5 0 -3 0.62 0.49
-5 0 3 0.7 0.38
-5 0 3 0.63 0.47
-5 0 3 0.29 0.46
-5 0 3 0.27 0.35
4 0 -3 36.07 2.79
4 0 -3 30.79 2.55
4 0 -3 30.02 2.49
-4 0 3 31.42 2.6
-4 0 3 31.26 2.56
-4 0 3 31.37 2.37
3 0 -3 230.51 15.26
3 0 -3 243.34 15.19
3 0 -3 256.8 15.17
-3 0 3 249.18 15.15
-3 0 3 261.63 15.26
-3 0 3 264.98 15.07
2 0 -3 104.21 6.41
2 0 -3 106.72 6.36
2 0 -3 106.2 6.37
2 0 -3 100.77 6.44
-2 0 3 99.37 6.38
-2 0 3 107.75 6.42
-2 0 3 93.59 6.25
-2 0 3 105.59 6.28
1 0 -3 8.97 0.64
1 0 -3 7.11 0.62
1 0 -3 8.4 0.63
1 0 -3 6.92 0.73
-1 0 3 7.08 0.64
-1 0 3 6.48 0.65
-1 0 3 7.61 0.54
0 0 -3 200.82 10.49
0 0 -3 169.89 10.44
0 0 -3 165.68 10.44
0 0 -3 180.84 10.47
0 0 -3 170.36 10.79
0 0 -3 185.63 10.66
0 0 3 156.7 10.43
0 0 3 185 10.43
0 0 3 183.06 10.48
0 0 3 178.32 10.59
-1 0 -3 278.71 17.25
-1 0 -3 321.07 17.31
-1 0 -3 299.5 17.23
-1 0 -3 288.22 17.56
1 0 3 284.91 17.25
1 0 3 278.58 17.23
1 0 3 290.1 17.15
-2 0 -3 10.56 0.99
-2 0 -3 11.36 1.13
-2 0 -3 12.26 1.23
-2 0 -3 9.98 1
2 0 3 10.73 0.96
2 0 3 10.07 0.95
2 0 3 10.23 1.02
-3 0 -3 3.93 0.91
3 0 3 3.39 0.83
3 0 3 4.33 0.68
3 0 3 3.89 0.68
3 0 3 3.82 0.77
-4 0 -3 6.87 0.93
-4 0 -3 7.2 1.33
4 0 3 6.43 0.95
4 0 3 6.92 1.02
4 0 3 6.97 0.97
4 0 3 6.57 1.21
-5 0 -3 88.42 6.04
-5 0 -3 95.36 6.69
5 0 3 83.65 6.37
5 0 3 92.12 6.24
5 0 3 88.25 6.37
5 0 3 88.55 6.08
-6 0 -3 46.05 4.18
-6 0 -3 53.86 4.71
6 0 3 38.31 3.71
6 0 3 38.2 3.46
6 0 3 45.45 3.71
6 0 3 46.89 3.59
-7 0 -3 0.79 0.65
7 0 3 1.07 0.58
7 0 3 -0.06 0.55
7 0 3 0.44 0.57
-8 0 -3 11.17 2.37
8 0 3 11.27 2.24
8 0 3 13.09 2.2
8 0 3 12.8 1.86
9 -1 -3 5.97 1.4
9 -1 -3 5.78 1.5
9 -1 -3 6.67 1.73
-9 1 3 8.21 1.85
-9 1 3 8.47 1.8
8 -1 -3 31.4 3.18
8 -1 -3 29.05 2.95
8 -1 -3 23.66 2.82
-8 1 3 28.84 3.13
-8 1 3 34.52 3.33
7 -1 -3 35.14 4.81
7 -1 -3 32.65 3.11
7 -1 -3 32.88 3
-7 1 3 31.55 3.09
-7 1 3 30.14 3.05
-7 1 3 29.09 2.67
-7 1 3 31.18 3.13
6 -1 -3 5.57 1.23
6 -1 -3 4.5 1.02
6 -1 -3 3.66 1.02
-6 1 3 3.63 1.03
-6 1 3 2.71 0.77
-6 1 3 3.78 1.06
-6 1 3 3.32 1.01
5 -1 -3 41.19 3.42
5 -1 -3 41.14 3.57
5 -1 -3 53.4 3.54
-5 1 3 46.77 3.52
-5 1 3 41.49 3.27
-5 1 3 43.4 3.49
-5 1 3 41.95 3.4
4 -1 -3 132.28 9.03
4 -1 -3 158.77 8.97
4 -1 -3 138.51 8.82
-4 1 3 143.63 8.87
-4 1 3 135.3 8.9
-4 1 3 133.4 8.74
-4 1 3 134.39 8.91
3 -1 -3 29.31 2.16
3 -1 -3 28.39 2.21
3 -1 -3 27.46 2.15
3 -1 -3 28.47 2.28
-3 1 3 27.13 2.11
-3 1 3 28.99 2.24
-3 1 3 29.85 2.15
2 -1 -3 4.55 0.58
2 -1 -3 5.03 0.6
2 -1 -3 4.5 0.63
2 -1 -3 4.93 0.59
-2 1 3 4.77 0.59
-2 1 3 5.11 0.57
-2 1 3 3.9 0.56
1 -1 -3 79.58 4.94
1 -1 -3 85.44 4.89
1 -1 -3 77.57 4.94
1 -1 -3 83.58 4.9
-1 1 3 77.07 4.91
-1 1 3 75.66 4.92
-1 1 3 82.57 4.86
0 -1 -3 74.81 4.91
0 -1 -3 80.5 4.91
0 -1 -3 87.24 4.92
0 -1 -3 78.2 4.97
0 1 3 81.74 4.91
-1 -1 -3 150.15 9.39
-1 -1 -3 145.01 9.23
-1 -1 -3 166.96 9.38
1 1 3 137.28 9.27
1 1 3 156.69 9.69
1 1 3 167.5 9.25
1 1 3 152.24 9.22
-2 -1 -3 119.29 7.25
-2 -1 -3 114.05 6.92
-2 -1 -3 108.44 7.05
2 1 3 107.44 6.86
2 1 3 108.22 6.89
2 1 3 114.68 7.32
2 1 3 109.05 7
-3 -1 -3 118.65 7.49
-3 -1 -3 134.82 8.05
-3 -1 -3 107.66 7.62
3 1 3 119.76 7.48
3 1 3 114.48 7.48
3 1 3 121.63 7.65
-4 -1 -3 108.06 7.04
-4 -1 -3 110.46 7.6
4 1 3 112.28 7.45
4 1 3 110.19 7.02
4 1 3 104.28 7.16
4 1 3 102.88 7
-5 -1 -3 35.51 3.33
-5 -1 -3 31.4 2.61
5 1 3 29.78 2.78
5 1 3 31.43 2.68
5 1 3 32.25 2.68
5 1 3 29.83 2.96
-6 -1 -3 1.61 0.9
6 1 3 0.29 0.58
6 1 3 -0.06 0.42
6 1 3 0.31 0.47
-7 -1 -3 4.86 1.67
7 1 3 2.74 1.08
7 1 3 3.65 1.08
7 1 3 5.84 1.36
-8 -1 -3 9.39 2.7
8 1 3 11.85 2.08
8 1 3 9.57 1.77
9 -2 -3 13.93 2.08
9 -2 -3 10.12 1.92
-9 2 3 16.56 2.31
-9 2 3 11.51 2.25
8 -2 -3 18.81 2.34
8 -2 -3 16.99 2.16
-8 2 3 15.71 2.27
-8 2 3 17.33 2.29
-8 2 3 17.1 2.25
7 -2 -3 0.11 0.45
7 -2 -3 0.36 0.59
7 -2 -3 -0.5 0.37
-7 2 3 0.01 0.4
-7 2 3 0.38 0.5
-7 2 3 0.42 0.53
-7 2 3 0.46 0.61
6 -2 -3 5.62 1.24
6 -2 -3 5.91 1.32
6 -2 -3 5.48 1.17
-6 2 3 7.21 1.4
-6 2 3 7.1 1.37
-6 2 3 6.32 1.34
5 -2 -3 111.76 8.16
5 -2 -3 117.36 8.29
5 -2 -3 126.57 7.94
-5 2 3 131.18 8.05
-5 2 3 123.75 7.9
-5 2 3 122.78 7.92
-5 2 3 114.59 8.05
4 -2 -3 44.15 3.55
4 -2 -3 43.93 3.35
4 -2 -3 49.29 3.37
-4 2 3 48.72 3.31
-4 2 3 46.48 3.38
-4 2 3 45.36 3.48
3 -2 -3 5.08 0.94
3 -2 -3 5.02 0.67
3 -2 -3 5.26 0.71
3 -2 -3 4.48 0.67
-3 2 3 2.87 0.64
-3 2 3 3.17 0.66
-3 2 3 4.42 0.59
-3 2 3 4.64 0.74
2 -2 -3 0.6 0.25
2 -2 -3 0.23 0.2
2 -2 -3 0.24 0.24
2 -2 -3 0.27 0.31
-2 2 3 0.33 0.26
-2 2 3 0.44 0.28
-2 2 3 0.42 0.22
-2 2 3 0.48 0.28
1 -2 -3 305.84 18.45
1 -2 -3 305.15 18.41
1 -2 -3 299.21 18.51
1 -2 -3 329.95 18.44
-1 2 3 309.08 18.51
-1 2 3 326.32 18.43
-1 2 3 299.57 18.44
-1 2 3 317.22 18.45
0 -2 -3 302.09 17.69
0 -2 -3 307.81 17.73
0 -2 -3 302.73 17.74
0 2 3 274.65 17.64
0 2 3 305.01 17.71
0 2 3 297.38 17.69
-1 -2 -3 0.46 0.32
-1 -2 -3 0.55 0.26
-1 -2 -3 0.43 0.4
1 2 3 0.4 0.28
1 2 3 0.21 0.26
1 2 3 0.34 0.26
-2 -2 -3 31.38 2.59
-2 -2 -3 35.79 2.82
-2 -2 -3 30.65 2.37
2 2 3 35.47 2.45
2 2 3 35.39 2.88
2 2 3 32.8 2.38
2 2 3 35.2 2.57
-3 -2 -3 64.1 4.97
-3 -2 -3 60.67 4.38
-3 -2 -3 63.59 4.72
3 2 3 69.91 4.44
3 2 3 67.11 4.47
3 2 3 68.44 4.92
3 2 3 68.54 4.67
-4 -2 -3 45.93 3.94
-4 -2 -3 39.12 3.48
-4 -2 -3 41.76 3.2
4 2 3 46.75 3.55
4 2 3 44.84 3.28
4 2 3 43.16 3.23
-5 -2 -3 4.37 1.46
5 2 3 3.68 1
5 2 3 2.82 0.77
5 2 3 3.3 0.88
5 2 3 4.4 1.11
-6 -2 -3 0.59 0.71
6 2 3 -0.39 0.65
6 2 3 0.99 0.68
6 2 3 0.44 0.58
-7 -2 -3 13.77 3.07
7 2 3 15.64 2.44
7 2 3 13.46 1.9
7 2 3 15.5 2.18
9 -3 -3 17.92 2.34
9 -3 -3 19.77 2.56
-9 3 3 20.77 2.53
-9 3 3 17.48 2.5
-9 3 3 25.77 2.93
8 -3 -3 0.01 0.51
8 -3 -3 0.69 0.56
-8 3 3 0.63 0.63
-8 3 3 0.39 0.63
-8 3 3 0.28 0.61
7 -3 -3 18.42 2.15
7 -3 -3 19.21 2.17
-7 3 3 19.86 2.09
-7 3 3 21.36 2.14
-7 3 3 19.72 2.22
-7 3 3 13.81 2.1
6 -3 -3 12.17 2.13
6 -3 -3 8.61 1.38
6 -3 -3 10.31 1.38
-6 3 3 12.03 1.53
-6 3 3 10.81 1.57
-6 3 3 9.68 1.36
-6 3 3 10.39 1.33
5 -3 -3 92.8 6.73
5 -3 -3 102.43 6.39
5 -3 -3 89.01 6.37
-5 3 3 93.52 6.43
-5 3 3 96.06 6.24
-5 3 3 97.2 6.64
-5 3 3 95.72 6.44
4 -3 -3 60.02 4.52
4 -3 -3 59.73 4.32
4 -3 -3 71.61 4.27
-4 3 3 58.25 4.26
-4 3 3 60.39 4.24
-4 3 3 59.79 4.03
-4 3 3 58.16 4.39
3 -3 -3 24.04 1.82
3 -3 -3 25.34 2.1
3 -3 -3 20.3 1.75
3 -3 -3 24.4 1.79
-3 3 3 17.64 1.91
-3 3 3 21.61 1.93
-3 3 3 23.01 1.83
-3 3 3 22.41 1.65
2 -3 -3 279.55 16.73
2 -3 -3 284.71 16.61
-2 3 3 278.11 16.8
-2 3 3 279.35 16.52
-2 3 3 269.66 16.68
1 -3 -3 107.55 6.32
1 -3 -3 97.91 6.41
1 -3 -3 106.86 6.41
1 -3 -3 96.11 6.27
-1 3 3 98.66 6.39
0 -3 -3 2.61 0.58
0 -3 -3 3.59 0.55
0 -3 -3 3.1 0.63
0 -3 -3 3.52 0.65
0 3 3 4.13 0.57
0 3 3 4.7 0.7
0 3 3 4.19 0.69
-1 -3 -3 3.17 0.73
-1 -3 -3 3.8 0.88
-1 -3 -3 3.37 0.63
1 3 3 2.03 0.51
1 3 3 3.13 0.6
1 3 3 3.73 0.73
-2 -3 -3 67.45 5.23
-2 -3 -3 71.7 4.94
2 3 3 80.22 4.99
2 3 3 81.93 5.22
2 3 3 80.66 5.02
-3 -3 -3 27.12 2.74
-3 -3 -3 26.21 2.1
-3 -3 -3 26.88 2.52
3 3 3 27.08 2.38
3 3 3 25.46 2.62
3 3 3 25.59 2.11
3 3 3 25.5 2.13
-4 -3 -3 31.62 2.49
-4 -3 -3 26.44 2.83
-4 -3 -3 32.63 3.27
4 3 3 30.1 2.51
4 3 3 31.79 3.02
4 3 3 29.99 2.8
4 3 3 31.04 2.52
-5 -3 -3 0.33 0.7
5 3 3 0.56 0.54
5 3 3 0.34 0.53
-6 -3 -3 16.86 3.02
6 3 3 14.57 2.12
6 3 3 16.13 2.42
6 3 3 14.63 2.95
-7 -3 -3 12.71 2.85
7 3 3 9.13 2.26
7 3 3 12.08 2.4
7 3 3 9.76 1.74
9 -4 -3 8.85 1.67
9 -4 -3 9.2 1.82
-9 4 3 11.47 2.02
-9 4 3 8.87 1.97
8 -4 -3 0.3 0.54
8 -4 -3 -0.1 0.6
-8 4 3 -0.03 0.62
-8 4 3 0.13 0.59
-8 4 3 -0.1 0.39
7 -4 -3 33.97 3.08
7 -4 -3 35.27 2.98
-7 4 3 32.83 2.82
-7 4 3 35.2 3.35
-7 4 3 32.71 3.33
-7 4 3 28.79 2.92
6 -4 -3 157.4 9.97
6 -4 -3 163.56 9.87
6 -4 -3 152.37 10.44
-6 4 3 132.6 10.09
-6 4 3 148.01 10.01
-6 4 3 151.67 9.98
-6 4 3 159.84 9.68
5 -4 -3 0.24 0.47
5 -4 -3 1.07 0.49
5 -4 -3 0.64 0.47
-5 4 3 0.46 0.49
-5 4 3 0.45 0.49
-5 4 3 0.94 0.58
-5 4 3 0.2 0.32
4 -4 -3 30.51 2.77
4 -4 -3 28.84 2.4
4 -4 -3 30.95 2.37
4 -4 -3 30.77 2.66
-4 4 3 31.73 2.69
-4 4 3 30.26 2.46
-4 4 3 32.5 2.22
-4 4 3 27.89 2.47
3 -4 -3 28.87 2.32
3 -4 -3 34.31 2.37
3 -4 -3 31.53 2.68
3 -4 -3 28.73 2.29
-3 4 3 32.57 2.34
-3 4 3 33.18 2.64
-3 4 3 29.66 2.43
-3 4 3 32.3 2.39
2 -4 -3 72.84 4.69
2 -4 -3 77.84 4.76
2 -4 -3 67.3 5
2 -4 -3 76.59 4.75
-2 4 3 72.64 4.77
-2 4 3 70.97 4.65
-2 4 3 75.11 4.86
1 -4 -3 18.5 1.65
1 -4 -3 16.63 1.47
1 -4 -3 15.99 1.35
1 -4 -3 17.06 1.48
-1 4 3 18.41 1.51
-1 4 3 13.63 1.49
-1 4 3 18.39 1.49
0 -4 -3 4.6 0.88
0 -4 -3 3.67 0.72
0 -4 -3 4.73 0.83
0 4 3 4.05 0.72
0 4 3 6.05 0.86
0 4 3 4.6 0.82
-1 -4 -3 33.08 2.66
-1 -4 -3 27.38 2.24
-1 -4 -3 28.35 2.45
1 4 3 30.22 2.28
1 4 3 29.19 2.36
-2 -4 -3 86.29 6.61
-2 -4 -3 117.98 7.15
-2 -4 -3 98.83 6.3
2 4 3 96.36 6.28
2 4 3 89.99 6.25
2 4 3 101.06 6.57
-3 -4 -3 26.72 2.86
-3 -4 -3 23.27 2.55
-3 -4 -3 24.55 2.13
3 4 3 25.03 2.45
3 4 3 26.54 2.78
3 4 3 24.96 2.16
3 4 3 28.13 2.22
-4 -4 -3 0.63 0.59
-4 -4 -3 0.33 0.54
4 4 3 -0.41 0.39
4 4 3 0.1 0.46
4 4 3 -0.21 0.45
-5 -4 -3 10.91 2.39
5 4 3 8.9 1.92
5 4 3 11 1.87
-6 -4 -3 22.39 3.89
6 4 3 20.37 2.28
6 4 3 23.26 3.12
6 4 3 20.09 2.67
9 -5 -3 5.14 1.25
9 -5 -3 4.41 1.36
-9 5 3 5.87 1.6
-9 5 3 5.06 1.27
-9 5 3 4.19 1.45
8 -5 -3 35.49 3.06
8 -5 -3 33.25 3.19
-8 5 3 32.09 2.85
-8 5 3 31.33 3.49
-8 5 3 31.64 3.21
7 -5 -3 5.41 1.14
7 -5 -3 8.2 1.53
-7 5 3 6.29 1.1
-7 5 3 5.77 1.31
-7 5 3 5.72 1.54
6 -5 -3 15.1 1.89
6 -5 -3 21.07 1.92
6 -5 -3 21.19 2.44
-6 5 3 15.23 2.11
-6 5 3 16.95 1.98
-6 5 3 19.16 1.68
-6 5 3 20.45 2.09
5 -5 -3 0.65 0.44
5 -5 -3 0.3 0.51
-5 5 3 1.06 0.51
-5 5 3 0.36 0.49
-5 5 3 -0.13 0.38
-5 5 3 0.4 0.35
4 -5 -3 20.98 1.57
4 -5 -3 23.8 2.02
4 -5 -3 20.54 1.89
4 -5 -3 21.18 2.36
-4 5 3 21.51 2.27
-4 5 3 24.23 2.06
-4 5 3 28.05 1.82
3 -5 -3 94.9 6.39
3 -5 -3 106.9 6.47
3 -5 -3 102.36 6.45
3 -5 -3 85.76 8.06
-3 5 3 115.29 6.6
-3 5 3 101.37 6.86
-3 5 3 97.28 6.64
-3 5 3 96.21 6.48
2 -5 -3 50.86 4.03
2 -5 -3 56.84 3.75
2 -5 -3 57.8 3.76
2 -5 -3 48.39 3.56
-2 5 3 55.89 3.85
-2 5 3 50.54 3.97
-2 5 3 59.69 3.78
1 -5 -3 1.16 0.94
1 -5 -3 1.06 0.5
1 -5 -3 1.33 0.56
-1 5 3 1.28 0.47
-1 5 3 1.71 0.66
-1 5 3 0.93 0.49
0 -5 -3 26.68 2.31
0 -5 -3 22.26 2.09
0 -5 -3 28.05 2.23
0 5 3 26.73 2.16
0 5 3 24.23 2.1
0 5 3 23.06 1.99
-1 -5 -3 68.21 5.01
-1 -5 -3 68.69 4.85
1 5 3 62.64 4.66
1 5 3 66.77 4.55
1 5 3 66.87 4.53
-2 -5 -3 15.08 1.87
-2 -5 -3 16.42 2.11
-2 -5 -3 14.22 1.54
2 5 3 12.64 1.67
2 5 3 16.88 1.53
2 5 3 14.71 1.57
-3 -5 -3 4.97 1.58
-3 -5 -3 4.66 1.2
3 5 3 6.26 1.55
3 5 3 3.93 0.88
3 5 3 7.78 1.55
-4 -5 -3 8.32 2.04
4 5 3 8.95 1.84
4 5 3 10.31 2.18
4 5 3 9.86 1.83
-5 -5 -3 11.36 2.55
5 5 3 14.35 2.1
5 5 3 13.98 1.77
9 -6 -3 6.68 1.74
9 -6 -3 5.97 1.46
-9 6 3 4.37 1.52
-9 6 3 6.03 1.75
-9 6 3 4.44 1.1
8 -6 -3 19.44 2.1
-8 6 3 20.27 2.39
-8 6 3 16.83 2.53
-8 6 3 16.81 1.82
7 -6 -3 28.17 2.88
7 -6 -3 34.91 3.13
-7 6 3 39.66 3.32
-7 6 3 37.12 2.73
-7 6 3 37.2 3.64
6 -6 -3 5.97 1.12
6 -6 -3 6.12 1.24
-6 6 3 4.24 1.15
-6 6 3 5.16 0.88
-6 6 3 6.41 1.6
5 -6 -3 8.35 1.72
5 -6 -3 9.74 1.35
-5 6 3 11.13 1.05
-5 6 3 9.58 1.35
-5 6 3 8.22 1.39
-5 6 3 9.42 1.75
4 -6 -3 34.07 2.59
4 -6 -3 33.23 2.6
4 -6 -3 32.41 3.17
4 -6 -3 32.69 2.5
-4 6 3 29.94 2.75
-4 6 3 32.47 3.06
-4 6 3 31.87 2.64
3 -6 -3 45.65 3.1
3 -6 -3 40.33 2.91
3 -6 -3 44.13 3.08
-3 6 3 37.39 3.02
-3 6 3 45.12 3.54
-3 6 3 30.8 3.39
2 -6 -3 2.74 0.75
2 -6 -3 1.96 0.68
-2 6 3 2.74 0.81
-2 6 3 1.96 0.71
-2 6 3 2.68 0.74
1 -6 -3 0.57 0.63
1 -6 -3 1.74 0.67
1 -6 -3 1.36 0.61
-1 6 3 2.39 0.67
-1 6 3 1.35 0.69
-1 6 3 1.73 0.65
0 -6 -3 77.71 5.34
0 6 3 70.68 5.21
0 6 3 80.3 5.3
-1 -6 -3 36.58 3.18
-1 -6 -3 36.46 3.73
1 6 3 35.17 3.47
1 6 3 37.16 2.92
-2 -6 -3 3.03 1.05
-2 -6 -3 2.21 1.02
2 6 3 1.58 0.8
2 6 3 2.96 0.85
-3 -6 -3 -0.27 0.55
-3 -6 -3 0.67 0.88
3 6 3 0.59 0.7
3 6 3 1.05 0.71
3 6 3 0.92 0.79
-4 -6 -3 18.13 2.6
-4 -6 -3 21.4 3.1
4 6 3 23.9 3.02
4 6 3 23.24 2.25
4 6 3 17.93 2.5
9 -7 -3 7.83 1.49
9 -7 -3 9.64 2
-9 7 3 11.2 2.08
8 -7 -3 4.6 0.99
8 -7 -3 3.11 1.1
8 -7 -3 4.52 1.1
-8 7 3 3.77 0.83
-8 7 3 5.81 1.63
-8 7 3 4.24 1.17
7 -7 -3 6.76 0.9
7 -7 -3 6.49 1.22
7 -7 -3 7.26 1.42
-7 7 3 7.73 1.01
-7 7 3 8.55 1.63
-7 7 3 8.02 1.91
6 -7 -3 4.02 1.11
6 -7 -3 3.08 0.57
6 -7 -3 3.46 0.87
-6 7 3 5.13 0.78
-6 7 3 5.04 1.18
-6 7 3 3.59 1.26
5 -7 -3 33.14 2.7
5 -7 -3 32.49 2.74
-5 7 3 31.55 3.31
-5 7 3 30.95 2.77
-5 7 3 32.79 2.35
4 -7 -3 46.28 3.36
4 -7 -3 48 3.39
4 -7 -3 37.31 3.08
-4 7 3 44.7 3.4
-4 7 3 43.7 3.92
3 -7 -3 3.64 0.71
3 -7 -3 2.42 0.81
-3 7 3 3.56 1.45
-3 7 3 3.49 1.13
2 -7 -3 9.6 1.34
2 -7 -3 9.13 1.78
-2 7 3 7.03 1.38
-2 7 3 7.08 1.39
1 -7 -3 11.77 1.52
1 -7 -3 12.43 1.68
-1 7 3 12.21 1.5
-1 7 3 12.27 1.71
0 -7 -3 39.15 3.43
0 -7 -3 48.04 3.78
0 7 3 42.89 3.4
0 7 3 38.5 3.32
-1 -7 -3 9.72 2.06
-1 -7 -3 11.94 1.76
1 7 3 12.95 1.74
1 7 3 12.99 1.62
-2 -7 -3 1.85 0.79
-2 -7 -3 1.22 0.83
2 7 3 0.76 0.77
2 7 3 2.61 0.99
-3 -7 -3 22.51 2.96
3 7 3 34.84 3.71
3 7 3 23.6 1.92
3 7 3 28.44 2.65
3 7 3 24.12 2.9
8 -8 -3 4.61 0.84
8 -8 -3 8.29 1.66
-8 8 3 2.53 1.12
-8 8 3 6.02 2.09
-8 8 3 5.98 0.93
7 -8 -3 7.43 0.86
7 -8 -3 8.7 1.47
7 -8 -3 7.23 1.31
-7 8 3 9.12 1.67
-7 8 3 6.67 1.88
-7 8 3 6.14 0.93
6 -8 -3 5.05 1.19
6 -8 -3 3.98 1.04
-6 8 3 3.31 1.08
-6 8 3 3.12 1.32
5 -8 -3 26.84 2.37
5 -8 -3 23.37 2.31
-5 8 3 21.85 2.98
-5 8 3 23.57 2.38
4 -8 -3 16.01 1.78
4 -8 -3 17.2 1.85
-4 8 3 12.57 1.66
3 -8 -3 0.67 0.6
3 -8 -3 -0.26 0.51
3 -8 -3 0.07 0.56
-3 8 3 0.45 0.52
-3 8 3 0.56 0.75
2 -8 -3 21.48 2.09
2 -8 -3 20.51 2.23
-2 8 3 16.88 2.33
-2 8 3 20.1 2.01
1 -8 -3 69.68 5.12
1 -8 -3 70.99 5.41
-1 8 3 72.48 5.39
-1 8 3 68.18 5.05
0 -8 -3 -0.17 0.56
0 -8 -3 0.12 0.72
0 8 3 0.08 0.46
0 8 3 -0.26 0.74
-1 -8 -3 5.4 1.51
-1 -8 -3 3.14 1.02
1 8 3 3.66 1.14
1 8 3 2.22 0.87
-2 -8 -3 0.7 1.12
-2 -8 -3 1.35 0.88
2 8 3 3.41 1
2 8 3 1.11 0.78
7 -9 -3 9.91 1.72
7 -9 -3 12.99 1.82
-7 9 3 18.73 3.19
-7 9 3 12.6 2.08
6 -9 -3 19.98 2.21
6 -9 -3 19.29 2.18
-6 9 3 22.81 4.13
5 -9 -3 8.96 1.56
5 -9 -3 7.04 1.36
-5 9 3 7.27 1.43
-5 9 3 6.82 1.83
4 -9 -3 1.6 0.9
4 -9 -3 1.66 0.86
-4 9 3 2.41 1.05
-4 9 3 2.17 0.91
3 -9 -3 10.23 1.64
-3 9 3 12.21 1.65
-3 9 3 17.98 2.37
2 -9 -3 2.7 0.98
2 -9 -3 2.2 1.05
-2 9 3 4.24 1.32
-2 9 3 2.55 0.81
1 -9 -3 6.84 1.54
1 -9 -3 7 1.44
0 -9 -3 1.49 0.96
0 9 3 0.45 0.9
0 9 3 3.19 1.01
4 -10 -3 1.31 0.91
-4 10 3 1.08 0.8
-1 11 -4 0.9 0.63
1 -11 4 0.07 0.65
-2 11 -4 8.11 1.39
2 -11 4 6.51 1.23
2 -11 4 5.04 1.6
-3 11 -4 15.89 1.91
3 -11 4 18.66 1.88
3 -11 4 11.01 2.07
-4 11 -4 10.19 1.73
4 -11 4 10.27 1.43
-5 11 -4 3.63 1.23
5 -11 4 1.65 1.81
5 -11 4 2.69 0.81
5 -11 4 4.56 0.79
2 10 -4 9.71 1.77
-2 -10 4 9.48 1.53
1 10 -4 8.98 1.53
-1 -10 4 4.06 1.28
-1 -10 4 7.93 1.01
0 10 -4 0.4 0.54
0 -10 4 0.45 0.64
-1 10 -4 18.53 2.07
1 -10 4 18.03 1.9
1 -10 4 12.93 1.91
1 -10 4 11.88 1.73
-2 10 -4 13.69 1.6
-2 10 -4 12.63 1.85
2 -10 4 13.71 1.93
2 -10 4 10.35 1.48
2 -10 4 12.15 1.51
-3 10 -4 5.99 1.25
-3 10 -4 4.67 1.35
3 -10 4 5.08 1.39
3 -10 4 4.07 0.91
3 -10 4 5.42 1.04
-4 10 -4 5.49 1.4
-4 10 -4 5.92 1.29
4 -10 4 5.03 0.88
4 -10 4 5.33 1
-5 10 -4 6.24 1.38
-5 10 -4 7.88 1.84
5 -10 4 7.95 1.53
5 -10 4 7.73 1.24
5 -10 4 6.61 1.02
-6 10 -4 5.33 1.32
6 -10 4 5.98 1.06
6 -10 4 5.25 0.94
6 -10 4 8.36 1.71
7 -10 4 7.33 1.21
7 -10 4 11.42 1.36
3 9 -4 19.29 2.4
-3 -9 4 22.42 2.47
2 9 -4 16.73 1.9
-2 -9 4 10.8 1.6
-2 -9 4 12.17 1.8
-2 -9 4 15.24 1.92
1 9 -4 0.38 0.54
1 9 -4 -0.34 0.48
-1 -9 4 1 0.67
-1 -9 4 0.41 0.46
-1 -9 4 0.36 0.46
-1 -9 4 0.38 0.5
0 9 -4 2.61 0.77
0 9 -4 2.62 0.83
0 9 -4 2.22 0.57
0 -9 4 3.99 1
0 -9 4 2.7 0.95
-1 9 -4 26.4 2.61
-1 9 -4 30.36 2.34
1 -9 4 29.86 2.58
1 -9 4 26.17 2.66
1 -9 4 32.5 2.52
-2 9 -4 15.78 1.85
2 -9 4 15.34 1.53
2 -9 4 10.42 1.48
2 -9 4 18.29 1.93
-3 9 -4 3.66 0.94
-3 9 -4 4.08 1.1
3 -9 4 2.78 0.61
3 -9 4 1.6 0.62
3 -9 4 2.96 0.95
3 -9 4 4.53 0.86
-4 9 -4 3.36 1
-4 9 -4 2.41 0.97
4 -9 4 2.57 0.8
4 -9 4 1.9 0.58
4 -9 4 4.15 1.12
4 -9 4 3.38 0.77
-5 9 -4 12.01 2.29
-5 9 -4 11.64 1.61
5 -9 4 5.97 1.48
5 -9 4 10.03 1.15
5 -9 4 7.42 1.04
-6 9 -4 30.42 3.2
-6 9 -4 30.72 3.28
6 -9 4 32.04 2.8
6 -9 4 34.83 2.57
6 -9 4 34.34 2.56
6 -9 4 34.03 3.24
-7 9 -4 0.71 0.93
7 -9 4 3.59 1.24
7 -9 4 3.2 0.77
-8 9 -4 4.03 1.38
8 -9 4 5.16 1.01
8 -9 4 4.74 0.95
4 8 -4 15.31 2.2
-4 -8 4 17.75 2.27
-4 -8 4 14.93 2.06
3 8 -4 4.7 0.96
3 8 -4 3.46 1.06
-3 -8 4 5 1.29
-3 -8 4 6.38 1.06
-3 -8 4 4.54 1.26
-3 -8 4 4.83 1.22
2 8 -4 5.69 1.03
2 8 -4 6.9 1.3
-2 -8 4 4.77 1.22
-2 -8 4 6.13 1.32
-2 -8 4 7.19 1.32
1 8 -4 4.11 1.18
1 8 -4 3.81 0.93
1 8 -4 5.07 1.26
-1 -8 4 4.11 0.86
-1 -8 4 2.14 0.79
-1 -8 4 4.21 0.95
-1 -8 4 5.37 1.14
0 8 -4 20.28 2.02
0 8 -4 26 1.98
0 8 -4 24.71 2.19
0 -8 4 26.25 2.22
0 -8 4 29.51 2.45
-1 8 -4 18.2 1.95
-1 8 -4 22.33 1.9
-1 8 -4 22.82 2.24
-1 8 -4 21.85 1.81
1 -8 4 17.94 2.16
1 -8 4 21.07 1.85
1 -8 4 22.13 1.96
-2 8 -4 35.81 2.94
-2 8 -4 38.51 3.17
-2 8 -4 39.7 2.9
-2 8 -4 40.75 2.99
2 -8 4 39.67 2.9
2 -8 4 39.15 2.84
2 -8 4 36.48 3.2
-3 8 -4 2.01 0.69
-3 8 -4 1.79 0.7
3 -8 4 1.08 0.57
3 -8 4 1.54 0.59
3 -8 4 1.81 0.5
3 -8 4 0.98 1.05
-4 8 -4 63.59 5.31
-4 8 -4 76.77 5.33
-4 8 -4 76.62 5.3
4 -8 4 70.68 5.33
4 -8 4 73.76 4.9
4 -8 4 75.76 4.75
4 -8 4 74.61 4.8
-5 8 -4 12.02 1.7
-5 8 -4 15.28 2.63
5 -8 4 11.68 1.91
5 -8 4 11.92 1.42
5 -8 4 11.66 1.23
5 -8 4 12.31 1.24
-6 8 -4 6.03 1.38
-6 8 -4 6.36 1.4
6 -8 4 5.34 0.93
6 -8 4 3.47 0.76
6 -8 4 5.44 1.14
6 -8 4 4.65 1.3
-7 8 -4 -0.84 0.7
-7 8 -4 0.34 0.3
-7 8 -4 0.3 0.61
7 -8 4 1.2 0.79
7 -8 4 -0.27 0.37
7 -8 4 0.2 0.51
7 -8 4 -0.04 0.48
-8 8 -4 6.28 1.66
-8 8 -4 6.25 1.06
8 -8 4 8.85 1.39
5 7 -4 7.06 1.64
5 7 -4 5.08 1.52
-5 -7 4 8.47 1.3
-5 -7 4 9.02 1.87
-5 -7 4 3.86 1.42
4 7 -4 20.58 2.46
4 7 -4 23.19 2.08
-4 -7 4 20.63 2.01
-4 -7 4 25.27 2.64
-4 -7 4 17.12 2.26
3 7 -4 4.68 0.95
-3 -7 4 5.06 0.97
-3 -7 4 4.31 1.2
-3 -7 4 5.28 1.25
-3 -7 4 5.98 1.31
2 7 -4 0.6 0.41
2 7 -4 0.11 0.41
2 7 -4 -0.1 0.28
2 7 -4 0.53 0.47
-2 -7 4 -0.86 0.41
-2 -7 4 0.15 0.43
-2 -7 4 -0.13 0.42
-2 -7 4 -0.18 0.39
1 7 -4 28.74 2.12
1 7 -4 25.34 2.08
1 7 -4 25.81 2.14
1 7 -4 27.7 1.94
-1 -7 4 26.64 2.19
-1 -7 4 19.57 2.01
-1 -7 4 24.62 2.25
-1 -7 4 24.33 2.27
0 7 -4 124.13 7.48
0 7 -4 117.97 7.44
0 7 -4 123.89 7.53
0 7 -4 125.17 7.46
0 -7 4 100.89 7.43
0 -7 4 117.33 7.26
-1 7 -4 3.21 0.72
-1 7 -4 3.65 0.72
-1 7 -4 2.86 0.62
-1 7 -4 2.22 0.55
1 -7 4 1.69 0.59
1 -7 4 4.01 0.74
1 -7 4 2.03 0.56
-2 7 -4 3.49 0.77
-2 7 -4 3.46 0.71
-2 7 -4 2.68 0.63
-2 7 -4 3.02 0.77
2 -7 4 3.03 0.61
2 -7 4 2.85 0.62
2 -7 4 3.12 0.79
2 -7 4 2.22 0.5
-3 7 -4 14.7 1.58
-3 7 -4 12.1 1.38
-3 7 -4 12.77 1.56
3 -7 4 14.15 1.57
3 -7 4 15.54 1.25
3 -7 4 15.03 1.53
3 -7 4 14.08 1.32
-4 7 -4 28.38 2.59
-4 7 -4 27.64 2.56
-4 7 -4 27.94 2.42
4 -7 4 25.34 2.04
4 -7 4 28.94 2.07
4 -7 4 29.44 2.28
-5 7 -4 28.11 2.86
-5 7 -4 33.43 3.02
-5 7 -4 32.87 2.81
5 -7 4 31.86 2.62
5 -7 4 34.62 2.46
5 -7 4 33.37 2.35
5 -7 4 28.78 2.78
-6 7 -4 0.71 0.53
-6 7 -4 0.51 0.62
-6 7 -4 0.42 0.3
-6 7 -4 0.61 0.71
6 -7 4 -0.28 0.58
6 -7 4 1 0.43
6 -7 4 1.21 0.59
-7 7 -4 10.44 1.3
-7 7 -4 7.9 1.78
-7 7 -4 12.99 2.35
7 -7 4 12.02 1.27
7 -7 4 9.78 2.59
7 -7 4 9.46 1.3
7 -7 4 11.96 1.6
-8 7 -4 20.96 2.74
-8 7 -4 21.04 2.61
-8 7 -4 17.85 1.98
8 -7 4 16.61 1.87
8 -7 4 17.33 2.22
8 -7 4 19.75 1.84
-9 7 -4 17.79 2.57
9 -7 4 13.65 1.71
9 -7 4 12.95 1.72
6 6 -4 5.52 1.83
6 6 -4 5.44 1.6
6 6 -4 6.85 1.34
-6 -6 4 5.77 1.61
-6 -6 4 6.33 1.6
5 6 -4 23.91 2.14
5 6 -4 22.79 2.61
5 6 -4 17.45 2.54
-5 -6 4 21.92 2.53
-5 -6 4 21.42 2.64
4 6 -4 23.32 2.8
-4 -6 4 23.16 2.56
-4 -6 4 30.84 2.71
-4 -6 4 21.17 1.98
3 6 -4 0.05 0.42
3 6 -4 0.31 0.44
3 6 -4 -0.01 0.41
-3 -6 4 0.38 0.42
-3 -6 4 0.17 0.42
-3 -6 4 0.07 0.4
-3 -6 4 0.09 0.43
2 6 -4 46.04 3.91
2 6 -4 53.11 3.79
-2 -6 4 58.94 3.86
-2 -6 4 59.62 4.2
-2 -6 4 61.81 4.25
-2 -6 4 61.96 4.23
1 6 -4 31.5 2.41
1 6 -4 33.24 2.28
1 6 -4 36.77 2.48
-1 -6 4 30.17 2.51
-1 -6 4 33.51 2.43
-1 -6 4 30.68 2.48
-1 -6 4 31.2 2.55
0 6 -4 26.56 2.01
0 6 -4 27.52 2
0 6 -4 26.43 1.98
0 6 -4 25.93 1.91
0 -6 4 29.19 2.1
0 -6 4 23.95 2
0 -6 4 23.85 1.85
0 -6 4 26.41 2.02
-1 6 -4 22.85 1.9
-1 6 -4 27.82 1.96
-1 6 -4 27.06 2.07
-1 6 -4 27.24 2
1 -6 4 25.06 1.84
1 -6 4 27.67 1.92
1 -6 4 23.27 1.98
1 -6 4 25.14 1.92
-2 6 -4 50.02 3.53
-2 6 -4 52.54 3.52
-2 6 -4 49.41 3.39
-2 6 -4 50.9 3.38
2 -6 4 50.85 3.25
2 -6 4 42.2 3.37
2 -6 4 48.9 3.2
2 -6 4 49.38 3.24
-3 6 -4 70.55 5.21
-3 6 -4 80.4 5.47
3 -6 4 84.34 5.16
3 -6 4 83.54 5.05
3 -6 4 80.42 4.99
-4 6 -4 32.38 2.1
-4 6 -4 29.22 3.64
-4 6 -4 38.07 2.97
-4 6 -4 29.55 2.59
4 -6 4 36.69 2.43
4 -6 4 31.07 2.52
4 -6 4 33.74 2.28
4 -6 4 31.76 2.69
-5 6 -4 4.95 1.04
-5 6 -4 5.36 1.17
-5 6 -4 5.33 1.27
5 -6 4 4.25 0.94
5 -6 4 3.49 1.03
5 -6 4 4.6 0.78
-6 6 -4 21.05 2.25
-6 6 -4 21.48 2.51
-6 6 -4 17.64 2.24
6 -6 4 21.42 1.92
6 -6 4 24.24 1.89
6 -6 4 24.58 2.34
6 -6 4 21.35 2.17
-7 6 -4 16.62 2.28
-7 6 -4 17.6 2.37
7 -6 4 16.41 1.63
7 -6 4 13.37 1.62
7 -6 4 17.19 1.97
7 -6 4 13.98 1.86
-8 6 -4 6.62 1.66
-8 6 -4 7.62 1.81
8 -6 4 7.79 1.25
8 -6 4 7.91 1.63
-9 6 -4 7.62 2.17
-9 6 -4 7.26 1.69
9 -6 4 7.05 1.28
7 5 -4 8.56 1.98
-7 -5 4 10.22 2.09
-7 -5 4 11.79 2.54
6 5 -4 32.96 3.34
6 5 -4 35.41 2.89
6 5 -4 31.53 3.37
6 5 -4 32.91 2.68
-6 -5 4 24.54 2.43
-6 -5 4 33.83 3.49
5 5 -4 15.51 1.79
5 5 -4 14.88 2.03
5 5 -4 14.48 1.94
-5 -5 4 12.78 2.12
-5 -5 4 12.05 1.37
-5 -5 4 12.81 2.33
4 5 -4 0.09 0.5
4 5 -4 0.25 0.43
4 5 -4 0.63 0.52
-4 -5 4 -0.18 0.41
-4 -5 4 -0.19 0.48
-4 -5 4 -0.32 0.33
3 5 -4 8.45 1.6
3 5 -4 10.42 1.1
3 5 -4 13.71 1.43
-3 -5 4 10.81 1.09
-3 -5 4 8.58 1.26
-3 -5 4 8.78 1.33
-3 -5 4 7.06 1.3
2 5 -4 58.34 3.83
2 5 -4 64.74 3.92
2 5 -4 59.75 4.06
2 5 -4 58.12 4.07
-2 -5 4 52.52 4.1
-2 -5 4 57.3 4.13
-2 -5 4 63.36 4.3
1 5 -4 94.47 5.98
1 5 -4 93.49 5.78
1 5 -4 95.5 5.76
-1 -5 4 94.17 5.96
-1 -5 4 87.65 5.79
-1 -5 4 93.2 5.94
0 5 -4 0.52 0.28
0 5 -4 0.43 0.26
0 5 -4 0.67 0.34
0 5 -4 0.22 0.25
0 -5 4 0.26 0.22
0 -5 4 0.28 0.26
-1 5 -4 4.35 0.69
-1 5 -4 3.45 0.63
-1 5 -4 2.12 0.46
-1 5 -4 2.33 0.45
1 -5 4 3.67 0.5
1 -5 4 3.45 0.38
1 -5 4 2.51 0.43
-2 5 -4 111.65 7.32
-2 5 -4 113.31 7.29
-2 5 -4 121.22 7.15
-2 5 -4 114.07 6.92
2 -5 4 116.86 7.08
2 -5 4 121.73 7
2 -5 4 112.29 7.05
-3 5 -4 64.23 4.5
-3 5 -4 54.32 5.16
-3 5 -4 62.04 4.01
3 -5 4 73.81 4.1
3 -5 4 67.8 4.34
3 -5 4 67.12 4.4
3 -5 4 65.83 4.21
-4 5 -4 5.77 1.02
-4 5 -4 5.44 1.19
-4 5 -4 6.24 0.98
4 -5 4 4.64 0.93
4 -5 4 3.67 0.67
4 -5 4 6.41 0.89
-5 5 -4 2.16 0.79
-5 5 -4 4.6 1.1
5 -5 4 3.52 0.68
5 -5 4 3.41 0.86
5 -5 4 4.56 0.73
5 -5 4 4.64 0.95
-6 5 -4 40.08 3.39
-6 5 -4 33.67 3.4
-6 5 -4 33.45 3.11
6 -5 4 37.71 2.77
6 -5 4 34.4 3.09
6 -5 4 38.36 3.17
-7 5 -4 27.59 3.11
-7 5 -4 29.12 2.95
7 -5 4 27.86 2.76
7 -5 4 26.38 2.7
7 -5 4 28.97 2.43
-8 5 -4 1.92 1.07
8 -5 4 3.25 0.88
9 -5 4 2.25 0.86
9 -5 4 2.55 0.81
7 4 -4 17.16 2.27
7 4 -4 15 2.26
7 4 -4 14.11 1.85
-7 -4 4 11.65 2.25
-7 -4 4 15.03 2.17
6 4 -4 16.69 2.2
6 4 -4 14.44 2.2
6 4 -4 22.65 2.13
-6 -4 4 19.85 2.53
-6 -4 4 19.56 2.34
5 4 -4 4.65 1.12
5 4 -4 3.8 1.06
5 4 -4 4.19 0.98
5 4 -4 5.22 1.26
-5 -4 4 3.77 1.15
-5 -4 4 4.3 0.75
-5 -4 4 5.15 1.22
4 4 -4 5.53 1.15
4 4 -4 10.14 1.4
4 4 -4 10.29 1.17
4 4 -4 8.7 1.24
-4 -4 4 8.15 0.95
-4 -4 4 10.53 1.38
-4 -4 4 8.5 1.59
3 4 -4 82.44 5.31
3 4 -4 77.07 5.38
3 4 -4 77.25 5.08
-3 -4 4 80.42 4.93
-3 -4 4 79.38 5.39
-3 -4 4 74.79 5.49
2 4 -4 74.92 4.46
2 4 -4 68.2 4.29
-2 -4 4 68.91 4.68
-2 -4 4 57.51 4.41
-2 -4 4 70.17 4.23
-2 -4 4 66.38 4.48
1 4 -4 41.99 2.52
1 4 -4 34.59 2.44
1 4 -4 37.17 2.58
1 4 -4 36.32 2.48
-1 -4 4 37.88 2.68
-1 -4 4 37.98 2.57
0 4 -4 25.05 1.82
0 4 -4 27.79 1.82
0 4 -4 26.67 1.8
0 4 -4 27.32 1.83
0 -4 4 25.79 1.82
0 -4 4 27.17 1.8
-1 4 -4 154.43 9.99
-1 4 -4 165.53 10.03
-1 4 -4 156.47 10.13
-1 4 -4 174.42 10.15
1 -4 4 166.54 10.05
1 -4 4 185.21 9.99
1 -4 4 173.41 10
-2 4 -4 47.04 3.06
-2 4 -4 59.33 3.52
-2 4 -4 47.86 3.17
-2 4 -4 43.18 3.27
2 -4 4 50.29 3.17
2 -4 4 50.71 3.21
-3 4 -4 43.14 3.11
-3 4 -4 43.56 3.21
-3 4 -4 44.81 3.37
-3 4 -4 43.73 2.9
3 -4 4 47.56 3.16
3 -4 4 45.66 3.01
3 -4 4 46.27 3.1
-4 4 -4 4.11 0.86
-4 4 -4 3.22 0.87
-4 4 -4 3.68 0.8
4 -4 4 3.62 0.77
4 -4 4 2.86 0.7
4 -4 4 3.16 0.55
-5 4 -4 49.18 3.7
-5 4 -4 40.29 3.46
-5 4 -4 50.26 3.95
5 -4 4 43.39 3.2
5 -4 4 46.66 3.83
5 -4 4 45.92 3.48
-6 4 -4 27.17 2.63
-6 4 -4 24.41 2.67
-6 4 -4 31.44 3.06
6 -4 4 31.75 2.45
6 -4 4 28.02 2.71
6 -4 4 30.18 2.67
-7 4 -4 33.51 3.43
7 -4 4 33.79 2.77
7 -4 4 31.67 3.08
7 -4 4 26.88 3.16
-8 4 -4 0.62 0.77
-8 4 -4 -0.13 0.64
8 -4 4 -0.11 0.43
8 -4 4 0.46 0.57
8 -4 4 0.61 0.57
-9 4 -4 25.78 2.93
9 -4 4 21.56 2.67
9 -4 4 28.17 2.7
8 3 -4 17.88 2.64
8 3 -4 20.36 2.8
-8 -3 4 19.41 2.86
-8 -3 4 23.46 2.81
7 3 -4 6.7 1.61
7 3 -4 7.67 1.68
7 3 -4 10.24 1.59
-7 -3 4 10.39 2.05
-7 -3 4 7.68 2.07
-7 -3 4 8.73 1.27
6 3 -4 9.82 1.54
6 3 -4 8.62 1.36
-6 -3 4 9.13 1.1
-6 -3 4 6.56 1.46
-6 -3 4 9.39 1.79
5 3 -4 0.07 0.39
5 3 -4 0.83 0.52
5 3 -4 0.55 0.53
5 3 -4 0.47 0.46
-5 -3 4 1 0.66
-5 -3 4 1.1 0.42
-5 -3 4 0.13 0.44
4 3 -4 81.03 5.29
4 3 -4 77.94 5.37
4 3 -4 78.81 5.52
-4 -3 4 73.07 5.59
-4 -3 4 79.42 4.95
3 3 -4 73.13 5.06
3 3 -4 73.59 4.84
3 3 -4 72.35 4.92
-3 -3 4 76.47 5.21
-3 -3 4 75.85 4.61
2 3 -4 35.55 2.3
2 3 -4 31.32 2.43
2 3 -4 32.66 2.23
-2 -3 4 31.82 2.09
-2 -3 4 31.92 2.27
-2 -3 4 34.1 2.55
1 3 -4 1.49 0.29
1 3 -4 1.63 0.35
1 3 -4 2.32 0.33
1 3 -4 2.21 0.49
1 3 -4 1.62 0.32
-1 -3 4 2.11 0.46
-1 -3 4 1.78 0.33
0 3 -4 26.84 1.78
0 3 -4 28.04 1.68
0 -3 4 28.14 1.78
0 -3 4 22.46 1.76
-1 3 -4 351.88 20.8
-1 3 -4 365.25 20.73
-1 3 -4 310.49 20.71
1 -3 4 356.3 20.72
1 -3 4 340.17 20.64
1 -3 4 388.88 20.79
-2 3 -4 33.78 2.37
-2 3 -4 32.69 2.12
-2 3 -4 27.24 2.12
-2 3 -4 32.5 2.26
2 -3 4 31.27 2.2
2 -3 4 33.94 2.17
-3 3 -4 0.35 0.26
-3 3 -4 -0.08 0.21
-3 3 -4 0.26 0.3
3 -3 4 0.18 0.26
3 -3 4 0.2 0.2
3 -3 4 -0.08 0.2
-4 3 -4 43.14 3.26
-4 3 -4 42.42 3.42
-4 3 -4 43.68 3.19
4 -3 4 41.83 2.94
4 -3 4 41.5 3.2
4 -3 4 41.48 3.08
-5 3 -4 108.18 7.7
-5 3 -4 115.89 7.41
5 -3 4 102.58 7.39
5 -3 4 113.5 7.3
5 -3 4 112.48 7.14
-6 3 -4 11.37 1.48
-6 3 -4 11.74 2.03
6 -3 4 10.45 1.49
6 -3 4 9.64 1.35
6 -3 4 7.39 1.24
6 -3 4 9.27 1.29
-7 3 -4 0.17 0.48
-7 3 -4 0.55 0.7
7 -3 4 -0.2 0.42
7 -3 4 0.49 0.49
7 -3 4 0.27 0.55
7 -3 4 0.28 0.98
-8 3 -4 1.17 0.88
-8 3 -4 5.15 1.55
8 -3 4 2.55 0.9
8 -3 4 2.6 0.93
8 -3 4 4.13 1.29
-9 3 -4 5.83 1.72
9 -3 4 4.04 1.26
9 -3 4 6.06 1.31
8 2 -4 24.08 2.81
8 2 -4 28.71 3.17
8 2 -4 23.8 3.06
-8 -2 4 33.12 3.53
-8 -2 4 38.02 3.5
7 2 -4 17.06 2.61
7 2 -4 14.75 2.08
-7 -2 4 18.12 2.28
-7 -2 4 16.57 1.69
-7 -2 4 18.21 2.44
6 2 -4 3.81 1.05
6 2 -4 4.57 1.15
6 2 -4 5.83 1.42
6 2 -4 3.09 0.87
-6 -2 4 4.28 1.26
-6 -2 4 5.17 1.24
5 2 -4 38.26 3.57
5 2 -4 34.7 2.97
5 2 -4 35.69 3
5 2 -4 38.24 3.17
-5 -2 4 35.98 3.08
-5 -2 4 38.85 2.68
-5 -2 4 31.5 3.12
4 2 -4 93.65 6.53
4 2 -4 97.41 6.66
4 2 -4 99.43 6.42
4 2 -4 92.92 6.4
-4 -2 4 98.8 6.7
-4 -2 4 102.35 6.11
3 2 -4 33.69 2.6
3 2 -4 37.15 2.63
3 2 -4 35.29 2.73
3 2 -4 37.12 2.83
-3 -2 4 39.86 2.9
-3 -2 4 34.6 2.62
-3 -2 4 37.52 2.38
2 2 -4 0.22 0.27
2 2 -4 0.06 0.16
2 2 -4 0.08 0.19
2 2 -4 -0.06 0.13
2 2 -4 0.04 0.14
-2 -2 4 0.11 0.22
1 2 -4 109.72 7.1
1 2 -4 114.05 6.89
-1 -2 4 120.68 7.07
0 2 -4 154.52 9.12
0 2 -4 147.34 9.2
0 -2 4 162.38 9.12
0 -2 4 148.91 9.17
-1 2 -4 92.48 5.92
1 -2 4 103.42 6
1 -2 4 90.58 5.85
1 -2 4 103.23 5.89
-2 2 -4 8.11 0.85
-2 2 -4 7.51 0.77
2 -2 4 6.98 0.6
2 -2 4 7.88 0.81
2 -2 4 7.72 0.72
-3 2 -4 81.96 5.68
-3 2 -4 86.77 5.54
3 -2 4 74.76 5.43
3 -2 4 90.47 5.4
3 -2 4 93.38 5.44
3 -2 4 85.11 5.61
-4 2 -4 65.03 4.66
-4 2 -4 69.23 4.45
4 -2 4 64.05 4.28
4 -2 4 60.85 4.46
4 -2 4 54.65 4.26
4 -2 4 64.09 4.29
-5 2 -4 33.54 3.1
5 -2 4 29.49 2.82
5 -2 4 36.96 2.77
5 -2 4 31.94 2.72
5 -2 4 34.26 2.72
-6 2 -4 14.1 1.98
-6 2 -4 12.32 1.65
-6 2 -4 10.81 1.53
6 -2 4 13.58 1.59
6 -2 4 14.4 1.59
6 -2 4 11.31 1.67
6 -2 4 12.15 1.57
-7 2 -4 17.74 2.36
7 -2 4 12.32 1.7
7 -2 4 12.17 1.59
7 -2 4 14.86 1.77
7 -2 4 12.94 1.87
-8 2 -4 22.88 2.89
8 -2 4 19.77 2.57
8 -2 4 18.76 2.27
8 -2 4 16.61 2.14
-9 2 -4 5.05 1.69
9 -2 4 4.69 1.22
9 -2 4 3.91 1.22
9 1 -4 17.26 2.45
9 1 -4 19.88 2.66
-9 -1 4 17.6 2.89
-9 -1 4 21.1 2.95
8 1 -4 2.72 1.04
8 1 -4 3.1 1.01
8 1 -4 1.8 0.9
-8 -1 4 1.88 1.02
-8 -1 4 2.62 1.11
7 1 -4 0.96 0.7
7 1 -4 1.16 0.69
7 1 -4 1.04 0.67
-7 -1 4 0.18 0.59
-7 -1 4 0.24 0.67
-7 -1 4 0.68 0.56
6 1 -4 19.59 2.09
6 1 -4 19.2 2.2
6 1 -4 13.48 1.77
6 1 -4 22.68 2.16
-6 -1 4 15.71 1.61
-6 -1 4 13.25 1.88
-6 -1 4 22.13 2.3
5 1 -4 80.01 5.73
5 1 -4 81.87 5.79
5 1 -4 79.98 5.99
-5 -1 4 88.9 5.5
-5 -1 4 86.8 6.03
4 1 -4 30.28 2.78
4 1 -4 37.92 2.84
4 1 -4 38.16 3.04
-4 -1 4 36.68 2.83
-4 -1 4 37.25 2.98
-4 -1 4 39.75 2.61
3 1 -4 26.58 2.17
3 1 -4 26.21 2.08
3 1 -4 26.33 2.02
-3 -1 4 26.21 1.82
-3 -1 4 29.39 2.13
-3 -1 4 26.73 1.97
-3 -1 4 22.61 2.09
2 1 -4 67.08 4.61
2 1 -4 72.25 4.46
2 1 -4 67.72 4.48
-2 -1 4 72.7 4.48
-2 -1 4 70.97 4.75
1 1 -4 240.29 14.99
1 1 -4 261.77 14.79
0 1 -4 206.91 11.89
0 1 -4 191.89 11.98
0 -1 4 208.66 11.87
0 -1 4 197.13 11.98
-1 1 -4 0.31 0.19
-1 1 -4 0.22 0.19
-1 1 -4 0.37 0.18
1 -1 4 0.07 0.15
1 -1 4 0.3 0.15
-2 1 -4 14.93 1.3
-2 1 -4 15.02 1.23
2 -1 4 13.16 1.15
2 -1 4 15.34 1.1
2 -1 4 14.17 1.16
2 -1 4 13.77 1.27
-3 1 -4 107.18 7.05
-3 1 -4 109.71 6.76
-3 1 -4 99.54 6.92
3 -1 4 108.76 6.61
3 -1 4 104.56 6.85
3 -1 4 103.53 6.69
-4 1 -4 77.87 5.64
-4 1 -4 90.04 6.07
-4 1 -4 89.42 5.97
4 -1 4 82.69 5.84
4 -1 4 87.63 5.63
4 -1 4 87.95 5.72
4 -1 4 80.9 5.63
-5 1 -4 2.46 0.81
-5 1 -4 2.71 0.73
-5 1 -4 2.87 0.98
5 -1 4 2.08 0.75
5 -1 4 2.77 0.8
5 -1 4 2.55 0.73
5 -1 4 2.59 0.74
-6 1 -4 0.12 0.41
-6 1 -4 0.68 0.61
6 -1 4 -0.12 0.37
6 -1 4 0.15 0.41
6 -1 4 0.12 0.44
6 -1 4 0.47 0.41
-7 1 -4 32.64 3.51
7 -1 4 28.53 2.83
7 -1 4 35.36 3.07
7 -1 4 28.39 3.07
-8 1 -4 22.05 3.1
8 -1 4 25.2 2.62
8 -1 4 21.91 2.63
9 0 -4 16.12 2.34
9 0 -4 16.25 2.39
9 0 -4 18.1 2.42
-9 0 4 18.67 2.54
-9 0 4 20.22 2.75
8 0 -4 -0.35 0.47
8 0 -4 0.86 0.61
8 0 -4 0.12 0.49
-8 0 4 0.8 0.65
-8 0 4 0.47 0.65
7 0 -4 10.74 1.64
7 0 -4 9.8 1.52
-7 0 4 7.67 1.8
-7 0 4 8.39 1.69
6 0 -4 47.61 3.84
6 0 -4 40.21 3.87
6 0 -4 48.64 3.78
-6 0 4 42.54 3.7
-6 0 4 45.74 3.44
-6 0 4 46.99 3.89
-6 0 4 50.44 3.93
5 0 -4 76.2 5.19
5 0 -4 68.28 5.32
5 0 -4 76.63 5.25
-5 0 4 76.25 5.26
-5 0 4 74.64 5.15
-5 0 4 64.14 4.84
-5 0 4 75.46 5.28
4 0 -4 2.5 0.67
4 0 -4 2.69 0.65
4 0 -4 2.91 0.75
-4 0 4 2.61 0.71
-4 0 4 2.88 0.75
-4 0 4 3.08 0.7
-4 0 4 3.4 0.64
3 0 -4 12.84 1.21
3 0 -4 14.63 1.25
3 0 -4 11.51 1.25
-3 0 4 13.14 1.1
-3 0 4 10.15 1.16
-3 0 4 11.39 1.19
-3 0 4 12.31 1.11
2 0 -4 136.48 8.34
-2 0 4 124.04 8.07
-2 0 4 130.6 8.23
-2 0 4 138.71 8.26
-2 0 4 143.04 8.03
1 0 -4 226.06 12.19
1 0 -4 198.77 12.35
1 0 -4 198.41 12.19
1 0 -4 220.27 12.13
1 0 -4 186.99 12.2
-1 0 4 198.99 12.25
-1 0 4 214.12 12.33
0 0 -4 18.1 1.25
0 0 -4 16.19 1.36
0 0 -4 20.72 1.31
0 0 -4 21.1 1.28
0 0 4 16.17 1.39
0 0 4 19.82 1.23
0 0 4 19 1.28
-1 0 -4 13.59 1.21
-1 0 -4 14.98 1.21
1 0 4 15.45 1.19
1 0 4 16.21 1.08
1 0 4 15.81 1.13
-2 0 -4 98.02 5.83
-2 0 -4 82.53 6.12
-2 0 -4 81.3 5.83
-2 0 -4 103.62 6.06
2 0 4 94.89 5.7
2 0 4 93.49 5.84
-3 0 -4 89.74 5.65
-3 0 -4 87.68 5.95
3 0 4 86.4 5.57
3 0 4 82.29 5.67
3 0 4 86.9 5.54
-4 0 -4 44.48 3.69
-4 0 -4 41.4 3.23
4 0 4 48.64 3.27
4 0 4 46.05 3.27
4 0 4 41.43 3.48
4 0 4 42.1 3.34
-5 0 -4 5.32 1.34
5 0 4 6.1 1.57
5 0 4 5.37 1.13
5 0 4 6.45 1.14
5 0 4 6.56 1.24
-6 0 -4 46.73 4.38
6 0 4 45.27 4.03
6 0 4 44.17 3.8
6 0 4 45.88 3.64
6 0 4 48.91 3.74
-7 0 -4 12.88 2.68
7 0 4 9.39 1.82
7 0 4 10.71 1.58
7 0 4 7.32 1.58
8 0 4 5.84 1.32
8 0 4 3.98 1.36
8 0 4 5.26 1.5
9 -1 -4 2.74 1.05
9 -1 -4 3.96 1.33
9 -1 -4 2.51 1.06
-9 1 4 1.91 1.01
-9 1 4 1.15 0.87
8 -1 -4 0.53 0.61
8 -1 -4 2.02 0.92
-8 1 4 1.58 0.9
-8 1 4 1.27 0.93
7 -1 -4 46.7 4.01
7 -1 -4 45.41 4.02
-7 1 4 47.94 4.09
-7 1 4 57.6 4.34
-7 1 4 42.88 3.93
6 -1 -4 64.45 4.79
6 -1 -4 63.59 4.85
-6 1 4 65.06 4.8
-6 1 4 60.09 4.54
-6 1 4 67.71 4.89
-6 1 4 64.44 4.92
5 -1 -4 11.05 1.33
5 -1 -4 10.27 1.32
5 -1 -4 9.12 1.61
-5 1 4 8.29 1.29
-5 1 4 12.94 1.4
-5 1 4 9.73 1.21
-5 1 4 10.59 1.32
4 -1 -4 4.47 1
4 -1 -4 6.44 0.88
4 -1 -4 5.24 0.93
-4 1 4 5.91 1.04
-4 1 4 4.18 0.78
-4 1 4 3.84 0.83
3 -1 -4 189.21 11.3
3 -1 -4 197.29 11.74
3 -1 -4 175.25 11.27
3 -1 -4 178.81 11.43
-3 1 4 154.46 11.19
-3 1 4 191.66 11.21
-3 1 4 188.52 11.22
-3 1 4 205.27 11.32
2 -1 -4 48.61 3.15
2 -1 -4 46.54 3.25
2 -1 -4 50.06 3.27
2 -1 -4 52.07 3.2
-2 1 4 41.2 3.13
-2 1 4 49.82 3.36
-2 1 4 49.82 3.08
1 -1 -4 80.11 4.5
1 -1 -4 69.1 4.53
1 -1 -4 74.59 4.5
-1 1 4 71.34 4.56
-1 1 4 78.42 4.92
-1 1 4 74.28 4.44
-1 1 4 65.36 4.49
-1 1 4 69.28 4.54
0 -1 -4 0.69 0.26
0 -1 -4 0.38 0.23
0 -1 -4 0.72 0.25
0 -1 -4 0.46 0.24
0 1 4 0.85 0.46
0 1 4 0.76 0.27
0 1 4 0.86 0.26
-1 -1 -4 145.85 9.39
-1 -1 -4 141.95 8.54
-1 -1 -4 161.72 8.73
-1 -1 -4 147.37 8.74
1 1 4 139.69 8.61
1 1 4 140.16 9.07
1 1 4 134.72 8.57
1 1 4 119.33 8.45
-2 -1 -4 138.56 9.08
-2 -1 -4 136.89 8.92
-2 -1 -4 147.7 8.79
2 1 4 150.42 8.72
2 1 4 138.39 8.69
-3 -1 -4 26.44 2.35
-3 -1 -4 28.54 2.62
-3 -1 -4 29.28 2.21
3 1 4 27.4 2.15
3 1 4 28.09 2.32
3 1 4 28.28 2.16
-4 -1 -4 0.55 0.56
-4 -1 -4 1.73 0.59
4 1 4 1.77 0.64
4 1 4 1.36 0.49
4 1 4 1.91 0.62
-5 -1 -4 11.03 1.35
-5 -1 -4 13.14 2.23
5 1 4 11.02 1.65
5 1 4 10.62 1.5
5 1 4 10.09 1.35
-6 -1 -4 52.18 4.87
6 1 4 50.66 3.96
6 1 4 49.96 4.22
6 1 4 51.2 4.5
-7 -1 -4 7.29 1.87
7 1 4 10.63 1.59
7 1 4 4.8 1.32
7 1 4 7.58 1.61
-8 -1 -4 1.3 1.1
8 1 4 -0.18 1.16
8 1 4 -0.95 0.88
8 1 4 0.54 0.78
9 -2 -4 4.67 1.37
9 -2 -4 5.41 1.48
-9 2 4 5.61 1.55
-9 2 4 6.65 1.63
8 -2 -4 14.56 1.95
8 -2 -4 12.06 1.94
-8 2 4 14.46 2.01
-8 2 4 15 2.01
-8 2 4 12.49 1.98
7 -2 -4 41.31 3.73
7 -2 -4 46 3.89
-7 2 4 45.9 3.97
-7 2 4 43.87 3.59
-7 2 4 43.67 3.76
-7 2 4 44.28 3.73
6 -2 -4 6.44 1.27
6 -2 -4 6.94 1.53
6 -2 -4 5.08 1.19
-6 2 4 5.26 1.06
-6 2 4 7.73 1.51
-6 2 4 8.36 1.15
-6 2 4 8.39 1.45
5 -2 -4 0 0.41
5 -2 -4 0.21 0.35
5 -2 -4 0.06 0.3
-5 2 4 -0.03 0.31
-5 2 4 0.05 0.4
-5 2 4 0.22 0.32
-5 2 4 0.32 0.4
4 -2 -4 9.44 1.13
4 -2 -4 9.46 1.16
4 -2 -4 10.05 1.34
-4 2 4 10.1 1.27
-4 2 4 11.46 1.19
-4 2 4 11.7 1.15
3 -2 -4 234.34 13.57
3 -2 -4 220.29 13.85
-3 2 4 212.36 13.46
-3 2 4 224.45 13.49
-3 2 4 254.34 13.69
-3 2 4 198.48 13.65
2 -2 -4 131.9 7.87
2 -2 -4 124.75 7.94
2 -2 -4 124.34 8.05
2 -2 -4 125.11 7.88
-2 2 4 126.04 8.02
-2 2 4 135.57 7.86
-2 2 4 133.65 8.02
1 -2 -4 23.42 1.6
1 -2 -4 21.37 1.66
1 -2 -4 21.33 1.55
1 -2 -4 20.4 1.59
-1 2 4 19.98 1.56
-1 2 4 22.46 1.67
-1 2 4 17.71 1.66
-1 2 4 22.86 1.57
0 -2 -4 56.66 3.81
0 -2 -4 53.94 3.8
0 -2 -4 57.97 3.76
0 -2 -4 62.81 3.82
0 2 4 60.57 3.79
0 2 4 59.98 3.78
0 2 4 55.31 3.72
-1 -2 -4 121.99 7.21
-1 -2 -4 116.18 7
-1 -2 -4 103.7 7.2
1 2 4 102.73 6.96
1 2 4 125.29 7.7
1 2 4 110.29 7.08
-2 -2 -4 40.67 3.4
-2 -2 -4 41.43 3.25
-2 -2 -4 45.2 3.03
2 2 4 38.81 3.12
2 2 4 47 3.63
2 2 4 45.87 3.01
2 2 4 43.87 3
-3 -2 -4 2.4 0.77
-3 -2 -4 2.8 0.62
-3 -2 -4 2.68 0.99
3 2 4 3.3 1.04
3 2 4 2.42 0.64
3 2 4 4.32 0.92
3 2 4 2.84 0.67
-4 -2 -4 18.73 1.75
-4 -2 -4 22.75 2.51
-4 -2 -4 16.48 2
4 2 4 18.87 1.75
4 2 4 18.73 1.99
4 2 4 18.43 1.76
-5 -2 -4 38.74 3.82
5 2 4 30.3 2.81
5 2 4 37.49 2.92
5 2 4 34.47 3.92
-6 -2 -4 16.49 3.02
6 2 4 18.93 2.01
6 2 4 16.36 2.14
6 2 4 17.45 2.47
-7 -2 -4 0.71 1.27
7 2 4 1.4 1.76
7 2 4 1.7 0.98
9 -3 -4 4.89 1.36
9 -3 -4 6.31 1.75
-9 3 4 7.92 1.78
-9 3 4 8.9 1.88
-9 3 4 6.2 1.59
8 -3 -4 20.1 2.27
8 -3 -4 17.9 2.32
-8 3 4 17.89 2.48
-8 3 4 20.27 2.27
-8 3 4 21.1 2.39
7 -3 -4 39.7 3.73
-7 3 4 42.82 3.53
-7 3 4 43.17 3.5
-7 3 4 40.04 3.55
-7 3 4 44.61 3.9
6 -3 -4 1.62 0.72
6 -3 -4 1.87 0.83
6 -3 -4 1.71 0.66
-6 3 4 0.56 0.48
-6 3 4 1.98 0.74
-6 3 4 1.65 0.68
-6 3 4 0.92 0.67
5 -3 -4 56.2 3.95
5 -3 -4 58.99 5.06
-5 3 4 52.65 3.79
-5 3 4 51.94 4.17
-5 3 4 54.36 4.02
-5 3 4 52.88 3.93
4 -3 -4 138.11 9.57
4 -3 -4 152.91 9.27
4 -3 -4 146.9 9.21
-4 3 4 141.74 9.07
-4 3 4 155.15 9.25
3 -3 -4 6.69 1.16
3 -3 -4 6.45 0.84
3 -3 -4 5.92 0.81
-3 3 4 6.61 0.75
-3 3 4 5.39 0.92
-3 3 4 5.88 0.83
-3 3 4 6.52 0.97
2 -3 -4 15.08 1.48
2 -3 -4 13.64 1.24
2 -3 -4 15.28 1.28
-2 3 4 13.82 1.31
-2 3 4 14.96 1.24
-2 3 4 14.34 1.28
-2 3 4 14.79 1.44
1 -3 -4 31.13 2.28
1 -3 -4 34.44 2.45
1 -3 -4 29.72 2.28
1 -3 -4 32.25 2.4
-1 3 4 32.41 2.32
-1 3 4 33.57 2.29
-1 3 4 30.71 2.39
0 -3 -4 113.11 6.74
0 -3 -4 105.33 6.76
0 3 4 111.83 6.69
0 3 4 94.09 6.63
-1 -3 -4 44.02 3.15
-1 -3 -4 44.4 3.35
-1 -3 -4 53.43 3.58
1 3 4 44.14 3.16
1 3 4 45.39 3.28
1 3 4 45.45 3.14
-2 -3 -4 18.09 1.94
-2 -3 -4 21.44 2.21
-2 -3 -4 17.14 1.68
2 3 4 23.35 2.37
2 3 4 20.24 1.88
2 3 4 19.13 1.68
2 3 4 20.6 1.68
-3 -3 -4 13.47 1.39
-3 -3 -4 16.33 2.03
-3 -3 -4 15.62 1.85
3 3 4 15.56 1.97
3 3 4 12.41 1.36
3 3 4 13.35 1.42
3 3 4 11.89 1.57
-4 -3 -4 39.76 3.72
-4 -3 -4 45.16 4.26
4 3 4 40.22 3.57
4 3 4 45.63 3.28
-5 -3 -4 31.77 3.61
5 3 4 26.73 2.89
5 3 4 30.97 2.64
-6 -3 -4 0.23 0.75
6 3 4 -0.39 0.6
6 3 4 1.65 0.87
6 3 4 1.15 0.82
9 -4 -4 20.46 2.52
9 -4 -4 22.48 2.5
-9 4 4 19.08 2.52
-9 4 4 20.4 2.77
-9 4 4 21.13 2.42
8 -4 -4 31.35 3.09
8 -4 -4 30.87 2.95
-8 4 4 33.25 3.14
-8 4 4 27.47 3.21
7 -4 -4 1.54 0.83
7 -4 -4 1.55 0.72
-7 4 4 0.71 0.71
-7 4 4 1.05 0.8
-7 4 4 1.76 0.66
6 -4 -4 6.75 1.26
6 -4 -4 6.09 1.2
6 -4 -4 8.37 1.75
-6 4 4 5.79 1.33
-6 4 4 5.33 1.2
-6 4 4 7.52 1.04
5 -4 -4 43.82 3.39
5 -4 -4 48.26 3.38
5 -4 -4 40.09 3.74
-5 4 4 44.9 3.85
-5 4 4 46.72 3.43
-5 4 4 39.76 3.61
-5 4 4 46.01 3.18
4 -4 -4 91.59 5.73
-4 4 4 85.47 5.7
-4 4 4 89.01 5.52
-4 4 4 85.29 5.86
-4 4 4 77.78 6.54
3 -4 -4 1.59 0.58
3 -4 -4 1.06 0.58
-3 4 4 1.66 0.47
-3 4 4 1.95 0.59
-3 4 4 1.06 0.49
-3 4 4 1.91 0.66
2 -4 -4 10.86 1.14
2 -4 -4 11.41 1.35
-2 4 4 11.17 1.15
-2 4 4 10.5 1.32
-2 4 4 10.35 1.07
-2 4 4 10.72 1.17
1 -4 -4 58.77 3.59
1 -4 -4 51.09 3.52
-1 4 4 50.75 3.46
-1 4 4 46.04 3.57
-1 4 4 45.47 3.46
0 -4 -4 113.71 7.29
0 -4 -4 121.74 7.23
0 -4 -4 109.73 7.15
0 4 4 96.03 7.06
0 4 4 118.21 7.15
-1 -4 -4 9.72 1.3
-1 -4 -4 11.08 1.4
-1 -4 -4 9.33 1.08
1 4 4 8.77 1.11
1 4 4 8.66 1.2
1 4 4 6.52 1.45
-2 -4 -4 3.16 1
-2 -4 -4 4.82 0.91
-2 -4 -4 3.97 1.05
2 4 4 4.25 0.78
2 4 4 6.23 1.2
2 4 4 4.34 0.86
-3 -4 -4 39.6 4.24
-3 -4 -4 32.8 3.16
3 4 4 32.94 2.96
3 4 4 32.32 2.63
3 4 4 30.03 2.55
3 4 4 34.36 3.42
-4 -4 -4 28.17 3.37
4 4 4 28.17 2.55
4 4 4 34.56 3.07
4 4 4 28.93 3.21
-5 -4 -4 4.77 1.58
5 4 4 4.28 1.21
5 4 4 2.58 0.86
-6 -4 -4 -0.59 0.81
6 4 4 0.77 0.76
6 4 4 -0.78 0.77
6 4 4 0.32 1.13
9 -5 -4 8.19 1.67
9 -5 -4 8.61 2.2
-9 5 4 5.84 2.37
-9 5 4 8.65 1.59
-9 5 4 9.37 1.89
8 -5 -4 2.12 0.82
8 -5 -4 2.93 0.96
-8 5 4 1.19 0.87
-8 5 4 2.59 1.03
-8 5 4 2.44 0.87
7 -5 -4 11.81 1.51
7 -5 -4 10.98 1.59
-7 5 4 11.21 1.37
-7 5 4 7.96 1.77
-7 5 4 9 1.59
6 -5 -4 19.7 1.99
6 -5 -4 18.98 2.26
-6 5 4 16.13 1.92
-6 5 4 17.41 2.24
-6 5 4 17.96 1.66
-6 5 4 16.84 1.95
5 -5 -4 36.38 2.86
5 -5 -4 37.21 2.83
5 -5 -4 32.21 3.27
-5 5 4 34.58 3.23
-5 5 4 36.09 2.6
-5 5 4 33.86 2.84
4 -5 -4 17.4 1.66
4 -5 -4 16.28 2.13
-4 5 4 15.28 1.89
-4 5 4 16.79 1.68
-4 5 4 17.16 1.46
3 -5 -4 0.86 0.59
3 -5 -4 0.99 0.52
3 -5 -4 0.1 0.35
-3 5 4 1.15 0.58
-3 5 4 0.5 0.38
-3 5 4 0.58 0.43
-3 5 4 0.13 0.46
2 -5 -4 76.38 5.44
2 -5 -4 89.07 5.92
2 -5 -4 88.56 5.53
-2 5 4 89.22 5.5
-2 5 4 75.27 5.72
1 -5 -4 71.58 5.33
1 -5 -4 81.83 5.31
1 -5 -4 77.61 5.19
-1 5 4 80.4 5.38
-1 5 4 76.14 5.14
0 -5 -4 13.44 1.61
0 -5 -4 13.52 2.61
0 -5 -4 15.22 1.61
0 5 4 13.06 1.48
0 5 4 11.39 1.41
-1 -5 -4 0.78 0.59
-1 -5 -4 0.18 0.5
-1 -5 -4 0.16 0.39
1 5 4 -0.31 0.41
1 5 4 0.07 0.34
1 5 4 1 0.55
-2 -5 -4 29.55 3.14
-2 -5 -4 44.71 3.7
2 5 4 38 2.92
-3 -5 -4 17.63 2.41
-3 -5 -4 9.95 1.93
3 5 4 13.11 1.82
3 5 4 14.8 2.27
3 5 4 14.71 1.69
-4 -5 -4 19.31 2.79
4 5 4 18.24 2.63
4 5 4 14.8 2.19
-5 -5 -4 0.02 0.96
5 5 4 0.6 0.71
9 -6 -4 3.38 1.11
9 -6 -4 5.6 1.29
-9 6 4 5.16 1.12
-9 6 4 7.65 2.2
8 -6 -4 0.29 0.65
8 -6 -4 1.47 1.38
-8 6 4 0.36 0.52
-8 6 4 0.36 0.9
-8 6 4 1.09 0.83
7 -6 -4 8.48 1.54
7 -6 -4 9.24 1.35
-7 6 4 8.37 1.49
-7 6 4 8.73 1.12
-7 6 4 6.67 1.71
6 -6 -4 71.8 4.67
6 -6 -4 73.76 5.18
6 -6 -4 74.12 5.24
-6 6 4 65.78 5.18
-6 6 4 75.42 5.89
-6 6 4 78.83 4.92
5 -6 -4 13.27 1.58
-5 6 4 12.16 1.62
-5 6 4 13.96 1.32
-5 6 4 12.19 1.84
-5 6 4 13.44 1.8
4 -6 -4 8.21 1.65
4 -6 -4 9.29 1.22
4 -6 -4 8.75 1.22
-4 6 4 9.79 1.33
-4 6 4 8.55 1.04
-4 6 4 9.23 1.31
-4 6 4 8.64 1.64
3 -6 -4 21.15 1.91
3 -6 -4 20.12 1.86
3 -6 -4 17.67 2.26
-3 6 4 19.73 2.23
-3 6 4 18.67 1.83
-3 6 4 20.67 1.99
2 -6 -4 47.4 3.8
2 -6 -4 48.6 3.48
2 -6 -4 50.66 3.44
-2 6 4 46.39 3.48
-2 6 4 39.75 3.27
-2 6 4 38.44 3.59
1 -6 -4 15.21 1.77
1 -6 -4 14.57 1.61
1 -6 -4 15.06 1.7
-1 6 4 13.86 1.56
-1 6 4 14.5 1.77
0 -6 -4 -0.31 0.49
0 -6 -4 0.02 0.47
0 6 4 -0.19 0.41
0 6 4 0.62 0.41
0 6 4 0.1 0.48
-1 -6 -4 2.5 0.84
-1 -6 -4 2.02 0.92
1 6 4 2.68 0.91
1 6 4 3.72 0.9
-2 -6 -4 54.27 4.78
-2 -6 -4 44.6 4.33
2 6 4 53.58 4.33
2 6 4 60.33 4.1
-3 -6 -4 24.95 2.82
-3 -6 -4 23.71 3.09
3 6 4 17.85 2.8
3 6 4 23.2 2.6
-4 -6 -4 -0.07 1.04
-4 -6 -4 -0.01 0.89
4 6 4 1.85 1.52
4 6 4 0.6 0.83
4 6 4 1.4 1.04
8 -7 -4 14.99 2.17
8 -7 -4 12.85 1.45
-8 7 4 17.98 3.06
-8 7 4 18.48 1.73
-8 7 4 18.02 2.21
7 -7 -4 6.6 0.87
7 -7 -4 7.16 1.38
-7 7 4 7.27 2.78
-7 7 4 5.54 1.36
-7 7 4 8 1.05
6 -7 -4 15.89 1.8
6 -7 -4 17.64 1.95
-6 7 4 16.4 1.95
-6 7 4 18.06 1.6
-6 7 4 18.34 2.53
5 -7 -4 0.62 0.54
5 -7 -4 -0.26 0.56
-5 7 4 -0.08 0.5
-5 7 4 0.61 0.74
4 -7 -4 6.54 1.15
4 -7 -4 7.15 1.23
-4 7 4 6.9 1.23
-4 7 4 7.23 1.56
3 -7 -4 29.66 2.59
3 -7 -4 36.86 2.82
-3 7 4 24.39 2.88
-3 7 4 33.85 2.66
2 -7 -4 35.12 2.94
-2 7 4 31.5 2.72
1 -7 -4 2.99 1.02
1 -7 -4 3.49 0.96
-1 7 4 3.01 1.05
-1 7 4 3.91 0.97
0 -7 -4 20.82 2.19
0 -7 -4 16.02 2.2
0 7 4 18.35 2.18
0 7 4 20.61 2.12
-1 -7 -4 40.29 3.58
-1 -7 -4 32.69 3.66
1 7 4 39.47 3.3
1 7 4 40.37 3.47
-2 -7 -4 2.89 1.08
-2 -7 -4 -0.24 0.66
2 7 4 0.61 0.7
2 7 4 0.47 0.65
-3 -7 -4 1.72 1.05
-3 -7 -4 1.12 1.2
3 7 4 2.51 1.01
3 7 4 2.33 1.15
7 -8 -4 18.47 2.16
-7 8 4 22.56 1.83
-7 8 4 20.49 2.96
-7 8 4 17.43 2.21
6 -8 -4 -0.4 0.57
6 -8 -4 1.16 0.72
-6 8 4 0.34 0.65
-6 8 4 -0.87 0.74
5 -8 -4 1.39 0.71
5 -8 -4 1.16 0.82
-5 8 4 1.34 1.06
-5 8 4 1.25 0.75
4 -8 -4 21.89 2.27
4 -8 -4 25.76 2.45
-4 8 4 26.59 2.38
3 -8 -4 36.96 3.23
3 -8 -4 39.85 3.35
-3 8 4 40.2 4.56
2 -8 -4 1.35 0.77
2 -8 -4 -0.76 0.53
-2 8 4 0.53 0.6
-2 8 4 1.07 0.97
1 -8 -4 2.05 0.91
1 -8 -4 2.06 1
-1 8 4 2.6 1.08
-1 8 4 1.43 0.72
0 -8 -4 6.35 1.57
0 -8 -4 6.28 1.41
0 8 4 6.9 1.42
0 8 4 7.42 1.56
6 -9 -4 8.43 1.48
6 -9 -4 6.38 1.4
-6 9 4 7.25 1.5
-6 9 4 3.3 2.68
5 -9 -4 15.74 2.02
-5 9 4 17.51 3.01
4 -9 -4 4.49 1.27
4 -9 -4 5.6 1.3
-4 9 4 6.27 1.34
-4 9 4 3.55 1.33
3 -9 -4 3.14 1.1
3 -9 -4 1.45 0.86
-3 9 4 1.57 0.77
-3 9 4 1.99 1.17
2 -9 -4 2.57 1.54
2 -9 -4 0.85 0.82
-2 9 4 -0.88 0.83
1 -9 -4 4.63 1.39
-1 9 4 5.64 1.99
-1 9 4 4.82 1.23
0 11 -5 6.84 1.79
-1 11 -5 3.34 0.98
-2 11 -5 1.8 0.88
-3 11 -5 -0.32 0.57
-4 11 -5 5.41 1.33
-5 11 -5 23.14 2.36
5 -11 5 15.69 1.7
2 10 -5 0.48 0.68
-2 -10 5 -0.02 0.48
1 10 -5 14.32 1.78
-1 -10 5 13.47 1.32
0 10 -5 13.24 1.61
-1 10 -5 8.93 1.4
-1 10 -5 7.87 1.54
-2 10 -5 0.9 0.72
-2 10 -5 1.71 0.85
2 -10 5 2.23 0.69
-3 10 -5 15.33 1.99
-3 10 -5 14.11 1.82
3 -10 5 14.98 1.58
-4 10 -5 0.34 0.62
-4 10 -5 0.78 0.79
4 -10 5 0.64 0.75
4 -10 5 0.51 0.45
-5 10 -5 20.53 2.35
5 -10 5 24.05 1.93
5 -10 5 18.59 2.34
-6 10 -5 1.24 0.88
6 -10 5 -0.43 1.05
6 -10 5 0.43 0.46
6 -10 5 0.5 0.49
-7 10 -5 7.8 2.32
7 -10 5 8.42 1.27
3 9 -5 0.02 0.64
-3 -9 5 0.23 0.73
2 9 -5 14.07 1.77
-2 -9 5 12.24 1.53
1 9 -5 10.44 1.4
1 9 -5 11.76 1.52
-1 -9 5 11.17 1.22
0 -9 5 6.76 1.23
0 -9 5 7.18 0.71
-1 9 -5 4.16 0.81
-1 9 -5 4.94 0.95
-1 9 -5 6.25 1.18
1 -9 5 4.43 0.92
-2 9 -5 5.63 1
-2 9 -5 6.33 1.17
-2 9 -5 6.34 1.16
-2 9 -5 8.12 1.43
2 -9 5 6.13 0.99
-3 9 -5 36.61 3.51
-3 9 -5 40.43 3.36
-3 9 -5 46.91 3.23
3 -9 5 34.78 2.8
3 -9 5 33.44 2.99
3 -9 5 37.83 2.73
-4 9 -5 47.82 4.13
-4 9 -5 49.27 3.98
4 -9 5 42.87 3.49
4 -9 5 52.56 4.01
4 -9 5 44.62 3.6
-5 9 -5 6.48 1.47
-5 9 -5 4.96 1.22
5 -9 5 4.99 0.86
5 -9 5 6.64 1.04
5 -9 5 4.35 1.12
5 -9 5 5.15 0.92
-6 9 -5 14.53 2.36
-6 9 -5 12.06 2.2
6 -9 5 10.68 1.32
6 -9 5 13.86 1.58
6 -9 5 11.34 1.28
-7 9 -5 6.01 1.52
7 -9 5 4.45 1.3
7 -9 5 4.33 0.91
7 -9 5 4.92 0.89
-8 9 -5 2.52 1.25
8 -9 5 3.64 0.97
8 -9 5 2.86 0.74
4 8 -5 1.2 0.68
-4 -8 5 1.49 0.86
-4 -8 5 -0.26 0.7
3 8 -5 7.44 1.18
-3 -8 5 6.17 1.34
-3 -8 5 6.35 1.27
2 8 -5 28.76 2.48
2 8 -5 27.43 3.24
-2 -8 5 26.98 2.47
-2 -8 5 26.3 2.47
1 8 -5 24.07 2
1 8 -5 21.31 1.98
1 8 -5 25.54 2.13
1 8 -5 22.55 1.85
-1 -8 5 17.54 2.36
-1 -8 5 26.5 2.01
-1 -8 5 19.75 2.11
0 8 -5 8.28 1.13
0 8 -5 8.34 1.13
0 8 -5 7.07 0.95
0 -8 5 7.8 1.11
0 -8 5 7.01 0.79
-1 8 -5 34.19 2.5
-1 8 -5 30.53 2.63
-1 8 -5 29.6 2.48
1 -8 5 34.35 2.49
-2 8 -5 47.66 3.69
-2 8 -5 52.79 3.96
-2 8 -5 59.71 3.84
-2 8 -5 44.05 3.82
2 -8 5 57.67 3.55
2 -8 5 52.76 3.58
-3 8 -5 5.36 1.03
-3 8 -5 5.3 1.09
-3 8 -5 4.08 1
3 -8 5 5.58 0.83
3 -8 5 5.87 0.88
3 -8 5 5.73 0.75
3 -8 5 3.74 0.78
-4 8 -5 4.57 1.12
-4 8 -5 7.46 1.41
-4 8 -5 7.08 1.26
4 -8 5 7.88 0.95
4 -8 5 7.74 0.93
4 -8 5 6.02 1.14
4 -8 5 6.29 0.98
-5 8 -5 8.33 1.78
-5 8 -5 8.03 1.54
-5 8 -5 4.79 1.17
5 -8 5 7.45 1.09
5 -8 5 5.79 0.85
5 -8 5 5.53 1.17
-6 8 -5 13.02 1.83
-6 8 -5 13.51 2.91
6 -8 5 12.56 1.21
6 -8 5 12.41 1.37
6 -8 5 11.4 1.74
6 -8 5 9.38 1.79
-7 8 -5 21.29 2.61
-7 8 -5 18.06 2.42
-7 8 -5 21.29 1.71
7 -8 5 20.36 1.71
7 -8 5 18.93 2.11
7 -8 5 17.78 1.87
7 -8 5 16.64 2.09
-8 8 -5 2.26 0.73
-8 8 -5 0.7 0.95
8 -8 5 0.89 0.56
8 -8 5 1.46 0.65
8 -8 5 1.27 1.03
5 7 -5 -0.49 0.5
5 7 -5 0.57 0.73
-5 -7 5 -0.79 0.68
-5 -7 5 -0.91 0.68
-5 -7 5 -0.19 0.66
4 7 -5 -0.34 0.54
4 7 -5 0.45 0.5
-4 -7 5 0.88 0.55
-4 -7 5 0.29 0.63
-4 -7 5 -0.53 0.57
3 7 -5 38.94 3.02
-3 -7 5 38.83 3.44
-3 -7 5 42.02 3.35
-3 -7 5 45.19 3.28
-3 -7 5 39.58 3.43
2 7 -5 47.86 3.65
2 7 -5 49.5 3.32
2 7 -5 43.3 3.87
2 7 -5 55.88 3.48
-2 -7 5 45.42 3.72
-2 -7 5 46.89 3.4
1 7 -5 1.68 0.57
1 7 -5 0.47 0.5
1 7 -5 1.62 0.56
1 7 -5 1.85 0.49
-1 -7 5 1.72 0.56
-1 -7 5 1.36 0.51
0 7 -5 16.68 1.55
0 7 -5 18.83 1.66
0 7 -5 17.72 1.53
0 7 -5 20.51 1.63
0 -7 5 17.47 1.42
0 -7 5 20.32 1.68
-1 7 -5 40.54 3.37
-1 7 -5 49.6 3.32
-1 7 -5 46.24 3.4
-1 7 -5 49.11 3.28
1 -7 5 50.49 3.24
-2 7 -5 24.06 2.11
-2 7 -5 25.6 2.08
-2 7 -5 21.26 1.96
-2 7 -5 25.18 1.98
2 -7 5 24.79 1.82
2 -7 5 22.99 1.81
-3 7 -5 18.08 1.91
-3 7 -5 20.76 1.8
-3 7 -5 14.99 1.79
3 -7 5 21.57 1.6
3 -7 5 21.34 1.62
-4 7 -5 11.23 1.45
-4 7 -5 8.14 1.3
-4 7 -5 10.35 1.22
4 -7 5 7.79 0.91
4 -7 5 8.11 1.1
4 -7 5 10.43 1.05
4 -7 5 10.24 1.13
-5 7 -5 14.4 1.81
-5 7 -5 16.03 1.16
-5 7 -5 17.14 1.87
-5 7 -5 18.54 2.08
5 -7 5 16.44 1.51
5 -7 5 14.08 1.57
5 -7 5 16.74 1.34
5 -7 5 12.36 1.82
-6 7 -5 21.08 2.56
-6 7 -5 21.13 2.42
6 -7 5 19.79 2.11
6 -7 5 22.68 1.76
6 -7 5 22.93 2.25
6 -7 5 23.29 1.99
-7 7 -5 9.73 2.04
-7 7 -5 11.43 2.22
7 -7 5 8.76 1.53
7 -7 5 6.01 1.32
7 -7 5 7.31 1.29
8 -7 5 0.04 0.43
8 -7 5 0.82 0.95
6 6 -5 9.96 2.02
6 6 -5 7.5 1.27
6 6 -5 6.2 1.69
-6 -6 5 9.06 2.06
-6 -6 5 6.51 1.24
5 6 -5 5.64 1.4
5 6 -5 9.2 1.22
5 6 -5 5.63 1.42
-5 -6 5 6.8 1.4
-5 -6 5 7.52 1.19
-5 -6 5 4.99 1.37
4 6 -5 66.77 4.91
-4 -6 5 64.18 4.96
-4 -6 5 59.7 4.65
-4 -6 5 59.99 4.17
3 6 -5 14.67 1.4
3 6 -5 13.9 1.27
3 6 -5 11.37 1.52
3 6 -5 12.77 1.53
-3 -6 5 15.81 1.61
-3 -6 5 11.02 1.51
-3 -6 5 14.41 1.31
-3 -6 5 14.15 1.72
2 6 -5 1.65 0.56
2 6 -5 1.46 0.45
2 6 -5 2 0.55
2 6 -5 1.49 0.55
-2 -6 5 1.71 0.63
-2 -6 5 1.9 0.61
1 6 -5 -0.41 0.2
1 6 -5 -0.19 0.28
1 6 -5 0.15 0.31
1 6 -5 0.35 0.29
-1 -6 5 -0.39 0.24
-1 -6 5 -0.16 0.31
0 6 -5 43.46 2.77
0 6 -5 38.97 2.74
0 6 -5 39.12 2.69
0 6 -5 38.32 2.71
0 -6 5 36.27 3.03
0 -6 5 37.68 2.61
-1 6 -5 54.98 4.28
-1 6 -5 73.76 4.38
-1 6 -5 70.19 4.29
-1 6 -5 68.27 4.4
1 -6 5 68.98 4.24
1 -6 5 68.47 4.22
1 -6 5 60.33 4.07
-2 6 -5 38.34 2.21
-2 6 -5 31.03 2.46
-2 6 -5 31.76 2.53
2 -6 5 31.6 2.3
2 -6 5 32.94 2.28
-3 6 -5 0.05 0.35
-3 6 -5 0.32 0.17
-3 6 -5 -0.33 0.25
-3 6 -5 0.59 0.43
3 -6 5 0.23 0.26
3 -6 5 0.32 0.3
-4 6 -5 64.41 4.67
-4 6 -5 64.58 4.8
-4 6 -5 60.69 4.03
-4 6 -5 62.1 4.51
4 -6 5 65.53 4.05
4 -6 5 69.78 4.45
4 -6 5 61.65 4.35
4 -6 5 69.2 4.3
-5 6 -5 26.27 2.54
-5 6 -5 24.33 2.39
-5 6 -5 26.68 2.7
-5 6 -5 27.73 2.09
5 -6 5 27.58 2.31
5 -6 5 27.17 2.15
5 -6 5 25.6 2.32
5 -6 5 28.28 1.95
-6 6 -5 21.15 2.16
-6 6 -5 19.5 2.2
-6 6 -5 16.44 2.22
6 -6 5 16.76 1.91
6 -6 5 17.91 1.93
6 -6 5 19.65 2.02
6 -6 5 19.98 1.62
-7 6 -5 0.82 0.59
-7 6 -5 0.07 0.51
7 -6 5 0.69 0.53
7 -6 5 0.18 0.47
7 -6 5 1.13 0.68
-8 6 -5 12.45 1.99
-8 6 -5 12.29 2.3
8 -6 5 10.02 1.7
8 -6 5 12.93 1.84
8 -6 5 10.09 1.91
8 -6 5 7.26 1.32
-9 6 -5 4.14 1.5
9 -6 5 3.63 0.93
7 5 -5 1.77 0.92
7 5 -5 2.83 1.2
-7 -5 5 0.68 0.91
-7 -5 5 0.9 0.96
6 5 -5 9.45 1.44
6 5 -5 14.66 1.99
6 5 -5 7.36 1.79
-6 -5 5 8.77 1.88
-6 -5 5 11.46 1.96
-6 -5 5 10.09 1.2
5 5 -5 3.42 1.58
5 5 -5 4.14 0.91
5 5 -5 3.26 1.04
-5 -5 5 2.61 0.65
-5 -5 5 4.92 1.17
-5 -5 5 4.7 1.4
4 5 -5 48 3.54
4 5 -5 43.44 3.08
4 5 -5 43.76 3.58
-4 -5 5 33 3.17
-4 -5 5 40.04 3.56
3 5 -5 37 2.79
3 5 -5 32.82 2.75
3 5 -5 35.94 2.5
-3 -5 5 32.84 2.9
-3 -5 5 32.33 2.35
-3 -5 5 32.4 2.64
2 5 -5 -0.02 0.28
2 5 -5 0.21 0.23
2 5 -5 0.27 0.31
2 5 -5 0.06 0.28
-2 -5 5 0.34 0.41
1 5 -5 66.96 4.37
1 5 -5 70.07 4.48
1 5 -5 69.36 4.4
1 5 -5 73.36 4.35
-1 -5 5 64.48 4.54
-1 -5 5 69.43 4.49
0 5 -5 147.13 8.25
0 5 -5 142.1 8.25
0 5 -5 130.09 8.26
0 5 -5 144.06 8.23
0 -5 5 136.51 8.24
0 -5 5 114.5 8.17
-1 5 -5 8.84 0.96
-1 5 -5 11.8 1.07
1 -5 5 12.73 1
1 -5 5 12.68 0.94
1 -5 5 10.43 0.9
-2 5 -5 0.04 0.13
-2 5 -5 -0.13 0.25
-2 5 -5 -0.02 0.2
-2 5 -5 0.12 0.19
2 -5 5 -0.17 0.22
2 -5 5 -0.02 0.2
-3 5 -5 23.24 1.86
-3 5 -5 19.58 2.04
-3 5 -5 22.7 1.97
-3 5 -5 22.95 1.63
3 -5 5 25.18 1.86
3 -5 5 26.19 1.81
-4 5 -5 31.35 2.64
-4 5 -5 33.08 2.56
-4 5 -5 32.35 2.84
-4 5 -5 30.5 2.2
4 -5 5 33.19 2.39
4 -5 5 27.2 2.57
4 -5 5 32.45 2.09
4 -5 5 30.77 2.32
-5 5 -5 51.66 3.99
-5 5 -5 52.23 4.24
-5 5 -5 50.46 4.4
5 -5 5 49.31 3.81
5 -5 5 51.3 3.59
5 -5 5 49.69 3.69
5 -5 5 52.26 3.4
-6 5 -5 6.89 1.52
-6 5 -5 6.4 1.39
-6 5 -5 5.48 1.14
6 -5 5 6.19 0.89
6 -5 5 4.95 1.07
6 -5 5 4.6 1.1
-7 5 -5 10.14 2.11
7 -5 5 9.79 1.42
7 -5 5 9.45 1.54
7 -5 5 8.7 1.19
-8 5 -5 22.66 2.98
8 -5 5 22.23 2.45
8 -5 5 21.45 2.58
8 -5 5 24.38 2.2
-9 5 -5 20.45 2.92
9 -5 5 21.49 2.23
7 4 -5 0.67 0.93
7 4 -5 1.01 0.73
7 4 -5 0.88 0.68
-7 -4 5 0.9 0.62
-7 -4 5 1.48 0.93
6 4 -5 16.4 1.78
6 4 -5 18.4 2.1
6 4 -5 13.11 1.93
-6 -4 5 13.98 2.13
-6 -4 5 10.73 1.55
-6 -4 5 14.33 2.11
5 4 -5 49.27 4.05
5 4 -5 53.23 4.21
5 4 -5 58.07 3.91
5 4 -5 42.95 4.04
-5 -4 5 51.32 3.45
-5 -4 5 50.61 4
-5 -4 5 52.11 4.33
4 4 -5 23.75 2.16
4 4 -5 22.97 1.95
4 4 -5 21.39 2.18
-4 -4 5 21.59 2.06
-4 -4 5 21.89 1.67
-4 -4 5 22.73 2.32
3 4 -5 0.34 0.35
3 4 -5 0.52 0.41
3 4 -5 0.13 0.33
3 4 -5 0.73 0.37
-3 -4 5 0.6 0.49
-3 -4 5 0.77 0.41
-3 -4 5 0.66 0.3
2 4 -5 43.91 3.08
2 4 -5 48.25 3.07
2 4 -5 46.84 3.33
2 4 -5 50.72 3.21
-2 -4 5 45.81 3.42
1 4 -5 67.65 4.07
1 4 -5 68.58 4.24
1 4 -5 69.85 4.16
1 4 -5 66.65 4.1
-1 -4 5 63.83 4.34
-1 -4 5 59.1 4.14
0 4 -5 38.37 2.54
0 4 -5 37.87 2.55
0 4 -5 41.11 2.57
0 4 -5 38.28 2.75
0 4 -5 37.93 2.65
0 -4 5 45.36 2.56
0 -4 5 41.13 2.66
-1 4 -5 68.78 4.26
-1 4 -5 63.82 3.88
-1 4 -5 66.77 4.03
-1 4 -5 52.8 3.95
-1 4 -5 56.97 4.02
1 -4 5 66.43 3.99
1 -4 5 68.66 3.87
1 -4 5 65.49 4.02
-2 4 -5 21.59 1.61
-2 4 -5 22.76 1.84
-2 4 -5 22.68 1.58
-2 4 -5 22.48 1.72
2 -4 5 22.69 1.62
2 -4 5 22.88 1.63
-3 4 -5 146.51 9.4
-3 4 -5 153.8 9.52
-3 4 -5 153.41 9.24
-3 4 -5 156.52 9.72
3 -4 5 148.73 9.4
3 -4 5 156.07 9.31
-4 4 -5 52.19 4.1
-4 4 -5 57.16 3.95
-4 4 -5 48.73 3.78
4 -4 5 52.26 3.6
4 -4 5 51.87 3.59
4 -4 5 54.36 3.84
4 -4 5 54.63 3.41
-5 4 -5 12.58 1.74
-5 4 -5 11.38 1.68
-5 4 -5 13.68 1.65
5 -4 5 13.89 1.48
5 -4 5 13.21 1.26
5 -4 5 15.17 1.66
-6 4 -5 25.1 2.85
-6 4 -5 28.68 2.59
6 -4 5 25.32 2.4
6 -4 5 26.98 2.6
6 -4 5 29.05 2.3
-7 4 -5 29.56 3.36
7 -4 5 34.86 2.87
7 -4 5 24.31 2.75
7 -4 5 34.8 2.75
7 -4 5 37.65 3.27
-8 4 -5 1.32 0.85
-8 4 -5 2.33 1.06
8 -4 5 1.42 0.72
8 -4 5 2.07 0.99
-9 4 -5 3.01 1.37
9 -4 5 4.14 1.1
8 3 -5 0.25 0.76
8 3 -5 1.57 1.03
-8 -3 5 0.98 0.91
-8 -3 5 3.31 1.08
7 3 -5 8.05 1.72
7 3 -5 9.86 1.88
-7 -3 5 11.53 1.25
-7 -3 5 8 1.68
-7 -3 5 12.45 2.37
6 3 -5 32.7 2.75
6 3 -5 24.88 2.72
6 3 -5 27.87 2.87
-6 -3 5 30.3 2.24
-6 -3 5 30.69 3.09
-6 -3 5 24.75 2.68
5 3 -5 36.72 3.25
5 3 -5 40.01 3.38
5 3 -5 36.02 3.03
-5 -3 5 40.08 3.19
-5 -3 5 37.91 2.65
-5 -3 5 38.67 3.44
4 3 -5 0.05 0.36
4 3 -5 0.59 0.43
4 3 -5 0.29 0.38
4 3 -5 0.44 0.38
-4 -3 5 0.24 0.45
-4 -3 5 0.67 0.49
-4 -3 5 0.56 0.28
3 3 -5 6.86 1.02
3 3 -5 6.45 0.93
3 3 -5 7.55 0.9
3 3 -5 7.29 0.86
-3 -3 5 7.01 1.06
-3 -3 5 7.33 0.65
2 3 -5 71.18 4.86
2 3 -5 66.93 4.63
2 3 -5 79.57 4.84
2 3 -5 76.06 4.63
-2 -3 5 78.54 5
1 3 -5 208.23 12.13
1 3 -5 198.77 12.4
0 3 -5 1.33 0.37
0 3 -5 1.01 0.26
0 -3 5 0.97 0.32
0 -3 5 1.17 0.28
-1 3 -5 5.16 0.56
-1 3 -5 4.79 0.59
1 -3 5 6.14 0.7
1 -3 5 5.82 0.59
-2 3 -5 147.02 9.45
-2 3 -5 157.64 9.55
-2 3 -5 155.18 9.38
-2 3 -5 158.42 9.4
2 -3 5 159.29 9.39
-3 3 -5 117.63 7.17
-3 3 -5 108.92 7.32
3 -3 5 111.19 7
3 -3 5 116.02 6.85
3 -3 5 108.57 6.77
3 -3 5 115.59 7.19
-4 3 -5 5.63 0.99
-4 3 -5 8.44 1.2
4 -3 5 5.91 0.87
4 -3 5 6.1 0.76
4 -3 5 6.6 0.98
4 -3 5 6.6 0.83
-5 3 -5 17.54 2.07
5 -3 5 17.5 1.63
5 -3 5 20.07 1.75
5 -3 5 16.26 1.86
-6 3 -5 18.96 2.33
-6 3 -5 19.12 1.98
6 -3 5 19.27 1.82
6 -3 5 16.64 1.88
6 -3 5 17.72 2.06
6 -3 5 16.72 1.8
-7 3 -5 15.44 2.15
-7 3 -5 17.09 2.86
7 -3 5 16.58 2.01
7 -3 5 13.25 1.75
7 -3 5 14.63 1.74
7 -3 5 12.24 1.88
-8 3 -5 12.58 2.41
8 -3 5 13.54 1.75
8 -3 5 13.65 2.08
8 -3 5 12.38 1.83
-9 3 -5 1.55 1.05
9 -3 5 1.11 0.74
9 -3 5 0.82 0.72
8 2 -5 1.97 0.95
8 2 -5 3.65 1.29
8 2 -5 3.31 1.05
-8 -2 5 4.01 1.54
-8 -2 5 1.45 0.87
7 2 -5 20.64 2.34
7 2 -5 27.51 2.72
7 2 -5 23.39 2.62
-7 -2 5 23.95 2.07
-7 -2 5 23.03 2.78
-7 -2 5 19.24 2.4
6 2 -5 23.86 2.49
6 2 -5 23.35 2.61
6 2 -5 27.83 2.66
6 2 -5 27.42 2.8
-6 -2 5 28.46 2.91
-6 -2 5 32.7 2.77
-6 -2 5 29.89 2.22
5 2 -5 16.61 1.81
5 2 -5 16.67 1.79
5 2 -5 18.13 1.94
-5 -2 5 19.18 1.74
-5 -2 5 16.15 1.97
-5 -2 5 16.96 1.8
4 2 -5 2.52 0.69
4 2 -5 2.15 0.6
4 2 -5 2.42 0.64
4 2 -5 3.08 0.89
-4 -2 5 1.91 0.43
-4 -2 5 2.77 0.65
-4 -2 5 3.02 0.89
3 2 -5 147.96 9.2
3 2 -5 146.69 9.19
3 2 -5 155.24 9.33
3 2 -5 149.39 9.43
-3 -2 5 149.36 9.46
-3 -2 5 148.53 8.99
-3 -2 5 146.28 8.84
2 2 -5 134.93 8.17
2 2 -5 123.12 8.01
-2 -2 5 140.09 8.31
1 2 -5 64.03 4.23
1 2 -5 68.99 4
-1 -2 5 60.16 4.25
0 2 -5 29.19 1.93
0 -2 5 26.3 2
0 -2 5 31.53 1.92
-1 2 -5 271.99 18.69
1 -2 5 334.64 18.83
1 -2 5 341.9 18.65
-2 2 -5 26.55 2.09
-2 2 -5 30.13 2.08
-2 2 -5 27.74 2.07
2 -2 5 27.94 2
2 -2 5 30.97 2.03
2 -2 5 30.15 2.13
-3 2 -5 6.45 1.12
-3 2 -5 4.68 0.82
3 -2 5 6.02 0.67
3 -2 5 5.36 0.81
3 -2 5 5.38 0.64
3 -2 5 4.82 0.71
-4 2 -5 8.37 1.46
-4 2 -5 7.37 1.02
4 -2 5 6.37 0.87
4 -2 5 7.67 1.1
4 -2 5 7.26 1.07
-5 2 -5 27.01 2.7
-5 2 -5 25.8 2.58
-5 2 -5 25.16 2.34
5 -2 5 28.32 2.25
5 -2 5 28.92 2.59
5 -2 5 30.43 2.37
5 -2 5 21.55 2.23
-6 2 -5 37.86 3.37
-6 2 -5 45.31 3.77
-6 2 -5 38.48 3.85
6 -2 5 44.95 3.35
6 -2 5 41.98 3.67
6 -2 5 40.11 3.39
6 -2 5 44.32 3.41
-7 2 -5 18.27 2.55
7 -2 5 16.74 2.17
7 -2 5 15.7 1.87
7 -2 5 18.6 2.36
7 -2 5 17.95 2.05
-8 2 -5 2.22 1.07
8 -2 5 1.35 0.75
8 -2 5 1.38 0.76
8 -2 5 -0.38 0.81
9 1 -5 0.26 0.67
-9 -1 5 0.05 0.84
-9 -1 5 -0.78 0.76
8 1 -5 18.35 2.43
8 1 -5 18.35 2.51
8 1 -5 22.22 2.59
-8 -1 5 22.43 2.8
-8 -1 5 21.83 2.49
7 1 -5 32.34 3.09
7 1 -5 30.44 3.09
7 1 -5 29.19 2.92
-7 -1 5 33.83 3.33
-7 -1 5 33.12 2.6
-7 -1 5 30.97 3.01
6 1 -5 20 2.18
6 1 -5 19.03 2.27
6 1 -5 18.77 2.05
6 1 -5 19.57 2.06
-6 -1 5 19.02 1.73
-6 -1 5 19.81 2.07
-6 -1 5 17.49 2.17
5 1 -5 3.24 0.79
5 1 -5 3.18 0.9
5 1 -5 4.72 1.13
5 1 -5 4.32 0.96
-5 -1 5 3.94 1.08
-5 -1 5 3.58 0.85
4 1 -5 82.94 5.42
4 1 -5 77.84 5.58
4 1 -5 79.95 5.43
-4 -1 5 88.24 5.62
-4 -1 5 90.59 5.29
-4 -1 5 64.91 4.98
3 1 -5 129.97 8.31
3 1 -5 137.66 8.32
3 1 -5 125.24 8.07
-3 -1 5 132.51 8.45
-3 -1 5 137.62 8
-3 -1 5 138.8 8.38
2 1 -5 13.66 1.16
2 1 -5 12.58 1.09
2 1 -5 14.57 1.14
-2 -1 5 15.2 1.28
1 1 -5 47.23 2.93
0 1 -5 8.43 0.71
0 1 -5 8.36 0.81
0 -1 5 10.4 0.72
0 -1 5 7.22 0.87
-1 1 -5 196.16 11.68
-1 1 -5 190.24 11.79
1 -1 5 201.35 11.65
-2 1 -5 128.96 7.87
-2 1 -5 121.17 8.56
2 -1 5 130.49 7.64
2 -1 5 120.92 7.49
2 -1 5 124.86 7.64
-3 1 -5 1.57 0.57
-3 1 -5 1.84 0.52
-3 1 -5 1.05 0.52
3 -1 5 1.15 0.38
3 -1 5 1.39 0.5
3 -1 5 1.13 0.43
3 -1 5 1.37 0.43
-4 1 -5 50.52 3.67
-4 1 -5 51.9 4.04
-4 1 -5 50 4.02
4 -1 5 48.25 3.81
4 -1 5 52.81 3.54
4 -1 5 49.81 3.64
4 -1 5 48.48 3.58
-5 1 -5 62.12 4.53
-5 1 -5 62.32 5
5 -1 5 57.74 4.67
5 -1 5 63.48 4.33
5 -1 5 62.91 4.52
5 -1 5 60.87 4.42
6 -1 5 15.91 1.76
6 -1 5 16.17 1.63
6 -1 5 13.04 1.71
6 -1 5 10.94 1.77
-7 1 -5 0.81 0.68
7 -1 5 -0.43 0.39
7 -1 5 0.19 0.61
7 -1 5 0.55 0.7
-8 1 -5 5.43 1.72
8 -1 5 5.39 1.33
8 -1 5 6.21 1.37
8 -1 5 3.38 1.21
9 0 -5 4.43 1.26
9 0 -5 4.87 1.47
-9 0 5 3.91 1.46
-9 0 5 4.2 1.35
8 0 -5 30.91 3.38
8 0 -5 31.79 3.29
8 0 -5 43.43 3.62
-8 0 5 34.98 3.59
-8 0 5 36.5 3.39
7 0 -5 21.44 2.42
7 0 -5 16.59 3.4
-7 0 5 22.72 2.61
-7 0 5 22.59 2.08
-7 0 5 27.29 2.53
6 0 -5 2.2 0.8
6 0 -5 1.29 0.88
6 0 -5 2.82 0.93
-6 0 5 3.02 0.82
-6 0 5 1.7 0.74
-6 0 5 3.26 0.75
-6 0 5 4.42 1.15
5 0 -5 53.1 3.85
5 0 -5 46.96 3.99
5 0 -5 43.13 3.72
-5 0 5 52.26 3.69
-5 0 5 50.91 3.89
-5 0 5 51.28 3.76
-5 0 5 55.16 3.96
4 0 -5 65.36 4.93
4 0 -5 72.13 4.81
4 0 -5 67.19 4.76
-4 0 5 69.67 4.84
-4 0 5 76.47 4.61
-4 0 5 68.24 4.59
3 0 -5 23.94 1.74
3 0 -5 17.96 1.61
3 0 -5 25.52 1.88
-3 0 5 20.32 1.72
-3 0 5 18.05 1.68
-3 0 5 20.08 1.49
-3 0 5 19.19 1.51
2 0 -5 38.82 2.61
2 0 -5 38.25 2.63
-2 0 5 38.12 2.66
-2 0 5 39.08 2.68
1 0 -5 78.77 5.24
1 0 -5 82.5 5.43
1 0 -5 100.47 5.3
1 0 -5 88.33 5.17
1 0 -5 95.73 5.24
-1 0 5 78.85 5.39
-1 0 5 79.24 5.29
0 0 -5 257.87 15.4
0 0 -5 234.32 15.91
0 0 -5 240.28 15.57
0 0 -5 291.01 15.47
0 0 -5 259.46 15.4
0 0 5 269.35 15.35
0 0 5 272.93 15.43
-1 0 -5 45.41 3.07
-1 0 -5 47.45 3.53
-1 0 -5 44.4 3.07
-1 0 -5 47.83 3
1 0 5 48.39 2.91
1 0 5 42.45 2.98
-2 0 -5 4.19 0.75
-2 0 -5 3.84 0.86
-2 0 -5 5.43 0.68
2 0 5 4.03 0.56
2 0 5 3.76 0.66
2 0 5 3.83 0.53
-3 0 -5 23.8 2.21
-3 0 -5 19.77 1.82
3 0 5 20.98 1.89
3 0 5 25.21 1.84
3 0 5 21.38 1.72
-4 0 -5 52.27 3.96
-4 0 -5 59.88 4.54
4 0 5 54.4 4.05
4 0 5 54.67 3.89
4 0 5 55.62 4.26
4 0 5 56.38 3.84
-5 0 -5 25.02 2.88
-5 0 -5 29.44 2.47
5 0 5 29.01 2.4
5 0 5 22.92 2.21
5 0 5 28.63 2.74
5 0 5 27.27 2.53
-6 0 -5 12.14 2.35
6 0 5 14.33 1.64
6 0 5 17.3 1.94
6 0 5 14.43 2
6 0 5 15.16 1.75
-7 0 -5 4.55 1.56
7 0 5 4.2 1.44
7 0 5 4.06 1.16
7 0 5 3.41 1.05
-8 0 -5 26.33 3.72
8 0 5 26.92 2.84
8 0 5 28.57 2.98
9 -1 -5 27 2.94
9 -1 -5 17.67 2.68
9 -1 -5 26.02 3.08
-9 1 5 26.79 2.86
-9 1 5 34.89 3.42
8 -1 -5 1.51 0.85
8 -1 -5 2.61 1
-8 1 5 2.27 0.99
-8 1 5 0.87 0.77
7 -1 -5 0.25 0.55
-7 1 5 0.28 0.55
-7 1 5 0.31 0.61
-7 1 5 0.19 0.36
-7 1 5 0.17 0.49
6 -1 -5 5.65 1.17
6 -1 -5 3.29 1.22
6 -1 -5 5.48 1.24
-6 1 5 3.7 0.95
-6 1 5 5.09 1.18
-6 1 5 4.98 1.06
-6 1 5 5.64 1.02
5 -1 -5 55.88 4.77
5 -1 -5 67.16 4.65
5 -1 -5 63.45 4.6
-5 1 5 66.07 4.47
-5 1 5 71.21 4.55
-5 1 5 64.39 4.61
-5 1 5 61.07 4.7
4 -1 -5 98.77 6.21
4 -1 -5 103.22 6.22
4 -1 -5 94.45 6.41
-4 1 5 90.95 6.06
-4 1 5 83.56 6.09
3 -1 -5 13.01 1.18
3 -1 -5 11.53 1.17
3 -1 -5 11.31 1.27
-3 1 5 11.51 1.13
-3 1 5 12.49 1.19
-3 1 5 12.83 1.24
-3 1 5 12.87 1.09
-3 1 5 12.41 1.27
2 -1 -5 55.87 3.41
2 -1 -5 56.5 3.47
2 -1 -5 50.33 3.53
-2 1 5 52.02 3.3
-2 1 5 52.44 3.73
-2 1 5 50.96 3.53
-2 1 5 53 3.49
-2 1 5 49.79 3.43
1 -1 -5 101.84 6.01
1 -1 -5 112.73 6.36
1 -1 -5 95.43 6.06
1 -1 -5 93.36 5.99
-1 1 5 93.96 6.48
-1 1 5 103.78 6.04
-1 1 5 89.36 6.1
-1 1 5 96.02 6.08
0 -1 -5 174.84 10.16
0 -1 -5 179.87 10.12
0 -1 -5 171.85 10.13
0 1 5 168.74 10.12
0 1 5 159.8 10.09
0 1 5 159.39 10.04
0 1 5 162.22 10.74
-1 -1 -5 3.29 0.68
-1 -1 -5 3.8 0.55
-1 -1 -5 4.59 0.67
1 1 5 2.66 0.73
1 1 5 3.49 0.48
1 1 5 3.25 0.59
-2 -1 -5 1.85 0.47
-2 -1 -5 2.38 0.73
-2 -1 -5 2.11 0.58
2 1 5 2.07 0.47
2 1 5 1.84 0.46
2 1 5 2.04 0.57
-3 -1 -5 66.32 4.72
-3 -1 -5 64.46 4.14
-3 -1 -5 48.14 4.2
3 1 5 62.67 4.04
3 1 5 65.82 4.31
3 1 5 53.89 3.95
-4 -1 -5 92.48 6.51
4 1 5 82.68 5.55
4 1 5 78.88 5.81
4 1 5 85.07 5.61
-5 -1 -5 5.93 2.57
5 1 5 3.27 1.05
5 1 5 3.27 0.86
5 1 5 3.75 0.88
5 1 5 1.87 0.74
-6 -1 -5 -0.98 0.68
6 1 5 0.8 0.69
6 1 5 0.59 0.55
6 1 5 0.36 0.66
-7 -1 -5 14 2.87
7 1 5 10.68 2.11
7 1 5 15.19 1.87
7 1 5 11.64 2.02
9 -2 -5 21.71 2.56
9 -2 -5 19.45 2.4
-9 2 5 16.88 2.62
-9 2 5 17.52 2.38
-9 2 5 19.43 2.51
8 -2 -5 2.85 0.98
8 -2 -5 2.41 1.06
-8 2 5 3.28 1.11
-8 2 5 3.85 1.18
-8 2 5 3.2 1.06
7 -2 -5 7.45 1.89
7 -2 -5 8.08 1.53
-7 2 5 9.71 1.63
-7 2 5 9.66 1.45
6 -2 -5 44.64 4.61
6 -2 -5 55.42 4
-6 2 5 48.39 4.09
-6 2 5 47.92 3.83
-6 2 5 48.33 3.81
-6 2 5 55.45 3.89
5 -2 -5 60.17 5.06
5 -2 -5 59.52 4.33
5 -2 -5 58.4 4.33
-5 2 5 72 4.39
-5 2 5 62.17 4.58
-5 2 5 51.98 3.97
-5 2 5 62.47 4.26
-5 2 5 59.52 4.31
4 -2 -5 5.12 1.07
4 -2 -5 6.05 0.99
4 -2 -5 4.27 0.84
-4 2 5 5.98 0.92
-4 2 5 4.78 0.98
-4 2 5 5.3 0.8
3 -2 -5 4.31 0.74
3 -2 -5 4.33 0.73
3 -2 -5 4.07 0.83
-3 2 5 4.43 0.67
-3 2 5 3.24 0.72
-3 2 5 4.78 0.87
2 -2 -5 75.46 4.97
2 -2 -5 74.42 5.06
2 -2 -5 83.01 4.82
-2 2 5 61.81 5.08
-2 2 5 78.88 4.88
-2 2 5 79.64 4.77
1 -2 -5 99.71 6.47
1 -2 -5 111.02 6.62
-1 2 5 106.44 6.45
-1 2 5 106.56 6.61
-1 2 5 100.6 6.63
0 -2 -5 52.17 3.55
0 -2 -5 56.52 3.62
0 -2 -5 53.88 3.62
0 2 5 51.18 3.55
0 2 5 52.5 4.13
0 2 5 53.8 3.56
0 2 5 56.18 3.53
-1 -2 -5 0.96 0.36
-1 -2 -5 1.29 0.54
-1 -2 -5 1.95 0.6
1 2 5 1.22 0.44
1 2 5 2.03 0.54
1 2 5 1.86 0.55
1 2 5 1.44 0.68
-2 -2 -5 91.62 5.9
-2 -2 -5 93.71 6.44
-2 -2 -5 95.41 6.27
2 2 5 92.3 6.66
2 2 5 98.36 5.91
2 2 5 91.36 5.84
2 2 5 83.09 6.04
-3 -2 -5 51.55 4.35
-3 -2 -5 49.08 3.67
-3 -2 -5 52.29 4.1
3 2 5 52.88 3.94
3 2 5 55 3.67
3 2 5 54.21 3.65
-4 -2 -5 17.57 1.88
-4 -2 -5 18.96 2.44
-4 -2 -5 15.08 1.97
4 2 5 17.83 1.95
4 2 5 19.92 1.76
4 2 5 13.49 1.76
-5 -2 -5 1.12 0.75
5 2 5 0.59 0.55
5 2 5 0.12 0.41
5 2 5 0.93 0.59
-6 -2 -5 32.63 3.77
6 2 5 28.23 2.64
6 2 5 24.15 2.81
6 2 5 31.81 3.49
-7 -2 -5 4.46 1.82
7 2 5 7.49 1.46
7 2 5 3.52 1.4
9 -3 -5 1.25 0.91
9 -3 -5 1.57 0.92
-9 3 5 1.28 1.21
-9 3 5 2.31 1.04
-9 3 5 1.3 0.77
8 -3 -5 0.25 0.56
8 -3 -5 -0.87 0.46
-8 3 5 0.07 0.56
-8 3 5 -0.35 0.62
-8 3 5 -0.01 0.49
7 -3 -5 36.4 3.11
7 -3 -5 33 3.06
-7 3 5 32.83 2.95
-7 3 5 34.78 3.05
-7 3 5 33.05 2.94
-7 3 5 33.94 3.34
6 -3 -5 57.91 4.26
6 -3 -5 56.49 4.46
6 -3 -5 59.11 4.8
-6 3 5 51.74 4.5
-6 3 5 57.82 4.22
-6 3 5 53.54 4.24
-6 3 5 60.21 4.18
5 -3 -5 11.52 1.36
5 -3 -5 10.31 1.76
5 -3 -5 11.41 1.34
-5 3 5 9.59 1.42
-5 3 5 11.37 1.36
-5 3 5 10.84 1.35
-5 3 5 9.95 1.2
4 -3 -5 -0.09 0.28
4 -3 -5 0.05 0.38
4 -3 -5 0.27 0.36
-4 3 5 0.69 0.4
-4 3 5 0.31 0.35
-4 3 5 0.2 0.31
-4 3 5 -0.07 0.3
3 -3 -5 80.15 5.6
3 -3 -5 93.82 5.28
3 -3 -5 88.72 5.29
-3 3 5 77.21 5.33
-3 3 5 86.11 5.21
-3 3 5 69.58 5.4
-3 3 5 68.85 5.14
2 -3 -5 111.52 7.09
2 -3 -5 124.46 7.13
2 -3 -5 98.17 7.31
-2 3 5 120.3 7.09
-2 3 5 117.44 7.17
-2 3 5 117.71 7.38
-2 3 5 106.94 7.2
1 -3 -5 46.21 3.3
1 -3 -5 52.7 3.37
1 -3 -5 48.3 3.45
-1 3 5 49.74 3.31
-1 3 5 46.7 3.32
-1 3 5 48.76 3.45
0 -3 -5 6.2 0.92
0 -3 -5 5.54 0.97
0 3 5 6.08 0.88
0 3 5 4.8 0.82
0 3 5 5.28 0.76
-1 -3 -5 34.24 2.65
-1 -3 -5 30.49 2.69
1 3 5 39.48 3.33
1 3 5 33.83 2.47
1 3 5 32.7 2.63
1 3 5 35.48 2.56
-2 -3 -5 75.85 4.84
-2 -3 -5 63.86 5.16
-2 -3 -5 79.68 5.53
2 3 5 70.86 5.03
2 3 5 75.21 5.67
2 3 5 68.61 4.82
-3 -3 -5 17.39 2.09
-3 -3 -5 19.19 1.77
-3 -3 -5 17.42 2.29
3 3 5 19.18 2
3 3 5 17.17 1.82
3 3 5 19.84 1.76
3 3 5 17.96 2.31
-4 -3 -5 0.2 0.53
-4 -3 -5 1.98 0.95
4 3 5 0.45 0.53
4 3 5 1.04 0.67
-5 -3 -5 0.75 0.74
5 3 5 0.48 0.6
5 3 5 -0.53 0.48
6 3 5 22.99 3.02
6 3 5 21.55 2.68
6 3 5 22.11 2.3
9 -4 -5 6.07 1.74
9 -4 -5 7.86 1.77
-9 4 5 6.02 1.44
-9 4 5 4.53 1.27
-9 4 5 5.46 1.56
8 -4 -5 8.72 1.58
8 -4 -5 9.01 1.78
-8 4 5 8.87 1.93
-8 4 5 11.36 1.56
-8 4 5 8.11 1.66
7 -4 -5 24.6 2.44
7 -4 -5 24.07 2.48
-7 4 5 22.89 2.69
-7 4 5 27.13 2.36
-7 4 5 25.7 2.82
-7 4 5 23.62 2.72
6 -4 -5 26.98 2.48
6 -4 -5 23.99 2.32
6 -4 -5 30.27 5.14
-6 4 5 27.45 2.45
-6 4 5 27.19 2.25
-6 4 5 23.35 2.62
5 -4 -5 0.16 0.61
5 -4 -5 0.49 0.47
5 -4 -5 0.29 0.4
-5 4 5 0.08 0.33
-5 4 5 0.42 0.66
-5 4 5 0.3 0.33
-5 4 5 0.43 0.46
4 -4 -5 23.02 2.45
4 -4 -5 25.59 2.26
4 -4 -5 25.14 2.08
-4 4 5 22.91 2.33
-4 4 5 23.05 2.16
-4 4 5 25.22 2.07
-4 4 5 26.04 2
3 -4 -5 76.14 6.38
3 -4 -5 88.85 5.51
3 -4 -5 83.46 5.49
-3 4 5 82.69 5.48
-3 4 5 90.2 5.5
-3 4 5 81.86 5.86
-3 4 5 85.91 5.7
2 -4 -5 51.13 3.95
2 -4 -5 50.61 3.25
-2 4 5 37.18 3.2
-2 4 5 48.66 3.21
-2 4 5 40.17 3.39
1 -4 -5 -0.24 0.29
1 -4 -5 0.01 0.38
1 -4 -5 -0.86 0.33
-1 4 5 0.09 0.34
-1 4 5 -0.09 0.28
-1 4 5 0.24 0.39
0 -4 -5 23.68 2.18
0 -4 -5 27.6 2.22
0 -4 -5 22.45 2.04
0 4 5 26.98 2.26
0 4 5 23.54 2.05
0 4 5 21.85 1.95
-1 -4 -5 48.76 3.75
-1 -4 -5 52.83 4.03
-1 -4 -5 56.08 4.2
1 4 5 55.86 3.78
1 4 5 52.78 3.68
-2 -4 -5 18.76 1.99
-2 -4 -5 18.06 2.34
-2 -4 -5 18.36 2.13
2 4 5 20.27 1.76
2 4 5 17.84 2.46
2 4 5 21.31 2.08
2 4 5 21.5 1.88
-3 -4 -5 8.31 1.81
-3 -4 -5 9.29 1.75
3 4 5 5.75 1.28
3 4 5 11.18 1.81
3 4 5 8.46 1.19
-4 -4 -5 6.26 1.87
-4 -4 -5 3.22 1.16
4 4 5 8.72 1.6
4 4 5 5.63 1.22
-5 -4 -5 25.48 3.47
5 4 5 22.79 2.76
5 4 5 23.2 2.36
9 -5 -5 1.79 1.1
9 -5 -5 3.57 1.01
-9 5 5 5.44 1.38
-9 5 5 1.45 1.3
-9 5 5 2.91 0.99
8 -5 -5 26.89 2.74
8 -5 -5 27.53 2.9
-8 5 5 33.91 2.76
-8 5 5 30.05 3.37
-8 5 5 29.75 2.88
7 -5 -5 19.86 2.01
7 -5 -5 21.1 2.17
-7 5 5 12.37 2.29
-7 5 5 18.93 2.03
-7 5 5 15.04 1.72
6 -5 -5 0.26 0.47
6 -5 -5 0.21 0.46
-6 5 5 -0.38 0.47
-6 5 5 -0.71 0.48
-6 5 5 0.72 0.69
-6 5 5 0.09 0.38
5 -5 -5 13.83 1.54
5 -5 -5 13.39 1.58
5 -5 -5 16.07 2.33
-5 5 5 15.24 1.93
-5 5 5 13.78 1.56
-5 5 5 14.38 1.67
-5 5 5 11.87 1.36
4 -5 -5 80.72 5.4
4 -5 -5 81.56 5.41
-4 5 5 72.65 5.58
-4 5 5 84.34 5.98
-4 5 5 84.5 5.33
3 -5 -5 17.13 1.59
3 -5 -5 12.24 1.97
3 -5 -5 13.78 1.52
-3 5 5 14.98 1.83
-3 5 5 14.45 1.51
-3 5 5 16.01 1.51
-3 5 5 16.7 1.67
2 -5 -5 8.82 1.12
2 -5 -5 7.15 1.43
2 -5 -5 7.81 1.09
-2 5 5 6.41 1.05
-2 5 5 8.2 1.09
1 -5 -5 8.93 1.26
1 -5 -5 9 1.23
1 -5 -5 8.73 1.3
-1 5 5 9.19 1.35
-1 5 5 8.36 1.15
-1 5 5 9.86 1.15
0 -5 -5 43.59 3.51
0 -5 -5 40 3.27
0 -5 -5 41.89 3.36
0 5 5 40.65 3.41
0 5 5 47.09 3.38
0 5 5 44.24 3.33
-1 -5 -5 41.25 3.56
-1 -5 -5 46.6 3.82
1 5 5 49.16 3.36
1 5 5 39.88 3.4
1 5 5 38.86 3.11
-2 -5 -5 3.3 1.12
-2 -5 -5 5.39 1.28
2 5 5 4.97 1.2
2 5 5 4.39 1.01
2 5 5 4.72 1.42
-3 -5 -5 1.84 1
-3 -5 -5 6.9 1.95
3 5 5 3.34 0.95
3 5 5 3.89 1.43
3 5 5 1.25 0.81
-4 -5 -5 14.22 2.77
4 5 5 10.69 2.03
4 5 5 12.91 1.99
8 -6 -5 16.6 2.16
8 -6 -5 12.71 1.87
-8 6 5 17.64 2.62
-8 6 5 16.97 2.14
7 -6 -5 -0.05 0.41
7 -6 -5 -0.95 0.45
-7 6 5 0.39 0.61
-7 6 5 -0.2 0.38
-7 6 5 -0.02 0.69
6 -6 -5 5.69 1.2
6 -6 -5 4.44 0.98
-6 6 5 5.09 1.22
-6 6 5 3.91 1.41
-6 6 5 6.61 1.07
5 -6 -5 15.8 1.71
5 -6 -5 15.56 1.67
-5 6 5 17.9 1.59
-5 6 5 15.99 2.12
-5 6 5 13.18 1.68
4 -6 -5 53 3.82
4 -6 -5 53.45 3.86
-4 6 5 49.79 3.67
-4 6 5 47.92 3.79
-4 6 5 52.1 4.42
-4 6 5 57.89 4.18
3 -6 -5 6.55 1.17
3 -6 -5 8.65 1.44
-3 6 5 6.89 1.31
-3 6 5 8.64 1.21
-3 6 5 7.35 1.57
2 -6 -5 7.93 1.24
2 -6 -5 6.37 1.27
-2 6 5 3.73 1.09
-2 6 5 5.15 1.05
-2 6 5 5.3 1
1 -6 -5 25.48 2.34
1 -6 -5 24.73 2.44
-1 6 5 26.06 2.35
-1 6 5 25.45 2.51
0 -6 -5 50.36 3.84
0 6 5 38.39 3.38
0 6 5 42.25 3.43
-1 -6 -5 10.01 1.56
-1 -6 -5 7.13 1.73
1 6 5 7.39 1.35
-2 -6 -5 1.25 0.71
-2 -6 -5 1.09 0.89
2 6 5 1.22 0.76
2 6 5 1.59 0.92
2 6 5 1.3 0.81
-3 -6 -5 14.72 2.24
-3 -6 -5 13.31 2.72
3 6 5 12.33 1.76
3 6 5 17 2.23
3 6 5 14.44 2.41
8 -7 -5 3.11 0.97
8 -7 -5 2.03 0.99
8 -7 -5 1.6 0.52
-8 7 5 1.65 0.71
-8 7 5 1.94 1.12
-8 7 5 1.36 1.38
-7 7 5 1.72 0.65
-7 7 5 1.41 0.8
-7 7 5 1.04 1.06
6 -7 -5 12.25 1.58
6 -7 -5 12.47 1.62
-6 7 5 9.94 2.24
-6 7 5 11.85 1.64
-6 7 5 11.91 1.4
5 -7 -5 24.92 2.32
5 -7 -5 23.89 2.28
-5 7 5 22.78 2.25
-5 7 5 21.56 2.78
4 -7 -5 5.58 1.13
4 -7 -5 5.57 1.18
-4 7 5 4.12 1.07
-4 7 5 3.17 1.15
3 -7 -5 1.3 0.74
3 -7 -5 1.24 0.68
-3 7 5 0.04 0.49
-3 7 5 0.93 0.81
2 -7 -5 35 2.83
2 -7 -5 33.45 2.93
-2 7 5 25.93 2.98
-2 7 5 31.82 2.72
1 -7 -5 33.18 3.06
1 -7 -5 33.67 2.89
-1 7 5 26.35 2.7
-1 7 5 36 3.14
0 -7 -5 3.94 1.08
0 -7 -5 3.4 1.12
0 7 5 4.92 1.21
0 7 5 3.49 1.04
-1 -7 -5 1.11 0.89
-1 -7 -5 1.31 0.87
1 7 5 1.12 0.65
1 7 5 -0.21 0.48
-2 -7 -5 7.19 1.88
-2 -7 -5 4.07 1.24
2 7 5 8.58 2.2
2 7 5 7.36 1.46
7 -8 -5 3.82 1.11
7 -8 -5 2.36 1.04
-7 8 5 2.91 0.82
-7 8 5 3.59 1.2
-7 8 5 6.1 1.61
6 -8 -5 24.34 2.49
6 -8 -5 21.96 2.65
-6 8 5 22.96 3.22
-6 8 5 25.34 2.45
5 -8 -5 13.41 1.85
5 -8 -5 18.02 1.99
-5 8 5 16.14 1.9
-5 8 5 17.46 2.75
4 -8 -5 3.86 1.12
4 -8 -5 5.72 1.29
-4 8 5 6.18 1.22
3 -8 -5 6.92 1.43
-3 8 5 5.27 1.16
2 -8 -5 11.54 1.97
2 -8 -5 8.14 1.58
-2 8 5 12.8 1.66
-2 8 5 12.45 2.16
1 -8 -5 18.79 2.36
1 -8 -5 17.62 2.17
-1 8 5 20.27 2.48
-1 8 5 16.77 2.08
0 -8 -5 -0.1 0.75
0 -8 -5 -0.38 0.71
0 8 5 0.33 0.81
0 8 5 0.92 0.81
5 -9 -5 1.63 0.95
5 -9 -5 0.24 0.79
-5 9 5 2.05 1.4
-5 9 5 1.6 0.8
4 -9 -5 0.5 0.85
4 -9 -5 1.08 0.86
-4 9 5 3.89 1.46
-4 9 5 -0.46 0.59
3 -9 -5 23.27 2.48
3 -9 -5 21.71 2.68
-3 9 5 20.34 2.31
-3 9 5 32.09 3.33
2 -9 -5 4.12 1.38
-2 9 5 3.75 1.07
0 11 -6 0.11 0.52
-1 11 -6 -0.3 0.45
-2 11 -6 13.76 1.72
-4 11 -6 0.62 0.71
-5 11 -6 1.15 0.79
5 -11 6 0.1 0.46
2 10 -6 3.83 1.11
-2 -10 6 3.08 0.85
-1 -10 6 25.42 1.98
0 10 -6 13.36 1.58
-1 10 -6 23.12 2.14
-2 10 -6 9.23 1.37
-2 10 -6 9.86 1.57
2 -10 6 7.99 1.6
-3 10 -6 12.76 1.81
-3 10 -6 12.94 1.65
4 -10 6 9.46 1.21
-5 10 -6 6.38 1.42
5 -10 6 8.71 1.15
-6 10 -6 15.42 2.09
6 -10 6 9.37 1.3
7 -10 6 0.86 0.82
3 9 -6 18.58 2.37
-3 -9 6 24.84 2.72
2 9 -6 0.09 0.58
-2 -9 6 0.77 0.55
1 9 -6 6.24 1.2
1 9 -6 6.48 1.17
-1 -9 6 7.71 0.97
-1 -9 6 4.64 1.02
0 9 -6 7.66 1.24
0 9 -6 8.33 1.18
0 -9 6 6.49 1.16
0 -9 6 7.5 0.76
-1 9 -6 30.94 2.76
-1 9 -6 34.01 2.61
-2 9 -6 8.71 1.31
-2 9 -6 11.76 1.43
-2 9 -6 10.98 1.52
2 -9 6 12.95 1.28
-3 9 -6 3.44 0.83
-3 9 -6 2.16 0.9
-3 9 -6 3.9 0.86
3 -9 6 1.26 0.55
3 -9 6 2.45 0.7
-4 9 -6 13.86 1.74
4 -9 6 13.56 1.39
4 -9 6 14.47 1.45
-5 9 -6 29.47 3.04
5 -9 6 31.15 2.45
5 -9 6 32.68 2.53
-6 9 -6 2.33 1.01
6 -9 6 0.78 0.53
-7 9 -6 1.77 0.97
7 -9 6 1.5 0.65
4 8 -6 5.33 1.36
4 8 -6 2.5 1.12
-4 -8 6 6.81 1.46
3 8 -6 9.72 1.24
-3 -8 6 5.96 1.55
-3 -8 6 8.93 1.59
2 8 -6 3.27 0.88
2 8 -6 2.68 1.04
-2 -8 6 2.82 0.84
-2 -8 6 4.06 0.95
1 8 -6 61.51 4.15
1 8 -6 56.65 4.11
1 8 -6 65.48 4.25
-1 -8 6 62.09 4.1
-1 -8 6 52.68 4.27
0 8 -6 40.09 2.88
0 8 -6 40.98 3.67
0 8 -6 40.56 2.91
0 8 -6 40.61 2.89
0 -8 6 38.39 2.96
0 -8 6 36.47 2.83
-1 8 -6 14.12 1.4
-1 8 -6 14.5 1.34
-1 8 -6 13.79 1.41
-1 8 -6 11.84 1.41
1 -8 6 12.58 1.28
-2 8 -6 3.37 0.79
-2 8 -6 2.82 0.72
-2 8 -6 4.27 0.8
-2 8 -6 3.91 0.91
2 -8 6 3.53 0.7
2 -8 6 4.16 0.72
-3 8 -6 42.68 3.29
-3 8 -6 39.51 3.05
-3 8 -6 42.63 3.21
3 -8 6 39.2 2.8
3 -8 6 36.5 2.77
-4 8 -6 -0.04 0.54
-4 8 -6 0.94 0.65
4 -8 6 1.18 0.53
4 -8 6 1.18 0.5
-5 8 -6 25.85 2.53
-5 8 -6 24.05 2.5
-5 8 -6 23.77 2.4
5 -8 6 21.82 1.93
5 -8 6 22.26 2.02
-6 8 -6 0.18 0.28
-6 8 -6 -0.95 0.58
-6 8 -6 0.83 0.66
-6 8 -6 -0.75 0.36
6 -8 6 -0.28 0.45
6 -8 6 -0.06 0.39
-7 8 -6 4.95 1.48
-7 8 -6 4.11 0.82
7 -8 6 3.44 0.66
7 -8 6 3.06 0.92
7 -8 6 3.37 0.85
-8 8 -6 3.21 0.81
-8 8 -6 6.54 1.67
8 -8 6 3.31 0.7
8 -8 6 1.74 0.82
5 7 -6 39.66 3.74
5 7 -6 41.5 3.9
-5 -7 6 34.04 3.63
4 7 -6 7.72 1.59
4 7 -6 13.45 1.84
4 7 -6 8.18 1.22
-4 -7 6 9.76 1.86
3 7 -6 2.17 0.64
3 7 -6 2.14 0.69
3 7 -6 1.35 0.64
-3 -7 6 1.6 0.64
-3 -7 6 2.18 0.86
2 7 -6 32.51 2.67
2 7 -6 29.73 2.55
2 7 -6 33.13 2.43
2 7 -6 36.74 2.7
-2 -7 6 36.12 2.8
-2 -7 6 28.78 2.67
1 7 -6 19.47 1.69
1 7 -6 22.5 1.8
1 7 -6 21.37 1.76
1 7 -6 19.81 1.66
-1 -7 6 20.47 1.76
-1 -7 6 18.88 1.81
0 7 -6 9.93 1.05
0 7 -6 10.63 1.14
0 7 -6 11.04 1.12
0 7 -6 7.42 0.99
0 -7 6 10.25 1.09
-1 7 -6 6.62 0.8
-1 7 -6 5.9 0.88
-1 7 -6 6.51 0.88
-1 7 -6 4.51 0.8
1 -7 6 6.25 0.78
1 -7 6 5.96 0.65
-2 7 -6 9.97 1.17
-2 7 -6 9.75 1.11
-2 7 -6 8.78 1.11
2 -7 6 9.37 0.98
2 -7 6 8.11 0.89
-3 7 -6 43.16 3.33
-3 7 -6 43.57 3.47
-3 7 -6 45.59 3.54
3 -7 6 47.68 3.18
3 -7 6 51.01 3.16
-4 7 -6 33.07 2.9
-4 7 -6 32.76 2.99
-4 7 -6 31.98 3.21
4 -7 6 36.99 2.57
4 -7 6 37.29 2.63
-5 7 -6 0.56 0.58
-5 7 -6 0.25 0.61
-5 7 -6 -0.03 0.43
-5 7 -6 0.15 0.22
5 -7 6 -0.32 0.29
-6 7 -6 -0.73 0.45
-6 7 -6 0.71 0.48
6 -7 6 0.42 0.48
6 -7 6 -0.26 0.3
6 -7 6 0.35 0.45
-7 7 -6 15.86 2.37
-7 7 -6 19.7 2.36
7 -7 6 14.22 1.85
7 -7 6 17.7 1.82
7 -7 6 18.95 1.54
7 -7 6 18.65 2.08
-8 7 -6 25.81 3.19
8 -7 6 25.2 2.36
8 -7 6 22.94 2.44
6 6 -6 20.7 2.63
-6 -6 6 19.47 1.86
-6 -6 6 18.96 2.59
-6 -6 6 19.38 2.18
5 6 -6 4.19 1.17
5 6 -6 4 0.88
5 6 -6 4.2 1.18
-5 -6 6 3.61 0.99
-5 -6 6 4.66 1.3
4 6 -6 0.69 0.54
4 6 -6 -0.24 0.43
4 6 -6 -0.09 0.56
4 6 -6 0.19 0.44
-4 -6 6 0.13 0.51
3 6 -6 3.47 0.86
3 6 -6 4.12 0.74
3 6 -6 2.43 0.76
3 6 -6 2.83 0.59
-3 -6 6 4.25 1.01
2 6 -6 45.92 3.72
2 6 -6 59.62 3.64
2 6 -6 52.39 3.81
-2 -6 6 58.72 4.02
1 6 -6 29.45 2.3
1 6 -6 35.68 2.33
1 6 -6 33.04 2.28
1 6 -6 34.19 2.23
-1 -6 6 29.48 2.36
-1 -6 6 26.04 2.28
0 6 -6 6.92 0.93
0 6 -6 7.93 0.84
0 6 -6 7.07 0.84
0 -6 6 6.65 0.81
-1 6 -6 15.31 1.44
-1 6 -6 22.34 1.6
-1 6 -6 18.83 1.6
-1 6 -6 18.06 1.44
1 -6 6 18.49 1.41
1 -6 6 20.92 1.53
-2 6 -6 32.79 2.74
-2 6 -6 32.16 2.25
-2 6 -6 32.32 2.62
-2 6 -6 31.96 2.5
-2 6 -6 32.4 2.32
2 -6 6 32.86 2.3
2 -6 6 33.66 2.21
-3 6 -6 22.03 1.61
-3 6 -6 25.04 2.02
-3 6 -6 23.9 2.13
-3 6 -6 20.29 1.83
3 -6 6 22.17 1.75
3 -6 6 23.16 1.74
-4 6 -6 76.26 5.32
-4 6 -6 80.62 5.59
-4 6 -6 75.04 4.8
-4 6 -6 71.14 5.19
4 -6 6 79.56 4.98
4 -6 6 75.39 5.05
-5 6 -6 18.92 2.03
-5 6 -6 20.92 2.14
5 -6 6 20.74 1.48
5 -6 6 20.64 1.8
5 -6 6 20.65 1.94
-6 6 -6 39.35 3.6
-6 6 -6 40.25 3.33
-6 6 -6 33.33 3.12
6 -6 6 31.08 2.95
6 -6 6 35.4 2.79
-7 6 -6 12.73 2.19
-7 6 -6 12.74 2.44
7 -6 6 13.09 1.3
7 -6 6 14.08 1.56
7 -6 6 12.33 1.76
7 -6 6 11.49 1.51
-8 6 -6 5.08 1.56
8 -6 6 6.35 1.28
8 -6 6 5.06 1.18
8 -6 6 5.86 1.06
7 5 -6 6.95 1.8
7 5 -6 5.45 1.54
-7 -5 6 7.46 1.46
-7 -5 6 5.68 1.69
6 5 -6 14.93 2.08
6 5 -6 11.09 2.1
6 5 -6 14.21 1.67
-6 -5 6 13.26 2.1
5 5 -6 1.81 0.61
5 5 -6 0.53 0.54
5 5 -6 -0.21 0.6
-5 -5 6 0.4 0.52
-5 -5 6 0.73 0.71
4 5 -6 1.91 0.73
4 5 -6 1.82 0.77
4 5 -6 1.94 0.6
4 5 -6 3.29 0.87
-4 -5 6 2.03 0.56
-4 -5 6 1.8 0.8
3 5 -6 44.72 3.59
3 5 -6 52.59 3.67
3 5 -6 45.52 3.2
3 5 -6 47.66 3.51
-3 -5 6 47.93 3.73
2 5 -6 35.4 2.54
2 5 -6 40.49 2.83
2 5 -6 35.13 2.55
-2 -5 6 38.57 2.92
1 5 -6 25.15 1.97
1 5 -6 27.84 1.92
1 5 -6 28.71 1.87
1 5 -6 28.87 1.99
-1 -5 6 29.15 2.13
-1 -5 6 23.32 1.93
0 5 -6 0.97 0.31
0 5 -6 1.27 0.34
0 5 -6 1.29 0.34
0 5 -6 0.85 0.31
0 5 -6 1.07 0.39
0 -5 6 0.82 0.27
-1 5 -6 116.59 8.03
-1 5 -6 137.24 8.32
-1 5 -6 133.1 8.23
1 -5 6 147.81 8.04
1 -5 6 133.19 8.19
1 -5 6 138.44 8.18
-2 5 -6 106.68 6.81
-2 5 -6 106.19 6.67
2 -5 6 112.91 6.6
2 -5 6 109.18 6.7
-3 5 -6 10.4 1.06
-3 5 -6 7.03 1
-3 5 -6 10.31 1.25
-3 5 -6 10.21 0.89
3 -5 6 9.11 0.95
3 -5 6 9.83 1.01
-4 5 -6 16.1 1.64
-4 5 -6 15.62 1.81
-4 5 -6 13.71 1.52
4 -5 6 14.92 1.38
4 -5 6 15.64 1.5
-5 5 -6 11.01 1.6
-5 5 -6 8.65 1.29
-5 5 -6 9.72 1.38
5 -5 6 8.03 1.2
5 -5 6 11.1 1.1
5 -5 6 10.96 1.17
5 -5 6 9.24 0.9
-6 5 -6 42.56 3.38
-6 5 -6 40.31 3.73
6 -5 6 39.34 3.3
6 -5 6 39.43 2.74
6 -5 6 37.82 2.97
6 -5 6 32.75 2.87
-7 5 -6 15.92 2.26
7 -5 6 14.74 1.5
7 -5 6 16.49 1.75
7 -5 6 15.34 2.32
-8 5 -6 1.82 1.04
8 -5 6 1.27 0.74
8 -5 6 3.28 0.83
8 -5 6 2.43 0.85
7 4 -6 12.59 2.06
7 4 -6 15.68 2.14
-7 -4 6 16.82 2.01
-7 -4 6 16.21 2.4
-7 -4 6 12.23 1.38
6 4 -6 6.59 1.93
6 4 -6 5.34 1.35
6 4 -6 6.56 1.41
-6 -4 6 6.5 0.92
-6 -4 6 7.5 1.38
-6 -4 6 5.99 1.49
5 4 -6 1.12 0.61
5 4 -6 0.83 0.52
5 4 -6 -0.36 0.58
5 4 -6 0.64 0.57
-5 -4 6 0.88 0.52
-5 -4 6 0.95 0.77
-5 -4 6 0.73 0.4
4 4 -6 32.66 2.55
4 4 -6 38.24 2.84
4 4 -6 28.7 2.82
3 4 -6 90.08 5.52
3 4 -6 77.68 5.46
3 4 -6 84.58 5.62
-3 -4 6 80.65 5.74
2 4 -6 26.4 1.89
2 4 -6 25.39 2
2 4 -6 26.49 2.07
2 4 -6 25.01 1.76
-2 -4 6 25.22 2.14
1 4 -6 3.84 0.53
1 4 -6 3.6 0.59
-1 -4 6 3.46 0.67
0 4 -6 72.49 4.55
0 4 -6 70.34 4.69
0 -4 6 72.76 4.53
0 -4 6 72.3 4.72
-1 4 -6 52.99 3.63
-1 4 -6 58.18 3.7
1 -4 6 55.4 3.69
1 -4 6 57.82 3.58
-2 4 -6 55.41 3.79
-2 4 -6 58.23 3.67
-2 4 -6 54.42 3.59
-2 4 -6 54.18 3.56
2 -4 6 55.29 3.59
2 -4 6 56.19 3.54
-3 4 -6 15.78 1.57
-3 4 -6 22.58 1.91
3 -4 6 17.31 1.54
3 -4 6 20.12 1.53
-4 4 -6 101.25 7.58
-4 4 -6 133.76 8.13
4 -4 6 114.25 7.64
4 -4 6 127.2 7.49
-5 4 -6 46.26 3.6
-5 4 -6 47.66 3.98
5 -4 6 52.39 3.21
5 -4 6 46.34 3.24
5 -4 6 41.68 3.28
5 -4 6 39.75 3.4
5 -4 6 49.79 3.69
-6 4 -6 9.34 1.92
-6 4 -6 9.5 1.34
6 -4 6 9.27 1.43
6 -4 6 9.19 1.1
6 -4 6 8.9 1.18
-7 4 -6 0.72 0.76
7 -4 6 1.22 0.51
7 -4 6 0.71 1.03
7 -4 6 0.14 0.43
7 -4 6 0.24 0.49
-8 4 -6 4.09 1.5
8 -4 6 4.56 1.24
8 -4 6 5.49 1.11
8 -4 6 4.58 1.22
8 3 -6 5.92 1.59
8 3 -6 7.64 1.79
-8 -3 6 13.74 2.04
-8 -3 6 9.33 2.26
7 3 -6 11.35 2.08
7 3 -6 13.6 1.8
7 3 -6 13.68 1.97
-7 -3 6 13.9 1.87
-7 -3 6 15.4 2.64
-7 -3 6 13.66 1.36
6 3 -6 0.01 0.47
6 3 -6 1.6 0.75
6 3 -6 0.49 0.6
-6 -3 6 2.18 0.73
-6 -3 6 0.21 0.68
-6 -3 6 0.94 0.42
5 3 -6 18.47 1.94
5 3 -6 18.36 1.84
5 3 -6 15.83 1.69
5 3 -6 16.97 1.95
-5 -3 6 15.16 1.58
-5 -3 6 14.42 1.92
-5 -3 6 13.83 1.25
4 3 -6 84.43 5.66
4 3 -6 84.88 5.93
4 3 -6 78.87 5.72
4 3 -6 84.59 5.57
-4 -3 6 87.03 5.97
3 3 -6 36.47 2.69
3 3 -6 46.28 3.06
3 3 -6 34.85 2.77
3 3 -6 36.27 2.63
-3 -3 6 35.71 2.94
2 3 -6 3.71 0.49
2 3 -6 4.6 0.67
2 3 -6 3.8 0.56
2 3 -6 3.94 0.56
2 3 -6 4.1 0.52
-2 -3 6 5.06 0.91
1 3 -6 51.19 3.26
-1 -3 6 50.59 3.42
0 3 -6 325.55 18.54
0 3 -6 342.34 18.7
0 -3 6 266.89 18.55
0 -3 6 316.36 18.49
-1 3 -6 56.42 3.8
1 -3 6 60.48 3.91
1 -3 6 60.36 3.73
-2 3 -6 13.43 1.08
-2 3 -6 11.24 1.12
2 -3 6 11.25 1
2 -3 6 11.59 1.05
2 -3 6 14.41 1.09
-3 3 -6 60.16 4.35
-3 3 -6 62.65 4.19
3 -3 6 62.87 4.11
3 -3 6 63.36 4.06
3 -3 6 60.44 4.2
-4 3 -6 8.29 1.46
-4 3 -6 7.22 1.03
4 -3 6 8.76 0.82
4 -3 6 6.54 0.93
4 -3 6 6.23 1.01
4 -3 6 8.47 0.84
-5 3 -6 23.7 2.22
-5 3 -6 29 2.69
5 -3 6 21.83 2.09
5 -3 6 21.83 2.26
5 -3 6 21.99 2.25
5 -3 6 26.66 2
-6 3 -6 16.31 1.98
-6 3 -6 14.01 1.79
-6 3 -6 18.65 2.28
6 -3 6 13.55 1.56
6 -3 6 15.88 1.62
6 -3 6 17.32 1.99
6 -3 6 15.79 1.77
-7 3 -6 2.15 0.95
-7 3 -6 1.79 1.1
7 -3 6 1.16 0.74
7 -3 6 1.97 0.74
7 -3 6 1.95 0.71
-8 3 -6 14.56 2.72
8 -3 6 13.51 1.89
8 -3 6 17.03 1.92
8 2 -6 8.74 1.85
8 2 -6 5.96 1.58
-8 -2 6 8.62 2
-8 -2 6 6.93 1.11
7 2 -6 0.64 0.63
7 2 -6 -0.27 0.45
7 2 -6 1.58 0.78
-7 -2 6 -0.4 0.44
-7 -2 6 -0.15 0.54
-7 -2 6 0.92 0.7
6 2 -6 18.68 2.15
6 2 -6 12.89 1.81
6 2 -6 15.8 1.85
6 2 -6 17 1.99
-6 -2 6 16.15 1.46
-6 -2 6 20.56 1.89
5 2 -6 66.38 4.89
5 2 -6 63.89 4.74
5 2 -6 66.78 4.84
-5 -2 6 64.51 4.26
-5 -2 6 78.23 5.42
-5 -2 6 65.14 5.03
4 2 -6 62.15 4.26
4 2 -6 60.19 4.47
4 2 -6 60.36 4.29
-4 -2 6 57.7 3.88
-4 -2 6 61.89 4.46
3 2 -6 3.66 0.69
3 2 -6 3.22 0.61
3 2 -6 3.42 0.76
-3 -2 6 3.25 0.8
2 2 -6 85.81 5.37
2 2 -6 87.28 5.39
2 2 -6 86.13 5.48
-2 -2 6 89.73 5.66
1 2 -6 178.17 10.44
-1 -2 6 171.4 10.62
0 2 -6 4.68 0.53
0 2 -6 4.46 0.59
0 -2 6 4.53 0.63
0 -2 6 5.11 0.54
1 -2 6 7.51 0.69
-2 2 -6 2.94 0.53
-2 2 -6 4.17 0.7
2 -2 6 2.44 0.52
2 -2 6 3.02 0.51
2 -2 6 2.93 0.46
-3 2 -6 84.79 6.17
3 -2 6 94.25 5.51
3 -2 6 95.28 5.67
3 -2 6 79.98 5.83
3 -2 6 89.88 5.69
-4 2 -6 60.43 4.28
-4 2 -6 64.53 4.64
4 -2 6 57.96 4.37
4 -2 6 61.46 4.26
4 -2 6 56.61 4.13
4 -2 6 60.95 3.94
-5 2 -6 15.98 2.04
-5 2 -6 16.6 1.99
-5 2 -6 14.18 1.66
5 -2 6 16.07 1.64
5 -2 6 17.16 1.91
5 -2 6 18.32 1.6
-6 2 -6 8.66 2.91
-6 2 -6 10.64 1.59
6 -2 6 7.85 1.52
6 -2 6 7.39 1.23
6 -2 6 8.62 1.27
-7 2 -6 14.83 2.67
7 -2 6 13.46 1.63
7 -2 6 13.65 2.59
7 -2 6 13.66 1.75
7 -2 6 15.33 1.86
-8 2 -6 7.65 2.09
8 -2 6 8.57 1.56
9 1 -6 6.81 1.99
9 1 -6 9.39 2.01
-9 -1 6 8.87 2.09
-9 -1 6 12.6 2.11
8 1 -6 2.41 1
8 1 -6 2.47 0.97
8 1 -6 1.28 0.87
-8 -1 6 3.44 1.19
-8 -1 6 3.67 0.8
-8 -1 6 2.61 0.96
7 1 -6 11.21 1.67
7 1 -6 14.02 1.96
7 1 -6 14.17 1.88
-7 -1 6 13.81 2.03
-7 -1 6 15.85 1.79
6 1 -6 46.43 3.73
6 1 -6 39.11 3.53
6 1 -6 45.51 3.76
6 1 -6 48.28 4.04
-6 -1 6 47.69 3.23
-6 -1 6 44.03 3.45
-6 -1 6 45.16 3.85
5 1 -6 67.44 5.02
5 1 -6 71.17 5.05
-5 -1 6 70.82 4.57
-5 -1 6 69.58 4.82
-5 -1 6 74.69 5.22
4 1 -6 1.33 0.56
4 1 -6 1.61 0.52
4 1 -6 1.75 0.58
-4 -1 6 1.33 0.56
-4 -1 6 2.18 0.46
-4 -1 6 2.01 0.62
-4 -1 6 1.79 0.37
3 1 -6 31.04 2.38
3 1 -6 35.06 2.39
3 1 -6 29.44 2.46
-3 -1 6 32.69 2.51
-3 -1 6 32.34 2.42
2 1 -6 20.51 1.58
2 1 -6 21.39 1.6
2 1 -6 22.59 1.51
2 1 -6 21.21 1.53
2 1 -6 21.55 1.8
-2 -1 6 22.11 1.75
1 1 -6 90.99 5.47
1 1 -6 88.57 5.97
-1 -1 6 91.06 5.7
0 1 -6 36.93 3
0 1 -6 38.65 2.49
0 1 -6 35.95 2.4
0 -1 6 39.47 2.41
0 -1 6 39.56 2.71
0 -1 6 40.11 2.46
-1 1 -6 0.27 0.36
-1 1 -6 0.4 0.22
-1 1 -6 0.4 0.25
-1 1 -6 0.22 0.22
1 -1 6 0.69 0.24
1 -1 6 0.22 0.22
-2 1 -6 123.33 7.34
-2 1 -6 107.95 7.69
-2 1 -6 110.07 7.13
2 -1 6 105.74 7.15
2 -1 6 124.99 7.04
-3 1 -6 65.17 4.5
-3 1 -6 68.8 5.06
-3 1 -6 72.95 4.86
3 -1 6 65.01 4.4
3 -1 6 67.24 4.39
3 -1 6 66.09 4.21
3 -1 6 64.04 4.65
-4 1 -6 34.04 3.16
-4 1 -6 37.32 3.01
4 -1 6 40.06 2.89
4 -1 6 35.03 3
4 -1 6 32.37 2.72
-5 1 -6 0.43 0.5
-5 1 -6 0.24 0.42
5 -1 6 0.05 0.4
5 -1 6 0.51 0.4
5 -1 6 0.23 0.44
5 -1 6 -0.13 0.35
-6 1 -6 33.44 3.57
6 -1 6 33.62 3.24
6 -1 6 37.01 2.96
6 -1 6 30.6 2.89
6 -1 6 32.43 2.77
-7 1 -6 25.32 3.41
7 -1 6 31.18 2.89
7 -1 6 31.94 2.84
7 -1 6 29.85 3.21
-8 1 -6 3.2 1.42
8 -1 6 5.57 1.28
9 0 -6 1.09 0.82
-9 0 6 1.42 0.73
-9 0 6 0.92 0.89
8 0 -6 3.55 1.21
8 0 -6 5.08 1.29
8 0 -6 4 1.18
-8 0 6 4.03 0.84
-8 0 6 4.37 1.26
-8 0 6 5.56 1.36
7 0 -6 42.31 3.61
7 0 -6 37.76 3.48
-7 0 6 38.18 3.57
-7 0 6 39.07 3.26
-7 0 6 38.85 3.04
6 0 -6 15.47 1.75
6 0 -6 14.43 1.73
-6 0 6 14.58 1.42
-6 0 6 12.41 1.5
-6 0 6 13.5 1.74
-6 0 6 10.97 1.63
5 0 -6 6.95 1.38
5 0 -6 4.86 1.01
5 0 -6 4.34 0.95
-5 0 6 5.34 1.08
-5 0 6 3.84 0.81
-5 0 6 4.78 1.01
-5 0 6 5.81 0.81
4 0 -6 6.67 0.96
4 0 -6 5.45 0.89
4 0 -6 7.8 1.3
-4 0 6 6.56 0.97
-4 0 6 8.1 1.05
-4 0 6 5.13 0.71
-4 0 6 7.89 0.83
3 0 -6 55.54 3.83
3 0 -6 56.07 3.94
3 0 -6 58.74 3.78
-3 0 6 54.94 3.5
-3 0 6 58.38 3.91
2 0 -6 199.93 12.63
2 0 -6 216.1 12.46
2 0 -6 218.02 12.56
-2 0 6 207.81 12.76
1 0 -6 73.95 4.39
1 0 -6 67.28 4.35
1 0 -6 72.14 4.3
1 0 -6 71.9 4.41
-1 0 6 69 4.44
-1 0 6 70.77 4.58
0 0 -6 1.39 0.35
0 0 -6 0.95 0.27
0 0 -6 1.08 0.29
0 0 6 1.61 0.36
0 0 6 1.22 0.45
0 0 6 0.6 0.21
-1 0 -6 106.64 6.92
-1 0 -6 109.75 6.95
-1 0 -6 111.1 6.83
1 0 6 108.86 6.8
1 0 6 118.89 6.74
1 0 6 111.66 6.79
-2 0 -6 121.57 7.77
-2 0 -6 118.77 7.45
-2 0 -6 112.98 7.58
2 0 6 127.8 7.37
2 0 6 117.81 7.46
2 0 6 117.92 7.24
-3 0 -6 20.21 2.11
-3 0 -6 21.11 1.78
3 0 6 20.62 1.58
3 0 6 18.11 1.76
-4 0 -6 0.58 0.57
-4 0 -6 0.49 0.39
4 0 6 1.06 0.4
4 0 6 0.4 0.46
4 0 6 0.08 0.42
4 0 6 0.69 0.46
-5 0 -6 26.51 3.08
5 0 6 31.06 2.94
5 0 6 29.12 2.37
5 0 6 26.03 2.57
5 0 6 32.02 2.54
-6 0 -6 21.49 2.93
6 0 6 21.08 2.51
6 0 6 23.84 2.57
6 0 6 21.34 2.02
-7 0 -6 6.8 1.95
7 0 6 7.71 1.48
7 0 6 6.51 1.56
7 0 6 11.04 1.59
9 -1 -6 2.29 0.97
9 -1 -6 -0.23 0.81
-9 1 6 1.62 0.91
-9 1 6 1.61 0.67
8 -1 -6 6.38 1.64
8 -1 -6 8.88 1.66
-8 1 6 4.99 1.14
-8 1 6 5.53 1.41
-8 1 6 7.47 1.69
7 -1 -6 19.11 2.26
7 -1 -6 19.38 2.23
-7 1 6 17.59 1.88
-7 1 6 20.57 2.1
-7 1 6 18.97 2.21
-7 1 6 22.33 2.43
6 -1 -6 50.3 4.53
6 -1 -6 53.02 4.14
6 -1 -6 51.21 4.09
-6 1 6 53.74 4.29
-6 1 6 56.92 4.19
-6 1 6 56.35 3.97
-6 1 6 50.69 3.85
5 -1 -6 1.62 0.6
5 -1 -6 0.51 0.45
5 -1 -6 1.27 0.51
-5 1 6 1.57 0.59
-5 1 6 0.86 0.44
-5 1 6 1.65 0.65
4 -1 -6 60.55 4.45
4 -1 -6 68.65 4.83
4 -1 -6 70.19 4.58
-4 1 6 71.99 4.46
-4 1 6 67.01 4.55
-4 1 6 67.18 4.33
-4 1 6 59.26 4.61
3 -1 -6 97.45 6.08
3 -1 -6 96.85 6.28
-3 1 6 97.34 5.91
-3 1 6 84.61 6.22
-3 1 6 104.8 6.23
-3 1 6 97 6.08
2 -1 -6 52.79 3.35
2 -1 -6 49.59 3.08
2 -1 -6 53.98 3.29
2 -1 -6 48.23 3.45
-2 1 6 50.53 3.17
-2 1 6 47.42 3.71
-2 1 6 51.35 3.45
-2 1 6 49.44 3.31
1 -1 -6 1.78 0.44
1 -1 -6 1.46 0.44
-1 1 6 2.94 0.62
-1 1 6 1.74 0.68
-1 1 6 1.94 0.39
-1 1 6 1.77 0.44
-1 1 6 2.26 0.43
0 -1 -6 4.9 0.62
0 -1 -6 4.17 0.64
0 -1 -6 5.14 0.7
0 1 6 5.61 0.68
0 1 6 4.38 0.54
0 1 6 4.46 0.59
-1 -1 -6 166.46 9.71
-1 -1 -6 158.66 9.63
-1 -1 -6 152.7 9.42
1 1 6 149.27 9.24
1 1 6 155.21 9.51
1 1 6 148.33 9.41
-2 -1 -6 70.91 4.45
-2 -1 -6 69.66 4.7
-2 -1 -6 59.45 4.75
2 1 6 68.81 4.3
2 1 6 64.75 4.52
-3 -1 -6 3.32 0.71
-3 -1 -6 3.17 1.05
-3 -1 -6 2.35 0.73
3 1 6 2.59 0.61
3 1 6 3.3 0.79
3 1 6 2.73 0.59
-4 -1 -6 30.48 2.52
-4 -1 -6 34.18 3.29
4 1 6 30.47 2.44
4 1 6 27.1 2.58
-5 -1 -6 47.39 4.31
5 1 6 40.66 3.72
5 1 6 43.19 3.48
5 1 6 33.37 2.95
-6 -1 -6 10.58 2.39
6 1 6 10.98 1.66
6 1 6 11.86 1.54
-7 -1 -6 0.27 0.92
7 1 6 -1.06 0.56
7 1 6 0.69 0.7
9 -2 -6 2.76 1.01
9 -2 -6 3.79 1.25
-9 2 6 3.4 1.1
-9 2 6 5.33 1.53
-9 2 6 1.8 1.07
8 -2 -6 45.51 3.77
-8 2 6 42.28 3.91
-8 2 6 41.11 3.68
-8 2 6 34.66 3.37
7 -2 -6 21.37 2.21
7 -2 -6 18.82 2.1
-7 2 6 14.04 1.8
-7 2 6 19.65 2.04
-7 2 6 20.12 2.34
6 -2 -6 0.23 0.46
6 -2 -6 -0.94 0.56
6 -2 -6 -0.19 0.46
-6 2 6 0.46 0.47
-6 2 6 -0.12 0.43
-6 2 6 -0.01 0.43
-6 2 6 -0.28 0.35
5 -2 -6 17.92 1.74
5 -2 -6 18.34 1.74
5 -2 -6 15.82 1.97
-5 2 6 17.5 1.57
-5 2 6 17.01 1.67
-5 2 6 12.07 1.71
-5 2 6 17.1 1.68
-5 2 6 17 1.62
4 -2 -6 96 6.01
4 -2 -6 88.5 6.34
-4 2 6 82.41 5.94
-4 2 6 93.83 6.16
-4 2 6 92.47 6.34
-4 2 6 97.87 5.87
3 -2 -6 51.38 3.5
3 -2 -6 56.05 3.58
3 -2 -6 51.34 3.82
-3 2 6 41.73 3.75
-3 2 6 54.07 3.62
-3 2 6 56.38 3.6
2 -2 -6 17.07 1.34
2 -2 -6 15.5 1.51
2 -2 -6 17.83 1.37
-2 2 6 14.19 1.33
-2 2 6 11.64 1.6
-2 2 6 14.14 1.37
-2 2 6 16.62 1.27
1 -2 -6 53.47 3.3
1 -2 -6 51.67 3.39
1 -2 -6 43.89 3.21
-1 2 6 48.22 3.25
-1 2 6 51.51 3.23
-1 2 6 45.4 3.38
-1 2 6 43.2 3.79
0 -2 -6 162.13 9.83
0 -2 -6 159.86 9.77
0 2 6 158 9.69
0 2 6 157.19 10.51
-1 -2 -6 47.05 3.19
-1 -2 -6 46.74 3.41
-1 -2 -6 44.75 3.46
1 2 6 42.78 3.85
1 2 6 53.07 3.25
1 2 6 41.07 3.23
-2 -2 -6 0.92 0.55
-2 -2 -6 1.22 0.45
-2 -2 -6 0.7 0.55
2 2 6 1.02 0.42
2 2 6 0.84 0.44
2 2 6 0.22 0.4
-3 -2 -6 7.27 1.41
-3 -2 -6 4.74 1.37
-3 -2 -6 9.05 1.08
3 2 6 6.66 1
3 2 6 8 1.16
-4 -2 -6 31.75 3.5
-4 -2 -6 33.37 3.17
4 2 6 34.52 2.95
4 2 6 35.58 3.03
4 2 6 32.79 2.6
-5 -2 -6 8.38 2.06
5 2 6 8.33 1.22
5 2 6 8.8 1.59
-6 -2 -6 6.15 1.79
6 2 6 3.31 1.03
6 2 6 5.65 1.34
6 2 6 6.56 1.7
9 -3 -6 23.4 4.25
9 -3 -6 19.32 2.52
-9 3 6 19.55 2.33
-9 3 6 15.02 2.66
-9 3 6 18.38 2.34
8 -3 -6 9.43 1.7
8 -3 -6 8.25 1.69
-8 3 6 10.98 1.62
-8 3 6 11.14 1.67
-8 3 6 13.27 1.98
7 -3 -6 3.18 1.03
7 -3 -6 4.89 1.1
-7 3 6 3.83 2
-7 3 6 3.47 1.01
-7 3 6 3.26 0.89
-7 3 6 2.71 0.9
6 -3 -6 7.74 1.37
6 -3 -6 10.62 1.89
6 -3 -6 11.29 1.48
-6 3 6 9.24 1.32
-6 3 6 13.34 1.47
-6 3 6 10.1 1.39
-6 3 6 10.68 1.24
-6 3 6 9.96 1.6
5 -3 -6 51.16 4.53
5 -3 -6 51.92 3.68
5 -3 -6 51.5 3.66
-5 3 6 54.76 3.58
-5 3 6 46.18 3.68
-5 3 6 42.95 3.49
-5 3 6 45.84 3.91
4 -3 -6 85.79 5.52
4 -3 -6 85.42 5.55
4 -3 -6 79.5 6.02
-4 3 6 80.14 5.63
-4 3 6 87.05 5.51
-4 3 6 79.12 5.82
-4 3 6 86.24 5.43
3 -3 -6 9.75 1.06
3 -3 -6 8.4 1.27
3 -3 -6 10.28 1.07
-3 3 6 5.67 1.11
-3 3 6 9.17 1.05
-3 3 6 8.3 0.98
-3 3 6 8.03 1.06
2 -3 -6 35.11 2.48
2 -3 -6 33.2 2.74
2 -3 -6 34.67 2.48
-2 3 6 33.86 2.71
-2 3 6 30.01 2.49
-2 3 6 34.56 2.43
1 -3 -6 43.37 3
1 -3 -6 45.68 3.17
-1 3 6 34.68 2.88
-1 3 6 43.88 3
-1 3 6 42.76 3.12
0 -3 -6 98.16 6.48
0 -3 -6 95.77 6.51
0 3 6 109.42 7.34
0 3 6 93.5 6.4
0 3 6 103.53 6.44
-1 -3 -6 1.77 0.71
-1 -3 -6 0.99 0.49
-1 -3 -6 2.04 0.7
1 3 6 1.75 0.59
1 3 6 2.17 0.99
1 3 6 1.98 0.62
-2 -3 -6 4.7 1.28
-2 -3 -6 2.38 0.68
-2 -3 -6 3.01 0.88
2 3 6 1.81 0.94
2 3 6 2.71 0.77
2 3 6 2.17 0.64
2 3 6 3.6 0.7
-3 -3 -6 14.66 1.88
-3 -3 -6 12.07 2.17
3 3 6 12.66 1.63
3 3 6 12.15 1.41
-4 -3 -6 24.63 2.86
-4 -3 -6 26.95 3.28
4 3 6 30.29 2.82
4 3 6 28.72 2.42
-5 -3 -6 10.45 2.31
5 3 6 11.34 1.53
5 3 6 10.71 1.93
-6 -3 -6 0.6 1
6 3 6 0.81 0.7
9 -4 -6 25.02 2.61
9 -4 -6 20.43 2.49
-9 4 6 20.06 2.94
-9 4 6 23.22 2.47
-9 4 6 17.51 2.36
8 -4 -6 3.81 1.03
8 -4 -6 3.54 1.08
-8 4 6 3.08 1.2
-8 4 6 3.19 1.07
-8 4 6 4.93 1.22
7 -4 -6 5.76 1.18
7 -4 -6 3.9 1.08
-7 4 6 5.49 1.12
-7 4 6 4.34 1.3
-7 4 6 6.08 1.07
-7 4 6 6.05 1.26
6 -4 -6 44.21 3.5
6 -4 -6 48.16 3.56
-6 4 6 40.84 3.63
-6 4 6 47.99 4.26
-6 4 6 44.78 3.37
-6 4 6 42.18 3.38
5 -4 -6 42.68 3.4
5 -4 -6 46.15 3.46
5 -4 -6 48.41 4.08
-5 4 6 45.54 3.33
-5 4 6 42.85 3.53
-5 4 6 41.63 3.75
-5 4 6 48.68 3.35
4 -4 -6 0.32 0.85
4 -4 -6 1.63 0.57
4 -4 -6 1.94 0.65
-4 4 6 2.68 0.67
-4 4 6 1.28 0.54
-4 4 6 2.56 0.85
-4 4 6 2.54 0.67
3 -4 -6 3.98 0.82
3 -4 -6 3.42 0.95
3 -4 -6 2.37 0.62
-3 4 6 2.83 0.67
-3 4 6 2.28 0.77
-3 4 6 2.75 0.68
-3 4 6 3.79 0.82
2 -4 -6 49.13 3.75
2 -4 -6 49.52 3.4
2 -4 -6 43.43 3.34
-2 4 6 47.69 3.48
-2 4 6 52.7 3.39
-2 4 6 43.06 3.62
1 -4 -6 32.54 2.63
1 -4 -6 31.19 2.54
1 -4 -6 38.33 2.59
-1 4 6 33.22 2.65
-1 4 6 24.09 2.34
-1 4 6 28.91 2.41
0 -4 -6 13.94 1.5
0 -4 -6 13.62 1.61
0 -4 -6 14.47 1.66
0 4 6 10.75 1.47
0 4 6 15.06 1.56
0 4 6 18.2 1.64
-1 -4 -6 6.46 1.35
-1 -4 -6 5.93 1.22
1 4 6 6.71 1.07
1 4 6 5.44 1.14
1 4 6 5.33 1.58
-2 -4 -6 20.25 2.55
-2 -4 -6 20.13 2.3
2 4 6 20.26 1.97
2 4 6 26.21 2.96
2 4 6 23.38 2.26
2 4 6 21.28 1.87
-3 -4 -6 50.42 4.53
-3 -4 -6 60.17 5.08
3 4 6 57.57 5.09
3 4 6 49.11 3.89
3 4 6 56.64 4.4
-4 -4 -6 5.57 1.72
-4 -4 -6 5.62 1.51
4 4 6 10.87 1.93
4 4 6 8.65 1.28
-5 -4 -6 -0.86 0.87
5 4 6 0.02 0.64
5 4 6 1.97 0.82
9 -5 -6 1.83 0.84
9 -5 -6 0.11 0.88
-9 5 6 1.62 0.86
-9 5 6 1.05 0.74
-9 5 6 -0.3 1.38
8 -5 -6 0.32 0.59
8 -5 -6 0.4 0.76
-8 5 6 0.48 0.59
-8 5 6 -0.46 0.47
-8 5 6 0.05 0.64
-8 5 6 -0.57 0.68
7 -5 -6 15.66 1.92
7 -5 -6 16.05 1.96
-7 5 6 20.46 1.88
-7 5 6 15.91 1.9
-7 5 6 16.29 2.29
6 -5 -6 31.24 2.68
6 -5 -6 32.66 2.67
-6 5 6 23.58 2.87
-6 5 6 28.31 3.04
-6 5 6 26.95 2.55
-6 5 6 31.98 2.51
5 -5 -6 9.05 1.22
5 -5 -6 8.25 1.34
-5 5 6 6.24 1.2
-5 5 6 8.81 1.25
-5 5 6 8.16 1.12
-5 5 6 7.69 1.57
4 -5 -6 0.24 0.43
4 -5 -6 0.41 0.5
-4 5 6 0.04 0.39
-4 5 6 -0.44 0.43
-4 5 6 0.48 0.45
3 -5 -6 12.42 2.01
3 -5 -6 13.16 1.47
-3 5 6 13.17 1.44
-3 5 6 12.46 1.7
-3 5 6 12.62 1.47
2 -5 -6 42.27 3.11
2 -5 -6 43.22 3.5
2 -5 -6 45.21 3.12
-2 5 6 31.13 3.19
-2 5 6 34.05 3.03
-2 5 6 41.82 3.02
1 -5 -6 71.49 4.79
1 -5 -6 65.69 4.84
-1 5 6 58.01 4.64
-1 5 6 76.58 5.04
0 -5 -6 0.97 0.67
0 -5 -6 1.11 0.69
0 5 6 0.87 0.55
0 5 6 0.95 0.47
0 5 6 2.2 0.74
-1 -5 -6 19.64 2.38
-1 -5 -6 19.46 2.25
1 5 6 18.3 2.04
1 5 6 22.45 2.8
1 5 6 22.13 2.02
-2 -5 -6 27.35 2.94
-2 -5 -6 30.93 3.28
2 5 6 29.93 2.86
2 5 6 31.62 2.6
2 5 6 28.78 3.46
-3 -5 -6 11.77 2.33
-3 -5 -6 10.13 1.97
3 5 6 12.74 1.87
3 5 6 13.77 2.36
-4 -5 -6 -1.02 0.74
-4 -5 -6 -1.06 0.85
4 5 6 1.16 0.84
4 5 6 -1.43 0.7
8 -6 -6 5.18 1.36
8 -6 -6 4.44 1.16
-8 6 6 5.4 1.3
-8 6 6 6.48 1.72
-8 6 6 7.82 1.37
7 -6 -6 8.39 1.42
7 -6 -6 9.15 1.47
-7 6 6 7.46 1.8
-7 6 6 7.09 1.35
-7 6 6 7 1.21
6 -6 -6 12.39 1.71
-6 6 6 15.68 1.75
-6 6 6 15.91 2.31
5 -6 -6 2.96 0.87
5 -6 -6 3.62 0.87
-5 6 6 2.05 0.96
-5 6 6 2.71 0.8
-5 6 6 2.14 0.78
4 -6 -6 5.19 1.13
4 -6 -6 6.68 1.21
-4 6 6 10.33 1.86
-4 6 6 9.82 1.25
3 -6 -6 62.98 4.4
3 -6 -6 54.94 4.25
-3 6 6 60.49 5.47
-3 6 6 56.28 4.78
-3 6 6 65.44 4.57
-2 6 6 18.93 1.84
-2 6 6 15.27 2.07
1 -6 -6 0.27 0.59
1 -6 -6 0 0.54
-1 6 6 0.64 0.69
-1 6 6 0.22 0.46
0 -6 -6 5.92 1.38
0 -6 -6 4.42 1.15
0 6 6 6.49 1.31
0 6 6 5.91 1.29
-1 -6 -6 24.62 2.76
-1 -6 -6 30.16 3.11
1 6 6 29.34 3.52
1 6 6 27.67 2.69
1 6 6 26.44 2.5
-2 -6 -6 12.08 2.02
-2 -6 -6 14.92 2.64
2 6 6 17.89 2.76
2 6 6 16.26 1.86
2 6 6 13.69 1.98
-3 -6 -6 1.74 1.43
-3 -6 -6 1.1 1.16
3 6 6 2.12 1.17
3 6 6 3.73 1.13
7 -7 -6 20.13 2.4
7 -7 -6 24.42 2.38
-7 7 6 16.6 2.21
-7 7 6 23.66 2.09
-7 7 6 22.52 2.95
6 -7 -6 0.05 0.56
6 -7 -6 -0.26 0.64
-6 7 6 1.57 0.95
-6 7 6 0.99 0.68
-6 7 6 -0.5 0.49
5 -7 -6 3.79 0.95
5 -7 -6 3.66 0.98
-5 7 6 5.23 1.09
-5 7 6 5.73 1.53
4 -7 -6 23.08 2.32
4 -7 -6 30.42 2.57
-4 7 6 24.28 2.96
-4 7 6 27.39 2.41
3 -7 -6 14.31 1.78
3 -7 -6 13.06 1.79
-3 7 6 14.28 2.15
-3 7 6 13.37 1.64
2 -7 -6 6.34 1.31
2 -7 -6 4.85 1.14
-2 7 6 6.04 1.46
-2 7 6 5.2 1.17
1 -7 -6 3.87 1.09
1 -7 -6 5.09 1.28
-1 7 6 6.7 1.57
-1 7 6 3.86 1.12
0 -7 -6 18.05 2.24
0 -7 -6 13.61 2.01
0 7 6 14.51 1.96
0 7 6 14.97 2
-1 -7 -6 23.91 2.97
-1 -7 -6 18.44 2.48
1 7 6 23.74 5.01
1 7 6 14.55 2.49
1 7 6 22.71 2.43
6 -8 -6 2.05 0.83
6 -8 -6 2.03 0.88
-6 8 6 1.67 1.43
-6 8 6 0.92 1.34
5 -8 -6 4.44 1.13
5 -8 -6 8.56 1.79
-5 8 6 7.02 1.37
4 -8 -6 20.24 2.77
4 -8 -6 24.78 2.97
-4 8 6 19.65 2.17
3 -8 -6 4.79 1.37
3 -8 -6 6.05 1.4
-3 8 6 5.14 1.21
-3 8 6 4.24 1.57
2 -8 -6 2.42 1.01
-2 8 6 -1.38 0.91
-2 8 6 0.57 0.63
1 -8 -6 15.89 2.28
-1 8 6 15.93 2.46
-1 8 6 14.5 2.6
0 11 -7 25.65 2.48
-2 11 -7 10.09 1.47
-3 11 -7 17.17 2.03
-4 11 -7 5.56 1.35
-5 11 -7 1.98 0.89
5 -11 7 1.87 0.74
2 10 -7 43.36 3.74
-2 -10 7 44.48 3.32
0 10 -7 2.82 0.83
-2 10 -7 2.14 0.73
-3 10 -7 12.43 1.67
-4 10 -7 14.99 1.8
4 -10 7 12.44 1.42
-5 10 -7 0.63 0.67
5 -10 7 0.08 0.46
-6 10 -7 0.95 0.73
6 -10 7 1.72 0.65
3 9 -7 5.41 1.4
-3 -9 7 9.99 1.5
2 9 -7 11.85 1.56
-2 -9 7 9.4 1.34
1 9 -7 24.91 2.83
1 9 -7 25.25 2.23
-1 -9 7 25.97 2.06
0 9 -7 0.05 0.43
0 9 -7 0.45 0.46
0 9 -7 1.07 0.47
0 -9 7 0.45 0.43
0 -9 7 -0.15 0.49
-1 9 -7 12.39 1.42
1 -9 7 13.63 1.39
-2 9 -7 8.63 1.25
-2 9 -7 11.41 1.36
2 -9 7 9.68 1.31
-3 9 -7 15.46 1.73
-3 9 -7 17.43 1.79
3 -9 7 14.76 1.41
-4 9 -7 0.3 0.51
-4 9 -7 0.18 0.49
4 -9 7 0.47 0.44
4 -9 7 0.21 0.43
-5 9 -7 2.75 0.99
-5 9 -7 2.85 0.92
5 -9 7 2.42 0.7
5 -9 7 1.89 0.83
-6 9 -7 8.39 1.73
6 -9 7 4.47 0.9
-7 9 -7 17.01 2.37
7 -9 7 14.81 1.93
4 8 -7 4.14 1.21
4 8 -7 3.89 1.16
-4 -8 7 3.46 1.09
3 8 -7 25.57 2.62
-3 -8 7 29.86 2.69
2 8 -7 0.14 0.45
2 8 -7 1.11 0.56
2 8 -7 0.81 0.52
-2 -8 7 0.8 0.56
-2 -8 7 -0.07 0.39
1 8 -7 17.55 1.97
1 8 -7 19.96 1.74
1 8 -7 17.62 1.63
-1 -8 7 19.71 1.68
-1 -8 7 14.93 1.69
0 8 -7 7.81 0.94
0 8 -7 5.99 0.99
0 8 -7 7.1 0.99
0 -8 7 5.23 0.94
0 -8 7 7.92 0.83
-1 8 -7 36.15 2.5
-1 8 -7 34.7 2.59
-1 8 -7 31.61 2.39
-1 8 -7 24.92 2.49
1 -8 7 32.7 2.17
1 -8 7 31.12 2.35
-2 8 -7 15.09 1.6
-2 8 -7 14.33 1.52
-2 8 -7 17.55 1.71
-2 8 -7 18.77 1.69
2 -8 7 14.51 1.37
2 -8 7 18.79 1.53
-3 8 -7 11.63 1.45
-3 8 -7 10.04 1.26
-3 8 -7 10.45 1.55
3 -8 7 12.61 1.4
3 -8 7 11.91 1.14
-4 8 -7 11.68 1.55
-4 8 -7 10.52 1.52
4 -8 7 12.89 1.24
4 -8 7 13.1 1.31
-5 8 -7 5.53 1.21
-5 8 -7 5.27 0.57
-5 8 -7 5.14 1.63
-5 8 -7 6.34 1.43
5 -8 7 5.17 0.97
5 -8 7 5.24 0.94
-6 8 -7 6.5 1.38
-6 8 -7 8.21 1.7
6 -8 7 5.41 1.01
6 -8 7 4.05 0.94
-7 8 -7 11.12 2.3
7 -8 7 9.6 1.52
-8 8 -7 3.68 1.85
8 -8 7 3.88 1.02
5 7 -7 -0.54 0.64
5 7 -7 1.96 0.9
-5 -7 7 0.33 0.74
4 7 -7 18.36 2.17
4 7 -7 20.77 2.23
4 7 -7 16.39 1.69
-4 -7 7 18.6 2.21
3 7 -7 35.9 3.03
3 7 -7 31.53 2.78
3 7 -7 23.98 2.68
3 7 -7 26.74 2.54
-3 -7 7 37.75 2.95
2 7 -7 3.68 0.79
2 7 -7 2.69 0.61
2 7 -7 2.83 0.77
-2 -7 7 2.31 0.71
-2 -7 7 1.74 0.62
1 7 -7 14.44 1.28
1 7 -7 13.47 1.31
1 7 -7 12.81 1.3
1 7 -7 15.28 1.37
-1 -7 7 13.65 1.36
-1 -7 7 12.68 1.36
0 7 -7 12.48 1.3
0 7 -7 13.55 1.24
0 7 -7 15.3 1.31
0 7 -7 13.72 1.3
0 -7 7 13.16 1.2
0 -7 7 13.19 1.27
-1 7 -7 21.23 1.74
-1 7 -7 18.11 1.91
-1 7 -7 21.35 1.8
-1 7 -7 21.59 1.67
1 -7 7 23.82 1.65
1 -7 7 20.35 1.63
-2 7 -7 11.94 1.17
-2 7 -7 12.37 1.3
-2 7 -7 10.38 1.03
-2 7 -7 10.92 1.23
-2 7 -7 9.68 1.22
2 -7 7 13.23 1.18
2 -7 7 12.16 1.03
-3 7 -7 3.43 0.86
-3 7 -7 2.43 0.68
-3 7 -7 3.76 0.76
-3 7 -7 2.97 0.5
3 -7 7 2.36 0.5
3 -7 7 2.22 0.56
-4 7 -7 0.22 0.22
-4 7 -7 1.19 0.66
-4 7 -7 0.56 0.43
4 -7 7 0.41 0.36
4 -7 7 0.64 0.38
-5 7 -7 81.93 6.09
-5 7 -7 93.8 6.55
-5 7 -7 86.87 6.18
5 -7 7 87.57 5.73
-6 7 -7 55.28 4.2
6 -7 7 46.82 3.57
6 -7 7 45.85 3.71
-7 7 -7 15.95 2.66
7 -7 7 13.35 1.6
-8 7 -7 15.52 2.24
8 -7 7 10.59 1.52
6 6 -7 1.46 0.76
6 6 -7 1.07 0.77
-6 -6 7 0.95 0.87
5 6 -7 15.66 1.62
5 6 -7 15.59 2.03
-5 -6 7 13.36 2.03
4 6 -7 12.94 1.71
4 6 -7 12.08 1.57
4 6 -7 15.24 1.75
-4 -6 7 11.79 1.74
3 6 -7 3.57 0.72
3 6 -7 3.31 0.84
3 6 -7 5.49 1.03
3 6 -7 4.95 1.05
-3 -6 7 4.28 1.06
2 6 -7 14.18 1.3
2 6 -7 13.59 1.41
2 6 -7 14.73 1.42
-2 -6 7 15.79 1.6
1 6 -7 42.53 2.64
1 6 -7 35.94 2.62
-1 -6 7 39.93 2.77
-1 -6 7 30.73 2.56
0 6 -7 22.2 1.77
0 6 -7 28 1.82
0 6 -7 26.35 1.94
0 -6 7 20.7 1.74
0 -6 7 26.94 1.9
-1 6 -7 68.42 4.82
-1 6 -7 79.59 5.01
-1 6 -7 80.7 5.15
-1 6 -7 80.77 5.12
1 -6 7 78.52 5.17
1 -6 7 82.11 4.99
-2 6 -7 26.38 1.9
-2 6 -7 25.89 2.12
-2 6 -7 24.48 1.92
2 -6 7 26.65 1.78
2 -6 7 26.23 1.94
-3 6 -7 140.32 9.28
-3 6 -7 152.27 9.57
-3 6 -7 148.12 9.05
-3 6 -7 142.22 9.21
3 -6 7 153.79 9.12
3 -6 7 153.18 9.03
-4 6 -7 41.73 3.42
-4 6 -7 39.68 3.11
-4 6 -7 36.55 3.03
4 -6 7 38.58 2.83
4 -6 7 41.14 2.91
-5 6 -7 5.18 1.31
-5 6 -7 5.08 1.28
-5 6 -7 3.69 0.98
5 -6 7 4.11 0.93
5 -6 7 4.98 0.99
-6 6 -7 -0.29 0.56
6 -6 7 0.42 0.39
6 -6 7 0.16 0.48
-7 6 -7 0.93 0.95
7 -6 7 0.22 0.45
7 -6 7 1.72 0.71
7 -6 7 0.14 0.56
7 -6 7 0.33 0.5
-8 6 -7 13.17 2.59
8 -6 7 10.04 1.15
8 -6 7 9.05 2.13
7 5 -7 -0.02 0.63
7 5 -7 0.88 0.87
-7 -5 7 -0.09 0.77
6 5 -7 1.76 1.09
6 5 -7 3.26 1.07
-6 -5 7 2.28 1.12
5 5 -7 33.9 3.2
5 5 -7 39.29 3.29
-5 -5 7 34.14 3.37
4 5 -7 14.02 1.7
4 5 -7 16.67 1.74
4 5 -7 14.27 1.67
-4 -5 7 12.97 1.78
3 5 -7 3.99 0.9
3 5 -7 2.63 0.55
3 5 -7 2.93 0.71
3 5 -7 3.45 0.65
3 5 -7 4.47 0.92
-3 -5 7 4.23 0.96
2 5 -7 5.05 0.72
2 5 -7 5.71 0.79
2 5 -7 3.62 0.57
2 5 -7 5.01 0.75
2 5 -7 5.14 0.91
-2 -5 7 3.87 0.85
1 5 -7 108.32 7.2
1 5 -7 120.28 7.57
-1 -5 7 122.89 7.41
0 5 -7 110.79 7.04
0 -5 7 115.57 7.06
-1 5 -7 6.02 0.73
-1 5 -7 6.1 0.78
1 -5 7 5.75 0.72
1 -5 7 5.84 0.79
-2 5 -7 36.48 2.66
-2 5 -7 34.34 2.39
-2 5 -7 34.14 2.55
2 -5 7 36 2.46
-3 5 -7 19.71 1.67
-3 5 -7 21.25 1.73
-3 5 -7 15.69 1.78
3 -5 7 19.32 1.55
3 -5 7 19.95 1.57
-4 5 -7 60.04 4.46
-4 5 -7 75.68 5.01
4 -5 7 61.98 4.26
4 -5 7 61.06 4.36
-5 5 -7 0.75 0.68
-5 5 -7 1.32 0.68
5 -5 7 1.66 0.51
5 -5 7 0.75 0.48
-6 5 -7 8.92 1.91
-6 5 -7 12.83 2.3
6 -5 7 10.74 1.44
6 -5 7 11.85 1.37
6 -5 7 12.82 1.61
-7 5 -7 9.84 2.1
7 -5 7 6.2 1.09
7 -5 7 5.81 1.32
7 -5 7 5.91 1.11
7 -5 7 8.45 0.98
7 -5 7 4.54 1.12
-8 5 -7 14.89 2.82
8 -5 7 12.6 1.41
8 -5 7 12.05 2.26
8 -5 7 12.86 1.57
7 4 -7 1.22 0.83
7 4 -7 0.95 0.79
-7 -4 7 1.21 1.02
-7 -4 7 0.73 0.56
6 4 -7 8.67 1.68
6 4 -7 9.56 1.4
6 4 -7 9.91 1.78
-6 -4 7 8.93 1.87
5 4 -7 53 4.3
5 4 -7 52.2 4.22
5 4 -7 59.78 4.08
4 4 -7 24.44 2.19
4 4 -7 24.43 2.25
4 4 -7 24.75 2.01
4 4 -7 24.84 2.36
-4 -4 7 22.78 2.36
3 4 -7 35.01 2.62
3 4 -7 39.88 3.08
3 4 -7 39.93 2.96
3 4 -7 44.02 3
3 4 -7 37.11 2.69
-3 -4 7 38.74 3.12
2 4 -7 206.6 12.88
2 4 -7 216.75 12.5
2 4 -7 219.34 12.75
2 4 -7 201.18 12.65
2 4 -7 211.69 12.64
-2 -4 7 208.7 12.98
-1 -4 7 1.91 0.49
0 4 -7 10.31 0.96
0 -4 7 8.34 0.97
0 -4 7 11.76 0.98
-1 4 -7 4.2 0.73
1 -4 7 3.12 0.52
1 -4 7 4.27 0.76
-2 4 -7 102.16 6.56
-2 4 -7 108.62 6.77
2 -4 7 109.46 6.6
-3 4 -7 14.41 1.39
-3 4 -7 14.65 1.57
3 -4 7 15.19 1.31
3 -4 7 14.79 1.51
-4 4 -7 38.54 2.93
-4 4 -7 29.84 3
4 -4 7 36.21 2.87
4 -4 7 38.39 3.24
4 -4 7 39.49 2.72
-5 4 -7 3.96 1.16
-5 4 -7 6.18 1.13
5 -4 7 6.17 1.07
5 -4 7 4.53 0.96
5 -4 7 5.38 1.1
-6 4 -7 18.04 2.38
6 -4 7 15.64 1.82
6 -4 7 17.91 1.76
6 -4 7 22.6 1.8
6 -4 7 15.75 1.95
6 -4 7 17.1 1.53
-7 4 -7 13.79 2.47
7 -4 7 13.89 1.46
7 -4 7 12.46 1.88
7 -4 7 11.85 1.36
-8 4 -7 10.49 2.34
8 -4 7 9.44 1.43
8 3 -7 1.3 0.86
8 3 -7 0.3 0.84
-8 -3 7 -0.21 0.97
-8 -3 7 -0.67 0.61
-8 -3 7 0.51 0.82
7 3 -7 47.6 3.75
7 3 -7 34.94 3.71
7 3 -7 44.85 3.99
-7 -3 7 44.44 3.41
-7 -3 7 43.39 4.13
6 3 -7 63.02 4.84
6 3 -7 62 4.76
6 3 -7 58.64 4.52
-6 -3 7 63.09 4.22
-6 -3 7 57.77 3.89
-6 -3 7 61.49 5.01
5 3 -7 4.06 1.03
5 3 -7 4.15 1.12
5 3 -7 6.45 1.01
5 3 -7 4.32 1.01
-5 -3 7 5.4 1.36
4 3 -7 12.9 1.26
4 3 -7 11.18 1.45
-4 -3 7 7.56 1.45
3 3 -7 20.13 1.52
3 3 -7 16 1.64
3 3 -7 12.87 1.31
3 3 -7 18.33 1.53
2 3 -7 79.55 5.08
2 3 -7 80.68 5.03
-2 -3 7 83.97 5.4
1 3 -7 55.74 3.59
-1 -3 7 56.08 3.77
0 3 -7 6.03 0.65
0 -3 7 5.45 0.76
0 -3 7 5.21 0.65
-1 3 -7 103.3 6.77
1 -3 7 114.63 6.69
1 -3 7 109.55 6.93
-2 3 -7 66.63 4.75
-2 3 -7 84.42 4.79
2 -3 7 73.38 4.7
2 -3 7 71.58 4.58
2 -3 7 74.94 4.69
-3 3 -7 20.09 1.76
-3 3 -7 17.21 1.54
3 -3 7 16.11 1.4
3 -3 7 14.86 1.38
-4 3 -7 3.5 0.92
-4 3 -7 2.8 0.77
4 -3 7 3.62 0.76
4 -3 7 2.42 0.61
4 -3 7 3.85 0.86
-5 3 -7 6.97 1.23
-5 3 -7 6.36 1.5
5 -3 7 4.16 1.01
5 -3 7 4.33 0.91
5 -3 7 5.59 0.75
5 -3 7 6.82 0.82
-6 3 -7 30.13 3.66
-6 3 -7 27.98 3.26
6 -3 7 20.06 2.15
6 -3 7 21.48 2.45
6 -3 7 25.07 2.05
6 -3 7 27.3 2.14
-7 3 -7 18.94 2.58
7 -3 7 15.69 2.11
7 -3 7 16.15 1.9
7 -3 7 19.48 1.85
7 -3 7 16.25 1.67
-8 3 -7 -0.33 0.58
8 -3 7 -0.58 0.56
8 -3 7 -0.73 0.49
8 2 -7 13.32 2.14
8 2 -7 14.44 2.16
-8 -2 7 16.74 2.42
-8 -2 7 14.55 1.81
-8 -2 7 13.76 1.51
7 2 -7 10.48 1.67
7 2 -7 6.49 1.36
7 2 -7 9.94 1.75
-7 -2 7 10.94 2.09
-7 -2 7 11.81 1.38
-7 -2 7 6.95 1
6 2 -7 14.82 1.83
6 2 -7 19.48 2.19
6 2 -7 15.38 1.88
6 2 -7 14.27 2.27
-6 -2 7 16.42 2.06
-6 -2 7 14.03 1.29
-6 -2 7 14.31 1.5
5 2 -7 0.21 0.42
5 2 -7 -0.19 0.38
5 2 -7 -0.16 0.29
-5 -2 7 -0.08 0.38
4 2 -7 58.32 4.33
4 2 -7 68.48 4.45
4 2 -7 59.7 4.3
-4 -2 7 65.81 4.62
3 2 -7 125.93 7.43
3 2 -7 98.71 7.52
3 2 -7 126.38 7.49
3 2 -7 112.51 7.38
-3 -2 7 130.44 7.74
2 2 -7 1.63 0.39
2 2 -7 1.06 0.32
-2 -2 7 1.16 0.45
1 2 -7 2.24 0.41
-1 -2 7 1.69 0.46
0 2 -7 23.63 1.75
0 -2 7 24.92 1.93
0 -2 7 25.7 1.85
1 -2 7 43.64 2.83
-2 2 -7 55.98 3.66
-2 2 -7 50.01 3.52
2 -2 7 48.32 3.42
2 -2 7 61.82 3.42
2 -2 7 47.89 3.56
-3 2 -7 51.31 3.81
-3 2 -7 53.44 3.64
3 -2 7 54.34 3.47
3 -2 7 43.63 3.68
3 -2 7 52.91 3.47
-4 2 -7 60.04 4.69
-4 2 -7 63.06 4.93
4 -2 7 61.07 4.02
4 -2 7 64.65 4.22
4 -2 7 59.27 4.47
4 -2 7 59.02 3.89
-5 2 -7 33.36 3.38
-5 2 -7 36.1 2.98
-5 2 -7 36.28 3.41
5 -2 7 39.49 2.89
5 -2 7 36.56 2.59
5 -2 7 32.55 3.07
5 -2 7 33.61 2.7
-6 2 -7 29.71 3.4
6 -2 7 33.14 3.18
6 -2 7 34.06 2.88
6 -2 7 35.14 2.83
6 -2 7 34.73 2.61
-7 2 -7 4.8 1.52
7 -2 7 4.43 1.12
7 -2 7 4.92 1.08
7 -2 7 3.72 0.84
7 -2 7 2.42 0.99
-8 2 -7 22.32 3.32
8 -2 7 26.18 2.6
8 1 -7 15.03 2.27
8 1 -7 25.28 2.67
-8 -1 7 21.45 2.18
-8 -1 7 26.04 2.88
-8 -1 7 21.02 1.99
7 1 -7 16.01 1.99
7 1 -7 16.16 2.03
7 1 -7 12.56 1.77
-7 -1 7 15.4 1.69
-7 -1 7 15.11 1.44
-7 -1 7 16.94 2.17
6 1 -7 9.35 1.36
6 1 -7 8.45 1.29
6 1 -7 8.1 1.65
6 1 -7 8.26 1.46
-6 -1 7 5.49 1.08
5 1 -7 17.74 1.75
5 1 -7 16.05 1.86
5 1 -7 14.99 1.62
-5 -1 7 11.2 1.54
-5 -1 7 14.08 1.27
-5 -1 7 14.82 1.74
4 1 -7 39.01 2.92
4 1 -7 29.95 2.93
4 1 -7 37.63 2.82
-4 -1 7 41.97 3.07
-4 -1 7 38.61 2.93
3 1 -7 33.47 2.33
3 1 -7 33.39 2.6
-3 -1 7 30.43 2.42
-3 -1 7 25.11 2.23
2 1 -7 33.46 2.06
2 1 -7 32.21 2.18
2 1 -7 26.93 2.42
2 1 -7 32.5 2.06
2 1 -7 29.55 2.14
-2 -1 7 28.93 2.17
-2 -1 7 31.15 2.35
1 1 -7 9.6 0.82
1 1 -7 11.25 1.3
0 1 -7 240.14 13.86
0 1 -7 230.96 14.68
0 1 -7 222.24 13.96
0 1 -7 251.76 13.94
0 -1 7 250.88 13.9
0 -1 7 199.9 14.18
0 -1 7 245.13 13.92
-1 1 -7 82.58 5.81
1 -1 7 86.88 5
1 -1 7 74.04 4.95
-2 1 -7 2.62 0.82
-2 1 -7 4.6 0.9
-2 1 -7 3.86 0.72
2 -1 7 4.5 0.66
2 -1 7 4.51 0.59
-3 1 -7 13.08 1.82
-3 1 -7 16.89 1.5
-3 1 -7 17.07 1.79
3 -1 7 13.58 1.14
3 -1 7 16.17 1.34
3 -1 7 17.15 1.65
3 -1 7 16.76 1.37
3 -1 7 11.24 1.23
-4 1 -7 66.4 4.82
-4 1 -7 59.6 4.22
4 -1 7 53.81 4.05
4 -1 7 63.5 4.1
4 -1 7 56.24 4.42
4 -1 7 55.23 4.03
-5 1 -7 48.01 3.97
-5 1 -7 57.21 4.59
5 -1 7 42.28 3.38
5 -1 7 48.21 3.69
5 -1 7 55.44 3.89
5 -1 7 49.05 4.09
-6 1 -7 0.55 0.7
6 -1 7 -0.42 0.47
6 -1 7 0.44 0.47
6 -1 7 0.49 0.46
-7 1 -7 6.96 2.19
7 -1 7 6.29 1.32
7 -1 7 8.44 1.31
9 0 -7 12.41 2.36
9 0 -7 13.4 2.59
-9 0 7 17.88 2.56
-9 0 7 17.96 2.08
8 0 -7 2.83 1.02
8 0 -7 4.89 1.31
8 0 -7 3.64 1.15
-8 0 7 3.65 1.01
-8 0 7 3.59 1.14
7 0 -7 1.55 0.75
7 0 -7 0.58 0.63
-7 0 7 1.35 0.81
-7 0 7 1.41 0.58
-7 0 7 0.97 0.61
6 0 -7 2.49 0.85
6 0 -7 3.28 1.08
6 0 -7 2.94 0.91
-6 0 7 3.79 0.75
-6 0 7 4.97 1.16
-6 0 7 4.74 0.9
-6 0 7 4.94 1.22
5 0 -7 33.98 3.09
5 0 -7 42.94 3.3
5 0 -7 34.74 3.4
-5 0 7 49.35 3.36
-5 0 7 39.92 3.31
-5 0 7 45.16 3.37
-5 0 7 42.48 2.87
4 0 -7 84.99 6.09
4 0 -7 88.43 5.8
4 0 -7 93.6 5.94
-4 0 7 99.3 6.04
-4 0 7 83.03 5.94
-4 0 7 85.26 5.43
3 0 -7 7.86 1.07
3 0 -7 9.62 1.04
3 0 -7 8.77 0.95
-3 0 7 12.39 1.18
2 0 -7 14.02 1.06
2 0 -7 16.62 1.18
2 0 -7 15.32 1.31
2 0 -7 13.41 1.21
-2 0 7 14.77 1.38
-2 0 7 13.8 1.3
1 0 -7 118.83 6.71
1 0 -7 109.85 6.7
1 0 -7 114.29 6.64
1 0 -7 109.71 6.75
-1 0 7 103.9 6.93
-1 0 7 102.15 6.94
0 0 -7 126.27 7.58
0 0 -7 118.6 7.51
0 0 -7 128.57 7.52
0 0 7 116.38 7.81
0 0 7 112.88 7.39
0 0 7 139.25 7.57
-1 0 -7 35.82 2.66
-1 0 -7 35.15 2.71
1 0 7 38.65 2.54
1 0 7 38.43 2.43
-2 0 -7 21.69 2.06
-2 0 -7 20.28 1.87
-2 0 -7 21.45 1.74
2 0 7 23.71 1.76
2 0 7 20.86 1.61
3 0 7 106.84 6.61
3 0 7 106.85 6.91
-4 0 -7 3.24 1.19
-4 0 -7 3.5 0.85
4 0 7 4.63 0.86
4 0 7 4.46 0.74
4 0 7 2.5 0.9
4 0 7 3.63 0.89
-5 0 -7 6.31 1.65
5 0 7 6.85 1.11
5 0 7 6.81 1.29
5 0 7 8.04 1.03
5 0 7 6.73 1.46
-6 0 -7 0.79 0.96
6 0 7 0.55 0.61
6 0 7 -0.35 0.42
6 0 7 -1.05 0.47
-9 1 7 8.31 1.95
-9 1 7 7.79 1.58
8 -1 -7 13.44 1.89
8 -1 -7 8.77 1.76
-8 1 7 11 1.53
-8 1 7 12.51 1.93
-8 1 7 8.45 1.75
-8 1 7 8.27 1.27
7 -1 -7 5.74 1.27
7 -1 -7 3.52 1.05
-7 1 7 5.13 1.03
-7 1 7 4.61 1.2
-7 1 7 4.67 1.29
6 -1 -7 33.47 3.2
6 -1 -7 26.95 2.72
6 -1 -7 31.46 2.77
-6 1 7 31.27 2.53
-6 1 7 34.37 2.89
-6 1 7 32.78 2.54
5 -1 -7 79.33 5.36
5 -1 -7 76.18 5.25
5 -1 -7 74.01 5.65
-5 1 7 72.45 5.46
-5 1 7 78.78 4.98
-5 1 7 76.24 5.08
-5 1 7 77.88 5.33
4 -1 -7 18.36 1.54
4 -1 -7 15.55 1.52
4 -1 -7 16.36 1.76
-4 1 7 15.87 1.28
-4 1 7 14.13 1.57
-4 1 7 14.91 1.52
-4 1 7 12.22 1.29
3 -1 -7 4.36 0.88
3 -1 -7 5.39 0.54
3 -1 -7 6.25 0.81
3 -1 -7 5.02 0.75
-3 1 7 3.6 0.78
-3 1 7 4.37 0.58
-3 1 7 5.39 0.67
-3 1 7 5.53 0.84
2 -1 -7 165.76 9.37
-2 1 7 144.82 9.21
-2 1 7 152.53 9.56
1 -1 -7 177.47 9.4
1 -1 -7 145.76 9.75
-1 1 7 150.47 9.28
-1 1 7 128.99 9.51
-1 1 7 158.48 9.47
-1 1 7 160.05 9.25
0 -1 -7 2.37 0.57
0 -1 -7 1.62 0.48
0 -1 -7 1.36 0.42
0 1 7 1.18 0.36
0 1 7 2.03 0.42
0 1 7 2.52 0.56
-1 -1 -7 5.68 0.87
-1 -1 -7 4.28 0.72
-1 -1 -7 5.93 1.04
1 1 7 3.32 0.59
1 1 7 5.72 0.76
1 1 7 5.23 0.72
1 1 7 4.92 0.53
-2 -1 -7 17.1 1.51
-2 -1 -7 14.68 1.77
-2 -1 -7 15.87 1.68
2 1 7 15.44 1.54
2 1 7 17.99 1.35
2 1 7 17.44 1.45
-3 -1 -7 34.99 3.34
-3 -1 -7 32.22 3
3 1 7 37.01 2.6
3 1 7 38.12 2.71
3 1 7 37.67 2.93
-4 -1 -7 22.24 3.45
4 1 7 29.16 2.63
4 1 7 30.32 2.32
4 1 7 30.92 2.41
-5 -1 -7 0.18 0.78
5 1 7 0.33 0.47
5 1 7 -0.2 0.45
5 1 7 0.11 0.42
-6 -1 -7 8.89 2.17
6 1 7 12.48 1.73
6 1 7 13.19 2.54
6 1 7 8.74 1.5
9 -2 -7 2.13 1.06
-9 2 7 2.79 1
-9 2 7 3.11 1.12
8 -2 -7 0.61 0.85
8 -2 -7 0.68 0.65
-8 2 7 0.9 0.82
-8 2 7 -0.43 0.56
-8 2 7 0.71 0.71
-8 2 7 0.52 0.74
7 -2 -7 28.93 2.72
7 -2 -7 30.46 2.76
-7 2 7 26.66 2.43
-7 2 7 26.78 2.4
-7 2 7 28.38 2.69
-7 2 7 22.96 2.73
6 -2 -7 56.23 4.23
6 -2 -7 50.12 4.59
6 -2 -7 56.51 4.18
-6 2 7 54.45 4.04
-6 2 7 53.55 3.9
-6 2 7 54.32 4.46
-6 2 7 60.47 4.23
5 -2 -7 20.33 1.84
5 -2 -7 18.56 1.84
5 -2 -7 14.76 1.98
-5 2 7 19.82 1.67
-5 2 7 19.66 1.84
-5 2 7 17.5 1.73
4 -2 -7 10.9 1.47
4 -2 -7 10.98 1.22
4 -2 -7 11.03 1.23
-4 2 7 10.07 1.35
-4 2 7 7.91 1.09
-4 2 7 11.59 1.1
-4 2 7 11.94 1.28
3 -2 -7 54.72 3.43
3 -2 -7 48.15 3.77
3 -2 -7 50.15 3.47
-3 2 7 51.77 3.94
-3 2 7 47.16 3.65
-3 2 7 51.61 3.5
-3 2 7 45.23 3.5
2 -2 -7 55.75 3.53
2 -2 -7 44.11 3.68
-2 2 7 54.22 3.69
-2 2 7 53.13 3.73
-2 2 7 50.57 3.41
-2 2 7 55.25 4.18
-2 2 7 51.94 3.55
1 -2 -7 45.38 2.9
1 -2 -7 42.36 2.98
1 -2 -7 41.29 2.83
-1 2 7 39.04 3.02
-1 2 7 33.27 2.74
-1 2 7 41.88 2.96
-1 2 7 38.82 3.48
0 -2 -7 2.45 0.58
0 -2 -7 1.57 0.56
0 -2 -7 2.46 0.67
0 2 7 1.55 0.49
0 2 7 2.27 0.89
0 2 7 1.83 0.48
-1 -2 -7 51.03 3.63
-1 -2 -7 52.89 3.74
-1 -2 -7 48.41 3.48
1 2 7 41.26 3.37
1 2 7 48.84 3.27
1 2 7 46.61 3.74
-2 -2 -7 80.16 5.55
-2 -2 -7 80.15 5.76
2 2 7 77.07 5.31
2 2 7 79.02 5.01
2 2 7 71.73 5.07
-3 -2 -7 1.22 0.74
-3 -2 -7 0.67 0.68
3 2 7 1.69 0.51
3 2 7 2.15 0.74
3 2 7 1.99 0.63
-4 -2 -7 2 0.88
-4 -2 -7 2.67 1.2
4 2 7 4.17 0.76
4 2 7 3.6 0.84
4 2 7 2.91 0.91
-5 -2 -7 3.98 1.6
5 2 7 1.56 0.75
5 2 7 2.01 1.04
5 2 7 2.75 0.9
-6 -2 -7 7.07 1.97
6 2 7 8.06 1.7
9 -3 -7 -0.72 0.83
9 -3 -7 0.48 0.64
-9 3 7 0.19 0.65
-9 3 7 -0.6 0.59
-9 3 7 -0.14 0.87
8 -3 -7 22.47 2.6
8 -3 -7 30.12 2.8
-8 3 7 20.14 3.23
-8 3 7 25.51 2.43
-8 3 7 26.29 2.64
7 -3 -7 19.54 2.24
7 -3 -7 22.66 2.33
-7 3 7 18.86 2.12
-7 3 7 27.71 2.41
-7 3 7 21.14 2.09
-7 3 7 22.35 2.55
6 -3 -7 16.33 1.75
-6 3 7 13.22 1.62
-6 3 7 10.66 1.77
-6 3 7 14.87 1.65
-6 3 7 17.36 1.63
5 -3 -7 1.91 0.87
5 -3 -7 1.53 0.62
5 -3 -7 2.29 0.67
-5 3 7 0.72 0.58
-5 3 7 1.38 0.53
-5 3 7 2.92 0.78
-5 3 7 0.72 0.58
-5 3 7 1.86 0.6
4 -3 -7 18.86 1.69
4 -3 -7 16.8 2.05
-4 3 7 20.6 1.79
-4 3 7 18.02 1.78
-4 3 7 19.71 1.63
-4 3 7 14.83 1.91
-4 3 7 17.98 1.96
3 -3 -7 77.72 4.7
3 -3 -7 64.26 5.06
-3 3 7 79.15 5.43
-3 3 7 62.16 4.52
-3 3 7 74.19 4.8
-3 3 7 65.05 4.76
2 -3 -7 30.67 2.55
2 -3 -7 34.41 3.19
2 -3 -7 37.81 2.64
-2 3 7 36.58 2.88
-2 3 7 36.66 2.56
-2 3 7 37.81 2.8
-2 3 7 30.45 3.14
-2 3 7 36.19 2.67
1 -3 -7 3.25 0.79
1 -3 -7 3.42 0.76
1 -3 -7 3.75 0.78
-1 3 7 3.95 0.86
-1 3 7 5.04 0.85
-1 3 7 3.96 0.79
-1 3 7 3.91 1.18
0 -3 -7 2.38 0.73
0 -3 -7 2.99 0.76
0 -3 -7 3.57 0.74
0 3 7 2.5 0.66
0 3 7 4.18 1.16
0 3 7 4.52 0.88
0 3 7 3.09 0.64
-1 -3 -7 31.66 2.84
-1 -3 -7 29.55 2.46
-1 -3 -7 29.36 2.7
1 3 7 30.16 3.26
1 3 7 30.84 2.59
1 3 7 36.25 2.55
1 3 7 31.27 2.4
-2 -3 -7 34.1 3.1
-2 -3 -7 39.19 3.64
2 3 7 32.91 2.88
2 3 7 34.13 2.69
-3 -3 -7 17.79 2.5
-3 -3 -7 16.07 2.19
3 3 7 18.74 2.03
3 3 7 16.68 1.61
-4 -3 -7 5.82 1.42
-4 -3 -7 2.75 1.21
4 3 7 4.99 1.12
4 3 7 4.99 1.03
5 3 7 31.08 3.15
5 3 7 31.96 2.8
9 -4 -7 4.8 1.29
9 -4 -7 2.74 1.6
-9 4 7 0.95 1.01
-9 4 7 4.54 1.29
-9 4 7 2.78 1.01
8 -4 -7 18.47 2.09
8 -4 -7 17.19 2.1
-8 4 7 13.11 1.78
-8 4 7 15.84 2.36
-8 4 7 19.23 2.07
7 -4 -7 10.42 1.58
7 -4 -7 12.87 1.62
-7 4 7 11.32 1.55
-7 4 7 10.87 1.44
-7 4 7 11.39 1.84
-7 4 7 10.41 1.45
6 -4 -7 -0.13 0.53
6 -4 -7 -0.44 0.37
-6 4 7 0.82 0.53
-6 4 7 0.52 0.49
-6 4 7 0.48 0.63
-6 4 7 0.02 0.49
-6 4 7 -0.19 0.48
5 -4 -7 13.59 1.64
5 -4 -7 8.92 1.28
-5 4 7 11 1.41
-5 4 7 10.45 1.85
-5 4 7 9.51 1.27
-5 4 7 8.61 1.2
4 -4 -7 45.05 3.16
4 -4 -7 42.2 3.76
-4 4 7 42.47 3.05
-4 4 7 41.92 3.59
-4 4 7 32.36 3.92
-4 4 7 43.57 3.19
3 -4 -7 22.99 1.98
3 -4 -7 20.01 2.3
3 -4 -7 23.69 1.98
-3 4 7 24.96 1.95
-3 4 7 20.08 1.99
-3 4 7 22.27 2.26
2 -4 -7 11.73 1.55
2 -4 -7 9.42 1.2
2 -4 -7 9.4 1.25
-2 4 7 7.93 1.15
-2 4 7 10.82 1.46
-2 4 7 10.72 1.19
1 -4 -7 1.9 0.65
1 -4 -7 1.02 0.58
1 -4 -7 1.02 0.57
-1 4 7 1.05 0.56
-1 4 7 1.66 0.94
-1 4 7 1.48 0.65
-1 4 7 1.92 0.62
0 -4 -7 49.26 3.73
0 -4 -7 56.01 4.06
0 -4 -7 50.31 3.84
0 4 7 47.98 5.27
0 4 7 39.44 3.5
0 4 7 49.6 3.52
-1 -4 -7 67.73 5.02
1 4 7 60.97 4.61
1 4 7 60.05 5.42
1 4 7 63.88 4.47
1 4 7 63.91 4.64
-2 -4 -7 2.86 1.11
2 4 7 2.49 0.77
2 4 7 1.47 0.98
-3 -4 -7 2.85 1.24
-3 -4 -7 2.42 0.94
3 4 7 1.63 0.77
3 4 7 3.23 0.99
-4 -4 -7 12.07 2.29
-4 -4 -7 14.17 3.62
4 4 7 23.17 2.42
4 4 7 16.86 1.93
8 -5 -7 8.01 1.63
-8 5 7 7.21 1.32
-8 5 7 5.66 1.66
-8 5 7 4.81 1.17
-8 5 7 7.24 1.26
7 -5 -7 1.19 0.73
7 -5 -7 2.63 0.86
-7 5 7 1.77 0.93
-7 5 7 1.28 0.69
-7 5 7 2.37 0.81
-7 5 7 0.38 0.64
6 -5 -7 4.23 1
6 -5 -7 5.37 1.1
-6 5 7 2.85 0.84
-6 5 7 3.45 0.89
-6 5 7 4.82 1.42
5 -5 -7 8.99 1.34
-5 5 7 9.05 1.26
-5 5 7 10.84 1.36
-5 5 7 11.17 2.05
4 -5 -7 41.57 3.17
4 -5 -7 44.44 3.2
-4 5 7 35.71 3.83
-4 5 7 35.22 3.24
-4 5 7 38.94 3.02
-4 5 7 44.41 3.25
3 -5 -7 22.3 2.24
3 -5 -7 27.35 2.29
-3 5 7 25.62 2.68
-3 5 7 26.56 2.18
2 -5 -7 3.74 0.93
2 -5 -7 6.37 1.19
-2 5 7 6.33 1.34
-2 5 7 5.92 1.08
-2 5 7 4.13 1.27
1 -5 -7 35.62 2.86
1 -5 -7 34.8 2.94
-1 5 7 31.52 2.69
-1 5 7 30.77 3.49
-1 5 7 31.7 2.72
-1 5 7 33.03 2.93
0 -5 -7 49.81 4.16
0 -5 -7 50.86 4.03
0 5 7 53.33 3.96
0 5 7 48.76 3.73
0 5 7 52.02 4.3
-1 -5 -7 3.92 1.34
-1 -5 -7 3.81 1.08
1 5 7 3.37 0.91
1 5 7 3.94 1.37
1 5 7 4.2 1.04
-2 -5 -7 0.1 0.71
-2 -5 -7 0.11 0.77
2 5 7 0.02 0.61
2 5 7 -0.05 0.61
2 5 7 1.03 0.79
-3 -5 -7 12.46 2.41
3 5 7 17.91 2
3 5 7 17.45 2.2
8 -6 -7 2.77 1.15
8 -6 -7 4.84 1.22
-8 6 7 2.94 1
-8 6 7 2.62 0.99
-8 6 7 4.18 1.05
-8 6 7 1.75 1.22
7 -6 -7 -0.09 0.62
-7 6 7 0.25 0.66
-7 6 7 0.67 1.04
-7 6 7 0.72 0.64
6 -6 -7 17.45 1.92
6 -6 -7 16.94 1.87
-6 6 7 14.19 1.75
-6 6 7 18.58 1.86
-6 6 7 17.71 2.48
5 -6 -7 49.06 3.95
5 -6 -7 55.62 4.07
-5 6 7 62.76 4.13
-5 6 7 45.63 3.83
-5 6 7 55.89 4.79
4 -6 -7 6.42 1.2
4 -6 -7 5.61 1.12
-4 6 7 6.06 1.53
-4 6 7 3.29 0.87
3 -6 -7 2.32 0.83
3 -6 -7 1.14 0.71
-3 6 7 1.45 0.65
-3 6 7 2.3 0.87
2 -6 -7 19.38 2.12
2 -6 -7 23.62 2.29
-2 6 7 22.17 2.51
1 -6 -7 25.65 2.65
1 -6 -7 29.01 2.81
-1 6 7 31 2.86
-1 6 7 27.92 2.6
0 -6 -7 9.2 1.74
0 -6 -7 7.33 1.51
0 6 7 9.88 1.64
0 6 7 6.14 1.7
-1 -6 -7 0.25 0.67
-1 -6 -7 0.58 0.89
1 6 7 0.02 0.8
1 6 7 0.33 0.64
1 6 7 0.03 0.6
-2 -6 -7 3.82 1.34
-2 -6 -7 6.45 1.87
2 6 7 9.16 2.31
2 6 7 7.44 1.62
2 6 7 6.5 1.37
7 -7 -7 14.23 1.91
7 -7 -7 16.71 1.94
-7 7 7 14.19 1.8
-7 7 7 9.87 2.59
-7 7 7 17.42 1.88
6 -7 -7 12.6 1.75
6 -7 -7 11.5 2.26
-6 7 7 14.02 1.66
-6 7 7 10.8 1.55
5 -7 -7 9.63 1.47
5 -7 -7 10.45 1.52
-5 7 7 8.34 1.98
-5 7 7 7.02 1.38
4 -7 -7 0.38 0.6
4 -7 -7 0.87 0.68
-4 7 7 0.65 0.82
-4 7 7 0.07 0.51
3 -7 -7 10.67 1.61
-3 7 7 14.48 2.14
-3 7 7 11.01 1.59
2 -7 -7 18.5 2.23
2 -7 -7 18.19 2.06
-2 7 7 16.82 2.33
-2 7 7 14.78 1.9
1 -7 -7 11.76 2.11
1 -7 -7 12.42 1.92
-1 7 7 14.43 2.14
-1 7 7 14.88 1.88
0 -7 -7 -0.82 0.69
0 -7 -7 0.89 0.77
0 7 7 0.43 0.66
0 7 7 1.78 1.08
0 7 7 -0.83 0.75
4 -8 -7 3.21 1.11
4 -8 -7 3.85 1.72
-4 8 7 4.2 1.55
-4 8 7 2.5 0.92
3 -8 -7 12.86 3.04
3 -8 -7 15.1 2.08
-3 8 7 14.31 2.03
-3 8 7 19.48 3.11
-2 11 -8 10.17 1.4
-3 11 -8 2.72 0.79
-4 11 -8 1.06 0.81
4 -11 8 0.57 0.64
2 10 -8 -0.78 0.58
-2 -10 8 1.32 0.62
-1 -10 8 14.74 1.38
0 10 -8 6.02 1.07
-1 10 -8 10.22 1.99
-3 10 -8 -0.54 0.64
-4 10 -8 1.42 0.72
4 -10 8 1.55 0.61
-5 10 -8 10.92 1.8
5 -10 8 9.59 1.28
-6 10 -8 9.14 1.76
6 -10 8 4.92 1.03
3 9 -8 -1.27 0.67
3 9 -8 0.87 0.69
-3 -9 8 2.13 0.8
2 9 -8 0.94 0.6
-2 -9 8 0.46 0.54
1 9 -8 7.69 1.45
1 9 -8 9.24 1.24
-1 -9 8 6.78 1.02
0 9 -8 10.74 1.33
0 9 -8 9.88 1.21
0 -9 8 10.75 1.05
0 -9 8 8.65 1.22
-1 9 -8 16.22 1.71
-1 9 -8 19.28 1.65
1 -9 8 13.68 1.47
-2 9 -8 0.24 0.5
-2 9 -8 0.21 0.49
2 -9 8 -0.19 0.35
-3 9 -8 10.9 1.41
-3 9 -8 8.42 1.32
-3 9 -8 6.38 1.13
3 -9 8 10.66 1.06
3 -9 8 8.42 1.15
-4 9 -8 17.98 1.96
-4 9 -8 18.14 2.07
4 -9 8 20.49 1.71
4 -9 8 14.38 1.5
-5 9 -8 9.38 1.66
5 -9 8 6.65 1.11
-6 9 -8 0.36 0.65
6 -9 8 -0.09 0.39
-7 9 -8 0.6 0.89
7 -9 8 0.35 0.49
4 8 -8 2.92 1.02
4 8 -8 2.31 0.98
-4 -8 8 2.39 0.97
3 8 -8 2.42 0.86
3 8 -8 1.08 0.66
-3 -8 8 0.6 0.65
2 8 -8 19.79 1.98
2 8 -8 18.87 1.86
-2 -8 8 23.39 2.05
1 8 -8 10.55 1.19
1 8 -8 8.4 1.08
1 8 -8 7.84 1.05
-1 -8 8 9.99 1.15
-1 -8 8 6.01 1.4
0 8 -8 21.92 1.81
0 8 -8 23.39 1.91
0 8 -8 23.78 1.88
0 -8 8 21.64 1.86
-1 8 -8 -0.04 0.37
-1 8 -8 -0.19 0.34
1 -8 8 0.56 0.65
1 -8 8 0.51 0.34
-2 8 -8 8.8 1.28
-2 8 -8 6.72 1.01
-2 8 -8 7.3 0.98
2 -8 8 6.18 0.99
2 -8 8 7.56 0.84
-3 8 -8 14.21 1.54
-3 8 -8 14.22 1.19
-3 8 -8 13.79 1.64
3 -8 8 13.07 1.21
3 -8 8 14.92 1.4
-4 8 -8 20.18 2.19
-4 8 -8 24.57 2.35
-4 8 -8 20.05 2.13
4 -8 8 20.77 1.81
-5 8 -8 6.6 1.34
-5 8 -8 6.32 1.61
-5 8 -8 8.52 1.66
5 -8 8 7.59 1.05
5 -8 8 7.98 1.05
-6 8 -8 0.74 0.74
6 -8 8 0.25 0.42
-7 8 -8 40.17 4.07
7 -8 8 40.17 4.12
5 7 -8 7.4 1.46
5 7 -8 9.69 1.8
-5 -7 8 7.28 1.58
4 7 -8 1.68 0.74
4 7 -8 0.78 0.66
-4 -7 8 1.27 0.78
3 7 -8 5.19 0.99
3 7 -8 4.43 1.08
3 7 -8 4.89 1.04
-3 -7 8 3.42 0.96
2 7 -8 30.63 2.17
2 7 -8 26.63 2.35
-2 -7 8 30.51 2.54
1 7 -8 29.23 2.27
1 7 -8 32.62 2.4
1 7 -8 35.06 2.41
-1 -7 8 29.98 2.37
-1 -7 8 34.38 2.53
0 7 -8 2.62 0.56
0 7 -8 2.11 0.59
0 7 -8 2.28 0.51
0 -7 8 1.84 0.56
-1 7 -8 3.03 0.75
-1 7 -8 4.81 0.79
-1 7 -8 5.67 0.86
1 -7 8 2.94 0.61
-2 7 -8 10.62 1.07
-2 7 -8 10.55 1.08
-2 7 -8 11.81 1.27
-2 7 -8 9.63 1.24
2 -7 8 10.99 1.14
2 -7 8 10.87 0.94
-3 7 -8 77.84 5.33
-3 7 -8 79.64 5.35
3 -7 8 84.63 5.03
3 -7 8 79.42 5.21
-4 7 -8 22.93 2.33
-4 7 -8 21.5 2.04
4 -7 8 21.86 1.78
4 -7 8 21.47 1.83
-5 7 -8 29.74 3.06
-5 7 -8 32.27 2.83
-5 7 -8 35.08 3.23
5 -7 8 31.47 2.5
-6 7 -8 19.76 2.73
6 -7 8 20.7 2.04
6 -7 8 19.46 1.87
-7 7 -8 1.53 1.02
7 -7 8 2.71 0.89
7 -7 8 2.95 0.84
6 6 -8 6.8 1.49
6 6 -8 2.96 1.02
-6 -6 8 5.5 1.49
5 6 -8 1.27 0.66
5 6 -8 2.63 0.89
-5 -6 8 1.51 0.89
4 6 -8 1.03 0.69
4 6 -8 2.69 0.64
4 6 -8 4.15 1
-4 -6 8 3.64 1.35
3 6 -8 36.29 2.87
3 6 -8 30.42 2.39
3 6 -8 36.32 2.82
-3 -6 8 36.78 3.01
2 6 -8 1.56 0.5
2 6 -8 1.06 0.46
2 6 -8 1 0.43
2 6 -8 1.82 0.55
2 6 -8 1.28 0.4
-2 -6 8 1.09 0.59
1 6 -8 83.93 5.73
1 6 -8 88.77 5.6
1 6 -8 94.68 5.71
-1 -6 8 91.81 5.88
0 6 -8 1.28 0.37
0 6 -8 0.88 0.43
0 6 -8 0.98 0.32
0 -6 8 0.9 0.41
-1 6 -8 149.36 8.82
1 -6 8 151.73 8.63
1 -6 8 119.3 8.61
-2 6 -8 99.05 6.05
-2 6 -8 78.59 5.69
2 -6 8 99.75 5.84
-3 6 -8 -0.05 0.34
-3 6 -8 0.02 0.29
-3 6 -8 0.33 0.47
3 -6 8 -0.2 0.26
3 -6 8 0.21 0.25
-4 6 -8 18.1 1.86
-4 6 -8 21.98 2.22
4 -6 8 19.8 1.71
4 -6 8 20.48 1.73
-5 6 -8 1.59 0.76
-5 6 -8 2.27 0.87
5 -6 8 2.38 0.68
5 -6 8 1.89 0.62
-6 6 -8 16.68 2.98
6 -6 8 10.38 1.45
6 -6 8 12.11 1.43
6 -6 8 15.64 1.71
-7 6 -8 5.01 1.71
7 -6 8 3.99 1.05
-8 6 -8 1.03 0.85
8 -6 8 0.5 0.49
7 5 -8 4.58 1.28
-7 -5 8 5.46 1.49
6 5 -8 3.56 1.15
6 5 -8 3.94 1.26
-6 -5 8 4.1 1.23
5 5 -8 2.49 0.81
5 5 -8 2.14 0.67
5 5 -8 2.6 0.97
-5 -5 8 1.67 0.95
4 5 -8 11.33 1.42
4 5 -8 12.21 1.14
4 5 -8 8.69 1.35
4 5 -8 9.41 1.35
-4 -5 8 10.29 1.56
3 5 -8 146.91 10.02
3 5 -8 163.06 10.46
3 5 -8 167.83 10.27
3 5 -8 171.3 10.33
-3 -5 8 172.61 10.58
2 5 -8 55.32 3.57
2 5 -8 52.16 3.73
-2 -5 8 52.64 3.86
1 5 -8 94.7 5.97
-1 -5 8 94.04 6.11
0 5 -8 78.28 5.4
0 -5 8 90.04 5.48
-1 5 -8 1.63 0.53
1 -5 8 1.54 0.55
1 -5 8 1.91 0.46
-2 5 -8 19.59 1.67
-2 5 -8 17.79 1.42
2 -5 8 18.07 1.49
-3 5 -8 4.64 1.03
-3 5 -8 4.65 0.96
3 -5 8 3.69 0.66
3 -5 8 4.11 0.65
3 -5 8 3.18 0.62
-4 5 -8 7.64 1.08
-4 5 -8 8.63 1.58
4 -5 8 8.96 1.04
4 -5 8 9.61 1.1
-5 5 -8 27.16 2.48
-5 5 -8 27.35 2.83
5 -5 8 26.19 2.37
5 -5 8 24.57 2.27
5 -5 8 30.04 2.28
-6 5 -8 35.16 3.58
6 -5 8 31.85 3.72
6 -5 8 29.12 2.56
6 -5 8 31.64 2.86
-7 5 -8 -0.32 0.57
7 -5 8 -0.07 0.51
7 -5 8 0.36 0.45
-8 5 -8 4.7 1.59
8 -5 8 3.39 1.06
7 4 -8 13.98 2.29
7 4 -8 12.23 2.66
-7 -4 8 15.63 2.34
6 4 -8 1.39 0.63
6 4 -8 1.19 0.75
6 4 -8 0.77 0.6
-6 -4 8 1.07 0.89
5 4 -8 86.88 5.84
5 4 -8 80.66 6.08
5 4 -8 98.8 6.31
5 4 -8 84.02 6.4
-5 -4 8 85.77 6.4
4 4 -8 72.01 4.65
4 4 -8 67.92 5.13
4 4 -8 69.57 4.9
-4 -4 8 70.37 5.18
3 4 -8 12.45 1.06
3 4 -8 11.44 1.27
3 4 -8 12.34 1.23
-3 -4 8 12.41 1.5
2 4 -8 15.54 1.28
2 4 -8 15.34 1.2
-2 -4 8 12.64 1.45
1 4 -8 16.12 1.32
-1 -4 8 15.13 1.46
0 4 -8 74.2 4.63
0 -4 8 70.64 4.69
0 -4 8 69.2 4.54
-1 4 -8 48.63 3.39
1 -4 8 50.04 3.26
1 -4 8 49.51 3.5
-2 4 -8 10.3 0.98
-2 4 -8 9.47 1.06
2 -4 8 11.52 1.03
-3 4 -8 40.25 3.14
-3 4 -8 36.69 3.05
3 -4 8 42.01 2.78
3 -4 8 38.89 2.84
3 -4 8 41.79 2.83
-4 4 -8 20.77 2.01
-4 4 -8 23.71 2.35
4 -4 8 22.41 1.89
4 -4 8 21.9 1.99
4 -4 8 23.64 1.9
-5 4 -8 26.48 2.81
-5 4 -8 27.02 3.33
5 -4 8 26.9 2.34
5 -4 8 28.95 2.56
6 -4 8 2.82 0.83
6 -4 8 2.15 0.72
6 -4 8 1.36 0.55
-7 4 -8 1.79 1.06
7 -4 8 0.74 0.53
7 -4 8 1.41 0.74
7 -4 8 1.58 0.54
7 -4 8 1.7 0.74
8 -4 8 10.07 1.59
8 -4 8 8.6 1.19
8 3 -8 12.29 2.27
-8 -3 8 19.13 2.61
7 3 -8 11.47 1.95
7 3 -8 7.37 1.68
-7 -3 8 6.98 1.66
6 3 -8 10.71 1.59
6 3 -8 8.03 2.08
-6 -3 8 13.63 1.91
5 3 -8 14.42 1.69
5 3 -8 15.24 1.69
5 3 -8 14.14 1.85
-5 -3 8 14.73 2.16
4 3 -8 31.1 2.7
4 3 -8 35.46 3.02
4 3 -8 37.52 2.67
4 3 -8 33.6 2.72
-4 -3 8 37.49 3.05
3 3 -8 3.34 0.75
3 3 -8 1.34 0.44
3 3 -8 1.31 0.45
3 3 -8 1.4 0.4
-3 -3 8 2.57 0.75
2 3 -8 19.07 1.48
1 3 -8 46.62 3.09
-1 -3 8 46.91 3.3
0 3 -8 88.57 5.48
0 -3 8 85.02 5.41
0 -3 8 86.75 5.63
1 -3 8 15.01 1.51
1 -3 8 15.38 1.24
-2 3 -8 15.5 1.34
-2 3 -8 12.19 1.2
2 -3 8 15.89 1.09
2 -3 8 11.2 1.14
2 -3 8 15.49 1.23
-3 3 -8 40.01 3.16
-3 3 -8 42.05 3.02
3 -3 8 41.65 2.79
3 -3 8 38.53 2.83
-4 3 -8 62.71 4.72
-4 3 -8 60.61 4.36
4 -3 8 58.6 4.41
4 -3 8 60.27 4.15
4 -3 8 63.6 4.17
-5 3 -8 8.23 2.79
-5 3 -8 5.98 1.23
-5 3 -8 9.15 1.76
5 -3 8 10.58 1.41
5 -3 8 9.88 1.22
5 -3 8 9.36 1.17
-6 3 -8 6.28 1.54
6 -3 8 5.93 1.11
6 -3 8 6.22 0.92
6 -3 8 4.39 1.07
6 -3 8 5 0.92
6 -3 8 7.36 1.25
-7 3 -8 5.63 1.61
7 -3 8 6.88 1.36
7 -3 8 6.94 1.12
8 2 -8 -0.09 0.63
8 2 -8 0.46 0.71
-8 -2 8 0.31 0.69
7 2 -8 0.54 0.61
7 2 -8 0.92 0.69
-7 -2 8 0.65 0.78
6 2 -8 31.11 2.69
6 2 -8 27.78 2.86
6 2 -8 23.44 2.43
6 2 -8 27.6 2.64
-6 -2 8 24.43 2.7
5 2 -8 32.48 2.84
5 2 -8 32.68 2.94
5 2 -8 35.79 3.43
4 2 -8 10.53 1.16
4 2 -8 9.18 1.12
4 2 -8 10.35 1.41
4 2 -8 10.19 1.24
-4 -2 8 10.13 1.41
3 2 -8 0.35 0.29
3 2 -8 0.45 0.38
3 2 -8 0.13 0.26
3 2 -8 0.07 0.31
3 2 -8 0.16 0.27
-3 -2 8 0.33 0.44
2 2 -8 237.81 12.41
2 2 -8 188.32 12.27
-2 -2 8 190.35 12.58
1 2 -8 42.49 2.8
0 2 -8 18.56 1.47
0 -2 8 19.75 1.72
0 -2 8 19.39 1.44
-1 2 -8 0.55 0.25
-1 2 -8 0.81 0.32
1 -2 8 0.77 0.31
-2 2 -8 93.99 5.94
-2 2 -8 90.07 5.78
2 -2 8 82.51 5.88
2 -2 8 86.74 5.65
2 -2 8 99.22 5.6
-3 2 -8 16.62 1.58
-3 2 -8 15.15 1.74
-3 2 -8 14.33 1.97
3 -2 8 20.75 1.77
3 -2 8 18.3 1.45
3 -2 8 15.77 1.43
-4 2 -8 65.78 4.61
-4 2 -8 64.13 5.27
-4 2 -8 66.5 5.03
4 -2 8 68.36 4.4
4 -2 8 60.77 4.71
4 -2 8 63.13 4.36
-5 2 -8 -0.04 0.39
-5 2 -8 -0.12 0.4
5 -2 8 0.23 0.36
5 -2 8 -0.08 0.3
5 -2 8 0.03 0.36
5 -2 8 0.5 0.34
-6 2 -8 51.92 4.7
6 -2 8 48.41 4.17
6 -2 8 45.85 3.63
6 -2 8 45.6 3.52
6 -2 8 49.69 3.35
-7 2 -8 28.14 3.39
7 -2 8 22.6 2.19
8 1 -8 2.07 0.94
8 1 -8 2.85 1.04
-8 -1 8 1.7 0.96
-8 -1 8 1.55 0.66
-8 -1 8 0.16 0.49
7 1 -8 23.44 2.35
7 1 -8 18.4 2.13
7 1 -8 16.53 2.09
-7 -1 8 17.72 2.28
-7 -1 8 16.5 1.65
6 1 -8 36.9 3.55
6 1 -8 34.81 3.18
-6 -1 8 39.18 3.39
5 1 -8 2.83 0.81
5 1 -8 3.31 0.82
-5 -1 8 3.09 0.89
-5 -1 8 3.01 0.96
4 1 -8 4.91 1.06
4 1 -8 4.79 0.85
4 1 -8 7.43 1
-4 -1 8 4.93 0.93
-4 -1 8 4.52 0.97
3 1 -8 19.16 1.72
3 1 -8 19.92 1.83
3 1 -8 21.18 1.62
-3 -1 8 24.57 1.85
2 1 -8 85.47 5.09
2 1 -8 84.69 5.25
2 1 -8 88.15 5.3
-2 -1 8 74.57 5.43
1 1 -8 58.33 3.89
1 1 -8 67.92 3.95
1 1 -8 65.27 3.9
1 1 -8 54.44 4.53
-1 -1 8 64.54 4.25
0 1 -8 0.99 0.54
0 1 -8 1.7 0.36
0 1 -8 1.91 0.37
0 1 -8 1.02 0.31
0 -1 8 1.95 0.39
0 -1 8 2.1 0.65
0 -1 8 2.3 0.51
-1 1 -8 42.56 3.21
-1 1 -8 52.71 3.18
-1 1 -8 42.36 3.22
-1 1 -8 45.32 3.94
1 -1 8 49.73 3.1
1 -1 8 53.15 3.11
-2 1 -8 210.32 12.34
-2 1 -8 188.07 11.97
-2 1 -8 168.5 12.74
2 -1 8 223.24 11.97
2 -1 8 192.11 11.84
-3 1 -8 38.63 5
-3 1 -8 50.76 3.32
-3 1 -8 46.35 3.66
3 -1 8 46.03 3.07
3 -1 8 42.16 3.05
3 -1 8 39.22 3.35
-4 1 -8 47.04 4.02
-4 1 -8 55.97 3.72
4 -1 8 43.19 3.23
4 -1 8 37.81 2.97
4 -1 8 50.1 3.33
4 -1 8 45.51 3.26
4 -1 8 46.28 3.72
-5 1 -8 19.89 2.63
5 -1 8 18.08 1.52
5 -1 8 16.92 1.72
5 -1 8 16.1 2.07
5 -1 8 17.2 1.7
-6 1 -8 0.9 0.82
6 -1 8 0.4 0.61
6 -1 8 1.9 0.66
6 -1 8 0.59 0.53
6 -1 8 0.77 0.46
-7 1 -8 9.99 3.71
7 -1 8 12.7 1.7
8 0 -8 7.82 1.6
8 0 -8 6.57 1.5
-8 0 8 8.66 1.26
-8 0 8 7.33 1.69
-8 0 8 6.29 1.15
7 0 -8 17.61 2.13
7 0 -8 18.17 2.04
-7 0 8 12.11 1.89
-7 0 8 16.76 1.55
-7 0 8 17.37 1.65
-7 0 8 18.49 2.21
6 0 -8 29.11 2.45
6 0 -8 24.31 2.67
6 0 -8 27.48 2.51
-6 0 8 23.88 2.47
-6 0 8 26.3 2.55
-6 0 8 24.66 1.92
-6 0 8 20.7 1.85
5 0 -8 2.05 0.8
5 0 -8 1.42 0.6
5 0 -8 2.18 0.71
-5 0 8 1.61 0.68
-5 0 8 2.17 0.77
4 0 -8 24.84 2.32
4 0 -8 29.96 2.3
-4 0 8 32.02 2.55
-4 0 8 32.51 2.57
3 0 -8 160.12 9.27
3 0 -8 146.84 9.38
3 0 -8 130.44 9.04
-3 0 8 156.59 9.39
-3 0 8 149.67 9.34
2 0 -8 36.95 2.65
2 0 -8 36.76 2.51
2 0 -8 39.14 2.36
-2 0 8 31.99 2.58
1 0 -8 3.27 0.63
1 0 -8 2.71 0.51
1 0 -8 3.22 0.43
-1 0 8 3.87 0.85
-1 0 8 2.95 0.58
0 0 -8 170.52 10.38
0 0 -8 186.04 10.39
0 0 8 167.78 10.37
0 0 8 162.33 10.2
-1 0 -8 84.94 5.72
-1 0 -8 82.37 5.5
-1 0 -8 84.12 5.67
1 0 8 89.21 5.38
1 0 8 95.9 5.53
-2 0 -8 6.3 0.99
-2 0 -8 7.2 1.36
2 0 8 7.95 0.89
2 0 8 8.36 0.86
2 0 8 9.58 0.85
2 0 8 5.04 0.65
-3 0 -8 28.65 2.81
-3 0 -8 26.99 2.29
3 0 8 27.91 2
3 0 8 30.74 2.22
3 0 8 28.42 2.13
3 0 8 28.2 2.26
-4 0 -8 4.02 1.27
4 0 8 4.02 1.06
4 0 8 2.23 0.58
4 0 8 3.33 0.82
-5 0 -8 29.8 3.34
5 0 8 26.81 2.13
5 0 8 30.5 2.41
5 0 8 24.84 2.77
5 0 8 24.97 2.4
-6 0 -8 24.54 3.18
6 0 8 19.37 1.98
6 0 8 19.04 1.84
9 -1 -8 5.79 1.42
-9 1 8 5.11 1.16
-9 1 8 5.61 1.69
8 -1 -8 32.98 2.94
8 -1 -8 24.83 2.7
-8 1 8 28.43 2.88
-8 1 8 24.56 2.28
-8 1 8 23.59 2.82
-8 1 8 21.35 2.13
7 -1 -8 26.31 2.55
7 -1 -8 30.16 2.75
-7 1 8 22.84 2.13
-7 1 8 27.03 2.69
-7 1 8 25.74 2.17
6 -1 -8 0.03 0.38
6 -1 -8 -0.45 0.55
6 -1 -8 -0.04 0.51
-6 1 8 -0.33 0.43
-6 1 8 0.12 0.35
-6 1 8 0.69 0.58
-6 1 8 0.09 0.39
5 -1 -8 11.49 1.36
5 -1 -8 12.43 1.67
5 -1 -8 11.71 1.42
-5 1 8 12.64 1.48
-5 1 8 11.31 1.15
-5 1 8 9.44 1.42
4 -1 -8 120.59 7.49
4 -1 -8 118.16 7.33
4 -1 -8 105.56 7.71
-4 1 8 112.49 7.65
-4 1 8 120.95 7.56
3 -1 -8 59.29 3.71
3 -1 -8 59.04 4.03
3 -1 -8 59.58 4.31
3 -1 -8 62.4 3.95
-3 1 8 61.55 4.21
-3 1 8 58.11 4.22
2 -1 -8 14.78 1.26
2 -1 -8 12.78 1.41
2 -1 -8 14.96 1.26
-2 1 8 11.38 1.3
-2 1 8 15.36 1.47
1 -1 -8 18.03 1.5
1 -1 -8 17.79 1.59
1 -1 -8 18.37 1.49
-1 1 8 18.71 1.6
-1 1 8 19.45 1.8
0 -1 -8 15 1.47
0 -1 -8 17.66 1.45
0 -1 -8 16.59 1.52
0 1 8 16.35 1.31
-1 -1 -8 51.56 4
-1 -1 -8 53.13 3.81
-1 -1 -8 68.5 4.27
1 1 8 59.97 3.58
1 1 8 55.41 3.68
-2 -1 -8 16.36 1.45
-2 -1 -8 10.38 1.64
-2 -1 -8 15.23 1.68
2 1 8 16.62 1.34
2 1 8 15.97 1.25
2 1 8 15.42 1.49
2 1 8 14.11 1.38
-3 -1 -8 10.71 1.25
-3 -1 -8 9.06 1.88
-3 -1 -8 11.01 1.5
3 1 8 10.57 1.07
3 1 8 10.16 1.06
3 1 8 12.33 1.37
-4 -1 -8 19.68 2.56
4 1 8 18.28 1.92
4 1 8 16.9 1.58
-5 -1 -8 19.11 3.36
5 1 8 23.16 2.1
5 1 8 19.7 2.47
5 1 8 21.22 2.43
5 1 8 20.74 1.83
-6 -1 -8 4.07 2.31
6 1 8 7.23 1.45
9 -2 -8 13.75 2.02
-9 2 8 14.59 1.73
-9 2 8 13.6 2.13
8 -2 -8 26.43 2.69
8 -2 -8 23.87 2.62
-8 2 8 24.71 2.67
-8 2 8 21.37 2.72
-8 2 8 23.87 2.25
7 -2 -8 2.71 0.9
7 -2 -8 3.96 1.09
-7 2 8 4.22 1.11
-7 2 8 3.35 1.08
-7 2 8 3.14 0.86
-7 2 8 4.27 0.88
6 -2 -8 50.35 3.73
6 -2 -8 46.38 3.77
-6 2 8 47.11 3.37
-6 2 8 53.05 4.5
-6 2 8 45.15 3.54
5 -2 -8 45.38 3.44
5 -2 -8 47.35 3.54
5 -2 -8 49.14 4.04
-5 2 8 43.97 3.17
-5 2 8 48.89 3.59
-5 2 8 44.22 3.74
-5 2 8 49.06 3.43
4 -2 -8 4.82 0.9
4 -2 -8 5.19 1.14
4 -2 -8 4.71 0.88
4 -2 -8 4 0.51
-4 2 8 5.14 1.08
-4 2 8 7.98 1.28
-4 2 8 6.48 0.85
-4 2 8 4.79 0.71
3 -2 -8 2.25 0.62
3 -2 -8 1.96 0.56
3 -2 -8 1.58 0.62
-3 2 8 1.14 0.45
-3 2 8 1.98 0.68
-3 2 8 0.94 0.51
2 -2 -8 7.22 0.86
2 -2 -8 6.09 0.86
2 -2 -8 5.37 1.09
-2 2 8 5.6 0.73
-2 2 8 6.58 1.15
-2 2 8 5.14 0.99
-2 2 8 5.11 0.74
-2 2 8 5.19 1.4
1 -2 -8 62.26 4.5
1 -2 -8 69.91 4.57
1 -2 -8 64.24 4.65
-1 2 8 69.14 4.69
-1 2 8 77.5 4.54
0 -2 -8 64.26 4.45
0 -2 -8 61.38 4.48
0 -2 -8 73.18 4.61
0 2 8 64.1 4.37
-1 -2 -8 11.52 1.54
-1 -2 -8 11.98 1.46
-1 -2 -8 11.82 1.38
1 2 8 11.74 1.14
1 2 8 12.08 1.31
-2 -2 -8 1.65 0.8
-2 -2 -8 1.18 0.64
-2 -2 -8 0.42 0.39
2 2 8 1.44 0.48
2 2 8 1.12 0.36
2 2 8 1.26 0.55
2 2 8 0.74 0.46
-3 -2 -8 49.21 4.82
-3 -2 -8 52.84 4.59
3 2 8 67.38 4.49
3 2 8 60.96 3.88
3 2 8 55.74 4.08
3 2 8 60.69 3.98
-4 -2 -8 6.05 1.91
4 2 8 10.81 1.4
4 2 8 12.12 1.62
4 2 8 13.33 1.3
-5 -2 -8 7.02 2.09
5 2 8 8.87 1.64
8 -3 -8 1.35 0.83
8 -3 -8 1.46 0.83
-8 3 8 0.85 0.84
-8 3 8 0.89 0.59
-8 3 8 0.96 0.74
7 -3 -8 3.29 0.94
7 -3 -8 2.03 0.84
-7 3 8 4.31 1.27
-7 3 8 3.75 0.82
-7 3 8 3.26 0.94
6 -3 -8 1.37 0.6
6 -3 -8 0.34 0.54
-6 3 8 0.22 0.42
-6 3 8 0.56 0.62
-6 3 8 0.66 0.59
5 -3 -8 54.43 3.93
5 -3 -8 44.78 3.75
5 -3 -8 54.92 4.9
-5 3 8 60.66 4.02
-5 3 8 57 4.27
-5 3 8 53.59 3.95
-5 3 8 49.82 4.29
-5 3 8 53.4 3.66
4 -3 -8 31.93 2.51
4 -3 -8 29.78 2.93
4 -3 -8 31.52 2.46
-4 3 8 33.58 2.61
-4 3 8 26.39 2.46
-4 3 8 30.1 2.91
-4 3 8 32.8 2.34
3 -3 -8 3.4 1.44
3 -3 -8 3.02 0.72
3 -3 -8 2.86 0.67
-3 3 8 3.03 0.85
-3 3 8 3.55 0.76
-3 3 8 3.78 0.7
-3 3 8 3.67 1.06
2 -3 -8 47.63 3.71
2 -3 -8 46.43 3.3
-2 3 8 43.01 3.29
-2 3 8 44.31 3.18
-2 3 8 48.52 4.11
-2 3 8 44.99 3.48
1 -3 -8 67.98 4.55
1 -3 -8 67.68 4.52
-1 3 8 61.21 4.41
-1 3 8 64.74 5.34
0 -3 -8 6.89 1.12
0 -3 -8 8.43 1.24
0 -3 -8 7.46 1.2
0 3 8 7.18 1.15
0 3 8 8.24 1.1
0 3 8 7.43 1.73
0 3 8 8.58 1.01
-1 -3 -8 0.14 0.49
-1 -3 -8 0.11 0.46
1 3 8 0.02 0.37
1 3 8 -0.32 0.29
1 3 8 0.16 0.44
-2 -3 -8 11.15 1.58
-2 -3 -8 12.92 2.3
2 3 8 9.91 1.31
2 3 8 9.21 1.14
2 3 8 9.59 1.38
-3 -3 -8 28.06 3.31
-3 -3 -8 23.42 2.85
3 3 8 31.07 2.19
3 3 8 34.98 2.63
-4 -3 -8 15.93 2.29
-4 -3 -8 10.05 2.37
4 3 8 22.02 2.24
4 3 8 16.15 1.8
8 -4 -8 0.66 0.74
8 -4 -8 1.69 0.69
-8 4 8 2.22 0.7
-8 4 8 1.56 0.87
-8 4 8 -0.17 0.71
7 -4 -8 23.2 2.2
7 -4 -8 18.69 2.1
-7 4 8 17.39 2.42
-7 4 8 17.75 2.15
-7 4 8 19.8 2.07
-7 4 8 16.18 1.8
6 -4 -8 21.74 2.37
6 -4 -8 24 2.39
-6 4 8 27.97 2.27
-6 4 8 34.59 2.63
-6 4 8 28.66 2.94
-6 4 8 27.13 2.75
-6 4 8 26.97 2.67
5 -4 -8 11.7 1.42
5 -4 -8 10.25 1.38
-5 4 8 12.25 1.7
-5 4 8 9.41 1.23
-5 4 8 8.68 1.73
-5 4 8 12.04 1.45
-5 4 8 11.07 1.4
4 -4 -8 0 0.54
-4 4 8 0.74 0.6
-4 4 8 1.27 0.61
-4 4 8 0.74 0.47
-4 4 8 0.52 0.62
3 -4 -8 7.18 1.08
3 -4 -8 8.45 1.16
-3 4 8 6.64 1.33
-3 4 8 6.56 0.99
-3 4 8 7.34 1.24
-3 4 8 8.24 1.38
-3 4 8 7.29 1.8
2 -4 -8 44.85 3.27
-2 4 8 42.42 4.07
-2 4 8 42.33 3.53
-2 4 8 41.17 3.12
-2 4 8 41.15 3.23
1 -4 -8 38.26 3.78
1 -4 -8 44.58 3.33
-1 4 8 44.05 4.15
-1 4 8 39.91 3.19
-1 4 8 42.46 3.44
-1 4 8 43.28 3.41
0 -4 -8 2.03 0.83
0 -4 -8 3.26 0.93
0 4 8 2.88 0.81
0 4 8 2.7 1.11
0 4 8 2.9 0.66
0 4 8 3.17 0.9
-1 -4 -8 23.31 2.41
-1 -4 -8 21.03 2.44
1 4 8 26.06 2.16
1 4 8 21.18 2.15
1 4 8 18.28 1.92
1 4 8 22.43 2.92
-2 -4 -8 51.78 4.57
-2 -4 -8 52.38 4.86
2 4 8 61.86 4.49
2 4 8 56.25 4.25
-3 -4 -8 2.03 0.94
-3 -4 -8 2.32 1.08
3 4 8 1.66 0.74
3 4 8 2.65 0.87
8 -5 -8 4.01 1.15
8 -5 -8 5.72 1.65
-8 5 8 7.15 1.46
-8 5 8 5.86 1.18
7 -5 -8 8.41 1.46
7 -5 -8 6.01 1.36
-7 5 8 9.94 1.91
-7 5 8 7.38 1.45
-7 5 8 10.14 1.55
-7 5 8 6.32 1.19
6 -5 -8 26.56 2.36
6 -5 -8 24.5 2.26
-6 5 8 27.37 2.34
-6 5 8 17.22 2.44
-6 5 8 20.81 2.03
5 -5 -8 1.49 0.62
5 -5 -8 1.44 0.84
-5 5 8 1.21 0.72
-5 5 8 1.14 0.7
-5 5 8 1.1 0.71
-5 5 8 -0.06 0.65
4 -5 -8 6.72 1.27
4 -5 -8 10.37 1.39
-4 5 8 8.2 1.17
-4 5 8 8.77 1.85
-4 5 8 11 1.52
-4 5 8 8.76 1.51
-4 5 8 9.94 1.59
3 -5 -8 56.19 4.11
3 -5 -8 57.33 4.09
-3 5 8 56.77 3.98
-3 5 8 58.92 5.01
-3 5 8 48.17 4.09
-3 5 8 55.84 4.55
2 -5 -8 31.15 2.65
2 -5 -8 26.6 2.46
-2 5 8 28.5 2.42
-2 5 8 27.22 2.75
-2 5 8 31.4 3.38
-2 5 8 24.86 2.44
1 -5 -8 0.64 0.62
1 -5 -8 1.55 1.09
-1 5 8 0.47 0.51
-1 5 8 1.09 0.8
-1 5 8 1.3 0.69
-1 5 8 1.82 0.71
0 -5 -8 1.38 0.89
0 -5 -8 3.33 1.07
0 5 8 4.28 1.07
0 5 8 3.94 1
0 5 8 4.69 1.59
-1 -5 -8 23.65 2.68
-1 -5 -8 24.14 2.8
1 5 8 25.24 2.37
1 5 8 24.15 3.24
1 5 8 21.89 2.37
-2 -5 -8 12.9 2.01
-2 -5 -8 14.68 2.92
2 5 8 15.38 1.96
2 5 8 15.23 1.77
7 -6 -8 14.89 1.98
-7 6 8 14.06 2.19
-7 6 8 18.1 1.95
-7 6 8 15.77 1.73
6 -6 -8 0.55 0.71
6 -6 -8 1.24 0.71
-6 6 8 1.19 0.81
-6 6 8 1.27 0.67
-6 6 8 2.46 0.97
-6 6 8 2.08 1.13
5 -6 -8 7.53 1.42
5 -6 -8 9.6 1.55
-5 6 8 10.54 1.5
-5 6 8 6.04 1.1
-5 6 8 9.81 2.01
4 -6 -8 20.21 2.07
4 -6 -8 23.85 2.22
-4 6 8 19.11 1.93
-4 6 8 19.27 2.53
3 -6 -8 25.73 2.5
-3 6 8 24.3 2.29
-3 6 8 26.07 3.17
2 -6 -8 2.82 0.91
2 -6 -8 2.21 0.83
-2 6 8 2.67 0.85
-2 6 8 4 1.16
-2 6 8 3.37 1.49
1 -6 -8 10.69 1.74
1 -6 -8 12.48 1.83
-1 6 8 12.26 1.83
-1 6 8 10.68 1.58
-1 6 8 8.26 2.19
0 -6 -8 17.58 2.19
0 -6 -8 13.9 2.06
0 6 8 14.01 1.9
0 6 8 11.35 2.43
0 6 8 14.78 1.87
-1 -6 -8 0.35 0.97
-1 -6 -8 1.56 1.07
1 6 8 -0.66 0.82
1 6 8 3.12 0.98
1 6 8 3.38 1.37
5 -7 -8 14.07 1.74
5 -7 -8 8.64 1.48
-5 7 8 5.52 1.81
-5 7 8 11.85 1.48
4 -7 -8 10.86 1.79
4 -7 -8 16.13 2.14
-4 7 8 14.16 2.57
-4 7 8 12.07 1.6
3 -7 -8 0.85 1.03
-3 7 8 -1.3 0.84
-3 7 8 -0.49 0.4
2 -7 -8 0.94 0.68
2 -7 -8 0.09 0.64
-2 7 8 0.44 0.6
-2 7 8 1.25 1.09
-2 7 8 -0.27 0.94
1 -7 -8 0.35 0.78
1 -7 -8 0.28 0.72
-1 7 8 1.31 0.75
-1 7 8 -0.39 0.71
-1 7 8 -0.34 0.88
-1 11 -9 0.75 0.59
-2 11 -9 -0.03 0.58
-3 11 -9 15.39 1.88
1 10 -9 9.92 1.43
-1 -10 9 11.26 1.22
0 10 -9 0.77 0.53
0 -10 9 0.62 0.42
-1 10 -9 6.54 1.12
-2 10 -9 5.12 1.05
-3 10 -9 3.37 1.07
-4 10 -9 9.01 1.5
4 -10 9 7.84 1.22
-5 10 -9 -0.55 0.67
3 9 -9 8.79 1.58
3 9 -9 7.32 2.04
-3 -9 9 9.67 1.62
2 9 -9 2.46 0.87
-2 -9 9 0.96 0.63
1 9 -9 1.43 0.62
1 9 -9 0.28 0.56
-1 -9 9 2.46 0.71
0 9 -9 0.22 0.39
0 9 -9 0.58 0.39
0 -9 9 -0.32 0.37
-1 9 -9 2.46 0.67
-2 9 -9 41.88 3.27
-2 9 -9 47.67 3.35
-2 9 -9 44.95 3.35
-3 9 -9 6.06 1.05
-3 9 -9 5.19 1.05
-3 9 -9 4.35 0.97
3 -9 9 3.69 0.79
3 -9 9 2.99 0.6
-4 9 -9 3.13 0.96
-4 9 -9 3.29 1.02
4 -9 9 1.71 0.61
-5 9 -9 7.92 1.64
5 -9 9 11.31 1.31
6 -9 9 8.12 1.66
4 8 -9 0.5 0.73
4 8 -9 2.39 0.92
-4 -8 9 2.42 0.93
3 8 -9 9.53 2.08
3 8 -9 9.03 1.4
-3 -8 9 11.5 1.6
2 8 -9 29.15 2.25
2 8 -9 28.39 2.39
2 8 -9 27.33 2.45
2 8 -9 30.17 2.59
-2 -8 9 31.46 2.55
1 8 -9 3.1 0.71
1 8 -9 3.06 0.73
-1 -8 9 3.65 0.8
0 8 -9 29.05 2.23
0 8 -9 31.23 2.28
0 -8 9 30.63 2.34
-1 8 -9 22.65 1.89
1 -8 9 24.85 1.95
-2 8 -9 7.06 0.9
-2 8 -9 6.32 1.08
2 -8 9 5.09 0.88
-3 8 -9 -0.09 0.41
-3 8 -9 0.81 0.55
3 -8 9 0.17 0.39
-4 8 -9 11.71 1.3
-4 8 -9 5.56 1.27
-4 8 -9 8.84 2.24
4 -8 9 9.97 0.98
4 -8 9 7.58 1.11
-5 8 -9 31.48 2.89
-5 8 -9 20.09 2.34
5 -8 9 25 2.11
-6 8 -9 11.91 2.27
6 -8 9 9.15 1.26
-7 8 -9 1.94 0.99
7 -8 9 0.44 0.77
7 -8 9 1.03 0.67
5 7 -9 10.33 1.76
5 7 -9 9.74 1.82
-5 -7 9 8.65 1.75
4 7 -9 18.25 2.04
-4 -7 9 19.63 2.25
3 7 -9 6.76 0.93
3 7 -9 10.37 1.4
3 7 -9 8.2 1.21
-3 -7 9 7.31 1.45
2 7 -9 0.73 0.47
-2 -7 9 -0.19 0.41
1 7 -9 11.17 1.13
1 7 -9 11.5 1.14
-1 -7 9 11.12 1.29
0 7 -9 25.07 1.83
0 7 -9 22.71 2.22
0 -7 9 25.25 2.03
-1 7 -9 58.99 3.85
1 -7 9 56.99 3.98
-2 7 -9 0.39 0.36
-2 7 -9 -0.39 0.25
-3 7 -9 34.89 2.79
-3 7 -9 37.79 3.07
3 -7 9 39.76 2.76
-4 7 -9 22.77 2.41
-4 7 -9 30.04 2.75
4 -7 9 28.17 2.19
4 -7 9 27.17 2.01
-5 7 -9 5.26 1.31
-5 7 -9 2.9 0.88
5 -7 9 2.74 0.65
5 -7 9 2.43 0.66
-6 7 -9 1.51 0.69
6 -7 9 0.22 0.42
6 -7 9 0.51 0.48
-7 7 -9 -0.42 0.69
7 -7 9 -0.95 0.53
7 -7 9 0.06 0.45
6 6 -9 10.16 1.93
-6 -6 9 11.64 2.14
5 6 -9 20.81 2.26
5 6 -9 16.85 2.21
-5 -6 9 20.18 2.4
4 6 -9 9.49 1.58
4 6 -9 10.76 1.15
4 6 -9 9.91 1.62
4 6 -9 11.19 1.48
-4 -6 9 12.23 1.71
3 6 -9 8.86 1.16
3 6 -9 9.14 0.94
3 6 -9 9.59 1.23
3 6 -9 9.72 1.24
-3 -6 9 9.47 1.44
2 6 -9 30.66 2.58
2 6 -9 35.39 2.56
-2 -6 9 38.41 2.88
1 6 -9 54.36 3.85
1 6 -9 56.15 3.64
1 6 -9 57.04 3.73
-1 -6 9 59.67 4.01
0 6 -9 37.29 2.81
0 -6 9 39.16 2.85
-1 6 -9 4.08 0.75
1 -6 9 6.12 0.91
1 -6 9 4.41 0.91
2 -6 9 12.2 1.21
-3 6 -9 8.97 1.26
-3 6 -9 8.52 1.06
3 -6 9 9.37 1.06
-4 6 -9 23.98 2.17
-4 6 -9 28.64 2.64
4 -6 9 26.57 1.97
4 -6 9 19.89 1.91
4 -6 9 25.27 2.01
-5 6 -9 7.78 1.38
-5 6 -9 8.14 1.67
5 -6 9 5.93 1.06
5 -6 9 5.56 1.03
5 -6 9 5.25 1
-6 6 -9 1.29 0.93
6 -6 9 1.42 0.62
6 -6 9 2.3 0.68
-7 6 -9 6.18 1.7
7 -6 9 6.45 1.22
7 -6 9 8.93 1.39
6 5 -9 9.09 1.63
6 5 -9 9.01 1.71
-6 -5 9 8.13 1.7
5 5 -9 22.04 2.43
5 5 -9 30.93 2.24
5 5 -9 25.99 2.53
-5 -5 9 24.94 2.75
4 5 -9 7.09 1.19
4 5 -9 6.1 0.82
4 5 -9 5.77 1.36
4 5 -9 5.81 1.09
3 5 -9 27.71 2.26
3 5 -9 19.52 1.88
2 5 -9 54.68 3.51
-2 -5 9 46.8 3.71
1 5 -9 9.63 1.22
-1 -5 9 9.89 1.19
0 5 -9 6.67 0.88
0 -5 9 8.31 1.04
-1 5 -9 5.23 0.85
1 -5 9 4.06 0.9
1 -5 9 4.16 0.68
2 -5 9 26.28 1.99
-3 5 -9 26.83 2.32
3 -5 9 31.23 2.22
-4 5 -9 16.62 1.6
-4 5 -9 16.83 1.89
4 -5 9 12.4 1.3
4 -5 9 15.47 2.02
4 -5 9 12.84 1.38
-5 5 -9 0.49 0.64
-5 5 -9 0.48 0.49
5 -5 9 0.58 0.44
5 -5 9 -0.27 0.36
-6 5 -9 6.89 1.68
6 -5 9 4.7 1.02
6 -5 9 7.07 1.23
6 -5 9 8.37 2.32
-7 5 -9 35.89 3.75
7 -5 9 28.76 2.78
7 -5 9 31.98 2.75
7 4 -9 55.25 4.75
7 4 -9 59.25 4.91
-7 -4 9 58.05 5.04
6 4 -9 19.45 2.26
6 4 -9 18.4 2.27
-6 -4 9 24.08 2.67
5 4 -9 3.96 1.22
5 4 -9 3.43 0.95
5 4 -9 4.46 1.03
-5 -4 9 5.08 1.32
4 4 -9 4.71 0.96
4 4 -9 4.06 0.88
4 4 -9 4.4 0.91
4 4 -9 5.15 1.13
-4 -4 9 4.94 1.21
3 4 -9 26.91 2.14
3 4 -9 26.08 2.07
3 4 -9 26.34 2.57
-3 -4 9 31.78 2.57
2 4 -9 6.48 0.8
-2 -4 9 6.65 1.14
1 4 -9 41.28 2.87
-1 -4 9 41.65 3.08
0 4 -9 0.26 0.5
0 -4 9 0.39 0.42
-1 4 -9 20.08 2.03
1 -4 9 24.04 1.73
1 -4 9 21.6 2
2 -4 9 77.64 4.96
-3 4 -9 52.35 3.99
-3 4 -9 49.82 3.65
3 -4 9 52.08 3.39
3 -4 9 54.25 3.55
-4 4 -9 3.67 0.89
-4 4 -9 3.63 1.13
4 -4 9 2.91 0.74
4 -4 9 4.53 0.78
4 -4 9 3.18 0.7
-5 4 -9 24.12 2.41
-5 4 -9 29.51 2.92
5 -4 9 27.87 2.29
5 -4 9 27.82 2.29
-6 4 -9 18.16 2.5
6 -4 9 17.61 1.86
6 -4 9 22.57 2.86
6 -4 9 19.82 1.93
-7 4 -9 1.3 1.11
7 -4 9 1.49 0.7
7 -4 9 4.45 1.02
7 3 -9 -0.34 0.49
7 3 -9 -0.63 0.55
-7 -3 9 0.29 0.73
6 3 -9 6.59 1.15
6 3 -9 7.04 1.38
6 3 -9 7.08 1.4
-6 -3 9 4.23 1.18
5 3 -9 1.99 0.59
5 3 -9 2.08 0.71
5 3 -9 0.55 0.5
5 3 -9 4.47 1.11
-5 -3 9 2.69 0.96
4 3 -9 19.65 1.53
4 3 -9 13.66 1.36
4 3 -9 16.14 1.5
4 3 -9 14.21 1.77
4 3 -9 15.69 1.53
4 3 -9 14.62 1.59
-4 -3 9 14.52 1.8
3 3 -9 75.66 5.19
3 3 -9 73.27 4.85
3 3 -9 77.91 5.01
-3 -3 9 77.16 5.3
2 3 -9 51.25 3.39
-2 -3 9 51.22 3.71
1 3 -9 0.17 0.22
-1 -3 9 -0.15 0.34
0 3 -9 70.08 4.69
0 -3 9 75.24 4.64
0 -3 9 72.64 4.92
1 -3 9 65.13 4.18
-2 3 -9 28.99 2.18
-2 3 -9 28.5 2.26
2 -3 9 29.81 2.12
-3 3 -9 0.32 0.42
-3 3 -9 0.62 0.4
3 -3 9 0.32 0.33
3 -3 9 0.42 0.3
3 -3 9 0.19 0.34
-4 3 -9 14.66 1.49
4 -3 9 13.92 1.34
4 -3 9 11.92 1.25
4 -3 9 11.03 1.43
-5 3 -9 21.55 2.04
-5 3 -9 18.62 2.33
5 -3 9 21.66 2.49
5 -3 9 19.25 1.8
5 -3 9 17.54 1.8
-6 3 -9 36.03 3.76
6 -3 9 35.64 2.95
6 -3 9 35.27 2.88
-7 3 -9 -1.13 0.81
7 -3 9 0 0.46
7 -3 9 -0.35 0.37
8 2 -9 25.41 2.85
8 2 -9 24.1 3.2
-8 -2 9 28.51 3.18
7 2 -9 3.83 1.16
7 2 -9 4.55 1.24
-7 -2 9 3.53 1.23
6 2 -9 0.37 0.72
6 2 -9 -0.06 0.51
6 2 -9 1.02 0.6
6 2 -9 0.45 0.51
-6 -2 9 0.93 0.71
5 2 -9 10.56 1.44
5 2 -9 13.57 1.79
5 2 -9 11.68 1.36
-5 -2 9 10.71 1.62
4 2 -9 70.24 4.7
4 2 -9 76.03 5.06
4 2 -9 73.84 5.28
4 2 -9 72.7 4.82
4 2 -9 67.83 4.86
-4 -2 9 80.25 5.3
3 2 -9 11.05 1.05
3 2 -9 11.66 1.3
3 2 -9 12.25 1.05
3 2 -9 9.64 1.55
3 2 -9 12.14 1.21
-3 -2 9 15.04 1.55
2 2 -9 20.38 1.58
2 2 -9 21.11 1.6
2 2 -9 21.59 2.12
-2 -2 9 21.52 1.92
1 2 -9 41.91 3.52
1 2 -9 43.71 2.87
-1 -2 9 42.02 3.15
0 2 -9 77.98 5.14
0 2 -9 82.36 5.99
0 -2 9 83.15 5.09
-1 2 -9 37.03 2.72
-1 2 -9 37.36 3.51
1 -2 9 44.23 2.7
-2 2 -9 13.75 1.89
-2 2 -9 15.87 1.35
2 -2 9 12.7 1.34
2 -2 9 14.8 1.23
2 -2 9 13.74 1.15
-3 2 -9 31.26 2.4
-3 2 -9 22.64 2.85
-3 2 -9 32.43 2.75
3 -2 9 33.23 2.57
3 -2 9 29.8 2.16
3 -2 9 28.95 2.21
-4 2 -9 52.38 4.26
4 -2 9 48.53 3.51
4 -2 9 54.01 3.53
4 -2 9 45.14 3.84
5 -2 9 18.23 1.77
5 -2 9 16.93 2.08
5 -2 9 21.96 1.88
-6 2 -9 0.79 0.82
6 -2 9 1.49 0.59
6 -2 9 1.68 0.68
7 -2 9 1.96 0.86
7 -2 9 -0.36 0.47
8 1 -9 17.25 2.25
8 1 -9 16.04 2.28
-8 -1 9 24.05 2.72
7 1 -9 1.38 0.75
7 1 -9 1.62 0.81
7 1 -9 2.97 0.96
-7 -1 9 2.51 1.08
6 1 -9 10 1.46
6 1 -9 11.91 1.53
6 1 -9 10.46 1.88
-6 -1 9 8.57 1.64
5 1 -9 54.88 4.18
5 1 -9 57.25 4.02
5 1 -9 52.41 4.44
-5 -1 9 59.19 4.25
4 1 -9 51.53 3.6
4 1 -9 52.36 3.86
4 1 -9 44.86 3.33
4 1 -9 49.97 3.29
-4 -1 9 50.09 3.6
-4 -1 9 44.02 3.64
3 1 -9 0.66 0.3
3 1 -9 0.14 0.29
3 1 -9 0.36 0.33
-3 -1 9 0.24 0.41
-3 -1 9 0.12 0.28
2 1 -9 13.21 1.18
2 1 -9 14.23 1.12
2 1 -9 14.67 1.28
-2 -1 9 13.23 1.47
1 1 -9 40.5 2.63
1 1 -9 42.11 2.7
1 1 -9 39.41 2.68
1 1 -9 36.68 3.34
-1 -1 9 40.12 3.03
0 1 -9 110.11 6.23
0 1 -9 101.36 6.27
0 1 -9 102.51 6.22
0 1 -9 115.82 7.75
0 -1 9 89.85 6.16
0 -1 9 93.94 6.19
0 -1 9 99.46 6.68
-1 1 -9 23.48 2.52
1 -1 9 20.4 1.61
1 -1 9 24.1 1.67
-2 1 -9 45.82 3.5
-2 1 -9 46.54 3.16
-2 1 -9 46.64 4.07
2 -1 9 46.11 3.01
2 -1 9 41 3
-3 1 -9 32.94 3.09
-3 1 -9 34.15 2.64
3 -1 9 36.44 2.6
3 -1 9 33.78 2.47
3 -1 9 31.79 2.81
-4 1 -9 2.3 1.01
-4 1 -9 4.71 0.92
4 -1 9 3.47 1
4 -1 9 3.31 0.72
4 -1 9 3.98 0.75
-5 1 -9 15.07 2.21
5 -1 9 14.92 1.9
5 -1 9 12.39 1.41
5 -1 9 13.85 1.43
5 -1 9 13.18 1.22
5 -1 9 14.21 1.5
-6 1 -9 1.33 0.94
6 -1 9 0.26 0.39
6 -1 9 -0.31 0.34
6 -1 9 -0.49 0.51
8 0 -9 -0.48 0.6
-8 0 9 -0.2 0.55
7 0 -9 1.98 0.88
7 0 -9 1.5 0.79
-7 0 9 1.92 0.82
-7 0 9 1.32 0.88
6 0 -9 26.17 2.8
6 0 -9 21.36 2.37
6 0 -9 26.76 2.38
-6 0 9 24.69 2.54
-6 0 9 26.07 2.55
5 0 -9 34.22 3.15
-5 0 9 34.74 3.23
4 0 -9 16.78 1.45
4 0 -9 13.24 1.68
4 0 -9 15.1 1.53
-4 0 9 15.81 1.7
-4 0 9 14.48 1.6
3 0 -9 3.08 0.77
3 0 -9 4.99 0.71
3 0 -9 3.36 0.51
3 0 -9 1.59 0.48
-3 0 9 3.34 0.73
-3 0 9 3.04 0.74
2 0 -9 222.77 14.14
2 0 -9 231.32 14.03
2 0 -9 245.09 14.33
2 0 -9 247.71 13.97
-2 0 9 250.23 14.48
-2 0 9 213.61 14.22
1 0 -9 54.66 3.51
1 0 -9 54.26 3.34
-1 0 9 41.62 3.6
-1 0 9 49.19 3.4
0 0 -9 6.73 0.89
0 0 -9 8.38 0.93
0 0 -9 7.24 0.84
0 0 9 7.25 0.84
0 0 9 6.79 0.7
-1 0 -9 -0.09 0.23
-1 0 -9 0.38 0.41
-1 0 -9 0.24 0.32
1 0 9 0.06 0.32
1 0 9 0.13 0.24
-2 0 -9 6.62 1.33
-2 0 -9 5.95 0.96
-2 0 -9 6.2 0.87
2 0 9 6.58 0.75
2 0 9 6.53 0.87
-3 0 -9 17.12 2.19
3 0 9 18.94 1.55
3 0 9 18.29 1.64
-4 0 -9 50.11 4.37
4 0 9 42.15 3.21
4 0 9 47.27 3.96
4 0 9 45.53 3.37
-5 0 -9 0.42 0.73
5 0 9 -0.12 0.4
5 0 9 0.37 0.4
5 0 9 0.88 0.48
-6 0 -9 6.26 2.22
8 -1 -9 0.79 0.69
8 -1 -9 -0.28 0.66
-8 1 9 0.6 0.81
-8 1 9 0.19 0.7
-8 1 9 1.72 0.68
-8 1 9 0.97 0.51
7 -1 -9 16.66 2
7 -1 -9 15.37 1.91
-7 1 9 16.83 2.14
-7 1 9 17.11 2.09
-7 1 9 15.19 1.48
-7 1 9 16.02 1.44
6 -1 -9 73.32 5.46
6 -1 -9 81.86 5.69
-6 1 9 86.08 5.77
-6 1 9 76.4 5.86
5 -1 -9 9.3 2.05
5 -1 -9 7.77 1.13
5 -1 -9 6.93 1.1
-5 1 9 6.98 1.34
-5 1 9 10.05 1.88
4 -1 -9 57.86 3.91
4 -1 -9 51.36 4.22
4 -1 -9 52.27 3.46
4 -1 -9 55 3.74
-4 1 9 53.08 4.16
-4 1 9 58.96 4.07
3 -1 -9 12.38 0.98
3 -1 -9 14.02 1.27
3 -1 -9 10.31 1.44
3 -1 -9 12.47 1.27
-3 1 9 13.66 1.52
-3 1 9 16.23 2.12
2 -1 -9 1.6 0.57
2 -1 -9 1.46 0.54
-2 1 9 2.35 0.74
-2 1 9 1.57 0.54
1 -1 -9 60.06 4.16
1 -1 -9 61.32 4.06
1 -1 -9 65.16 4.06
-1 1 9 55.82 4.34
0 -1 -9 24.48 2.08
0 -1 -9 25.33 2.11
0 -1 -9 24.4 2
0 1 9 26.45 2.06
-1 -1 -9 27.2 2.2
-1 -1 -9 27.4 2.4
-1 -1 -9 29.86 2.55
1 1 9 29.99 2.23
-2 -1 -9 67.3 5.21
-2 -1 -9 69.95 5.47
-2 -1 -9 72.22 4.91
2 1 9 75.61 4.69
2 1 9 77.34 4.63
2 1 9 75.1 4.91
-3 -1 -9 24.77 2.5
-3 -1 -9 26.05 3.4
3 1 9 21.88 2.11
3 1 9 23.81 2.06
3 1 9 27.05 1.97
3 1 9 27.28 1.96
-4 -1 -9 0.98 0.81
4 1 9 -1.08 0.53
4 1 9 0.35 0.32
4 1 9 0.08 0.43
-5 -1 -9 15.85 3.06
5 1 9 14.36 1.47
5 1 9 11.97 1.39
5 1 9 14.19 2.24
8 -2 -9 26.83 2.72
-8 2 9 26.17 2.68
-8 2 9 22.95 2.22
-8 2 9 21.74 2.02
7 -2 -9 13.3 2.09
7 -2 -9 14.04 1.78
-7 2 9 9.88 1.34
-7 2 9 11.9 1.83
-7 2 9 14.76 1.4
-7 2 9 15.26 1.87
6 -2 -9 -0.34 0.35
6 -2 -9 -0.28 0.46
-6 2 9 0.66 0.42
-6 2 9 0.46 0.61
-6 2 9 0.19 0.4
-6 2 9 0.02 0.51
5 -2 -9 4.56 0.91
5 -2 -9 3.07 0.54
5 -2 -9 4.66 0.93
-5 2 9 3.73 0.83
-5 2 9 4.82 0.72
-5 2 9 4.52 1.09
4 -2 -9 1.47 0.57
4 -2 -9 1.72 0.63
-4 2 9 1.61 0.45
-4 2 9 1.68 0.72
-4 2 9 1.12 0.57
3 -2 -9 145.91 8.99
3 -2 -9 137.21 9.5
-3 2 9 148.41 9.29
-3 2 9 146.35 9.39
2 -2 -9 28.7 2.63
2 -2 -9 29.76 2.37
2 -2 -9 35.25 2.46
-2 2 9 31.49 2.62
1 -2 -9 3.06 0.76
1 -2 -9 3.12 0.71
1 -2 -9 2.86 0.75
-1 2 9 3.32 0.78
-1 2 9 2.82 0.6
0 -2 -9 20.35 1.96
0 -2 -9 20.13 1.94
0 2 9 20.54 1.88
0 2 9 21.25 1.75
0 2 9 19.71 1.64
-1 -2 -9 62.16 4.49
-1 -2 -9 75.65 5.05
1 2 9 64.7 4.33
1 2 9 60.99 4.47
1 2 9 67.4 4.5
-2 -2 -9 6.92 1.54
-2 -2 -9 6.82 1.33
2 2 9 5.83 0.88
2 2 9 7.24 1.19
-3 -2 -9 10.1 2.11
-3 -2 -9 9.7 1.6
3 2 9 10.92 1.5
3 2 9 14.04 1.19
3 2 9 13.01 1.27
3 2 9 13.88 1.47
-4 -2 -9 4.27 1.64
4 2 9 4.55 0.99
4 2 9 7.41 1.02
8 -3 -9 0.17 0.73
8 -3 -9 1.27 0.76
-8 3 9 1.31 0.59
-8 3 9 1.15 0.81
-8 3 9 -0.08 0.82
-8 3 9 0.9 0.85
7 -3 -9 27.69 2.61
7 -3 -9 25.58 2.52
-7 3 9 24.52 2.9
-7 3 9 27.68 2.41
-7 3 9 25.63 2.21
-7 3 9 31.88 2.74
6 -3 -9 4.42 1.05
6 -3 -9 3.75 0.97
-6 3 9 4.66 0.94
-6 3 9 4.56 0.83
-6 3 9 4.2 1.04
5 -3 -9 9.44 1.25
5 -3 -9 8.48 1.24
-5 3 9 9.56 1.24
-5 3 9 6.01 1.23
-5 3 9 8.65 1.03
4 -3 -9 40.02 4.65
4 -3 -9 36.8 2.71
-4 3 9 37.06 2.92
-4 3 9 30.46 2.96
-4 3 9 34.4 2.49
-4 3 9 31.04 2.69
3 -3 -9 38.45 3.68
3 -3 -9 40.31 3.28
3 -3 -9 51.94 3.4
-3 3 9 48.62 3.4
-3 3 9 40.7 3.53
-3 3 9 47.96 3.19
-3 3 9 50.74 4.21
-3 3 9 48.34 3.75
2 -3 -9 5.13 1.11
2 -3 -9 4.88 0.96
2 -3 -9 5.62 0.96
-2 3 9 5.34 0.92
-2 3 9 5.84 0.95
-2 3 9 6.74 1.63
-2 3 9 5.8 1.15
1 -3 -9 10.95 1.39
1 -3 -9 12.12 1.44
1 -3 -9 10.68 1.43
-1 3 9 9.35 1.3
-1 3 9 10 1.19
-1 3 9 11.83 1.24
0 -3 -9 35.02 2.93
0 -3 -9 34.25 3.05
0 3 9 33.59 2.63
-1 -3 -9 36.31 3.31
-1 -3 -9 39.36 3.49
1 3 9 43.27 3.12
1 3 9 39.8 3.11
1 3 9 36.7 2.93
-2 -3 -9 2.2 0.85
-2 -3 -9 2.39 1.06
2 3 9 2.55 0.82
2 3 9 2.28 0.76
2 3 9 1.69 0.57
-3 -3 -9 2.73 1.1
-3 -3 -9 9.47 2.12
3 3 9 6.49 1.27
3 3 9 4.55 0.95
-4 -3 -9 8.53 2.2
4 3 9 8.71 0.99
4 3 9 7.6 1.53
8 -4 -9 20.64 2.24
-8 4 9 22.52 2.33
-8 4 9 16.3 1.83
7 -4 -9 3.25 1.01
7 -4 -9 3.61 1
-7 4 9 4.65 1.13
-7 4 9 3.58 0.82
-7 4 9 4.83 0.99
6 -4 -9 5.24 1.11
6 -4 -9 5.29 1.11
-6 4 9 6.32 1.26
-6 4 9 5.99 1.45
-6 4 9 4.77 0.93
5 -4 -9 29.98 2.52
-5 4 9 27.94 2.31
-5 4 9 28.52 3.01
-5 4 9 36.69 2.81
-5 4 9 28.84 2.58
-5 4 9 27.05 2.95
4 -4 -9 36.22 2.92
4 -4 -9 38.01 2.96
-4 4 9 36.19 3.36
-4 4 9 39.59 3.67
-4 4 9 39.06 3.4
-4 4 9 33.94 2.7
3 -4 -9 -0.47 0.39
3 -4 -9 0.78 0.56
-3 4 9 0.67 0.6
-3 4 9 0.09 0.45
-3 4 9 -0.05 0.33
-3 4 9 0.72 0.46
2 -4 -9 0.48 0.51
2 -4 -9 -0.43 0.43
-2 4 9 -0.14 0.44
-2 4 9 1.02 0.69
-2 4 9 -0.45 0.47
-2 4 9 -0.04 0.42
1 -4 -9 34.59 2.9
1 -4 -9 32.49 2.81
-1 4 9 34.05 3.66
-1 4 9 32.75 2.9
-1 4 9 30.13 2.62
-1 4 9 30.89 2.62
0 -4 -9 28.91 2.78
0 -4 -9 34.22 3.02
0 4 9 30.41 3.55
0 4 9 33.52 2.81
0 4 9 28.86 2.62
-1 -4 -9 3.48 1.14
-1 -4 -9 2.77 1.02
1 4 9 4.13 0.97
1 4 9 3.67 0.76
1 4 9 4.32 1.02
-2 -4 -9 1.22 0.88
-2 -4 -9 1.46 0.84
2 4 9 1.82 0.7
2 4 9 2.68 0.92
-3 -4 -9 40.5 4.09
3 4 9 28.05 2.98
7 -5 -9 1.78 1.24
7 -5 -9 2.14 0.87
-7 5 9 1.86 0.7
-7 5 9 3.53 1.04
-7 5 9 0.2 0.95
6 -5 -9 5.54 1.2
-6 5 9 5.23 1.35
-6 5 9 5.34 1
-6 5 9 5.88 1.24
-6 5 9 3.5 1.4
5 -5 -9 30.7 2.63
-5 5 9 28.17 2.73
-5 5 9 29.38 2.66
-5 5 9 31.72 3.23
-5 5 9 25.33 2.64
-5 5 9 27.61 3.06
4 -5 -9 16.35 1.79
-4 5 9 16.19 2.25
-4 5 9 17.3 1.86
-4 5 9 18.92 2.04
-4 5 9 18.04 2.45
-4 5 9 15.65 1.65
3 -5 -9 2.31 0.81
3 -5 -9 2.55 0.78
-3 5 9 1.74 0.99
-3 5 9 2.44 0.73
-3 5 9 1.95 0.72
-3 5 9 4.07 1.15
2 -5 -9 22.08 2.08
-2 5 9 17.46 2.21
-2 5 9 18.24 1.89
-2 5 9 15.8 2.52
-2 5 9 18.85 1.89
1 -5 -9 36.81 3.26
1 -5 -9 29.57 3.03
-1 5 9 34.92 2.98
-1 5 9 34.58 3.92
-1 5 9 40.9 3.37
-1 5 9 34.72 2.99
0 -5 -9 2.71 1.12
0 5 9 3.97 1.13
0 5 9 5.34 1.7
0 5 9 3.94 1.06
-1 -5 -9 3.79 1.24
-1 -5 -9 7.5 2.07
1 5 9 6.97 1.36
6 -6 -9 14.53 1.85
-6 6 9 11.1 1.5
-6 6 9 14.61 2.26
5 -6 -9 4.77 1.11
5 -6 -9 3.11 1.37
-5 6 9 4.39 0.96
-5 6 9 7.63 1.69
4 -6 -9 3.02 0.94
4 -6 -9 1.46 0.81
-4 6 9 -0.37 0.78
-4 6 9 0.65 0.59
-4 6 9 0.87 0.81
3 -6 -9 8.83 1.55
3 -6 -9 8.28 1.55
-3 6 9 6.11 1.49
-3 6 9 9.4 2.19
-3 6 9 8.58 1.37
2 -6 -9 14.45 1.88
2 -6 -9 11.53 1.81
-2 6 9 11.16 1.59
-2 6 9 11.7 2.51
-2 6 9 8.08 1.89
1 -6 -9 0.96 0.79
-1 6 9 0.02 0.57
-1 6 9 1.94 1.13
-1 6 9 -0.28 0.66
0 -6 -9 6.41 1.73
0 6 9 4.83 1.19
0 6 9 8.19 2.28
0 6 9 2.3 1.23
1 10 -10 10.67 1.35
-1 -10 10 7.21 1.14
0 10 -10 3.13 0.88
0 -10 10 1.87 0.58
-1 10 -10 1.97 0.67
-2 10 -10 2.22 0.72
-3 10 -10 0.51 0.6
-4 10 -10 19.78 2.11
4 -10 10 13.53 2.3
-5 10 -10 18.39 2.19
5 -10 10 13.6 1.57
3 9 -10 0.3 0.6
3 9 -10 1.66 0.7
-3 -9 10 2.11 0.78
-2 -9 10 0.12 0.53
1 9 -10 5.22 0.87
1 9 -10 4.02 0.86
-1 -9 10 5.81 1.03
0 9 -10 34.77 2.63
0 -9 10 31.59 2.51
-1 9 -10 -0.06 0.39
-1 9 -10 -0.01 0.41
-2 9 -10 6.68 0.97
-2 9 -10 6.28 1.05
-3 9 -10 27.89 2.36
-3 9 -10 20.79 2.82
-4 9 -10 6.33 1.35
-4 9 -10 8.05 1.6
4 -9 10 6.37 1.08
-5 9 -10 0.86 0.78
5 -9 10 0.98 0.65
-6 9 -10 1.46 0.84
6 -9 10 3.81 0.94
4 8 -10 7.69 1.38
4 8 -10 4.16 1.16
-4 -8 10 7.77 1.53
3 8 -10 1.65 0.65
-3 -8 10 1.99 0.85
2 8 -10 30.37 2.65
-2 -8 10 35.57 2.82
1 8 -10 19.14 1.83
1 8 -10 24.38 1.9
-1 -8 10 23.11 2.02
0 8 -10 1.11 0.43
0 8 -10 0.76 0.42
0 -8 10 1.18 0.57
-1 8 -10 9.15 1.01
-1 8 -10 9.63 1.02
-2 8 -10 27.3 2.08
-2 8 -10 20.87 1.9
2 -8 10 23.67 2
-3 8 -10 6.9 1.18
-3 8 -10 8.83 1.26
3 -8 10 10.37 1.17
-4 8 -10 3.23 0.9
4 -8 10 1.05 0.57
-5 8 -10 2.89 0.95
5 -8 10 1.41 0.64
5 -8 10 1.61 0.67
-6 8 -10 3.83 1.31
6 -8 10 3.75 1.1
5 7 -10 4.24 1.12
5 7 -10 1.42 0.85
-5 -7 10 4.17 1.26
4 7 -10 13.79 1.81
4 7 -10 13.28 1.63
-4 -7 10 15.34 2.01
3 7 -10 20.38 2.69
3 7 -10 19.34 1.94
-3 -7 10 19.16 2.12
2 7 -10 14.63 1.46
2 7 -10 14.42 1.45
-2 -7 10 14.27 1.67
1 7 -10 5.9 0.78
-1 -7 10 5.75 1.06
0 -7 10 8.06 1.11
1 -7 10 7.41 1.22
-2 7 -10 31.41 2.5
2 -7 10 32.51 2.44
-3 7 -10 8.5 1.4
-3 7 -10 5.82 1.04
3 -7 10 6.39 0.98
-4 7 -10 -0.37 0.43
-4 7 -10 0.87 0.59
4 -7 10 0.02 0.35
-5 7 -10 7.29 1.63
-5 7 -10 10.19 1.41
5 -7 10 5.63 0.94
5 -7 10 6.47 1.06
-6 7 -10 17.11 2.31
6 -7 10 11.08 1.51
6 -7 10 15.2 1.6
-7 7 -10 3.72 1.49
6 6 -10 0.21 0.78
5 6 -10 -0.27 0.48
5 6 -10 0.68 0.81
-5 -6 10 0.18 0.69
4 6 -10 14.38 1.68
4 6 -10 16.01 1.74
-4 -6 10 13.6 1.92
3 6 -10 21.95 2.02
3 6 -10 25.29 2.18
-3 -6 10 22.03 2.47
-2 -6 10 15.32 1.72
-1 -6 10 1.85 0.7
0 6 -10 20.22 2.03
0 -6 10 24.64 2.05
-1 6 -10 26.1 2.28
1 -6 10 27.01 2.09
1 -6 10 26.11 2.29
2 -6 10 14.25 1.54
-3 6 -10 0.94 0.49
-3 6 -10 0.28 0.49
3 -6 10 -0.13 0.31
-4 6 -10 14.09 1.81
4 -6 10 11.81 1.21
4 -6 10 14.5 1.4
-5 6 -10 9.46 1.32
-5 6 -10 8.68 1.72
5 -6 10 9.56 1.21
5 -6 10 9.7 1.22
5 -6 10 9.99 1.17
-6 6 -10 7.86 1.83
6 -6 10 9.44 1.28
6 -6 10 8.99 1.25
-7 6 -10 3.1 1.11
7 -6 10 1.85 0.76
7 -6 10 1.4 0.77
6 5 -10 0.13 0.55
6 5 -10 0.26 0.68
-6 -5 10 -0.12 0.77
5 5 -10 22.86 2.29
5 5 -10 21.79 2.17
-5 -5 10 20.15 2.46
4 5 -10 14.4 1.8
4 5 -10 14.33 1.64
-4 -5 10 16.94 2.01
3 5 -10 7.09 1.24
3 5 -10 6.31 0.92
-3 -5 10 7.73 1.44
2 5 -10 1.39 0.44
-2 -5 10 1.35 0.67
1 5 -10 12.3 1.24
-1 -5 10 12.61 1.46
0 5 -10 35.91 2.72
0 -5 10 36.7 2.83
-1 5 -10 41.25 3.02
1 -5 10 39.03 2.83
1 -5 10 40.58 3.14
2 -5 10 -0.13 0.26
-3 5 -10 2.5 0.75
-3 5 -10 2.44 0.62
3 -5 10 2.11 0.58
-4 5 -10 22.83 2.41
4 -5 10 22.44 1.9
4 -5 10 20.94 1.87
4 -5 10 23.34 1.79
-5 5 -10 40.89 3.51
-5 5 -10 45.06 4.02
5 -5 10 44.29 3.28
5 -5 10 46.38 3.48
5 -5 10 43.76 3.22
-6 5 -10 1.77 1.05
6 -5 10 0.86 0.56
6 -5 10 1.35 0.58
-7 5 -10 7.08 1.86
7 -5 10 6.46 1.21
7 4 -10 0.77 0.81
7 4 -10 1.58 0.94
-7 -4 10 1.63 1.04
6 4 -10 5.34 1.15
6 4 -10 2.97 0.96
-6 -4 10 4.65 1.51
5 4 -10 18.98 1.92
5 4 -10 21.07 1.82
5 4 -10 19.31 2.29
5 4 -10 23.08 2.17
-5 -4 10 20.83 2.4
4 4 -10 21.05 1.9
4 4 -10 22.33 2.12
4 4 -10 29.76 2.52
-4 -4 10 26.67 2.5
3 4 -10 5.91 0.82
3 4 -10 8.3 0.95
3 4 -10 5.05 1.21
-3 -4 10 5.05 1.17
2 4 -10 32.23 2.43
-2 -4 10 34.06 2.75
1 4 -10 20.82 1.81
-1 -4 10 26.49 2.16
0 4 -10 35.48 2.56
0 -4 10 33.06 2.73
1 -4 10 30.37 2.22
-2 4 -10 7.45 0.85
2 -4 10 5.65 0.8
-3 4 -10 55.61 4.69
-3 4 -10 66.99 4.57
3 -4 10 76.38 4.48
-4 4 -10 27.58 2.53
-4 4 -10 24.4 2.51
4 -4 10 25.62 2.03
4 -4 10 21.38 1.85
4 -4 10 24.2 2.13
-5 4 -10 -0.05 0.58
5 -4 10 1.19 0.48
5 -4 10 1.13 0.58
5 -4 10 0.81 0.59
-6 4 -10 1.91 1.05
6 -4 10 1.94 0.66
6 -4 10 0.83 0.56
-7 4 -10 6.29 1.74
7 -4 10 6.48 1.25
7 3 -10 0.75 0.72
7 3 -10 0.94 0.7
-7 -3 10 0.63 0.73
6 3 -10 22.37 2.59
6 3 -10 14.76 2.08
6 3 -10 16.23 1.88
-6 -3 10 19.02 2.33
5 3 -10 11.6 1.38
5 3 -10 14.97 1.93
5 3 -10 9.82 1.78
5 3 -10 10.59 1.45
-5 -3 10 10.01 1.81
4 3 -10 6.87 0.88
4 3 -10 5.56 1.14
4 3 -10 9.12 1.56
4 3 -10 7.36 1.08
3 3 -10 0.61 0.42
3 3 -10 0.79 0.49
3 3 -10 1.35 0.61
-3 -3 10 2.03 0.76
2 3 -10 54.99 3.71
-2 -3 10 57.33 4.09
-1 -3 10 104.42 6.85
0 3 -10 19.88 1.56
0 -3 10 15 1.75
1 -3 10 35.99 2.51
-2 3 -10 29.78 2.34
-2 3 -10 26 2.28
2 -3 10 29.68 2.13
-3 3 -10 23.18 2.25
-3 3 -10 23.2 2.02
3 -3 10 24.92 1.76
3 -3 10 23.59 2.03
3 -3 10 22.74 1.87
-4 3 -10 12.43 1.74
4 -3 10 13.52 1.26
4 -3 10 9.85 1.59
5 -3 10 1.03 0.49
5 -3 10 1.07 0.6
5 -3 10 0.95 0.51
-6 3 -10 7.44 1.84
6 -3 10 4.92 1.1
6 -3 10 5.62 1.06
7 2 -10 19.97 2.23
7 2 -10 13.15 1.92
-7 -2 10 19.7 2.41
6 2 -10 29.49 2.75
6 2 -10 37.08 2.87
6 2 -10 32.22 2.98
-6 -2 10 32.19 3.15
5 2 -10 24.15 2.15
5 2 -10 17.41 2.15
5 2 -10 18.62 1.78
-5 -2 10 19.33 2.2
4 2 -10 2.33 0.58
4 2 -10 2.42 0.69
4 2 -10 2.9 0.63
4 2 -10 1.92 0.67
4 2 -10 2.36 0.84
-4 -2 10 1.62 0.8
3 2 -10 110.34 7.01
3 2 -10 117.06 7.46
3 2 -10 111.34 7.16
-3 -2 10 114.84 7.49
2 2 -10 18.56 1.41
2 2 -10 16.9 1.36
2 2 -10 18.77 2
2 2 -10 16.06 1.41
-2 -2 10 14.41 1.7
1 2 -10 11.33 1.08
1 2 -10 11.86 1.82
-1 -2 10 11.32 1.38
0 2 -10 -0.34 0.34
0 -2 10 -0.12 0.24
0 -2 10 0.27 0.55
-1 2 -10 18.22 1.51
-1 2 -10 23.12 1.74
-1 2 -10 19.35 2.35
1 -2 10 20.35 1.57
-2 2 -10 53.69 4.04
-2 2 -10 58.48 3.81
-2 2 -10 52.77 4.75
2 -2 10 54.37 3.89
2 -2 10 57.76 3.62
2 -2 10 57.02 3.7
-3 2 -10 23.78 2.05
-3 2 -10 24.77 2.43
3 -2 10 25.37 1.86
3 -2 10 21.47 2.12
3 -2 10 23.33 1.87
-4 2 -10 1.04 0.47
-4 2 -10 0.08 0.52
4 -2 10 0.3 0.48
4 -2 10 0.47 0.38
4 -2 10 0.71 0.43
-5 2 -10 7.01 1.76
5 -2 10 11.01 1.27
5 -2 10 8.62 1.13
-6 2 -10 6.32 1.69
6 -2 10 6.86 1.15
8 1 -10 7.48 1.57
8 1 -10 6.41 1.4
-8 -1 10 8.66 1.79
7 1 -10 28.98 2.86
7 1 -10 25.86 2.66
-7 -1 10 28.74 2.97
6 1 -10 7.91 1.48
6 1 -10 6.38 1.26
-6 -1 10 7.18 1.4
5 1 -10 -0.08 0.55
5 1 -10 0.89 0.6
5 1 -10 0.39 0.41
5 1 -10 -0.34 0.27
-5 -1 10 0.52 0.47
-5 -1 10 0.93 0.67
4 1 -10 11.54 1.2
4 1 -10 12.69 1.14
4 1 -10 11.09 1.57
4 1 -10 14.53 1.44
-4 -1 10 14.52 1.75
-4 -1 10 12.73 1.42
3 1 -10 60.14 4.1
3 1 -10 59.59 3.92
3 1 -10 67.36 3.91
-3 -1 10 61.79 4.41
-3 -1 10 55.39 4.1
2 1 -10 38.94 2.66
2 1 -10 38.92 2.7
2 1 -10 41.75 2.89
-2 -1 10 38.82 3.09
1 1 -10 0.99 0.37
1 1 -10 0.32 0.26
-1 -1 10 0.52 0.57
0 1 -10 57.89 3.86
0 1 -10 64.02 3.89
0 -1 10 57.24 4.29
0 -1 10 55.11 3.74
-1 1 -10 21.61 2.04
-1 1 -10 27.72 2.24
-1 1 -10 27.11 2.01
1 -1 10 29.3 1.95
1 -1 10 29.83 2
-2 1 -10 15.41 1.73
2 -1 10 14.67 1.26
2 -1 10 14.48 1.31
-3 1 -10 7.01 0.94
-3 1 -10 6.61 1.45
3 -1 10 5.97 0.8
3 -1 10 6.11 0.88
3 -1 10 4.68 1.03
4 -1 10 0.64 0.5
4 -1 10 2.43 0.63
4 -1 10 2.16 0.75
-5 1 -10 19.21 2.54
5 -1 10 13.32 1.53
5 -1 10 14.41 1.5
-6 1 -10 26.32 3.43
6 -1 10 20.56 2.06
8 0 -10 42.32 3.65
-8 0 10 32.61 3.49
7 0 -10 2.99 0.85
7 0 -10 2.84 0.93
-7 0 10 1.41 0.81
-7 0 10 3.36 1.14
6 0 -10 0.96 0.51
6 0 -10 0.37 0.43
-6 0 10 -0.02 0.57
-6 0 10 -0.18 0.5
5 0 -10 7.61 1.08
5 0 -10 7.97 1.35
5 0 -10 6.97 0.85
5 0 -10 10.95 2.35
-5 0 10 9.88 1.45
-5 0 10 5.84 1.26
4 0 -10 76.19 4.5
4 0 -10 68.41 4.31
4 0 -10 67.33 4.67
-4 0 10 66.02 5.87
-4 0 10 59.29 4.72
3 0 -10 6.49 0.86
3 0 -10 7.3 1.07
3 0 -10 7.17 0.7
3 0 -10 6.4 0.84
-3 0 10 5.54 0.92
2 0 -10 6.57 1.04
2 0 -10 5.03 0.79
2 0 -10 6.56 0.77
-2 0 10 4.95 0.82
-2 0 10 7.62 1.34
1 0 -10 7.56 0.87
1 0 -10 5.92 0.84
1 0 -10 6.81 0.92
-1 0 10 7.1 0.88
-1 0 10 9.16 1.43
0 0 -10 33.41 2.4
0 0 -10 30.45 2.28
0 0 10 28.33 2.25
-1 0 -10 51.38 3.93
-1 0 -10 49.85 3.82
1 0 10 54.38 3.43
1 0 10 57.98 3.66
-2 0 -10 15.19 1.69
-2 0 -10 15.77 1.95
-2 0 -10 16.66 2.06
2 0 10 18.16 1.38
2 0 10 17.62 1.58
-3 0 -10 12.92 1.89
3 0 10 12.98 1.2
-4 0 -10 19.22 2.59
4 0 10 19.81 1.71
4 0 10 19.76 1.84
-5 0 -10 13.6 2.82
5 0 10 14.41 1.49
8 -1 -10 11.75 1.9
8 -1 -10 18.6 2.17
7 -1 -10 3.32 0.98
7 -1 -10 2.21 0.83
-7 1 10 2.16 0.99
-7 1 10 1.26 0.87
6 -1 -10 12.68 1.67
-6 1 10 19.03 2.3
-6 1 10 15.21 1.91
5 -1 -10 26.07 2.17
5 -1 -10 27.44 2.31
5 -1 -10 25.1 2.68
5 -1 -10 23.74 1.82
-5 1 10 26.41 2.51
-5 1 10 23.67 2.38
4 -1 -10 20.81 1.51
4 -1 -10 18.64 2.19
4 -1 -10 22.29 1.81
4 -1 -10 20.51 1.85
-4 1 10 19.49 2.03
-4 1 10 21.43 2.3
3 -1 -10 7.19 0.92
3 -1 -10 5.97 1.2
3 -1 -10 5.87 0.93
3 -1 -10 6.67 0.65
-3 1 10 6.89 1.23
2 -1 -10 0.28 0.38
2 -1 -10 0.29 0.36
-2 1 10 0.88 0.47
-2 1 10 0.66 0.62
1 -1 -10 47.22 4.21
1 -1 -10 50.78 3.38
1 -1 -10 46.44 3.3
-1 1 10 44.07 3.39
0 -1 -10 42.09 3.19
0 -1 -10 40.45 3.18
0 -1 -10 43.51 3.12
0 1 10 42.71 3.1
-1 -1 -10 18.63 1.95
-1 -1 -10 17.92 1.64
-1 -1 -10 17.33 1.94
-2 -1 -10 -0.11 0.64
-2 -1 -10 0.97 0.57
2 1 10 0.64 0.47
2 1 10 0.72 0.32
-3 -1 -10 19.85 2.44
-3 -1 -10 20.11 2.8
3 1 10 29.99 2.27
3 1 10 28.67 1.98
-4 -1 -10 20.92 3.04
4 1 10 25.86 2.04
4 1 10 25.83 2
4 1 10 26.15 2.26
8 -2 -10 4.71 1.44
-8 2 10 3.89 1.21
7 -2 -10 -0.25 0.42
7 -2 -10 -0.11 0.52
-7 2 10 -0.31 0.6
-7 2 10 -0.07 0.56
6 -2 -10 3.36 0.65
6 -2 -10 2.56 0.83
6 -2 -10 4.09 0.95
-6 2 10 2.79 0.95
-6 2 10 3.49 1.03
5 -2 -10 42.63 3.24
-5 2 10 47.33 3.63
-5 2 10 42.36 3.66
4 -2 -10 16.38 1.94
4 -2 -10 14.37 1.48
4 -2 -10 14.57 1.48
-4 2 10 12.07 1.67
-4 2 10 12.76 1.7
3 -2 -10 3.31 0.75
3 -2 -10 3.5 0.76
3 -2 -10 3.52 1.01
-3 2 10 3.01 0.89
-3 2 10 5.76 1.78
2 -2 -10 66.44 4.93
2 -2 -10 71.15 4.58
-2 2 10 62.94 4.83
1 -2 -10 58.65 4.26
1 -2 -10 57.6 4.11
1 -2 -10 57.86 4.12
0 -2 -10 12.09 1.57
0 -2 -10 15.71 1.7
0 -2 -10 14.85 1.61
0 2 10 13.68 1.53
-1 -2 -10 0.93 0.54
-1 -2 -10 1.99 1.07
1 2 10 1.14 0.46
1 2 10 1.62 0.59
1 2 10 1.33 0.5
-2 -2 -10 28.05 2.9
-2 -2 -10 34.67 3.37
2 2 10 28.61 2.36
2 2 10 36.67 2.67
2 2 10 33.5 2.63
-3 -2 -10 4.85 1.28
-3 -2 -10 8.18 1.93
3 2 10 8.72 1.23
3 2 10 8.13 0.84
4 2 10 3.58 0.69
4 2 10 4.62 1.21
7 -3 -10 12.12 1.71
7 -3 -10 16.92 1.9
-7 3 10 18.71 2.06
-7 3 10 17.27 1.91
-7 3 10 12.97 1.36
6 -3 -10 29.84 2.81
6 -3 -10 35.59 2.82
-6 3 10 27.67 3.08
-6 3 10 35.81 2.73
-6 3 10 32.64 2.98
-6 3 10 33.78 2.41
5 -3 -10 16.36 1.65
5 -3 -10 13.62 1.53
-5 3 10 12.19 1.78
-5 3 10 10.14 1.37
-5 3 10 15 1.79
-5 3 10 13.95 1.27
4 -3 -10 3.04 0.86
4 -3 -10 3.78 0.8
-4 3 10 3.22 1.01
-4 3 10 4.3 1.07
3 -3 -10 19.12 1.82
-3 3 10 18.02 2.08
-3 3 10 19.12 2.05
-3 3 10 15.54 1.49
2 -3 -10 35.09 2.77
-2 3 10 33.57 2.52
-2 3 10 33.84 2.97
1 -3 -10 9.89 1.51
1 -3 -10 14.24 1.62
-1 3 10 11.22 1.55
-1 3 10 17.27 1.45
-1 3 10 13.91 1.37
0 -3 -10 0.56 0.53
0 -3 -10 0.15 0.59
0 3 10 0.97 0.58
0 3 10 -0.15 0.37
0 3 10 0.12 0.36
-1 -3 -10 6.75 1.56
-1 -3 -10 4.76 1.18
1 3 10 6.41 1.15
-2 -3 -10 15.14 2.1
-2 -3 -10 15.79 2.31
2 3 10 17.58 1.59
2 3 10 16.81 1.8
2 3 10 14.78 1.96
-3 -3 -10 5.12 1.72
7 -4 -10 12.97 1.9
-7 4 10 14.1 2.06
-7 4 10 13.44 1.9
6 -4 -10 10.91 1.55
6 -4 -10 12.65 1.6
-6 4 10 16.35 1.89
-6 4 10 11.62 1.63
-6 4 10 10.52 1.25
5 -4 -10 -0.16 0.53
5 -4 -10 0.02 0.42
-5 4 10 -0.11 0.52
-5 4 10 0.62 0.4
4 -4 -10 2.85 0.86
4 -4 -10 2.77 0.82
-4 4 10 4.38 1.19
-4 4 10 3.1 0.81
-4 4 10 2.96 0.67
3 -4 -10 63.54 4.45
-3 4 10 58.29 4.18
2 -4 -10 4.6 1
2 -4 -10 4.35 1.02
-2 4 10 2.39 0.77
-2 4 10 5.02 0.92
1 -4 -10 0.64 0.65
1 -4 -10 2.06 0.8
-1 4 10 0.98 0.54
-1 4 10 1.51 0.78
0 -4 -10 2.07 0.89
0 -4 -10 1.35 0.74
0 4 10 2.33 0.71
0 4 10 2.09 0.72
0 4 10 2.02 0.83
-1 -4 -10 30.4 3.1
-1 -4 -10 24.62 2.79
1 4 10 27.76 2.42
-2 -4 -10 1.12 1.09
2 4 10 2.63 0.85
6 -5 -10 0.56 0.63
6 -5 -10 0.58 0.83
-6 5 10 -0.19 0.63
-6 5 10 0.03 0.9
-6 5 10 0.04 0.46
5 -5 -10 5 1.14
5 -5 -10 5.57 1.23
-5 5 10 6.38 1.45
-5 5 10 3.18 1.11
-5 5 10 6.05 1.58
-5 5 10 5.61 1.19
4 -5 -10 6.09 1.18
4 -5 -10 5.31 1.14
-4 5 10 6.29 1.16
-4 5 10 4.65 1.55
-4 5 10 4.85 1
3 -5 -10 24.46 2.35
3 -5 -10 24.66 2.41
-3 5 10 27.47 2.44
-3 5 10 22.63 2.64
-3 5 10 24.08 3.15
-3 5 10 22.34 2.15
2 -5 -10 6.18 1.34
2 -5 -10 4.7 1.2
-2 5 10 6.46 1.12
-2 5 10 5.87 1.77
1 -5 -10 4.89 1.26
1 -5 -10 5.84 1.42
-1 5 10 4.75 1
-1 5 10 6.46 1.9
0 -5 -10 6.62 1.54
0 -5 -10 8.12 2.18
0 5 10 4.95 1.13
3 -6 -10 1.37 0.76
-3 6 10 2.27 1.18
-3 6 10 1.73 0.78
0 10 -11 0.27 0.49
0 -10 11 1.4 0.62
-1 10 -11 2.24 0.67
-2 10 -11 23.05 2.04
-3 10 -11 1.89 0.76
-4 10 -11 4.23 1.09
4 -10 11 4.4 0.91
2 9 -11 8.62 1.39
-2 -9 11 7.86 1.38
1 9 -11 -0.34 0.41
1 9 -11 -0.65 0.34
-1 -9 11 0.29 0.59
0 9 -11 18.03 1.62
0 9 -11 21.78 1.74
0 -9 11 20.54 1.9
-1 9 -11 10.97 1.16
-1 9 -11 8.01 1.16
-2 9 -11 0.26 0.5
-2 9 -11 0.81 0.46
-3 9 -11 0.21 0.52
3 -9 11 0.73 0.51
-4 9 -11 12.96 1.7
4 -9 11 13.62 1.65
-5 9 -11 6.27 1.45
5 -9 11 4.3 0.95
3 8 -11 4.83 1.04
-3 -8 11 4.63 1.2
2 8 -11 -0.98 0.42
2 8 -11 1.19 0.47
-2 -8 11 1.22 0.73
1 8 -11 12.31 1.19
-1 -8 11 11.56 1.47
0 -8 11 14.35 1.57
-2 8 -11 0.3 0.42
2 -8 11 0.12 0.46
-3 8 -11 0.42 0.56
-3 8 -11 1.17 0.61
3 -8 11 0.61 0.43
-4 8 -11 10.8 1.76
-4 8 -11 6.92 1.3
4 -8 11 5.34 1.03
-5 8 -11 28.75 3.14
5 -8 11 24.6 2.57
-6 8 -11 -0.52 0.6
6 -8 11 0.03 0.54
6 -8 11 -1.1 0.52
4 7 -11 10.5 1.78
-4 -7 11 13.39 1.87
3 7 -11 0.31 0.51
3 7 -11 0.08 0.51
-3 -7 11 1.17 0.79
2 7 -11 7.49 1.02
-1 -7 11 10.91 1.45
0 -7 11 17.16 1.76
2 -7 11 2.45 0.6
-3 7 -11 33.59 2.65
-3 7 -11 29 2.77
3 -7 11 35.98 2.58
-4 7 -11 4.12 1.01
-4 7 -11 7.01 1.51
4 -7 11 5.48 0.93
-5 7 -11 4.1 1.21
5 -7 11 3.07 0.82
-6 7 -11 1.02 0.94
6 -7 11 1.6 0.6
6 -7 11 -0.17 0.54
5 6 -11 3.14 0.98
5 6 -11 2.17 0.78
-5 -6 11 3.77 1.25
4 6 -11 1.95 0.66
4 6 -11 2.25 0.72
-4 -6 11 0.82 0.74
3 6 -11 1.37 0.52
3 6 -11 -0.09 0.36
-3 -6 11 0.3 0.62
-2 -6 11 22.04 2.19
-1 -6 11 47.4 3.6
0 -6 11 9.45 1.31
1 -6 11 8.15 1.2
2 -6 11 21.79 1.84
-3 6 -11 24.95 1.96
-3 6 -11 21.45 2.17
3 -6 11 19.15 1.81
-4 6 -11 7.8 1.66
-4 6 -11 8.01 1.27
4 -6 11 5.3 0.91
-5 6 -11 0.84 0.7
5 -6 11 0.35 0.49
5 -6 11 0.66 0.42
-6 6 -11 1.5 1.04
6 -6 11 3.78 1.15
6 5 -11 8.86 1.68
6 5 -11 11.11 1.51
-6 -5 11 9.82 1.92
5 5 -11 16.1 1.64
5 5 -11 17.46 1.95
-5 -5 11 16.04 2.17
4 5 -11 8.24 1.33
4 5 -11 6.62 1.36
-4 -5 11 6.88 1.47
3 5 -11 17.83 1.65
-2 -5 11 28.48 2.56
1 5 -11 12.67 2.15
-1 -5 11 9.66 1.36
0 5 -11 8.11 1.28
0 -5 11 7.69 1.35
1 -5 11 6.73 0.93
-3 5 -11 23.37 2.32
-3 5 -11 29.23 2.21
3 -5 11 22.99 2.01
-4 5 -11 0.39 0.59
-4 5 -11 1.48 0.53
4 -5 11 0.69 0.51
-5 5 -11 25.3 2.79
5 -5 11 21.63 1.9
5 -5 11 25.49 2.12
-6 5 -11 12.25 2.41
6 -5 11 10.97 1.44
6 -5 11 13.02 1.43
6 4 -11 2.53 0.89
-6 -4 11 2.53 1.05
5 4 -11 1.24 0.62
5 4 -11 0.45 0.54
-5 -4 11 -0.11 0.66
4 4 -11 14.03 1.77
4 4 -11 15.49 1.74
4 4 -11 12.2 1.52
-4 -4 11 14.07 1.87
3 4 -11 24.44 2.04
-3 -4 11 26.78 2.67
2 4 -11 14.36 1.37
-2 -4 11 15.58 1.75
1 4 -11 6.39 0.86
-1 -4 11 7.29 1.23
0 4 -11 22.81 1.8
0 -4 11 17.43 1.97
1 -4 11 75.07 4.87
-2 4 -11 20.59 1.8
2 -4 11 18.56 1.62
-3 4 -11 0.8 0.42
-3 4 -11 0.28 0.55
3 -4 11 0.51 0.41
-4 4 -11 10.19 1.84
4 -4 11 7.94 1.21
4 -4 11 12.24 1.11
4 -4 11 10.43 1.17
5 -4 11 8.34 1.29
5 -4 11 8.19 1.05
-6 4 -11 7.32 1.86
6 -4 11 10.49 1.34
6 -4 11 10.7 1.36
7 3 -11 2.81 1.18
7 3 -11 4.6 0.92
-7 -3 11 5.3 1.48
-6 -3 11 -0.14 0.54
5 3 -11 7.31 1.09
5 3 -11 12.44 1.46
5 3 -11 10.01 1.19
-5 -3 11 9.04 1.78
4 3 -11 18.05 2
4 3 -11 14.83 1.69
-4 -3 11 19.46 2.1
3 3 -11 40.9 3.8
3 3 -11 51.28 3.36
3 3 -11 45.22 3.78
3 3 -11 47.56 3.24
2 3 -11 2.97 0.92
2 3 -11 2.65 0.57
-2 -3 11 0.87 0.58
1 3 -11 49.09 3.51
1 3 -11 55.3 4.41
-1 -3 11 50.81 3.85
0 3 -11 23.89 2.73
0 3 -11 25.42 2.02
0 -3 11 27.44 2.44
-1 3 -11 29.08 3.14
1 -3 11 30.91 2.22
-2 3 -11 0.62 0.36
-2 3 -11 0.68 0.46
2 -3 11 0.69 0.41
-3 3 -11 2.91 0.96
3 -3 11 4.99 0.87
3 -3 11 3.81 0.62
3 -3 11 3.79 0.76
-4 3 -11 15.82 2.12
-4 3 -11 17.82 1.8
4 -3 11 16.1 1.57
4 -3 11 20.57 1.96
4 -3 11 17.1 1.5
-5 3 -11 17.79 2.37
5 -3 11 17.96 1.75
5 -3 11 18.65 1.7
-6 3 -11 3.44 1.38
6 -3 11 2.83 0.75
7 2 -11 10.62 1.89
7 2 -11 14.03 1.76
-7 -2 11 13.18 2.32
6 2 -11 1.9 0.94
6 2 -11 4.54 0.92
-6 -2 11 3.51 1.17
5 2 -11 75.95 5.26
5 2 -11 70.64 4.84
4 2 -11 20.16 1.69
4 2 -11 19.4 2.13
4 2 -11 24.26 2.03
-4 -2 11 22.01 2.26
3 2 -11 0.75 0.32
3 2 -11 0.85 0.49
3 2 -11 -0.37 0.35
-3 -2 11 0.04 0.59
2 2 -11 13.42 1.26
2 2 -11 8.65 1.58
2 2 -11 15.28 1.16
2 2 -11 11.68 1.22
-2 -2 11 13.17 1.59
1 2 -11 32.24 2.43
-1 -2 11 35.86 2.89
0 2 -11 23.14 1.66
0 2 -11 16.72 2.37
0 2 -11 23.64 1.71
0 -2 11 26.13 2.34
-1 2 -11 10.77 1.05
-1 2 -11 11.13 1.22
1 -2 11 11.66 1.07
-2 2 -11 0.07 0.26
-2 2 -11 0.15 0.4
2 -2 11 -0.26 0.31
2 -2 11 0.17 0.33
2 -2 11 0.5 0.32
-3 2 -11 31.63 2.74
3 -2 11 24.55 1.94
3 -2 11 29.26 2.05
3 -2 11 20.08 2.19
-4 2 -11 22.8 2.96
4 -2 11 25.75 2.02
4 -2 11 22.79 1.95
-5 2 -11 4.76 1.45
5 -2 11 6.81 1.06
5 -2 11 6.38 1.08
7 1 -11 11.8 1.6
7 1 -11 9.8 1.78
-7 -1 11 9.51 1.73
6 1 -11 15.73 1.68
-6 -1 11 13.07 1.94
5 1 -11 5.73 1.32
5 1 -11 6.67 1.2
5 1 -11 7.08 1.01
5 1 -11 6.42 0.83
-5 -1 11 8.98 1.54
-5 -1 11 9.16 1.22
4 1 -11 8.25 0.91
4 1 -11 6.24 1.74
4 1 -11 10.13 1
4 1 -11 8.49 1.11
-4 -1 11 7.12 1.18
-4 -1 11 9.39 1.59
3 1 -11 -0.13 0.21
3 1 -11 -0.17 0.22
3 1 -11 -0.01 0.39
-3 -1 11 0.41 0.57
2 1 -11 30.39 2.2
2 1 -11 30.33 2.42
-2 -1 11 31.72 2.74
1 1 -11 44.38 2.93
1 1 -11 42.3 3.03
0 1 -11 41.18 2.85
-1 1 -11 6.3 1.12
-1 1 -11 6.3 0.84
1 -1 11 7.2 0.84
1 -1 11 7.42 0.78
-2 1 -11 21.66 1.85
-2 1 -11 21.79 2.28
2 -1 11 20.92 1.7
2 -1 11 24.55 1.83
-3 1 -11 29.49 2.91
3 -1 11 26.74 2.13
3 -1 11 25.05 2.46
3 -1 11 27.32 2.05
-4 1 -11 10.7 2.15
4 -1 11 9.2 1.07
4 -1 11 8.26 1.14
-5 1 -11 0.77 0.87
5 -1 11 0.42 0.41
5 -1 11 0.22 0.41
-7 0 11 7.45 1.69
-7 0 11 7.81 1.48
6 0 -11 30.21 2.45
6 0 -11 27.53 2.61
-6 0 11 29.24 2.85
-6 0 11 25.9 2.68
5 0 -11 10.59 1.31
5 0 -11 8.52 1.72
5 0 -11 8.56 0.95
5 0 -11 7.05 1.09
-5 0 11 10.47 1.54
4 0 -11 0.31 0.38
4 0 -11 -0.13 0.3
4 0 -11 -0.08 0.53
4 0 -11 -0.39 0.19
-4 0 11 -0.44 0.39
-4 0 11 -0.04 0.4
3 0 -11 41.35 2.7
3 0 -11 38.75 2.78
3 0 -11 42.6 3.75
-3 0 11 36.51 3.01
-3 0 11 42.98 3.34
2 0 -11 27.31 2.12
2 0 -11 31.11 2.24
2 0 -11 29.27 2.51
-2 0 11 33.71 2.83
-2 0 11 33.67 2.47
1 0 -11 16.36 1.49
1 0 -11 17.83 1.5
1 0 -11 18.08 1.6
-1 0 11 15.17 1.49
-1 0 11 16.39 1.93
0 0 -11 1.04 0.54
0 0 -11 0.96 0.4
0 0 -11 0.77 0.5
0 0 11 1.04 0.39
-1 0 -11 15.17 1.77
-1 0 -11 13.19 1.55
-1 0 -11 19.64 1.85
1 0 11 16.73 1.24
1 0 11 13.96 1.45
-2 0 -11 33.89 2.71
-2 0 -11 29.46 2.91
-2 0 -11 24.17 2.53
2 0 11 31.91 2.17
2 0 11 32.83 2.4
-3 0 -11 14.1 2.07
3 0 11 13.94 1.25
-4 0 -11 4.76 1.39
4 0 11 2.25 0.68
4 0 11 3.41 0.71
7 -1 -11 10.5 1.62
7 -1 -11 10.87 1.58
-7 1 11 13.49 1.98
-7 1 11 15.05 2.02
6 -1 -11 7.67 1.34
6 -1 -11 8.06 0.87
6 -1 -11 8.3 1.3
-6 1 11 9.64 1.54
-6 1 11 9.59 1.65
5 -1 -11 1.6 0.62
5 -1 -11 1.08 0.56
5 -1 -11 0.75 0.36
-5 1 11 0.85 0.74
-5 1 11 0.24 0.54
4 -1 -11 6.63 0.7
4 -1 -11 4.79 1.19
4 -1 -11 6.65 1.03
4 -1 -11 4.99 0.96
-4 1 11 7.65 1.32
-4 1 11 7.67 1.48
3 -1 -11 54.13 3.74
-3 1 11 55.09 4.19
2 -1 -11 22.7 1.92
2 -1 -11 18.42 2.11
2 -1 -11 26.03 1.97
-2 1 11 22.46 2.09
-2 1 11 26.14 2.47
1 -1 -11 2.34 0.65
1 -1 -11 2.77 0.68
-1 1 11 1.24 0.55
0 -1 -11 16.2 1.66
0 -1 -11 15.84 1.67
0 -1 -11 13.35 1.51
0 1 11 14.69 1.51
-1 -1 -11 15.72 1.81
-1 -1 -11 19.21 2.04
1 1 11 17.01 1.69
-2 -1 -11 37.61 3.57
2 1 11 35.89 2.86
2 1 11 38.15 2.49
-3 -1 -11 1.16 0.7
3 1 11 0.97 0.39
-4 -1 -11 12.91 2.57
7 -2 -11 11.95 1.58
-7 2 11 8.01 1.63
6 -2 -11 0.15 0.62
6 -2 -11 -0.03 0.34
6 -2 -11 -0.06 0.44
-6 2 11 0.51 0.71
-6 2 11 0.73 0.72
5 -2 -11 5.78 1.07
5 -2 -11 6.52 1.11
-5 2 11 8.59 1.56
-5 2 11 7.05 1.36
4 -2 -11 28.17 2.36
-4 2 11 32.93 2.81
-4 2 11 26.48 2.69
3 -2 -11 9.74 1.25
3 -2 -11 10.25 1.18
-3 2 11 9.71 1.39
-3 2 11 5.53 1.28
2 -2 -11 20.53 1.92
2 -2 -11 19.69 1.93
-2 2 11 25.01 2.2
1 -2 -11 3.9 0.96
1 -2 -11 3.82 0.89
-1 2 11 5.02 1.05
0 -2 -11 56.84 4.4
0 2 11 58.42 4.28
-1 -2 -11 14.04 1.85
-1 -2 -11 11.42 1.64
1 2 11 14.25 1.69
-2 -2 -11 -0.59 0.52
-2 -2 -11 -0.1 0.49
2 2 11 0.64 0.54
-3 -2 -11 0.09 0.77
-3 -2 -11 0.34 0.82
3 2 11 0.87 0.51
7 -3 -11 2.39 1.03
-7 3 11 2.81 1.17
6 -3 -11 0.06 0.65
6 -3 -11 0.38 0.39
-6 3 11 0.66 0.78
5 -3 -11 15.79 1.8
-5 3 11 19.7 2.32
4 -3 -11 46.98 3.63
4 -3 -11 52.17 3.7
-4 3 11 45.14 3.98
-4 3 11 53.29 4.23
3 -3 -11 -0.06 0.4
3 -3 -11 0.38 0.53
-3 3 11 0.86 0.82
-3 3 11 0.19 0.52
2 -3 -11 11.47 1.43
2 -3 -11 10.17 1.42
-2 3 11 9.34 1.48
1 -3 -11 11.14 1.58
1 -3 -11 12.48 1.61
-1 3 11 12.1 1.65
0 -3 -11 4.2 1.18
0 3 11 4.72 1.05
-1 -3 -11 14.47 2.07
-1 -3 -11 10.99 1.84
1 3 11 16.69 1.58
-2 -3 -11 0.27 0.96
2 3 11 0.08 0.53
5 -4 -11 10.59 1.46
-5 4 11 6.49 1.49
4 -4 -11 1.28 0.64
4 -4 -11 -0.02 0.44
-4 4 11 -0.25 0.66
-4 4 11 0 0.68
3 -4 -11 6.79 1.26
3 -4 -11 9.55 1.38
-3 4 11 10.87 1.66
-3 4 11 7.03 1
2 -4 -11 11.85 1.57
-2 4 11 13 1.81
-2 4 11 8.77 1.18
1 -4 -11 30.08 2.82
1 -4 -11 25.94 2.74
-1 4 11 28.8 2.41
-1 4 11 26.74 2.32
0 -4 -11 8.41 1.8
0 -4 -11 4.07 1.27
4 -5 -11 0.73 0.68
-4 5 11 0.73 0.53
-3 5 11 5.57 1
2 -5 -11 12.84 1.81
-2 5 11 6.65 1.61
-1 10 -12 0.07 0.46
-2 10 -12 4.54 0.94
1 9 -12 1.02 0.59
-1 -9 12 2.05 1
0 9 -12 0.3 0.42
0 -9 12 0.41 0.58
-1 9 -12 0.67 0.43
-2 9 -12 9.07 1.16
-3 9 -12 3.88 0.87
3 -9 12 8.16 1.29
-4 9 -12 7.55 1.39
4 -9 12 6.42 1.14
3 8 -12 1.47 0.77
-3 -8 12 4.23 1.17
2 8 -12 9.55 1.19
2 8 -12 8.68 1.08
-2 -8 12 11.59 1.59
0 -8 12 2.01 0.82
2 -8 12 16.5 1.66
-3 8 -12 6.05 1.15
3 -8 12 9.11 1.19
-4 8 -12 5.99 1.43
-4 8 -12 5.48 1.13
4 -8 12 6.86 1.26
-5 8 -12 3.37 1.18
5 -8 12 1.84 0.66
4 7 -12 3.97 1
-4 -7 12 6.2 1.42
3 7 -12 22.09 1.91
3 7 -12 17.58 1.85
-3 -7 12 21.99 2.32
-2 -7 12 2.95 1.01
-1 -7 12 1.98 1.21
0 -7 12 19.67 2.06
2 -7 12 1.65 0.58
3 -7 12 1.58 0.6
-4 7 -12 8.08 1.62
4 -7 12 6.87 1.14
-5 7 -12 20.7 3.74
5 -7 12 13.29 1.86
5 6 -12 6.68 1.36
-5 -6 12 6.88 1.59
4 6 -12 16.08 1.74
4 6 -12 13.87 1.82
-4 -6 12 17.94 2.19
3 6 -12 16.18 1.7
-3 -6 12 16.36 2
-2 -6 12 0.31 0.59
-1 -6 12 14.42 1.94
0 -6 12 8.23 1.49
2 -6 12 0.7 0.47
3 -6 12 6.58 1.04
-4 6 -12 7.75 1.63
4 -6 12 5.74 1.03
-5 6 -12 24.14 4.37
5 -6 12 18.78 1.87
5 5 -12 13.21 1.62
-5 -5 12 9.04 1.79
4 5 -12 14.88 1.7
4 5 -12 16.1 1.82
-4 -5 12 15.12 2.05
-3 -5 12 -0.15 0.5
-2 -5 12 3.37 1.04
-1 -5 12 36.22 3.55
1 -5 12 5.63 0.92
2 -5 12 0.53 0.44
-3 5 -12 41.66 3.55
-3 5 -12 46.06 3.26
3 -5 12 42.8 3.14
-4 5 -12 8.24 1.57
-4 5 -12 4.02 0.81
4 -5 12 5.77 0.98
-5 5 -12 3 0.99
5 -5 12 1.26 0.5
5 -5 12 1.01 0.53
6 4 -12 9.8 1.77
-6 -4 12 13.81 2.37
5 4 -12 13.48 1.87
5 4 -12 11.35 1.53
4 4 -12 3.52 1.01
4 4 -12 1.33 0.78
4 4 -12 5.09 0.97
-4 -4 12 2.41 1
3 4 -12 0.16 0.55
-3 -4 12 0.63 0.7
-2 -4 12 28.74 2.65
1 4 -12 34.67 2.65
0 4 -12 11.78 1.32
0 -4 12 15.33 1.96
1 -4 12 8.55 1.03
2 -4 12 9.61 1.09
-3 4 -12 18.17 1.98
3 -4 12 16.95 1.58
-4 4 -12 17.53 2.16
-4 4 -12 15.27 1.75
4 -4 12 19.7 1.7
-5 4 -12 3.56 1.03
5 -4 12 1.23 0.55
5 -4 12 2.1 0.65
6 3 -12 11.43 1.63
6 3 -12 8.78 1.22
-6 -3 12 6.32 1.59
5 3 -12 22.65 2.19
5 3 -12 16.35 2.41
-5 -3 12 25.66 2.59
4 3 -12 2.95 0.82
4 3 -12 3 1.36
-4 -3 12 3.28 1.07
3 3 -12 40.5 3.31
3 3 -12 33.64 2.82
3 3 -12 31 2.88
-3 -3 12 35.64 3.11
2 3 -12 23.71 1.99
2 3 -12 29.1 3.94
-2 -3 12 25.9 2.47
1 3 -12 10.7 1.15
1 3 -12 11.71 1.74
-1 -3 12 9.42 1.51
0 -3 12 -0.46 0.5
1 -3 12 10.96 1.13
-2 3 -12 38.74 2.82
-2 3 -12 40.42 3.17
2 -3 12 39.14 2.79
-3 3 -12 4.47 1.05
-3 3 -12 5.09 1.22
3 -3 12 6.14 0.97
-4 3 -12 2.38 1.01
4 -3 12 4.05 0.79
4 -3 12 1.99 0.83
-5 3 -12 11.45 2.22
5 -3 12 7.75 1.17
5 -3 12 8.79 1.18
7 2 -12 20.12 2.4
6 2 -12 1.87 0.75
6 2 -12 0.86 0.67
-6 -2 12 2.08 1.03
5 2 -12 0.41 0.4
5 2 -12 1.06 0.74
5 2 -12 0.36 0.48
-5 -2 12 0.02 0.63
4 2 -12 7.76 1.21
4 2 -12 5.95 1.06
-4 -2 12 8.46 1.63
3 2 -12 29.27 2.5
3 2 -12 28.26 2.23
3 2 -12 30.39 2.2
2 2 -12 19.16 1.76
2 2 -12 21.53 1.69
2 2 -12 18.88 1.58
-2 -2 12 21.68 2.18
1 2 -12 1.71 0.41
1 2 -12 1.07 0.39
-1 -2 12 0.81 0.74
0 2 -12 12.93 1.16
0 2 -12 12.58 1.34
-1 2 -12 32.52 2.52
-1 2 -12 31.62 2.23
1 -2 12 27.36 2.18
-2 2 -12 29.97 2.35
-2 2 -12 30.8 2.79
2 -2 12 32.77 2.3
-3 2 -12 0.08 0.54
-3 2 -12 0.79 0.36
3 -2 12 -0.71 0.42
3 -2 12 0.21 0.38
-4 2 -12 9.24 2.02
4 -2 12 11.04 1.19
4 -2 12 10.98 1.18
-5 2 -12 3.41 1.23
5 -2 12 1.87 0.66
5 -2 12 3.17 0.79
7 1 -12 4.74 1.23
7 1 -12 5.7 1.16
-7 -1 12 7.6 1.63
6 1 -12 4.18 0.99
6 1 -12 2.81 0.71
-6 -1 12 2.45 1.03
5 1 -12 15.86 1.75
5 1 -12 17.37 1.54
5 1 -12 14.41 1.96
-5 -1 12 17.4 2.12
-5 -1 12 19.33 1.87
4 1 -12 17.3 1.95
4 1 -12 17.68 1.65
4 1 -12 15.11 1.39
-4 -1 12 15.73 1.9
-4 -1 12 17.5 2.06
3 1 -12 23.14 1.81
3 1 -12 18.02 1.98
3 1 -12 22.14 1.68
-3 -1 12 21.85 2.26
2 1 -12 9.88 1.23
2 1 -12 7.76 0.9
-2 -1 12 10.69 1.52
1 1 -12 16.94 1.61
1 1 -12 17.89 1.51
-1 -1 12 19.87 2.15
0 1 -12 31.48 2.47
0 1 -12 31.12 2.35
-1 1 -12 23.63 2.2
-1 1 -12 24.96 1.93
1 -1 12 22.05 1.84
-2 1 -12 -0.1 0.43
-2 1 -12 1 0.45
2 -1 12 0.63 0.5
2 -1 12 1.25 0.4
2 -1 12 1.52 0.5
-3 1 -12 1.31 0.72
3 -1 12 1.53 0.5
3 -1 12 0.29 0.32
-4 1 -12 19.49 2.5
4 -1 12 12.37 1.52
4 -1 12 14.82 1.4
7 0 -12 2.97 0.97
7 0 -12 0.83 0.65
-7 0 12 3.14 1.17
-7 0 12 1.5 0.95
6 0 -12 -0.31 0.41
6 0 -12 0.76 0.59
-6 0 12 1.37 0.69
-6 0 12 0.07 0.64
5 0 -12 29.9 2.19
5 0 -12 30.89 2.36
5 0 -12 32.51 2.62
-5 0 12 36.47 3.08
-5 0 12 24.69 2.61
4 0 -12 35.94 3.18
4 0 -12 33.31 2.49
4 0 -12 37.04 2.69
4 0 -12 32.6 2.49
-4 0 12 30.79 2.74
-4 0 12 35.53 3.1
3 0 -12 2.03 0.79
3 0 -12 2.09 0.55
3 0 -12 2 0.48
3 0 -12 1.71 0.52
-3 0 12 1.66 0.59
-3 0 12 2.78 0.97
2 0 -12 5.71 0.84
2 0 -12 5.5 1.05
2 0 -12 5.04 0.84
-2 0 12 3.4 1.1
1 0 -12 22.89 1.88
1 0 -12 23.15 1.89
1 0 -12 24.26 2.02
-1 0 12 17.08 1.8
0 0 -12 18.76 1.82
0 0 -12 20.4 1.91
0 0 12 19.94 1.77
-1 0 -12 8.25 1.49
-1 0 -12 4.57 0.98
-1 0 -12 8.12 1.06
1 0 12 7.43 1
1 0 12 7.57 0.77
-2 0 -12 0.36 0.61
2 0 12 0.4 0.3
2 0 12 -0.62 0.36
-3 0 -12 13.15 2.5
3 0 12 13.27 1.26
3 0 12 16.25 1.6
7 -1 -12 2.58 0.96
-7 1 12 4.51 1.31
6 -1 -12 14.3 1.37
6 -1 -12 21.5 1.99
6 -1 -12 17.86 1.73
-6 1 12 19.24 2.28
-6 1 12 15.96 2.06
5 -1 -12 7.61 1.23
5 -1 -12 6.73 1.08
-5 1 12 8.15 1.61
-5 1 12 4.58 1.18
4 -1 -12 8.54 1.11
4 -1 -12 5.6 0.98
-4 1 12 7.29 1.28
-4 1 12 10.15 1.72
3 -1 -12 -0.03 0.4
3 -1 -12 -0.34 0.31
3 -1 -12 1.38 0.71
-3 1 12 0.42 0.51
-3 1 12 0.48 0.64
2 -1 -12 15.25 1.52
2 -1 -12 16.42 1.83
2 -1 -12 16.12 1.57
-2 1 12 14.45 1.62
-2 1 12 16.98 2.07
1 -1 -12 24.79 2.46
1 -1 -12 19.4 1.98
1 -1 -12 22.42 2.05
-1 1 12 22.46 2.04
0 -1 -12 35.85 2.96
0 -1 -12 31.11 2.73
-1 -1 -12 2.9 0.96
-1 -1 -12 2.54 0.82
1 1 12 2.45 0.73
-2 -1 -12 14.08 1.91
2 1 12 18.05 1.74
-3 -1 -12 9.39 2.17
3 1 12 10.05 0.97
6 -2 -12 13.59 1.76
6 -2 -12 19.37 1.85
-6 2 12 15.42 2.16
5 -2 -12 6.64 1.15
5 -2 -12 6.41 1.12
-5 2 12 3.26 1.04
-5 2 12 10.42 1.77
4 -2 -12 1.62 0.68
4 -2 -12 0.86 0.5
-4 2 12 1.11 0.86
-4 2 12 0.93 0.73
3 -2 -12 17.21 1.72
3 -2 -12 15.11 1.66
-3 2 12 21.01 2.28
-3 2 12 13.8 1.83
2 -2 -12 39.35 3.04
2 -2 -12 41.85 3.06
-2 2 12 32.66 3.08
1 -2 -12 3.45 0.91
1 -2 -12 3.57 0.91
-1 2 12 5.52 1.12
0 -2 -12 0.46 0.64
0 -2 -12 -0.02 0.46
0 2 12 0.39 0.48
-1 -2 -12 1.66 0.77
-1 -2 -12 2 0.93
1 2 12 1.45 0.68
-2 -2 -12 10.1 2.12
5 -3 -12 0.65 0.56
5 -3 -12 0.85 0.59
-5 3 12 0.41 0.74
-5 3 12 0.79 0.76
4 -3 -12 10.3 1.42
4 -3 -12 12.14 1.51
-4 3 12 13.3 1.93
-4 3 12 6.84 1.49
3 -3 -12 12.53 1.66
3 -3 -12 15.45 1.66
-3 3 12 15.06 1.97
2 -3 -12 7.1 1.34
2 -3 -12 5.09 1.09
-2 3 12 8.83 1.39
1 -3 -12 7.59 1.5
1 -3 -12 5.49 1.21
-1 3 12 8.23 1.48
0 -3 -12 5.16 1.81
0 -3 -12 3.97 1.11
4 -4 -12 11.49 1.52
3 -4 -12 14.89 1.75
3 -4 -12 10.53 2.3
2 -4 -12 5.79 1.19
-2 4 12 0.39 0.92
0 -9 13 10.01 1.51
-2 -8 13 5.46 1.28
-1 -8 13 10.16 1.56
0 -8 13 14.23 1.8
3 -8 13 1.86 1.08
-4 8 -13 1.67 1.03
4 -8 13 2.97 0.8
-3 -7 13 0.31 0.78
-2 -7 13 42.97 3.6
-1 -7 13 3.54 1.01
0 -7 13 -0.15 0.58
2 -7 13 1.82 0.69
-3 7 -13 16.79 1.69
3 -7 13 19.52 1.79
-4 7 -13 10.71 1.74
-4 7 -13 14.99 1.95
4 6 -13 6.19 1.59
4 6 -13 10.29 1.3
-4 -6 13 6.53 1.51
-3 -6 13 3.49 1.09
-2 -6 13 4.75 1.28
-1 -6 13 24.78 2.46
0 -6 13 -0.77 0.53
2 -6 13 12.65 1.41
-3 6 -13 7.02 1.43
3 -6 13 6.44 1.1
-4 6 -13 -0.53 0.75
-4 6 -13 -0.11 0.51
4 -6 13 0.5 0.53
5 5 -13 -0.81 0.57
-5 -5 13 0.46 0.77
4 5 -13 0.5 0.5
4 5 -13 0.94 0.86
4 5 -13 0.38 0.76
-4 -5 13 1.22 0.92
3 5 -13 37.76 3.71
-3 -5 13 48.29 3.78
-2 -5 13 5.35 1.26
-1 -5 13 -0.24 0.52
0 -5 13 9.6 1.64
2 -5 13 11.52 1.26
-3 5 -13 2.55 0.96
3 -5 13 3 0.71
-4 5 -13 6.71 1.32
-4 5 -13 6.89 1.68
4 -5 13 5.41 0.98
5 4 -13 14.96 2.73
5 4 -13 15.52 1.79
-5 -4 13 12.95 2.07
4 4 -13 12.08 2.4
4 4 -13 11.32 1.47
-4 -4 13 14.63 1.98
3 4 -13 12.75 1.84
-3 -4 13 11.86 1.82
2 4 -13 1.62 1.04
-2 -4 13 2.87 0.98
-1 -4 13 15.31 1.94
0 -4 13 12.62 1.81
1 -4 13 24.81 2.01
-2 4 -13 4.6 1.05
2 -4 13 4.94 0.85
-3 4 -13 8.64 1.19
-3 4 -13 8.83 1.6
3 -4 13 10.13 1.17
-4 4 -13 8.62 1.86
4 -4 13 10.67 1.25
6 3 -13 6.4 1.28
-6 -3 13 3.4 1.22
5 3 -13 10.95 1.79
5 3 -13 10.26 1.5
-5 -3 13 12.28 1.9
4 3 -13 17.97 2.2
4 3 -13 25.17 2.08
-4 -3 13 24.08 2.53
3 3 -13 2.12 0.68
-3 -3 13 1.45 0.87
2 3 -13 0.78 0.82
-2 -3 13 -0.21 0.52
1 3 -13 39.8 2.95
-1 3 -13 1.71 0.46
-1 3 -13 3.41 0.76
1 -3 13 1.68 0.52
-2 3 -13 0.53 0.37
-2 3 -13 1.04 0.57
2 -3 13 1.82 0.52
-3 3 -13 24.55 2.54
-3 3 -13 24.31 2.11
3 -3 13 26.26 2.05
-4 3 -13 7 1.5
4 -3 13 4.03 0.8
4 -3 13 2.21 0.64
6 2 -13 10.92 1.58
-6 -2 13 11.58 2.03
5 2 -13 13.98 1.65
5 2 -13 10.06 3.01
-5 -2 13 15.17 2.04
4 2 -13 9.72 1.2
4 2 -13 10.14 1.44
-4 -2 13 7.27 1.56
3 2 -13 5.31 0.75
3 2 -13 4.38 1.03
3 2 -13 4.36 0.76
-3 -2 13 5.26 1.36
2 2 -13 26.13 2.1
2 2 -13 25.31 2.2
-2 -2 13 29.23 2.72
1 2 -13 16.23 1.49
1 2 -13 15.81 1.33
-1 -2 13 12.63 1.93
0 2 -13 10.82 1.23
0 2 -13 12.4 1.19
-1 2 -13 2.85 0.77
-1 2 -13 2.85 0.54
1 -2 13 2.7 0.59
-2 2 -13 5.83 0.92
2 -2 13 6.7 1.06
3 -2 13 6.32 0.91
3 -2 13 6.44 0.88
-4 2 -13 23.01 2.83
4 -2 13 23.25 2.05
4 -2 13 22.84 1.96
6 1 -13 12.6 1.35
6 1 -13 14.47 1.69
-6 -1 13 12.76 2.16
5 1 -13 11.7 1.43
-5 -1 13 11.58 1.83
4 1 -13 1.23 0.58
4 1 -13 1.33 0.84
4 1 -13 0.16 0.35
-4 -1 13 1.25 0.88
3 1 -13 10.98 1.1
3 1 -13 13.53 1.5
3 1 -13 11.98 1.22
-3 -1 13 11.33 1.89
2 1 -13 21.78 2.35
2 1 -13 28.09 1.95
-2 -1 13 19.72 2.45
1 1 -13 5.72 0.92
1 1 -13 4.17 0.92
-1 -1 13 6.39 1.47
0 1 -13 1.85 0.64
0 1 -13 0.78 0.45
-1 1 -13 2.48 0.62
-1 1 -13 3.33 0.87
1 -1 13 1.99 0.49
2 -1 13 39.1 2.74
2 -1 13 40.14 3.05
-3 1 -13 4.4 1.41
3 -1 13 6.9 0.87
6 0 -13 2.08 0.75
6 0 -13 2.13 0.78
-6 0 13 0.51 0.8
-6 0 13 4.31 1.36
5 0 -13 -0.3 0.34
5 0 -13 -0.08 0.53
5 0 -13 0.2 0.33
-5 0 13 -0.42 0.53
-5 0 13 0.14 0.69
4 0 -13 2.91 0.51
4 0 -13 4.25 0.83
-4 0 13 4.66 1.23
-4 0 13 5 1.01
3 0 -13 15.26 1.85
3 0 -13 16.06 1.41
3 0 -13 14.93 1.24
-3 0 13 15.97 2.04
-3 0 13 10.72 1.46
2 0 -13 22.88 1.86
2 0 -13 21.93 2.18
-2 0 13 19.15 2
-2 0 13 21.42 2.44
1 0 -13 5.06 1.01
1 0 -13 6.74 1.15
0 0 -13 14.75 1.7
0 0 -13 13.35 1.62
0 0 13 12.6 1.56
-1 0 -13 13.7 1.8
-1 0 -13 14.51 1.64
1 0 13 14.31 1.5
-2 0 -13 14.59 2.03
2 0 13 12.99 1.19
2 0 13 15.94 1.55
6 -1 -13 4.42 0.99
-6 1 13 3.84 1.28
5 -1 -13 5.24 0.96
5 -1 -13 5.24 1.02
-5 1 13 7.84 1.63
-5 1 13 6.07 1.2
-4 1 13 17.67 2.2
-4 1 13 15.99 1.8
3 -1 -13 19.55 1.91
3 -1 -13 16.5 1.62
-3 1 13 15.49 1.81
2 -1 -13 2.51 0.73
-2 1 13 2.65 0.76
1 -1 -13 3.79 0.86
1 -1 -13 3.95 0.99
-1 1 13 4.03 0.92
0 -1 -13 19.94 2.12
0 -1 -13 16.46 1.86
0 1 13 17.41 1.82
-1 -1 -13 15.09 2.08
1 1 13 16.55 1.76
5 -2 -13 11.06 1.42
-5 2 13 7.64 1.58
4 -2 -13 23.67 2.07
4 -2 -13 17.46 1.9
-4 2 13 20.46 2.33
3 -2 -13 3.71 0.81
3 -2 -13 2.78 0.78
-3 2 13 3.44 1.2
-3 2 13 2.26 0.86
2 -2 -13 2.1 0.77
2 -2 -13 1.23 0.69
-2 2 13 0.88 0.68
1 -2 -13 16.59 1.83
1 -2 -13 12.15 1.69
-1 2 13 10.8 1.76
0 -2 -13 8.18 1.54
0 2 13 10.16 1.6
3 -3 -13 0.23 0.49
-3 3 13 1.14 0.89
-1 -8 14 3.05 1.02
0 -8 14 13.88 1.86
-2 -7 14 1.05 0.81
-1 -7 14 0.45 0.77
0 -7 14 3.2 1.12
3 -7 14 2.91 0.8
-3 -6 14 1 0.88
-2 -6 14 0.97 0.85
-1 -6 14 16.33 2.11
0 -6 14 20.09 2.32
2 -6 14 4.66 0.9
3 -6 14 5 0.93
-4 -5 14 7.72 1.6
-3 -5 14 2.08 0.99
-2 -5 14 31.81 3.03
-1 -5 14 9.88 1.88
0 -5 14 6.64 1.55
2 -5 14 10.69 1.27
-3 5 -14 8.37 1.71
3 -5 14 10.11 1.22
4 4 -14 -0.42 0.84
4 4 -14 0.32 0.47
-4 -4 14 0.86 0.87
-3 -4 14 10.53 1.93
-2 -4 14 19.02 2.27
2 -4 14 10.52 1.2
-3 4 -14 6.49 1.13
-3 4 -14 10.16 1.76
3 -4 14 7.34 1.02
5 3 -14 -0.03 0.5
-5 -3 14 -0.04 0.74
4 3 -14 6.37 1.03
4 3 -14 4.07 1.12
3 3 -14 34.7 2.98
-3 -3 14 35.89 3.32
-2 -3 14 6.28 1.5
-1 -3 14 0.44 0.72
-1 3 -14 15.62 1.59
-1 3 -14 11.95 1.48
-2 3 -14 6.22 1.29
-2 3 -14 5.73 0.8
2 -3 14 4.12 0.79
3 -3 14 1.52 0.52
5 2 -14 6.74 1.32
-5 -2 14 11.27 2.05
4 2 -14 11.56 1.3
-4 -2 14 13.72 2.01
3 2 -14 11.08 1.13
3 2 -14 8.23 1.48
-3 -2 14 12.21 2.04
2 2 -14 -0.31 0.37
2 2 -14 0.95 0.64
-2 -2 14 0.79 0.76
1 2 -14 7.71 1.22
1 2 -14 7.01 0.93
-1 -2 14 9.24 1.79
0 2 -14 8.16 1.27
0 2 -14 7.5 1
-1 2 -14 9.59 1.06
-1 2 -14 6.15 1.31
-2 2 -14 11 1.89
5 1 -14 9.01 1.26
-5 -1 14 10.41 1.94
4 1 -14 12.4 1.35
-4 -1 14 12.42 2.07
3 1 -14 0.55 0.57
3 1 -14 0.75 0.35
-3 -1 14 0.13 0.66
2 1 -14 2.36 0.62
2 1 -14 3.07 0.79
-2 -1 14 4.08 1.37
1 1 -14 8.74 1.27
1 1 -14 8.12 1.17
0 1 -14 30.2 2.7
0 1 -14 37.37 2.91
-1 1 -14 6.54 1.78
-2 1 -14 1 1.02
2 -1 14 2.1 0.6
5 0 -14 4.72 0.85
5 0 -14 5.4 0.98
-5 0 14 6 1.17
-5 0 14 8.77 1.74
4 0 -14 17.24 1.63
-4 0 14 19.96 2.43
-4 0 14 20.71 1.94
3 0 -14 0.31 0.47
-3 0 14 0.54 0.85
2 0 -14 31.54 2.57
-2 0 14 33.36 3.22
0 0 -14 4.12 1.02
0 0 -14 4.59 0.89
0 0 14 4.07 0.82
-1 0 -14 0.04 0.63
1 0 14 -0.09 0.47
4 -1 -14 2.74 0.69
4 -1 -14 2.06 0.66
-4 1 14 2.16 0.93
-4 1 14 0.1 0.83
3 -1 -14 2.43 0.67
3 -1 -14 3.62 0.79
-3 1 14 4.96 1.02
-3 1 14 2.94 1.28
2 -1 -14 19.28 1.86
2 -1 -14 19.48 1.92
-2 1 14 16.97 1.92
1 -1 -14 5.97 1.15
1 -1 -14 8.85 1.51
-1 1 14 8.82 1.38
-2 -6 15 16.59 2.21
-1 -6 15 -0.04 0.78
-3 -5 15 6.74 1.62
-2 -5 15 5.75 1.49
-1 -5 15 10.94 2.02
2 -5 15 2.4 0.68
-3 -4 15 -0.07 0.76
-2 -4 15 10.57 1.93
-1 -4 15 1.8 1.06
-2 4 -15 3.08 1.05
2 -4 15 4.04 0.8
-3 -3 15 2.03 1.1
-2 -3 15 7.72 1.72
-1 -3 15 21.41 2.63
-1 3 -15 -0.13 0.52
-3 -2 15 6.64 1.6
2 2 -15 4.86 0.86
-2 -2 15 7.85 1.8
1 2 -15 7.58 1.12
0 2 -15 9.52 1.57
0 2 -15 7.06 1.21
-1 2 -15 10.67 1.6
3 1 -15 19.78 1.78
2 1 -15 12.71 1.35
-2 -1 15 13.38 2.09
1 1 -15 2.88 0.74
0 1 -15 11.14 1.58
