#------------------------------------------------------------------------------
#$Date: 2021-07-02 04:01:51 +0300 (Fri, 02 Jul 2021) $
#$Revision: 266880 $
#$URL: file:///home/coder/svn-repositories/cod/cif/1/56/38/1563859.cif $
#------------------------------------------------------------------------------
#
# This file is available in the Crystallography Open Database (COD),
# http://www.crystallography.net/
#
# All data on this site have been placed in the public domain by the
# contributors.
#
data_1563859
loop_
_publ_author_name
'Zhu, Kejie'
'Jiang, Meifen'
'Ye, Baijun'
'Zhang, Guo-Tai'
'Li, Weijian'
'Tang, Pei'
'Huang, Zedu'
'Chen, Fener'
_publ_section_title
;
 Unified Strategy to Prostaglandins: Chemoenzymatic Total Synthesis of
 Cloprostenol, Bimatoprost, PGF2&#xF061;, Fluprostenol, and Travoprost
 Guided by Biocatalytic Retrosynthesis
;
_journal_name_full               'Chemical Science'
_journal_paper_doi               10.1039/D1SC03237B
_journal_year                    2021
_chemical_formula_sum            'C7 H6 Cl2 O2'
_chemical_formula_weight         193.02
_chemical_name_systematic
(3aR,6aS)-3,3-dichloro-3,3a,6,6a-tetrahydro-2H-cyclopenta[b]furan-2-one
_space_group_crystal_system      orthorhombic
_space_group_IT_number           19
_space_group_name_Hall           'P 2ac 2ab'
_space_group_name_H-M_alt        'P 21 21 21'
_atom_sites_solution_hydrogens   geom
_audit_creation_method           SHELXL-2016/6
_audit_update_record
;
2020-01-07 deposited with the CCDC.	2021-07-01 downloaded from the CCDC.
;
_cell_angle_alpha                90
_cell_angle_beta                 90
_cell_angle_gamma                90
_cell_formula_units_Z            4
_cell_length_a                   7.6662(15)
_cell_length_b                   9.925(2)
_cell_length_c                   10.643(2)
_cell_measurement_reflns_used    9973
_cell_measurement_temperature    298(2)
_cell_measurement_theta_max      59.20
_cell_measurement_theta_min      3.61
_cell_volume                     809.8(3)
_computing_cell_refinement       'Bruker SAINT'
_computing_data_collection       'Bruker APEX2'
_computing_data_reduction        'Bruker SAINT'
_computing_molecular_graphics    'Bruker SHELXTL'
_computing_publication_material  'Bruker SHELXTL'
_computing_structure_refinement  'SHELXL-2016/6 (Sheldrick, 2016)'
_computing_structure_solution    'SHELXT 2014/5 (Sheldrick, 2014)'
_diffrn_ambient_temperature      298(2)
_diffrn_measured_fraction_theta_full 0.989
_diffrn_measured_fraction_theta_max 0.990
_diffrn_measurement_device_type  'Bruker APEX-II CCD'
_diffrn_measurement_method       '\f and \w scans'
_diffrn_radiation_type           GaK\a
_diffrn_radiation_wavelength     1.34138
_diffrn_reflns_av_R_equivalents  0.0604
_diffrn_reflns_av_unetI/netI     0.0351
_diffrn_reflns_Laue_measured_fraction_full 0.989
_diffrn_reflns_Laue_measured_fraction_max 0.990
_diffrn_reflns_limit_h_max       9
_diffrn_reflns_limit_h_min       -9
_diffrn_reflns_limit_k_max       12
_diffrn_reflns_limit_k_min       -12
_diffrn_reflns_limit_l_max       13
_diffrn_reflns_limit_l_min       -13
_diffrn_reflns_number            14618
_diffrn_reflns_point_group_measured_fraction_full 0.993
_diffrn_reflns_point_group_measured_fraction_max 0.994
_diffrn_reflns_theta_full        53.594
_diffrn_reflns_theta_max         58.961
_diffrn_reflns_theta_min         5.302
_exptl_absorpt_coefficient_mu    4.502
_exptl_absorpt_correction_T_max  0.752
_exptl_absorpt_correction_T_min  0.485
_exptl_absorpt_correction_type   multi-scan
_exptl_absorpt_process_details   sadabs
_exptl_crystal_colour            colourless
_exptl_crystal_density_diffrn    1.583
_exptl_crystal_description       block
_exptl_crystal_F_000             392
_exptl_crystal_size_max          0.280
_exptl_crystal_size_mid          0.130
_exptl_crystal_size_min          0.120
_refine_diff_density_max         0.181
_refine_diff_density_min         -0.154
_refine_diff_density_rms         0.030
_refine_ls_abs_structure_details
; 
 Flack x determined using 642 quotients [(I+)-(I-)]/[(I+)+(I-)] 
 (Parsons, Flack and Wagner, Acta Cryst. B69 (2013) 249-259). 
;
_refine_ls_abs_structure_Flack   0.037(8)
_refine_ls_extinction_coef       0.014(3)
_refine_ls_extinction_expression Fc^*^=kFc[1+0.001xFc^2^\l^3^/sin(2\q)]^-1/4^
_refine_ls_extinction_method     'SHELXL-2016/6 (Sheldrick 2016)'
_refine_ls_goodness_of_fit_ref   1.058
_refine_ls_hydrogen_treatment    constr
_refine_ls_matrix_type           full
_refine_ls_number_parameters     101
_refine_ls_number_reflns         1748
_refine_ls_number_restraints     0
_refine_ls_restrained_S_all      1.058
_refine_ls_R_factor_all          0.0304
_refine_ls_R_factor_gt           0.0238
_refine_ls_shift/su_max          0.001
_refine_ls_shift/su_mean         0.000
_refine_ls_structure_factor_coef Fsqd
_refine_ls_weighting_details
'w=1/[\s^2^(Fo^2^)+(0.0214P)^2^+0.1099P] where P=(Fo^2^+2Fc^2^)/3'
_refine_ls_weighting_scheme      calc
_refine_ls_wR_factor_gt          0.0594
_refine_ls_wR_factor_ref         0.0605
_reflns_Friedel_coverage         0.700
_reflns_Friedel_fraction_full    0.998
_reflns_Friedel_fraction_max     0.999
_reflns_number_gt                1621
_reflns_number_total             1748
_reflns_threshold_expression     'I > 2\s(I)'
_cod_data_source_file            d1sc03237b2.cif
_cod_data_source_block           ga_91109a_a
_cod_database_code               1563859
_shelx_shelxl_version_number     2016/6
_shelx_space_group_comment
; 
The symmetry employed for this shelxl refinement is uniquely defined 
by the following loop, which should always be used as a source of 
symmetry information in preference to the above space-group names. 
They are only intended as comments. 
;
_shelx_estimated_absorpt_t_min   0.365
_shelx_estimated_absorpt_t_max   0.614
_shelx_res_file
; 
TITL ga_91109a_a.res in P2(1)2(1)2(1) 
    ga_91109a_a.res 
    created by SHELXL-2016/6 at 14:20:01 on 09-Nov-2019 
CELL  1.34138   7.6662   9.9249  10.6426   90.000   90.000   90.000 
ZERR    4.000   0.0015   0.0020   0.0021    0.000    0.000    0.000 
LATT -1 
SYMM 1/2-X, -Y, 1/2+Z 
SYMM -X, 1/2+Y, 1/2-Z 
SYMM 1/2+X, 1/2-Y, -Z 
SFAC C  H  Cl O 
UNIT 28 24 8 8 
OMIT  -2.00 118.00 
L.S. 4 
ACTA 
BOND $H 
FMAP 2 
PLAN 1 
SIZE 0.12 0.13 0.28 
CONF 
TEMP 25 
WGHT    0.021400    0.109900 
EXTI    0.013609 
FVAR       1.60337 
CL1   3    0.906069    0.502573    0.577264    11.00000    0.05937    0.07775 = 
         0.04045    0.00188   -0.00913   -0.00405 
CL2   3    0.876174    0.338208    0.352514    11.00000    0.07062    0.06176 = 
         0.05863   -0.01019   -0.00030    0.02138 
O1    4    0.639837    0.670185    0.389637    11.00000    0.06473    0.04241 = 
         0.06562    0.00315   -0.00042    0.00158 
O2    4    0.897394    0.641866    0.298133    11.00000    0.06960    0.08033 = 
         0.05645    0.01581    0.00768   -0.02594 
C3    1    0.588933    0.451051    0.472311    11.00000    0.05130    0.04888 = 
         0.03606    0.00323    0.00631   -0.00884 
AFIX  13 
H3    2    0.574963    0.407650    0.554407    11.00000   -1.20000 
AFIX   0 
C1    1    0.783997    0.601708    0.364988    11.00000    0.05227    0.04660 = 
         0.03866    0.00356   -0.00364   -0.01087 
C2    1    0.779695    0.469269    0.438313    11.00000    0.04689    0.04482 = 
         0.03430    0.00248    0.00082   -0.00026 
C4    1    0.475314    0.387371    0.374595    11.00000    0.06188    0.05923 = 
         0.05231   -0.00679    0.00586   -0.02085 
AFIX  43 
H4    2    0.496056    0.302708    0.340257    11.00000   -1.20000 
AFIX   0 
C5    1    0.343508    0.463980    0.342784    11.00000    0.04504    0.10611 = 
         0.06084   -0.00451   -0.00045   -0.01383 
AFIX  43 
H5    2    0.259749    0.439647    0.283784    11.00000   -1.20000 
AFIX   0 
C6    1    0.342900    0.595603    0.412366    11.00000    0.04999    0.09804 = 
         0.08410   -0.00398    0.00738    0.01480 
AFIX  23 
H6A   2    0.250823    0.598071    0.474837    11.00000   -1.20000 
H6B   2    0.328654    0.670974    0.355257    11.00000   -1.20000 
AFIX   0 
C7    1    0.520635    0.597313    0.473297    11.00000    0.05495    0.05970 = 
         0.05243   -0.01058    0.00831    0.00340 
AFIX  13 
H7    2    0.517847    0.635800    0.558074    11.00000   -1.20000 
AFIX   0 
HKLF 4 
  
  
  
  
REM  ga_91109a_a.res in P2(1)2(1)2(1) 
REM R1 =  0.0238 for    1621 Fo > 4sig(Fo)  and  0.0304 for all    1748 data 
REM    101 parameters refined using      0 restraints 
  
END 
  
WGHT      0.0211      0.1105 
  
REM Highest difference peak  0.181,  deepest hole -0.154,  1-sigma level  0.030 
Q1    1   0.7975  0.2799  0.3647  11.00000  0.05    0.18 
;
_shelx_res_checksum              46743
_shelx_hkl_file
; 
   1   0   0    0.50    0.60 
  -1   0   0   -0.40    0.40 
   2   0   0  816.22   50.09 
  -2   0   0  784.72   48.80 
   3   0   0    4.00    2.60 
   4   0   0 9999.00  586.04 
  -5   0   0   26.40   72.09 
  -6   0   0  281.37   20.50 
  -6   0   0  324.07   25.80 
  -6   0   0  307.47   23.90 
   6   0   0  354.56   31.30 
   6   0   0  283.37   25.60 
  -7   0   0    1.00    2.90 
  -7   0   0   25.40  209.38 
  -7   0   0    0.40    1.80 
   7   0   0    3.00    5.80 
  -7   0   0    5.40    4.30 
  -8   0   0  271.57   24.60 
  -8   0   0  238.28   17.50 
  -8   0   0  257.07   21.90 
  -8   0   0   10.90  121.39 
  -9   0   0    0.00    2.20 
  -9   0   0    0.40    2.00 
  -9   0   0  -63.09  143.79 
   0  -1   0    1.60    0.50 
  -2   1   0 3079.79  185.48 
  -2  -1   0 3115.69  186.08 
   2  -1   0 3304.27  185.28 
   3   1   0 8991.50  528.25 
   4   1   0    0.40    3.10 
  -4  -1   0    2.00    1.60 
  -4   1   0    1.60    1.60 
   4  -1   0    0.50    1.20 
   4  -1   0    2.80    1.80 
  -5   1   0  368.46   25.80 
   5   1   0  366.66   31.40 
  -5  -1   0  324.67   23.60 
  -5  -1   0  373.16   25.70 
  -5   1   0  383.86   27.40 
   5  -1   0  378.56   27.70 
   5  -1   0  384.46   26.70 
  -5  -1   0  374.86   28.40 
  -5   1   0  304.27   22.60 
  -6  -1   0  281.97   24.50 
  -6  -1   0  264.47   20.10 
  -6   1   0  288.97   23.20 
   6   1   0  275.97   27.70 
  -6  -1   0   62.69  196.68 
  -6  -1   0  286.07   21.80 
   6  -1   0  282.07   23.60 
  -6   1   0   50.09  179.18 
  -6   1   0  251.07   18.10 
  -7  -1   0 1250.87   74.39 
  -7   1   0 1156.38   72.69 
   7  -1   0 1149.58   86.59 
  -7   1   0 1291.87   78.29 
   7   1   0 1200.68   81.69 
  -8  -1   0   81.09  262.17 
  -8  -1   0  100.09   13.70 
  -8   1   0  -12.80  115.59 
  -8   1   0   81.59   10.40 
  -8  -1   0   83.49   10.90 
  -8  -1   0   90.89    8.50 
  -8   1   0   80.09    7.40 
  -9   1   0    6.00  166.48 
  -9  -1   0  -39.80  145.89 
  -1   2   0  899.31   60.79 
   1  -2   0 1064.19   61.89 
  -1  -2   0 1122.19   62.29 
  -1  -2   0 1063.79   62.09 
   1   2   0 1013.50   61.59 
  -2  -2   0  110.69    9.50 
   2  -2   0  104.29    8.60 
  -3   2   0 2248.38  136.89 
   3  -2   0 2277.87  137.09 
   3  -2   0 2254.27  134.49 
  -3  -2   0 2437.76  139.79 
   4  -2   0    1.70    1.20 
   4   2   0    5.50    4.40 
  -4  -2   0    1.60    1.60 
  -4  -2   0    2.70    2.10 
  -4   2   0   -7.50   32.20 
  -4  -2   0   59.59   95.99 
   4  -2   0    4.30    1.40 
  -5  -2   0   76.19   10.60 
  -5  -2   0   46.00  126.99 
   5  -2   0   71.59    5.80 
  -5  -2   0   84.99    8.60 
  -5  -2   0   72.99    7.50 
  -5   2   0   73.79    8.80 
  -5   2   0   76.59    8.30 
  -5   2   0   93.19  175.18 
   5  -2   0   82.49    9.20 
   5   2   0   67.49   12.70 
  -6  -2   0  711.73   43.90 
  -6   2   0  612.74   41.20 
  -6  -2   0  759.32   50.89 
   6  -2   0  716.23   55.99 
   6  -2   0  720.63   47.20 
   6   2   0  665.23   59.19 
  -6  -2   0  716.23   45.90 
   6  -2   0  575.54   41.20 
  -7  -2   0   55.99  268.57 
  -7   2   0  412.96   30.60 
  -7  -2   0  434.76   31.10 
   7  -2   0  386.66   39.40 
   7   2   0  334.07   33.40 
  -7  -2   0  426.26   28.50 
  -7   2   0  390.96   25.80 
   7  -2   0  424.16   32.00 
  -7  -2   0  468.25   36.20 
  -8  -2   0   69.49  273.67 
  -8  -2   0   65.49    9.20 
  -8  -2   0   79.59   11.80 
  -8  -2   0   71.29    7.70 
  -8   2   0   49.99    8.10 
   8  -2   0   71.19   27.80 
  -8   2   0  -19.50  136.99 
  -9   2   0    1.90    2.80 
  -9  -2   0  -13.60  172.78 
  -9  -2   0    1.90    2.40 
   0  -3   0   -0.30    0.70 
   0  -3   0    0.90    1.10 
   0  -3   0    1.20    1.00 
  -1  -3   0 2587.64  147.39 
   1  -3   0 2403.06  146.19 
   1  -3   0 2382.76  146.79 
  -1  -3   0 2535.15  146.79 
  -2   3   0  666.13   42.30 
  -2  -3   0  808.12   52.19 
   2  -3   0  700.23   44.60 
   2  -3   0  697.03   44.40 
   3   3   0  180.58   20.30 
   3   3   0  180.28   12.50 
  -3  -3   0  200.58   16.70 
   3  -3   0  200.78   15.10 
   4  -3   0   96.89    6.80 
   4   3   0   94.89   20.00 
   4   3   0   96.89    7.30 
  -4  -3   0   21.70  101.69 
  -4  -3   0  125.29   13.60 
   4  -3   0   94.19    9.80 
  -4   3   0   -4.10   60.29 
  -4  -3   0  103.89    9.00 
  -4  -3   0  112.59   13.50 
   5   3   0 2186.38  131.89 
  -5  -3   0 2358.66  135.19 
   5   3   0 2043.70  147.89 
  -5  -3   0 2505.25  141.49 
  -5  -3   0 2331.77  134.39 
  -5   3   0 2090.59  134.79 
   5  -3   0 2193.18  136.09 
  -6  -3   0   41.30   10.30 
  -6  -3   0  -15.20   92.59 
   6  -3   0   32.30    6.60 
  -6   3   0   40.30    6.40 
   6  -3   0   46.10    4.10 
   6  -3   0   49.30    8.00 
   6  -3   0   54.29   12.10 
  -6  -3   0   49.70    6.80 
   6   3   0   49.20    5.60 
  -6  -3   0   54.39    7.30 
  -6   3   0   55.89  155.98 
  -7  -3   0    4.20    3.40 
  -7  -3   0    1.70    4.10 
  -7   3   0    0.10    2.50 
  -7  -3   0    5.60    3.20 
  -7  -3   0  -46.40   75.19 
  -7   3   0  -25.80   64.49 
   7  -3   0    0.20    6.90 
  -8  -3   0   57.29    8.50 
   8   3   0   58.99    7.20 
  -8  -3   0   68.69   12.50 
   8  -3   0   36.80    8.50 
  -8  -3   0   55.09    7.30 
  -8  -3   0  -30.40  182.28 
   8  -3   0   59.99    5.40 
  -8   3   0   51.19    7.60 
  -9  -3   0  198.58   14.40 
  -9   3   0  152.18   13.90 
   0  -4   0 2366.66  152.28 
   0   4   0 2538.75  153.68 
   0  -4   0 2920.91  157.48 
   1  -4   0 2987.60  190.78 
   1  -4   0 3366.86  183.88 
   1   4   0 3073.49  182.48 
   1  -4   0 2810.02  180.98 
  -1  -4   0 3295.47  184.68 
   2  -4   0  154.08   13.00 
  -2   4   0  144.59   10.80 
   2   4   0  152.28   11.30 
   2  -4   0  159.18   12.70 
   2  -4   0  134.59   10.10 
  -2  -4   0  171.98   13.60 
  -2  -4   0  156.78   13.60 
   2  -4   0  154.68   16.20 
   3  -4   0 2475.95  136.79 
  -3  -4   0 2600.84  140.59 
   3   4   0 2245.08  133.79 
   3   4   0 1965.30  144.79 
   3  -4   0 2035.80  132.39 
   3  -4   0 2400.66  136.89 
  -3  -4   0 2148.89  134.09 
   4   4   0    5.50    6.40 
  -4  -4   0    2.20    2.20 
   4  -4   0   11.20    5.90 
   4  -4   0    1.80    1.00 
  -4  -4   0   -0.30    2.30 
   4  -4   0    3.00    2.70 
  -4   4   0    3.90    1.60 
   4  -4   0    3.30    1.70 
   4   4   0    3.60    2.00 
  -4  -4   0    9.30    2.60 
  -4  -4   0    3.50    1.30 
  -5  -4   0  708.73   49.20 
   5  -4   0  661.53   43.50 
   5  -4   0  668.93   52.99 
   5  -4   0  626.44   43.50 
   5   4   0  618.04   39.80 
  -5   4   0  619.44   37.70 
  -5  -4   0  713.53   43.60 
   5  -4   0  585.14   38.10 
  -5  -4   0  657.43   44.60 
  -5   4   0  567.24   40.90 
   5   4   0  509.45   54.29 
   5  -4   0  614.74   37.40 
   6  -4   0  303.07   25.00 
   6  -4   0  298.77   25.60 
  -6  -4   0  344.27   24.10 
  -6   4   0  278.17   23.10 
  -6  -4   0  303.97   30.20 
  -6  -4   0  356.16   24.50 
   6  -4   0  309.57   20.10 
   6   4   0  327.47   22.50 
   6  -4   0  286.97   33.10 
   7   4   0   63.89    8.20 
  -7  -4   0   60.59   12.10 
  -7  -4   0   73.79    8.90 
   7  -4   0   41.30   14.40 
   7  -4   0   67.99    5.30 
  -7  -4   0   -8.00  195.08 
   7  -4   0   59.49    9.40 
  -7  -4   0   70.89    9.10 
  -7   4   0   56.09    7.90 
   8  -4   0   90.39   11.70 
   8  -4   0  112.39    7.80 
  -8  -4   0  118.09   11.40 
   8  -4   0  111.89    8.80 
  -8   4   0   92.19   10.00 
  -8  -4   0   -3.50   79.89 
   8   4   0  109.19   10.40 
  -9  -4   0    8.00  107.49 
  -9  -4   0    4.90    2.70 
   9  -4   0    4.70    2.30 
   0  -5   0   -0.30    1.10 
   0  -5   0    0.20    1.90 
   0  -5   0    0.20    1.10 
   0  -5   0    2.90    2.40 
   0   5   0    3.20    2.00 
   1  -5   0 2157.58  135.69 
   1   5   0 2271.87  137.59 
  -1  -5   0 2400.76  140.29 
  -1   5   0 2436.96  139.29 
   2  -5   0 2320.87  129.49 
   2  -5   0 2109.29  123.09 
  -2  -5   0 2052.59  129.09 
  -2  -5   0 2152.58  124.39 
   2  -5   0 1988.00  132.09 
  -2  -5   0 2354.36  129.39 
  -2   5   0 2114.29  125.09 
  -2   5   0 2055.69  125.19 
   2  -5   0 1941.01  123.79 
   2   5   0 2001.50  125.49 
   3  -5   0 1991.90  117.39 
   3   5   0 1824.82  112.19 
  -3  -5   0 1865.01  112.69 
  -3   5   0 1917.71  113.49 
  -3  -5   0 1801.72  113.69 
   3  -5   0 1960.60  116.59 
   3   5   0 1805.02  113.89 
   3  -5   0 1836.22  111.49 
   3  -5   0 2163.08  125.99 
  -4  -5   0   55.79  162.98 
  -4  -5   0  104.09    9.80 
   4   5   0  102.39    7.80 
   4  -5   0  102.69   11.40 
   4  -5   0   98.19   11.30 
  -4   5   0   98.89    8.60 
   4   5   0   96.39    9.40 
  -4  -5   0  108.39    8.20 
   4  -5   0   99.69    7.10 
   4  -5   0   90.39    7.90 
  -4  -5   0  100.59   14.10 
  -4  -5   0  117.59   10.00 
   4  -5   0  119.69   17.40 
   4   5   0   86.39   17.50 
  -5  -5   0  212.88   16.50 
   5   5   0  192.78   13.80 
  -5   5   0  192.28   13.70 
  -5  -5   0   86.09  238.98 
   5  -5   0  197.88   14.80 
  -5  -5   0  205.58   16.80 
   5  -5   0  186.08   18.20 
  -5   5   0  173.48   16.60 
   5  -5   0  192.88   25.00 
   5   5   0  208.28   15.90 
  -5  -5   0  188.88   21.90 
   5  -5   0  213.68   18.80 
   6  -5   0  364.46   39.50 
   6   5   0  408.56   26.20 
   6   5   0  393.66   28.40 
   6  -5   0  416.46   25.10 
  -6  -5   0  446.46   29.80 
  -6   5   0  359.56   27.70 
   6  -5   0  418.16   32.30 
  -6  -5   0  392.76   37.30 
  -6  -5   0  414.86   29.50 
  -7  -5   0   -9.80  164.48 
   7   5   0  103.59   10.80 
  -7  -5   0  106.79   15.90 
   7   5   0   93.49    8.30 
   7  -5   0  104.89    8.70 
   7  -5   0   86.29   18.40 
   7  -5   0  105.29    7.60 
   7  -5   0   80.79   11.60 
  -7  -5   0   97.69   10.90 
  -8  -5   0   45.90  191.88 
  -9  -5   0   -1.90    1.90 
   9  -5   0    2.20    1.30 
  -9  -5   0  -13.20  123.39 
   0  -6   0 5920.71  335.67 
   0  -6   0 5651.03  337.07 
   0  -6   0 6153.28  344.67 
   0  -6   0 5539.75  336.57 
   0   6   0 5833.52  336.67 
   0  -6   0 6044.90  341.57 
   0   6   0 5547.75  338.47 
   0   6   0 5551.14  337.87 
   1  -6   0   72.39   10.60 
  -1  -6   0   66.29    6.20 
  -1   6   0   66.19    6.80 
  -1  -6   0   76.89   10.10 
   1   6   0   62.29    7.40 
  -1  -6   0   68.59    9.20 
   1  -6   0   69.19    5.20 
   1  -6   0   63.29    6.20 
   1   6   0   70.49    6.00 
  -1   6   0   58.39    6.60 
   1   6   0   58.29    8.80 
   1  -6   0   63.49    9.30 
   1  -6   0   58.29    6.20 
  -1   6   0   80.09    9.10 
   1  -6   0   84.49    9.20 
  -2   6   0    7.20    2.80 
  -2  -6   0   10.10    2.70 
   2  -6   0    7.40    2.30 
  -2   6   0    8.80    2.50 
   2  -6   0    6.30    4.20 
   2  -6   0    5.90    2.80 
  -2  -6   0    6.80    4.40 
   2  -6   0    8.90    1.60 
   2  -6   0    5.30    1.80 
  -2  -6   0    8.90    2.30 
   2   6   0   11.40    2.20 
   2   6   0    4.60    4.60 
   2   6   0    8.80    3.00 
  -2  -6   0    4.70    3.60 
   3  -6   0    1.50    1.00 
   3  -6   0    3.70    2.80 
   3  -6   0    1.50    3.50 
   3   6   0    2.50    2.30 
  -3   6   0   -0.70    1.40 
  -3  -6   0   43.40  172.98 
  -3  -6   0    1.40    2.80 
  -3  -6   0    1.40    1.80 
   3   6   0    5.30    1.80 
   3  -6   0    2.70    1.60 
  -3  -6   0    5.60    1.80 
   3   6   0    3.30    5.60 
   4  -6   0 3316.77  188.88 
   4   6   0 3200.58  191.08 
   4   6   0 3254.27  188.68 
   4  -6   0 3034.40  203.68 
  -4   6   0 3106.09  189.58 
  -4  -6   0 3231.58  200.68 
  -4  -6   0 3328.47  190.98 
   5   6   0  280.97   21.70 
   5  -6   0  295.07   19.70 
  -5  -6   0  277.37   29.30 
  -5  -6   0   17.30  238.48 
  -5  -6   0  272.27   18.40 
   5  -6   0  294.87   18.20 
   5  -6   0  272.77   31.30 
  -5   6   0  272.37   19.40 
   5  -6   0  250.07   23.80 
   5   6   0  289.87   19.40 
   5  -6   0  279.47   24.50 
  -5  -6   0  310.87   22.50 
   6  -6   0  214.48   14.20 
  -6  -6   0  194.48   23.70 
   6   6   0  185.98   14.40 
   6  -6   0  186.88   19.30 
  -6  -6   0   46.50  291.77 
   6   6   0  213.28   17.50 
   6  -6   0  162.48   24.90 
   6  -6   0  203.38   14.90 
  -6  -6   0  210.28   20.90 
   7  -6   0   14.60    2.60 
   7   6   0   16.00    3.20 
   7  -6   0    8.20    4.70 
  -7  -6   0   14.20    4.90 
   7   6   0   13.90    4.50 
  -7  -6   0   27.90  203.98 
   7  -6   0   17.70    3.70 
   8  -6   0   72.89   13.10 
  -8  -6   0   27.50  117.29 
  -8  -6   0  102.89   10.60 
   8  -6   0   97.19    7.30 
   8   6   0   88.89    7.80 
   8  -6   0   97.89    8.50 
   0  -7   0    1.00    1.60 
   0  -7   0   -1.50    2.20 
   0   7   0    4.20    2.30 
   0   7   0   -0.10    1.60 
   0   7   0   -0.80    1.20 
   0  -7   0    1.30    2.80 
   0   7   0    6.70    4.50 
   0  -7   0   -1.40    1.00 
   1   7   0 1369.36   84.79 
  -1  -7   0 1257.67   83.09 
  -1   7   0 1264.17   83.89 
   1   7   0 1412.56   83.19 
   1  -7   0 1370.56   83.29 
   1  -7   0 1353.26   83.89 
   1  -7   0 1501.75   89.09 
   1  -7   0 1283.57   91.89 
  -1   7   0 1329.37   82.29 
  -1  -7   0 1516.65   90.79 
   1  -7   0 1424.16   82.09 
  -1  -7   0 1377.66   83.79 
  -1   7   0 1551.04   89.89 
  -1   7   0 1371.36   84.69 
   1   7   0 1322.87   85.29 
  -1  -7   0 1553.64   92.09 
   2  -7   0 1166.78   70.69 
  -2  -7   0 1311.27   79.69 
  -2  -7   0 1121.39   71.19 
  -2   7   0 1180.68   72.19 
   2   7   0 1120.39   72.29 
   2   7   0 1170.18   72.99 
  -2  -7   0 1169.98   77.89 
   2  -7   0 1201.78   71.59 
   2   7   0 1182.48   70.49 
   2  -7   0 1247.58   76.39 
   2  -7   0 1159.78   69.29 
  -2  -7   0 1193.38   71.19 
   2  -7   0 1042.50   76.99 
   2  -7   0 1090.79   80.59 
  -3   7   0 1709.93   99.09 
   3  -7   0 1649.13   97.49 
   3   7   0 1654.13   97.29 
   3  -7   0 1594.54  103.49 
  -3  -7   0 1632.94   97.89 
  -3  -7   0 1626.84   98.59 
   3   7   0 1582.14   99.89 
   3  -7   0 1449.85  103.69 
  -3  -7   0 1747.13  110.19 
   3  -7   0 1647.84   98.49 
  -4   7   0  715.13   44.40 
   4  -7   0  643.94   55.79 
   4  -7   0  672.03   41.60 
  -4  -7   0  651.83   54.29 
  -4  -7   0  733.13   45.20 
  -4  -7   0  682.83   43.30 
   4   7   0  703.63   46.00 
   4  -7   0  727.23   43.40 
   4  -7   0  628.64   49.40 
   4  -7   0  665.83   48.70 
   4   7   0  691.93   42.90 
  -5   7   0   21.40    3.60 
   5  -7   0   27.50    4.50 
   5  -7   0   16.00   10.10 
  -5  -7   0  -10.70  178.78 
   5   7   0   17.00    3.50 
  -5  -7   0   11.70    8.60 
   5   7   0   20.30    5.30 
   5  -7   0   22.10    3.10 
  -5  -7   0   17.70    3.40 
  -5  -7   0   32.80    5.90 
   5  -7   0   20.00    6.10 
   6  -7   0   58.49   16.70 
  -6  -7   0   71.09  222.68 
   6   7   0   99.29    8.50 
  -6  -7   0   61.59   24.60 
  -6  -7   0  100.19   10.70 
   6   7   0   83.59   10.40 
   6  -7   0   95.29    8.80 
   7  -7   0  240.38   22.90 
   7  -7   0  293.57   19.40 
   7   7   0  245.58   18.40 
   7  -7   0  271.47   17.60 
  -7  -7   0  264.87   20.80 
   7   7   0  263.77   21.00 
  -8  -7   0   71.29  204.38 
   0   8   0  167.48   14.00 
   0  -8   0  174.78   13.30 
   0   8   0  123.29   18.30 
   0  -8   0  160.48   17.20 
   0   8   0  170.18   14.00 
   0  -8   0  163.78   11.00 
   0  -8   0  157.98   12.40 
   0   8   0  168.08   11.90 
   0  -8   0  153.18   22.70 
   1   8   0  128.59    9.70 
   1   8   0   89.39   16.90 
   1  -8   0  115.29   10.50 
   1  -8   0  109.79   16.00 
  -1  -8   0  118.19   10.40 
   1  -8   0  119.69    8.80 
  -1   8   0  101.99   17.90 
  -1  -8   0  120.19   15.00 
   1   8   0  122.59   12.50 
  -1  -8   0  122.39   15.50 
  -1  -8   0  113.19    9.70 
  -1   8   0  123.39    8.70 
   1  -8   0  130.59   14.80 
   1   8   0  124.59   11.80 
  -1   8   0  119.49   11.10 
   1  -8   0  124.59   10.10 
   2  -8   0  228.38   14.90 
   2  -8   0  207.58   16.70 
   2  -8   0  206.48   20.80 
   2   8   0  230.58   15.90 
   2   8   0  226.98   18.40 
   2  -8   0  218.68   24.80 
  -2  -8   0  215.18   16.50 
  -2   8   0  215.38   17.30 
  -2  -8   0  221.58   16.40 
   3  -8   0  299.37   18.20 
  -3  -8   0  261.07   27.80 
   3  -8   0  306.37   25.90 
  -3  -8   0  273.87   20.20 
  -3  -8   0  266.67   19.80 
   3  -8   0  289.07   19.80 
   3  -8   0  225.68   28.40 
  -3   8   0  285.27   20.80 
   3   8   0  269.37   21.70 
   3  -8   0  226.48   24.60 
   3   8   0  284.67   19.30 
   3  -8   0  278.77   20.30 
   4  -8   0   42.60    5.70 
  -4  -8   0   37.30   11.10 
  -4  -8   0   41.00    6.30 
   4  -8   0   34.20    7.80 
   4   8   0   40.90    5.20 
   4  -8   0   20.20    9.70 
  -4  -8   0   -7.70  139.69 
   4  -8   0   32.80    4.10 
  -4  -8   0   30.60    4.80 
   4   8   0   35.30    7.00 
  -4   8   0   41.50    5.70 
  -5  -8   0    4.70    3.00 
  -5  -8   0    2.20    5.90 
   5   8   0    4.40    3.30 
   5  -8   0    6.60    2.60 
   5   8   0    4.60    2.00 
  -5  -8   0    1.00    1.90 
  -5   8   0    3.50    1.80 
  -5  -8   0  -38.90  226.68 
   5  -8   0    2.00    4.10 
   5  -8   0   -5.10    5.60 
   5  -8   0    3.80    1.80 
  -6  -8   0  177.38   15.40 
   6  -8   0  194.08   14.60 
   6  -8   0  179.98   12.80 
   6   8   0  176.88   13.70 
   6  -8   0  151.78   17.80 
   6   8   0  180.88   16.20 
  -6  -8   0   48.30  179.18 
   7  -8   0    1.20    1.40 
   7   8   0    0.40    2.50 
  -7  -8   0   -4.50  102.29 
   7   8   0    0.90    1.50 
  -7  -8   0    2.40    2.50 
   7  -8   0   -3.80    3.50 
   7  -8   0   -1.80    1.60 
   0  -9   0   -2.30    1.60 
   0   9   0    5.40    2.80 
   0   9   0    4.50    1.80 
   0   9   0   -1.10    1.20 
   0  -9   0    0.20    1.60 
   0  -9   0   -1.50    5.10 
   0  -9   0   -1.10    2.40 
   1  -9   0  146.89   12.60 
   1  -9   0  128.89   16.60 
   1  -9   0  121.19   18.30 
  -1  -9   0  134.49   17.10 
   1  -9   0  146.29   11.90 
  -1  -9   0  146.49   11.40 
   1   9   0  146.79   13.10 
   1   9   0  150.28   11.20 
   1   9   0  147.29   13.10 
  -1   9   0  145.39   13.00 
   1  -9   0  142.49   10.30 
  -1  -9   0  134.19   12.30 
   2  -9   0    2.30    1.40 
  -2  -9   0   -1.40    1.30 
   2  -9   0    0.50    3.40 
   2   9   0    1.50    1.70 
   2  -9   0    2.60    2.20 
   2   9   0    4.40    2.50 
   2   9   0    5.20    3.10 
   2  -9   0    1.20    2.20 
  -2  -9   0    2.80    1.90 
   2  -9   0   -3.10    5.30 
  -2   9   0    1.10    2.00 
  -3  -9   0   81.19    8.70 
   3  -9   0   93.69    9.00 
   3   9   0   86.29    8.80 
  -3  -9   0   90.49   11.10 
   3   9   0   84.19    9.20 
   3  -9   0   61.19   14.90 
   3   9   0   87.39   10.30 
  -3  -9   0   79.49   14.40 
   3  -9   0   90.19   13.00 
   3  -9   0   81.19    8.20 
   3  -9   0   87.59    9.10 
  -3   9   0   89.29    9.80 
   4  -9   0   33.60   11.30 
   4   9   0   57.39    8.30 
   4  -9   0   61.39    7.10 
   4  -9   0   53.19    5.40 
  -4  -9   0   56.19    7.20 
   4  -9   0   42.90    9.20 
  -4   9   0   56.49    6.80 
  -4  -9   0   20.80  194.68 
   4   9   0   53.79    6.20 
  -4  -9   0   46.50    6.10 
  -4  -9   0   31.80   11.20 
   5   9   0  250.37   20.50 
  -5  -9   0  235.38   18.80 
   5  -9   0  269.67   18.90 
  -5   9   0  230.78   17.60 
   5   9   0  239.38   17.50 
   5  -9   0  236.58   16.70 
   6  -9   0    6.10    4.70 
  -6  -9   0  -72.79   83.79 
   6  -9   0    3.10    1.90 
   6   9   0    4.60    3.00 
   6   9   0    3.40    2.00 
   0 -10   0    0.00    1.60 
   0  10   0   -0.80    1.90 
   0 -10   0    1.10    3.30 
   1 -10   0  164.08   23.70 
   1 -10   0  180.98   13.40 
   1 -10   0  222.78   16.10 
   1  10   0  231.38   17.60 
   1  10   0  209.18   16.70 
   1  10   0  192.28   14.20 
  -1 -10   0  185.68   21.50 
   1 -10   0  209.38   16.70 
  -1 -10   0  208.18   16.60 
   1 -10   0  179.58   20.90 
  -1  10   0  238.18   17.50 
   2 -10   0    2.00    1.50 
   2 -10   0    6.40    7.00 
  -2 -10   0    5.30  130.69 
   2 -10   0    2.30    3.80 
   2 -10   0    4.00    2.30 
   2  10   0    3.60    1.90 
  -2 -10   0    2.40    2.60 
  -2 -10   0    2.00    5.40 
  -2  10   0    5.30    2.80 
   2  10   0    2.60    2.60 
   2 -10   0    4.20    2.90 
  -2 -10   0    5.00    2.90 
   2  10   0    2.80    2.10 
   3 -10   0   47.40   10.00 
   3  10   0   75.39    9.10 
   3  10   0   53.59    8.00 
  -3 -10   0  -40.30  162.38 
   3 -10   0   76.79    8.00 
   3  10   0   68.19    6.80 
  -3  10   0   66.79    7.90 
  -3 -10   0   54.29   13.30 
   3 -10   0   61.99    6.10 
   3 -10   0   69.19    7.90 
  -3 -10   0   74.99    7.60 
  -3 -10   0   64.59    7.60 
   4 -10   0  104.79   15.00 
  -4 -10   0   87.29  258.17 
  -4 -10   0  111.49   10.30 
  -4  10   0  116.99   11.00 
   4  10   0  122.49   12.40 
   4 -10   0  130.99   11.30 
  -4 -10   0  132.09   11.10 
   4 -10   0  123.09    9.60 
   4  10   0  120.39   10.00 
   5 -10   0   19.00    3.70 
  -5 -10   0   26.00    4.80 
   5  10   0   33.50    6.10 
   5 -10   0   24.70    4.80 
  -5  10   0   23.20    3.60 
   5  10   0   24.60    4.80 
  -5 -10   0  -17.40   83.69 
   6 -10   0    5.00    1.80 
   6  10   0    3.00    2.60 
   6 -10   0    6.70    2.70 
  -6 -10   0  -50.69   44.20 
   6  10   0    5.50    1.90 
   0  11   0    0.30    1.80 
   0 -11   0    0.60    3.70 
   0 -11   0    0.20    1.70 
   1  11   0   36.60    3.90 
   1 -11   0   39.70    6.10 
  -1 -11   0   43.20    6.00 
   1 -11   0   49.10   14.00 
  -1  11   0   41.30    5.80 
   1  11   0   42.40    6.30 
   2 -11   0  121.39   11.30 
   2  11   0  111.19    8.70 
  -2 -11   0  125.09   11.10 
   2  11   0  115.09   11.40 
   2 -11   0  129.09   14.20 
   2  11   0  114.19   10.90 
   2 -11   0   97.59    8.20 
   2 -11   0   80.59   13.90 
  -2  11   0  128.99   11.30 
  -3  11   0    4.10    2.20 
   3 -11   0   -0.20    3.30 
   3 -11   0    3.00    2.00 
   3 -11   0    1.60    2.90 
   3  11   0    3.40    3.10 
  -3 -11   0    5.80    2.70 
   3  11   0    2.80    2.60 
   3  11   0    4.70    1.70 
  -3 -11   0    6.80    2.70 
   3 -11   0    4.80    2.90 
  -3 -11   0   92.49  279.07 
  -4 -11   0    1.70    1.50 
  -4  11   0   -0.70    1.10 
  -4 -11   0  -31.30  108.19 
   4  11   0   -1.20    2.50 
   4 -11   0    2.10    3.60 
   4  11   0    0.80    1.20 
  -4 -11   0   -0.20    1.80 
   4 -11   0   -0.50    1.10 
   0  12   0  127.99   11.40 
   0 -12   0  119.09   11.50 
   1 -12   0    0.50    1.70 
  -1 -12   0    1.40    1.90 
   1 -12   0   -1.40    3.50 
   1  12   0    1.70    1.90 
  -1  12   0    0.40    1.50 
  -1 -12   0   -5.30  152.98 
   2  12   0   -1.60    1.00 
  -2 -12   0  -40.40   86.59 
  -2 -12   0   -0.20    1.70 
  -2  12   0   -1.80    1.30 
   2 -12   0   -1.80    1.90 
   2 -12   0    3.40    4.80 
   2  12   0    2.80    2.10 
   3  12   0    7.50    4.30 
   3 -12   0    1.80    2.20 
  -3 -12   0    0.30    1.20 
   3  12   0    0.20    0.90 
  -3 -12   0  -16.90  104.79 
  -3  12   0    0.10    1.30 
   0   0   1    0.30    0.40 
  -1   0  -1  370.96   23.40 
  -1   0  -1  405.26   25.30 
   1   0   1  407.26   25.00 
   1   0  -1  352.76   22.80 
   1   0  -1  386.66   24.00 
   3   0   1  522.35   34.80 
  -3   0   1  472.15   32.20 
   4   0   1   47.70    7.70 
  -4   0   1   54.09    6.50 
   4   0  -1   46.50    7.70 
  -5   0   1  124.49   11.80 
  -5   0   1  110.79    9.40 
  -5   0  -1  133.59   11.30 
   5   0  -1  129.09   14.50 
  -5   0  -1  134.69   13.10 
   5   0   1  127.59   14.40 
   5   0  -1  145.59   15.40 
  -5   0   1  129.59   12.90 
   5   0  -1  132.59   12.70 
  -5   0  -1  111.19    9.40 
  -6   0   1  164.28   14.50 
  -6   0  -1  130.49   13.70 
  -6   0   1    6.70   95.69 
  -6   0  -1  145.19   15.30 
  -6   0  -1  127.69   10.90 
   6   0  -1  151.48   17.60 
  -6   0   1  147.49   14.90 
   6   0   1  150.58   17.70 
  -6   0   1  123.49   10.70 
   6   0   1  156.58   17.40 
   6   0  -1  140.09   16.30 
   6   0  -1  149.59   14.50 
  -7   0   1   29.90    7.70 
  -7   0   1   26.00    6.90 
  -7   0   1  -73.69   50.89 
   7   0   1   12.70    5.70 
  -7   0   1   22.20    3.90 
  -7   0  -1   -1.30  156.78 
  -8   0   1  190.98   19.50 
  -8   0   1  168.38   17.30 
  -8   0   1    4.10  148.79 
  -8   0  -1  185.78   13.90 
  -8   0   1  167.48   13.20 
  -8   0  -1  125.59  328.07 
  -8   0  -1  184.78   21.60 
  -8   0  -1  190.78   17.00 
  -9   0   1 -106.89   72.19 
  -9   0  -1  -11.20  116.19 
   0  -1   1   66.69    5.80 
   0   1  -1   75.69    5.80 
   0  -1  -1   70.19    6.00 
   0   1   1   77.39    6.20 
   0  -1  -1   73.19    6.40 
   1   1   1    4.00    2.30 
   1  -1  -1    6.30    0.90 
  -1   1  -1    4.40    1.20 
  -1  -1   1    6.40    1.50 
   1  -1  -1    4.40    1.80 
  -1  -1   1    7.10    1.40 
  -1   1  -1    4.40    1.60 
   1  -1  -1    4.30    0.90 
   2  -1   1 2944.01  160.48 
   2   1   1 2621.64  162.88 
   2  -1  -1 2506.85  158.78 
  -2   1  -1 2800.62  161.58 
  -3  -1  -1  835.82   56.79 
   3  -1   1  794.82   57.49 
   3  -1   1  879.21   56.99 
  -3   1  -1  979.30   56.89 
   3  -1  -1  984.70   55.89 
   3   1   1  952.50   60.99 
   3  -1  -1  969.70   56.19 
  -4  -1  -1  733.03   45.30 
  -4   1   1  701.43   43.20 
   4  -1   1  728.93   45.80 
   4   1  -1  643.34   48.10 
   4  -1   1  725.43   44.50 
  -4  -1   1  590.34   43.70 
  -4   1  -1  625.94   43.20 
   4  -1  -1  634.14   42.40 
   4   1   1  620.74   47.50 
   4  -1  -1  654.53   42.70 
  -5  -1  -1 1149.58   71.29 
   5  -1   1 1240.48   73.99 
  -5  -1  -1 1157.88   74.69 
  -5   1   1 1035.20   71.89 
  -5  -1  -1 1015.20   69.19 
  -5   1   1 1110.69   71.79 
   5   1  -1 1101.19   78.19 
   5   1  -1 1187.38   74.39 
   5  -1   1 1190.58   75.39 
  -5  -1   1 1227.48   74.39 
  -5  -1   1 1127.19   71.69 
   5  -1  -1 1284.47   79.79 
  -5  -1   1 1043.70   69.39 
   5  -1  -1 1223.68   72.09 
   5  -1  -1 1106.39   71.49 
   5   1   1 1145.09   86.89 
  -5   1  -1 1176.98   71.29 
  -6  -1  -1   28.40    5.50 
   6  -1   1   34.40    8.20 
  -6  -1  -1   33.70    4.70 
   6  -1   1   25.10    7.10 
  -6   1   1   24.10    3.50 
  -6  -1  -1   58.99  186.08 
  -6   1   1   28.30    5.70 
  -6   1   1   42.50  177.08 
   6   1  -1   28.50    6.60 
   6   1  -1   25.20    9.70 
  -6   1   1   33.30    6.20 
  -6  -1  -1   25.90    6.90 
  -6   1  -1  -13.90  123.29 
  -6  -1   1   34.60    6.80 
  -6   1  -1   39.90    6.90 
  -6   1  -1   30.60    3.90 
  -6   1  -1   33.30    6.40 
  -6  -1   1    7.10  100.39 
  -6  -1   1   33.40    5.90 
  -6  -1   1   33.00    4.50 
   6   1   1   32.50    9.80 
   6  -1  -1   26.40    5.20 
  -7   1   1  402.76   40.90 
  -7  -1  -1  466.55   31.80 
  -7  -1  -1  -11.90  215.78 
  -7  -1  -1  455.95   28.80 
  -7   1   1  476.75   33.10 
  -7   1   1  409.16   26.90 
  -7  -1  -1  457.55   37.20 
   7  -1   1  413.96   34.40 
   7   1   1  398.36   36.10 
  -7  -1   1  391.06   41.30 
  -7   1  -1  420.06   35.30 
   7  -1  -1  420.36   30.80 
  -7  -1   1  416.96   28.40 
   7  -1  -1  372.56   36.70 
  -7   1  -1  410.16   27.30 
  -7   1  -1  415.16   30.90 
  -7  -1   1  408.46   31.60 
  -8  -1  -1   46.70  228.78 
  -8  -1  -1   27.70   13.00 
  -8  -1  -1   39.00    5.40 
  -8   1   1   34.70    4.60 
  -8   1   1   14.00  139.09 
  -8  -1  -1   42.70    7.40 
  -8   1   1   37.20    7.20 
  -8  -1   1   80.49  279.07 
  -8   1  -1  -34.40  216.48 
  -8  -1   1   32.40    5.00 
  -8   1  -1   37.90    6.40 
  -8  -1   1   34.20    7.10 
  -8  -1   1   31.30   11.20 
  -8   1  -1   38.00    4.70 
  -9   1   1   19.70  152.08 
  -9  -1  -1   33.20  211.68 
  -9   1   1  106.69   14.80 
  -9  -1  -1  158.38   11.60 
  -9  -1   1  146.49   11.00 
  -9  -1   1   -2.50  153.58 
  -9  -1   1  130.09   13.90 
  -9   1  -1   22.40  198.58 
   0  -2  -1   32.80    4.60 
   0  -2   1   29.80    3.00 
   0  -2  -1   32.00    5.20 
   0   2   1   28.20    4.10 
   0  -2   1   31.20    3.90 
  -1  -2  -1 4179.18  233.98 
  -1   2   1 4284.47  232.28 
  -1  -2   1 4446.35  231.78 
   1   2   1 3529.05  235.88 
  -1  -2   1 3880.51  232.78 
  -1  -2   1 3957.50  234.68 
   1  -2  -1 3907.11  233.08 
  -1   2  -1 3751.52  233.38 
  -2  -2  -1 3810.42  222.28 
   2  -2   1 3981.00  220.88 
  -2   2  -1 3797.82  222.18 
   2   2   1 3433.96  225.58 
  -2  -2   1 3880.31  222.48 
   2  -2  -1 3758.12  221.08 
   3   2  -1  636.34   43.60 
  -3   2   1  706.63   45.30 
   3  -2   1  717.63   44.80 
   3  -2   1  714.03   46.90 
  -3  -2  -1  731.43   47.20 
  -3   2  -1  791.32   46.00 
   3   2   1  714.03   51.39 
  -3  -2   1  756.12   47.00 
  -3   2  -1  673.83   46.70 
   3  -2  -1  830.32   50.99 
   4   2  -1    8.80    4.60 
   4  -2   1    6.50    2.70 
  -4  -2  -1    9.80    2.80 
  -4   2   1   12.40    3.10 
  -4  -2  -1   10.80    3.50 
   4  -2   1    8.30    2.50 
  -4  -2  -1   21.60   91.49 
  -4  -2  -1    6.20    2.00 
  -4   2   1  -15.60   34.90 
   4  -2   1   11.60    1.30 
  -4  -2   1  -42.10   60.59 
  -4   2  -1   18.10   83.69 
  -5  -2  -1  902.11   53.89 
  -5   2   1  875.11   54.99 
   5   2  -1  862.31   53.39 
   5  -2   1  873.61   56.99 
  -5  -2  -1  833.42   52.29 
   5  -2   1  778.02   49.70 
  -5   2   1  805.82   54.19 
  -5  -2  -1  866.41   61.39 
   5   2  -1  807.32   63.59 
  -5   2  -1  715.83   50.29 
   5  -2  -1  995.10   63.99 
  -5   2  -1  801.62   53.19 
  -5  -2   1  886.21   57.99 
  -5  -2   1  858.51   54.09 
  -5   2  -1  842.92   57.49 
   5   2   1  818.32   63.09 
  -5  -2   1  842.02   52.59 
   5  -2  -1  835.42   53.29 
  -6  -2  -1   -9.10   82.29 
   6  -2   1    5.30    1.50 
   6   2  -1    9.50   10.50 
  -6   2   1    8.60    4.10 
  -6  -2  -1    8.20    3.50 
  -6  -2  -1    5.60    3.90 
  -6   2   1    6.90  146.89 
  -6  -2  -1    7.00    3.00 
   6  -2   1    4.00    3.10 
  -6  -2   1    7.30    4.30 
   6  -2  -1    9.10    1.80 
  -6   2  -1   11.40    2.30 
   6   2   1   11.70    2.70 
   6  -2  -1    5.50    6.00 
  -6   2  -1  -64.89  183.38 
  -6  -2   1    9.00    3.20 
  -6   2  -1   10.80    3.70 
   6  -2  -1    8.30    3.60 
  -6  -2   1   -0.90   95.49 
   6   2   1   13.50    9.20 
  -6  -2   1    4.90    3.10 
   7  -2   1   94.09   26.60 
  -7  -2  -1  136.59   13.40 
  -7   2   1   54.49  264.67 
   7  -2   1  121.99    8.80 
  -7   2   1  129.69   13.70 
  -7  -2  -1  142.19   17.10 
  -7  -2  -1  126.99   11.50 
  -7  -2   1  139.39   17.00 
   7  -2  -1  110.59   18.00 
  -7  -2   1  136.79   13.90 
   7   2   1  108.89   16.40 
   7  -2  -1  117.09   13.10 
  -7   2  -1  126.99   12.80 
  -7  -2   1  139.19   12.00 
  -7   2  -1  118.69    9.60 
  -8  -2  -1    8.60  176.38 
  -8  -2  -1  146.79   14.20 
  -8  -2  -1  150.78   12.30 
  -8   2   1  -45.90  140.19 
  -8  -2  -1  139.29   17.90 
  -8   2   1  123.89   13.70 
   8  -2   1  110.99   13.90 
  -8  -2   1    8.40  266.97 
  -8  -2   1  112.19   16.10 
  -8  -2   1  144.29   14.50 
  -8  -2   1  136.19   11.80 
  -8   2  -1  -30.20  233.68 
  -8   2  -1  115.89   12.50 
  -9  -2  -1    8.60    3.20 
  -9   2   1    5.20    3.10 
  -9  -2  -1    8.30  178.58 
  -9  -2   1    2.40    3.40 
  -9  -2   1    6.00    2.60 
   0  -3  -1   31.00    4.10 
   0  -3   1   28.20    3.40 
   0  -3  -1   32.80    5.30 
   0   3   1   22.30    4.20 
  -1  -3  -1 2057.29  114.59 
   1  -3   1 2032.30  113.39 
   1  -3   1 1907.21  114.19 
  -1   3   1 1784.92  112.99 
  -1  -3  -1 2158.68  116.69 
   1  -3  -1 1948.51  113.49 
   1  -3  -1 1910.21  113.89 
  -1  -3   1 1734.93  112.89 
  -1  -3   1 1855.31  113.19 
  -1   3  -1 1678.83  113.29 
   2  -3   1 5788.72  316.27 
   2  -3   1 4747.92  312.27 
   2   3  -1 5142.49  313.17 
   2  -3  -1 5848.61  315.07 
   2   3   1 4843.92  320.37 
   2  -3  -1 6052.69  321.77 
  -2   3  -1 5455.15  315.27 
   2   3   1 5203.98  313.47 
  -3  -3  -1   65.89    8.10 
   3   3  -1   60.79    4.60 
   3  -3   1   62.09    7.20 
   3  -3   1   54.99    4.20 
   3   3   1   45.80    9.50 
   3  -3  -1   47.10    4.20 
   3  -3  -1   56.99    9.20 
   3  -3  -1   50.19    5.70 
   3  -3  -1   52.09    6.10 
  -3  -3   1   64.29    7.90 
  -3   3  -1   53.09    6.20 
   4   3  -1  868.91   55.09 
   4  -3   1  812.22   54.79 
  -4  -3  -1 1030.00   58.09 
  -4  -3  -1 1043.90   63.59 
   4  -3   1  923.01   60.09 
  -4  -3  -1  917.41   57.09 
   4  -3  -1  983.70   58.89 
   4  -3  -1  802.32   54.69 
   4   3   1  909.71   68.29 
   4  -3  -1 1024.30   66.59 
   4  -3  -1  945.11   57.79 
  -4  -3   1  840.52   64.69 
  -4  -3   1  920.31   57.29 
   4   3   1  903.41   55.89 
  -4  -3   1 1046.80   63.39 
   5   3  -1   43.70    4.40 
   5   3  -1   37.90   12.50 
  -5  -3  -1   42.10    6.10 
  -5  -3  -1   -0.50  136.79 
  -5   3   1  -53.29   58.99 
  -5   3   1   42.00    6.10 
   5  -3   1   47.70    7.40 
   5  -3   1   40.70    3.90 
  -5  -3  -1   41.40    5.50 
  -5  -3  -1   48.10    8.90 
  -5  -3   1   13.90  124.99 
  -5   3  -1   55.09    6.30 
   5   3   1   66.19   14.40 
  -5   3  -1   18.10  114.79 
   5   3   1   63.19    8.30 
  -6  -3  -1  540.85   40.80 
  -6  -3  -1  532.75   33.80 
  -6   3   1  454.45   34.90 
   6  -3   1  512.45   37.40 
  -6  -3  -1  555.44   35.30 
   6  -3   1  472.95   30.20 
   6   3  -1  521.45   31.20 
  -6  -3  -1   63.29  246.18 
  -6   3  -1  484.05   37.70 
   6  -3  -1  444.06   34.80 
   6   3   1  493.25   32.00 
  -6  -3   1  494.95   34.90 
   6  -3  -1  491.25   44.30 
  -6  -3   1  474.85   33.60 
  -6   3  -1   40.90  244.88 
  -6  -3   1  528.95   40.50 
   6  -3  -1  444.96   30.10 
   7  -3   1   92.59    7.80 
   7  -3   1   79.09   18.00 
  -7  -3  -1  121.99   12.30 
   7   3  -1  109.59    9.50 
  -7  -3  -1  114.79   10.90 
  -7   3   1   93.09   11.50 
  -7  -3  -1  115.39   16.00 
  -7  -3  -1   52.99  191.18 
   7  -3   1   95.99   12.90 
   7  -3  -1  108.79    8.10 
  -7  -3   1  107.59   10.80 
  -7  -3   1   20.40  177.28 
  -7   3  -1  -11.30   92.19 
  -7  -3   1  106.79   12.00 
  -7   3  -1   94.19   10.30 
   7  -3  -1  105.19   12.50 
   7  -3  -1  103.29   16.70 
   7   3   1  118.89    9.90 
  -7  -3   1  111.79   15.40 
  -8  -3  -1  113.59   10.80 
  -8  -3  -1  104.19   19.40 
   8  -3   1   98.49   12.60 
  -8  -3  -1    7.00  108.19 
  -8   3   1   87.19   11.10 
   8  -3   1  113.79    8.50 
   8   3   1  102.29    9.40 
  -8  -3   1  110.29   10.80 
  -8  -3   1  110.59   12.40 
  -8   3  -1   87.69   10.20 
  -8  -3   1  -10.20  143.69 
   8  -3  -1  109.19    8.30 
  -8  -3   1  101.39   20.10 
  -9  -3  -1  -45.00  110.89 
  -9  -3   1   -4.30  135.89 
   0  -4   1    5.10    2.20 
   0   4   1    2.60    1.70 
   0  -4   1    5.10    1.20 
   0  -4  -1    8.70    3.90 
   0  -4  -1    3.10    1.30 
   0  -4   1    6.10    2.60 
   0  -4   1    4.50    2.10 
   0  -4  -1    7.80    3.00 
   0   4  -1    6.40    2.10 
   0   4   1   12.90    3.90 
   1  -4   1 2395.86  147.29 
  -1  -4  -1 2412.96  150.78 
   1   4  -1 2081.79  145.89 
   1  -4  -1 2198.28  144.99 
  -1  -4   1 2700.43  147.99 
  -1  -4   1 2671.23  151.38 
   1  -4  -1 2698.03  152.48 
  -1   4  -1 2525.05  148.39 
   1  -4  -1 2638.04  149.19 
  -1  -4   1 2619.94  147.99 
   1   4   1 2385.96  146.59 
   2   4  -1  361.96   23.30 
  -2  -4  -1  404.06   28.50 
   2  -4   1  379.16   25.30 
   2  -4   1  370.46   26.10 
   2  -4   1  303.27   22.00 
   2  -4  -1  384.86   25.60 
  -2  -4   1  378.46   25.60 
   2   4   1  359.06   23.70 
  -2   4  -1  342.97   24.80 
   2  -4  -1  362.06   25.00 
   2  -4  -1  405.26   30.20 
   2   4   1  324.07   30.10 
   2  -4  -1  319.77   22.20 
  -3  -4  -1  752.32   45.80 
   3   4  -1  771.02   45.40 
   3  -4   1  728.03   44.20 
  -3  -4  -1  875.41   51.79 
  -3  -4   1  705.23   45.90 
   3  -4  -1  765.32   47.80 
   3  -4  -1  752.02   54.09 
   3   4   1  655.13   55.39 
   3   4   1  713.73   45.70 
  -3   4  -1  787.72   45.60 
  -3   4  -1  638.24   45.90 
  -4   4   1  129.39   12.80 
  -4  -4  -1  142.69   12.60 
   4  -4   1  154.88   15.00 
  -4  -4  -1  152.68   11.20 
  -4  -4  -1  172.28   13.30 
  -4  -4  -1  159.28   17.20 
  -4   4   1  145.99   11.70 
   4   4   1  174.48   13.60 
   4  -4  -1  186.28   15.00 
   4  -4  -1  171.88   14.10 
  -4  -4   1  176.38   17.60 
  -4  -4   1  170.38   13.40 
   4  -4  -1  161.38   19.60 
  -4  -4   1  182.58   11.20 
   4   4   1  172.68   22.70 
  -4   4  -1  181.28   12.20 
   5  -4   1 1019.70   67.89 
  -5  -4  -1 1064.09   64.89 
  -5   4   1  938.81   65.19 
   5  -4   1  936.01   61.59 
   5   4  -1 1000.60   62.99 
   5  -4   1  981.50   60.89 
  -5  -4  -1 1122.59   65.59 
  -5  -4  -1 1107.79   72.39 
   5  -4  -1 1057.99   60.99 
   5  -4  -1 1089.29   67.09 
   5   4   1  937.61   79.79 
   5  -4  -1 1009.20   65.19 
   5   4   1 1067.99   63.89 
  -5   4  -1 1040.40   61.69 
  -5  -4   1 1114.09   72.49 
  -5  -4   1  933.31   69.79 
   5  -4  -1 1090.09   77.29 
  -5  -4   1 1108.99   65.29 
   6  -4   1    3.90    4.20 
  -6   4   1    6.70    3.50 
  -6  -4  -1    7.70    3.60 
  -6  -4  -1    7.60    3.40 
   6  -4   1    5.10    1.80 
  -6  -4  -1   18.60  153.28 
   6  -4   1    7.50    1.50 
   6  -4   1    4.20    5.50 
   6   4  -1    1.60    2.40 
  -6  -4  -1   10.40    5.80 
   6  -4   1    3.50    3.00 
  -6  -4   1    3.30    2.80 
   6  -4  -1    3.20    1.60 
  -6  -4   1    5.60    4.80 
  -6   4  -1   12.30    4.50 
  -6  -4   1    5.30    3.10 
   6  -4  -1    3.50    5.20 
   7   4  -1   33.90    6.20 
   7  -4   1   38.80    4.50 
  -7   4   1   26.40    9.60 
  -7  -4  -1   33.70    6.50 
   7  -4   1   36.70    8.80 
  -7  -4  -1   39.30    9.00 
   7  -4   1   33.40    3.50 
   7  -4   1   23.30   10.70 
   7  -4  -1   37.50   11.70 
  -7  -4   1   41.20    6.90 
  -7  -4   1   38.90    9.90 
   7  -4  -1   44.40    8.00 
  -7   4  -1   38.60    6.00 
   7  -4  -1   42.10    4.80 
  -7  -4   1  -20.30   69.19 
  -7  -4   1   43.50    6.90 
   7   4   1   53.59    7.00 
   7  -4  -1   37.70    3.70 
  -8   4   1   32.20    5.90 
   8  -4   1   49.40    5.10 
  -8  -4  -1  -29.90  115.99 
  -8  -4  -1   43.10    6.80 
   8   4  -1   49.90    7.10 
   8  -4   1   41.50    4.20 
   8  -4   1   35.40    8.00 
   8  -4  -1   50.29    4.30 
  -8  -4   1  -16.60  164.58 
   8   4   1   49.50    6.70 
  -8  -4   1   47.20    7.50 
  -8  -4   1   43.10    6.80 
   8  -4  -1   46.00    5.20 
  -9  -4  -1   20.40  211.88 
  -9  -4   1  -88.89   89.49 
   0  -5   1  373.66   25.90 
   0   5   1  357.66   24.60 
   0  -5  -1  413.56   30.20 
   0  -5   1  383.56   27.70 
   0  -5   1  328.97   22.90 
   0  -5  -1  393.06   27.20 
   0  -5  -1  337.37   23.20 
   0   5  -1  343.17   24.60 
   0  -5   1  397.86   29.00 
  -1  -5  -1 3120.69  195.48 
   1  -5   1 2903.31  190.38 
   1   5  -1 3084.29  192.18 
  -1  -5  -1 2976.80  198.58 
   1  -5   1 3258.57  193.68 
   1  -5  -1 3574.44  194.88 
   1  -5  -1 3037.60  190.68 
   1  -5  -1 3495.15  199.08 
  -1  -5   1 3516.65  194.68 
  -1   5  -1 3017.50  191.88 
  -1  -5   1 3591.04  194.98 
  -1   5  -1 3559.84  195.58 
   1  -5  -1 3403.66  196.08 
   1   5   1 3159.48  192.38 
   2  -5   1  728.63   49.30 
   2  -5   1  638.04   45.00 
  -2  -5  -1  689.03   41.10 
   2  -5   1  639.74   39.50 
  -2   5   1  673.53   41.60 
   2  -5   1  693.13   44.10 
  -2  -5  -1  726.53   48.00 
   2   5  -1  662.43   40.40 
  -2  -5  -1  660.03   46.00 
   2  -5   1  601.04   40.30 
   2   5  -1  644.14   41.90 
  -2   5  -1  640.04   43.60 
   2  -5  -1  698.33   44.10 
   2   5   1  690.13   40.60 
   2  -5  -1  705.63   45.00 
  -2  -5   1  667.03   44.80 
  -2   5  -1  669.63   41.70 
  -2  -5   1  616.24   41.30 
   2  -5  -1  605.44   40.40 
   2  -5  -1  645.74   39.60 
  -2  -5   1  677.33   40.80 
   2   5   1  638.14   42.20 
   2  -5  -1  725.03   50.09 
  -3  -5  -1   35.00    4.40 
   3   5  -1   33.70    3.50 
   3  -5   1   29.20    3.40 
  -3   5   1   31.70    3.90 
  -3  -5  -1   34.60    6.80 
   3  -5   1   26.70    5.60 
  -3  -5  -1   26.10   55.29 
   3   5  -1   33.30    4.60 
   3  -5   1   32.20    5.70 
  -3  -5  -1   34.90    3.80 
   3  -5   1   33.00    2.90 
  -3  -5   1   -5.20   47.40 
   3   5   1   54.49   12.20 
  -4  -5  -1  223.58   16.00 
   4  -5   1  210.48   15.70 
  -4   5   1  196.28   17.50 
  -4  -5  -1  243.98   24.00 
   4   5  -1  211.38   15.50 
   4   5  -1  215.38   17.20 
   4  -5   1  244.48   26.70 
  -4   5   1  205.78   16.20 
  -4  -5  -1   94.69  214.08 
   4  -5   1  218.78   19.80 
  -4  -5  -1  219.28   17.60 
   4  -5   1  208.88   14.80 
   4  -5   1  211.58   20.10 
   4  -5  -1  266.87   20.30 
   4  -5  -1  255.87   15.10 
  -4  -5   1  270.97   18.50 
   4   5   1  264.67   18.20 
   4   5   1  267.37   16.10 
  -4  -5   1  250.47   15.90 
   4  -5  -1  244.28   16.10 
  -4  -5   1  259.17   24.10 
   4  -5  -1  281.77   27.40 
  -4   5  -1  269.57   17.30 
   4  -5  -1  237.58   19.40 
   4   5   1  225.18   29.40 
  -5  -5  -1  300.17   28.30 
   5  -5   1  307.87   24.70 
   5   5  -1  296.37   20.70 
  -5  -5  -1  301.47   21.50 
   5  -5   1  293.27   18.70 
  -5  -5  -1  292.47   17.80 
   5   5  -1  273.97   18.40 
   5  -5   1  287.87   17.80 
  -5   5   1  279.47   18.20 
   5  -5   1  254.67   23.50 
   5  -5   1  261.87   30.80 
  -5   5   1  253.07   20.90 
   5   5   1  263.97   20.50 
   5  -5  -1  279.97   23.10 
  -5  -5   1  294.87   28.00 
  -5   5  -1  240.78   18.30 
   5  -5  -1  267.27   18.60 
   5  -5  -1  250.67   21.70 
  -5  -5   1  283.17   21.00 
   5  -5  -1  269.87   29.90 
  -5  -5   1  271.77   21.20 
   5   5   1  275.07   18.60 
  -5  -5   1    8.40  146.89 
   6  -5   1   22.80    9.20 
   6  -5   1   24.90    3.80 
   6   5  -1   23.80    5.20 
  -6  -5  -1   32.50    6.10 
  -6   5   1   28.80    6.40 
   6  -5   1   25.00    9.30 
  -6  -5  -1   28.00    9.20 
   6   5  -1   26.20    3.90 
   6  -5   1   25.60    3.00 
   6   5   1   32.80    5.80 
  -6  -5   1   28.00    6.20 
   6  -5  -1   18.20    6.70 
   6  -5  -1   31.60    4.30 
   6  -5  -1   15.60    9.00 
  -6  -5   1  -17.30  161.48 
  -6  -5   1   40.30   11.10 
   6  -5  -1   30.90    3.20 
  -6  -5   1   33.50    6.30 
   6   5   1   33.30    4.20 
   7  -5   1    4.00    3.80 
   7  -5   1    6.40    1.80 
  -7  -5  -1    5.30    6.40 
   7   5  -1    4.30    2.20 
  -7  -5  -1   10.10    4.10 
  -7   5   1    8.90    3.40 
   7   5  -1    9.70    3.70 
   7  -5   1    1.10    7.80 
  -7  -5  -1   41.70  235.08 
   7   5   1    2.30    1.80 
  -7  -5   1    6.90    6.60 
  -7  -5   1    3.50    3.20 
   7  -5  -1    2.40    3.70 
   7   5   1    5.20    3.20 
   7  -5  -1    9.50    9.20 
  -7  -5   1    5.70    3.40 
  -7  -5   1  -44.50  142.59 
   7  -5  -1    3.70    2.00 
   8   5  -1   50.59    7.60 
  -8  -5  -1   69.89    8.50 
   8  -5   1   71.09    6.50 
   8  -5   1   70.29    5.60 
  -8  -5  -1 -107.19  200.88 
   8   5  -1   55.79    6.70 
   8   5   1   57.59    6.00 
   8  -5  -1   65.49    5.60 
  -8  -5   1   59.89    8.10 
  -8  -5   1  -70.29  123.89 
   8   5   1   59.79    7.30 
   8  -5  -1   67.39    6.60 
   9  -5   1   17.30    2.40 
  -9  -5  -1   17.30    3.70 
  -9  -5  -1  -28.90  149.99 
  -9  -5   1   20.60    4.20 
   9  -5  -1   20.40    3.70 
   9  -5  -1   15.20    2.40 
   0   6   1  331.97   26.40 
   0   6  -1  392.16   26.60 
   0   6   1  376.06   27.00 
   0  -6   1  435.76   31.30 
   0  -6  -1  460.65   33.90 
   0  -6  -1  406.16   27.80 
   0   6  -1  405.56   26.50 
   0  -6   1  422.66   32.70 
   0  -6   1  423.56   29.30 
   0  -6   1  403.86   24.50 
   0   6   1  398.96   26.70 
   0  -6   1  374.36   25.30 
   0  -6  -1  385.06   25.60 
   0  -6  -1  396.46   24.70 
   0  -6  -1  425.86   30.50 
   0   6  -1  394.86   27.30 
  -1  -6  -1  298.47   23.70 
   1  -6   1  280.07   23.90 
   1   6  -1  277.27   20.00 
   1   6  -1  264.67   19.50 
   1   6  -1  298.77   18.30 
  -1   6   1  242.48   22.20 
  -1  -6  -1  279.97   18.70 
   1  -6   1  312.47   22.10 
   1  -6   1  295.87   24.70 
   1  -6   1  285.97   17.10 
   1  -6   1  264.07   18.00 
  -1  -6  -1  312.87   25.90 
   1  -6   1  275.97   18.60 
  -1   6   1  287.37   19.50 
   1   6   1  249.88   19.10 
   1  -6  -1  284.47   22.30 
  -1  -6   1  250.57   18.20 
   1  -6  -1  251.97   18.20 
  -1   6  -1  256.97   19.10 
  -1   6  -1  291.47   22.90 
  -1  -6   1  263.77   18.30 
  -1  -6   1  279.97   22.40 
   1   6   1  274.97   18.10 
  -1  -6   1  269.27   22.00 
   1   6   1  257.17   19.90 
   1  -6  -1  268.07   25.40 
   1  -6  -1  276.47   18.70 
  -1   6  -1  244.68   19.10 
   1  -6  -1  264.47   17.30 
  -2   6   1 1384.76   84.19 
   2  -6   1 1365.26   81.69 
  -2  -6  -1 1234.18   88.99 
   2   6  -1 1328.47   84.69 
   2  -6   1 1354.86   83.49 
   2   6  -1 1385.56   82.79 
  -2  -6  -1 1378.06   83.49 
   2  -6   1 1419.16   92.79 
   2  -6   1 1338.37   89.09 
   2  -6   1 1313.57   82.69 
  -2  -6  -1 1440.56   91.59 
   2  -6  -1 1414.36   82.99 
  -2   6  -1 1502.75   87.69 
   2  -6  -1 1498.15   83.99 
   2  -6  -1 1197.18   92.29 
   2  -6  -1 1451.45   81.89 
   2   6   1 1144.69   93.79 
  -2  -6   1 1509.25   89.09 
  -2  -6   1 1445.16   83.29 
   2  -6  -1 1480.55   93.89 
   2   6   1 1404.16   85.09 
   2  -6  -1 1450.15   88.89 
   2   6   1 1501.25   82.99 
  -2  -6   1 1360.76   83.69 
   3   6  -1   69.29    6.10 
  -3  -6  -1   61.59    6.70 
  -3   6   1   61.59    6.80 
  -3  -6  -1   67.49   11.10 
   3  -6   1   74.89    9.30 
   3  -6   1   66.89   12.10 
   3   6  -1   70.59    7.80 
  -3  -6  -1   66.09    6.50 
   3  -6   1   60.89    9.30 
   3  -6   1   69.99    5.20 
   3  -6   1   69.49    7.70 
  -3  -6  -1    4.70  127.29 
   3  -6  -1   65.99   12.20 
  -3  -6   1   56.39    6.90 
   3   6   1   61.19    5.90 
   3  -6  -1   57.79    6.00 
  -3  -6   1   62.79    6.10 
  -3  -6   1   62.39   10.70 
   3   6   1   54.29   12.70 
   3  -6  -1   66.99    8.90 
  -3  -6   1  -65.99  116.19 
   3  -6  -1   58.69    8.90 
   3   6   1   60.29    7.50 
  -3   6  -1   64.09    6.80 
  -4   6   1  482.25   32.80 
   4  -6   1  482.25   37.80 
   4   6  -1  485.45   34.00 
   4  -6   1  480.05   37.10 
  -4  -6  -1  521.25   34.00 
   4  -6   1  509.45   30.80 
  -4  -6  -1  498.75   41.90 
  -4  -6  -1  473.55   35.60 
   4   6  -1  431.46   32.70 
   4  -6   1  464.55   43.70 
   4  -6  -1  517.65   32.20 
   4   6   1  510.35   34.40 
   4  -6  -1  523.55   30.80 
   4  -6  -1  472.35   36.60 
  -4  -6   1  517.85   42.00 
  -4  -6   1  507.75   33.10 
   4  -6  -1  566.54   47.10 
  -4   6  -1  541.15   33.40 
   4  -6  -1  522.95   37.00 
  -4  -6   1  533.45   34.40 
   5   6  -1  224.68   17.90 
  -5  -6  -1  227.48   17.90 
   5   6  -1  207.98   15.30 
   5  -6   1  214.38   20.80 
   5  -6   1  218.48   14.30 
   5  -6   1  212.38   20.60 
  -5  -6  -1  200.58   24.00 
  -5   6   1  203.68   15.20 
  -5  -6  -1  214.88   14.70 
   5  -6   1  200.18   27.30 
   5  -6  -1  196.38   25.90 
  -5  -6   1  201.38   24.20 
   5  -6  -1  227.48   15.80 
   5   6   1  218.38   15.50 
  -5  -6   1  210.58   14.30 
   5   6   1  229.08   18.10 
   5  -6  -1  223.18   14.30 
  -5   6  -1  207.68   15.60 
  -5  -6   1  232.38   18.30 
   5  -6  -1  199.08   19.60 
  -5  -6   1   46.20  211.08 
   6  -6   1  110.29   13.70 
   6   6  -1  117.19   11.70 
   6  -6   1   99.29    9.50 
  -6  -6  -1  119.99   17.90 
   6  -6   1  108.89   19.30 
   6   6  -1  115.49    9.40 
   6  -6   1  122.99    9.70 
  -6  -6  -1  -22.80  169.38 
  -6  -6  -1  111.19   11.60 
   6  -6  -1   92.89   18.90 
   6  -6  -1   86.59   12.40 
   6   6   1   84.89    9.20 
  -6  -6   1   91.89   16.80 
  -6  -6   1   26.70  113.69 
  -6  -6   1  106.69   11.70 
   6  -6  -1  103.29    9.40 
   6   6   1  112.19   11.70 
   7   6  -1   88.49   10.50 
   7  -6   1   90.49    8.50 
   7  -6   1   80.69   11.30 
   7   6  -1   89.19    8.20 
   7  -6   1   87.69    7.20 
  -7  -6  -1   94.99   10.80 
  -7  -6  -1  -27.30  176.48 
   7   6   1  102.79   10.80 
   7  -6  -1  108.89    9.00 
   7   6   1   89.29    8.40 
   7  -6  -1  101.29    7.70 
   7  -6  -1   84.69   13.30 
  -7  -6   1   98.29  297.97 
  -7  -6   1  102.59   11.00 
  -8  -6  -1  -88.49   99.49 
   8  -6   1   92.09    7.80 
   8   6  -1   78.49   11.40 
  -8  -6  -1   88.39    9.40 
   8   6  -1   64.79    6.90 
   8   6   1   76.49    7.00 
   8  -6  -1   86.49    6.70 
  -8  -6   1   93.39    9.80 
   8  -6  -1   81.09    8.90 
  -8  -6   1   17.60  106.39 
   0  -7  -1  921.91   60.49 
   0   7   1  734.93   62.29 
   0  -7   1  933.61   54.79 
   0  -7   1  811.42   53.79 
   0   7  -1  885.71   55.59 
   0  -7   1  938.51   59.39 
   0   7   1  934.31   55.79 
   0   7  -1  919.01   53.89 
   0   7  -1  885.51   55.99 
   0  -7  -1  910.01   54.89 
   0  -7   1  883.91   52.69 
   0  -7   1  817.52   62.09 
   0   7   1  927.71   53.79 
   0   7   1  843.82   55.59 
   0  -7  -1  864.81   54.29 
   0  -7   1  924.91   61.49 
   0  -7  -1  877.21   52.89 
   0  -7  -1  921.61   64.19 
   1   7  -1 1435.76   81.09 
   1  -7   1 1422.46   86.39 
   1  -7   1 1434.46   81.89 
  -1  -7  -1 1508.95   91.89 
  -1   7   1 1357.86   82.59 
  -1   7   1 1160.28   86.39 
  -1  -7  -1 1219.88   80.69 
  -1   7   1 1535.25   82.59 
  -1  -7  -1 1381.76   88.59 
   1  -7   1 1391.76   79.79 
   1   7  -1 1345.37   82.69 
   1  -7   1 1349.96   80.99 
  -1   7   1 1220.28   81.49 
   1  -7   1 1222.58   88.69 
   1   7  -1 1372.56   83.49 
  -1   7  -1 1244.48   81.99 
   1   7   1 1325.57   83.19 
  -1  -7   1 1485.15   87.79 
   1   7   1 1392.26   80.99 
  -1  -7   1 1262.77   81.19 
   1  -7  -1 1357.56   91.79 
   1  -7  -1 1337.37   81.89 
  -1  -7   1 1389.26   81.69 
  -1  -7   1 1434.56   87.29 
  -1   7  -1 1291.27   82.29 
   1  -7  -1 1365.26   79.99 
   1   7   1 1340.87   82.69 
  -1   7  -1 1335.87   80.29 
   1  -7  -1 1300.37   81.19 
  -2  -7  -1  161.18   18.00 
   2  -7   1  139.89   17.80 
   2   7  -1  141.59   13.00 
  -2  -7  -1  159.88   12.60 
   2  -7   1  140.89   11.10 
   2  -7   1  171.38   15.70 
   2   7  -1  138.99   12.00 
  -2   7   1  141.89   14.00 
   2   7  -1  135.59   11.80 
  -2  -7  -1  139.99   11.40 
   2  -7   1  131.49   16.20 
   2  -7   1  155.78   11.80 
   2   7   1  129.99   12.70 
  -2   7  -1  137.39   14.60 
  -2  -7   1  151.88   15.90 
  -2  -7   1  139.09   11.70 
   2  -7  -1  140.39   18.70 
   2  -7  -1  138.39   11.30 
   2   7   1  143.59   13.10 
  -2  -7   1  149.79   12.00 
   2   7   1  141.89   12.30 
   2  -7  -1  140.89   15.10 
   2  -7  -1  136.29   11.70 
   2  -7  -1  132.29   10.90 
  -3  -7  -1   63.09   11.40 
  -3  -7  -1   68.39    8.30 
  -3  -7  -1   67.69    7.40 
   3  -7   1   60.49   12.40 
  -3  -7  -1  -60.49  175.08 
   3   7  -1   71.09    6.90 
   3  -7   1   79.99   11.00 
  -3   7   1   71.59    7.90 
   3  -7   1   67.99    5.90 
   3  -7   1   70.69    7.50 
   3  -7   1   67.89    7.00 
   3  -7   1   64.09   10.70 
   3   7  -1   68.09    8.70 
  -3  -7   1   -5.80  159.58 
   3  -7  -1   80.69    7.50 
   3  -7  -1   73.69   13.40 
  -3  -7   1   86.39    8.50 
   3  -7  -1   73.49    6.10 
   3  -7  -1   72.19   10.30 
   3  -7  -1   82.99    7.90 
   3   7   1   79.69    9.20 
   3   7   1   82.29    7.20 
  -3  -7   1   80.39   12.80 
  -3   7  -1   78.69    8.30 
  -3  -7   1   80.69    7.40 
   4  -7   1    4.40    3.10 
  -4  -7  -1    7.90    2.60 
   4  -7   1    3.90    4.60 
   4  -7   1    6.00    4.70 
   4  -7   1    6.30    2.60 
  -4  -7  -1   10.40    6.30 
  -4   7   1    6.80    2.60 
  -4  -7  -1  -30.90  159.98 
   4  -7   1    8.90    2.20 
  -4  -7  -1   11.20    4.00 
   4   7  -1   11.10    3.00 
   4   7  -1    5.90    3.30 
  -4  -7   1   57.69  188.78 
  -4   7  -1   14.50    4.00 
   4   7   1    9.20    3.70 
   4  -7  -1    1.20    5.10 
   4  -7  -1   10.40    2.90 
  -4  -7   1   12.90    3.10 
   4  -7  -1   13.80    5.30 
  -4  -7   1    1.00    5.00 
  -4  -7   1   14.00    4.40 
   4   7   1   14.20    3.10 
   4  -7  -1   12.40    2.30 
  -5  -7  -1  562.04   34.20 
   5  -7   1  543.85   30.20 
   5   7  -1  551.34   31.60 
  -5   7   1  483.55   31.40 
   5  -7   1  430.46   44.50 
   5   7  -1  534.35   34.80 
  -5  -7  -1  496.85   43.60 
   5  -7   1  413.46   38.60 
   5  -7   1  503.85   38.20 
  -5  -7  -1  489.95   30.80 
   5  -7  -1  478.45   30.10 
   5   7   1  473.25   34.20 
   5  -7  -1  492.95   31.80 
   5  -7  -1  467.35   37.00 
  -5  -7   1  409.36   29.90 
   5  -7  -1  399.76   44.20 
  -5  -7   1  154.58  331.77 
  -5  -7   1  393.36   41.00 
   5   7   1  462.55   31.20 
  -5   7  -1  473.15   31.60 
  -5  -7   1  504.45   34.10 
   6  -7   1   29.50   15.00 
   6  -7   1   37.60    9.10 
  -6  -7  -1  -35.60  157.48 
   6  -7   1   47.10    5.90 
   6   7  -1   51.19    7.90 
  -6  -7  -1   39.50    6.80 
   6  -7   1   45.00    4.60 
   6   7  -1   43.20    5.40 
   6   7   1   47.60    7.90 
   6  -7  -1   32.90   12.60 
  -6  -7   1   -6.70  111.19 
   6  -7  -1   51.89    5.00 
  -6  -7   1   51.19    7.70 
   6   7   1   48.10    5.60 
   6  -7  -1   46.40    8.40 
   6  -7  -1   52.39    6.30 
  -6  -7   1   52.89   14.80 
   7  -7   1   28.40    4.50 
  -7  -7  -1   16.60  134.09 
   7  -7   1   24.60    6.70 
   7   7  -1   33.70    4.50 
  -7  -7  -1   31.70    6.10 
   7   7  -1   33.40    6.00 
   7  -7  -1   18.40    6.70 
   7   7   1   28.80    4.30 
   7   7   1   27.60    5.70 
   7  -7  -1   29.60    3.80 
  -7  -7   1   34.30    6.30 
   7  -7  -1   36.50    5.20 
  -7  -7   1  131.79  238.98 
   8   7  -1   -0.20    2.30 
   8   7  -1    1.20    1.50 
   8  -7   1    1.60    1.20 
  -8  -7  -1  -60.89   50.39 
   8  -7   1    3.10    2.10 
  -8  -7  -1    0.70    2.30 
   8   7   1    1.70    1.50 
  -8  -7   1   42.80  181.68 
   8   7   1   -1.50    2.40 
  -8  -7   1    2.30    2.10 
   8  -7  -1    0.60    1.20 
   8  -7  -1    5.30    2.00 
   0  -8  -1  408.16   36.00 
   0   8   1  415.86   25.80 
   0  -8  -1  414.56   27.70 
   0  -8   1  395.46   33.50 
   0   8   1  392.16   28.00 
   0   8   1  396.26   27.80 
   0   8  -1  395.96   28.20 
   0  -8   1  404.36   32.20 
   0   8  -1  415.96   26.10 
   0  -8   1  381.56   26.10 
   0  -8   1  397.96   24.90 
   0  -8   1  394.56   26.30 
   0  -8  -1  392.86   26.50 
   0  -8   1  416.16   27.40 
   0   8  -1  419.26   28.30 
   0  -8  -1  393.76   25.10 
   0  -8  -1  429.56   34.20 
  -1   8   1  149.69   12.90 
   1   8  -1  137.09   13.30 
  -1  -8  -1  132.69   21.40 
  -1  -8  -1  139.89   11.30 
   1  -8   1  151.68   10.50 
   1  -8   1  123.09   17.30 
   1  -8   1  146.09   12.30 
  -1   8   1  138.39   10.20 
   1   8  -1  148.29   11.40 
  -1  -8  -1  156.48   17.70 
  -1  -8  -1  140.49   12.30 
   1  -8   1  152.38   11.80 
   1  -8   1  123.49   17.10 
   1   8  -1  137.09   12.80 
   1  -8   1  151.18   16.10 
   1  -8  -1  161.68   12.20 
  -1  -8   1  160.38   16.80 
  -1  -8   1  166.48   12.60 
  -1  -8   1  147.69   16.60 
   1   8   1  153.48   11.40 
   1  -8  -1  161.48   10.70 
  -1  -8   1  154.18   12.00 
   1  -8  -1  148.19   19.70 
   1  -8  -1  180.58   18.00 
  -1   8  -1  148.19   10.50 
   1  -8  -1  157.78   12.90 
   1   8   1  154.88   13.50 
   1   8   1  112.79   19.30 
  -1   8  -1  150.28   13.00 
   1   8   1  166.18   13.50 
   2   8  -1  390.56   36.90 
  -2   8   1  466.55   31.60 
   2  -8   1  475.55   36.00 
  -2  -8  -1  443.46   37.80 
   2  -8   1  466.75   28.70 
   2  -8   1  454.35   30.80 
   2   8  -1  445.76   32.30 
   2  -8   1  411.16   38.70 
  -2  -8  -1  434.56   30.40 
   2   8  -1  454.05   29.80 
   2  -8   1  493.95   32.10 
  -2  -8  -1  442.86   30.90 
   2  -8   1  410.66   37.20 
   2  -8  -1  425.96   40.40 
  -2  -8   1  475.95   30.90 
   2   8   1  461.85   29.80 
   2  -8  -1  471.25   31.30 
   2  -8  -1  467.05   28.90 
   2   8   1  488.75   32.40 
   2  -8  -1  511.25   37.60 
  -2  -8   1  461.25   36.80 
   2   8   1  459.05   32.40 
  -2   8  -1  490.25   31.80 
  -2  -8   1  455.55   30.60 
   2  -8  -1  501.15   31.50 
   3  -8   1    1.40    4.30 
  -3   8   1    7.70    3.00 
   3   8  -1    8.40    3.30 
   3  -8   1    5.30    3.30 
  -3  -8  -1    5.60    3.90 
  -3  -8  -1    8.00    3.00 
   3  -8   1    7.50    2.60 
   3  -8   1    6.50    4.00 
   3  -8   1    7.00    2.50 
  -3  -8  -1    7.10    2.80 
   3  -8   1    6.10    1.90 
  -3  -8  -1   -8.20   76.59 
   3   8  -1    8.00    2.40 
  -3  -8   1    5.60    2.40 
   3   8   1    2.80    2.50 
  -3   8  -1    2.20    2.00 
   3  -8  -1    2.60    1.80 
   3  -8  -1    3.10    4.10 
  -3  -8   1    3.50    3.70 
   3   8   1    4.50    2.20 
   3  -8  -1    0.20    4.60 
  -3  -8   1   -5.90  125.19 
   3  -8  -1    4.90    2.60 
   3   8   1    6.20    3.30 
  -3  -8   1    7.10    3.00 
   3  -8  -1    7.60    3.00 
  -4  -8  -1  239.78   17.90 
   4  -8   1  254.67   17.30 
  -4  -8  -1  202.78   25.00 
  -4  -8  -1   24.80  155.78 
   4   8  -1  235.28   19.40 
   4  -8   1  226.68   27.30 
   4  -8   1  234.68   22.30 
  -4  -8  -1  219.68   16.80 
  -4   8   1  246.98   18.00 
   4   8  -1  238.38   16.50 
   4  -8   1  190.38   22.70 
  -4   8  -1  224.48   17.40 
   4  -8  -1  224.38   17.10 
  -4  -8   1  209.68   24.70 
   4  -8  -1  205.98   21.30 
   4   8   1  208.78   16.10 
   4  -8  -1  202.28   26.90 
   4   8   1  208.48   18.70 
  -4  -8   1  223.18   18.00 
  -4  -8   1  209.88   16.40 
  -5  -8  -1   13.60   90.39 
  -5  -8  -1   71.69    7.30 
   5  -8   1   71.29   14.00 
  -5  -8  -1   92.59   15.40 
  -5   8   1   84.79    8.20 
   5  -8   1   94.09   12.80 
   5   8  -1   97.29   11.10 
  -5  -8  -1   87.99    9.40 
   5   8  -1   86.59    8.20 
   5  -8   1   97.49    8.90 
   5  -8   1   73.79   15.40 
   5  -8  -1   80.09    8.60 
  -5  -8   1   78.89    9.60 
   5  -8  -1   76.19   12.00 
  -5  -8   1   41.40  194.68 
   5  -8  -1   88.69    7.30 
  -5   8  -1   74.79    7.90 
   5   8   1   83.59   10.50 
  -5  -8   1   69.99   16.30 
   5   8   1   75.59    7.80 
   6  -8   1    3.20    4.00 
  -6  -8  -1    3.50    2.80 
   6   8  -1    7.70    2.60 
   6   8  -1    1.90    3.10 
   6  -8   1    8.30    3.10 
   6  -8   1    7.00    2.10 
  -6  -8   1    7.40    3.60 
   6   8   1    7.70    3.60 
   6  -8  -1    2.00    3.20 
   6  -8  -1    5.80    1.90 
  -6  -8   1  -42.70  100.79 
   6  -8  -1    6.50    2.70 
   6   8   1    7.60    2.50 
   7  -8   1    9.50    2.20 
   7  -8   1   12.70    3.10 
  -7  -8  -1   72.69  232.28 
   7  -8   1    7.80    5.00 
   7   8  -1   10.90    2.70 
   7   8  -1   13.70    4.10 
  -7  -8  -1   11.60    3.40 
  -7  -8   1   13.80    4.50 
   7  -8  -1   12.10    2.50 
   7   8   1   10.60    2.50 
   7  -8  -1    9.30    6.40 
  -7  -8   1   23.00  120.39 
   7   8   1   18.70    4.40 
   7  -8  -1   13.20    3.50 
   0  -9  -1  199.78   15.90 
   0  -9  -1  194.08   13.00 
   0  -9   1  180.48   21.90 
   0  -9  -1  222.38   22.30 
   0   9   1  208.98   16.60 
   0   9  -1  193.18   13.70 
   0   9  -1  196.58   16.40 
   0   9  -1  193.58   18.80 
   0   9   1  192.88   15.60 
   0  -9   1  160.28   13.60 
   0  -9   1  208.18   20.60 
   0  -9  -1  195.48   23.50 
   0  -9   1  190.68   14.30 
   0   9   1  195.98   13.50 
   0  -9   1  208.88   15.80 
   1  -9   1   24.30    3.30 
   1   9  -1   29.70    5.70 
  -1  -9  -1   27.30    8.40 
   1  -9   1   21.20    4.10 
   1  -9   1   25.50    5.10 
   1   9  -1   25.90    4.00 
   1  -9   1   24.20    7.70 
   1  -9   1   14.60    7.50 
   1   9  -1   24.80    5.60 
  -1  -9  -1   24.90    5.30 
  -1  -9  -1   23.80   10.30 
  -1   9   1   26.80    5.80 
  -1  -9   1   17.10    4.40 
  -1   9  -1   25.90    5.50 
  -1  -9   1   29.00    4.70 
   1   9   1   23.00    3.60 
   1   9   1   33.20    5.20 
  -1  -9   1   19.00    7.10 
   1  -9  -1   30.30    9.40 
   1  -9  -1   27.20   10.10 
   1  -9  -1   30.40    5.70 
   1   9   1   28.00    5.40 
   1  -9  -1   27.40    4.90 
   1  -9  -1   22.80    3.10 
   2   9  -1  159.98   14.40 
  -2  -9  -1  152.88   19.60 
  -2   9   1  164.58   14.40 
  -2  -9  -1  151.18   12.80 
   2   9  -1  161.58   15.00 
   2   9  -1  155.88   12.60 
   2  -9   1  162.78   13.90 
  -2  -9  -1  162.08   14.00 
   2  -9   1  159.18   11.70 
   2  -9   1  137.69   25.10 
   2  -9   1  171.88   13.40 
   2  -9   1  152.18   17.50 
   2  -9  -1  167.38   19.10 
   2  -9  -1  180.28   13.80 
   2   9   1  181.18   14.90 
  -2  -9   1  170.28   13.70 
   2  -9  -1  156.98   22.10 
   2   9   1  175.58   15.20 
   2  -9  -1  171.68   14.40 
   2  -9  -1  166.58   11.90 
  -2   9  -1  174.88   14.70 
  -2  -9   1  171.58   13.60 
   2   9   1  172.48   12.70 
  -3  -9  -1  -54.79  172.78 
   3   9  -1   15.00    4.40 
  -3   9   1   16.60    4.10 
   3   9  -1   16.60    3.40 
   3   9  -1   11.30    4.70 
  -3  -9  -1   12.00    7.40 
   3  -9   1   17.60    3.10 
   3  -9   1    9.90    3.50 
  -3  -9  -1   10.60    3.80 
   3  -9   1   12.40    3.50 
  -3  -9  -1   22.30    4.30 
   3  -9   1   17.10    5.60 
   3  -9   1   16.80    9.00 
  -3  -9   1  -12.80  106.19 
  -3   9  -1   26.40    5.40 
   3   9   1   23.20    5.50 
   3  -9  -1   27.10    5.10 
   3   9   1   16.40    4.60 
  -3  -9   1   24.00    5.00 
   3   9   1   25.90    3.90 
   3  -9  -1   15.80    8.60 
   3  -9  -1   24.40    3.70 
   3  -9  -1   30.50    8.60 
  -3  -9   1   30.30    9.10 
   4  -9   1   23.10    7.10 
   4   9  -1   24.10    6.20 
  -4  -9  -1   17.30   10.40 
  -4  -9  -1   28.90    5.00 
   4   9  -1   27.90    4.40 
   4  -9   1   27.80    5.10 
   4  -9   1   26.00    3.70 
  -4  -9  -1  -15.20  144.59 
  -4  -9  -1   29.10    4.50 
  -4   9   1   28.60    4.70 
  -4  -9   1    6.20    8.60 
  -4  -9   1  -73.69   75.39 
   4  -9  -1   19.60    4.30 
   4   9   1   23.80    5.60 
  -4  -9   1   23.60    4.50 
  -4  -9   1   22.40    5.20 
   4   9   1   20.80    4.00 
   4  -9  -1   17.60   12.90 
   4  -9  -1   21.50    3.80 
   4  -9  -1   23.80    7.40 
  -4   9  -1   30.30    4.90 
   5  -9   1   72.69    6.20 
  -5  -9  -1   46.90    5.80 
   5  -9   1   71.69    7.80 
   5   9  -1   66.59    6.90 
   5  -9   1   51.89   14.00 
  -5  -9  -1   13.00  134.79 
   5   9  -1   72.59    9.60 
  -5   9   1   63.19    6.70 
  -5  -9  -1   65.99    7.60 
  -5  -9   1   65.19    8.20 
   5  -9  -1   47.70   10.70 
  -5  -9   1   -8.40   47.20 
   5   9   1   64.39    8.90 
   5  -9  -1   60.89    6.20 
   5  -9  -1   70.79    7.90 
   5   9   1   69.69    6.90 
  -5   9  -1   63.89    6.70 
   6   9  -1   85.09    8.00 
   6   9  -1   93.79   10.60 
   6  -9   1   83.09    8.00 
   6  -9   1   93.09    8.80 
  -6  -9  -1   79.89    8.70 
   6   9   1   84.99    7.90 
   6  -9  -1   84.39    7.90 
   6  -9  -1  101.89    9.30 
  -6  -9   1   90.79    9.50 
  -6  -9   1  -60.79   72.49 
   6   9   1   98.09   10.40 
   0 -10  -1  -11.20   11.40 
   0  10  -1    0.10    1.70 
   0 -10  -1    0.40    3.90 
   0  10  -1    0.10    1.70 
   0 -10   1    0.40    2.20 
   0  10   1    1.20    1.70 
   0 -10   1   -2.00    2.40 
   0 -10  -1   -0.50    1.60 
   1  10  -1  145.19   13.50 
  -1  10   1  170.58   14.30 
   1  10  -1  148.49   11.50 
   1  10  -1  165.58   14.10 
   1 -10   1  147.49   13.60 
   1 -10   1  140.29   17.70 
  -1 -10  -1  150.58   13.70 
   1 -10   1  130.09   10.60 
   1 -10   1  138.59   13.60 
  -1 -10   1  149.39   18.10 
   1 -10  -1  126.29   20.90 
   1  10   1  169.28   14.40 
   1 -10  -1  142.29   18.50 
  -1 -10   1  167.28   12.70 
   1 -10  -1  171.18   13.60 
  -1  10  -1  174.08   14.40 
   1  10   1  166.28   13.60 
   1 -10  -1  174.68   14.20 
  -1 -10   1  166.68   13.80 
   1  10   1  158.78   11.40 
   1 -10  -1  144.09   10.80 
   2  10  -1   49.80    5.60 
   2 -10   1   59.59    7.10 
  -2 -10  -1   46.60   11.30 
   2 -10   1   42.90    4.80 
  -2  10   1   53.69    6.90 
   2  10  -1   45.90    7.10 
  -2 -10  -1   52.99    6.80 
   2  10  -1   43.10    7.20 
   2 -10   1   54.09    7.20 
   2 -10   1   44.60    9.50 
   2 -10   1   37.10   12.80 
  -2 -10  -1   12.40  118.29 
   2  10   1   58.89    7.60 
   2 -10  -1   61.29    7.00 
   2 -10  -1   46.70    5.00 
  -2 -10   1   57.99    6.50 
  -2  10  -1   57.89    7.40 
   2 -10  -1   53.49   10.80 
   2  10   1   49.99    7.10 
   2 -10  -1   35.40   13.90 
  -2 -10   1   53.79    6.80 
   2 -10  -1   51.29    7.30 
  -2 -10   1   56.19   12.60 
  -2 -10   1  -16.70   57.69 
   2  10   1   50.39    5.50 
  -3  10   1   24.70    5.00 
   3 -10   1   23.50    5.20 
  -3 -10  -1   19.50    8.30 
  -3 -10  -1   -9.10  134.79 
   3 -10   1    3.10   11.80 
   3 -10   1   25.30    4.90 
  -3 -10  -1   19.80    4.30 
   3  10  -1   25.30    6.10 
   3  10  -1   17.80    3.60 
   3 -10   1   18.80    6.60 
  -3 -10  -1   25.00    4.70 
   3 -10   1   18.30    3.30 
   3  10  -1   22.00    5.00 
   3  10   1   27.40    4.00 
  -3 -10   1   26.20    4.40 
   3 -10  -1   31.20    5.40 
   3 -10  -1   22.00    3.50 
   3  10   1   21.90    5.00 
  -3 -10   1   15.20    8.20 
   3 -10  -1   20.70    8.20 
  -3 -10   1   31.40    5.20 
  -3  10  -1   18.30    4.50 
   3 -10  -1   22.40    5.20 
   3  10   1   21.60    5.00 
   4 -10   1   16.40    7.20 
  -4 -10  -1   27.70    4.80 
   4  10  -1   19.90    3.70 
   4 -10   1   21.50    3.60 
   4 -10   1   26.80    5.10 
  -4 -10  -1  -51.09  196.28 
  -4 -10  -1   16.40    3.80 
   4  10  -1   29.50    6.20 
  -4  10   1   28.10    4.50 
   4 -10  -1   16.80    3.30 
   4  10   1   20.40    4.90 
  -4 -10   1   30.10    5.20 
   4 -10  -1   16.60    7.30 
   4  10   1   26.40    4.00 
  -4 -10   1   -6.00   81.39 
  -4 -10   1   17.80    3.60 
  -4  10  -1   26.40    5.00 
   4 -10  -1   22.70    4.90 
   5  10  -1   96.49    8.30 
  -5  10   1   86.69    7.90 
   5  10  -1   93.59   10.40 
  -5 -10  -1   35.60  176.58 
   5 -10   1   65.69   11.40 
   5 -10   1   85.69    7.60 
   5 -10   1  107.69    9.40 
  -5 -10  -1   92.29    8.50 
   5  10   1   98.09   10.40 
   5  10   1   99.89    8.50 
  -5 -10   1   49.40  152.78 
  -5  10  -1   91.69    8.10 
  -5 -10   1  100.49    9.50 
   5 -10  -1   66.69   11.80 
   5 -10  -1   88.99    7.80 
   5 -10  -1  110.69    9.60 
   6 -10   1    1.50    1.50 
  -6 -10  -1  -84.69   88.79 
   6 -10   1    7.60    2.50 
   6  10  -1    3.50    2.60 
   6  10  -1    4.50    1.90 
   6  10   1    0.30    2.30 
  -6 -10   1    5.10    2.60 
  -6 -10   1   -0.40  139.99 
   6  10   1    2.90    1.60 
   6 -10  -1    1.30    1.40 
   6 -10  -1    5.90    2.50 
   0  11  -1    9.90    3.40 
   0 -11  -1    8.80    3.20 
   0  11   1    9.00    3.60 
   0 -11  -1    6.00    5.40 
   0 -11   1   12.00    3.60 
   0 -11   1   17.20   10.60 
  -1 -11  -1   37.20    5.70 
   1  11  -1   36.40    5.60 
   1 -11   1   20.90    9.50 
   1  11  -1   29.60    3.50 
   1 -11   1   32.80    5.40 
  -1  11   1   35.90    5.50 
  -1  11  -1   38.00    5.80 
   1 -11  -1   32.80    5.40 
   1  11   1   37.10    5.60 
   1  11   1   27.40    3.40 
  -1 -11   1   30.00    5.20 
  -2  11   1   13.40    3.60 
   2  11  -1   15.50    2.80 
   2  11  -1   17.00    4.20 
   2 -11   1   13.90    5.60 
   2 -11   1   11.30    3.50 
  -2 -11  -1   11.90    3.50 
   2  11  -1   12.50    3.80 
   2 -11   1   13.40    3.00 
   2 -11  -1   15.20    6.10 
  -2 -11   1   18.00    5.10 
   2  11   1   11.70    3.50 
  -2  11  -1    8.60    3.10 
  -2 -11   1   29.70  195.98 
   2 -11  -1   12.10    3.80 
   2 -11  -1   14.00    6.10 
   2  11   1   12.00    3.70 
  -2 -11   1   19.50    4.30 
   2  11   1   14.00    2.60 
   2 -11  -1   10.10    2.50 
  -3  11   1   17.90    3.90 
   3  11  -1   21.70    4.80 
  -3 -11  -1   19.40    4.00 
   3  11  -1   15.50    2.90 
  -3 -11  -1   14.90  122.19 
   3 -11   1   16.00    4.60 
   3 -11   1   16.50    4.60 
   3  11  -1   14.30    4.50 
   3 -11   1   10.40    2.50 
  -3  11  -1   11.30    3.10 
   3 -11  -1   23.20    5.20 
   3  11   1   13.20    2.60 
  -3 -11   1   18.30    4.00 
   3 -11  -1   12.40    3.20 
  -3 -11   1   28.40  128.69 
   3 -11  -1    8.20    5.90 
   3 -11  -1   20.80    4.30 
   3  11   1   19.10    4.20 
  -3 -11   1   10.50    3.10 
   3  11   1   11.90    3.90 
  -4 -11  -1   37.20    5.00 
  -4 -11  -1   48.80    5.60 
   4 -11   1   56.99    6.70 
   4 -11   1   41.20    4.40 
   4  11  -1   44.30    4.90 
  -4  11   1   46.90    5.60 
   4  11  -1   50.79    7.80 
  -4 -11  -1   27.80  160.28 
   4  11   1   47.50    7.30 
  -4 -11   1   15.00  122.99 
   4  11   1   49.90    4.90 
  -4 -11   1   55.29    5.80 
  -4 -11   1   39.60    4.90 
  -4  11  -1   48.90    5.60 
   4 -11  -1   41.90    4.50 
   4 -11  -1   54.49    6.80 
   0  12   1    1.80    2.00 
   0 -12   1    2.10    1.80 
   0  12  -1    4.20    2.30 
   0 -12  -1    5.30    2.40 
   1 -12   1    4.70    4.60 
   1 -12   1    4.10    2.50 
  -1 -12  -1    2.90    2.10 
  -1  12   1    3.60    2.20 
  -1 -12  -1    3.50   65.79 
   1  12  -1    2.50    2.50 
   1 -12  -1    0.60    3.50 
   1 -12  -1    4.00    2.40 
  -1 -12   1    3.20    2.40 
  -1 -12   1  -51.09   85.49 
   1  12   1    5.10    2.40 
  -1  12  -1    4.40    2.10 
  -2 -12  -1  -11.90   96.79 
  -2 -12  -1   38.70    5.50 
   2 -12   1   30.40    8.30 
   2 -12   1   36.50    5.40 
  -2  12   1   39.30    5.20 
   2  12  -1   43.40    5.30 
   2  12  -1   35.90    3.40 
  -2  12  -1   43.80    5.30 
   2  12   1   23.50    4.60 
   2 -12  -1   34.50    5.30 
  -2 -12   1   30.70    5.10 
   2  12   1   28.50    3.40 
  -2 -12   1    9.90   65.49 
   2 -12  -1   21.70    7.10 
   3 -12   1   17.50    3.60 
   3  12  -1   20.50    2.50 
  -3 -12  -1  -23.40  123.89 
  -3  12   1   24.90    3.70 
   3  12  -1   17.10    5.30 
  -3 -12   1   16.60    3.40 
  -3  12  -1   20.00    3.80 
  -3 -12   1   15.80  127.79 
   3  12   1   15.80    2.40 
   3 -12  -1   15.90    3.60 
  -1   0   2 3477.35  214.98 
  -1   0  -2 4008.30  218.88 
  -1   0   2 3594.94  214.78 
   1   0  -2 3369.66  214.98 
   1   0  -2 4061.19  217.18 
  -2   0  -2  765.02   50.09 
   2   0  -2  875.21   51.39 
   2   0   2  890.81   53.29 
  -2   0   2  771.92   49.80 
   2   0  -2  767.72   50.29 
  -2   0  -2  889.91   54.59 
   3   0   2  181.18   15.70 
  -3   0  -2  152.98   16.20 
  -3   0  -2  163.48   13.10 
  -3   0   2  158.68   12.70 
   3   0  -2  183.48   14.20 
   4   0   2  159.48   15.60 
  -4   0   2  144.69   12.60 
   4   0  -2  141.29   14.70 
  -4   0  -2  158.98   13.50 
   4   0  -2  157.58   14.20 
  -4   0   2  143.29   12.30 
  -5   0  -2  251.27   17.80 
   5   0  -2  266.77   23.60 
  -5   0   2  264.17   20.60 
   5   0   2  270.77   24.50 
  -5   0   2  233.38   17.70 
   5   0  -2  272.37   22.80 
   5   0   2  254.57   16.60 
  -5   0  -2  272.37   19.60 
  -5   0   2  268.27   21.10 
   5   0   2  297.07   25.30 
   5   0  -2  264.27   19.30 
  -5   0  -2  280.17   22.00 
  -6   0  -2  168.38   15.80 
  -6   0   2   24.20  143.59 
  -6   0   2  142.59   14.10 
  -6   0  -2  133.49   11.10 
   6   0   2  150.78   17.70 
  -6   0  -2  144.89   13.00 
  -6   0   2  142.09   14.60 
  -6   0  -2  -35.70  121.49 
   6   0   2  138.79   17.50 
   6   0  -2  139.09   15.60 
  -6   0   2  125.09   10.70 
   6   0   2  138.09    9.80 
  -7   0   2  124.79   13.90 
  -7   0   2  112.99    9.90 
  -7   0   2  111.99   16.10 
   7   0   2  110.69   15.90 
  -7   0  -2  129.09   10.60 
  -7   0  -2  142.39   13.00 
  -7   0  -2  -23.40  138.69 
  -7   0  -2  147.79   15.40 
  -7   0   2  -16.00   88.19 
  -8   0  -2   11.80    3.20 
  -8   0  -2  -44.30   56.59 
  -8   0   2   12.10    2.80 
  -8   0   2   12.20    4.70 
  -8   0  -2   14.50    7.10 
  -8   0   2   71.49  218.28 
  -9   0  -2  -40.80   56.59 
  -9   0   2  -22.50   66.09 
  -1  -1  -2 3598.04  211.38 
  -1  -1  -2 3546.25  211.58 
  -1   1   2 3221.18  207.98 
  -1  -1  -2 3242.08  207.78 
   1   1   2 3582.54  211.08 
   1  -1  -2 3711.33  208.48 
  -1  -1   2 3601.84  207.68 
  -1  -1   2 3850.51  208.28 
  -1   1  -2 3737.33  210.38 
  -2   1   2 1906.11  117.19 
   2  -1   2 2074.09  119.59 
   2  -1   2 2012.60  120.39 
  -2  -1  -2 1844.02  117.89 
   2   1  -2 1948.51  116.89 
  -2  -1  -2 1859.51  122.29 
   2  -1  -2 2087.39  120.49 
  -2   1  -2 2117.09  121.39 
   2  -1  -2 2110.09  117.09 
   2   1   2 1916.11  124.59 
   2  -1  -2 2018.00  116.89 
  -3  -1  -2 4848.11  269.17 
   3  -1   2 4754.52  269.87 
   3   1  -2 4557.04  267.07 
   3  -1  -2 4676.53  271.07 
   3  -1  -2 4576.54  266.47 
  -3   1  -2 4074.19  271.67 
   3   1   2 4643.64  272.97 
   3  -1  -2 4410.86  266.27 
  -4   1   2   34.30    4.80 
   4  -1   2   38.80    6.80 
  -4  -1  -2    8.60   68.19 
   4  -1   2   32.20    5.80 
  -4  -1  -2   33.50    3.80 
  -4  -1  -2   38.20    4.50 
  -4  -1  -2   38.60    5.80 
   4   1  -2   36.00    4.80 
  -4   1   2   32.30    4.70 
   4  -1  -2   35.20    6.40 
  -4  -1   2   26.40    4.70 
   4  -1  -2   31.40    4.90 
   4  -1  -2   28.60    3.90 
   4  -1  -2   29.30    3.90 
  -4  -1   2   26.30    4.30 
  -4   1  -2   24.70   64.09 
   4   1   2   26.90    6.80 
  -4   1  -2   27.60    4.60 
   4  -1  -2   33.00    3.40 
   5  -1   2  868.51   56.99 
   5  -1   2  887.81   54.89 
   5   1  -2  773.52   58.19 
  -5   1   2  836.32   52.29 
   5  -1   2  792.32   47.40 
  -5  -1  -2  875.71   51.19 
  -5  -1  -2  772.62   49.20 
  -5  -1  -2  828.82   54.19 
   5   1  -2  800.22   51.69 
  -5   1  -2  780.82   52.59 
   5   1   2  799.42   47.90 
  -5  -1   2  717.53   49.10 
   5  -1  -2  815.82   50.79 
  -5  -1   2  826.42   53.49 
  -5   1  -2  676.53   48.10 
   5   1   2  761.52   57.99 
  -5   1  -2  814.12   50.59 
   5  -1  -2  726.53   48.50 
  -5  -1   2  839.72   52.09 
   5  -1  -2  794.32   56.49 
   5  -1  -2  792.02   50.19 
  -6   1   2  689.33   46.40 
   6  -1   2  678.33   47.90 
   6  -1   2  734.73   51.09 
   6   1  -2  633.74   45.00 
  -6   1   2  652.83   46.10 
   6   1  -2  625.84   51.49 
  -6  -1  -2  738.73   48.90 
  -6  -1  -2  662.63   42.60 
   6  -1   2  656.73   40.50 
  -6   1   2  572.74   40.90 
  -6  -1  -2  700.03   44.80 
  -6  -1   2  716.13   48.20 
  -6  -1   2  708.63   46.30 
   6  -1  -2  675.43   43.70 
   6   1   2  704.23   54.39 
  -6   1  -2  724.13   47.40 
   6   1   2  700.53   41.10 
  -6  -1   2  592.34   43.10 
  -6   1  -2  644.44   42.80 
  -7   1   2   10.20  124.59 
   7  -1   2  250.57   17.00 
  -7   1   2  219.58   17.20 
  -7  -1  -2  290.07   21.80 
  -7  -1  -2  261.27   19.10 
  -7  -1  -2  277.77   25.10 
  -7  -1  -2   53.59  275.47 
   7  -1   2  267.57   26.00 
  -7   1   2  249.68   22.60 
   7  -1  -2  238.18   26.00 
   7   1   2  261.37   26.90 
  -7  -1   2  296.77   23.20 
  -7  -1   2  282.07   24.90 
  -7   1  -2   25.00  159.68 
  -7   1  -2  266.37   18.30 
  -7   1  -2  268.57   21.00 
   7   1   2  278.27   17.80 
  -7  -1   2  255.77   18.90 
  -7   1  -2  270.07   24.00 
  -7  -1   2   55.49  253.67 
  -8   1   2  -31.60  136.69 
  -8  -1  -2   32.90    4.90 
  -8  -1  -2    3.50  205.48 
   8  -1   2   16.90   12.10 
  -8  -1  -2   28.80    8.40 
  -8   1   2   23.60    6.90 
  -8   1  -2  -42.80  117.79 
  -8  -1   2   42.30  175.78 
  -8   1  -2   37.80    4.60 
  -8  -1   2   22.60    4.30 
  -8  -1   2   29.90    7.20 
  -8  -1   2   34.20    8.20 
  -9   1   2   22.90    6.40 
  -9  -1  -2   11.00  154.18 
  -9  -1  -2   25.80    4.20 
  -9  -1   2   10.60    5.90 
  -9  -1   2   18.10    3.80 
  -9  -1   2   18.90  115.09 
  -1  -2  -2 6097.19  366.06 
   1  -2  -2 6339.57  362.36 
   2  -2   2 3920.61  216.88 
  -2  -2  -2 3765.22  216.88 
   2  -2  -2 3687.13  215.58 
   2   2   2 3391.16  220.58 
  -2   2  -2 3712.73  218.58 
  -2  -2   2 3533.45  216.38 
   2  -2  -2 3759.22  219.98 
   3  -2   2 5631.94  342.37 
   3  -2   2 6165.78  341.57 
   3  -2   2 5157.48  337.07 
   3  -2  -2 6122.39  339.37 
   3   2   2 6013.80  347.17 
   3   2   2 5579.64  337.97 
   3  -2  -2 6181.68  345.17 
  -3   2  -2 5650.83  343.67 
   4  -2   2  342.87   22.00 
  -4  -2  -2  379.96   27.40 
   4  -2   2  390.36   26.00 
  -4  -2  -2  415.56   25.00 
   4  -2   2  374.66   28.20 
  -4   2   2  359.46   25.30 
  -4  -2  -2  341.67   26.70 
  -4   2   2  392.66   25.40 
   4   2   2  344.27   31.30 
   4  -2  -2  350.36   24.40 
  -4  -2   2  356.26   26.70 
   4  -2  -2  346.27   22.50 
   4   2   2  330.17   22.60 
   4  -2  -2  354.96   29.80 
  -4  -2   2  319.07   23.60 
  -4  -2   2  349.96   24.80 
  -4   2  -2  359.26   25.40 
  -5  -2  -2  908.01   51.79 
   5   2  -2  746.03   48.30 
   5  -2   2  862.51   56.29 
  -5  -2  -2  806.22   49.99 
   5  -2   2  848.32   52.79 
  -5   2   2  813.02   52.69 
   5  -2   2  762.52   48.20 
   5   2   2  785.12   60.89 
  -5   2  -2  745.83   50.29 
  -5  -2   2  777.82   50.19 
   5   2   2  815.42   49.00 
   5  -2  -2  814.72   51.19 
  -5  -2   2  785.82   54.79 
   5  -2  -2  729.03   47.40 
  -5   2  -2  854.61   53.39 
   5  -2  -2  902.11   60.29 
  -5   2  -2  708.43   48.30 
  -5  -2   2  812.52   52.09 
   6  -2   2  749.23   54.29 
  -6  -2  -2  797.72   48.20 
  -6   2   2  743.73   51.19 
  -6  -2  -2  838.72   49.99 
  -6  -2  -2  818.22   54.99 
   6  -2   2  720.73   45.30 
  -6   2  -2  755.02   48.90 
  -6  -2   2  772.42   54.09 
   6  -2  -2  716.93   57.49 
   6  -2  -2  702.13   48.90 
   6   2   2  786.62   46.70 
  -6   2  -2  674.03   47.90 
  -6  -2   2  724.63   48.10 
  -6  -2   2  767.92   50.49 
   6   2   2  744.73   61.39 
  -7   2   2   -6.70   93.99 
  -7  -2  -2   44.30  174.68 
   7  -2   2  121.29    9.20 
  -7   2   2  136.29   14.30 
  -7  -2  -2  134.39   16.40 
  -7  -2  -2  122.99   12.90 
  -7  -2  -2  130.39   11.70 
   7  -2   2   89.69   17.80 
  -7  -2   2  138.29   11.90 
  -7  -2   2  138.19   16.10 
  -7   2  -2  -27.80  185.38 
   7  -2  -2  123.09    9.10 
   7   2   2   97.39   16.50 
   7   2   2  146.49   10.40 
  -7  -2   2  134.59   14.00 
  -7   2  -2  135.29   12.30 
  -7  -2   2  -55.89  115.69 
  -7   2  -2  126.99   10.00 
   7  -2  -2  115.29   18.90 
   8  -2   2   15.70   12.50 
  -8  -2  -2   67.99  258.77 
   8  -2   2   34.50    4.30 
  -8  -2  -2   35.20    8.80 
  -8  -2  -2   36.20    5.80 
  -8   2   2   27.60    7.00 
  -8  -2   2   15.40  208.18 
  -8  -2   2   38.70    5.70 
  -8  -2   2   23.80    9.00 
   8   2   2   40.30    5.00 
  -8   2  -2  -65.89   52.09 
  -8  -2   2   40.90    7.50 
  -9   2   2    2.10    2.60 
  -9  -2  -2   37.40  178.18 
  -9  -2   2    5.10    2.20 
  -9  -2   2    0.50    2.30 
   1  -3   2 5323.47  280.47 
  -1  -3  -2 5100.69  279.77 
   1   3  -2 4380.26  276.37 
  -1   3   2 4678.23  277.67 
  -1  -3  -2 5114.09  282.97 
   1   3   2 4371.26  281.87 
  -1   3  -2 4441.66  279.17 
  -1  -3   2 4722.63  277.07 
   1   3   2 4493.65  276.87 
   1  -3  -2 4967.00  278.37 
   1  -3  -2 4131.59  275.77 
   1  -3  -2 5255.97  283.07 
   2   3  -2 1166.98   72.69 
   2  -3   2 1321.87   76.59 
  -2  -3  -2 1335.27   75.69 
   2  -3   2 1061.99   71.69 
   2  -3  -2 1211.28   73.49 
   2  -3  -2 1296.17   74.29 
   2  -3  -2 1122.09   72.59 
   2   3   2 1218.78   73.19 
  -2  -3   2 1156.98   77.19 
   2   3   2 1185.18   80.09 
  -2   3  -2 1155.78   75.99 
   2  -3  -2 1430.86   80.69 
   3  -3   2 2025.90  118.09 
   3   3  -2 1797.12  115.49 
   3  -3   2 1754.72  115.19 
  -3  -3  -2 2182.38  121.09 
   3  -3  -2 2083.69  116.99 
   3  -3  -2 2038.30  118.19 
  -3   3  -2 1982.40  121.49 
   3  -3  -2 2074.39  124.59 
   3   3   2 1953.80  126.59 
   3  -3  -2 1729.43  115.19 
  -3  -3   2 2160.58  120.99 
   3   3   2 1910.41  116.59 
   4   3  -2 4459.15  274.77 
   4  -3   2 5143.09  281.97 
  -4  -3  -2 4870.31  281.97 
   4  -3   2 4440.76  274.67 
  -4  -3  -2 4593.24  276.57 
  -4   3   2 4530.55  278.27 
   4  -3   2 5065.29  277.97 
   4   3   2 4588.64  276.17 
  -4  -3   2 4790.72  281.77 
   4  -3  -2 5023.90  286.87 
   4  -3  -2 4554.84  275.87 
   4  -3  -2 4208.08  274.47 
   4  -3  -2 4937.21  278.27 
  -4  -3   2 4855.11  277.87 
  -4   3  -2 4979.60  275.87 
  -4  -3   2 4605.24  277.07 
   4   3   2 4695.03  289.47 
  -5  -3  -2   62.59    7.10 
  -5   3   2   -2.20  125.69 
  -5  -3  -2   59.69    9.60 
   5  -3   2   47.80    8.40 
   5  -3   2   48.30    4.40 
  -5  -3  -2   49.30    6.20 
   5   3  -2   32.00   11.00 
   5  -3   2   46.30    3.80 
  -5   3   2   42.90    7.10 
  -5  -3  -2   70.99  154.08 
  -5  -3   2   52.49    7.00 
  -5   3  -2   49.00    5.90 
   5   3   2   52.49   12.40 
   5  -3  -2   55.59   11.30 
   5  -3  -2   45.60    6.60 
   5   3   2   49.30    5.70 
  -5  -3   2   18.10   66.49 
  -5   3  -2   44.40    4.50 
   5  -3  -2   41.40    4.20 
  -5   3  -2   46.90    4.30 
  -5  -3   2   53.19    8.80 
  -5  -3   2   47.90    6.30 
  -5   3  -2   32.20  162.28 
   6  -3   2  285.87   17.50 
  -6  -3  -2  329.47   22.80 
   6  -3   2  283.17   18.40 
   6  -3   2  294.97   25.80 
  -6  -3  -2  323.07   27.70 
  -6   3   2  277.37   23.40 
  -6  -3  -2  318.27   21.60 
   6   3  -2  304.97   19.00 
   6  -3  -2  231.78   21.40 
   6   3   2  284.27   20.10 
  -6   3  -2  259.27   20.30 
  -6  -3   2  274.07   26.20 
   6  -3  -2  256.57   29.30 
  -6  -3   2  284.27   21.50 
   6  -3  -2  254.27   18.10 
  -6  -3   2  275.57   22.40 
  -6   3  -2   28.20  167.88 
   7  -3   2  229.58   15.90 
  -7   3   2  215.08   20.60 
   7   3  -2  229.48   16.70 
  -7  -3  -2  258.97   25.40 
  -7  -3  -2  290.77   23.50 
   7  -3   2  232.48   15.00 
  -7  -3  -2  -59.29  264.67 
  -7   3  -2  223.98   18.00 
  -7  -3   2  193.98   21.90 
   7   3   2  253.27   17.70 
  -7  -3   2  255.97   25.00 
   7  -3  -2  247.98   16.00 
   7  -3  -2  197.28   26.90 
  -7   3  -2  -32.80  159.48 
  -7  -3   2  255.47   19.40 
  -7  -3   2  -12.70  129.89 
   8  -3   2  225.58   14.60 
   8   3  -2  223.78   20.60 
  -8  -3  -2  228.68   17.30 
  -8   3   2  183.88   18.50 
   8  -3   2  165.48   20.40 
   8  -3   2  220.48   13.70 
  -8  -3  -2  -12.80  157.08 
  -8  -3   2  223.08   17.30 
   8   3   2  191.98   15.20 
   8  -3  -2  200.78   14.40 
  -8  -3   2  219.88   19.20 
   9  -3   2   26.40    3.70 
  -9  -3  -2   32.80    5.10 
  -9   3   2   22.80    5.50 
  -9  -3  -2  -55.09  126.39 
  -9  -3   2   22.80    4.50 
  -9  -3   2   14.00    4.70 
  -9  -3   2   51.39  193.38 
   0   4   2 2388.46  158.58 
   0  -4   2 2387.96  151.38 
   0   4   2 2473.65  152.78 
   0   4  -2 2656.53  153.28 
   0  -4  -2 2831.52  156.08 
   0  -4   2 2918.11  153.98 
   0  -4  -2 2305.57  151.88 
   0   4  -2 2806.02  157.18 
  -1  -4  -2 3169.28  225.68 
  -1   4   2 3472.45  212.08 
  -1  -4  -2 3961.20  214.38 
   1  -4   2 3161.58  208.78 
   1   4  -2 3539.65  210.18 
  -1  -4   2 3745.83  211.38 
   1   4   2 3228.38  216.28 
  -1  -4   2 3941.71  210.88 
   1   4   2 3626.14  210.78 
   1  -4  -2 3452.35  209.28 
   1  -4  -2 3982.00  212.88 
  -1   4  -2 3749.72  213.98 
   2  -4   2 2175.48  134.39 
  -2  -4  -2 2622.44  145.19 
   2   4  -2 2358.26  135.59 
  -2  -4   2 2467.75  137.69 
   2  -4  -2 2160.88  134.59 
   2   4   2 2078.59  143.99 
  -2   4  -2 2171.38  139.19 
   2   4   2 2329.87  136.39 
   2  -4  -2 2276.47  137.49 
   2  -4  -2 2348.36  137.79 
   3   4  -2 2873.01  172.88 
  -3  -4  -2 2802.02  173.28 
  -3  -4  -2 3156.58  172.88 
  -3  -4  -2 3313.87  179.38 
  -3   4   2 3014.10  172.88 
   3  -4   2 2895.91  172.18 
   3  -4   2 2728.43  171.88 
   3  -4  -2 2659.13  171.98 
  -3   4  -2 3058.79  173.38 
   3  -4  -2 3047.90  175.58 
   3   4   2 2927.31  173.78 
  -3   4  -2 2777.72  177.48 
   3  -4  -2 3103.59  183.18 
   3   4   2 2698.53  184.48 
   3  -4  -2 3006.60  174.68 
  -3  -4   2 2924.01  172.08 
  -3  -4   2 3094.59  178.88 
  -4  -4  -2  819.92   45.50 
   4  -4   2  717.83   44.90 
  -4  -4  -2  747.53   46.80 
  -4   4   2  702.53   48.10 
   4   4  -2  753.22   45.80 
   4  -4   2  718.53   44.10 
  -4  -4  -2  804.52   53.09 
   4  -4   2  712.83   50.89 
  -4   4   2  769.62   45.40 
  -4  -4   2  722.03   47.20 
  -4   4  -2  777.12   46.20 
   4  -4  -2  675.43   44.80 
   4  -4  -2  688.23   44.00 
   4   4   2  754.02   45.10 
  -4  -4   2  762.02   47.50 
   4  -4  -2  765.12   47.00 
   4  -4  -2  750.52   48.60 
   4  -4  -2  773.02   56.49 
  -4  -4   2  754.62   52.59 
   4   4   2  722.93   59.69 
   4   4   2  751.72   46.80 
  -4  -4   2  723.63   44.60 
   5  -4   2  260.27   23.80 
   5  -4   2  259.47   17.20 
   5  -4   2  254.57   18.00 
  -5  -4  -2  271.07   25.80 
  -5  -4  -2  282.77   20.50 
   5   4  -2  271.07   19.10 
  -5  -4  -2  286.77   17.40 
  -5   4   2  259.57   21.60 
  -5   4   2  260.17   17.20 
  -5  -4   2  304.77   21.70 
  -5  -4   2  309.37   26.80 
  -5  -4   2  267.67   20.80 
   5   4   2  292.87   18.40 
   5  -4  -2  294.27   29.80 
   5  -4  -2  274.47   22.00 
   5   4   2  264.87   32.60 
   5   4   2  289.57   20.30 
  -5   4  -2  277.17   18.30 
   5  -4  -2  281.27   17.30 
   5  -4  -2  275.27   18.20 
   6  -4   2  757.52   46.60 
   6  -4   2  743.53   55.09 
   6   4  -2  766.92   49.80 
  -6  -4  -2  744.83   58.09 
  -6  -4  -2  819.42   50.89 
   6  -4   2  761.42   47.70 
  -6   4   2  681.43   51.89 
   6  -4  -2  785.72   47.90 
  -6  -4   2  837.22   51.79 
   6  -4  -2  755.32   52.59 
   6  -4  -2  721.73   61.99 
  -6  -4   2  821.82   51.99 
   6  -4  -2  806.42   46.80 
  -6  -4   2  834.52   59.49 
   6   4   2  807.62   48.00 
   6   4   2  836.42   50.49 
  -7  -4  -2  444.06   39.00 
   7  -4   2  361.36   34.20 
   7  -4   2  389.76   43.50 
   7  -4   2  476.75   28.40 
  -7  -4  -2    7.70  287.87 
   7  -4   2  445.86   35.40 
   7   4  -2  459.35   30.30 
   7  -4   2  444.96   27.20 
  -7   4   2  412.76   32.60 
  -7  -4  -2  511.35   32.00 
   7   4   2  458.05   30.60 
  -7  -4   2  449.46   38.90 
   7  -4  -2  384.66   41.80 
   7  -4  -2  473.95   28.70 
  -7  -4   2  474.85   32.10 
  -7  -4   2   65.39  216.48 
  -7  -4   2  454.55   32.60 
   7  -4  -2  378.76   32.30 
   8  -4   2    1.20    1.20 
  -8   4   2    2.60    2.70 
   8  -4   2    2.20    1.60 
   8   4  -2    8.80    3.00 
  -8  -4  -2  -16.80  130.49 
  -8  -4  -2    1.10    2.60 
   8  -4   2   -0.30    4.20 
   8   4   2    6.90    2.70 
   8  -4  -2    3.80    2.60 
   8  -4  -2    2.70    2.10 
  -8  -4   2    2.90    2.80 
   8   4   2    2.90    3.00 
  -8  -4   2    4.30    2.70 
  -8  -4   2   34.20  119.89 
  -9  -4  -2  -34.20  160.58 
  -9  -4   2  -42.80   70.89 
   0  -5   2 1219.18   73.09 
   0  -5  -2 1274.77   77.99 
   0  -5   2 1248.18   71.19 
   0  -5  -2 1225.58   73.49 
   0   5   2 1080.59   69.49 
   0   5  -2 1210.88   74.69 
   0   5   2  997.80   74.19 
   0  -5  -2 1095.49   68.59 
   0  -5   2 1033.70   67.89 
   0   5  -2 1081.09   69.79 
  -1  -5  -2 1706.73  100.89 
   1  -5   2 1712.33   99.29 
   1   5  -2 1628.84  101.69 
  -1   5   2 1599.94  104.09 
   1   5  -2 1786.02  100.29 
  -1  -5  -2 1835.52  106.69 
  -1   5   2 1637.44  101.19 
  -1  -5  -2 1944.71  110.59 
  -1  -5   2 1582.84  100.19 
  -1   5  -2 1534.15  101.39 
  -1   5  -2 1631.64  101.29 
   1   5   2 1760.42  100.29 
   1   5   2 1617.74  101.89 
   1   5   2 1433.06  107.99 
   1  -5  -2 1873.71  110.79 
   1  -5  -2 1775.82  104.69 
  -1  -5   2 1784.12  103.39 
  -1  -5   2 1777.42  107.79 
   1  -5  -2 1705.83   99.59 
  -1  -5   2 1783.72  102.79 
   1  -5  -2 1560.74  100.39 
  -1   5  -2 1683.93  105.79 
   2   5  -2  795.32   50.39 
   2  -5   2  924.51   52.59 
  -2   5   2  789.32   53.29 
   2  -5   2  801.42   48.20 
   2   5  -2  882.91   48.30 
   2  -5   2  849.12   53.99 
  -2  -5   2  676.63   49.70 
  -2   5  -2  768.22   50.59 
   2  -5  -2  845.92   59.59 
   2   5   2  767.92   49.99 
  -2  -5   2  762.82   51.59 
   2   5   2  828.92   48.30 
  -2   5  -2  735.93   52.99 
   2  -5  -2  787.72   47.50 
   2  -5  -2  777.52   51.79 
   2  -5  -2  755.92   48.30 
  -3   5   2 1420.46   80.39 
  -3   5   2 1252.37   81.19 
  -3  -5  -2 1417.06   80.09 
  -3  -5  -2 1392.86   86.89 
   3  -5   2 1390.96   85.69 
   3   5  -2 1347.67   80.59 
  -3  -5  -2 1287.17   80.19 
   3  -5   2 1267.17   78.89 
   3   5  -2 1320.37   79.19 
   3  -5   2 1383.76   78.09 
   3  -5   2 1502.65   86.09 
   3  -5  -2 1318.27   83.09 
  -3  -5   2 1268.27   80.69 
   3  -5  -2 1290.67   91.09 
  -3  -5   2 1439.26   80.59 
   3   5   2 1164.28   91.89 
   3   5   2 1293.37   81.09 
   3  -5  -2 1224.08   79.09 
  -3  -5   2 1277.37   79.09 
  -3  -5   2 1482.85   87.79 
   3   5   2 1306.67   79.09 
  -3   5  -2 1358.16   80.49 
  -3   5  -2 1171.58   83.69 
   4   5  -2  133.49   10.00 
  -4  -5  -2  137.29   10.70 
  -4  -5  -2  128.49   11.60 
   4   5  -2  127.99   11.50 
   4  -5   2  137.69   14.60 
   4  -5   2  128.59    9.30 
   4  -5   2  128.49   10.20 
  -4   5   2  111.59   11.90 
  -4  -5  -2  124.89   15.90 
  -4   5   2  124.99   10.50 
   4  -5   2  131.09   14.70 
  -4  -5  -2    1.40  123.29 
   4  -5  -2  146.09   13.80 
  -4   5  -2  153.98   11.60 
   4   5   2  156.98   10.60 
  -4  -5   2   -6.40  150.68 
   4   5   2  161.58   12.80 
  -4  -5   2  157.18   12.10 
   4   5   2  117.29   22.70 
   4  -5  -2  142.19   18.90 
  -4  -5   2  153.08   17.40 
  -4  -5   2  151.98   12.70 
  -4  -5   2  159.48   10.30 
   4  -5  -2  142.49   10.50 
   5  -5   2  395.16   30.90 
   5   5  -2  384.86   26.30 
  -5   5   2  346.47   24.00 
  -5  -5  -2  395.66   27.00 
   5   5  -2  390.36   24.40 
   5  -5   2  382.26   31.10 
  -5  -5  -2  420.66   34.80 
  -5   5   2  360.46   28.80 
   5  -5   2  381.16   23.50 
  -5  -5  -2  401.26   24.20 
  -5   5  -2  361.86   24.90 
  -5  -5   2   42.40  211.88 
   5  -5  -2  367.66   28.80 
   5  -5  -2  337.47   36.00 
   5  -5  -2  378.36   26.30 
  -5  -5   2  393.86   34.30 
   5   5   2  389.76   29.40 
   5   5   2  384.06   24.70 
  -5  -5   2  367.96   27.40 
  -5  -5   2  370.76   26.90 
  -6   5   2  235.98   21.30 
   6  -5   2  296.97   18.90 
   6  -5   2  294.07   17.50 
   6  -5   2  253.87   32.00 
   6   5  -2  283.77   18.50 
  -6  -5  -2  304.87   21.70 
   6  -5   2  313.47   25.60 
  -6  -5  -2    7.60  235.28 
   6   5  -2  269.27   20.50 
   6  -5   2  261.67   28.50 
  -6  -5  -2  272.07   28.50 
   6  -5  -2  265.27   18.80 
   6  -5  -2  238.28   30.60 
   6   5   2  262.17   18.50 
  -6  -5   2  267.97   21.20 
  -6  -5   2  261.17   28.00 
   6  -5  -2  233.78   22.30 
   6   5   2  263.37   21.00 
  -6  -5   2  259.87   21.70 
   7  -5   2  210.98   14.40 
   7  -5   2  146.39   24.60 
  -7  -5  -2  196.88   16.30 
  -7  -5  -2  -26.90  237.78 
  -7  -5  -2  186.38   23.70 
   7  -5   2  168.08   18.50 
   7  -5   2  190.18   12.20 
   7   5  -2  165.98   12.80 
  -7   5   2  156.38   15.40 
   7   5  -2  189.68   18.20 
  -7  -5   2   76.59  259.27 
   7  -5  -2  194.58   15.50 
   7   5   2  180.48   13.20 
   7   5   2  189.98   17.70 
   7  -5  -2  188.78   12.40 
  -7  -5   2  172.18   16.00 
  -7  -5   2  151.48   23.00 
   7  -5  -2  158.08   16.70 
  -7  -5   2  173.18   16.20 
   7  -5  -2  132.79   24.90 
   8   5  -2    5.90    3.50 
  -8   5   2    8.90    3.10 
   8   5  -2    5.50    2.50 
   8  -5   2   12.70    5.20 
   8  -5   2   13.20    2.80 
  -8  -5  -2    6.70    3.20 
   8  -5   2   12.20    2.20 
  -8  -5  -2   28.80  255.97 
  -8  -5   2    6.00    3.40 
   8  -5  -2   10.00    2.70 
   8   5   2    8.10    2.10 
   8   5   2    7.50    2.90 
  -8  -5   2   95.19  235.78 
   8  -5  -2   11.90    2.20 
   0   6   2   20.40    7.20 
   0   6  -2   19.40    4.10 
   0  -6   2   17.50    2.70 
   0  -6   2   13.90    6.00 
   0  -6   2   21.90    5.00 
   0  -6  -2   22.80    7.40 
   0   6   2   29.50    3.80 
   0   6   2   20.50    3.90 
   0  -6  -2   19.30    3.10 
   0   6   2   21.90    2.80 
   0  -6  -2   23.30    3.50 
   0  -6  -2   20.40    3.20 
   0   6  -2   18.80    2.80 
   0  -6  -2   23.00    6.20 
   0   6  -2   30.60    5.00 
   0  -6   2   30.30    5.10 
   0  -6   2   22.80    3.10 
   0  -6   2   26.70    2.50 
  -1  -6  -2  897.21   58.69 
  -1   6   2  849.22   52.49 
   1   6  -2  834.22   53.19 
   1  -6   2  823.02   50.99 
  -1  -6  -2  939.31   62.09 
   1   6  -2  889.11   51.29 
   1  -6   2  943.71   55.39 
  -1  -6  -2  851.01   51.99 
   1   6  -2  834.02   52.69 
  -1   6   2  786.62   55.69 
   1  -6   2  966.20   53.69 
   1  -6   2  967.80   59.49 
   1  -6   2  892.91   58.79 
   1  -6   2  883.41   50.09 
  -1  -6  -2  808.12   51.29 
   1  -6  -2  784.82   51.39 
   1   6   2  875.21   51.19 
   1   6   2  801.02   52.99 
  -1   6  -2  833.32   50.79 
   1  -6  -2  797.82   60.89 
  -1   6  -2  758.02   52.29 
   1   6   2  705.53   64.59 
  -1  -6   2  784.12   59.49 
  -1  -6   2  823.42   54.99 
   1  -6  -2  792.62   55.99 
   1  -6  -2  805.02   51.99 
  -1   6  -2  817.22   52.49 
  -1  -6   2  813.32   51.39 
  -1  -6   2  902.61   54.79 
   1  -6  -2  863.01   50.39 
   1   6   2  790.52   52.39 
   2  -6   2   97.29    7.50 
  -2   6   2  103.99    9.50 
  -2  -6  -2   99.29    9.00 
  -2  -6  -2   96.29   14.40 
   2   6  -2  104.09    8.40 
   2  -6   2  101.89    8.70 
   2   6  -2  102.39   10.00 
   2  -6   2   99.39   14.00 
   2  -6   2   99.19   11.10 
   2  -6   2   93.19   12.30 
   2  -6  -2   96.59   11.50 
   2  -6  -2  117.49   16.00 
  -2  -6   2  118.69   12.20 
  -2  -6   2  110.39    9.40 
   2  -6  -2  111.49    9.00 
  -2   6  -2  116.49    9.80 
   2   6   2  124.09    8.80 
  -2  -6   2  112.99    8.80 
   2   6   2  112.99    9.70 
   2  -6  -2  106.69    7.80 
   2   6   2   94.69   15.20 
   2  -6  -2  113.89    9.60 
  -2   6  -2  129.99   14.10 
   2   6   2  121.29   10.60 
   3   6  -2  165.08   14.20 
   3  -6   2  184.28   11.60 
  -3  -6  -2  177.58   18.90 
  -3   6   2  179.58   13.80 
   3  -6   2  180.18   16.80 
   3  -6   2  158.18   20.40 
   3  -6   2  170.58   13.10 
  -3   6   2  171.38   14.00 
   3  -6   2  165.68   12.60 
   3  -6   2  177.58   18.00 
  -3  -6  -2  167.38   13.40 
  -3  -6  -2  175.98   13.40 
   3   6  -2  176.68   12.50 
   3  -6  -2  183.78   11.80 
   3  -6  -2  155.98   20.70 
   3   6   2  176.98   14.70 
  -3  -6   2  177.88   19.00 
   3   6   2  138.69   22.40 
   3  -6  -2  161.18   12.70 
  -3   6  -2  183.48   13.90 
  -3  -6   2  -42.70  212.28 
  -3  -6   2  169.68   13.90 
   3  -6  -2  171.68   16.50 
   3   6   2  178.78   12.60 
  -3  -6   2  174.68   12.70 
   4   6  -2  282.77   21.50 
  -4  -6  -2   73.79  223.38 
   4  -6   2  277.07   18.20 
   4  -6   2  282.57   20.10 
  -4  -6  -2  285.57   20.10 
   4  -6   2  256.27   25.10 
   4   6  -2  283.07   19.30 
   4  -6   2  267.37   30.00 
   4  -6   2  263.97   24.50 
  -4   6   2  283.77   20.20 
  -4   6   2  253.67   21.30 
  -4  -6  -2  284.17   20.90 
  -4  -6  -2  293.17   27.80 
  -4  -6   2  285.87   28.20 
   4  -6  -2  290.97   31.10 
   4  -6  -2  317.67   24.60 
  -4  -6   2  339.37   21.40 
   4  -6  -2  280.47   19.80 
  -4  -6   2  293.07   19.30 
  -4   6  -2  294.97   20.70 
  -4  -6   2  286.77   21.70 
   4   6   2  295.07   22.10 
   4   6   2  292.57   19.50 
   4  -6  -2  299.37   18.50 
   5  -6   2  679.03   39.40 
   5  -6   2  636.44   45.80 
  -5  -6  -2  667.43   41.30 
  -5   6   2  569.24   38.30 
  -5   6   2  562.24   41.10 
   5  -6   2  572.44   54.59 
   5  -6   2  677.53   37.60 
   5   6  -2  648.64   41.50 
   5   6  -2  621.14   38.70 
  -5  -6  -2  642.54   50.29 
  -5  -6  -2  621.24   38.40 
   5  -6   2  632.84   46.70 
   5  -6  -2  622.04   39.20 
  -5  -6   2  586.24   49.60 
   5  -6  -2  603.44   37.60 
  -5   6  -2  594.84   39.20 
  -5  -6   2  540.15   37.10 
  -5  -6   2  669.03   41.10 
   5  -6  -2  550.04   43.50 
   5   6   2  620.74   38.80 
  -5  -6   2  632.74   41.80 
   5  -6  -2  542.75   52.19 
   5   6   2  610.04   41.60 
   6  -6   2   70.69   17.80 
   6   6  -2   97.69   10.80 
  -6  -6  -2  -11.20  158.68 
   6  -6   2   90.09   12.90 
  -6   6   2   76.99   10.20 
  -6  -6  -2  114.79   11.30 
   6   6  -2   94.89   10.30 
   6  -6   2  104.29    7.70 
  -6  -6  -2   90.89   14.90 
   6  -6   2   83.29   13.30 
  -6  -6   2   86.89  274.47 
   6   6   2  106.19   11.30 
   6  -6  -2   89.39   18.30 
   6  -6  -2  102.89    8.00 
  -6  -6   2   93.29   16.10 
   6   6   2  111.79    9.10 
  -6  -6   2  109.69   10.80 
   6  -6  -2  108.59    9.50 
   6  -6  -2   91.99   12.30 
  -6  -6   2  106.29   11.60 
   7  -6   2    0.90    4.00 
   7   6  -2   -1.30    2.40 
  -7   6   2    0.20    3.30 
  -7  -6  -2    0.20    2.50 
   7  -6   2    0.70    1.20 
   7   6  -2    1.70    1.80 
   7  -6   2    1.00    1.70 
  -7  -6  -2    4.30  283.97 
   7   6   2   -1.60    1.40 
   7  -6  -2    0.10    1.20 
  -7  -6   2    4.10    3.20 
   7  -6  -2    3.80    2.20 
   7  -6  -2   -3.20    4.50 
   7   6   2    2.80    2.70 
  -7  -6   2  -63.29  102.69 
  -8  -6  -2   41.20  197.78 
   8  -6   2   10.80    5.40 
   8  -6   2   17.80    2.50 
   8   6  -2   10.60    2.90 
   8   6  -2    9.20    3.60 
  -8  -6  -2   17.90    4.70 
  -8  -6   2   14.90  157.98 
   8   6   2   11.70    4.50 
   8  -6  -2   20.50    2.90 
   8   6   2   19.90    3.10 
  -8  -6   2   13.80    4.60 
   0   7  -2   15.10    4.10 
   0  -7   2   19.50    3.70 
   0  -7   2   15.90    2.10 
   0   7  -2   15.50    4.00 
   0   7   2   14.40    8.30 
   0  -7  -2   11.70    3.40 
   0   7  -2   20.00    3.10 
   0  -7  -2   14.40    7.00 
   0   7   2   15.60    3.90 
   0   7   2   13.30    3.70 
   0  -7  -2   11.60    5.20 
   0  -7  -2   14.20    3.10 
   0  -7  -2   15.00    2.30 
   0  -7   2   15.30    4.80 
   0  -7   2   14.60    5.30 
   0   7   2   19.10    2.60 
   0  -7   2   17.50    4.90 
  -1  -7  -2  575.74   37.00 
  -1  -7  -2  625.34   44.70 
  -1   7   2  661.63   37.20 
   1  -7   2  570.64   35.90 
   1  -7   2  537.55   43.00 
   1  -7   2  619.44   40.90 
   1  -7   2  595.14   36.70 
  -1   7   2  530.85   40.80 
   1   7  -2  562.24   38.20 
   1  -7   2  556.84   43.80 
  -1  -7  -2  544.35   35.70 
  -1  -7  -2  599.74   46.90 
   1   7  -2  567.84   37.60 
   1   7  -2  564.74   35.80 
  -1   7   2  591.04   37.60 
   1  -7  -2  607.74   42.90 
   1   7   2  550.54   37.50 
   1  -7  -2  567.04   37.00 
  -1  -7   2  581.34   40.80 
   1   7   2  553.44   37.90 
  -1  -7   2  554.44   36.30 
  -1   7  -2  559.94   35.30 
   1  -7  -2  546.35   36.30 
  -1  -7   2  537.95   36.30 
   1  -7  -2  557.94   35.00 
  -1  -7   2  617.74   40.80 
   1  -7  -2  559.54   46.70 
  -1   7  -2  529.35   37.10 
   1   7   2  583.74   35.80 
  -1   7  -2  570.04   37.50 
  -2  -7  -2   82.79    7.90 
  -2  -7  -2   82.09    7.30 
   2  -7   2   79.69   11.60 
   2  -7   2   85.39   10.40 
   2  -7   2   78.99    6.00 
   2   7  -2   68.89    8.00 
  -2   7   2   71.29    8.00 
   2  -7   2   72.29    7.00 
   2   7  -2   94.59    7.40 
   2  -7   2   77.19   12.60 
  -2  -7  -2   71.89   13.50 
   2   7  -2   83.99    9.10 
  -2   7   2   77.19    8.10 
   2  -7   2   75.99    7.60 
   2   7   2   51.69   17.40 
   2   7   2   72.79    8.70 
  -2  -7   2   67.19    7.00 
   2   7   2   76.59    6.90 
   2  -7  -2   69.19   13.10 
  -2  -7   2   72.39    7.70 
  -2  -7   2   74.79   10.30 
   2  -7  -2   67.29    7.70 
   2  -7  -2   77.39    6.40 
   2   7   2   72.29    7.90 
   2  -7  -2   73.99   10.70 
  -2   7  -2   65.79    7.60 
   2  -7  -2   67.69    7.30 
   3   7  -2  335.37   24.10 
   3  -7   2  344.17   23.10 
   3  -7   2  336.37   25.00 
  -3  -7  -2  340.97   25.00 
   3  -7   2  335.07   30.90 
  -3  -7  -2  352.56   25.40 
   3  -7   2  373.36   29.50 
   3  -7   2  348.67   34.30 
  -3  -7  -2  342.07   32.10 
  -3   7   2  382.76   26.00 
  -3  -7   2  383.76   24.70 
   3  -7  -2  379.96   29.90 
  -3  -7   2  410.56   33.70 
   3  -7  -2  364.06   35.90 
   3  -7  -2  398.16   26.20 
   3  -7  -2  399.66   23.60 
   3   7   2  395.26   24.50 
  -3   7  -2  410.96   26.40 
  -3  -7   2  397.76   26.30 
   3   7   2  344.97   26.20 
  -4  -7  -2  102.19    9.50 
   4  -7   2  119.49   14.40 
  -4  -7  -2   81.79   14.30 
   4  -7   2   97.99   16.60 
  -4   7   2  102.49    9.70 
   4  -7   2  111.59    9.40 
   4   7  -2  106.99   11.30 
  -4  -7  -2  -27.10   78.89 
   4   7  -2  108.89    9.00 
   4  -7   2  113.19    8.00 
  -4  -7  -2  107.29   10.10 
   4  -7   2  100.09   14.20 
   4   7   2  104.09    9.00 
  -4   7  -2  102.59    9.80 
  -4  -7   2   97.89    8.70 
   4  -7  -2  103.89    8.10 
   4  -7  -2   85.59   12.30 
   4   7   2  103.99   11.20 
  -4  -7   2   93.39  263.67 
  -4  -7   2   92.89   10.40 
   4  -7  -2   97.29    9.40 
   4  -7  -2   84.89   16.30 
  -4  -7   2   95.29   15.30 
  -5  -7  -2   15.60    6.80 
   5  -7   2   17.60    8.00 
   5  -7   2   10.80    2.90 
   5  -7   2    9.30    4.90 
  -5   7   2   17.90    3.40 
  -5  -7  -2   12.80    2.90 
  -5  -7  -2   14.90    4.70 
   5  -7   2   21.30    6.20 
  -5  -7  -2   66.29  308.47 
   5   7  -2   11.20    2.80 
   5   7  -2   12.20    4.10 
   5  -7  -2    8.20    5.10 
  -5  -7   2   10.20    7.70 
   5   7   2    3.40    2.90 
  -5  -7   2    5.20    2.00 
   5  -7  -2    9.10    2.40 
  -5  -7   2   12.40    6.20 
   5  -7  -2    5.10    2.60 
   5  -7  -2    3.60    6.60 
  -5  -7   2  100.49  267.47 
   5   7   2    6.80    2.50 
  -5   7  -2    5.10    2.70 
   6  -7   2    4.60    7.30 
  -6  -7  -2  -20.40  131.89 
  -6  -7  -2   11.50    6.50 
  -6  -7  -2    9.80    3.80 
   6  -7   2    7.20    4.90 
   6  -7  -2    9.90    5.50 
  -6  -7   2 -110.49  118.19 
   6  -7  -2    9.00    9.40 
  -6  -7   2   10.20    8.60 
  -7  -7  -2    3.30    2.80 
   7  -7   2    6.20    2.30 
   7  -7   2    5.20    4.40 
   7  -7   2    2.20    1.60 
   7   7  -2    5.80    3.10 
   7   7  -2    4.10    2.80 
  -7  -7  -2    9.70  194.68 
   7   7   2    6.00    2.50 
   7  -7  -2    2.30    1.50 
  -7  -7   2    9.80    4.20 
   7  -7  -2    6.00    2.90 
   7  -7  -2    7.60    6.00 
   7   7   2    3.40    2.70 
   8   7  -2   39.30    6.10 
   8  -7   2   38.60    4.00 
   8   7  -2   48.10    5.70 
  -8  -7  -2    5.10  111.79 
  -8  -7  -2   33.30    5.40 
   8  -7   2   47.70    5.20 
  -8  -7   2   38.60    6.10 
   8   7   2   33.50    4.00 
  -8  -7   2  -25.70   69.59 
   8  -7  -2   41.50    4.10 
   8   7   2   37.70    5.50 
   8  -7  -2   44.20    5.30 
   0  -8  -2    9.10    2.00 
   0   8   2   15.40    4.20 
   0  -8   2   10.70    4.70 
   0   8   2    8.30    3.20 
   0  -8  -2   15.00    3.80 
   0  -8  -2   11.10    5.70 
   0  -8  -2   15.90    3.40 
   0   8  -2   14.90    3.00 
   0   8  -2   13.50    3.80 
   0  -8   2    9.60    2.10 
   0  -8   2    9.90    5.30 
   0   8   2    3.80    8.10 
   0   8   2   14.00    2.60 
   0  -8  -2   12.60    7.60 
   0  -8   2   11.40    3.10 
   0   8  -2    9.50    3.90 
   0  -8   2   10.00    3.10 
   0  -8   2   17.00    3.40 
   1   8  -2  347.07   25.80 
   1  -8   2  363.16   32.80 
   1  -8   2  324.77   31.00 
   1  -8   2  371.96   24.30 
   1  -8   2  370.06   25.20 
   1   8  -2  348.57   23.90 
  -1   8   2  368.76   26.00 
  -1  -8  -2  355.46   25.40 
  -1  -8  -2  362.56   32.00 
   1  -8   2  359.96   22.80 
   1  -8   2  381.46   29.50 
   1   8  -2  355.26   26.40 
  -1  -8  -2  380.66   34.70 
  -1  -8   2  382.06   30.10 
  -1  -8   2  421.86   25.50 
  -1   8  -2  346.37   23.00 
   1   8   2  289.17   33.10 
   1   8   2  367.56   26.20 
  -1  -8   2  357.16   24.70 
   1  -8  -2  363.56   24.80 
   1   8   2  363.96   23.70 
   1   8   2  375.46   26.20 
   1  -8  -2  363.96   23.10 
  -1   8  -2  369.36   26.00 
   1  -8  -2  378.06   25.80 
   1  -8  -2  343.67   34.90 
  -2  -8  -2  940.81   63.49 
   2  -8   2  989.30   58.99 
  -2  -8  -2  978.80   70.79 
  -2  -8  -2 1027.80   60.79 
   2  -8   2  939.31   59.69 
   2   8  -2  906.31   60.59 
   2   8  -2  965.90   58.59 
  -2   8   2  922.01   60.49 
   2   8  -2  984.70   61.69 
   2  -8   2  974.50   57.39 
   2  -8   2  892.91   68.79 
   2  -8  -2  979.50   66.39 
   2   8   2  974.30   58.49 
   2  -8  -2 1012.70   60.69 
   2   8   2  954.40   60.99 
   2   8   2  935.11   61.09 
   2  -8  -2  996.20   59.59 
   2  -8  -2  800.22   70.29 
  -2   8  -2  984.90   60.59 
   2  -8  -2  983.20   57.79 
  -2  -8   2  965.20   59.79 
  -2  -8   2  897.81   64.99 
   3   8  -2  321.77   25.90 
   3  -8   2  277.87   31.70 
  -3  -8  -2  321.67   34.40 
   3  -8   2  294.97   30.40 
   3  -8   2  358.26   29.50 
   3   8  -2  323.97   23.20 
  -3   8   2  339.07   25.00 
   3  -8   2  348.47   23.80 
   3  -8   2  325.57   24.20 
  -3  -8  -2  327.17   24.50 
  -3  -8  -2  341.47   23.90 
  -3   8  -2  382.56   25.40 
   3  -8  -2  390.76   24.70 
  -3  -8   2  362.76   25.10 
   3  -8  -2  332.27   29.60 
   3  -8  -2  297.57   39.00 
   3  -8  -2  367.56   25.40 
   3   8   2  377.16   26.40 
   3   8   2  376.56   23.60 
   3  -8  -2  378.16   22.80 
   3   8   2  331.57   25.20 
  -3  -8   2  375.56   33.50 
  -3  -8   2  369.66   24.00 
   4  -8   2  122.69   10.40 
   4  -8   2  138.79   11.30 
   4  -8   2  105.19   18.70 
  -4  -8  -2  112.69   17.60 
  -4  -8  -2  -59.89  135.89 
  -4  -8  -2  123.49   11.40 
   4   8  -2  126.39   11.20 
   4  -8   2  109.39   14.70 
   4  -8   2  106.09   15.80 
  -4   8   2  125.19   11.60 
   4   8  -2  121.49   13.10 
  -4  -8  -2  137.49   11.80 
  -4  -8   2  128.09   19.00 
  -4   8  -2  130.79   12.10 
   4  -8  -2  111.89   20.50 
  -4  -8   2   33.10  203.88 
  -4  -8   2  145.49   13.50 
   4  -8  -2  136.59   16.40 
   4   8   2  135.99   11.70 
  -4  -8   2  125.79   10.60 
   4  -8  -2  157.58   12.20 
   4   8   2  145.99   13.70 
   4  -8  -2  112.79   11.00 
  -5   8   2   68.49    7.00 
   5   8  -2   77.09    9.90 
   5   8  -2   64.79    7.10 
  -5  -8  -2   72.19    8.20 
  -5  -8  -2   62.69    6.70 
   5  -8   2   72.99    6.20 
   5  -8   2   76.99    7.80 
   5  -8   2   65.29   11.00 
  -5  -8   2   74.39    8.90 
   5  -8  -2   70.59    8.10 
   5   8   2   63.59    6.90 
  -5   8  -2   63.39    7.20 
   5  -8  -2   47.80   18.40 
   5  -8  -2   68.39    6.40 
   5  -8  -2   57.69   10.30 
   5   8   2   78.49    9.70 
  -5  -8   2   55.89    5.70 
   6   8  -2   81.89   10.70 
   6  -8   2   88.59   12.70 
  -6  -8  -2   94.69   10.00 
   6   8  -2   90.79    8.60 
   6  -8   2  102.29    9.50 
   6   8   2   98.39    8.80 
   6   8   2  102.19   11.20 
   6  -8  -2  119.39   10.30 
   6  -8  -2  105.69    8.40 
  -6  -8   2  104.49   11.10 
  -6  -8   2   66.49  190.58 
   7  -8   2    6.80    3.50 
   7  -8   2    5.80    1.90 
  -7  -8  -2    6.10    2.60 
   7  -8   2    3.30    4.70 
   7   8  -2    7.60    2.30 
  -7  -8   2   13.80  122.89 
   7   8   2    7.50    2.10 
  -7  -8   2    4.70    3.00 
   7  -8  -2    5.20    1.90 
   0  -9   2  818.82   50.89 
   0  -9  -2  749.73   62.99 
   0  -9  -2  748.53   49.10 
   0   9  -2  832.32   52.69 
   0   9  -2  835.02   53.19 
   0  -9  -2  886.71   53.09 
   0   9   2  831.32   49.60 
   0   9   2  856.81   53.39 
   0   9  -2  791.52   49.99 
   0  -9   2  835.92   58.19 
   0   9   2  864.81   53.39 
   0  -9  -2  675.53   77.49 
   0  -9   2  864.01   52.29 
   1  -9   2    9.30    3.00 
   1  -9   2    5.20    6.60 
   1   9  -2    4.70    3.30 
  -1  -9  -2    8.20    3.10 
   1   9  -2    5.50    2.20 
   1   9  -2   13.20    3.80 
   1  -9   2    5.50    2.90 
  -1  -9  -2    3.80    4.70 
  -1  -9  -2    3.60    7.20 
   1  -9   2    8.20    2.20 
  -1   9   2    5.70    2.40 
  -1   9  -2   10.40    3.70 
  -1  -9   2   14.50    3.70 
   1   9   2   14.00    4.20 
   1  -9  -2    2.40    5.80 
   1  -9  -2    3.90    5.00 
   1  -9  -2   11.20    2.40 
   1  -9  -2    6.40    3.10 
   1   9   2    8.40    3.70 
   1  -9  -2    4.40    2.90 
  -1  -9   2   10.70    4.90 
   1   9   2    8.40    2.20 
   2  -9   2    6.60    2.80 
   2   9  -2    3.80    2.20 
  -2  -9  -2    2.30    5.50 
   2  -9   2    3.80    2.60 
  -2   9   2    2.80    2.40 
   2  -9   2   -1.10    3.00 
  -2  -9  -2   10.00    2.70 
   2  -9   2    5.10    1.80 
   2   9  -2    4.50    3.20 
   2  -9   2    3.10    6.50 
   2  -9   2    1.30    3.20 
   2   9  -2    4.10    2.60 
  -2  -9  -2    5.30    2.90 
   2   9   2    1.60    2.40 
   2   9   2    5.50    2.30 
   2  -9  -2   -2.30    5.60 
   2  -9  -2    9.80    5.30 
   2  -9  -2    4.20    3.10 
   2   9   2    5.10    2.80 
  -2  -9   2    5.50    2.50 
   2  -9  -2    3.60    1.90 
  -2  -9   2    5.20    3.10 
  -2   9  -2    4.40    2.80 
   2  -9  -2    6.10    2.90 
   3  -9   2   42.70    5.70 
  -3  -9  -2    6.30  130.79 
   3   9  -2   25.90    5.90 
   3  -9   2   37.50    4.30 
   3  -9   2   29.20    7.80 
  -3   9   2   44.50    6.30 
   3  -9   2   25.50   10.20 
   3   9  -2   46.30    7.40 
  -3  -9  -2   38.90    9.60 
   3  -9   2   34.90    8.80 
   3   9  -2   40.40    5.10 
  -3  -9  -2   40.80    6.00 
  -3  -9   2   62.59  155.78 
  -3  -9   2   42.00    5.70 
   3   9   2   34.10    4.70 
   3   9   2   30.40    6.00 
  -3  -9   2   29.70    9.80 
   3  -9  -2   33.10   12.20 
   3  -9  -2   38.60    9.10 
  -3   9  -2   38.40    5.80 
   3  -9  -2   48.10    6.40 
  -3  -9   2   41.80    6.30 
   3  -9  -2   37.50    4.60 
   3  -9  -2   34.50    9.70 
   3   9   2   42.20    7.00 
  -4  -9  -2  660.33   59.59 
  -4   9   2  802.72   51.29 
  -4  -9  -2  725.43   50.59 
   4  -9   2  747.83   56.79 
  -4  -9  -2  782.12   50.19 
   4   9  -2  871.01   56.19 
   4  -9   2  837.82   48.70 
   4   9  -2  832.82   50.09 
  -4  -9   2  706.63   49.60 
   4  -9  -2  697.53   56.49 
  -4  -9   2  118.09  320.57 
   4  -9  -2  888.91   51.99 
  -4  -9   2  782.32   61.79 
  -4   9  -2  892.71   51.79 
   4   9   2  850.21   57.59 
   4   9   2  831.92   49.70 
  -4  -9   2  850.31   51.99 
  -5   9   2   11.60    3.00 
  -5  -9  -2   10.50    3.40 
   5   9  -2   10.30    2.80 
  -5  -9  -2  -29.80  125.69 
   5  -9   2   10.60    2.50 
   5   9  -2    5.70    3.70 
   5  -9   2    8.20    4.80 
  -5  -9  -2    8.00    2.70 
   5  -9   2   11.40    3.20 
  -5   9  -2   11.20    2.90 
   5  -9  -2   14.60    2.90 
  -5  -9   2   10.60    3.90 
   5  -9  -2   10.00    3.40 
  -5  -9   2   47.90  204.48 
  -5  -9   2    5.60    2.50 
   5   9   2   10.70    2.80 
   5   9   2    8.60    3.80 
   5  -9  -2    7.70    4.20 
   6   9  -2   34.30    6.50 
   6  -9   2   27.10    3.60 
  -6  -9  -2    8.90  154.18 
   6  -9   2   25.80    4.90 
  -6  -9  -2   28.10    4.60 
   6   9  -2   16.70    3.50 
   6  -9  -2   28.20    3.90 
   6   9   2   22.50    3.60 
   6   9   2   34.20    6.10 
  -6  -9   2   28.00    5.30 
   6  -9  -2   32.00    5.50 
  -6  -9   2   57.29  191.08 
   0  10  -2   98.69    9.90 
   0 -10  -2   57.19   15.80 
   0 -10   2   73.29    8.20 
   0 -10  -2   88.89    9.40 
   0  10  -2   81.79    6.70 
   0 -10   2   77.49   12.30 
   0 -10  -2   65.89   12.60 
   0 -10   2   89.69    9.00 
   0  10   2   91.39    9.60 
   0  10   2   79.29    6.30 
   1 -10   2  108.29    8.80 
   1 -10   2  127.69   16.20 
   1  10  -2  132.29   12.50 
   1 -10   2  129.99   11.80 
   1  10  -2  141.79   12.80 
  -1 -10  -2  136.59   12.40 
  -1  10   2  132.29   12.30 
   1  10  -2  120.69    9.80 
   1 -10  -2  129.79   11.80 
   1  10   2  118.99    9.40 
   1 -10  -2  140.49   12.50 
  -1 -10   2  130.39   11.60 
   1  10   2  135.39   12.00 
   1 -10  -2   88.99   18.40 
  -1  10  -2  124.39   12.10 
   1 -10  -2  120.89   17.10 
   1 -10  -2  112.79    9.10 
  -1 -10   2  126.09   10.90 
   1  10   2  130.69   12.30 
  -1 -10   2  121.19   16.20 
   2 -10   2  129.69    9.60 
   2  10  -2  129.39   12.10 
  -2  10   2  133.69   12.40 
  -2 -10  -2  116.59   19.70 
   2  10  -2  128.59   10.50 
   2  10  -2  136.59   13.40 
   2 -10   2  110.79   15.40 
   2 -10   2  127.09   11.90 
  -2 -10  -2  135.19   12.50 
  -2 -10  -2    5.70  144.99 
   2 -10   2  136.89   11.80 
  -2  10  -2  133.89   12.60 
  -2 -10   2  128.69   11.60 
  -2 -10   2  141.79   20.90 
  -2 -10   2 -127.79  140.69 
   2 -10  -2  112.69   16.60 
   2  10   2  136.99   12.60 
   2 -10  -2  113.49    9.60 
   2  10   2  141.99   13.00 
   2  10   2  130.89   10.10 
   2 -10  -2  129.39   12.50 
  -2 -10   2  129.69   11.40 
   2 -10  -2  148.89   12.50 
   2 -10  -2   94.09   22.00 
  -3  10   2  434.26   29.60 
  -3 -10  -2  403.96   27.00 
   3 -10   2  368.06   33.80 
   3  10  -2  416.46   27.50 
   3  10  -2  417.66   30.20 
   3 -10   2  420.86   29.20 
   3 -10   2  405.76   26.30 
   3  10  -2  374.26   29.20 
  -3 -10  -2  407.56   29.10 
   3 -10   2  459.05   28.60 
   3 -10  -2  364.56   34.20 
   3 -10  -2  415.66   26.70 
  -3 -10   2  442.16   28.90 
   3 -10  -2  444.16   28.80 
   3  10   2  379.46   29.50 
  -3 -10   2  413.96   28.30 
   3 -10  -2  418.96   29.90 
   3  10   2  424.26   29.70 
  -3  10  -2  442.86   29.50 
   3  10   2  425.56   27.10 
   4 -10   2   14.80    4.00 
  -4 -10  -2   65.69  183.08 
   4 -10   2   10.90    4.30 
   4  10  -2   19.60    4.90 
  -4 -10  -2   14.10    3.60 
   4  10  -2   15.60    3.50 
  -4  10   2   21.60    4.30 
   4 -10   2   13.00    2.60 
  -4 -10   2   18.00    4.30 
   4 -10  -2   14.80    3.10 
   4 -10  -2   16.80    6.40 
   4  10   2   21.60    3.70 
   4 -10  -2   20.20    4.40 
  -4  10  -2   25.50    4.20 
   4  10   2   23.80    5.10 
  -4 -10   2   18.30    3.60 
  -4 -10   2   33.30  168.18 
  -5 -10  -2   48.30  175.28 
   5 -10   2    3.30    2.40 
  -5 -10  -2    0.20    1.70 
   5 -10   2   -1.40    3.50 
   5  10  -2    4.00    2.00 
  -5  10   2    3.80    1.80 
   5 -10   2    2.10    1.70 
   5  10  -2    0.90    2.70 
  -5 -10  -2    1.80    2.00 
  -5 -10   2    5.50    3.20 
   5  10   2    0.10    2.40 
  -5 -10   2  -57.89  101.19 
  -5  10  -2    4.30    1.80 
   5  10   2    2.60    1.60 
   5 -10  -2    2.20    7.10 
   5 -10  -2    0.70    2.40 
   5 -10  -2    3.80    1.60 
   0 -11   2    3.20    4.70 
   0  11   2    0.00    1.80 
   0  11  -2    2.50    1.90 
   0 -11   2    3.00    2.40 
  -1  11   2   79.09    8.60 
   1 -11   2   73.59    8.50 
  -1 -11  -2   73.59    8.70 
   1  11  -2   65.19    5.90 
   1  11  -2   72.79    8.40 
   1 -11   2   52.39   10.90 
   1  11   2   72.19    5.90 
  -1  11  -2   82.39    8.70 
  -1 -11   2   73.59    8.10 
   1  11   2   92.99    9.40 
   1 -11  -2   73.89    8.70 
   1 -11  -2   69.89   12.10 
  -2 -11  -2  -38.80  146.89 
  -2  11   2   43.80    6.20 
   2 -11   2   23.30    7.20 
   2  11  -2   37.10    6.50 
   2 -11   2   26.50    3.70 
  -2 -11  -2   44.00    6.10 
   2 -11   2   41.70    5.80 
   2  11  -2   37.00    4.20 
  -2 -11   2   37.00  182.08 
   2 -11  -2   27.50    3.90 
  -2  11  -2   39.30    5.70 
   2 -11  -2   40.50    6.10 
  -2 -11   2   38.50    5.50 
   2 -11  -2   32.90    9.40 
   2  11   2   34.80    6.70 
   2  11   2   41.20    6.60 
   2  11   2   33.30    3.80 
  -2 -11   2   43.30    7.00 
   3 -11   2   43.40    6.10 
  -3 -11  -2   34.70    7.20 
   3 -11   2   53.39    9.90 
   3  11  -2   37.40    5.00 
   3  11  -2   51.79    6.70 
   3 -11   2   29.90    3.90 
  -3 -11  -2   59.79  254.17 
   3  11  -2   39.20    8.60 
  -3  11   2   45.00    6.30 
   3 -11  -2   40.30    4.20 
   3  11   2   36.80    6.00 
   3 -11  -2   49.70   10.50 
   3  11   2   43.60    6.20 
  -3 -11   2   45.20    5.70 
  -3 -11   2   75.29  178.38 
  -3 -11   2   32.10    6.70 
   3  11   2   40.40    4.60 
  -3  11  -2   41.30    5.90 
   3 -11  -2   27.50    8.50 
   3 -11  -2   39.20    6.10 
  -4 -11  -2    0.30    1.40 
   4  11  -2   -0.60    1.10 
  -4 -11  -2   36.30  145.29 
   4 -11   2   -0.40    2.50 
  -4  11   2    0.60    1.30 
   4 -11   2    0.40    3.20 
   4 -11   2    0.20    1.10 
   4  11  -2   -1.90    2.20 
   4  11   2    0.70    1.00 
   4 -11  -2    3.00    3.00 
  -4 -11   2  -17.30   93.09 
  -4 -11   2    0.70    2.00 
   4  11   2   -2.00    1.90 
   4 -11  -2    1.50    3.50 
  -4 -11   2   -0.30    1.40 
  -4  11  -2   -0.30    1.30 
   4 -11  -2    0.30    1.20 
   0 -12   2   -1.60    1.80 
   0  12   2    2.20    1.90 
   0 -12  -2    2.30    2.10 
   0  12  -2    0.30    1.70 
  -1 -12  -2   17.90    4.10 
  -1 -12  -2   -6.50  103.29 
   1 -12   2   10.60    5.50 
   1  12  -2   25.60    4.30 
   1 -12   2   23.80    4.80 
  -1  12   2   19.30    4.00 
   1  12   2   21.40    4.40 
  -1  12  -2   17.10    3.60 
  -1 -12   2    7.40  104.69 
   1 -12  -2   29.30    4.90 
  -1 -12   2   26.50    5.00 
   2 -12   2    0.90    2.00 
  -2 -12  -2    3.40    2.10 
   2  12  -2    4.60    1.40 
  -2 -12  -2  -10.00  136.99 
  -2  12   2    1.80    1.70 
   2  12  -2    3.70    2.00 
  -2  12  -2    3.40    1.80 
  -2 -12   2  -22.10   81.79 
  -2 -12   2    3.00    1.90 
   2 -12  -2    5.00    2.60 
   2 -12  -2    5.50    4.30 
   2  12   2    0.00    2.00 
  -3   0  -3  173.98   22.80 
   3   0   3  192.78   16.90 
  -3   0  -3  169.88   13.40 
   3   0   3  164.28   11.50 
   3   0  -3  178.98   14.60 
  -3   0   3  169.18   12.90 
   3   0  -3  167.48   13.70 
  -4   0   3  120.59   10.80 
   4   0   3  120.19    8.50 
  -4   0  -3  129.09   11.50 
  -4   0  -3   44.20  114.69 
   4   0  -3  120.29   11.90 
   4   0  -3  115.09   11.10 
  -4   0  -3  111.39    8.90 
  -4   0  -3  111.39   12.00 
   4   0   3  128.09   14.00 
  -5   0  -3 1371.16   98.59 
  -5   0  -3 1643.24   89.89 
  -5   0   3 1343.07   87.49 
  -5   0   3 1539.55   91.69 
   5   0  -3 1543.65   93.19 
  -5   0  -3 1460.65   87.79 
   5   0  -3 1323.47   85.69 
   5   0   3 1258.37  102.49 
   5   0  -3 1546.55   95.49 
   5   0  -3 1462.35   91.99 
   5   0   3 1562.14   97.09 
  -5   0   3 1545.65   91.59 
   6   0  -3  142.99   12.30 
  -6   0   3   15.30  137.09 
   6   0   3  196.08   21.50 
   6   0   3  189.88   12.50 
   6   0   3  155.18   30.20 
  -6   0  -3  206.78   15.50 
  -6   0  -3   -8.80  129.69 
  -6   0  -3  177.48   17.60 
  -6   0   3  184.88   16.90 
   6   0  -3  177.18   17.90 
  -6   0  -3  171.48   13.30 
  -6   0   3  160.68   12.90 
  -6   0   3  185.48   16.90 
  -7   0   3    9.10    5.30 
  -7   0  -3   11.50    3.30 
   7   0   3   17.30    3.00 
  -7   0   3   11.80    4.90 
   7   0   3    9.30    4.50 
  -7   0   3   13.00    3.20 
  -7   0   3   38.40  144.99 
  -7   0  -3   35.50  198.58 
  -7   0  -3   11.50    5.50 
  -8   0  -3    4.80    2.20 
  -8   0   3  -56.09   45.30 
  -8   0  -3  -44.20  110.19 
   8   0   3    2.80    1.80 
  -8   0   3    1.10    2.70 
  -9   0  -3  123.49  260.57 
   0  -1   3 1261.07   77.79 
   0  -1   3 1283.37   76.79 
   0   1  -3 1215.48   77.99 
   0  -1  -3 1240.48   78.49 
   0   1   3 1310.27   78.19 
   0  -1  -3 1327.77   80.09 
  -1   1   3 1754.72   99.39 
  -1   1   3 1663.63  101.49 
  -1  -1  -3 1824.42  105.99 
   1  -1   3 1706.73  102.89 
  -1  -1  -3 1652.93  104.69 
   1   1  -3 1551.64  102.09 
   1  -1   3 1658.73  102.79 
   1   1  -3 1617.34  101.09 
   1  -1  -3 1633.94   99.99 
  -1   1  -3 1693.23  103.69 
   1   1   3 1776.72  108.69 
  -1  -1   3 1584.84   99.39 
   1  -1  -3 1875.91  104.39 
   1  -1  -3 1763.22  101.99 
  -2  -1  -3 2942.31  188.68 
   2  -1   3 3277.77  185.78 
   2   1  -3 2640.84  183.98 
  -2   1   3 3053.19  181.88 
   2   1  -3 3091.79  182.68 
   2  -1   3 2676.63  180.98 
   2   1   3 3344.57  187.98 
  -2   1  -3 3272.57  188.08 
   2  -1  -3 3261.87  181.78 
   2  -1  -3 3265.17  183.28 
   2  -1  -3 3379.46  186.58 
   2   1   3 2880.61  181.48 
  -2   1  -3 3357.76  182.68 
   3   1  -3  166.98   13.00 
  -3  -1  -3  155.38   18.40 
   3  -1   3  156.18   11.50 
   3  -1   3  182.48   16.00 
  -3   1   3  156.28   12.80 
  -3  -1  -3  174.68   14.10 
   3  -1   3  169.88   16.50 
  -3  -1   3  168.58   15.80 
   3  -1  -3  198.28   12.60 
   3   1   3  205.58   18.40 
  -3   1  -3  199.18   18.80 
   3   1   3  185.18   14.20 
   3  -1  -3  202.58   13.50 
   4   1  -3 2413.36  144.59 
  -4  -1  -3 2198.28  143.49 
   4   1  -3 2155.48  147.19 
   4  -1   3 2593.04  149.29 
   4   1  -3 2050.99  141.39 
  -4   1   3 2335.37  144.89 
  -4  -1  -3 2756.62  145.09 
  -4  -1  -3 2361.36  146.79 
  -4   1   3 2345.57  147.09 
   4  -1   3 2294.57  142.19 
   4   1   3 2684.23  153.28 
  -4  -1   3 2446.46  149.39 
  -4  -1   3 2609.34  146.79 
   4   1   3 2503.75  142.79 
  -4   1  -3 2418.26  159.58 
   4  -1  -3 2663.53  150.18 
  -4   1  -3 2327.57  142.69 
   4  -1  -3 2648.83  143.29 
   5  -1   3  317.57   20.90 
  -5  -1  -3  364.46   24.00 
  -5  -1  -3  324.87   22.20 
  -5   1   3  322.87   25.10 
   5   1  -3  289.27   20.00 
   5  -1   3  339.87   27.70 
   5  -1   3  374.06   39.90 
  -5   1   3   81.99  166.98 
  -5   1   3  345.77   24.70 
   5   1  -3  324.67   23.20 
   5   1  -3  264.97   28.90 
  -5   1  -3  329.07   21.60 
   5  -1  -3  356.86   28.90 
  -5   1  -3  355.86   23.30 
   5   1   3  327.87   22.70 
  -5  -1   3  342.97   25.70 
  -5  -1   3  318.37   22.30 
  -5   1  -3  323.97   26.50 
   5  -1  -3  347.27   23.50 
  -5  -1   3  362.26   25.40 
   5  -1  -3  315.87   20.20 
   5   1   3  338.77   30.80 
   6  -1   3  423.36   34.90 
   6   1  -3  342.37   23.40 
   6   1  -3  364.56   46.80 
  -6  -1  -3  445.56   28.40 
  -6  -1  -3  390.66   26.00 
   6  -1   3  413.06   32.60 
  -6   1   3  391.86   29.80 
  -6  -1  -3  395.26   31.20 
  -6   1   3  414.86   29.50 
   6  -1   3  384.36   24.40 
  -6  -1   3  347.37   26.00 
   6   1   3  380.56   24.80 
  -6  -1   3  398.56   29.50 
   6  -1  -3  338.47   23.50 
  -6   1  -3  360.46   25.00 
  -6   1  -3  425.66   30.60 
  -6   1  -3  385.06   27.10 
   6   1   3  351.36   34.70 
  -6  -1   3  392.76   30.20 
   6   1   3  367.46   34.90 
  -6   1  -3  104.99  207.98 
   7  -1   3   27.90    7.50 
   7  -1   3   34.50    4.50 
  -7   1   3   20.70  117.19 
  -7   1   3   36.00    7.60 
  -7  -1  -3   42.20    9.20 
  -7  -1  -3   39.40    5.60 
  -7  -1  -3   35.00  175.38 
  -7  -1   3   55.49    8.80 
  -7   1  -3   47.70  152.58 
   7  -1  -3   51.89    4.50 
  -7  -1   3 -118.49   97.69 
   7   1   3   50.89    5.30 
  -7   1  -3   51.39    5.70 
  -7  -1   3   53.09    9.50 
   7   1   3   64.59   12.90 
  -7  -1   3   54.89    6.00 
  -8   1   3    7.80  210.68 
  -8  -1  -3  187.08   21.40 
  -8  -1  -3  234.68   16.90 
  -8   1   3  198.68   20.30 
   8  -1   3  230.88   15.00 
  -8  -1  -3   13.00  245.98 
  -8  -1   3  213.18   15.80 
  -8  -1   3  229.78   20.70 
   8   1   3  219.48   15.20 
  -8  -1   3    7.40  148.99 
  -8   1  -3  220.98   16.00 
  -8  -1   3  204.68   22.80 
  -9  -1  -3   63.79    6.60 
  -9   1   3   47.10    8.10 
  -9  -1  -3   -6.80  126.09 
   9  -1   3   43.90    4.70 
  -9  -1   3   61.59    8.70 
  -9   1  -3    8.50   99.29 
  -9  -1   3    9.10  113.79 
   0  -2  -3   74.79    9.60 
   0  -2   3   59.19    6.30 
   0   2  -3   58.39    7.00 
   0  -2  -3   56.69    7.20 
   0  -2  -3   54.59    6.00 
   0   2   3   57.49    7.10 
   1   2  -3 4046.20  266.07 
   1  -2   3 3851.91  265.67 
   1   2  -3 4221.48  269.77 
  -1   2   3 4338.87  268.07 
  -1  -2  -3 4412.36  267.07 
   1  -2   3 4734.83  269.57 
  -1  -2  -3 4374.16  272.37 
   1   2   3 4479.05  266.67 
  -1   2  -3 4780.92  270.87 
  -1  -2   3 5247.88  269.37 
   1   2   3 5226.08  272.97 
   1  -2  -3 5168.28  268.17 
   1  -2  -3 4265.47  266.07 
   1  -2  -3 4949.50  269.27 
   2   2  -3  777.32   48.30 
  -2  -2  -3  799.02   52.49 
   2   2  -3  743.83   43.40 
  -2  -2  -3  798.12   45.90 
   2  -2   3  746.73   43.30 
   2  -2   3  844.02   47.70 
   2  -2  -3  702.43   49.30 
   2  -2  -3  615.94   43.10 
   2  -2  -3  698.93   44.70 
  -2  -2   3  692.43   45.20 
   2  -2  -3  685.93   44.60 
   2   2   3  703.53   50.09 
  -2   2  -3  638.34   48.30 
   2   2   3  715.33   44.60 
  -3  -2  -3  147.29   14.20 
   3  -2   3  178.88   16.70 
   3  -2   3  185.68   15.50 
   3  -2   3  150.58   11.70 
   3   2   3  187.58   19.00 
   3  -2  -3  202.18   13.60 
   3  -2  -3  168.18   11.60 
  -3   2  -3  191.98   18.30 
   3  -2  -3  207.48   18.40 
   3   2   3  184.38   12.70 
  -3  -2   3  193.28   14.80 
  -4  -2  -3   35.70    6.10 
  -4   2   3   33.50    5.30 
   4  -2   3   30.30    3.30 
  -4  -2  -3    8.40   83.29 
   4  -2   3   27.50    6.30 
  -4   2   3   13.70   91.89 
   4  -2   3   30.90    5.70 
   4   2  -3   31.50    3.00 
  -4  -2  -3   32.80    4.10 
   4   2   3   46.80    9.50 
   4  -2  -3   30.70    4.40 
  -4   2  -3   36.90    3.80 
   4  -2  -3   30.00    3.10 
  -4  -2   3   26.30    5.00 
  -4   2  -3   21.70   83.49 
   4  -2  -3   40.70    8.00 
  -4  -2   3   11.00   86.29 
  -4   2  -3   31.00    3.70 
  -4   2  -3   31.80    9.00 
  -4  -2   3   39.20    5.40 
   4   2   3   29.20    4.00 
  -4  -2   3   31.00    5.60 
   5   2  -3 1382.16   89.29 
  -5   2   3 1529.75   94.89 
   5  -2   3 1469.65   88.99 
  -5  -2  -3 1496.15   91.49 
  -5  -2  -3 1599.94   97.39 
   5  -2   3 1573.24   96.09 
   5  -2   3 1477.95   89.79 
   5   2   3 1558.24  104.19 
  -5   2  -3 1405.36   90.09 
  -5  -2   3 1567.04   94.09 
   5  -2  -3 1574.44  101.29 
  -5   2  -3 1595.84   89.69 
  -5   2  -3 1612.94   91.89 
   5  -2  -3 1511.35   91.99 
  -5  -2   3 1439.46   91.89 
   5   2   3 1529.85   90.89 
  -6   2   3   37.50  154.78 
  -6  -2  -3  187.88   18.50 
  -6  -2  -3  179.28   13.70 
  -6  -2  -3  -23.50  178.08 
   6  -2   3  175.28   11.70 
  -6   2   3  175.48   16.50 
   6   2  -3  159.98   24.70 
   6  -2   3  178.08   19.50 
   6   2  -3  164.18   11.30 
   6  -2   3  169.78   10.80 
  -6  -2   3  -32.80  117.89 
  -6   2  -3  126.79   15.60 
   6   2   3  163.48   12.50 
   6  -2  -3  155.28   11.20 
  -6  -2   3  168.78   15.70 
  -6  -2   3  169.88   17.30 
   6  -2  -3  137.99   19.50 
  -6   2  -3   34.50  183.98 
  -6   2  -3  152.18   12.00 
  -6  -2   3  150.98   13.40 
  -7  -2  -3  -38.10  107.19 
   7  -2   3   30.10    3.90 
   7  -2   3   29.40    3.00 
  -7   2   3   45.60  157.18 
  -7  -2  -3   34.20    5.20 
   7   2  -3   21.60    4.40 
  -7  -2  -3   19.40    7.00 
  -7   2   3   24.60    6.80 
  -7  -2   3   35.20    7.10 
  -7  -2   3    2.20  113.69 
  -7   2  -3   33.10    4.40 
   7   2   3   19.50    7.00 
   7   2   3   33.80    4.70 
  -7   2  -3  -29.50  142.39 
  -7  -2   3   26.40    8.40 
  -7  -2   3   32.50    5.40 
   7  -2  -3   39.10   13.00 
   7  -2  -3   36.60    4.10 
  -8   2   3   18.10    6.10 
   8  -2   3   15.50    3.00 
  -8  -2  -3   39.30  198.48 
  -8  -2  -3   22.40    5.20 
   8  -2   3   15.90    2.40 
   8   2   3   25.90    4.10 
   8  -2  -3   17.90    3.10 
  -8  -2   3   21.50    4.60 
  -8   2  -3   32.40  191.98 
  -8  -2   3   14.30    5.50 
  -9  -2  -3    6.50   91.49 
  -9   2   3   14.00    4.40 
  -9  -2  -3   27.80    4.60 
  -9  -2   3   11.40   97.39 
   9   2   3   20.80    4.00 
  -9  -2   3   17.20    5.20 
  -9  -2   3   19.80    3.60 
   0  -3  -3   11.50    2.20 
   0   3   3   12.90    4.40 
   0   3  -3    8.00    2.00 
   0   3  -3   13.00    3.30 
   0  -3  -3    9.50    3.30 
   0  -3  -3   13.40    4.80 
   0  -3   3    9.50    2.10 
   0   3   3    8.70    2.00 
  -1  -3  -3 3054.19  166.18 
  -1   3   3 2639.44  158.88 
   1   3  -3 2505.95  156.88 
   1  -3   3 2307.27  155.98 
   1   3  -3 2449.85  161.18 
   1  -3  -3 2970.40  165.78 
   1  -3  -3 2483.05  156.48 
   1   3   3 2628.34  163.28 
  -1  -3   3 2877.31  157.28 
   1   3   3 2664.03  157.38 
  -1   3  -3 2634.84  161.38 
   1  -3  -3 2925.51  159.48 
   2  -3   3 1688.33  114.79 
   2   3  -3 1778.12  115.29 
  -2  -3  -3 2102.59  125.49 
  -2  -3  -3 1856.91  118.09 
   2  -3   3 1898.81  118.49 
  -2   3  -3 1985.40  121.49 
   2  -3  -3 1922.11  115.19 
   2   3   3 2072.99  124.69 
   2  -3  -3 2172.98  117.99 
   2   3   3 2103.29  116.49 
  -2  -3   3 2018.60  119.19 
   3  -3   3 1347.37   82.89 
  -3   3   3 1432.86   86.49 
  -3  -3  -3 1464.55   87.89 
   3  -3   3 1470.95   86.99 
   3   3  -3 1338.57   83.09 
  -3  -3  -3 1309.27   83.79 
  -3  -3   3 1448.85   87.69 
   3  -3  -3 1303.97   82.89 
   3   3   3 1422.76   84.39 
  -3   3  -3 1332.87   90.69 
  -3   3  -3 1574.14   84.49 
   3  -3  -3 1472.25   85.69 
  -3  -3   3 1262.07   84.29 
   3   3   3 1404.36   94.19 
   3  -3  -3 1512.15   92.89 
  -4  -3  -3 1314.17   72.09 
   4  -3   3 1239.18   78.09 
  -4   3   3 1105.89   73.99 
   4   3  -3 1082.29   70.49 
  -4   3   3 1188.88   70.39 
   4  -3   3 1075.99   70.39 
  -4  -3  -3 1127.89   71.79 
   4  -3   3 1206.48   74.69 
  -4  -3  -3 1242.98   77.09 
   4  -3   3 1118.29   69.69 
   4   3   3 1135.09   83.49 
   4   3   3 1203.78   72.09 
   4  -3  -3 1255.37   81.99 
  -4  -3   3 1274.17   77.19 
  -4   3  -3 1327.17   71.89 
  -4  -3   3 1231.18   73.59 
  -4  -3   3 1146.39   72.59 
  -4   3  -3 1062.39   79.69 
   4  -3  -3 1226.78   73.39 
   5  -3   3  337.07   23.20 
  -5  -3  -3  362.86   30.30 
   5  -3   3  340.37   22.40 
   5  -3   3  358.76   30.60 
   5  -3   3  354.96   27.20 
   5   3  -3  332.77   23.30 
  -5  -3  -3  377.06   22.90 
  -5   3   3  324.87   27.20 
  -5  -3  -3  353.36   25.10 
  -5   3  -3   72.89  186.98 
   5  -3  -3  367.06   23.40 
  -5  -3   3  369.06   25.90 
   5   3   3  401.86   23.50 
   5   3   3  401.86   25.20 
   5  -3  -3  380.76   26.40 
  -5   3  -3  406.36   23.80 
  -5  -3   3  381.96   27.70 
  -5  -3   3  391.56   30.50 
   5  -3  -3  396.56   34.90 
   5   3   3  340.97   36.30 
  -6   3   3  236.78   20.20 
   6  -3   3  225.68   13.80 
   6   3  -3  228.58   15.40 
  -6  -3  -3  254.77   17.60 
   6  -3   3  217.88   22.00 
  -6  -3  -3  255.97   23.30 
   6  -3   3  238.28   15.00 
  -6  -3  -3    6.50  172.98 
   6   3   3  197.28   18.30 
   6  -3  -3  199.18   13.90 
   6  -3  -3  199.28   25.00 
  -6  -3   3  196.18   21.50 
  -6   3  -3   -7.60  130.29 
  -6  -3   3  191.58   17.00 
  -6  -3   3  197.68   18.20 
  -6  -3   3   63.09  206.58 
   6   3   3  195.58   15.40 
   6  -3  -3  179.58   18.10 
  -7   3   3   42.50    8.10 
  -7  -3  -3    7.90  151.78 
   7  -3   3   54.19    5.30 
   7   3  -3   57.39    6.70 
  -7  -3  -3   53.99    7.10 
  -7  -3  -3   45.80   10.70 
   7  -3   3   58.59    4.70 
   7  -3   3   54.59   11.10 
  -7  -3   3   40.80   10.70 
   7  -3  -3   49.40    5.50 
   7  -3  -3   32.40   12.90 
  -7  -3   3  -47.10   64.39 
   7   3   3   43.10    6.10 
  -7  -3   3   43.80    7.80 
  -7  -3   3   43.10    6.80 
   7   3   3   52.29    4.90 
   8  -3   3   96.59   13.30 
   8  -3   3  111.69    8.70 
   8   3  -3  102.69   10.10 
  -8  -3  -3  131.39   11.40 
  -8   3   3  110.29   13.10 
  -8  -3  -3  -18.40  188.28 
   8  -3   3  116.89    8.00 
   8   3   3  111.69    8.30 
  -8  -3   3   55.79  140.59 
   8  -3  -3   97.59    8.70 
  -8  -3   3  111.29   10.70 
   8   3   3  108.29    9.70 
  -8  -3   3  106.39   12.40 
  -9  -3  -3  -30.00   47.10 
  -9  -3   3 -107.49  114.59 
   0  -4  -3   22.20    5.80 
   0   4   3   21.60    5.20 
   0   4  -3   18.00    5.10 
   0  -4   3   17.40    4.20 
   0  -4   3   17.20    3.60 
   0   4   3   11.30    2.50 
   0  -4  -3   22.80    4.50 
   0   4  -3   14.00    3.10 
   0  -4  -3   14.50    2.60 
  -1  -4  -3 2218.58  134.99 
   1   4  -3 1907.01  125.59 
   1  -4   3 1911.51  126.79 
  -1   4   3 1923.41  127.49 
  -1  -4  -3 2053.79  129.69 
  -1   4  -3 2058.59  126.09 
   1  -4  -3 2119.29  128.49 
   1   4   3 2070.89  126.09 
   1  -4  -3 2036.90  125.09 
  -1   4  -3 2172.28  135.49 
  -1  -4   3 2311.97  126.09 
  -1  -4   3 2332.27  126.69 
   1  -4  -3 2416.56  136.29 
   1   4   3 2221.98  133.69 
   2   4  -3 1593.64   97.69 
  -2  -4  -3 1763.12  101.59 
  -2   4   3 1618.94   97.59 
   2  -4   3 1557.74   95.89 
  -2  -4  -3 1836.62  109.09 
   2  -4   3 1503.95   96.59 
  -2  -4  -3 1692.43   97.69 
  -2   4  -3 1684.83   98.09 
   2  -4  -3 1553.04   97.09 
   2  -4  -3 1781.92  107.49 
  -2  -4   3 1666.43   96.89 
  -2   4  -3 1499.85  103.09 
   2   4   3 1617.34   98.49 
   2   4   3 1569.34  106.79 
  -2  -4   3 1700.53   98.79 
  -3   4   3  206.78   13.90 
  -3  -4  -3  222.38   18.30 
   3   4  -3  192.48   13.90 
  -3  -4  -3   25.10  115.69 
  -3  -4  -3  211.28   14.00 
  -3   4   3  175.78   15.20 
   3  -4   3  190.88   13.10 
   3  -4   3  204.88   18.20 
   3  -4  -3  191.38   12.50 
  -3  -4   3   43.40   84.19 
  -3  -4   3  185.48   17.60 
  -3   4  -3  172.98   27.20 
  -3  -4   3  203.28   13.10 
   3   4   3  220.38   13.40 
  -3   4  -3  213.18   14.50 
  -3  -4   3  183.88   14.40 
   3  -4  -3  182.98   13.30 
   3   4   3  189.48   14.70 
   3  -4  -3  166.68   20.20 
   3  -4  -3  196.78   16.00 
   3   4   3  176.68   21.50 
  -4  -4  -3   33.50  111.39 
   4   4  -3  206.28   14.10 
   4  -4   3  201.38   13.40 
   4   4  -3  199.58   15.10 
  -4  -4  -3  197.58   15.50 
   4  -4   3  191.08   14.20 
  -4  -4  -3  213.38   14.90 
  -4   4   3  195.38   14.40 
  -4   4   3  177.08   16.90 
  -4  -4   3   -0.20  109.29 
   4  -4  -3  226.08   25.10 
  -4  -4   3  220.58   20.40 
   4   4   3  237.58   14.60 
   4   4   3  219.68   25.70 
  -4   4  -3  177.08   22.60 
  -4  -4   3  230.78   14.10 
   4  -4  -3  221.38   13.70 
   4   4   3  228.38   16.40 
  -4  -4   3  210.88   16.60 
  -4   4  -3  248.68   15.90 
  -4  -4   3  231.88   16.70 
   4  -4  -3  215.48   14.60 
   4  -4  -3  221.48   17.50 
  -5  -4  -3  987.10   54.59 
  -5  -4  -3  951.00   56.99 
   5  -4   3  893.61   54.79 
  -5  -4  -3  977.90   64.59 
   5   4  -3  908.51   54.19 
  -5   4   3  838.12   59.09 
   5   4  -3  926.91   55.89 
  -5   4   3  886.91   53.59 
   5  -4   3  930.11   54.99 
   5  -4   3  877.81   62.49 
   5  -4  -3  906.71   53.79 
   5  -4  -3  858.61   68.19 
   5   4   3  918.71   54.79 
  -5  -4   3  885.81   63.39 
   5  -4  -3  877.01   54.89 
   5   4   3  904.11   56.89 
   5  -4  -3  854.41   58.49 
  -5  -4   3  897.31   57.99 
  -5   4  -3  911.31   55.29 
  -5  -4   3  852.61   57.49 
   6  -4   3   38.40    4.40 
   6   4  -3   40.30    5.60 
  -6  -4  -3   34.90    5.90 
  -6   4   3   35.60    6.80 
  -6  -4  -3  -43.60   55.69 
   6  -4   3   39.40    3.40 
   6   4  -3   31.50    4.30 
   6  -4  -3   30.50    6.70 
   6   4   3   31.00    4.10 
  -6  -4   3   83.89  141.99 
  -6  -4   3   21.20    5.60 
  -6  -4   3   26.40    6.40 
   6  -4  -3   26.20    9.40 
  -6  -4   3   21.20    7.30 
   6  -4  -3   28.50    4.30 
   6   4   3   26.60    5.20 
   6  -4  -3   27.60    3.40 
  -7   4   3  146.19   15.80 
  -7  -4  -3  163.78   14.20 
  -7  -4  -3  146.59   19.20 
   7  -4   3  142.99   17.70 
   7  -4   3  158.38   11.70 
   7  -4   3  154.68   17.70 
   7  -4   3  154.58   10.60 
   7   4  -3  158.58   13.10 
   7  -4  -3  126.19   20.70 
  -7  -4   3   24.20  162.28 
  -7  -4   3  149.99   14.40 
   7   4   3  154.98   11.40 
  -7  -4   3  152.88   14.90 
   7  -4  -3  152.88   12.10 
   7  -4  -3  156.28   10.90 
  -7  -4   3  139.19   18.00 
   7   4   3  158.18   13.40 
  -8   4   3   29.00    7.30 
   8  -4   3   39.30    4.40 
   8  -4   3   31.10    4.40 
   8  -4   3   34.20    7.30 
  -8  -4  -3   49.20  212.08 
  -8  -4  -3   34.50    5.90 
   8   4  -3   44.50    6.40 
   8   4   3   32.20    4.00 
   8   4   3   27.10    5.10 
  -8  -4   3   28.20    6.30 
   8  -4  -3   43.00    5.00 
  -8  -4   3   32.90    6.00 
   8  -4  -3   30.80    3.90 
  -8  -4   3   39.90  120.49 
  -9  -4  -3  -56.19  108.69 
  -9   4   3    6.90    3.80 
   9   4   3    9.50    3.80 
  -9  -4   3   -4.10  130.29 
   0   5  -3  600.14   35.80 
   0   5   3  565.34   42.30 
   0  -5  -3  637.84   46.40 
   0   5   3  575.34   35.30 
   0  -5   3  598.54   36.10 
   0  -5  -3  596.94   35.20 
   0  -5  -3  572.34   40.90 
   0  -5   3  527.15   35.30 
   0  -5   3  617.34   38.30 
   0  -5   3  658.83   43.40 
   0   5   3  536.65   36.70 
   0  -5  -3  585.04   36.60 
   0  -5  -3  537.25   36.10 
   0   5  -3  563.44   37.30 
   0   5   3  549.74   36.60 
  -1  -5  -3  245.28   24.30 
  -1   5   3  188.58   19.10 
   1  -5   3  239.38   17.90 
   1  -5   3  218.28   16.00 
  -1  -5  -3  272.17   23.20 
  -1  -5  -3  208.68   15.40 
   1   5  -3  208.18   16.90 
  -1   5   3  203.78   18.10 
   1  -5   3  205.88   15.00 
  -1  -5  -3  222.48   16.30 
   1  -5   3  220.28   14.20 
  -1   5   3  209.18   16.40 
   1   5   3  216.98   22.30 
  -1  -5   3  246.48   16.60 
  -1  -5   3  216.68   16.90 
   1  -5  -3  217.48   15.70 
  -1   5  -3  225.78   16.60 
  -1  -5   3  249.28   17.70 
   1   5   3  238.78   16.90 
   1  -5  -3  250.87   24.20 
   1  -5  -3  227.08   16.10 
  -1  -5   3  253.07   21.40 
   1  -5  -3  240.88   19.60 
  -1   5  -3  229.28   16.30 
  -2   5   3 1713.63  101.59 
   2  -5   3 1704.23   99.39 
  -2  -5  -3 1739.93  105.09 
   2   5  -3 1689.53  101.99 
  -2  -5  -3 1815.82  106.59 
  -2  -5  -3 1739.23  112.89 
   2  -5   3 1657.23  100.29 
   2  -5   3 1724.63  104.49 
  -2  -5  -3 1746.73  101.49 
   2   5  -3 1750.92  100.29 
   2  -5  -3 1631.94  100.79 
   2   5   3 1478.35  110.79 
  -2   5  -3 1562.04  107.69 
  -2  -5   3 1691.13  100.49 
   2   5   3 1739.93  100.49 
  -2   5  -3 1717.73  101.89 
   2  -5  -3 1729.83   99.79 
   2  -5  -3 1734.43  105.19 
   2   5   3 1671.73  102.39 
   3   5  -3  107.59    9.20 
  -3   5   3  104.79    9.90 
   3   5  -3  106.49    7.70 
   3  -5   3  118.89   13.40 
  -3  -5  -3  116.19    9.00 
   3  -5   3  110.89    7.10 
   3  -5   3  105.59    8.00 
  -3  -5  -3  106.29    8.60 
   3  -5   3  113.39   11.80 
  -3  -5  -3   31.60  152.58 
  -3   5   3  102.99    8.70 
  -3  -5  -3  117.59   13.30 
  -3  -5   3   94.89    8.40 
   3  -5  -3   88.49    8.10 
   3  -5  -3   88.69   10.50 
  -3   5  -3   78.19   13.60 
  -3  -5   3   94.19    9.20 
   3   5   3   94.59    7.80 
   3  -5  -3   69.29   16.10 
  -3  -5   3   91.89   12.20 
  -3  -5   3   85.29    7.50 
  -3   5  -3   95.69    8.90 
   3  -5  -3   90.29    7.10 
   3   5   3   73.89   14.50 
   3   5   3   86.79    9.30 
  -4   5   3  302.67   21.00 
  -4   5   3  310.67   23.80 
  -4  -5  -3  336.97   21.40 
   4   5  -3  318.37   20.30 
  -4  -5  -3   -7.40  160.98 
   4  -5   3  311.97   19.50 
  -4  -5  -3  359.46   28.90 
   4   5  -3  324.17   22.10 
   4  -5   3  324.77   27.40 
   4  -5   3  318.77   20.60 
  -4  -5   3  301.47   20.10 
   4  -5  -3  314.07   19.70 
   4  -5  -3  292.37   24.20 
   4   5   3  247.28   31.60 
  -4   5  -3  322.67   22.10 
   4  -5  -3  300.17   20.90 
   4   5   3  304.77   22.60 
   4  -5  -3  285.87   31.00 
  -4  -5   3  299.27   22.60 
  -4  -5   3  321.77   28.20 
  -4  -5   3  310.07   22.20 
   4   5   3  313.37   20.60 
  -5   5   3   41.10    4.50 
  -5  -5  -3   43.90   10.50 
   5  -5   3   50.49    9.20 
  -5  -5  -3   51.99    6.70 
   5   5  -3   50.89    6.40 
   5  -5   3   49.90    5.30 
   5   5  -3   52.09    5.00 
  -5   5   3   48.00    7.40 
   5  -5   3   42.20    8.60 
   5  -5   3   46.70    4.20 
  -5  -5  -3  -36.90   78.69 
  -5  -5  -3   50.09    5.00 
  -5  -5   3   39.10    6.40 
   5  -5  -3   47.90    5.70 
   5  -5  -3   29.40   11.40 
  -5  -5   3   47.50    7.30 
  -5  -5   3   27.10  147.39 
  -5   5  -3   42.30    5.30 
   5  -5  -3   47.00    7.70 
  -5  -5   3   46.90   11.40 
   5   5   3   42.50    6.70 
   5   5   3   41.10    5.00 
   5  -5  -3   41.00    4.40 
   6  -5   3   80.19   12.20 
   6  -5   3   74.79   12.00 
  -6   5   3   71.89   10.10 
   6   5  -3   78.29    6.90 
   6  -5   3   79.69    7.50 
  -6  -5  -3   75.59    9.20 
  -6  -5  -3   74.49   13.10 
   6  -5   3   81.79    6.30 
   6   5  -3   77.59    9.00 
   6  -5  -3   81.79    8.00 
   6  -5  -3   59.69   15.10 
  -6  -5   3   82.19   13.30 
   6   5   3   88.19    9.60 
  -6  -5   3    2.70  185.68 
  -6  -5   3   82.09    9.40 
   6  -5  -3   68.79   13.00 
   6  -5  -3   84.19    6.60 
  -6  -5   3   77.19    9.80 
   6   5   3   78.89    7.30 
  -7  -5  -3   55.59   13.50 
   7  -5   3   48.30   16.00 
   7   5  -3   68.89    6.50 
   7  -5   3   70.29    7.00 
  -7   5   3   53.69    8.70 
   7  -5   3   72.99    5.80 
   7  -5   3   65.89   10.70 
  -7  -5  -3   66.79    8.50 
  -7  -5  -3   76.89  233.68 
   7   5  -3   66.79    8.60 
   7  -5  -3   71.79    6.20 
  -7  -5   3   66.49    9.00 
  -7  -5   3   66.39    8.70 
   7   5   3   70.89    6.80 
   7  -5  -3   71.99    7.40 
   7  -5  -3   56.29   18.90 
  -7  -5   3   81.19   12.90 
   7   5   3   71.09    8.60 
  -8  -5  -3   62.59    9.20 
  -8  -5  -3   69.99  339.47 
   8  -5   3   40.70    9.70 
   8  -5   3   51.99    4.40 
   8   5  -3   33.50    4.70 
  -8   5   3   38.00    6.50 
   8  -5  -3   49.20    4.70 
  -8  -5   3   41.80    9.20 
   8   5   3   47.00    6.00 
   8   5   3   49.50    4.70 
   8  -5  -3   46.20    5.70 
  -8  -5   3   68.89   10.20 
  -8  -5   3  -37.70  130.09 
   0  -6   3  139.39   10.50 
   0   6   3  133.79   11.10 
   0  -6   3  135.49   10.00 
   0  -6  -3  125.69   10.70 
   0  -6  -3  128.19   10.90 
   0   6  -3  126.89   11.70 
   0   6   3  123.59   15.50 
   0  -6   3  137.79   15.90 
   0   6  -3  139.39   11.40 
   0  -6   3  140.59   13.90 
   0   6   3  136.99   11.40 
   0   6   3  133.39    9.60 
   0  -6  -3  139.99   18.60 
   0  -6  -3  131.89   15.40 
   0   6  -3  136.49   10.10 
   0  -6   3  136.89   12.80 
   0  -6  -3  145.89    9.60 
   1  -6   3  368.46   25.50 
  -1   6   3  366.56   29.30 
   1  -6   3  398.86   24.60 
   1  -6   3  423.76   29.40 
   1  -6   3  392.16   26.20 
   1   6  -3  348.67   28.90 
   1  -6   3  404.86   32.50 
  -1   6   3  372.66   26.80 
   1   6  -3  371.56   27.50 
  -1  -6  -3  446.56   37.60 
   1   6  -3  406.76   25.80 
  -1  -6  -3  386.76   32.40 
   1  -6   3  390.76   32.10 
  -1  -6  -3  382.26   26.70 
   1   6   3  405.56   27.70 
  -1  -6   3  424.86   29.40 
  -1   6  -3  422.06   27.40 
   1   6   3  436.36   25.80 
  -1   6  -3  375.66   27.00 
   1  -6  -3  412.96   27.00 
   1  -6  -3  421.26   31.50 
   1   6   3  370.36   34.60 
  -1  -6   3  415.06   26.20 
  -1  -6   3  411.76   27.50 
   1   6   3  416.46   27.30 
  -1  -6   3  433.86   33.90 
   1  -6  -3  441.56   37.10 
   1  -6  -3  412.26   25.20 
   1  -6  -3  399.26   26.40 
  -2  -6  -3  550.84   39.90 
  -2  -6  -3  512.45   33.30 
   2  -6   3  567.54   32.10 
   2   6  -3  539.15   35.30 
  -2  -6  -3  595.34   46.20 
   2  -6   3  560.94   40.80 
   2  -6   3  567.74   33.90 
   2  -6   3  587.74   37.90 
   2   6  -3  533.75   34.90 
  -2   6   3  553.64   34.60 
   2   6  -3  574.34   33.20 
  -2  -6  -3  565.64   34.50 
  -2  -6   3  603.54   33.70 
   2  -6  -3  480.95   37.80 
   2  -6  -3  492.35   43.60 
   2  -6  -3  487.85   32.30 
   2   6   3  474.65   34.90 
  -2   6  -3  495.35   34.30 
   2   6   3  500.15   32.90 
   2  -6  -3  477.95   34.60 
  -2  -6   3  495.25   36.50 
   2   6   3  443.26   35.30 
   2  -6  -3  456.95   33.30 
   3  -6   3  170.88   18.10 
   3  -6   3  167.58   13.00 
  -3  -6  -3  156.38   13.10 
  -3   6   3  162.08   14.70 
  -3  -6  -3  137.69   16.10 
   3  -6   3  183.68   17.20 
   3  -6   3  166.18   11.50 
   3   6  -3  159.38   14.20 
  -3  -6  -3  160.28   18.10 
   3  -6   3  154.38   12.50 
  -3   6   3  157.68   14.40 
   3   6  -3  167.58   12.40 
  -3   6  -3  192.78   14.30 
  -3  -6   3  183.98   14.40 
   3  -6  -3  191.28   14.90 
   3  -6  -3  178.38   17.00 
   3   6   3  184.88   15.00 
   3   6   3  178.78   23.90 
   3  -6  -3  205.08   26.30 
  -3  -6   3  170.58   13.00 
  -3  -6   3  196.38   19.50 
   3  -6  -3  169.98   13.20 
   3  -6  -3  183.38   13.30 
   4  -6   3   12.50    4.60 
  -4  -6  -3    8.00    5.30 
  -4  -6  -3  -25.00  109.99 
   4  -6   3    5.90    3.10 
  -4  -6  -3   10.80    3.00 
   4   6  -3    6.00    3.10 
   4  -6   3    9.20    1.80 
   4  -6   3    8.10    2.40 
   4   6  -3    4.90    1.90 
  -4  -6  -3   10.20    3.30 
  -4   6   3    6.40    2.20 
  -4   6   3    6.10    3.20 
   4  -6  -3    6.40    3.70 
  -4  -6   3    5.70    3.30 
  -4  -6   3  -49.00  140.29 
   4   6   3    8.90    3.30 
   4  -6  -3    5.50    6.10 
   4  -6  -3    5.10    1.90 
  -4  -6   3    4.40    3.40 
  -4  -6   3    9.70    5.60 
   4  -6  -3    3.50    2.10 
  -4  -6   3    3.40    1.80 
  -4   6  -3    8.10    3.00 
   4   6   3    5.90    2.20 
  -5  -6  -3  254.37   27.70 
   5  -6   3  254.07   26.20 
  -5   6   3  245.08   21.50 
   5  -6   3  208.08   29.40 
  -5  -6  -3  267.57   18.80 
   5  -6   3  216.58   29.70 
   5   6  -3  289.77   21.60 
   5   6  -3  269.97   18.70 
  -5  -6  -3  284.97   20.70 
  -5   6   3  242.78   18.30 
   5  -6   3  283.27   17.70 
   5  -6   3  286.37   19.30 
  -5  -6  -3   47.70  223.68 
   5  -6  -3  293.27   18.20 
   5   6   3  275.77   18.90 
  -5  -6   3  277.87   21.70 
  -5  -6   3   78.39  198.58 
   5   6   3  300.87   21.90 
   5  -6  -3  261.77   31.20 
  -5  -6   3  252.07   17.20 
   5  -6  -3  267.67   23.50 
  -5  -6   3  310.67   20.90 
   5  -6  -3  300.77   20.00 
  -5   6  -3  255.87   19.30 
   6  -6   3  266.57   28.50 
  -6  -6  -3   66.29  254.67 
   6  -6   3  327.47   28.80 
  -6   6   3  280.67   24.40 
   6   6  -3  306.97   21.80 
  -6  -6  -3  350.66   24.50 
   6  -6   3  324.47   20.80 
   6  -6   3  363.46   22.90 
  -6  -6  -3  303.07   31.40 
   6  -6   3  259.07   35.20 
   6   6  -3  336.37   24.80 
   6  -6  -3  280.77   34.70 
   6  -6  -3  360.16   23.40 
   6  -6  -3  295.07   26.70 
  -6  -6   3  313.27   31.70 
   6   6   3  347.47   25.20 
   6   6   3  342.27   22.20 
  -6  -6   3  337.47   24.40 
  -6  -6   3   50.89  159.98 
  -6  -6   3  360.76   25.80 
   6  -6  -3  350.36   21.40 
  -7  -6  -3   60.59    7.70 
  -7  -6  -3  117.79  290.47 
   7  -6   3   49.60    9.30 
   7   6  -3   47.50    5.50 
   7  -6   3   55.09    5.10 
   7   6  -3   48.80    7.50 
   7  -6  -3   65.19    7.10 
   7   6   3   51.59    5.70 
  -7  -6   3  -31.70  110.29 
  -7  -6   3   53.49    8.10 
   7   6   3   57.59    7.70 
   7  -6  -3   50.59    5.40 
   8  -6   3    2.00    1.60 
   8  -6   3    1.10    1.00 
   8   6  -3   -0.20    2.60 
   8  -6   3    1.80    3.90 
   8   6  -3   -0.30    1.50 
  -8  -6  -3  -17.60  129.09 
  -8  -6  -3    2.30    2.40 
  -8  -6   3  -38.30  114.79 
   8  -6  -3    3.40    2.10 
   8   6   3    3.10    2.10 
  -8  -6   3   -0.90    2.30 
   8  -6  -3    1.00    1.10 
   0   7   3   25.80    4.50 
   0  -7  -3   28.90    3.30 
   0   7  -3   38.20    5.90 
   0   7  -3   29.40    3.90 
   0  -7   3   26.60    6.00 
   0  -7  -3   38.20    9.70 
   0  -7  -3   30.60    5.60 
   0   7  -3   33.50    5.30 
   0  -7   3   28.70    4.20 
   0   7   3   29.50    3.50 
   0  -7   3   25.60    6.40 
   0  -7   3   24.30    2.90 
   0   7   3   33.50    9.50 
   0   7   3   31.60    5.10 
   0  -7   3   31.00    4.20 
   0  -7  -3   31.00    5.00 
   0  -7  -3   25.10    7.30 
   0  -7   3   31.90    7.70 
  -1  -7  -3  196.78   20.50 
   1   7  -3  184.38   15.20 
   1  -7   3  188.98   20.30 
   1  -7   3  200.98   14.20 
   1  -7   3  197.58   17.40 
  -1   7   3  185.88   15.30 
   1   7  -3  195.98   13.60 
   1  -7   3  172.48   19.00 
   1  -7   3  191.88   13.40 
  -1  -7  -3  201.98   23.80 
   1   7  -3  188.98   15.60 
  -1  -7  -3  188.98   15.50 
  -1   7   3  172.88   12.60 
  -1   7   3  183.68   17.30 
  -1  -7   3  173.38   13.60 
  -1   7  -3  172.08   12.70 
   1  -7  -3  176.28   14.50 
   1   7   3  147.29   16.30 
   1  -7  -3  171.68   13.90 
   1   7   3  164.28   21.10 
   1  -7  -3  177.28   18.60 
   1  -7  -3  176.48   13.40 
  -1  -7   3  170.48   16.80 
  -1   7  -3  170.58   14.80 
   1   7   3  186.08   15.20 
   1   7   3  189.18   14.90 
   1  -7  -3  184.88   23.00 
   2  -7   3  836.62   52.79 
  -2  -7  -3  785.92   48.50 
   2  -7   3  802.52   56.09 
   2  -7   3  797.22   45.70 
  -2  -7  -3  820.72   61.29 
   2  -7   3  770.22   47.00 
   2  -7   3  802.12   47.90 
   2   7  -3  740.03   48.80 
  -2   7   3  781.22   48.70 
   2   7  -3  772.62   47.00 
  -2  -7  -3  761.22   54.69 
   2   7  -3  758.42   49.50 
  -2  -7  -3  744.63   46.80 
   2  -7   3  799.02   57.59 
   2  -7  -3  711.43   45.90 
  -2   7  -3  721.13   48.40 
   2   7   3  716.33   49.00 
  -2  -7   3  733.13   48.00 
   2  -7  -3  725.13   48.50 
  -2  -7   3  725.03   47.10 
   2   7   3  781.72   46.80 
   2  -7  -3  719.63   53.09 
   2   7   3  730.23   48.80 
   2  -7  -3  691.43   59.09 
   2  -7  -3  700.03   47.50 
   3  -7   3   72.39    7.00 
  -3  -7  -3   72.39    7.90 
  -3  -7  -3   35.80  185.28 
   3  -7   3   73.69   10.30 
   3   7  -3   69.59    8.80 
  -3  -7  -3   48.70   11.60 
   3  -7   3   71.29    5.70 
   3   7  -3   69.19    6.80 
  -3   7   3   64.89    8.10 
  -3   7   3   75.39    7.90 
   3  -7   3   77.39    7.40 
   3  -7   3   74.59   12.20 
   3  -7   3   64.39   12.60 
  -3  -7  -3   67.49    7.20 
   3  -7  -3   61.09   13.20 
   3  -7  -3   52.89    7.30 
   3  -7  -3   54.99    9.90 
   3  -7  -3   66.39    6.10 
  -3  -7   3  -81.29  131.59 
  -3  -7   3   54.09   10.30 
   3  -7  -3   55.79    7.10 
   3   7   3   55.89    7.50 
  -3  -7   3   61.69    6.40 
   3   7   3   51.09    7.90 
   3   7   3   61.29    6.40 
  -3   7  -3   66.19    7.60 
  -3  -7   3   61.39    7.60 
  -4  -7  -3  215.18   16.60 
   4   7  -3  209.98   15.60 
  -4  -7  -3  222.88   25.90 
  -4  -7  -3  224.58   16.60 
  -4   7   3  230.78   16.90 
  -4   7   3  198.78   17.50 
   4  -7   3  210.98   23.00 
   4  -7   3  158.88   29.60 
   4   7  -3  224.08   18.50 
   4  -7   3  219.18   14.50 
   4  -7   3  225.78   22.80 
   4   7   3  227.48   18.40 
  -4  -7   3  181.98   22.90 
   4  -7  -3  222.78   16.60 
   4  -7  -3  213.38   14.80 
  -4  -7   3  229.58   18.00 
   4   7   3  206.18   15.40 
  -4  -7   3  199.88   15.20 
   4  -7  -3  201.28   28.80 
  -4  -7   3  -66.79  166.08 
   4  -7  -3  203.28   20.40 
  -4   7  -3  215.78   17.00 
   5  -7   3  215.68   23.90 
  -5   7   3  211.38   19.30 
  -5  -7  -3  -11.60  134.19 
   5  -7   3  226.48   23.20 
  -5  -7  -3  233.88   19.00 
   5   7  -3  249.78   18.00 
  -5  -7  -3  207.28   25.70 
   5  -7   3  260.87   16.80 
  -5   7   3  193.18   20.90 
   5  -7   3  213.28   29.30 
   5   7  -3  255.77   20.70 
   5  -7  -3  281.67   19.30 
   5   7   3  298.87   21.50 
  -5  -7   3  289.37   21.30 
   5  -7  -3  225.18   30.70 
  -5  -7   3  253.37   27.50 
   5  -7  -3  253.17   23.50 
  -5  -7   3   -9.70  166.68 
   5   7   3  290.47   18.30 
   5  -7  -3  291.17   17.50 
  -5  -7   3  242.08   16.40 
  -5   7  -3  283.87   19.20 
   6   7  -3   20.30    5.20 
   6  -7   3   21.10    4.10 
  -6  -7  -3   19.90    4.70 
   6  -7   3   11.20   12.30 
  -6   7   3   15.30    4.70 
  -6  -7  -3   49.30  171.68 
   6  -7   3   17.80    5.90 
   6   7  -3   17.70    3.40 
   6  -7   3   23.30    3.10 
   6  -7  -3   18.60    4.40 
   6   7   3   25.70    5.70 
  -6  -7   3   36.80  105.79 
   6   7   3   25.30    3.80 
   6  -7  -3   10.30    5.70 
  -6  -7   3   22.20    6.00 
   7   7  -3    9.50    3.50 
   7   7  -3   11.30    2.90 
   7  -7   3    9.10    4.40 
  -7  -7  -3   29.90  107.19 
   7  -7   3    7.20    2.30 
  -7  -7  -3   15.70    4.90 
   7  -7   3   11.80    2.90 
   7  -7  -3   14.10    3.60 
   7   7   3    9.30    2.40 
   7  -7  -3    8.00    2.70 
   7   7   3   10.50    3.60 
  -7  -7   3    5.50    3.00 
  -7  -7   3   31.10  138.69 
   0  -8   3  380.76   24.80 
   0   8   3  404.36   27.70 
   0  -8  -3  396.66   25.40 
   0  -8  -3  400.26   28.30 
   0  -8   3  422.36   27.60 
   0  -8  -3  430.56   35.90 
   0  -8   3  367.46   35.80 
   0  -8   3  400.36   32.40 
   0  -8  -3  392.16   38.60 
   0   8  -3  419.86   28.90 
   0   8   3  405.76   28.50 
   0   8   3  391.26   25.60 
   0  -8   3  416.26   31.90 
   0  -8   3  393.36   27.90 
   0   8  -3  411.56   26.30 
   0  -8  -3  415.16   27.20 
   0   8  -3  423.36   28.80 
   1   8  -3  333.87   25.50 
   1  -8   3  362.36   28.90 
   1  -8   3  332.57   23.70 
   1  -8   3  311.77   31.80 
   1  -8   3  329.87   22.40 
   1  -8   3  351.06   24.70 
   1  -8   3  334.97   30.60 
   1   8  -3  333.27   27.60 
  -1  -8  -3  355.06   36.40 
   1   8  -3  346.27   23.70 
  -1   8   3  345.37   25.50 
  -1  -8  -3  343.77   25.40 
  -1  -8   3  393.66   29.80 
   1  -8  -3  386.66   25.20 
   1   8   3  377.96   26.20 
   1  -8  -3  384.26   26.00 
   1  -8  -3  366.36   36.10 
   1  -8  -3  386.46   32.60 
   1   8   3  327.17   40.70 
   1   8   3  371.76   28.80 
  -1  -8   3  388.96   25.10 
  -1   8  -3  340.97   22.70 
   1  -8  -3  367.56   23.10 
   1   8   3  357.96   23.30 
  -1  -8   3  389.06   24.90 
  -2  -8  -3   41.60    5.00 
  -2   8   3   43.10    6.10 
   2   8  -3   41.10    6.30 
   2  -8   3   37.70    5.50 
   2   8  -3   35.90    5.00 
   2   8  -3   34.50    6.80 
   2  -8   3   41.00   10.10 
  -2  -8  -3   36.00    9.40 
  -2   8   3   47.80    6.50 
   2  -8   3   51.69    6.40 
  -2  -8  -3   44.30    6.10 
  -2  -8  -3   37.70   13.10 
   2  -8   3   45.60    8.20 
  -2  -8   3   60.09    6.30 
   2  -8  -3   43.70    4.80 
   2   8   3   54.29    7.20 
   2   8   3   47.70    5.30 
   2  -8  -3   39.70    9.10 
   2  -8  -3   44.10    6.50 
  -2  -8   3   55.39    6.80 
   2  -8  -3   42.20    6.20 
   2   8   3   59.49    7.60 
   2  -8  -3   43.00   12.00 
  -2  -8   3   41.60    8.50 
  -2   8  -3   51.19    6.90 
  -3   8   3   10.30    4.40 
   3  -8   3   21.00    4.10 
   3  -8   3   21.10    3.00 
  -3   8   3   21.90    5.00 
  -3  -8  -3  119.89  304.47 
  -3  -8  -3   17.70    7.50 
   3  -8   3   15.10   10.40 
   3   8  -3   17.10    3.60 
   3  -8   3   10.40    5.10 
   3   8  -3   18.70    5.30 
   3  -8   3   21.00    4.20 
  -3  -8  -3   18.30    4.40 
   3  -8   3   19.60    6.30 
  -3  -8  -3   15.60    3.60 
   3  -8  -3   20.70    3.70 
  -3  -8   3   18.80    7.20 
  -3  -8   3   32.40    6.50 
   3   8   3   26.60    5.60 
  -3  -8   3   24.80    4.10 
   3   8   3   31.10    5.90 
   3  -8  -3   34.50   11.00 
  -3   8  -3   26.60    5.50 
   3  -8  -3   21.90    5.00 
   3  -8  -3   19.60    8.90 
   3  -8  -3   28.10    5.30 
  -3  -8   3   -0.90  178.28 
  -4  -8  -3   -8.00  109.79 
   4  -8   3    2.20    3.40 
   4  -8   3    4.00    5.50 
  -4  -8  -3    8.00    5.60 
  -4   8   3   14.10    3.70 
   4  -8   3    8.60    2.10 
   4  -8   3    7.20    2.60 
   4   8  -3    8.50    2.60 
   4   8  -3    7.90    3.80 
  -4  -8  -3    4.40    2.80 
   4  -8   3    2.70    3.90 
  -4   8  -3   11.90    3.60 
   4  -8  -3   12.30    2.80 
  -4  -8   3   12.60    4.30 
   4  -8  -3   -0.60    6.80 
  -4  -8   3   59.49  164.28 
  -4  -8   3   12.10    3.00 
  -4  -8   3    7.40    6.50 
   4   8   3    9.20    2.80 
   4  -8  -3   16.10    4.10 
   4  -8  -3   10.90    5.00 
   4   8   3   10.40    3.80 
   5  -8   3   90.99    7.20 
  -5  -8  -3   73.69    7.60 
   5   8  -3   81.99    8.10 
  -5   8   3   89.49    8.20 
   5  -8   3   76.79   12.20 
   5  -8   3   57.49   15.50 
  -5  -8  -3  -43.80  138.89 
   5  -8   3   64.09   12.50 
  -5  -8  -3   92.99    9.00 
  -5   8  -3   79.59    8.30 
   5   8   3   93.19    8.20 
   5   8   3  121.19   16.80 
   5  -8  -3   97.29    7.90 
  -5  -8   3   78.19    6.70 
  -5  -8   3  100.49   10.60 
  -5  -8   3   93.29   13.90 
  -5  -8   3   51.29  183.68 
   5  -8  -3   63.69   19.70 
   5  -8  -3   84.89   12.30 
  -6  -8  -3   29.00    4.80 
   6  -8   3   22.10    3.20 
   6   8  -3   20.80    5.40 
  -6  -8  -3   82.19  189.68 
   6  -8   3   13.30    5.80 
   6  -8   3   29.40    4.70 
   6   8  -3   19.70    3.80 
   6   8   3   22.60    3.80 
   6  -8  -3   27.20    5.30 
  -6  -8   3   25.90    5.90 
   6  -8  -3   26.50    3.80 
   6   8   3   22.30    5.20 
  -6  -8   3   66.79  127.49 
   7   8  -3   18.50    3.40 
  -7  -8  -3  -27.20   89.49 
   7   8  -3   27.80    5.60 
   7  -8   3   28.30    4.40 
  -7  -8  -3   24.80    4.40 
   7  -8   3   14.60    6.10 
  -7  -8   3  -50.09  137.89 
   7   8   3   20.60    3.50 
   7   8   3   28.40    5.30 
  -7  -8   3   21.70    5.20 
   7  -8  -3   27.90    4.90 
   7  -8  -3   23.10    3.40 
   0  -9  -3    0.00    2.10 
   0   9  -3    0.20    3.30 
   0  -9   3    0.60    2.00 
   0  -9  -3   -1.30    1.90 
   0  -9   3    1.20    1.80 
   0  -9   3    5.20    5.30 
   0   9  -3    2.20    2.30 
   0   9   3    1.50    2.10 
   0  -9  -3   -3.50    7.40 
   0  -9  -3    0.40    3.30 
   0   9   3    2.30    1.30 
   0   9  -3    2.00    1.50 
   1   9  -3  207.48   17.50 
   1  -9   3  216.48   15.80 
   1   9  -3  205.68   17.80 
   1  -9   3  186.98   16.40 
   1  -9   3  195.48   20.40 
   1  -9   3  198.68   15.40 
   1   9  -3  199.98   15.30 
  -1  -9  -3  208.08   17.30 
   1  -9   3  190.08   14.10 
  -1   9   3  207.68   17.40 
   1   9   3  233.28   18.10 
   1  -9  -3  232.88   16.80 
  -1  -9   3  184.08   23.20 
   1  -9  -3  222.28   14.70 
   1   9   3  222.68   14.90 
   1  -9  -3  217.38   23.30 
  -1  -9   3  217.28   16.80 
   1  -9  -3  210.68   27.00 
   1   9   3  228.18   17.30 
   1  -9  -3  239.28   18.00 
  -1  -9   3  232.78   16.80 
  -1   9  -3  224.38   17.70 
   2  -9   3   40.40   11.80 
  -2  -9  -3   65.19   13.90 
  -2   9   3   59.09   10.00 
  -2  -9  -3   59.49   11.30 
   2   9  -3   63.29    7.90 
   2  -9   3   69.99    7.00 
   2  -9   3   50.49   10.70 
   2   9  -3   70.59    8.90 
   2  -9   3   59.69    9.80 
   2  -9   3   73.29    7.60 
   2  -9   3   59.49    5.50 
   2   9  -3   57.99    8.50 
   2  -9  -3   43.90    9.80 
   2  -9  -3   52.29    7.00 
   2  -9  -3   37.30    6.40 
  -2  -9   3   51.59   10.10 
  -2  -9   3   61.39    7.60 
  -2   9  -3   53.39    9.00 
   2  -9  -3   42.20   13.20 
  -2  -9   3   45.70   12.00 
   2   9   3   60.79    7.70 
   2   9   3   49.50    7.50 
   2  -9  -3   46.20    7.00 
  -2  -9   3   51.59  188.68 
   3   9  -3   41.30    5.20 
   3  -9   3   40.30    9.60 
  -3  -9  -3   42.30  163.68 
  -3  -9  -3   28.70    9.80 
   3  -9   3   35.00    7.90 
  -3   9   3   41.20    6.10 
   3  -9   3   20.20    9.40 
   3   9  -3   27.40    5.50 
   3  -9   3   42.50    5.90 
  -3  -9  -3   39.50    6.20 
   3   9  -3   43.80    7.60 
   3  -9   3   34.00    5.70 
   3  -9   3   37.20    4.20 
  -3  -9  -3   35.20    4.80 
  -3  -9   3   38.30    6.30 
  -3   9  -3   35.40    5.80 
  -3  -9   3   25.70    9.10 
   3  -9  -3   30.80    4.30 
   3   9   3   45.90    6.90 
   3   9   3   41.40    6.20 
   3   9   3   41.30    4.90 
   3  -9  -3   21.50   10.60 
   3  -9  -3   42.50    6.50 
   3  -9  -3   40.70    6.20 
  -3  -9   3   38.00    5.30 
   4  -9   3   90.99    7.40 
  -4  -9  -3   88.39    9.00 
   4   9  -3   96.89    8.60 
   4  -9   3   84.19    9.50 
   4  -9   3   86.29   12.70 
  -4  -9  -3   62.99   14.90 
  -4  -9  -3   99.09    8.70 
  -4   9   3   98.59    9.40 
   4   9  -3  101.79   11.40 
   4  -9   3  103.69    9.30 
   4  -9   3   61.39   15.10 
  -4  -9  -3   32.70  207.68 
  -4  -9   3   29.20  211.38 
   4  -9  -3   71.49   11.90 
  -4  -9   3  100.39   10.40 
   4   9   3   88.49    8.10 
   4  -9  -3   87.79    7.80 
   4  -9  -3   77.09   16.60 
  -4   9  -3   78.29    8.90 
   4   9   3  101.19   10.60 
  -4  -9   3   79.79    8.00 
  -4  -9   3   75.99   16.10 
   4  -9  -3   95.59    9.70 
  -5  -9  -3  101.39    9.80 
   5   9  -3  111.49    9.90 
  -5   9   3  107.69    9.50 
   5  -9   3  126.39   10.70 
   5  -9   3  123.19    9.10 
  -5  -9  -3  123.79   10.30 
   5  -9   3  105.19   14.20 
  -5  -9  -3  120.49  307.17 
   5   9  -3  130.39   12.90 
  -5  -9   3   -5.80   66.29 
  -5   9  -3  110.89   10.00 
   5  -9  -3  133.09   11.50 
  -5  -9   3  118.99   11.70 
   5   9   3  122.59   11.90 
   5   9   3  111.89    9.50 
   5  -9  -3  110.29    9.30 
   6   9  -3   14.20    4.70 
   6  -9   3   10.30    2.40 
   6   9  -3    9.30    2.50 
  -6  -9  -3    5.20    2.60 
  -6  -9  -3   30.30  161.98 
   6  -9   3   12.80    3.60 
   6   9   3   12.00    4.30 
   6   9   3    8.40    2.30 
  -6  -9   3    2.40  122.39 
   6  -9  -3    8.80    3.50 
  -6  -9   3    8.40    3.60 
   6  -9  -3    8.10    2.20 
   0 -10  -3   50.89   16.90 
   0 -10   3   62.99    6.50 
   0 -10  -3   61.39    7.80 
   0  10  -3   54.39    5.20 
   0 -10   3   44.10    9.40 
   0 -10   3   59.79    7.10 
   0  10  -3   61.39    7.90 
   0  10   3   59.19    7.70 
   1 -10   3  124.29   16.50 
   1  10  -3  142.39   11.00 
   1  10  -3  150.58   13.70 
  -1  10   3  154.28   13.70 
  -1 -10  -3  121.09   21.50 
  -1 -10  -3  154.38   13.60 
   1  10  -3  162.88   14.40 
   1 -10   3  158.08   13.30 
   1  10   3  168.58   14.10 
   1 -10  -3  157.78   19.40 
   1  10   3  148.39   13.30 
  -1  10  -3  139.69   13.30 
   1  10   3  136.39   10.50 
  -1 -10   3  160.18   12.50 
   1 -10  -3  134.09   10.40 
  -1 -10   3  116.99   16.10 
   1 -10  -3  115.59   17.30 
   1 -10  -3  163.98   13.80 
  -1 -10   3  155.88   13.10 
   2  10  -3  117.09   12.00 
  -2 -10  -3   96.29   10.60 
  -2 -10  -3   86.39   14.10 
   2  10  -3   97.79   10.90 
   2 -10   3  119.19   10.10 
  -2  10   3  118.19   11.30 
   2 -10   3   98.99    8.20 
   2 -10   3  119.19   10.70 
   2  10  -3  111.59    9.20 
  -2 -10  -3    5.20  159.98 
  -2 -10   3  106.09   10.20 
   2  10   3  117.49   11.00 
   2 -10  -3   88.49   14.70 
   2 -10  -3  128.69   11.30 
   2  10   3  114.19    8.80 
   2 -10  -3  108.99   11.20 
  -2 -10   3   87.29   14.80 
   2  10   3  107.49   11.10 
  -2 -10   3  124.49   10.70 
  -2  10  -3  111.19   11.20 
   2 -10  -3  100.09    8.50 
   3 -10   3    4.10    1.80 
   3  10  -3    5.00    2.10 
   3  10  -3    2.90    3.10 
   3 -10   3    6.20    2.60 
   3 -10   3    6.40    3.10 
   3  10  -3    6.70    3.40 
  -3 -10  -3  -31.40  109.19 
   3 -10   3    5.20    3.80 
  -3 -10  -3    3.70    2.60 
  -3  10   3    2.30    2.20 
   3  10   3    1.80    1.60 
   3  10   3    3.40    2.60 
  -3 -10   3  -26.40  112.79 
   3 -10  -3    6.60    3.20 
  -3 -10   3    6.70    3.20 
   3 -10  -3    4.30    1.80 
  -3 -10   3    4.80    2.20 
   3 -10  -3    4.50    3.60 
   3  10   3   12.40    3.70 
  -3  10  -3    7.60    2.80 
   4 -10   3   33.80    5.60 
  -4  10   3   34.60    5.20 
   4  10  -3   42.40    7.00 
  -4 -10  -3   38.00    4.60 
  -4 -10  -3   34.70    5.10 
  -4 -10  -3 -119.39   88.99 
   4 -10   3   38.80    5.60 
   4 -10   3   32.50    4.00 
   4  10  -3   39.80    4.90 
   4 -10   3   22.60    7.40 
  -4 -10   3  106.19  273.37 
  -4 -10   3   41.30    6.20 
  -4  10  -3   41.10    5.50 
   4 -10  -3   33.80    4.40 
   4  10   3   37.50    6.00 
   4  10   3   36.00    4.30 
  -4 -10   3   33.20    4.80 
   4 -10  -3   42.30    6.20 
   5  10  -3   30.60    8.10 
   5  10  -3   19.60    3.60 
  -5 -10  -3   20.50    4.20 
   5 -10   3   21.50    7.60 
   5 -10   3   19.80    3.10 
  -5  10   3   17.80    3.10 
   5 -10   3   27.70    4.90 
  -5 -10  -3   28.70    3.60 
   5 -10  -3   20.60    3.30 
   5 -10  -3   19.00    5.30 
  -5  10  -3   14.10    3.10 
  -5 -10   3   58.49   84.59 
   5  10   3   23.30    3.30 
  -5 -10   3   23.30    4.90 
   5 -10  -3   10.80    9.50 
   0 -11  -3   34.70    6.00 
   0  11   3   38.10    5.80 
   0 -11   3   29.20    7.70 
   0  11  -3   45.80    6.10 
   0 -11   3   33.50    5.20 
   1 -11   3    3.00    2.10 
  -1 -11  -3   72.29  253.87 
   1 -11   3   -1.70    4.20 
   1  11  -3    2.50    2.70 
   1  11  -3    3.20    2.00 
  -1  11   3    1.60    2.00 
  -1 -11  -3    3.40    2.60 
   1  11   3    1.80    2.20 
  -1 -11   3    4.90    2.40 
  -1 -11   3   -0.70    2.80 
  -1 -11   3  -28.00   69.79 
  -1  11  -3    8.20    3.20 
   1  11   3    3.60    2.70 
   1 -11  -3    3.50    2.60 
  -2 -11  -3  -47.40  120.59 
  -2  11   3   22.20    4.60 
   2  11  -3   25.10    4.70 
   2 -11   3    8.50    4.80 
   2  11  -3   22.20    4.80 
   2  11  -3   20.70    4.10 
  -2 -11  -3   14.90    4.00 
   2  11   3   23.10    4.70 
   2  11   3   22.20    3.00 
   2 -11  -3   16.50    5.30 
   2 -11  -3   14.60    5.80 
  -2 -11   3   26.90    4.30 
   2 -11  -3   13.50    2.70 
  -2 -11   3  -51.49   94.09 
   3 -11   3    4.40    2.30 
   3 -11   3   15.10    4.60 
   3 -11   3    5.40    1.60 
  -3 -11  -3    7.50    2.90 
  -3  11   3    5.00    2.40 
   3  11  -3    8.50    2.20 
   3 -11   3    7.30    4.00 
  -3 -11  -3    1.10   82.19 
   3 -11  -3    6.50    4.40 
   3  11   3    6.00    1.60 
   3 -11  -3    4.90    3.60 
  -3 -11   3  -83.89   62.19 
  -3 -11   3    4.20    2.20 
   3  11   3   10.10    3.00 
   3  11   3    6.90    2.60 
  -3 -11   3   10.60    3.80 
   3 -11  -3    4.20    1.70 
  -3  11  -3   11.80    3.10 
   3 -11  -3   10.00    3.30 
   4 -11   3   14.50    6.30 
   4 -11   3   18.80    3.90 
  -4 -11  -3   14.30    3.10 
  -4  11   3   18.50    3.50 
  -4 -11  -3  -35.40   90.29 
   4  11  -3   19.20    4.30 
   4  11  -3   16.50    2.90 
  -4 -11   3    3.60  104.59 
   4  11   3   20.50    2.80 
  -4 -11   3   18.20    3.10 
   4 -11  -3   19.50    4.20 
  -4  11  -3   20.60    3.50 
   4  11   3   24.10    4.30 
   4 -11  -3   14.10    2.70 
  -4 -11   3   15.30    3.70 
   0 -12   3    3.60    2.10 
   0  12   3    1.70    1.80 
   0 -12  -3    1.00    2.30 
   0  12  -3    0.10    1.70 
   0 -12   3  -21.20   78.29 
   1 -12   3   12.80    3.50 
  -1 -12  -3   19.20    4.60 
  -1  12   3   20.40    4.10 
   1  12  -3   11.30    2.90 
  -1 -12  -3  -29.90   67.69 
  -1  12  -3    8.00    2.90 
   1 -12  -3   10.00    3.80 
  -1 -12   3   11.80    3.20 
   1  12   3   13.90    3.50 
  -1 -12   3   60.39  164.98 
   2 -12   3    3.20    2.20 
   2  12  -3    6.40    2.50 
  -2  12   3    7.40    2.50 
  -2 -12  -3   -2.20  138.69 
  -2  12  -3    5.20    2.30 
   2 -12  -3    8.30    3.40 
   2  12   3    9.50    3.50 
  -2 -12   3    6.70    2.40 
  -2 -12   3  -49.00   89.79 
   1   0  -4 1801.52  115.29 
   1   0   4 1831.52  115.39 
   1   0   4 2163.88  120.99 
  -1   0  -4 2009.00  121.79 
  -1   0   4 2021.00  119.19 
   1   0  -4 1931.11  119.09 
   1   0  -4 2020.50  119.99 
   2   0  -4  458.85   30.60 
   2   0   4  557.04   37.00 
  -2   0  -4  502.65   31.70 
   2   0  -4  522.45   34.90 
   2   0  -4  503.25   34.20 
   2   0   4  491.45   31.00 
  -2   0  -4  494.45   38.50 
  -2   0   4  514.05   30.90 
   3   0  -4 5660.13  334.77 
   3   0   4 5512.65  330.97 
   3   0   4 6093.39  339.07 
   3   0  -4 5277.37  330.37 
  -3   0  -4 6029.00  333.27 
   3   0  -4 5988.60  335.67 
  -3   0  -4 5271.97  331.67 
   4   0   4 2101.09  129.09 
  -4   0  -4 1885.21  120.29 
   4   0  -4 1868.31  119.39 
  -4   0   4 2007.20  122.29 
   4   0  -4 2062.69  125.69 
  -4   0   4 2056.09  123.39 
  -4   0  -4 2201.98  120.59 
   4   0  -4 2091.99  125.19 
   4   0   4 2094.99  130.29 
  -4   0  -4 2026.20  123.29 
  -5   0   4  -34.10   75.89 
   5   0  -4   72.19   10.10 
  -5   0  -4  -21.60   82.29 
   5   0   4   77.39    5.80 
  -5   0   4   68.59    6.70 
   5   0  -4   71.99    6.00 
  -5   0   4   86.49    9.70 
   5   0   4   88.99   13.20 
  -5   0   4   81.19    8.90 
  -5   0  -4   77.19    9.60 
  -5   0  -4   74.59    7.10 
   5   0   4   74.69    6.70 
   5   0   4   73.79   12.60 
   6   0   4   72.99    6.80 
  -6   0   4   64.79    6.60 
  -6   0  -4   69.59    7.20 
   6   0   4   61.89   12.40 
   6   0   4   76.59    6.00 
  -6   0   4  -35.90  128.99 
  -6   0   4   60.29    9.60 
  -6   0   4   74.69    9.40 
  -6   0  -4   30.40  172.58 
  -6   0  -4   74.49   10.10 
   6   0  -4   60.89    5.80 
  -7   0   4   64.89  206.38 
  -7   0  -4  455.65   34.70 
   7   0   4  434.96   26.50 
  -7   0   4  389.76   38.50 
   7   0   4  419.06   39.00 
   7   0   4  451.65   28.00 
   7   0  -4  414.26   27.00 
   8   0   4   96.39    7.30 
  -8   0  -4   17.60  164.78 
   8   0   4   98.19    8.20 
   8   0  -4  102.09    8.70 
  -8   0   4  -20.40   93.19 
  -8   0  -4  109.09    9.60 
  -8   0   4   90.59   12.50 
  -9   0  -4  -18.80  100.19 
   0  -1  -4 3836.02  237.98 
   0  -1   4 4448.85  242.58 
   0  -1  -4 4313.97  243.48 
   0   1  -4 3976.00  238.18 
   0  -1   4 3819.62  236.98 
   0   1  -4 4128.89  242.78 
  -1  -1  -4  837.42   55.89 
  -1   1   4  896.11   56.39 
  -1   1   4  853.81   64.59 
   1   1  -4  843.22   59.69 
  -1  -1  -4  808.62   61.69 
  -1  -1  -4  969.40   64.49 
   1  -1   4  971.80   60.69 
   1  -1   4  860.61   59.69 
  -1  -1   4 1032.40   57.99 
   1  -1  -4  932.31   55.29 
  -1   1  -4  981.40   62.09 
   1  -1  -4 1062.09   62.49 
  -1  -1   4  943.01   55.59 
   1   1   4 1086.59   62.59 
   1  -1  -4 1056.19   60.49 
   2  -1   4 4442.06  271.57 
   2   1  -4 4235.58  271.37 
   2  -1   4 5099.39  278.27 
   2  -1   4 5188.88  277.87 
   2   1  -4 4678.23  276.17 
  -2  -1  -4 4678.43  281.37 
   2  -1  -4 4988.40  279.67 
  -2   1  -4 4561.84  283.47 
   2   1   4 4823.62  279.07 
   2  -1  -4 4249.47  271.37 
   2  -1  -4 4807.42  274.97 
   2   1   4 4269.57  271.77 
   3   1  -4    9.60    1.90 
   3  -1   4    9.60    3.50 
   3   1  -4   10.70    3.60 
  -3   1   4   16.00    3.70 
   3  -1   4   14.00    4.90 
  -3   1  -4    6.00    2.20 
  -4   1   4 2115.49  126.39 
  -4  -1  -4 1994.00  123.19 
   4   1  -4 1938.21  122.09 
   4  -1   4 1816.02  143.19 
   4   1  -4 2070.39  124.49 
  -4  -1  -4 2412.26  123.39 
   4  -1   4 2061.59  122.79 
  -4  -1   4 1928.21  123.59 
  -4  -1   4 1954.40  125.39 
   4  -1  -4 1971.50  122.19 
  -4  -1   4 2191.28  126.19 
   4   1   4 2014.30  123.49 
   4  -1  -4 2170.78  125.59 
   4  -1  -4 2271.57  130.79 
  -4   1  -4 2266.67  124.19 
  -4   1  -4 2007.60  122.89 
   4   1   4 2243.68  133.99 
  -5  -1  -4   89.39   10.80 
   5  -1   4   84.39   13.80 
   5  -1   4   94.89    7.60 
   5  -1   4   87.59    6.50 
  -5  -1  -4   88.69    7.30 
  -5   1   4   92.29    9.50 
  -5  -1  -4   83.09   10.60 
   5  -1   4   93.29   12.80 
   5   1  -4   88.79    7.00 
  -5   1   4   84.49   12.00 
  -5   1   4   14.80  135.09 
  -5  -1  -4  -48.80   94.09 
  -5  -1   4   87.69   10.00 
  -5   1  -4  105.89    7.80 
  -5  -1   4   91.19   10.20 
  -5   1  -4   76.59  179.58 
   5   1   4   94.59    8.00 
  -5   1  -4   89.09   10.30 
   5  -1  -4   86.69   12.50 
   5  -1  -4   92.59    7.20 
  -5  -1   4   -1.40   87.19 
  -5  -1   4   89.79    8.40 
   5   1   4   88.19    6.70 
  -5   1  -4   94.39    8.00 
   5   1   4  104.89   14.70 
   6  -1   4 1018.40   69.39 
   6  -1   4  939.01   66.39 
  -6   1   4  962.70   60.49 
   6   1  -4  869.51   53.29 
  -6  -1  -4  946.81   60.99 
  -6  -1  -4  936.11   55.29 
   6  -1   4  916.31   52.99 
   6  -1  -4  824.22   53.19 
  -6   1  -4  852.51   54.39 
  -6  -1   4  878.71   59.09 
  -6  -1   4  775.42   54.69 
   6   1   4  851.81   66.89 
  -6  -1   4  847.62   58.89 
   6  -1  -4  786.62   61.99 
   7  -1   4  252.77   15.90 
  -7  -1  -4  272.27   19.70 
   7  -1   4  267.97   17.30 
  -7   1   4   74.79  238.18 
  -7   1   4  229.48   22.80 
  -7  -1  -4   35.00  231.48 
   7  -1   4  236.78   26.20 
  -7  -1  -4  253.07   23.60 
   7   1  -4  256.67   17.00 
   7   1   4  255.67   17.60 
  -7   1  -4    3.80  300.57 
   7  -1  -4  244.08   16.80 
   7   1   4  228.38   26.90 
  -7  -1   4  224.28   17.60 
  -7  -1   4  242.68   22.10 
  -7  -1   4  237.98   21.80 
   7   1   4  235.68   16.00 
   8  -1   4    7.50    1.80 
   8   1  -4    5.00    2.80 
  -8   1   4    8.00    4.10 
  -8  -1  -4    5.20    2.80 
  -8  -1  -4  -18.00  183.88 
  -8  -1   4  -21.60   92.99 
   8   1   4    6.00    1.80 
   8   1   4    5.30    2.10 
  -8  -1   4    2.10    2.70 
  -8  -1   4    4.30    3.50 
  -8   1  -4  -17.10  107.59 
   9  -1   4    4.30    1.70 
  -9  -1  -4    9.10    3.10 
  -9  -1  -4   89.59  189.18 
   9  -1   4    8.00    2.00 
  -9   1   4    5.10    3.10 
  -9  -1   4    4.70    3.30 
   9   1   4    7.60    2.10 
   0  -2   4  289.07   19.80 
   0   2   4  287.57   21.30 
   0   2  -4  249.78   20.80 
   0  -2  -4  249.78   21.20 
   0  -2   4  229.98   16.20 
   0   2  -4  271.57   18.00 
   0  -2  -4  256.37   16.90 
   0   2   4  248.58   16.80 
  -1  -2  -4  724.33   51.29 
   1   2  -4  604.44   54.69 
   1  -2   4  735.53   47.60 
  -1  -2  -4  668.73   49.80 
   1  -2   4  712.23   47.30 
   1   2  -4  619.64   43.20 
  -1   2   4  695.43   46.20 
   1  -2   4  605.44   42.70 
  -1  -2  -4  629.44   43.50 
   1   2   4  780.22   49.90 
  -1  -2   4  783.02   44.00 
  -1  -2   4  824.52   46.60 
   1  -2  -4  764.22   50.79 
   1   2   4  735.83   43.70 
   1  -2  -4  782.32   47.60 
   1  -2  -4  755.02   45.20 
   1  -2  -4  710.73   43.40 
  -1   2  -4  763.32   49.40 
  -2  -2  -4   93.19    8.80 
   2  -2   4   83.59   10.20 
  -2  -2  -4   73.49   12.80 
   2  -2   4   86.89   10.70 
  -2  -2   4  112.29    8.90 
   2  -2  -4  117.99    9.20 
   2   2   4  121.49   13.70 
  -2   2  -4  114.29   13.20 
  -2  -2   4  109.89   10.20 
   2  -2  -4  105.59    9.90 
   2  -2  -4  106.69    7.80 
   2   2   4  107.49    8.30 
  -3   2   4 3901.21  232.18 
  -3  -2  -4 4334.37  233.38 
   3  -2   4 3941.81  229.38 
   3  -2   4 4420.36  235.88 
  -3  -2  -4 3736.03  229.78 
  -3  -2  -4 4416.46  230.08 
   3   2  -4 3752.32  229.18 
   3  -2   4 4363.46  238.38 
  -3   2  -4 4284.17  230.68 
   3  -2  -4 3498.35  229.08 
   3   2   4 3749.62  246.98 
  -3   2  -4 3430.56  229.28 
   3   2   4 3688.63  229.98 
   3  -2  -4 3768.92  230.78 
   3  -2  -4 3857.91  230.58 
   3  -2  -4 4018.00  238.38 
  -3  -2   4 3713.63  231.88 
  -4  -2  -4   35.60   82.79 
   4  -2   4   58.79    4.70 
   4  -2   4   67.69    9.40 
   4  -2   4   61.59    9.60 
  -4  -2  -4   63.69    5.50 
  -4  -2  -4   54.29    5.60 
  -4  -2  -4   58.39    8.10 
  -4   2   4   49.80    6.90 
   4  -2   4   53.29    5.00 
  -4  -2   4   51.39    6.00 
   4   2   4   53.39    4.50 
  -4   2  -4   40.00    5.40 
  -4   2  -4   50.99    5.10 
   4   2   4   54.39    5.60 
  -4  -2   4   -0.10   70.89 
  -4  -2   4   55.59    4.40 
  -4  -2   4   54.99    6.70 
  -4  -2   4   55.89    7.30 
   4  -2  -4   48.10    5.50 
   4  -2  -4   49.00    9.40 
   4  -2  -4   48.60    5.10 
   4   2   4   65.29   11.40 
   5  -2   4 1359.96   86.99 
   5  -2   4 1306.07   83.69 
  -5  -2  -4 1341.27   77.59 
   5   2  -4 1255.57   75.99 
   5  -2   4 1312.17   76.29 
   5  -2   4 1310.27   75.19 
  -5  -2  -4 1365.76   76.09 
  -5  -2  -4 1337.87   82.89 
  -5   2   4 1284.17   81.49 
   5  -2  -4 1270.37   76.79 
   5   2   4 1240.88   89.89 
  -5  -2   4 1247.28   81.39 
   5   2   4 1278.17   77.19 
  -5  -2   4 1220.28   80.59 
  -5  -2   4 1181.98   77.89 
  -5   2  -4 1193.88   76.49 
  -5   2  -4 1369.06   76.59 
   5  -2  -4 1198.78   88.89 
   5   2   4 1226.98   75.49 
   5  -2  -4 1182.68   75.89 
  -6   2   4   99.59   13.00 
  -6  -2  -4  118.59   10.60 
   6  -2   4  110.79    9.10 
  -6  -2  -4   28.30  142.29 
   6   2  -4  102.69    9.00 
  -6  -2  -4  101.69   13.70 
   6  -2   4  105.99    8.00 
   6  -2   4  106.69   15.80 
  -6   2  -4  -84.59  119.89 
   6  -2  -4  114.39   17.30 
  -6  -2   4  131.59   13.20 
   6   2   4  117.99    8.60 
  -6   2  -4  121.39    9.70 
  -6  -2   4  -32.10  105.19 
  -6  -2   4  115.29   13.70 
  -6  -2   4  122.89   11.10 
   6   2   4  125.39   10.30 
   7  -2   4  114.39   17.40 
  -7  -2  -4  172.38   13.30 
   7   2  -4  156.88   11.60 
  -7  -2  -4  151.98   17.70 
  -7  -2  -4   -0.10  130.29 
   7  -2   4  158.78   11.30 
  -7   2   4  140.79   16.10 
  -7  -2   4  131.19   15.90 
  -7  -2   4  132.19   13.40 
   7  -2  -4  147.29   11.20 
  -7  -2   4  -31.40  131.39 
  -7   2  -4   44.30  192.48 
   7   2   4  149.29   12.00 
   7   2   4  119.29   19.30 
   7   2   4  125.99   12.20 
  -7  -2   4  141.59   15.30 
   8   2  -4   26.70    4.70 
  -8  -2  -4   39.00  188.38 
  -8  -2  -4   34.00    5.50 
  -8   2   4   20.20    6.90 
   8  -2   4   28.40    3.00 
   8  -2   4   36.10    4.20 
   8   2   4   28.20    4.30 
  -8  -2   4   21.10    6.00 
   8  -2  -4   35.30    4.50 
   8   2   4   28.80    3.40 
  -8  -2   4   98.99  206.68 
  -8  -2   4   28.40    4.90 
  -9   2   4   30.80    6.40 
   9  -2   4   42.50    4.10 
  -9  -2  -4   39.40    5.60 
  -9  -2  -4   -4.20  116.89 
   9  -2   4   39.60    3.80 
   9   2   4   30.80    4.40 
   9   2   4   32.30    3.50 
  -9  -2   4   73.29  167.48 
  -9  -2   4   38.80    6.60 
   0   3  -4    7.70    2.80 
   0  -3  -4    3.50    2.40 
   0  -3  -4   10.90    5.00 
   0  -3  -4    1.90    1.10 
   0   3  -4    2.30    1.40 
   0   3   4   11.80    4.30 
   0  -3   4    5.10    1.30 
   0  -3   4    9.20    2.80 
   1   3  -4 1932.21  133.19 
   1  -3   4 2041.00  122.79 
   1   3  -4 2093.39  123.79 
  -1  -3  -4 2341.17  125.29 
  -1   3   4 2166.28  127.99 
  -1  -3  -4 1853.41  130.79 
  -1   3  -4 2087.49  124.29 
   1   3   4 2118.29  123.99 
   1  -3  -4 2208.08  126.49 
   1  -3  -4 1967.70  123.39 
   1   3   4 2093.89  130.79 
   1  -3  -4 1917.21  127.19 
   1  -3  -4 2412.36  134.19 
  -1  -3   4 2122.19  123.49 
  -1   3  -4 2071.39  129.89 
  -2   3   4  418.96   25.30 
   2  -3   4  375.76   24.30 
   2  -3   4  422.66   29.20 
  -2  -3  -4  429.46   35.20 
   2  -3   4  345.87   23.90 
  -2  -3  -4  403.36   25.20 
   2   3  -4  370.76   24.90 
  -2  -3  -4  414.86   27.50 
  -2   3  -4  367.66   31.00 
  -2  -3   4  386.26   29.10 
   2  -3  -4  399.16   27.10 
   2  -3  -4  349.47   26.30 
  -2  -3   4  410.06   27.20 
   2   3   4  386.26   32.50 
  -2   3  -4  409.46   25.80 
   2  -3  -4  416.96   33.30 
   2   3   4  392.66   25.60 
   2  -3  -4  357.06   24.70 
  -3   3   4  270.67   18.70 
   3  -3   4  252.37   17.20 
  -3   3   4  267.57   20.60 
   3  -3   4  281.97   22.30 
   3  -3   4  256.17   17.90 
  -3  -3  -4  285.87   18.70 
   3  -3   4  267.47   23.70 
  -3  -3  -4  280.27   21.80 
  -3   3  -4  259.97   19.20 
  -3  -3   4  277.07   17.80 
   3   3   4  272.47   26.90 
   3   3   4  279.97   19.30 
   3  -3  -4  277.57   18.90 
  -3  -3   4  280.07   19.70 
   3  -3  -4  296.87   26.50 
   3  -3  -4  286.07   20.40 
   3   3   4  287.67   17.80 
  -3  -3   4  306.87   21.80 
   3  -3  -4  287.87   17.50 
   4  -3   4  342.77   21.50 
   4   3  -4  330.87   21.60 
  -4  -3  -4  372.26   23.10 
   4  -3   4  357.46   29.60 
   4   3  -4  335.07   22.70 
   4  -3   4  340.87   22.40 
  -4  -3  -4  337.37   23.40 
  -4   3   4  342.17   26.00 
   4  -3   4  326.57   30.10 
  -4   3   4  363.36   22.40 
  -4  -3  -4  364.86   27.80 
  -4  -3   4  333.27   24.30 
   4   3   4  362.16   23.90 
   4  -3  -4  343.27   31.70 
  -4  -3   4  346.77   25.00 
   4  -3  -4  344.77   22.60 
   4  -3  -4  343.27   24.70 
   4   3   4  359.16   22.20 
  -4   3  -4  398.56   23.90 
   4  -3  -4  359.26   21.90 
   4   3   4  335.47   33.40 
  -4  -3   4  346.67   21.80 
  -4  -3   4  353.76   27.20 
   5  -3   4  506.05   38.40 
   5   3  -4  514.15   33.40 
  -5  -3  -4  577.54   33.30 
   5  -3   4  536.65   33.30 
   5  -3   4  510.05   32.00 
  -5   3   4  496.25   37.90 
  -5  -3  -4  505.55   39.60 
   5   3  -4  511.85   32.20 
  -5  -3  -4  537.85   34.70 
   5   3   4  512.95   32.70 
   5   3   4  570.64   34.90 
   5  -3  -4  527.65   33.40 
  -5  -3   4  518.15   35.60 
   5  -3  -4  542.45   32.30 
   5  -3  -4  499.75   44.40 
   5  -3  -4  506.55   35.30 
  -5  -3   4  516.55   39.20 
  -5  -3   4  544.85   36.90 
  -5   3  -4  590.64   34.10 
   6   3  -4   90.79    7.90 
   6  -3   4   86.79    7.20 
  -6   3   4   84.49   11.30 
   6  -3   4   84.29   13.30 
  -6  -3  -4   90.89    8.70 
  -6  -3  -4   -2.30   97.59 
  -6  -3  -4   94.79   12.60 
   6  -3   4   91.89    6.10 
  -6   3  -4   20.90  137.69 
  -6  -3   4   35.70  146.39 
   6  -3  -4   63.89    7.00 
   6  -3  -4   62.69    6.00 
  -6  -3   4   54.79    8.90 
   6   3   4   68.19    7.70 
   6   3   4   67.39    6.20 
  -6  -3   4   48.30   10.10 
  -6  -3   4   70.89    8.60 
   7  -3   4   15.80    3.20 
   7  -3   4   13.60    2.20 
  -7  -3  -4   11.30    5.80 
  -7  -3  -4  -24.40  119.09 
  -7   3   4   11.90    5.10 
   7   3  -4   11.30    3.90 
  -7  -3  -4   18.50    4.60 
  -7  -3   4   19.40    4.80 
   7  -3  -4   18.90    2.90 
   7   3   4   18.40    2.90 
   7   3   4    5.30    5.20 
   7  -3  -4   10.20   12.50 
  -7  -3   4   17.10    7.50 
  -7  -3   4   18.50    5.60 
  -7  -3   4   10.90  166.88 
   7  -3  -4   15.30    3.40 
   7   3   4   15.40    4.00 
  -8   3   4   20.40    5.70 
   8  -3   4   23.80    3.00 
   8  -3   4   15.00    5.60 
  -8  -3  -4   17.90    4.40 
  -8  -3  -4  -73.39   75.69 
   8   3   4   18.40    4.00 
   8   3   4   19.40    3.70 
  -8  -3   4   17.30    4.40 
   8  -3  -4   21.00    3.20 
  -8  -3   4   17.40    5.10 
   8  -3  -4   20.80    3.50 
  -8  -3   4  -35.00  133.99 
  -9   3   4    8.40    3.40 
  -9  -3  -4  -96.89   62.79 
  -9  -3   4    7.90    3.80 
  -9  -3   4  -53.69  105.49 
   0  -4   4  731.23   49.00 
   0   4   4  653.13   44.50 
   0  -4  -4  813.32   49.40 
   0  -4   4  774.52   45.90 
   0  -4  -4  655.63   44.40 
   0   4   4  754.32   50.69 
   0  -4   4  629.64   43.50 
   0   4  -4  769.52   44.00 
   0   4  -4  733.43   45.40 
   0  -4  -4  747.23   54.99 
   1  -4   4 1678.73  100.49 
  -1   4   4 1743.63  101.59 
  -1   4   4 1798.92  104.99 
  -1  -4  -4 1711.63  101.19 
   1  -4   4 1782.62   99.69 
  -1  -4  -4 1850.91  114.09 
   1   4  -4 1745.83  102.09 
  -1  -4  -4 1848.42  101.79 
   1   4  -4 1902.31  100.69 
   1   4   4 1639.24  100.29 
  -1  -4   4 1629.24  100.79 
   1   4   4 1563.64  101.79 
   1  -4  -4 1511.85  101.09 
   1  -4  -4 1685.83  100.19 
   1  -4  -4 1709.43  105.09 
  -1  -4   4 1704.23  101.89 
   1   4   4 1607.94  109.09 
  -1   4  -4 1573.14  101.99 
  -2  -4  -4   72.09    7.20 
   2  -4   4   80.19   10.50 
  -2  -4  -4   77.09   13.80 
   2  -4   4   71.79    5.90 
  -2  -4  -4  -32.00   65.29 
   2   4  -4   68.59    7.40 
  -2  -4  -4   79.99    9.30 
  -2   4   4   76.39    7.30 
   2  -4   4   72.29    6.70 
   2   4  -4   75.09    6.50 
   2  -4  -4  108.29   15.00 
  -2  -4   4   97.99   11.60 
   2   4   4   98.79    7.00 
   2  -4  -4   97.89    7.80 
  -2  -4   4   89.79    8.80 
   2  -4  -4  100.79   10.00 
  -2   4  -4  104.69    8.40 
   2   4   4  107.09   14.60 
  -2  -4   4   96.79    7.10 
   2   4   4   97.39    8.50 
  -2  -4   4  101.49   10.20 
   2  -4  -4   95.49    8.00 
   3  -4   4 1062.19   65.29 
   3   4  -4 1073.79   65.89 
   3  -4   4 1051.29   66.29 
  -3   4   4 1016.50   69.29 
   3   4  -4 1055.49   67.19 
   3  -4   4 1076.59   73.19 
  -3   4   4 1103.69   67.09 
  -3  -4  -4 1176.38   67.49 
  -3  -4  -4 1080.99   71.59 
  -3  -4  -4 1008.70   66.89 
  -3  -4   4 1176.48   72.19 
   3  -4  -4 1094.79   66.89 
  -3  -4   4 1150.68   66.39 
   3   4   4 1101.19   68.09 
   3   4   4 1170.28   66.29 
   3  -4  -4 1140.79   65.79 
   3  -4  -4 1177.68   78.79 
  -3  -4   4 1161.58   68.19 
  -3   4  -4 1183.78   68.09 
   3   4   4 1036.30   78.39 
   3  -4  -4 1169.58   70.39 
  -4  -4  -4    4.20    2.00 
  -4  -4  -4    5.30    2.30 
   4  -4   4    4.60    1.80 
   4   4  -4    7.60    1.90 
  -4  -4  -4    5.10    3.60 
  -4  -4  -4   48.40  176.98 
   4  -4   4    1.50    2.30 
  -4   4   4    0.30    2.30 
   4  -4   4    3.10    1.10 
   4   4  -4    2.60    1.70 
  -4   4  -4    5.90    2.00 
   4   4   4    8.40    2.00 
  -4  -4   4    8.50    4.50 
   4  -4  -4   12.60    6.20 
  -4  -4   4    5.00    1.40 
  -4  -4   4   11.40   97.39 
   4  -4  -4    5.20    2.60 
   4   4   4    7.30    2.90 
   4  -4  -4    8.00    2.40 
  -4  -4   4    6.30    3.00 
   4   4   4   11.80    7.40 
  -4  -4   4    6.00    2.60 
  -5  -4  -4  103.49   14.00 
   5  -4   4  103.69    7.20 
  -5  -4  -4   -9.60  150.38 
  -5  -4  -4  110.19    9.80 
  -5   4   4  101.19   12.00 
   5  -4   4  108.39   14.00 
  -5  -4  -4  115.79    8.50 
   5  -4   4  104.09    8.30 
   5   4  -4  117.19   10.30 
   5   4  -4  103.69    9.10 
   5   4   4   83.39    7.70 
   5  -4  -4   83.99   15.40 
  -5  -4   4   79.29    9.80 
   5  -4  -4   91.49    7.40 
  -5  -4   4   82.39   12.30 
  -5  -4   4   47.70  203.28 
   5   4   4   88.79   10.50 
  -5   4  -4   82.69    8.40 
   5  -4  -4   84.99   10.10 
  -5  -4   4   91.69   10.20 
   6   4  -4   14.50    2.60 
   6  -4   4   18.20    3.40 
  -6  -4  -4   19.80  178.58 
  -6  -4  -4    2.70    5.20 
   6   4  -4   11.50    3.20 
  -6  -4  -4   12.60    4.20 
  -6   4   4   13.40    5.20 
  -6  -4   4   71.49  188.48 
  -6  -4   4   11.60    6.20 
  -6  -4   4   16.70    5.10 
   6  -4  -4    8.40    7.70 
   6   4   4   20.00    4.60 
   6  -4  -4   19.60    4.10 
  -6  -4   4   10.50    4.30 
   6   4   4   17.40    3.10 
   6  -4  -4   16.10    2.70 
   7   4  -4  101.99    9.20 
  -7   4   4  121.79   14.20 
  -7  -4  -4   96.19   16.10 
  -7  -4  -4    2.40  143.19 
   7  -4   4  119.79    8.70 
   7  -4   4   89.89   15.10 
  -7  -4  -4  136.99   12.20 
  -7  -4   4  134.59   12.70 
   7   4   4  133.29    9.70 
  -7  -4   4  134.39   13.30 
  -7  -4   4  103.69   16.10 
  -7  -4   4   45.80  189.58 
   7  -4  -4  134.89    9.40 
  -8  -4  -4  -62.29   78.79 
  -8  -4   4  -33.60  113.19 
   0  -5  -4 1432.26   85.89 
   0  -5  -4 1424.06   84.39 
   0  -5   4 1426.56   84.99 
   0   5   4 1318.97   85.49 
   0  -5  -4 1466.05   91.39 
   0   5   4 1389.86   92.39 
   0   5  -4 1469.95   87.09 
   0  -5   4 1429.66   83.39 
   0  -5   4 1509.05   87.29 
   0  -5   4 1327.17   84.19 
   0  -5   4 1564.54   92.59 
   0  -5  -4 1511.65   98.69 
   0   5   4 1352.36   85.69 
   0   5  -4 1331.17   86.39 
   0   5  -4 1463.65   84.69 
   0  -5  -4 1358.36   85.39 
   1  -5   4  430.96   27.60 
  -1   5   4  406.86   25.50 
  -1   5   4  398.26   28.40 
   1   5  -4  424.76   24.30 
   1   5  -4  401.66   25.80 
   1  -5   4  403.96   30.80 
  -1  -5  -4  415.46   25.60 
   1  -5   4  393.76   24.20 
   1  -5   4  417.26   23.20 
  -1   5   4  343.97   24.20 
   1  -5   4  341.47   28.00 
  -1  -5  -4  365.46   25.90 
   1   5  -4  417.86   26.20 
  -1  -5  -4  447.56   37.70 
   1  -5  -4  362.76   25.20 
   1  -5  -4  331.77   24.70 
  -1   5  -4  341.67   25.50 
   1  -5  -4  376.56   35.40 
   1   5   4  344.37   25.10 
   1   5   4  357.46   25.50 
   1  -5  -4  360.16   23.60 
  -1  -5   4  351.66   24.80 
  -1  -5   4  364.16   24.40 
  -1  -5   4  370.16   26.00 
   1   5   4  318.57   37.50 
  -1  -5   4  388.66   30.90 
   1   5   4  354.36   23.70 
  -1   5  -4  355.36   25.30 
   1  -5  -4  345.07   28.70 
  -1   5  -4  378.86   24.00 
   2  -5   4 1398.76   82.09 
   2  -5   4 1291.37   81.19 
   2  -5   4 1404.76   80.19 
  -2  -5  -4 1451.45   82.89 
   2  -5   4 1360.06   92.69 
  -2   5   4 1360.06   82.49 
  -2  -5  -4 1451.75   97.19 
  -2  -5  -4 1380.56   86.69 
  -2  -5  -4 1264.47   81.29 
   2   5  -4 1429.16   81.29 
   2  -5   4 1482.25   89.29 
   2   5  -4 1349.96   82.99 
   2  -5  -4 1331.37   82.69 
   2   5   4 1275.67   82.59 
   2   5   4 1303.17   83.09 
   2  -5  -4 1370.96   80.69 
  -2   5  -4 1383.56   82.89 
   2   5   4 1381.56   81.19 
   2  -5  -4 1276.37   81.99 
  -2  -5   4 1402.56   81.59 
   2   5   4 1218.08   92.29 
   2  -5  -4 1339.47   86.39 
  -2  -5   4 1285.17   83.09 
   2  -5  -4 1386.16   96.59 
  -2  -5   4 1502.35   87.79 
   3  -5   4 1179.98   71.09 
  -3  -5  -4 1125.99   77.49 
   3   5  -4 1169.58   70.79 
   3   5  -4 1147.39   72.59 
   3  -5   4 1204.78   71.99 
  -3  -5  -4 1262.07   72.59 
  -3  -5  -4 1115.49   71.59 
  -3   5   4 1250.27   72.29 
   3  -5   4 1187.68   78.79 
  -3   5   4 1164.18   74.49 
   3  -5   4 1166.68   69.79 
   3   5   4 1163.78   73.09 
   3  -5  -4 1205.48   71.89 
   3   5   4 1024.10   83.79 
   3   5   4 1224.98   70.99 
  -3  -5   4 1229.98   73.19 
  -3  -5   4 1158.08   70.89 
  -3   5  -4 1271.97   72.89 
  -3  -5   4 1222.88   74.19 
   3  -5  -4 1200.88   85.09 
   3  -5  -4 1027.30   76.79 
   3  -5  -4 1272.57   70.49 
  -3  -5   4 1186.88   78.09 
   4  -5   4  391.06   32.60 
  -4  -5  -4  390.06   26.40 
  -4   5   4  382.96   25.80 
   4  -5   4  390.66   25.50 
   4  -5   4  378.76   24.10 
  -4  -5  -4  410.06   26.40 
  -4  -5  -4   39.80  191.78 
  -4   5   4  345.07   28.60 
   4   5  -4  348.47   26.90 
   4   5  -4  385.26   26.90 
  -4  -5  -4  385.26   32.40 
   4   5   4  394.86   25.20 
  -4  -5   4  394.06   27.10 
  -4  -5   4  423.46   33.20 
   4  -5  -4  373.76   29.40 
   4  -5  -4  396.26   24.60 
  -4   5  -4  389.46   26.70 
   4  -5  -4  398.66   38.20 
   4  -5  -4  400.06   26.20 
   4   5   4  409.16   27.70 
  -4  -5   4  368.66   26.10 
  -4  -5   4  408.46   28.00 
   5  -5   4  115.99    9.00 
  -5   5   4   99.59    7.90 
  -5  -5  -4  108.69   10.10 
  -5  -5  -4  118.79    9.00 
  -5  -5  -4  -15.00  143.89 
  -5  -5  -4  114.99   14.80 
  -5   5   4  101.09   11.90 
   5  -5   4  110.09    7.60 
   5   5  -4  109.39    8.40 
   5   5  -4  110.99   10.30 
   5  -5   4  113.49   14.60 
   5  -5  -4   85.89    9.00 
   5  -5  -4   86.29    7.70 
   5  -5  -4   82.69   11.60 
  -5  -5   4   87.59   10.60 
   5   5   4   90.79   10.10 
  -5  -5   4   83.69    9.70 
  -5   5  -4   73.79    8.50 
   5  -5  -4   72.09   16.30 
  -5  -5   4   84.99   13.30 
   5   5   4   91.29    8.10 
  -5  -5   4  -63.09  173.08 
   6   5  -4  170.68   14.80 
  -6  -5  -4  148.59   18.80 
  -6   5   4  134.69   16.20 
   6  -5   4  164.48   11.80 
   6  -5   4  166.88   19.00 
   6  -5   4  181.18   13.40 
  -6  -5  -4  165.78   14.60 
  -6  -5  -4   10.60  106.59 
   6  -5   4  140.19   18.60 
   6  -5  -4  198.88   14.60 
   6  -5  -4  203.38   13.70 
   6   5   4  196.28   15.80 
   6   5   4  198.48   13.50 
  -6  -5   4  182.98   15.70 
   6  -5  -4  132.99   23.40 
  -6  -5   4  157.18   20.60 
  -6  -5   4  182.08   16.30 
  -7   5   4    9.60    4.40 
  -7  -5  -4  -54.29  117.09 
   7  -5   4    6.90    5.30 
  -7  -5   4  -52.59  117.99 
   7   5   4    6.90    3.20 
   7  -5  -4    6.00    2.20 
  -7  -5   4    7.70    4.40 
  -7  -5   4    7.90    3.50 
   8  -5   4    3.30    1.20 
  -8  -5  -4    9.30  167.38 
   8   5  -4    3.60    3.10 
  -8  -5  -4    0.60    2.30 
  -8   5   4    2.60    2.90 
   8   5  -4    4.80    2.10 
   8  -5   4    4.60    4.50 
   8  -5  -4    3.20    1.70 
   8   5   4    4.90    1.70 
  -8  -5   4    0.40    2.20 
  -8  -5   4    4.60    3.00 
  -8  -5   4  -73.79  163.78 
   8  -5  -4    0.70    2.70 
   0  -6   4 1847.02  115.89 
   0   6  -4 1912.11  118.49 
   0   6  -4 1983.10  118.29 
   0  -6   4 2144.29  120.19 
   0  -6  -4 1985.50  115.79 
   0  -6  -4 1972.50  117.89 
   0  -6  -4 1930.81  124.19 
   0   6   4 1994.10  115.79 
   0  -6   4 2060.99  117.09 
   0  -6  -4 1852.31  117.19 
   0  -6   4 2086.99  125.99 
   0   6   4 1934.71  117.59 
   0  -6   4 1997.00  121.69 
   0   6   4 1916.51  125.29 
   0   6   4 1858.81  117.79 
   1  -6   4  324.67   22.50 
   1   6  -4  330.07   22.60 
  -1  -6  -4  301.27   23.80 
  -1  -6  -4  316.87   21.60 
   1  -6   4  330.27   21.40 
   1  -6   4  337.87   23.30 
   1  -6   4  326.97   25.80 
  -1  -6  -4  316.67   37.20 
  -1  -6  -4  319.07   23.80 
  -1   6   4  334.57   26.70 
  -1   6   4  295.87   21.30 
  -1   6   4  320.57   23.80 
   1   6  -4  307.77   24.00 
   1  -6   4  325.87   29.40 
   1   6  -4  319.67   24.50 
   1  -6  -4  380.96   29.50 
  -1   6  -4  382.56   22.60 
   1  -6  -4  363.36   23.90 
  -1  -6   4  379.56   26.00 
  -1   6  -4  367.36   24.50 
   1   6   4  382.46   24.60 
   1  -6  -4  385.36   22.40 
  -1   6  -4  350.36   24.50 
   1  -6  -4  362.06   24.30 
   1   6   4  348.77   32.40 
   1  -6  -4  389.16   35.90 
   1   6   4  362.86   24.70 
  -1  -6   4  357.46   30.80 
   1   6   4  398.26   22.70 
  -1  -6   4  383.66   23.40 
  -2  -6  -4   76.39   11.10 
  -2  -6  -4   84.39    7.50 
   2   6  -4   86.09    9.40 
   2  -6   4   93.39   13.20 
  -2  -6  -4   75.29    9.70 
  -2  -6  -4   83.19   16.70 
  -2   6   4   72.29   10.80 
   2   6  -4   78.39    8.80 
   2  -6   4   84.39   10.60 
   2  -6   4   85.89    7.80 
   2  -6   4   84.59    7.00 
   2  -6   4   92.09    8.30 
   2   6  -4   77.89    7.80 
   2  -6  -4   83.79    8.50 
   2   6   4   84.99   10.40 
   2  -6  -4  103.19    9.20 
   2  -6  -4  104.59   17.20 
  -2  -6   4  106.39    8.50 
   2   6   4  101.49    9.90 
   2   6   4  101.39    9.10 
  -2  -6   4   49.99  110.69 
  -2  -6   4   88.39   10.10 
   2   6   4   98.19   16.20 
  -2   6  -4  106.79   11.80 
   2  -6  -4   96.19    8.80 
   2  -6  -4   83.39   11.40 
   3  -6   4 1389.96   86.89 
  -3   6   4 1478.65   87.89 
   3   6  -4 1384.06   88.39 
   3  -6   4 1442.26   84.89 
   3  -6   4 1447.56   95.09 
  -3  -6  -4 1357.86   93.99 
  -3  -6  -4 1365.06   86.59 
   3  -6   4 1445.66   92.29 
   3  -6   4 1391.66   86.29 
  -3  -6  -4 1447.86   87.99 
   3   6  -4 1388.06   85.99 
  -3  -6   4 1483.65   88.49 
   3  -6  -4 1365.56  102.49 
   3  -6  -4 1519.35   87.49 
  -3  -6   4 1496.65   86.39 
   3   6   4 1411.46   88.29 
   3  -6  -4 1430.46   88.09 
   3   6   4 1476.45   86.09 
  -3   6  -4 1453.15   88.19 
  -3  -6   4 1550.54   95.59 
   3   6   4 1469.75   88.79 
  -4  -6  -4  910.51   54.59 
   4  -6   4  957.10   53.99 
  -4   6   4  929.01   54.69 
   4   6  -4  896.01   53.39 
  -4  -6  -4  881.21   62.99 
   4   6  -4  899.31   56.19 
   4  -6   4  902.11   52.19 
  -4  -6  -4  917.01   55.09 
  -4   6   4  831.12   57.29 
   4  -6   4  914.71   62.99 
   4   6   4  848.92   55.99 
  -4  -6   4  868.91   63.09 
   4  -6  -4  750.62   58.19 
  -4  -6   4  830.72   52.99 
   4  -6  -4  772.12   67.69 
  -4  -6   4  895.21   54.59 
  -4  -6   4  851.41   55.99 
   4  -6  -4  868.41   52.69 
   4   6   4  828.82   53.19 
   4  -6  -4  864.41   54.49 
  -4   6  -4  794.92   54.69 
  -5  -6  -4   55.39  274.47 
   5  -6   4   89.09    6.80 
   5  -6   4   78.59   12.80 
   5  -6   4   84.89   12.60 
   5  -6   4   86.49    8.10 
  -5   6   4   72.59    7.20 
  -5  -6  -4   84.49    8.10 
  -5   6   4   83.89   10.70 
  -5  -6  -4   83.99    8.90 
   5   6  -4   92.19   10.20 
  -5  -6  -4   83.49   13.80 
   5   6  -4   88.59    7.80 
   5  -6  -4   61.79   14.10 
  -5  -6   4   76.39   13.90 
  -5   6  -4   69.79    7.90 
  -5  -6   4   85.39   10.20 
   5   6   4   83.29    9.80 
  -5  -6   4   70.79    6.20 
   5  -6  -4   82.99    7.20 
   5  -6  -4   81.59    8.80 
  -5  -6   4   80.49    8.60 
   5  -6  -4   74.09   15.90 
   5   6   4   79.39    7.60 
   6  -6   4    3.00    3.40 
  -6  -6  -4  -24.20   75.39 
   6  -6   4    2.80    1.60 
   6   6  -4    3.40    3.10 
   6  -6   4   -1.50    6.20 
  -6   6   4    1.70    3.10 
   6  -6   4    2.70    3.70 
   6  -6   4    3.20    2.10 
  -6  -6  -4    2.40    6.40 
   6   6  -4    4.60    2.20 
  -6  -6  -4    4.70    2.90 
   6  -6  -4    8.20    3.30 
   6  -6  -4    4.50    2.00 
  -6  -6   4    4.50    2.50 
  -6  -6   4   -3.30   10.40 
  -6  -6   4  -16.90  106.59 
   6   6   4    1.80    2.60 
   6  -6  -4   12.70    9.90 
  -6   6  -4    6.30    2.10 
   6   6   4    3.40    1.90 
  -6  -6   4    9.30    4.40 
  -7  -6  -4  -19.30   96.19 
  -7  -6  -4  153.68   13.10 
   7   6  -4  150.48   13.90 
   7   6  -4  118.69   13.00 
   7  -6   4  147.09   10.50 
   7  -6   4  111.29   15.10 
   7   6   4  170.98   14.00 
  -7  -6   4  125.99   13.60 
   7   6   4  149.09   11.40 
   7  -6  -4  157.58   11.20 
   7  -6  -4  172.18   13.20 
  -7  -6   4  148.79   14.30 
   8   6  -4   70.59    7.80 
  -8  -6  -4   88.99    8.40 
   8   6  -4   74.49    8.00 
  -8  -6  -4  -31.80   96.39 
   8  -6   4   81.59    6.20 
   8  -6   4   87.99    7.40 
  -8  -6   4   70.39    8.30 
   8   6   4   69.69    7.80 
  -8  -6   4  -43.10  116.09 
   8   6   4   70.59    6.40 
   8  -6  -4   78.39    7.70 
   8  -6  -4   77.69    6.50 
   0  -7   4 1574.74  102.69 
   0  -7  -4 1671.93   96.89 
   0  -7   4 1640.54  108.49 
   0  -7  -4 1678.03  107.29 
   0  -7   4 1753.52  102.59 
   0  -7   4 1559.84   95.99 
   0   7   4 1646.24   96.89 
   0   7   4 1604.24   99.59 
   0  -7  -4 1726.03  114.79 
   0   7   4 1528.55  106.99 
   0  -7   4 1578.04   97.29 
   0   7   4 1569.74   98.79 
   0  -7   4 1703.03   98.69 
   0   7  -4 1640.04   99.79 
   0   7  -4 1653.03  100.19 
   0   7  -4 1671.63   97.69 
   0  -7  -4 1594.84   98.59 
   0  -7  -4 1671.23   99.79 
   1   7  -4  297.97   19.70 
   1  -7   4  320.57   29.10 
   1   7  -4  279.37   21.30 
   1  -7   4  281.27   19.50 
   1   7  -4  283.67   21.90 
   1  -7   4  296.87   18.20 
   1  -7   4  299.97   20.50 
   1  -7   4  313.17   24.00 
  -1  -7  -4  316.47   33.30 
  -1  -7  -4  306.87   21.50 
  -1   7   4  294.07   21.30 
   1  -7   4  231.98   29.60 
  -1   7  -4  272.47   18.70 
   1   7   4  275.57   21.60 
   1  -7  -4  281.07   20.60 
   1   7   4  306.57   19.30 
   1   7   4  292.97   21.30 
  -1  -7   4  246.38   27.10 
  -1   7  -4  255.67   24.00 
   1  -7  -4  283.47   26.20 
   1  -7  -4  288.67   18.90 
  -1   7  -4  300.67   21.50 
   1   7   4  229.18   27.80 
  -1  -7   4  293.57   23.30 
   1  -7  -4  306.97   32.50 
   1  -7  -4  250.47   22.30 
  -1  -7   4  285.97   20.10 
   2   7  -4 1112.99   65.79 
  -2  -7  -4 1116.59   67.99 
  -2   7   4 1132.09   67.79 
   2   7  -4 1075.69   67.89 
   2  -7   4 1102.29   65.89 
   2  -7   4 1117.59   64.29 
  -2  -7  -4 1080.39   73.39 
  -2  -7  -4 1045.40   65.19 
   2  -7   4 1062.09   66.49 
   2   7  -4 1092.59   70.19 
  -2  -7  -4 1106.19   82.49 
   2  -7   4 1152.68   71.39 
  -2  -7   4 1156.08   74.69 
  -2  -7   4 1120.49   66.29 
  -2   7  -4 1101.09   67.59 
   2   7   4  884.21   70.09 
   2  -7  -4 1076.99   64.89 
   2   7   4 1104.49   65.29 
   2  -7  -4  928.61   79.19 
  -2  -7   4 1001.20   69.29 
   2  -7  -4 1043.60   72.99 
  -3  -7  -4  443.26   30.00 
  -3  -7  -4  445.96   28.20 
   3  -7   4  444.16   36.90 
   3  -7   4  386.66   38.30 
   3  -7   4  459.85   26.80 
  -3  -7  -4   -9.00  222.58 
   3  -7   4  439.86   33.70 
   3   7  -4  446.86   31.00 
   3   7  -4  451.45   28.20 
   3  -7   4  451.25   29.00 
  -3   7   4  436.56   29.70 
  -3  -7  -4  422.86   36.10 
  -3   7   4  462.25   31.20 
   3  -7  -4  407.36   29.90 
  -3  -7   4  447.96   30.20 
   3   7   4  419.06   30.30 
   3   7   4  420.36   27.70 
   3  -7  -4  434.66   29.20 
   3  -7  -4  409.16   34.00 
   3   7   4  390.16   29.80 
   3  -7  -4  343.07   40.00 
   3  -7  -4  404.56   27.10 
  -3  -7   4  414.46   28.00 
  -3   7  -4  405.06   29.50 
  -3  -7   4  399.56   35.80 
   4  -7   4  506.85   48.50 
   4   7  -4  565.74   35.50 
   4   7  -4  589.84   38.80 
   4  -7   4  583.54   42.20 
  -4   7   4  589.24   36.90 
   4  -7   4  530.95   44.30 
  -4  -7  -4  478.15   43.70 
  -4   7   4  545.05   38.50 
  -4  -7  -4  559.94   36.00 
   4  -7   4  592.54   34.20 
  -4  -7  -4   46.30  313.27 
  -4  -7  -4  555.74   37.00 
   4   7   4  563.74   35.20 
   4  -7  -4  572.24   36.80 
   4   7   4  560.04   38.10 
  -4  -7   4   58.39  238.38 
   4  -7  -4  555.64   34.70 
  -4  -7   4  524.55   34.90 
   4  -7  -4  463.95   49.10 
  -4   7  -4  574.84   37.10 
  -4  -7   4  501.75   44.00 
  -4  -7   4  579.84   38.20 
  -5  -7  -4   16.90    4.10 
   5  -7   4   15.60    5.80 
   5  -7   4   17.10    9.50 
   5  -7   4   17.70    3.00 
  -5   7   4   16.20    3.40 
   5   7  -4   19.40    3.90 
  -5  -7  -4   18.70    9.10 
  -5   7   4   14.20    4.90 
   5   7  -4   15.00    4.60 
  -5  -7  -4   32.50  260.97 
   5  -7   4   11.30    4.90 
  -5  -7  -4   16.50    3.90 
   5   7   4   14.50    3.20 
  -5   7  -4   18.90    4.00 
   5   7   4   16.70    4.60 
  -5  -7   4   84.69  265.17 
  -5  -7   4    8.20    7.70 
   5  -7  -4    9.50    7.30 
   5  -7  -4   13.30    4.20 
   5  -7  -4   10.00    6.40 
  -5  -7   4   15.10    5.20 
  -5  -7   4   13.80    2.60 
   5  -7  -4   17.40    3.40 
  -6  -7  -4 -154.38  233.38 
   6  -7   4  199.28   15.00 
   6   7  -4  187.38   14.50 
  -6   7   4  156.08   15.70 
  -6  -7  -4  195.78   15.50 
   6   7  -4  198.28   17.30 
   6  -7   4  193.38   13.30 
  -6  -7   4  189.68   17.10 
   6  -7  -4  209.48   16.00 
   6   7   4  180.38   14.00 
   6   7   4  187.98   16.60 
   6  -7  -4  200.48   13.90 
   7  -7   4   82.79    7.60 
   7   7  -4   60.49    6.60 
  -7  -7  -4   74.59    7.80 
   7   7  -4   70.09    8.40 
  -7  -7  -4   16.10  140.89 
   7  -7   4   65.99    6.00 
   7  -7  -4   82.29    8.40 
   7   7   4   66.09    6.50 
   7   7   4   71.59    8.40 
   7  -7  -4   64.69    6.50 
  -7  -7   4   12.10  158.08 
  -7  -7   4   67.09    8.70 
   0   8   4    3.00    1.60 
   0   8   4    1.80    2.50 
   0  -8   4    5.80    4.10 
   0  -8  -4    1.00    4.00 
   0  -8  -4    4.00    1.70 
   0  -8  -4    2.60    2.70 
   0   8   4    6.50    3.10 
   0   8  -4    5.20    2.90 
   0  -8   4    2.70    2.20 
   0  -8  -4    2.40    3.00 
   0  -8   4    1.20    2.60 
   0   8  -4    5.00    2.00 
   0  -8  -4    4.90    6.70 
   0   8  -4    3.70    2.90 
   1  -8   4  565.04   48.00 
  -1  -8  -4  680.23   57.49 
   1   8  -4  672.53   44.30 
   1   8  -4  635.44   43.70 
   1  -8   4  710.63   47.40 
   1  -8   4  671.93   52.59 
   1  -8   4  677.73   42.70 
   1   8  -4  638.84   41.30 
  -1   8   4  654.93   43.70 
  -1   8  -4  678.83   43.90 
  -1  -8   4  683.53   42.50 
   1  -8  -4  561.94   54.89 
  -1   8  -4  594.64   40.20 
   1   8   4  686.53   40.90 
   1   8   4  677.83   43.40 
   1  -8  -4  648.84   40.60 
   1  -8  -4  648.84   50.29 
   1  -8  -4  667.33   42.80 
   1   8   4  697.93   44.20 
  -1  -8   4  689.63   47.10 
   1  -8  -4  700.83   44.00 
   2   8  -4   63.49    7.50 
  -2  -8  -4   -6.40  135.69 
  -2   8   4   59.89    7.50 
  -2   8   4   60.09    7.70 
   2  -8   4   57.89    6.30 
  -2  -8  -4   44.20   10.40 
   2  -8   4   54.89    6.70 
   2   8  -4   62.59    8.20 
   2   8  -4   62.09    6.30 
   2  -8   4   63.09    9.30 
   2  -8   4   53.99   10.70 
   2  -8   4   54.59   10.70 
  -2  -8  -4   52.59   15.60 
  -2  -8  -4   62.89    7.80 
  -2  -8   4   55.39    7.30 
   2  -8  -4   37.90   13.10 
   2  -8  -4   46.90    5.40 
  -2  -8   4  -26.60  102.19 
  -2  -8   4   55.09    6.40 
   2   8   4   47.40    5.50 
   2  -8  -4   49.60   10.30 
  -2  -8   4   45.80   11.20 
  -2   8  -4   51.59    7.20 
   2   8   4   50.19    7.30 
   2   8   4   49.30    7.20 
   2  -8  -4   51.69    6.90 
   2  -8  -4   55.19    7.40 
  -3  -8  -4  399.96   27.00 
   3  -8   4  376.26   36.20 
   3  -8   4  430.26   27.80 
  -3   8   4  385.36   29.10 
   3   8  -4  419.96   30.50 
   3  -8   4  404.26   26.00 
  -3  -8  -4  387.66   29.30 
  -3   8   4  435.76   29.60 
   3  -8   4  428.76   28.60 
   3  -8   4  386.46   32.80 
  -3  -8  -4  346.17   34.90 
  -3  -8   4  397.66   35.90 
  -3  -8   4  455.75   29.80 
  -3   8  -4  417.76   29.30 
   3   8   4  425.76   29.80 
   3   8   4  415.46   29.70 
   3  -8  -4  394.16   34.30 
  -3  -8   4  429.06   27.90 
   3  -8  -4  437.86   28.90 
   3   8   4  435.06   27.20 
   3  -8  -4  359.06   40.50 
   3  -8  -4  425.06   29.90 
   3  -8  -4  442.96   26.90 
  -4  -8  -4   29.10   10.80 
  -4  -8  -4   69.29  255.67 
  -4  -8  -4   57.89    6.30 
   4  -8   4   43.90    6.10 
  -4   8   4   38.80    6.60 
   4  -8   4   62.69    6.70 
  -4  -8  -4   50.69    6.90 
   4  -8   4   33.20    9.00 
   4  -8   4   38.60   12.80 
  -4   8   4   57.79    6.80 
   4   8  -4   63.19    6.40 
   4  -8   4   51.19    5.00 
   4   8  -4   66.29    9.00 
   4  -8   4   49.10    9.50 
  -4  -8   4   33.10  181.38 
  -4  -8   4   64.69    8.10 
   4  -8  -4   51.79    5.50 
   4  -8  -4   47.00    9.80 
   4   8   4   42.70    7.40 
  -4  -8   4   50.79    5.60 
   4  -8  -4   53.99    7.20 
   4  -8  -4   47.70   14.30 
  -4   8  -4   59.79    7.10 
  -4  -8   4   41.70   11.30 
   4   8   4   49.60    5.70 
  -5   8   4   42.70    5.00 
  -5   8   4   33.40    6.80 
   5  -8   4   46.30    4.80 
   5  -8   4   37.60    8.50 
   5   8  -4   50.99    8.10 
  -5  -8  -4   48.00    6.00 
   5  -8   4   54.39    6.40 
  -5  -8  -4    8.10  180.78 
   5   8  -4   45.40    5.70 
  -5  -8  -4   35.10    5.50 
  -5  -8   4  -61.89   79.29 
   5   8   4   59.29    7.70 
   5  -8  -4   44.80    5.20 
   5   8   4   44.60    5.30 
  -5   8  -4   49.90    6.00 
   5  -8  -4   53.19    7.00 
  -5  -8   4   54.39    7.60 
   6  -8   4   63.99    6.90 
   6  -8   4   55.19    5.20 
  -6  -8  -4   48.10    8.40 
  -6  -8  -4   42.30  167.08 
   6  -8   4   40.30    8.70 
   6   8  -4   61.09    7.90 
   6  -8  -4   60.99    7.70 
   6   8   4   50.09    7.40 
  -6  -8   4  -18.10  174.98 
  -6  -8   4   54.49    7.90 
   6   8   4   49.00    5.70 
   6  -8  -4   50.49    5.70 
  -7  -8  -4  -28.00   80.59 
   7   8  -4   57.09    5.60 
   7  -8   4   55.89    6.40 
   7   8  -4   48.20    7.30 
  -7  -8  -4   56.69    6.10 
   7  -8  -4   59.29    5.70 
   7   8   4   58.79    7.20 
   7   8   4   59.69    5.60 
   7  -8  -4   71.69    7.60 
  -7  -8   4   49.30   97.19 
   0   9  -4   30.90    6.20 
   0  -9  -4   33.90   11.70 
   0   9   4   31.80    3.80 
   0   9  -4   37.60    4.50 
   0  -9   4   47.30    5.90 
   0   9  -4   36.30    6.90 
   0  -9  -4   40.30    8.10 
   0  -9   4   40.20    8.40 
   0  -9   4   41.70    7.00 
   0   9   4   39.90    6.80 
   1  -9   4   45.20   10.50 
  -1   9   4   45.00    7.10 
  -1  -9  -4   40.30   13.10 
   1   9  -4   52.49    7.70 
   1  -9   4   37.70    4.30 
   1   9  -4   39.90    8.10 
   1  -9   4   48.30    8.50 
   1   9  -4   46.30    7.40 
  -1  -9  -4   26.10    8.00 
   1  -9   4   43.40    6.30 
  -1  -9  -4   44.50    8.60 
  -1   9  -4   53.29    7.40 
   1   9   4   38.40    5.30 
   1  -9  -4   40.90    4.60 
   1  -9  -4   48.00    6.90 
   1  -9  -4   45.50   10.80 
  -1  -9   4   46.20    6.10 
  -1  -9   4   42.10    9.00 
   1  -9  -4   50.79    9.20 
   1  -9  -4   45.70   12.10 
   1   9   4   42.20    9.00 
   1   9   4   48.60    6.70 
   2   9  -4   31.60    4.60 
  -2   9   4   35.20    6.70 
   2   9  -4   43.20    7.20 
   2  -9   4   33.70    8.90 
   2   9  -4   40.50    5.80 
   2  -9   4   20.80   10.00 
  -2  -9  -4   30.70    9.30 
   2  -9   4   32.60    3.80 
  -2  -9  -4  106.29  294.27 
  -2   9   4   28.80    8.80 
  -2  -9  -4   36.20    6.10 
   2  -9   4   31.70    5.20 
   2  -9   4   37.60    5.20 
  -2  -9   4   62.79  210.08 
   2  -9  -4   32.00    5.80 
   2   9   4   27.60    6.00 
   2  -9  -4   33.90    6.60 
   2  -9  -4   16.40   10.10 
   2   9   4   37.20    4.10 
   2   9   4   33.40    5.70 
  -2   9  -4   35.10    5.90 
   2  -9  -4   33.90   10.20 
   2  -9  -4   25.80    3.80 
  -2  -9   4   31.30    4.90 
  -2  -9   4   32.50    8.80 
  -2  -9   4   32.40    5.80 
   3  -9   4   79.79   12.00 
   3  -9   4   95.79    8.80 
   3  -9   4   91.29    8.90 
   3   9  -4  100.79   10.80 
   3   9  -4   90.49    8.40 
  -3  -9  -4   66.69   17.00 
  -3  -9  -4   95.89    9.90 
  -3   9   4   90.49    9.60 
   3  -9   4   88.69    7.20 
  -3  -9  -4   36.20  242.88 
  -3  -9   4   82.59    8.40 
  -3   9  -4   79.09    9.30 
  -3  -9   4   70.99   20.90 
  -3  -9   4    1.10  117.99 
   3  -9  -4   74.99    9.60 
   3  -9  -4   95.09    7.90 
   3   9   4   93.39    7.90 
  -3  -9   4  101.09   10.20 
   3  -9  -4   84.29   26.50 
   3  -9  -4   96.59    9.80 
   3  -9  -4   69.59   12.20 
   3   9   4   88.99   10.00 
   3   9   4   86.99    9.70 
  -4  -9  -4  -17.80   78.19 
  -4  -9  -4    3.00    2.20 
   4  -9   4    5.40    2.70 
  -4   9   4    4.30    2.30 
   4  -9   4    2.40    2.60 
   4  -9   4   16.00    5.70 
   4   9  -4    5.30    2.40 
  -4  -9  -4    7.20    2.30 
   4   9  -4    5.70    3.50 
   4   9   4    4.00    2.70 
  -4   9  -4    6.20    2.60 
  -4  -9   4    9.10  183.68 
   4  -9  -4    5.50    2.00 
   4  -9  -4   -1.30    4.10 
   4   9   4    4.70    2.00 
   4  -9  -4    6.90    2.90 
  -4  -9   4    6.10    3.30 
  -4  -9   4    5.30    1.90 
   5  -9   4   55.59    9.30 
  -5  -9  -4   44.30    5.60 
  -5  -9  -4   61.89    6.10 
  -5   9   4   57.09    5.70 
   5  -9   4   60.69    6.80 
   5   9  -4   64.49    6.50 
   5   9  -4   57.89    8.30 
  -5   9  -4   48.60    7.00 
  -5  -9   4   55.09    7.60 
   5  -9  -4   53.89    5.80 
  -5  -9   4   50.79  153.18 
   5   9   4   56.79    7.70 
   5   9   4   62.79    6.00 
   5  -9  -4   41.10    9.90 
   5  -9  -4   75.09    8.10 
   6  -9   4   77.99    7.60 
  -6  -9  -4   24.70  109.59 
  -6  -9  -4   69.69    6.60 
   6   9  -4   78.39    9.40 
   6   9  -4   69.49    6.80 
   6  -9   4   65.19    6.00 
   6  -9  -4   72.29    6.60 
   6   9   4   81.69    8.30 
   6  -9  -4   78.49    8.30 
   6   9   4   64.89    6.30 
  -6  -9   4   82.59    8.80 
   0  10  -4    4.00    1.90 
   0 -10  -4    6.60   10.20 
   0 -10   4    4.60    2.40 
   0  10  -4    5.80    2.90 
   0  10   4    1.70    2.50 
   0 -10   4    5.80    2.40 
   0 -10   4    6.30    5.30 
   0 -10  -4    4.00    2.80 
   1 -10   4   74.79   12.40 
   1 -10   4  110.19    9.10 
  -1 -10  -4   99.29   10.60 
   1  10  -4   84.49    7.80 
  -1  10   4  109.59   10.90 
   1  10  -4  107.39   11.10 
  -1 -10  -4   73.59   17.90 
   1  10  -4   93.59   10.20 
   1 -10   4   91.99    9.70 
  -1  10  -4   98.49   10.20 
  -1 -10   4  -13.60  148.79 
   1 -10  -4   86.79    7.40 
  -1 -10   4  103.79    9.80 
  -1 -10   4  107.79    9.90 
   1  10   4   97.19    7.40 
   1 -10  -4   99.79   10.80 
   1  10   4  100.59   10.50 
   2  10  -4   26.40    5.10 
  -2  10   4   28.70    5.90 
   2  10  -4   22.60    5.70 
   2 -10   4   26.20    8.70 
   2 -10   4   19.60    3.00 
  -2 -10  -4   18.90    4.60 
  -2 -10  -4   31.60  211.78 
   2 -10   4   25.90    5.30 
   2 -10   4   26.90    4.80 
   2  10  -4   21.10    3.70 
   2 -10  -4   20.50    4.80 
   2  10   4   20.70    5.10 
   2 -10  -4   20.80    5.10 
   2 -10  -4   15.20    3.10 
  -2 -10   4  -25.20  116.99 
   2  10   4   29.30    5.40 
   2 -10  -4   15.90    6.70 
  -2 -10   4   18.80    4.10 
   2  10   4   19.10    3.10 
  -2 -10   4   25.30    5.60 
  -2  10  -4   25.20    5.30 
  -3 -10  -4   29.30  131.59 
   3 -10   4   63.49    5.80 
   3  10  -4   62.19    6.60 
   3 -10   4   57.49    9.90 
   3 -10   4   76.09    7.60 
   3  10  -4   70.79    9.20 
   3 -10   4   68.09    7.40 
  -3 -10  -4   69.09    8.10 
  -3  10   4   81.69    8.50 
   3 -10  -4   82.49    8.50 
  -3 -10   4   63.19    7.20 
  -3 -10   4   81.99    8.60 
   3  10   4   74.19    6.40 
   3 -10  -4   77.69   11.30 
   3 -10  -4   56.39   10.70 
   3 -10  -4   69.29    6.40 
  -3 -10   4  -24.60  159.58 
   3  10   4   74.19    8.10 
   3  10   4   59.59   13.70 
  -3  10  -4   58.29    7.60 
  -4 -10  -4    4.70    2.60 
   4  10  -4    8.90    3.80 
   4 -10   4   10.80    3.10 
   4 -10   4   -0.10    3.00 
   4  10  -4    7.60    3.10 
   4 -10   4    4.10    4.30 
   4 -10   4    5.90    1.80 
  -4  10   4    8.30    2.70 
   4 -10  -4    2.90    4.80 
   4 -10  -4    5.50    3.00 
   4 -10  -4    9.90    2.90 
   4  10   4    7.10    2.10 
   4  10   4    4.10    2.50 
  -4 -10   4   52.89  122.49 
  -4 -10   4    9.60    3.80 
  -4  10  -4    7.20    2.90 
  -4 -10   4   10.70    2.50 
  -5  10   4    5.20    2.30 
  -5 -10  -4 -127.79  115.79 
   5 -10   4    1.00    4.10 
  -5 -10   4  -18.90   93.49 
   5 -10  -4    5.10    1.90 
  -5  10  -4    3.10    1.60 
  -5 -10   4    8.90    3.00 
   5 -10  -4    7.70    3.00 
   0 -11  -4   28.00    6.00 
   0 -11   4   34.90    5.00 
   0  11  -4   28.90    5.70 
   0  11   4   21.90    4.70 
   0 -11   4   30.40    4.90 
  -1  11   4  102.69    9.90 
   1  11  -4   85.69    9.80 
   1  11  -4   80.19    6.90 
  -1 -11  -4   89.09    9.90 
  -1 -11  -4   -6.00  130.89 
   1 -11   4   85.29    9.10 
   1 -11  -4   80.89   11.20 
   1  11   4   74.89   14.30 
  -1 -11   4  108.49    8.90 
  -1 -11   4  108.39    9.60 
  -1 -11   4  -59.39   98.19 
  -1  11  -4   88.49    9.40 
   2 -11   4   97.39    9.80 
  -2 -11  -4   82.89   10.50 
   2  11  -4  100.29    7.80 
   2  11  -4   85.59   10.40 
  -2  11   4   92.09   12.00 
  -2 -11  -4   10.80  120.99 
   2  11  -4  100.19   10.10 
   2  11   4  113.89   10.30 
  -2 -11   4   92.39   10.90 
  -2  11  -4   98.99   11.80 
   2 -11  -4   92.79    7.80 
  -2 -11   4  119.19    9.50 
  -2 -11   4  -44.20   93.09 
   2 -11  -4  110.69   10.90 
   2  11   4   98.49    7.20 
  -3 -11  -4   12.20    3.40 
   3 -11   4   14.40    2.40 
  -3  11   4   14.40    3.40 
   3 -11   4   19.30    4.50 
   3 -11   4    7.80    4.90 
  -3 -11  -4   43.70  151.18 
   3  11  -4   20.70    3.10 
   3  11  -4   15.20    4.30 
  -3  11  -4   27.70    4.10 
   3 -11  -4   27.10    4.90 
  -3 -11   4   36.40  129.69 
   3  11   4   23.00    4.10 
   3 -11  -4   13.90    4.90 
   3  11   4   21.00    4.80 
  -3 -11   4   15.70    3.40 
   3 -11  -4   14.60    2.70 
   3  11   4   19.60    2.60 
   4 -11   4   -0.40    1.50 
  -4 -11  -4    5.20    1.60 
   4  11  -4    2.00    1.30 
   4  11   4    8.10    3.10 
   4  11   4    1.40    1.20 
  -4 -11   4    2.40    1.70 
   0  12   4   85.79    8.60 
   0 -12  -4  -18.00   79.69 
   0 -12   4   35.30  131.59 
   0 -12   4   91.39    8.50 
   0 -12  -4   91.89    9.30 
   0  12  -4   86.29    8.60 
  -1 -12  -4   56.79  150.48 
   1  12  -4   54.39    6.20 
  -1 -12  -4   49.70    6.50 
  -1  12   4   55.49    6.50 
   1 -12   4   57.29    6.50 
  -1 -12   4   49.99    5.90 
   1  12   4   50.39    6.20 
  -1  12  -4   53.59    6.30 
  -1 -12   4    8.40  114.29 
   1 -12  -4   55.19    6.60 
   0   0   5    4.00    1.10 
   0   0  -5    3.50    2.50 
   0   0   5    0.10    0.80 
   0   0  -5   -0.10    0.90 
   0   0   5    1.60    2.00 
  -1   0   5 4306.67  239.68 
   1   0   5 3857.21  233.98 
   1   0   5 4507.65  241.38 
   1   0  -5 3759.62  234.18 
  -1   0  -5 3852.51  241.98 
   1   0  -5 3793.32  240.58 
   2   0  -5  688.33   45.90 
   2   0   5  821.62   53.39 
   2   0   5  772.42   52.49 
  -2   0  -5  833.52   46.50 
   2   0   5  735.73   46.20 
   2   0  -5  708.13   50.39 
  -3   0  -5  425.46   27.00 
   3   0  -5  399.16   30.00 
  -3   0   5  405.36   27.70 
   3   0   5  405.86   25.60 
   3   0  -5  367.16   25.20 
  -3   0  -5  376.16   25.30 
   3   0   5  435.06   33.30 
  -3   0   5  405.86   25.70 
   3   0  -5  373.56   29.60 
   3   0   5  392.16   24.40 
  -3   0   5  411.96   25.10 
   3   0   5  410.36   32.60 
  -3   0  -5  396.76   27.50 
   4   0  -5  236.78   16.50 
   4   0   5  254.97   24.20 
   4   0  -5  246.78   15.60 
   4   0   5  265.37   26.20 
  -4   0  -5  243.58   17.00 
  -4   0  -5  272.37   19.50 
   4   0   5  249.28   17.00 
  -4   0   5  248.98   18.00 
  -4   0  -5  264.77   17.40 
   4   0  -5  246.98   20.90 
  -4   0   5  242.28   15.90 
   4   0   5  240.58   15.70 
  -4   0   5  210.98   17.20 
  -4   0   5  247.28   19.80 
  -5   0  -5 1430.66   84.99 
   5   0   5 1384.76   96.69 
  -5   0  -5 1346.67   84.69 
   5   0   5 1424.56   84.79 
   5   0   5 1440.96   83.29 
   5   0  -5 1372.36   84.19 
   5   0  -5 1451.75   83.19 
  -5   0   5 1498.85   89.69 
   5   0  -5 1361.66   89.29 
  -5   0   5 1477.65   87.29 
   5   0   5 1445.36   96.09 
  -5   0  -5 1523.85   88.99 
  -5   0   5 1186.68   84.09 
  -6   0  -5   40.80    5.60 
  -6   0   5   41.40    8.00 
  -6   0  -5  -49.20  101.79 
   6   0   5   44.60    4.10 
   6   0   5   45.20    5.40 
  -6   0   5  104.29  205.88 
  -6   0  -5   47.60    7.60 
   6   0   5   30.70    9.20 
   6   0  -5   41.50    4.90 
   7   0   5   12.30    6.30 
  -7   0  -5  -22.20  128.59 
  -7   0   5  -28.60   81.49 
  -8   0   5   57.89    9.90 
  -8   0  -5   57.69    7.00 
   8   0   5   56.09    5.20 
   8   0   5   54.39    5.90 
  -8   0  -5  -48.70  101.99 
   8   0  -5   69.29    6.50 
   9   0   5   51.59    4.00 
  -9   0   5   43.20    7.70 
   9   0   5   47.50    4.80 
   0  -1   5    1.70    0.90 
   0   1   5    7.40    3.10 
   0   1  -5    3.50    1.40 
   0  -1  -5    2.10    2.20 
   0  -1   5    4.10    2.80 
   0  -1  -5    4.30    1.50 
  -1   1   5  781.82   44.20 
  -1  -1  -5  733.53   44.40 
   1   1  -5  703.03   43.60 
   1  -1   5  801.02   49.60 
   1  -1   5  702.63   43.10 
  -1   1   5  784.12   48.30 
  -1  -1  -5  766.52   42.30 
  -1  -1  -5  741.03   51.79 
   1   1  -5  687.33   48.50 
  -1   1  -5  655.13   43.70 
   1  -1  -5  619.94   43.30 
   1   1   5  641.94   43.30 
   1  -1  -5  684.73   49.99 
  -1  -1   5  674.43   45.00 
   1   1   5  724.73   49.70 
   2  -1   5 5510.85  305.87 
   2   1  -5 4928.21  302.07 
  -2  -1  -5 5233.48  299.07 
   2  -1   5 4751.72  298.37 
   2   1  -5 4834.52  298.57 
  -2  -1   5 5449.55  300.07 
   2  -1  -5 4954.80  303.17 
   2  -1  -5 4927.41  298.57 
  -2   1  -5 5500.85  299.37 
   2   1   5 5536.55  307.67 
   2   1   5 4862.01  298.77 
  -2  -1   5 5019.50  297.97 
   3  -1   5  520.55   31.80 
  -3  -1  -5  497.15   31.70 
   3   1  -5  495.85   34.10 
   3  -1   5  525.55   30.70 
   3  -1   5  586.84   39.40 
  -3   1   5  507.75   34.20 
  -3  -1  -5  564.84   33.90 
  -3  -1  -5  585.14   32.50 
  -3   1   5  559.04   31.60 
  -3   1  -5  441.06   31.40 
  -3  -1   5  449.76   34.70 
   3  -1  -5  467.85   35.10 
  -3  -1   5  504.35   31.20 
  -3  -1   5  458.25   32.10 
   3  -1  -5  519.35   38.30 
   3   1   5  472.45   30.70 
  -3   1  -5  522.15   32.40 
   3   1   5  474.15   31.90 
   3   1   5  491.95   39.70 
   4  -1   5  706.03   52.99 
  -4  -1  -5  687.93   43.80 
   4  -1   5  701.23   42.30 
   4  -1   5  677.83   50.89 
   4   1  -5  701.13   42.30 
   4   1  -5  628.84   44.50 
   4  -1   5  679.03   43.50 
  -4   1   5  728.13   42.80 
  -4  -1  -5  720.73   46.70 
   4   1  -5  664.93   43.20 
  -4   1   5  694.13   47.10 
  -4  -1  -5  772.32   44.20 
  -4  -1   5  676.83   45.10 
   4   1   5  736.53   42.60 
  -4   1  -5  810.12   44.70 
  -4   1  -5  699.93   43.70 
   4  -1  -5  712.43   49.00 
   4  -1  -5  747.53   42.40 
  -4  -1   5  739.73   42.50 
  -4  -1   5  733.03   46.90 
   4   1   5  690.73   43.90 
   4  -1  -5  688.73   50.59 
   4   1   5  750.22   54.19 
   4  -1  -5  690.83   43.30 
  -4  -1   5  643.14   44.10 
  -5  -1  -5  399.26   29.90 
  -5  -1  -5  397.66   26.50 
   5  -1   5  419.76   36.10 
  -5  -1  -5  393.06   25.90 
   5  -1   5  406.96   26.10 
   5   1  -5  388.76   24.50 
   5  -1   5  416.46   34.70 
   5  -1   5  387.86   24.60 
   5   1  -5  384.56   25.60 
  -5   1   5  377.96   30.30 
   5   1   5  392.46   24.80 
   5   1   5  441.06   40.00 
  -5  -1   5  362.46   26.40 
   5   1   5  397.16   37.40 
   5  -1  -5  400.56   24.60 
  -5   1  -5  395.16   26.20 
  -5  -1   5  353.16   30.70 
   5  -1  -5  410.46   25.80 
   5  -1  -5  397.96   33.30 
  -5  -1   5  415.66   30.10 
   5   1   5  410.36   26.40 
   6  -1   5  124.19    9.80 
  -6   1   5  102.99   13.40 
   6   1  -5  110.29    9.30 
  -6  -1  -5  108.79   10.20 
   6  -1   5  110.39    8.20 
  -6  -1  -5   99.39   12.90 
   6  -1   5  105.49   19.80 
  -6  -1  -5   83.99  175.98 
  -6  -1   5  111.09   10.10 
  -6   1  -5  117.99   10.00 
   6  -1  -5  110.29    8.30 
  -6  -1   5  114.89   13.20 
   6   1   5  115.09   10.00 
   6   1   5  113.99    8.40 
  -6  -1   5  107.49   12.00 
  -6   1  -5   19.20  133.69 
  -6  -1   5   68.29  148.29 
   6  -1  -5  117.49    9.40 
   7  -1   5  183.98   12.00 
  -7  -1  -5    3.80  178.28 
   7   1  -5  180.08   13.60 
  -7  -1  -5  178.48   17.90 
  -7   1   5  193.08   19.30 
   7  -1   5  187.28   13.40 
  -7  -1  -5  209.88   15.00 
   7  -1   5  164.78   21.30 
  -7   1  -5  172.28   13.90 
   7  -1  -5  165.38   12.30 
  -7  -1   5  150.98   13.10 
   7   1   5  161.48   11.90 
   7   1   5  154.18   22.10 
  -7  -1   5  181.18   17.90 
  -7   1  -5  -22.50  126.59 
  -7  -1   5   46.80  139.99 
   7   1   5  170.78   13.60 
   7  -1  -5  169.98   13.30 
  -8  -1  -5   24.80    4.60 
   8   1  -5   28.10    4.80 
   8  -1   5   25.00    3.70 
  -8   1   5   13.50    5.60 
   8  -1   5   22.70    3.00 
  -8  -1  -5   70.79  173.28 
  -8   1  -5    0.80  168.88 
   8   1   5   32.90    4.70 
   8   1   5   21.40    4.00 
   8  -1  -5   31.60    4.80 
  -8  -1   5   22.90    6.50 
  -9  -1  -5  -56.89   73.59 
  -9   1   5   36.00    7.10 
  -9  -1   5   23.90    5.80 
   0   2  -5 1979.90  116.99 
   0  -2   5 1786.02  115.59 
   0  -2  -5 1870.01  114.79 
   0  -2  -5 2181.78  127.69 
   0   2   5 1831.02  116.19 
   0  -2  -5 2084.49  114.99 
   0   2   5 2173.18  122.99 
   0  -2  -5 1953.50  116.69 
   0  -2  -5 1913.11  123.39 
   1  -2   5  470.15   33.00 
  -1  -2  -5  436.96   27.30 
   1  -2   5  402.76   27.00 
  -1   2   5  445.26   28.50 
  -1  -2  -5  410.76   27.60 
   1   2  -5  422.66   27.80 
  -1   2   5  484.05   32.10 
   1  -2   5  460.95   32.00 
   1   2   5  483.55   34.70 
  -1  -2   5  430.26   26.90 
   1  -2  -5  401.36   26.20 
   1  -2  -5  482.65   36.00 
   1  -2  -5  418.86   27.70 
   1  -2  -5  406.06   32.00 
  -1  -2   5  411.36   27.00 
   1   2   5  419.66   27.80 
  -1  -2   5  486.45   31.10 
  -1   2  -5  430.26   28.30 
   2  -2   5 3609.24  211.78 
  -2  -2  -5 3696.93  213.38 
   2  -2   5 4100.29  219.38 
  -2  -2  -5 3700.33  212.58 
  -2   2   5 3716.23  212.28 
   2   2  -5 3633.34  212.28 
   2  -2   5 3666.83  210.88 
   2   2   5 3570.34  211.18 
   2   2   5 3601.94  221.18 
  -2  -2   5 3676.53  211.88 
   2  -2  -5 3831.62  221.98 
  -2  -2   5 3656.93  215.48 
   2  -2  -5 3644.54  211.18 
  -2   2  -5 3623.24  212.88 
  -2  -2   5 3378.76  212.38 
   2   2   5 3465.45  212.48 
   2  -2  -5 3346.37  212.08 
   2  -2  -5 3352.16  216.08 
  -3   2   5  440.26   30.30 
  -3  -2  -5  445.36   29.90 
   3   2  -5  432.66   26.50 
  -3  -2  -5  427.46   27.60 
   3   2  -5  421.56   27.50 
  -3  -2  -5  479.45   28.20 
  -3   2   5  455.25   27.40 
   3  -2   5  442.46   33.40 
   3  -2   5  519.65   37.00 
   3  -2   5  424.56   27.30 
   3  -2   5  437.96   26.30 
   3  -2  -5  437.16   26.50 
   3   2   5  401.26   35.80 
   3  -2  -5  406.56   30.00 
  -3   2  -5  435.96   28.40 
   3   2   5  425.66   26.60 
   3  -2  -5  406.96   27.50 
  -3  -2   5  412.36   28.80 
  -3  -2   5  376.56   30.00 
   3  -2  -5  422.36   35.30 
   3   2   5  423.76   28.00 
  -3  -2   5  438.76   27.00 
   4  -2   5  784.22   55.79 
  -4  -2  -5  847.62   47.30 
  -4  -2  -5  762.32   47.00 
   4   2  -5  781.62   45.50 
   4  -2   5  770.62   53.69 
   4  -2   5  773.22   45.30 
   4  -2   5  755.62   46.50 
   4   2  -5  746.33   46.50 
  -4   2   5  788.62   46.00 
  -4   2   5  741.73   50.39 
  -4  -2  -5  790.52   50.69 
  -4  -2   5  754.52   45.50 
   4   2   5  729.23   45.60 
   4   2   5  748.53   57.89 
  -4   2  -5  719.63   47.60 
  -4  -2   5  732.03   49.10 
   4   2   5  745.13   47.30 
   4  -2  -5  719.53   55.59 
   4  -2  -5  772.32   45.50 
  -4  -2   5  753.82   49.40 
   4  -2  -5  734.13   46.50 
  -4  -2   5  709.53   47.80 
  -5   2   5  269.57   23.20 
   5   2  -5  276.27   18.60 
   5  -2   5  296.97   27.70 
  -5  -2  -5  279.37   18.80 
   5  -2   5  266.97   17.30 
   5  -2   5  274.07   18.60 
   5   2  -5  272.87   17.40 
  -5  -2  -5  271.57   19.40 
  -5  -2  -5  279.77   23.10 
  -5  -2  -5   71.79  150.58 
   5  -2   5  290.47   27.80 
  -5  -2   5  247.38   21.50 
  -5  -2   5  281.67   22.30 
   5  -2  -5  258.87   27.20 
   5  -2  -5  267.47   18.60 
  -5  -2   5  237.38   19.70 
   5  -2  -5  281.17   17.50 
  -5   2  -5  260.17   19.50 
   5   2   5  273.17   19.40 
   5   2   5  263.27   18.90 
  -6   2   5  103.89   13.60 
   6  -2   5  127.49   17.60 
  -6  -2  -5   93.19   14.40 
   6   2  -5  103.19    9.70 
  -6  -2  -5  115.59   10.80 
   6  -2   5  114.49    9.70 
   6   2  -5  108.79    8.60 
   6  -2   5  115.99    8.50 
   6  -2  -5  124.99   17.70 
  -6  -2   5  121.09   13.40 
   6  -2  -5  135.89    9.10 
  -6  -2   5  117.49   13.30 
   6   2   5  130.69    9.10 
  -6  -2   5  121.39  222.98 
   6   2   5  107.19   18.40 
   6   2   5  138.19   11.00 
  -6  -2   5  109.49   11.00 
  -6   2  -5  -34.50  149.79 
   6  -2  -5  126.89   10.20 
  -7  -2  -5   57.19  180.18 
   7  -2   5  111.69    8.20 
   7  -2   5  116.39    9.60 
  -7   2   5  108.59   14.20 
  -7  -2  -5  124.79   11.10 
   7   2  -5  125.19   10.20 
   7  -2   5   90.99   16.20 
  -7  -2  -5   88.49   13.20 
  -7  -2   5  114.89   10.70 
  -7   2  -5   -3.80  134.49 
   7   2   5  127.69   10.50 
   7  -2  -5  118.39    8.50 
  -7  -2   5  -10.40  128.69 
   7   2   5   81.29   18.20 
   7  -2  -5  113.69    9.80 
   7   2   5  118.49    8.70 
  -7  -2   5   87.79   13.10 
  -7  -2   5  113.49   13.30 
   8  -2   5  167.78   12.20 
   8   2  -5  165.68   13.00 
  -8   2   5  131.79   16.40 
   8  -2   5  156.88   12.50 
  -8  -2  -5  196.88   14.40 
  -8  -2  -5  -33.70  108.59 
   8   2   5  169.28   11.50 
   8   2   5  173.78   12.90 
  -8  -2   5  182.78   16.90 
  -8  -2   5  157.08   12.90 
  -8  -2   5   -6.30  136.79 
   8  -2  -5  160.28   12.40 
   8  -2  -5  156.98   11.60 
  -9   2   5    2.70    2.40 
  -9  -2  -5    1.90    1.90 
   9  -2   5    2.30    1.40 
   9  -2   5   -0.60    0.80 
  -9  -2   5   -0.30    1.90 
   9   2   5    1.10    1.00 
   0   3   5    2.00    2.40 
   0  -3  -5    1.60    1.00 
   0  -3   5    4.90    1.30 
   0  -3  -5    1.00    3.20 
   0   3   5    2.60    1.40 
   0  -3   5    2.40    1.10 
   0   3  -5    0.30    1.10 
   0   3  -5    3.40    2.10 
   0  -3  -5    3.00    3.90 
   0  -3   5    1.20    1.40 
  -1  -3  -5 4603.94  254.37 
  -1  -3  -5 4588.24  266.27 
  -1   3   5 4275.47  252.87 
   1  -3   5 4469.35  251.17 
   1   3  -5 4287.17  253.27 
  -1  -3  -5 4352.96  253.47 
   1  -3   5 4423.96  257.97 
   1  -3   5 4192.18  251.97 
  -1   3   5 4837.02  258.07 
   1   3  -5 4588.84  251.97 
  -1  -3  -5 4417.06  253.17 
   1  -3  -5 3707.43  257.57 
  -1   3  -5 4307.77  253.47 
  -1  -3   5 4211.28  252.37 
   1  -3  -5 4405.96  251.77 
  -1   3  -5 4025.10  253.37 
   1  -3  -5 4099.09  252.87 
  -1  -3   5 4254.57  252.27 
   1   3   5 4289.07  251.67 
   1   3   5 4181.28  253.07 
   1   3   5 4275.67  261.07 
  -2  -3  -5  447.16   26.10 
  -2   3   5  433.46   25.80 
   2   3  -5  418.36   25.40 
  -2  -3  -5  398.66   25.00 
   2   3  -5  413.56   25.80 
  -2  -3  -5  420.96   27.40 
   2  -3   5  467.45   32.30 
   2  -3   5  382.06   36.20 
   2  -3   5  418.56   24.00 
   2  -3   5  403.46   25.00 
   2  -3  -5  354.26   27.10 
   2   3   5  374.96   25.90 
  -2  -3   5  380.06   29.60 
   2   3   5  367.16   33.10 
   2  -3  -5  356.76   25.40 
  -2  -3   5  378.66   24.90 
   2  -3  -5  391.66   24.50 
  -2   3  -5  375.86   26.10 
   2  -3  -5  328.27   27.90 
   2   3   5  371.76   24.30 
   2  -3  -5  360.26   33.50 
   3  -3   5  561.24   36.20 
  -3   3   5  633.94   36.90 
   3  -3   5  573.44   35.20 
  -3  -3  -5  556.54   36.60 
   3   3  -5  553.64   36.80 
  -3   3   5  549.05   39.40 
   3  -3   5  589.54   42.30 
  -3  -3  -5  629.74   37.40 
   3   3  -5  591.24   35.70 
  -3  -3  -5  561.44   39.60 
   3   3   5  600.64   47.60 
  -3  -3   5  607.74   36.10 
   3  -3  -5  591.64   38.70 
   3   3   5  588.94   35.80 
  -3   3  -5  595.24   38.00 
   3  -3  -5  612.64   47.80 
   3   3   5  577.04   37.50 
   3  -3  -5  592.34   35.60 
   3  -3  -5  568.84   36.80 
  -3  -3   5  578.64   39.20 
  -4  -3  -5  436.16   26.90 
   4   3  -5  390.56   26.50 
  -4  -3  -5  378.46   26.80 
  -4   3   5  425.16   33.60 
  -4  -3  -5  382.26   30.20 
   4  -3   5  405.06   34.00 
   4  -3   5  385.46   25.90 
   4  -3   5  371.66   31.50 
  -4   3   5  410.26   25.90 
   4  -3   5  387.36   24.80 
   4   3  -5  382.46   25.10 
  -4  -3   5  385.66   27.80 
   4  -3  -5  397.56   26.40 
  -4  -3   5  428.46   30.20 
   4  -3  -5  392.56   27.60 
   4  -3  -5  431.56   25.30 
  -4   3  -5  448.56   27.70 
   4   3   5  391.86   37.30 
   4  -3  -5  419.86   36.90 
   4   3   5  408.06   25.40 
  -4  -3   5  399.96   25.30 
   4   3   5  405.36   27.30 
  -4  -3   5  417.16   28.80 
  -5  -3  -5  635.64   39.50 
   5  -3   5  599.34   36.80 
  -5   3   5  554.04   36.60 
  -5  -3  -5  600.54   44.30 
  -5  -3  -5  635.24   38.60 
   5  -3   5  569.74   45.00 
   5  -3   5  642.44   38.40 
  -5   3   5  591.24   43.60 
  -5  -3   5  636.54   42.10 
   5   3   5  631.54   39.80 
   5  -3  -5  555.24   49.70 
  -5  -3   5  563.94   42.90 
  -5   3  -5  658.83   39.30 
  -5  -3   5  592.14   40.50 
   5   3   5  619.34   37.50 
   5  -3  -5  622.94   37.30 
  -6   3   5   10.30    4.50 
   6  -3   5    8.00    2.50 
  -6  -3  -5    1.00    4.20 
   6  -3   5   10.10    2.00 
  -6  -3  -5  -13.00  143.59 
   6   3  -5    9.60    2.20 
   6  -3   5    9.00    4.40 
   6   3  -5   11.40    3.30 
  -6  -3  -5    8.00    3.40 
  -6  -3   5   94.19  200.88 
  -6  -3   5   12.20    4.40 
  -6  -3   5   11.50    4.30 
   6   3   5    7.80    2.10 
   6  -3  -5   11.60    3.20 
   6   3   5    9.60    3.20 
   6  -3  -5   13.10   10.50 
   6  -3  -5    9.00    2.20 
   7  -3   5    6.20    4.60 
  -7  -3  -5   31.60  194.78 
   7   3  -5    3.10    1.80 
  -7   3   5    8.20    4.70 
   7  -3   5    9.30    1.90 
  -7  -3  -5    3.90    6.40 
  -7  -3  -5    8.00    3.40 
  -7  -3   5    3.80    3.20 
  -7  -3   5  -79.19   97.69 
   7   3   5    7.00    6.70 
  -7  -3   5   17.30    8.40 
  -7  -3   5   10.20    4.00 
   7  -3  -5    3.20    1.80 
   7   3   5    7.80    2.00 
  -8   3   5    3.10    4.30 
  -8  -3  -5    6.80    3.40 
   8  -3   5    5.70    1.50 
   8   3  -5    8.80    4.50 
   8  -3   5    7.70    2.10 
   8   3   5    5.10    1.60 
  -8  -3   5    3.10    2.60 
   8  -3  -5   10.40    2.60 
   8  -3  -5    5.60    2.00 
  -8  -3   5    6.80    3.70 
   8   3   5    9.90    2.50 
  -8  -3   5   81.49  199.48 
   0  -4   5 1146.09   66.39 
   0   4   5  974.20   58.49 
   0  -4  -5 1152.18   75.29 
   0   4  -5  941.41   60.79 
   0  -4   5  991.40   59.69 
   0   4   5  919.21   60.49 
   0  -4   5  994.40   58.09 
   0  -4   5  928.91   58.89 
   0   4  -5 1050.99   61.39 
   0  -4  -5  888.61   61.79 
   0  -4   5 1024.70   61.19 
   0  -4  -5  956.10   60.79 
   0  -4  -5  929.41   60.09 
   0   4   5  905.41   59.79 
   0   4   5  956.20   66.39 
   0   4  -5 1023.30   59.29 
  -1   4   5   39.60    4.50 
   1  -4   5   41.80    4.20 
  -1   4   5   40.70    6.80 
  -1  -4  -5   37.30    5.50 
   1   4  -5   46.70    4.30 
   1  -4   5   41.20    4.60 
   1   4  -5   41.40    5.30 
   1  -4   5   50.69    8.00 
   1  -4   5   41.10    3.40 
  -1  -4  -5   45.50   10.80 
  -1  -4  -5   41.50    5.30 
  -1  -4  -5   43.70    4.90 
   1   4   5   28.60    4.40 
   1  -4  -5   36.40    4.90 
  -1   4  -5   28.70    4.80 
   1  -4  -5   40.20    3.80 
   1   4   5   36.70    4.90 
   1  -4  -5   42.00   10.10 
   1   4   5   35.80    3.80 
  -1  -4   5   38.70    4.30 
   1  -4  -5   30.70    4.50 
  -1  -4   5   39.20    7.30 
  -1  -4   5   35.60    4.80 
  -2  -4  -5 1369.06   85.69 
  -2  -4  -5 1523.25   87.19 
  -2  -4  -5 1590.14  103.39 
   2   4  -5 1518.05   85.59 
   2  -4   5 1505.25   84.69 
  -2   4   5 1470.45   86.79 
   2  -4   5 1564.24   93.79 
   2  -4   5 1440.16   85.79 
   2  -4   5 1535.25   86.59 
  -2  -4  -5 1417.96   89.29 
   2   4  -5 1448.46   87.19 
  -2  -4   5 1520.95   93.49 
   2  -4  -5 1262.87   97.39 
  -2  -4   5 1408.66   89.29 
   2  -4  -5 1352.36   86.59 
   2  -4  -5 1361.46   89.69 
   2   4   5 1347.17   96.59 
   2   4   5 1426.46   85.39 
   2  -4  -5 1449.76   85.29 
  -2  -4   5 1447.06   85.89 
   2   4   5 1351.56   86.89 
   2   4   5 1373.36   87.19 
  -3  -4  -5  386.16   24.80 
   3   4  -5  359.06   24.60 
  -3   4   5  371.26   24.20 
  -3  -4  -5   76.09  151.78 
  -3  -4  -5  364.96   23.90 
   3  -4   5  357.96   23.50 
   3  -4   5  402.16   32.10 
   3  -4   5  372.26   24.20 
  -3  -4  -5  357.86   27.80 
   3   4  -5  355.86   23.00 
   3  -4   5  363.46   22.30 
  -3   4   5  375.46   27.30 
  -3   4  -5  364.76   25.10 
   3  -4  -5  332.97   24.00 
  -3  -4   5  356.36   24.80 
   3   4   5  346.57   34.20 
  -3  -4   5  352.16   27.50 
   3  -4  -5  352.06   34.40 
  -3  -4   5  377.46   23.40 
   3   4   5  341.27   24.80 
   3  -4  -5  347.07   22.80 
   3   4   5  360.46   23.10 
   3  -4  -5  344.77   26.60 
  -4   4   5  418.16   33.10 
  -4  -4  -5  437.06   29.80 
   4   4  -5  439.06   29.00 
   4  -4   5  447.86   29.10 
  -4  -4  -5  461.05   30.10 
  -4  -4  -5  407.26   34.30 
  -4   4   5  455.95   29.30 
   4  -4   5  444.76   27.80 
   4  -4   5  394.66   35.80 
   4   4  -5  436.96   30.10 
   4  -4  -5  462.65   28.40 
  -4  -4   5  449.86   28.40 
  -4  -4   5  462.15   31.40 
   4   4   5  476.05   28.70 
  -4  -4   5  492.55   34.90 
   4  -4  -5  470.45   30.00 
  -4   4  -5  476.85   30.70 
   4  -4  -5  435.46   41.10 
   4   4   5  491.85   31.20 
  -4  -4   5  480.75   31.80 
   4  -4  -5  452.05   32.30 
  -5  -4  -5  154.18   17.10 
  -5  -4  -5  -11.90  113.79 
  -5   4   5  143.39   16.00 
  -5  -4  -5  175.08   12.50 
   5  -4   5  156.58   12.10 
   5   4  -5  151.98   11.40 
   5  -4   5  162.68   19.10 
  -5  -4  -5  169.98   13.20 
   5   4  -5  164.08   13.30 
   5  -4   5  158.88   10.80 
   5  -4  -5  154.68   11.30 
   5   4   5  158.48   13.70 
  -5  -4   5  146.39  174.28 
   5  -4  -5  134.29   20.90 
   5   4   5  145.79   11.30 
  -5   4  -5  151.58   12.60 
   5  -4  -5  153.18   12.70 
  -5  -4   5  156.78   14.40 
  -5  -4   5  133.99   16.40 
  -5  -4   5  146.79   14.30 
  -6   4   5  193.08   20.10 
  -6  -4  -5  224.28   16.90 
   6   4  -5  226.78   17.00 
   6  -4   5  209.28   22.30 
  -6  -4  -5  200.98   21.00 
   6  -4   5  204.98   14.30 
   6  -4   5  210.88   15.50 
   6   4  -5  200.78   14.80 
   6  -4  -5  221.48   16.50 
   6  -4  -5  195.08   27.10 
  -6  -4   5  188.08   19.30 
  -6  -4   5  218.98   18.70 
   6  -4  -5  231.58   17.00 
  -6  -4   5  176.88   20.30 
   6   4   5  169.18   17.10 
   6   4   5  240.58   17.60 
  -6   4  -5  195.08   14.70 
  -6  -4   5   13.20  166.98 
   7  -4   5   59.19    6.40 
   7  -4   5   58.39    5.30 
  -7  -4  -5  -37.40  108.69 
   7   4  -5   59.49    7.70 
  -7  -4  -5   64.89    8.10 
  -7   4   5   54.69    8.90 
   7   4  -5   47.80    5.70 
   7  -4  -5   61.09    5.90 
   7  -4  -5   73.59    7.90 
   7   4   5   68.19    8.00 
   7   4   5   69.89    6.20 
  -7  -4   5   58.89    8.90 
  -7  -4   5   67.59    8.70 
  -7  -4   5  136.79  214.98 
   8   4  -5  124.59   10.90 
  -8   4   5  126.99   14.60 
  -8  -4  -5  182.78   13.60 
   8  -4   5  153.08   10.50 
  -8  -4  -5  -56.99  162.08 
   8   4  -5  140.49   12.70 
   8  -4   5  166.08   11.80 
   8   4   5  156.48   10.90 
  -8  -4   5  152.48   13.10 
   8   4   5  160.48   15.50 
  -8  -4   5  151.38   14.30 
   8  -4  -5  150.98   10.90 
  -8  -4   5  106.09  204.38 
   8  -4  -5  162.48   13.30 
   0   5   5  141.99   16.20 
   0   5   5  133.29   11.20 
   0  -5   5  133.99   12.00 
   0  -5   5  133.69   10.60 
   0  -5  -5  126.29   11.30 
   0   5  -5  144.19   11.80 
   0   5   5  135.09    9.50 
   0  -5   5  133.39    8.90 
   0  -5  -5  144.39   20.40 
   0  -5  -5  131.29    9.80 
   0   5  -5  138.29   10.20 
   0   5  -5  120.99   11.60 
   0   5   5  134.89   11.40 
   0  -5  -5  120.49   10.90 
   0  -5   5  150.08   16.00 
  -1  -5  -5 1804.32  124.19 
  -1   5   5 1948.91  112.49 
   1  -5   5 2021.30  110.59 
   1  -5   5 1958.60  107.39 
  -1  -5  -5 1838.72  110.49 
  -1  -5  -5 1687.73  107.09 
   1  -5   5 1748.93  106.39 
   1   5  -5 1865.91  106.59 
  -1  -5  -5 1897.11  108.29 
  -1   5   5 1845.42  107.99 
   1   5  -5 1721.13  108.39 
   1  -5   5 1888.51  105.29 
   1   5  -5 1820.62  108.49 
  -1  -5  -5 1778.22  105.69 
  -1  -5   5 1911.81  115.69 
  -1   5  -5 1796.22  108.39 
   1  -5  -5 1858.61  108.29 
   1  -5  -5 1612.24  107.39 
   1   5   5 1735.73  107.89 
  -1  -5   5 1673.73  107.19 
   1  -5  -5 1789.32  106.09 
   1  -5  -5 1714.73  122.29 
   1   5   5 1713.53  107.89 
   1   5   5 1845.72  106.09 
   1   5   5 1789.32  117.99 
  -1   5  -5 1675.03  108.09 
  -1   5  -5 1806.62  106.29 
   1  -5  -5 1565.24  121.89 
  -1  -5   5 1782.72  108.29 
  -1  -5   5 1743.43  106.79 
  -2  -5  -5  731.33   48.90 
   2   5  -5  710.23   46.00 
   2  -5   5  741.13   48.50 
   2  -5   5  746.03   44.10 
   2  -5   5  749.53   42.80 
  -2   5   5  747.03   45.40 
  -2  -5  -5  678.03   43.70 
   2  -5   5  810.42   53.89 
  -2  -5  -5  753.22   45.70 
   2   5  -5  736.83   46.00 
  -2  -5  -5  769.82   60.89 
   2  -5   5  770.22   44.80 
   2   5  -5  759.22   44.00 
  -2  -5   5  691.63   48.70 
   2  -5  -5  715.43   45.60 
   2  -5  -5  674.03   44.90 
   2   5   5  700.93   45.70 
   2   5   5  682.43   43.50 
   2   5   5  642.24   54.99 
  -2   5  -5  690.83   45.50 
  -2  -5   5  678.13   51.79 
   2  -5  -5  695.23   43.40 
   2  -5  -5  620.24   48.50 
   2  -5  -5  693.43   57.39 
   2   5   5  638.84   45.10 
  -2  -5   5  686.13   44.10 
  -3  -5  -5  385.56   26.40 
   3   5  -5  399.26   25.90 
  -3  -5  -5  372.36   31.20 
   3  -5   5  383.16   33.30 
   3  -5   5  390.76   26.20 
   3  -5   5  411.26   27.00 
   3  -5   5  401.86   24.90 
   3   5  -5  393.96   27.90 
  -3  -5  -5  419.06   27.80 
  -3   5   5  419.46   27.40 
  -3   5   5  437.76   30.70 
   3  -5  -5  424.36   25.70 
   3   5   5  417.56   25.90 
  -3  -5   5  415.06   26.20 
   3  -5  -5  387.46   27.10 
   3   5   5  404.56   28.10 
   3  -5  -5  372.96   30.30 
   3  -5  -5  438.96   40.20 
  -3   5  -5  427.16   28.20 
   3   5   5  356.26   37.40 
  -3  -5   5  414.46   27.10 
   3   5   5  373.56   27.50 
  -4  -5  -5  121.99   14.90 
   4  -5   5  119.49    9.90 
   4   5  -5  119.59    9.50 
  -4  -5  -5   59.19  198.68 
  -4  -5  -5  122.09   10.70 
   4  -5   5  113.89   15.00 
   4   5  -5  117.79   11.30 
  -4   5   5   97.19   12.40 
  -4   5   5  119.19   10.10 
  -4  -5  -5  109.79   10.30 
   4  -5   5  111.59    8.50 
  -4  -5   5  116.89   14.70 
  -4  -5   5  119.69   10.90 
   4   5   5  110.49    9.30 
   4  -5  -5  129.39    9.30 
   4   5   5  130.29   11.90 
  -4  -5   5  -50.49  144.89 
   4  -5  -5  111.39   12.70 
  -4   5  -5  127.59   11.20 
  -4  -5   5  128.59   12.20 
  -4  -5   5  117.19    9.20 
   4  -5  -5  118.49   10.80 
   4  -5  -5  113.99   19.00 
   5  -5   5  333.87   22.30 
  -5   5   5  294.57   26.30 
  -5  -5  -5  320.57   31.40 
  -5   5   5  286.87   20.90 
   5  -5   5  336.57   20.70 
  -5  -5  -5   21.80  191.88 
   5   5  -5  332.77   24.20 
   5   5  -5  332.57   21.70 
  -5  -5  -5  330.47   23.20 
  -5  -5  -5  345.47   22.60 
   5  -5   5  291.07   29.50 
  -5  -5   5  295.97   28.70 
  -5  -5   5  306.27   23.90 
   5  -5  -5  302.07   35.20 
   5  -5  -5  353.86   21.50 
  -5  -5   5  289.37   20.30 
   5  -5  -5  353.86   23.50 
  -5   5  -5  345.97   23.30 
  -5  -5   5  143.39  201.28 
   5   5   5  335.77   24.30 
   5   5   5  324.27   21.60 
  -5  -5   5  336.67   25.10 
   6  -5   5  267.17   25.40 
   6  -5   5  291.47   19.00 
  -6  -5  -5  245.28   25.40 
  -6   5   5  237.58   22.90 
  -6  -5  -5  280.77   20.10 
   6  -5   5  233.78   25.60 
   6  -5   5  259.87   17.10 
   6   5  -5  286.97   20.90 
   6   5  -5  258.47   18.10 
   6  -5  -5  201.88   29.40 
   6   5   5  281.77   20.80 
  -6  -5   5  238.18   20.40 
  -6  -5   5  255.07   21.30 
  -6  -5   5  -20.10  149.49 
  -6  -5   5  205.88   23.90 
   6   5   5  275.67   18.20 
   6  -5  -5  274.57   17.90 
   6  -5  -5  286.87   20.20 
  -6   5  -5  244.78   17.00 
   7   5  -5   92.09    9.90 
   7  -5   5   79.59   12.40 
   7  -5   5   90.99    7.00 
   7   5  -5   80.49    7.70 
   7  -5   5   92.19    8.20 
  -7  -5  -5   89.99    9.40 
  -7   5   5   68.69   10.40 
  -7  -5  -5   34.40  125.99 
  -7  -5   5   -9.90  111.69 
   7   5   5   91.49    7.80 
  -7  -5   5   71.39    9.20 
   7  -5  -5   88.69    7.70 
   7   5   5   95.69    9.80 
  -7  -5   5   93.69   10.60 
   7  -5  -5   89.89    9.20 
  -8  -5  -5    1.90    2.20 
  -8  -5  -5   28.70  139.09 
   8   5  -5    1.70    1.90 
   8   5  -5    5.20    3.00 
   8  -5   5    3.40    4.60 
   8  -5   5    2.20    1.10 
   8  -5   5    5.00    2.00 
  -8   5   5    3.20    2.80 
   8  -5  -5    1.70    1.20 
  -8  -5   5    0.10    1.90 
  -8  -5   5    5.80    2.80 
   8  -5  -5    0.50    1.90 
   8   5   5    1.70    1.20 
   0   6  -5  355.86   23.30 
   0   6   5  333.07   24.10 
   0   6  -5  353.86   25.10 
   0  -6   5  351.66   27.70 
   0  -6   5  377.56   26.50 
   0  -6   5  338.97   31.00 
   0  -6  -5  340.17   24.30 
   0   6   5  336.57   24.70 
   0  -6  -5  370.46   37.20 
   0   6   5  364.86   22.50 
   0   6   5  314.67   30.40 
   0  -6  -5  371.96   22.80 
   0   6  -5  350.76   25.50 
   0  -6   5  353.16   24.20 
   0  -6  -5  378.26   25.30 
  -1  -6  -5  623.24   56.19 
  -1  -6  -5  673.63   42.90 
  -1   6   5  677.03   46.00 
   1   6  -5  632.34   43.20 
   1  -6   5  697.13   44.90 
  -1  -6  -5  617.44   45.40 
  -1   6   5  641.84   42.50 
   1   6  -5  635.54   42.80 
   1  -6   5  655.33   49.70 
   1  -6   5  645.64   39.60 
   1   6  -5  637.74   40.90 
   1  -6   5  666.13   41.80 
   1   6   5  660.33   42.70 
   1   6   5  681.23   42.80 
  -1   6  -5  630.54   43.60 
   1   6   5  659.23   52.29 
  -1  -6   5  697.53   50.59 
  -1   6  -5  644.74   40.40 
   1  -6  -5  634.14   40.80 
   1  -6  -5  620.94   47.60 
  -1  -6   5  652.33   43.60 
   1  -6  -5  700.13   43.20 
  -1  -6   5  647.54   41.50 
   1  -6  -5  696.13   57.09 
   1   6   5  652.33   42.30 
   1  -6  -5  678.93   42.50 
  -2  -6  -5   95.89    7.80 
  -2  -6  -5   72.49   11.10 
   2   6  -5   88.09    9.80 
   2   6  -5   85.19    7.90 
   2  -6   5   98.59   11.30 
   2   6  -5   84.39    9.30 
  -2  -6  -5   83.19   17.30 
  -2   6   5   88.29    9.00 
   2  -6   5   89.79    8.00 
   2  -6   5   93.59    6.90 
   2  -6   5   84.99    8.50 
   2  -6   5   99.39   13.90 
  -2  -6  -5   84.99    9.20 
  -2  -6   5  -23.10  110.89 
   2   6   5  121.79   17.80 
  -3  -6  -5  306.67   21.40 
   3  -6   5  318.27   19.80 
  -3  -6  -5  296.47   19.60 
   3   6  -5  302.07   21.90 
   3   6  -5  309.77   19.40 
   3  -6   5  338.57   25.20 
  -3  -6  -5   -9.50  159.38 
  -3   6   5  319.37   23.60 
  -3  -6  -5  286.67   25.60 
   3  -6   5  327.47   18.20 
   3  -6   5  274.27   26.80 
  -3   6   5  307.97   21.00 
   3  -6  -5  236.98   23.50 
   3   6   5  260.57   18.70 
  -3  -6   5  240.08   24.40 
   3   6   5  254.87   20.70 
   3  -6  -5  263.77   20.30 
  -3  -6   5   59.19  193.38 
  -3  -6   5  235.08   18.80 
  -3  -6   5  248.98   20.80 
   3   6   5  252.57   20.90 
   3  -6  -5  262.27   18.60 
   3  -6  -5  229.88   20.40 
  -3   6  -5  281.27   20.90 
   3  -6  -5  227.68   29.90 
   4  -6   5  138.89   11.30 
  -4  -6  -5  133.09   11.40 
   4  -6   5  132.59   17.40 
   4   6  -5  141.59   13.40 
   4   6  -5  134.09   10.90 
  -4   6   5  134.29   11.50 
  -4  -6  -5  101.09   15.60 
  -4  -6  -5  145.59   12.40 
   4  -6   5  133.89   18.40 
   4  -6   5  137.09    9.90 
  -4  -6  -5    4.10  187.38 
  -4   6   5  132.19   14.10 
  -4  -6   5   21.90  231.28 
  -4  -6   5  149.79   13.70 
  -4  -6   5  116.39   16.20 
   4   6   5  143.09   13.20 
   4  -6  -5  123.09   15.10 
   4  -6  -5  149.09   10.70 
  -4  -6   5  134.89   10.60 
  -4  -6   5  144.79   11.60 
   4  -6  -5  135.39   23.00 
   4  -6  -5  147.69   12.60 
   4   6   5  133.09   10.70 
  -4   6  -5  129.29   12.20 
   5  -6   5  613.74   37.60 
  -5   6   5  510.75   39.40 
   5  -6   5  551.64   47.60 
   5   6  -5  634.84   39.00 
   5  -6   5  674.13   39.70 
   5  -6   5  586.64   45.80 
   5   6  -5  682.23   42.40 
  -5  -6  -5  584.04   47.90 
  -5  -6  -5  583.14   39.50 
  -5  -6  -5  633.74   40.00 
  -5   6   5  562.94   43.60 
  -5  -6   5  659.73   42.70 
   5  -6  -5  676.83   41.00 
   5  -6  -5  552.74   54.69 
   5  -6  -5  572.14   44.30 
  -5  -6   5  606.24   47.90 
  -5  -6   5  545.65   36.90 
   5  -6  -5  676.23   38.70 
  -5  -6   5  525.25   45.60 
   5   6   5  621.24   38.70 
   5   6   5  703.53   42.30 
  -5   6  -5  679.13   40.50 
  -6   6   5   64.29    9.60 
   6  -6   5   65.59    7.10 
   6   6  -5   58.79    6.50 
  -6  -6  -5   40.40  189.58 
  -6  -6  -5   62.19    7.50 
   6  -6   5   64.49    5.80 
   6  -6   5   54.89    9.90 
   6   6  -5   53.19    8.50 
  -6  -6   5   22.20  165.08 
   6  -6  -5   75.39    8.40 
  -6  -6   5   62.09    7.80 
   6   6   5   70.19    8.80 
   6  -6  -5   73.99    6.80 
   6   6   5   63.39    6.40 
  -6  -6   5   72.59    9.30 
  -6   6  -5   58.29    5.70 
   7   6  -5   17.40    3.30 
  -7  -6  -5   -1.40   71.79 
   7   6  -5   17.20    4.40 
   7  -6   5   20.20    3.70 
   7  -6   5   12.80    5.70 
  -7   6   5   13.50    4.20 
   7  -6   5   14.80    3.40 
   7  -6  -5   19.40    4.40 
   7   6   5   16.80    4.50 
  -7  -6   5    2.40  170.38 
   7  -6  -5   16.70    3.30 
   7   6   5   19.20    3.40 
  -7  -6   5   15.40    4.50 
  -7  -6   5   11.60    5.80 
   0   7   5  104.59    8.10 
   0  -7  -5  109.29   19.60 
   0   7   5  102.79   10.40 
   0  -7   5  106.19    9.60 
   0  -7   5  123.19   12.20 
   0   7   5   97.29    9.90 
   0   7  -5  104.29    8.90 
   0  -7  -5  102.69   10.10 
   0   7  -5  108.59   10.70 
   0  -7   5  117.29   15.90 
   0  -7  -5  106.99    8.40 
   0  -7   5   94.09    7.50 
   0  -7  -5  112.39   10.80 
   0   7   5  109.69   22.20 
   0   7  -5  114.29   11.20 
   1  -7   5   17.20    5.40 
   1  -7   5   17.00    4.10 
   1  -7   5   17.30    5.90 
   1  -7   5   25.00    4.10 
   1   7  -5   17.60    3.60 
   1   7  -5   21.10    5.20 
   1   7  -5   16.60    7.70 
  -1   7   5   17.50    4.50 
  -1  -7  -5   26.60    6.50 
   1  -7   5   19.70    2.70 
  -1  -7  -5   11.60    8.80 
  -1  -7  -5   14.30    4.20 
   1  -7   5   15.90    6.40 
   1  -7  -5   28.70    3.60 
   1  -7  -5   32.20    5.10 
   1  -7  -5   24.50   10.60 
  -1  -7   5   23.60    6.80 
  -1   7  -5   33.00    5.40 
  -1  -7   5   30.20    4.30 
  -1  -7   5   27.40    6.40 
   1  -7  -5   27.30    8.20 
   1   7   5   28.70   11.90 
   2   7  -5  540.45   35.60 
  -2  -7  -5  540.15   35.50 
   2  -7   5  552.04   38.40 
   2  -7   5  539.25   43.50 
   2  -7   5  560.14   31.70 
   2  -7   5  557.04   34.30 
  -2  -7  -5  553.34   50.39 
  -2   7   5  565.44   35.50 
   2  -7   5  484.45   42.40 
   2   7  -5  565.44   33.40 
   2   7  -5  544.65   36.10 
  -2  -7  -5  481.55   39.50 
   2  -7   5  558.14   33.40 
  -2  -7   5  464.05   33.20 
   2   7   5  475.95   34.70 
   2  -7  -5  488.35   35.10 
  -2   7  -5  485.55   34.80 
   2   7   5  477.45   34.90 
   2  -7  -5  465.95   46.90 
  -2  -7   5  432.56   38.60 
   2  -7  -5  499.75   34.40 
   2   7   5  500.85   32.40 
   2  -7  -5  481.25   32.30 
   2  -7  -5  453.95   39.60 
  -3  -7  -5    3.40    5.00 
  -3   7   5   13.70    4.10 
  -3  -7  -5    5.80    3.20 
  -3  -7  -5   67.29  201.48 
   3  -7   5    7.10    1.90 
   3   7  -5    4.50    2.20 
   3  -7   5    5.40    2.80 
  -3  -7  -5    6.80    2.40 
  -3   7   5    5.90    2.80 
   3   7  -5   10.50    4.00 
   3  -7   5    9.80    4.80 
   3  -7   5    7.60    6.80 
   3  -7  -5    5.50    4.20 
   3   7   5    6.60    2.20 
   3  -7  -5    4.40    7.60 
   3  -7  -5   10.90    3.50 
  -3  -7   5 -131.39  107.09 
   3   7   5    6.60    3.60 
   3  -7  -5    4.70    3.70 
   3  -7  -5    4.30    2.10 
  -3  -7   5    3.40    5.40 
  -3  -7   5   11.10    4.20 
  -3   7  -5    8.00    2.90 
   3   7   5    8.40    3.30 
  -3  -7   5    8.20    2.60 
  -4  -7  -5  113.79   11.80 
   4   7  -5  129.69   13.20 
   4  -7   5  116.19   16.90 
   4  -7   5  130.99    9.50 
   4  -7   5   93.99   17.30 
  -4  -7  -5  102.39   16.70 
  -4   7   5  125.99   11.70 
  -4   7   5  122.99   15.80 
   4  -7   5  121.59   14.80 
  -4  -7  -5  130.49   12.30 
   4  -7   5  113.79   10.50 
   4   7  -5  128.99   10.60 
  -4  -7  -5    7.00  179.08 
   4  -7  -5  109.89   21.10 
  -4  -7   5   95.59   12.90 
  -4  -7   5  104.19   16.40 
  -4   7  -5  127.09   11.80 
   4  -7  -5  116.79   15.10 
   4  -7  -5  134.79   10.20 
   4  -7  -5  133.29   12.10 
   4   7   5  136.69   12.70 
   4   7   5  145.99   10.50 
  -4  -7   5  154.18   13.40 
  -4  -7   5   45.20  176.38 
   5  -7   5   58.09   10.50 
  -5  -7  -5   47.90   13.40 
  -5  -7  -5    1.30  127.69 
  -5  -7  -5   77.19    7.60 
   5  -7   5   73.69    6.00 
  -5   7   5   60.29    9.00 
   5   7  -5   66.59    7.00 
   5  -7   5   57.99   10.90 
   5  -7   5   55.19   15.10 
  -5  -7  -5   60.39    6.90 
  -5   7   5   55.39    6.10 
  -5  -7   5   52.79    5.20 
  -5  -7   5   87.39    9.90 
  -5   7  -5   69.89    7.60 
   5  -7  -5   45.70   16.90 
  -5  -7   5   33.10  188.18 
   5   7   5   77.29    6.90 
   5  -7  -5   70.89    6.70 
  -5  -7   5   57.19   15.10 
   5  -7  -5   48.30   10.10 
   5  -7  -5   76.39   11.40 
   6  -7   5   67.29    6.00 
  -6  -7  -5  -25.70  109.19 
  -6   7   5   55.09   10.10 
  -6  -7  -5   68.79    7.50 
   6   7  -5   67.99    9.20 
   6  -7   5   55.79   10.30 
   6   7  -5   65.09    6.80 
  -6  -7   5   30.30  179.68 
   6  -7  -5   77.09    8.60 
  -6   7  -5   62.79    6.40 
  -6  -7   5   68.09    8.70 
   6   7   5   78.09    9.10 
   6  -7  -5   72.69    6.90 
   6   7   5   75.19    6.90 
   7   7  -5   14.90    3.10 
   7  -7   5   16.80    4.10 
   7   7  -5   10.90    4.00 
  -7   7   5    8.80    3.60 
   7  -7   5    8.90    5.00 
  -7  -7  -5  -22.20   99.59 
  -7  -7  -5   17.10    3.60 
   7  -7   5   19.70    2.70 
   7  -7  -5    9.30    2.60 
   7   7   5   19.70    4.30 
   7   7   5   11.90    2.60 
   7  -7  -5   12.50    3.60 
  -7  -7   5   13.40    3.90 
   0   8  -5   40.20    6.50 
   0  -8  -5   48.80    8.30 
   0  -8  -5   28.20   12.50 
   0  -8  -5   35.40    4.20 
   0  -8   5   26.20    8.00 
   0  -8   5   51.29    6.00 
   0   8  -5   43.50    4.80 
   0  -8   5   47.00    8.00 
   0   8  -5   37.60    6.90 
   0   8   5   39.10    6.20 
   0  -8  -5   38.90    6.60 
   0   8   5   41.50    4.10 
   1  -8   5    7.40    3.20 
  -1  -8  -5    9.60    5.40 
   1   8  -5   10.50    4.10 
  -1   8   5    8.70    3.20 
  -1  -8  -5   11.50    9.70 
   1   8  -5   12.30    3.80 
   1  -8   5   10.80    2.00 
   1   8  -5    9.90    2.40 
   1  -8   5   12.10    3.20 
   1  -8   5    8.10    4.70 
  -1  -8  -5   12.60    4.20 
   1  -8   5    7.90    4.20 
  -1  -8   5    1.40    4.60 
   1   8   5   13.10    3.20 
   1   8   5    7.10    2.10 
   1   8   5   11.10    3.80 
   1  -8  -5   13.10    4.30 
   1  -8  -5    8.60    6.90 
  -1  -8   5    8.50    3.00 
   1  -8  -5    6.10    3.40 
   1  -8  -5    7.00    2.30 
  -1   8  -5    9.50    3.60 
  -2  -8  -5   66.49   12.10 
   2   8  -5   81.49    9.50 
   2  -8   5   74.19   13.40 
   2  -8   5   82.69    7.00 
   2  -8   5   79.69    8.90 
  -2  -8  -5  -25.80  107.39 
   2   8  -5   95.29   10.70 
  -2   8   5   92.19    9.90 
   2  -8   5   62.09   14.30 
   2  -8   5   87.19   11.70 
   2  -8   5   87.79    8.40 
  -2  -8  -5   94.39   17.50 
   2   8  -5   90.69    8.40 
  -2  -8  -5   86.19   10.00 
  -2   8   5   84.99   10.10 
   2   8   5  106.39   10.50 
   2   8   5   99.59    8.00 
   2   8   5   99.89   10.10 
  -2   8  -5   90.69    9.90 
  -2  -8   5  105.09    9.20 
   2  -8  -5   87.49    7.80 
   2  -8  -5  108.29   11.00 
  -2  -8   5  116.09   10.70 
   2  -8  -5   81.59   13.20 
  -2  -8   5   87.79   13.30 
  -2  -8   5   70.29  179.28 
   2  -8  -5  107.59   10.10 
   2  -8  -5   88.69   17.40 
  -3  -8  -5   10.50    7.30 
  -3  -8  -5   19.00    5.00 
   3  -8   5   19.10    6.10 
   3  -8   5   21.90    3.10 
  -3   8   5   26.70    6.20 
   3  -8   5   13.60    8.00 
  -3  -8  -5   79.99  196.78 
   3   8  -5   30.40    4.50 
   3  -8   5   23.50    3.90 
  -3   8   5   23.50    5.30 
   3   8  -5   22.10    5.30 
   3  -8   5   23.80    4.30 
   3  -8   5   18.90    6.80 
   3  -8  -5   38.20    5.80 
   3   8   5   26.80    7.30 
   3   8   5   33.10    5.80 
  -3  -8   5   30.30    5.80 
   3  -8  -5   11.00    7.80 
  -3  -8   5   17.60    8.90 
  -3  -8   5   36.10  190.08 
   3  -8  -5   31.40    4.00 
  -3   8  -5   24.00    5.10 
   3   8   5   33.10    4.10 
  -3  -8   5   29.60    4.50 
   3  -8  -5   24.80    7.90 
   4   8  -5  185.88   13.90 
  -4  -8  -5  135.19   19.20 
   4  -8   5  143.29   20.50 
   4  -8   5  166.88   18.20 
  -4  -8  -5  184.38   13.30 
   4  -8   5  178.48   12.40 
  -4   8   5  193.08   14.90 
  -4  -8  -5  167.68   14.80 
   4  -8   5  158.08   16.30 
   4  -8   5  179.58   14.40 
  -4   8   5  156.88   15.30 
   4  -8  -5  163.88   18.70 
   4  -8  -5  137.79   24.10 
  -4  -8   5  164.98   20.70 
  -4  -8   5  -23.40  126.19 
  -4  -8   5  211.88   16.50 
  -4  -8   5  182.08   13.30 
   4   8   5  195.08   13.40 
   4  -8  -5  183.18   13.20 
  -4   8  -5  207.88   15.40 
   4   8   5  173.98   18.90 
  -5   8   5   28.70    6.70 
  -5   8   5   24.90    3.90 
   5   8  -5   39.00    4.80 
   5  -8   5   30.80    3.80 
  -5  -8  -5    1.40  130.79 
   5   8  -5   36.90    7.00 
  -5  -8  -5   31.60    4.70 
  -5  -8  -5   24.80    4.10 
   5  -8   5   20.50    6.90 
   5  -8   5   31.40    4.90 
   5  -8  -5   33.80    4.50 
  -5   8  -5   34.20    5.10 
   5   8   5   46.90    6.70 
   5  -8  -5   42.00    6.30 
   5  -8  -5   19.40    7.60 
   5   8   5   44.10    4.70 
  -5  -8   5   33.80    6.30 
   6  -8   5    3.80    2.30 
  -6  -8  -5  -11.60   91.79 
   6   8  -5    2.00    1.60 
   6  -8   5    0.50    1.20 
   6  -8   5   -1.30    3.40 
   6   8  -5    6.30    3.40 
  -6  -8  -5    7.30    2.90 
   6   8   5    1.90    1.50 
   6  -8  -5   -0.20    1.40 
   6  -8  -5    2.70    2.60 
   6   8   5    2.10    2.20 
  -6  -8   5    2.50    2.70 
   0   9  -5   -0.90    1.50 
   0  -9   5    5.60    4.60 
   0  -9  -5    6.90    7.80 
   0   9  -5    3.40    2.80 
   0  -9  -5    1.60    2.60 
   0  -9   5    0.80    1.70 
   0   9   5    1.00    2.30 
   1   9  -5   45.80    6.80 
  -1  -9  -5   39.10    6.50 
   1  -9   5   22.50    7.00 
  -1   9   5   49.60    6.60 
   1   9  -5   33.50    4.50 
   1  -9   5   40.10    8.00 
  -1  -9  -5   23.30   11.50 
   1   9  -5   38.10    7.40 
   1  -9   5   43.00    5.90 
  -1  -9  -5   20.90    7.90 
   1  -9   5   30.30    4.10 
   1   9   5   34.80    6.10 
  -1   9  -5   32.00    6.60 
   1  -9  -5   45.40    6.80 
  -1  -9   5  -77.79  164.78 
  -1  -9   5   47.90    6.00 
   1  -9  -5   38.70    6.50 
   1  -9  -5   29.70    4.10 
  -1  -9   5   38.40    5.90 
   1   9   5   48.00    6.30 
   1   9   5   36.00    3.90 
   2  -9   5   41.20    6.20 
   2  -9   5   34.00    8.50 
  -2   9   5   43.90    6.70 
  -2  -9  -5   28.60   14.50 
   2   9  -5   50.69    5.40 
   2  -9   5   41.40    4.40 
  -2  -9  -5   51.79    7.20 
   2  -9   5   42.10    6.10 
   2   9  -5   34.30    6.80 
   2   9  -5   45.90    7.60 
  -2   9   5   41.70    6.20 
  -2  -9   5   56.69    7.10 
   2   9   5   56.99    6.70 
  -2   9  -5   47.80    7.00 
   2   9   5   46.50    4.80 
  -2  -9   5   24.60  173.78 
   2  -9  -5   55.59    7.30 
   2  -9  -5   43.80    4.90 
   2  -9  -5   50.79    7.50 
   2  -9  -5   41.20    8.80 
  -2  -9   5   44.80    5.90 
   2   9   5   44.80    6.70 
   3  -9   5   50.99    5.00 
   3  -9   5   41.20    8.60 
  -3  -9  -5   38.70  187.88 
  -3   9   5   43.30    6.80 
   3   9  -5   56.39    6.10 
   3  -9   5   52.79    6.40 
  -3   9   5   54.09    7.20 
   3  -9   5   53.39    6.80 
   3   9  -5   54.29    8.10 
  -3  -9  -5   47.20    7.20 
   3   9   5   61.79    7.40 
   3  -9  -5   58.79    7.60 
  -3  -9   5   47.90    6.10 
   3   9   5   57.99    5.60 
   3  -9  -5   51.69   10.30 
   3  -9  -5   52.79    5.50 
   3  -9  -5   50.19    7.80 
   3   9   5   53.49    7.50 
  -3   9  -5   52.79    7.20 
  -3  -9   5   62.09    8.00 
  -3  -9   5    8.10  110.79 
   4  -9   5   -1.10    3.20 
   4  -9   5    5.80    3.10 
   4  -9   5    9.40    2.70 
  -4   9   5    6.00    5.50 
  -4  -9  -5    1.20    2.20 
   4   9  -5    6.40    3.50 
  -4  -9  -5    2.40    2.10 
   4   9  -5    5.90    2.20 
  -4   9   5    5.50    2.40 
  -4  -9  -5   -7.90  139.29 
   4  -9  -5   -1.30    4.40 
   4  -9  -5    3.30    1.90 
  -4  -9   5  101.79  232.68 
   4   9   5    5.10    2.10 
  -4   9  -5    5.70    2.70 
   4  -9  -5    5.60    3.20 
  -4  -9   5    6.90    3.40 
   4   9   5    9.10    2.90 
   5   9  -5   14.50    4.00 
   5  -9   5    9.90    2.80 
  -5  -9  -5    9.60    2.40 
  -5   9   5    8.00    2.10 
   5   9  -5    6.40    2.30 
  -5  -9  -5  -15.20   83.69 
  -5  -9  -5    6.40    2.20 
   5  -9   5   11.60    5.40 
  -5   9  -5    8.40    2.50 
  -5  -9   5   16.60    4.70 
   5   9   5   12.10    2.70 
   5  -9  -5   12.10    2.50 
   5  -9  -5   10.50    3.40 
   5   9   5    8.30    3.30 
   0  10  -5   55.49    7.50 
   0 -10   5   59.59    6.80 
   0  10   5   51.09    7.30 
   0 -10  -5   65.29    8.40 
   0 -10   5   51.39   11.10 
   0 -10   5   52.99    6.90 
   1  10  -5    0.80    1.60 
   1 -10   5    6.60    2.90 
   1  10  -5    3.70    4.90 
   1  10  -5    1.30    1.90 
   1 -10   5    4.70    4.90 
   1 -10   5    3.60    2.40 
  -1  10   5    4.50    3.10 
  -1  10   5    2.00    2.10 
  -1 -10  -5    1.70    2.30 
  -1 -10  -5   -6.80  126.59 
   1  10   5    2.60    1.50 
   1 -10  -5   -2.10    2.10 
   1  10   5    3.20    2.40 
  -1 -10   5  -22.10  153.08 
  -1  10  -5    2.60    2.20 
  -1 -10   5    6.90    2.60 
  -1 -10   5    7.50    3.10 
  -2 -10  -5  -29.40  142.99 
  -2  10   5  107.09   10.70 
   2 -10   5   90.59    8.40 
   2  10  -5  101.49   11.10 
   2 -10   5   77.69   12.30 
   2 -10   5  129.39   12.20 
  -2 -10  -5  116.29   11.30 
   2  10  -5   99.79   10.70 
   2 -10   5  132.69   10.90 
   2  10  -5  108.89    8.80 
   2  10   5   93.29   10.70 
   2  10   5  115.89   10.40 
   2  10   5   87.19    7.70 
   2 -10  -5   93.49    8.10 
  -2 -10   5   93.79    9.50 
   2 -10  -5  110.49   11.30 
  -2 -10   5  113.69   10.60 
  -2  10  -5  110.69   10.70 
   2 -10  -5  116.89   10.80 
  -3 -10  -5   -1.60    1.90 
   3  10  -5    0.40    1.30 
   3 -10   5   -0.10    1.20 
  -3 -10  -5  -12.50  108.39 
   3  10  -5    3.90    3.00 
  -3  10   5    0.80    1.80 
   3 -10   5    6.20    4.10 
   3 -10   5   -1.40    2.10 
  -3 -10   5    2.80    2.40 
  -3  10  -5    1.90    1.70 
   3  10   5    2.30    2.20 
  -3 -10   5  -39.30  144.79 
   3  10   5    1.00    1.40 
   3 -10  -5    0.40    2.90 
   3  10   5    1.00    2.70 
   3 -10  -5    0.20    2.00 
  -3 -10   5    3.00    1.60 
   3 -10  -5    0.50    3.30 
  -4 -10  -5    8.60    2.80 
  -4  10   5    7.50    2.20 
   4 -10   5    9.50    3.20 
   4  10  -5    7.00    2.30 
   4 -10   5   10.80    3.10 
   4 -10   5    7.00    1.90 
  -4 -10  -5    2.40  125.79 
   4 -10   5    6.60    4.20 
   4 -10  -5   15.90    3.50 
  -4 -10   5   13.60    4.00 
  -4 -10   5    5.80    2.10 
   4  10   5    8.00    1.90 
   4 -10  -5    6.30    2.10 
  -4  10  -5   10.80    2.90 
   4  10   5    8.10    2.70 
   0 -11  -5    7.60  147.39 
   0 -11   5   72.19  136.19 
  -1 -11  -5  -40.90   82.19 
   1 -11   5   79.99    8.50 
  -1  11   5   89.69    9.10 
   1  11  -5   74.29    8.80 
  -1 -11  -5   81.59    9.30 
  -1 -11   5   94.09    8.30 
  -1  11  -5   76.79    8.70 
  -1 -11   5   73.09    8.30 
  -1 -11   5   45.00  134.09 
   1  11   5   93.29    9.20 
   1 -11  -5   82.89    9.40 
   2  11  -5    5.30    2.90 
   2  11  -5   12.90    2.50 
  -2 -11  -5   10.60    3.30 
  -2  11   5   15.70    3.60 
   2 -11   5   11.70    3.60 
  -2 -11  -5  -38.00  125.69 
  -2 -11   5   48.30  154.88 
   2  11   5   15.80    3.90 
  -2 -11   5   19.70    4.30 
   2 -11  -5   17.00    4.00 
  -2  11  -5   13.40    3.80 
  -2 -11   5   15.30    3.60 
  -3 -11  -5   -0.20  100.59 
  -3  11   5    3.30    2.00 
  -3 -11  -5    0.40    1.60 
   3  11  -5    1.00    1.40 
   3 -11   5   -0.80    2.10 
   3  11  -5    4.60    3.80 
  -3 -11   5    5.70    2.40 
  -3 -11   5    9.10    2.20 
   3  11   5    4.90    2.90 
   3 -11  -5    2.10    1.90 
   3 -11  -5    9.40    3.10 
   3  11   5    5.10    1.30 
  -3  11  -5    3.20    2.10 
   0   0   6  108.19    8.60 
   0   0   6  114.49   11.30 
   0   0  -6  112.29    8.10 
   0   0   6  106.19    8.20 
   0   0  -6  109.59    9.00 
   0   0   6  120.79   13.50 
  -1   0   6  310.87   20.70 
  -1   0   6  326.47   25.20 
  -1   0  -6  280.97   19.70 
   1   0  -6  286.67   25.10 
   1   0   6  293.77   18.10 
   1   0   6  286.47   27.70 
   1   0   6  311.27   24.40 
  -1   0  -6  266.57   19.60 
  -1   0   6  290.47   19.30 
   1   0   6  269.27   19.00 
   1   0  -6  275.07   19.60 
   1   0  -6  302.97   18.60 
   2   0   6    2.10    1.10 
  -2   0  -6    0.30    1.60 
   2   0  -6    0.00    1.60 
   2   0   6    1.90    3.10 
   2   0   6    2.20    1.50 
  -2   0   6    6.80    3.70 
  -2   0   6    1.40    1.10 
   2   0   6    0.50    1.50 
   2   0  -6    1.10    1.30 
   3   0  -6    5.80    2.00 
   3   0   6    2.20    2.70 
  -3   0   6    4.90    1.50 
   3   0  -6    2.90    3.30 
  -3   0  -6    2.20    1.60 
   3   0   6    7.20    3.80 
   3   0   6    3.20    1.70 
  -3   0   6    5.00    2.70 
   3   0   6    5.10    1.30 
   3   0  -6    4.70    1.30 
  -4   0  -6    9.80    3.70 
   4   0   6   10.40    7.20 
  -4   0   6    8.10    5.70 
  -4   0   6    6.20    1.70 
  -4   0  -6    7.50    2.60 
   4   0  -6    7.10    3.90 
   4   0   6    8.90    1.80 
  -4   0   6    6.90    3.00 
  -4   0  -6   21.60   97.89 
   4   0  -6    5.70    1.80 
   4   0   6    4.80    3.50 
   4   0   6    6.50    2.20 
   4   0  -6   10.10    2.70 
  -5   0   6  194.78   17.90 
   5   0  -6  188.28   12.60 
  -5   0  -6    6.40  152.48 
  -5   0  -6  156.38   13.70 
   5   0   6  187.38   14.00 
   5   0   6  173.38   12.30 
  -5   0  -6  190.48   14.20 
   5   0   6  175.08   22.50 
   6   0   6  190.68   24.40 
   6   0  -6  209.88   15.70 
  -6   0   6  206.88   20.20 
  -6   0  -6   61.89  185.68 
  -6   0  -6  214.88   16.20 
   6   0  -6  217.88   14.30 
   6   0   6  200.28   14.00 
   6   0   6  209.18   15.80 
   7   0  -6   58.09    9.40 
  -7   0  -6   52.19    6.60 
  -7   0   6   49.30    9.20 
   7   0  -6   45.10    4.90 
   7   0   6   51.49    4.80 
   7   0   6   58.29    8.90 
  -7   0  -6  -16.60  146.39 
  -8   0  -6   32.00  126.09 
   8   0   6   19.70    3.30 
  -8   0   6   12.80    5.60 
   8   0   6   13.10    2.20 
   8   0  -6   12.60    4.50 
   8   0  -6   17.20    2.90 
   0  -1  -6  355.36   20.70 
   0  -1   6  357.06   24.80 
   0   1   6  298.17   21.10 
   0   1  -6  312.47   21.60 
   0  -1  -6  305.07   21.50 
   0  -1   6  324.17   21.20 
   0  -1   6  353.56   27.50 
   0   1  -6  341.97   20.60 
   0   1   6  290.27   20.60 
   0   1   6  312.07   24.50 
   0   1   6  353.16   27.40 
   0  -1   6  288.67   20.40 
  -1   1   6  964.30   61.19 
  -1  -1  -6  967.10   61.49 
  -1   1   6 1140.89   67.99 
  -1  -1  -6 1012.00   61.69 
  -1   1   6 1119.49   62.29 
   1  -1   6  982.20   60.79 
   1   1  -6 1027.40   60.39 
   1  -1   6 1119.09   69.29 
   1  -1   6 1005.00   59.79 
   1   1  -6  889.41   64.49 
   1  -1  -6  988.20   69.49 
   1   1   6  951.00   75.59 
  -1  -1   6 1065.59   63.69 
   1  -1  -6 1008.10   62.49 
  -1   1  -6  991.00   61.89 
  -1   1  -6 1015.10   61.79 
  -1  -1   6  993.10   61.19 
   1   1   6  976.80   61.19 
   1   1   6 1000.10   59.99 
   1  -1  -6 1032.60   60.39 
   1   1   6 1004.00   66.89 
   2  -1   6  311.77   27.70 
  -2  -1  -6  327.77   22.10 
  -2  -1  -6  277.07   21.20 
   2   1  -6  336.57   20.80 
  -2  -1  -6  341.47   21.10 
   2  -1   6  326.97   20.40 
   2  -1   6  307.67   21.40 
   2  -1   6  289.57   26.60 
   2   1  -6  304.57   21.80 
  -2  -1   6  327.77   23.00 
   2   1   6  358.96   29.90 
   2  -1  -6  346.77   29.10 
  -2  -1   6  349.96   21.60 
   2   1   6  333.57   20.60 
  -2  -1   6  339.87   22.60 
   2   1   6  325.37   21.90 
   2  -1  -6  330.77   22.00 
  -2   1  -6  351.16   22.50 
   2  -1  -6  354.76   20.90 
   3  -1   6 1131.19   81.39 
  -3  -1  -6 1221.08   74.69 
  -3  -1  -6 1128.09   73.59 
   3  -1   6 1175.68   72.39 
   3   1  -6 1171.88   72.69 
   3   1  -6 1151.28   73.79 
  -3   1   6 1130.59   76.29 
  -3   1   6 1209.48   73.49 
  -3  -1  -6 1226.78   74.49 
   3  -1   6 1112.29   73.59 
   3  -1  -6 1286.67   82.59 
   3  -1  -6 1247.88   74.09 
   3   1   6 1274.57   72.69 
   3   1   6 1220.48   74.19 
   3   1   6 1283.77   84.49 
  -3  -1   6 1299.77   76.49 
  -3   1  -6 1413.56   75.19 
   3  -1  -6 1279.77   72.79 
  -3  -1   6 1213.58   72.89 
  -3  -1   6 1343.67   73.59 
   4  -1   6   62.49   14.70 
  -4   1   6   85.09   10.50 
  -4  -1  -6    3.50   92.69 
   4  -1   6   86.09    6.70 
  -4  -1  -6   90.59    8.40 
   4  -1   6   93.99    8.10 
   4   1  -6   87.79    6.90 
   4   1  -6   85.79    7.90 
  -4   1   6   88.69    7.20 
   4  -1   6   92.59   14.00 
  -4  -1  -6   98.59    9.60 
  -4  -1  -6   88.99    8.10 
   4   1   6   76.09   13.50 
  -4  -1   6   77.59    8.00 
   4   1   6   86.49    6.80 
   4  -1  -6   87.89   12.60 
   4   1   6   88.09    8.20 
  -4  -1   6   78.89    9.90 
  -4   1  -6   94.59    8.60 
  -4  -1   6   82.29    7.90 
   4  -1  -6   87.49    6.90 
  -4  -1   6   85.09    6.90 
   4  -1  -6   94.49    8.20 
   4   1   6  103.59   15.00 
   5  -1   6  601.74   37.30 
  -5  -1  -6  568.44   40.50 
   5  -1   6  576.34   48.30 
   5   1  -6  578.94   35.80 
   5   1  -6  582.44   38.00 
  -5  -1  -6  582.04   37.50 
   5  -1   6  568.04   35.50 
  -5  -1  -6  558.34   37.30 
  -5   1   6  550.84   41.80 
   5  -1  -6  623.44   36.00 
   5  -1  -6  537.95   44.70 
   5   1   6  589.94   37.70 
   5   1   6  585.94   35.80 
  -5  -1   6  608.44   41.60 
   5   1   6  631.94   50.59 
   5  -1  -6  612.74   37.90 
  -5   1  -6  588.14   37.50 
  -5  -1   6  522.15   37.40 
  -6  -1  -6   82.19    8.70 
   6  -1   6   61.19   13.10 
  -6  -1  -6   67.59   10.80 
  -6  -1  -6   38.00  133.39 
   6  -1   6   86.69    8.20 
   6   1  -6   81.29    7.10 
  -6   1   6   84.09   11.90 
   6   1  -6   78.79    8.20 
   6  -1   6   77.39    6.70 
  -6   1  -6    2.40  129.59 
   6  -1  -6  101.49    7.40 
  -6  -1   6   86.59    8.60 
   6   1   6  102.69    7.30 
   6  -1  -6  108.49    9.00 
   6   1   6   79.39   15.10 
  -6  -1   6   91.29   11.90 
   7  -1   6   93.59    7.50 
   7   1  -6   98.99    9.40 
   7   1  -6  100.99    8.00 
   7  -1   6   81.99   14.80 
  -7  -1  -6   36.20  201.38 
  -7   1   6  102.39   13.60 
  -7  -1  -6  109.69   10.10 
   7  -1   6  104.89    9.30 
  -7  -1   6   93.09   12.50 
  -7   1  -6  -13.70   96.79 
   7   1   6   90.09   16.70 
   7  -1  -6  102.69    9.40 
   7   1   6   99.09   10.10 
   7  -1  -6   98.19    7.90 
   7   1   6   95.29    7.70 
   8  -1   6    8.50    2.30 
  -8  -1  -6   26.30  111.89 
   8  -1   6    9.00    1.70 
  -8   1   6    8.20    4.60 
   8   1  -6    4.40    2.30 
   8   1   6   10.10    2.10 
   8  -1  -6    7.50    4.10 
   8  -1  -6    9.70    2.30 
   8   1   6   13.10    2.70 
  -8  -1   6    6.10    4.30 
   0   2  -6 2396.66  138.69 
   0  -2  -6 2328.17  138.89 
   0  -2   6 2309.27  138.29 
   0   2   6 2481.85  146.09 
   0  -2   6 2165.68  137.49 
   0  -2   6 2708.63  143.89 
   0   2   6 2187.88  137.99 
   0  -2  -6 2270.27  149.49 
   0  -2  -6 2506.25  137.69 
   0   2   6 2293.67  138.59 
   0  -2  -6 2321.27  138.89 
   0   2  -6 2230.08  138.99 
   0   2   6 2301.77  136.89 
   0   2  -6 2333.67  139.19 
  -1   2   6  517.45   29.70 
   1  -2   6  484.95   27.10 
   1   2  -6  477.15   29.30 
  -1  -2  -6  486.45   29.30 
   1  -2   6  536.15   36.20 
  -1  -2  -6  473.65   29.00 
   1   2  -6  498.55   27.90 
   1  -2   6  495.35   28.80 
   1  -2   6  463.25   28.20 
  -1   2   6  484.85   28.90 
   1  -2  -6  421.16   27.60 
  -1   2  -6  430.26   27.80 
   1   2   6  415.36   27.20 
  -1  -2   6  401.26   27.60 
  -1  -2   6  426.16   31.50 
   1   2   6  369.36   31.50 
   1   2   6  428.16   35.40 
  -1  -2   6  423.76   28.20 
  -1   2  -6  396.66   29.00 
  -1   2  -6  403.46   28.80 
   1  -2  -6  395.26   28.70 
   1   2   6  397.36   28.50 
   1  -2  -6  415.16   37.20 
   2  -2   6 2157.68  129.59 
  -2   2   6 2078.49  121.69 
  -2  -2  -6 1963.90  121.49 
   2  -2   6 1995.80  121.79 
  -2  -2  -6 2136.89  122.39 
   2   2  -6 2103.59  120.69 
  -2  -2  -6 1873.41  120.99 
   2  -2   6 2020.40  121.19 
   2   2  -6 1992.40  121.89 
  -2   2  -6 2188.88  122.69 
   2   2   6 2048.70  122.19 
   2  -2  -6 2176.38  132.99 
  -2  -2   6 2120.39  125.19 
   2  -2  -6 2043.90  121.99 
   2  -2  -6 2179.88  120.69 
   2   2   6 2052.19  122.09 
   2   2   6 2072.69  131.69 
  -2  -2   6 1874.71  120.09 
   2  -2  -6 1887.51  127.39 
   2   2   6 2123.99  120.49 
  -2  -2   6 2008.60  122.69 
   3  -2   6   39.30    8.20 
  -3   2   6   46.00    6.90 
   3  -2   6   40.70    8.40 
   3  -2   6   38.90    4.70 
  -3  -2  -6   48.70    5.50 
   3  -2   6   38.60    3.80 
   3   2  -6   38.50    4.00 
   3   2  -6   39.40    5.10 
  -3  -2  -6  -69.99   78.09 
  -3  -2  -6   37.50    5.10 
  -3  -2  -6   40.90    4.80 
   3  -2   6   39.80    5.10 
   3  -2  -6   45.40    9.50 
   3   2   6   50.09   10.80 
   3   2   6   46.90    4.20 
  -3   2  -6   56.99    6.00 
  -3  -2   6   43.40    5.90 
  -3  -2   6   51.29    4.70 
   3  -2  -6   49.00    4.40 
  -3  -2   6   38.70    4.90 
   3   2   6   48.80    5.60 
   3  -2  -6   49.80    5.50 
  -4  -2  -6  621.04   39.60 
  -4  -2  -6  628.14   36.60 
   4  -2   6  629.54   45.80 
   4  -2   6  600.04   36.10 
  -4   2   6  606.54   35.60 
   4   2  -6  624.14   35.20 
   4  -2   6  609.84   34.70 
   4  -2   6  667.33   48.10 
  -4   2   6  626.84   41.00 
   4   2  -6  621.24   36.70 
  -4  -2   6  519.05   34.80 
   4   2   6  533.15   36.50 
   4   2   6  510.55   57.89 
  -4  -2   6  478.55   36.60 
  -4  -2   6  476.45   36.80 
   4  -2  -6  531.45   36.20 
   4   2   6  524.25   34.80 
   4  -2  -6  488.45   44.30 
   4  -2  -6  561.54   34.90 
  -4   2  -6  508.35   37.00 
  -5   2   6  141.69   15.60 
  -5  -2  -6   -5.50  141.19 
   5  -2   6  143.49   10.20 
   5   2  -6  150.58   12.10 
   5   2  -6  149.19   10.60 
   5  -2   6  148.59   11.60 
  -5  -2  -6  149.69   12.20 
  -5  -2  -6  146.39   11.90 
  -5  -2  -6  141.79   14.90 
  -5   2   6  136.79    9.70 
   5  -2   6  152.28   19.30 
  -5  -2   6  133.69   12.60 
   5  -2  -6  127.09   18.30 
   5  -2  -6  152.38   10.60 
   5  -2  -6  152.08   12.20 
  -5   2  -6  151.78   12.30 
  -5   2  -6  -50.19   97.49 
  -5  -2   6  127.59   13.00 
   5   2   6  142.19   10.50 
  -5  -2   6  144.29   14.70 
   5   2   6  156.08   12.50 
  -6  -2  -6  555.74   44.80 
   6   2  -6  655.73   39.40 
   6  -2   6  664.63   40.70 
   6  -2   6  632.54   39.00 
   6   2  -6  672.33   41.30 
   6  -2   6  590.54   50.99 
   6  -2  -6  709.83   41.50 
  -6   2  -6  542.95   40.60 
   6  -2  -6  703.63   39.60 
  -6  -2   6  536.15   53.39 
   6   2   6  589.34   54.19 
   6   2   6  682.63   39.50 
  -6  -2   6  598.94   41.50 
   6   2   6  690.03   41.70 
   7   2  -6   16.70    4.00 
   7  -2   6   18.80    3.60 
  -7   2   6   14.20    6.30 
   7  -2   6   15.10    2.50 
  -7  -2  -6   14.70    4.30 
   7   2  -6   16.40    3.00 
  -7  -2  -6  -16.80  117.19 
   7  -2  -6   17.50    3.00 
  -7  -2   6   12.40    5.00 
   7  -2  -6   20.70    4.10 
   7   2   6   19.30    4.20 
  -7  -2   6   16.40    4.20 
   7   2   6   14.60    2.80 
   8   2  -6    9.00    4.10 
  -8   2   6    1.50    3.20 
  -8  -2  -6   -4.70   65.99 
  -8  -2  -6    8.00    3.90 
   8   2  -6    5.00    2.00 
   8  -2   6    8.40    2.20 
   8  -2   6    6.50    1.60 
  -8  -2   6    4.80    3.40 
   8   2   6    7.10    2.60 
   8   2   6    8.00    1.90 
   8  -2  -6    8.50    2.30 
   0   3  -6 1218.98   78.99 
   0  -3  -6 1294.87   77.59 
   0  -3  -6 1412.66   91.89 
   0  -3   6 1169.88   75.79 
   0   3  -6 1311.07   76.19 
   0   3   6 1349.27   84.69 
   0  -3   6 1460.85   82.89 
   0   3   6 1286.57   75.59 
   0   3   6 1220.38   77.09 
   0  -3  -6 1247.08   77.39 
   0  -3   6 1268.77   74.99 
   0  -3  -6 1310.97   75.99 
   0  -3   6 1305.07   76.89 
   0   3  -6 1208.18   78.79 
   0   3   6 1205.78   76.59 
   0  -3  -6 1182.28   75.29 
   1   3  -6 2458.85  140.29 
  -1  -3  -6 2234.78  140.29 
  -1  -3  -6 2358.66  141.59 
  -1   3   6 2603.84  147.69 
   1  -3   6 2341.67  140.99 
   1   3  -6 2319.77  141.79 
   1  -3   6 2425.86  139.29 
   1  -3   6 2230.48  140.19 
  -1   3   6 2353.26  141.29 
  -1   3   6 2313.87  142.39 
  -1  -3  -6 2656.93  160.38 
  -1  -3  -6 2226.48  141.09 
   1   3  -6 2366.86  142.19 
  -1  -3  -6 2401.86  139.89 
   1  -3  -6 2339.77  141.59 
   1   3   6 2478.65  139.79 
  -1   3  -6 2344.57  141.99 
   1   3   6 2375.36  141.39 
   1  -3  -6 2384.66  141.79 
   1  -3  -6 2549.44  140.29 
  -1   3  -6 2378.76  141.99 
   1   3   6 2258.27  141.39 
   1   3   6 2554.64  151.48 
  -1  -3   6 2247.98  140.49 
  -1   3  -6 2453.75  140.29 
   2  -3   6  281.37   17.60 
  -2   3   6  297.77   19.60 
   2   3  -6  271.17   19.70 
  -2  -3  -6  276.37   19.90 
   2  -3   6  308.77   25.70 
  -2  -3  -6  274.07   19.70 
   2  -3   6  269.87   24.70 
  -2  -3  -6  271.47   18.70 
   2   3  -6  280.47   18.30 
   2  -3   6  292.87   18.80 
   2  -3   6  297.77   19.40 
   2  -3  -6  293.37   28.90 
  -2  -3   6  290.87   19.00 
   2   3   6  262.57   19.40 
   2  -3  -6  279.17   19.70 
  -2  -3   6  263.37   19.20 
  -2  -3   6  287.47   23.50 
   2   3   6  263.87   19.60 
   2  -3  -6  298.77   18.40 
   2  -3  -6  245.28   23.10 
   2   3   6  276.67   18.10 
  -2   3  -6  286.37   20.30 
   2   3   6  298.07   28.30 
   2  -3  -6  266.47   21.30 
  -2  -3   6  263.87   20.10 
  -3  -3  -6 1508.45   92.89 
   3   3  -6 1515.75   89.19 
  -3   3   6 1536.25   94.29 
   3   3  -6 1421.66   90.69 
  -3   3   6 1578.14   90.49 
  -3  -3  -6 1608.94   91.39 
   3  -3   6 1468.15   89.79 
   3  -3   6 1429.76   98.29 
   3  -3   6 1458.75   97.59 
   3  -3   6 1451.35   88.49 
  -3  -3  -6 1418.46   89.89 
   3  -3   6 1521.35   92.69 
   3   3   6 1430.56   90.69 
   3   3   6 1554.24  107.79 
   3  -3  -6 1524.75  103.09 
   3  -3  -6 1561.24   90.89 
  -3  -3   6 1598.94   89.79 
  -3  -3   6 1370.06   91.19 
   3  -3  -6 1579.84   89.29 
  -3  -3   6 1497.75   91.89 
   3   3   6 1519.45   91.19 
   3   3   6 1524.45   89.19 
  -3   3  -6 1498.05   91.79 
  -4   3   6   57.79    9.10 
   4  -3   6   65.59   11.40 
   4  -3   6   68.99   11.40 
   4  -3   6   52.79    4.90 
   4   3  -6   63.89    7.00 
  -4  -3  -6   51.59    8.00 
  -4  -3  -6   60.09    6.70 
   4   3  -6   56.19    5.40 
  -4  -3  -6   71.79    7.00 
  -4  -3  -6  -26.10  128.09 
   4  -3  -6   60.49    7.00 
   4   3   6   55.89    5.40 
  -4  -3   6   65.79    7.50 
   4  -3  -6   56.99    5.50 
   4  -3  -6   47.70   11.60 
  -4  -3   6   53.39    7.30 
  -4  -3   6   56.09    7.70 
  -4  -3   6   56.19    5.30 
   5  -3   6  391.76   23.70 
   5  -3   6  401.96   25.40 
   5   3  -6  389.76   24.40 
  -5  -3  -6  415.66   26.00 
  -5  -3  -6  377.16   30.00 
   5   3  -6  411.26   26.50 
  -5   3   6  363.36   23.60 
   5  -3   6  336.77   38.60 
  -5   3   6  376.56   30.80 
  -5  -3  -6  412.56   26.20 
   5   3   6  361.76   24.20 
   5  -3  -6  375.96   26.10 
   5  -3  -6  322.87   35.50 
  -5  -3   6  338.27   26.90 
  -5   3  -6  377.56   26.00 
   5   3   6  368.36   26.30 
  -5  -3   6  307.57   27.30 
   5  -3  -6  399.16   24.40 
  -5  -3   6  376.06   28.50 
  -6  -3  -6   54.29    7.00 
  -6  -3  -6   38.80  185.28 
  -6   3   6   42.30    8.90 
   6   3  -6   43.70    6.40 
   6   3  -6   51.69    5.50 
   6  -3   6   45.90    5.70 
   6  -3   6   42.10    4.50 
  -6  -3  -6   44.30   10.30 
   6  -3  -6   51.49    6.80 
  -6  -3   6   45.50    7.30 
  -6  -3   6   45.00    8.10 
   6   3   6   58.29    5.30 
   6  -3  -6   57.49    5.30 
   6   3   6   57.99    7.20 
  -7  -3  -6  241.68   17.50 
   7  -3   6  206.18   14.40 
  -7   3   6  177.28   20.60 
   7   3  -6  222.88   17.10 
   7  -3   6  229.78   16.10 
   7   3  -6  207.68   15.30 
   7   3   6  220.28   15.00 
   7  -3  -6  222.58   16.70 
   7   3   6  222.68   17.10 
  -7  -3   6  197.68   17.10 
  -7  -3   6  205.38   19.30 
   7  -3  -6  212.38   15.00 
   8  -3   6   76.89    5.60 
   8   3  -6   61.79    5.90 
  -8   3   6   59.39    9.40 
  -8  -3  -6   -1.10  141.69 
   8  -3   6   74.59    8.70 
  -8  -3  -6   87.19    8.50 
   8   3   6   64.39    5.70 
   8  -3  -6   63.39    6.80 
  -8  -3   6   47.60    8.10 
  -8  -3   6   60.39    7.20 
   8  -3  -6   62.99    5.80 
   0  -4   6 2584.44  148.09 
   0  -4   6 2363.56  146.99 
   0   4   6 2400.26  148.49 
   0  -4  -6 2468.35  148.79 
   0  -4  -6 2435.16  148.79 
   0   4  -6 2447.56  149.29 
   0   4   6 2532.85  156.58 
   0  -4   6 2618.34  149.49 
   0  -4   6 2545.95  145.99 
   0   4  -6 2519.05  147.39 
   0  -4  -6 2612.34  147.19 
   0   4  -6 2597.54  149.79 
   0  -4   6 2718.73  155.78 
   0  -4  -6 2299.47  147.79 
   0   4   6 2511.05  146.49 
   0   4   6 2398.16  147.99 
   1  -4   6  278.97   20.20 
   1   4  -6  295.97   19.60 
  -1   4   6  269.67   20.50 
   1   4  -6  272.67   21.10 
  -1  -4  -6  292.87   21.00 
  -1  -4  -6  267.77   18.90 
  -1  -4  -6  302.47   32.60 
   1  -4   6  298.17   18.50 
   1  -4   6  261.97   26.40 
  -1   4   6  327.47   25.70 
   1   4  -6  302.27   21.70 
  -1  -4  -6  263.27   21.20 
   1  -4   6  279.37   19.50 
  -1  -4  -6  266.17   20.30 
   1  -4  -6  291.87   21.00 
   1  -4  -6  337.07   19.70 
   1   4   6  321.77   28.80 
  -1   4  -6  311.57   21.90 
  -1   4  -6  290.97   21.50 
  -1   4  -6  306.07   19.60 
   1   4   6  306.57   21.00 
   1   4   6  325.37   19.30 
  -1  -4   6  303.67   20.20 
   1   4   6  298.57   20.90 
  -1  -4   6  327.17   26.20 
  -1  -4   6  297.97   21.50 
   1  -4  -6  296.67   32.00 
   1  -4  -6  312.27   21.20 
  -2  -4  -6  824.32   48.50 
   2  -4   6  722.23   53.69 
   2   4  -6  794.92   46.60 
  -2  -4  -6  744.13   49.10 
  -2  -4  -6  758.42   46.60 
   2  -4   6  828.42   45.60 
  -2   4   6  748.13   47.70 
   2  -4   6  765.92   46.80 
   2   4  -6  759.22   48.30 
   2  -4   6  789.12   47.50 
   2  -4  -6  750.32   48.30 
   2   4   6  706.93   47.70 
   2   4   6  766.62   48.20 
  -2  -4   6  758.22   46.90 
   2   4   6  728.93   58.09 
  -2  -4   6  734.43   53.39 
   2  -4  -6  768.02   46.30 
   2  -4  -6  740.73   59.99 
   2  -4  -6  771.02   48.10 
   2   4   6  750.82   46.10 
  -2  -4   6  717.03   48.90 
  -2   4  -6  725.43   48.60 
   3  -4   6  548.15   35.90 
  -3   4   6  577.64   39.80 
  -3  -4  -6  529.95   35.20 
   3   4  -6  527.35   34.60 
   3  -4   6  537.05   33.70 
   3  -4   6  591.14   43.90 
   3   4  -6  528.65   36.40 
  -3   4   6  571.14   36.00 
  -3  -4  -6  566.24   36.60 
  -3  -4  -6  520.65   38.60 
   3  -4   6  561.04   35.20 
   3  -4  -6  554.74   36.40 
   3   4   6  534.75   36.30 
   3   4   6  655.43   62.09 
   3   4   6  579.84   34.70 
  -3   4  -6  497.75   36.70 
   3  -4  -6  550.94   48.50 
   3  -4  -6  577.64   34.70 
  -3  -4   6  554.04   36.50 
  -3  -4   6  585.64   35.10 
  -3  -4   6  530.65   37.90 
   3   4   6  563.34   36.80 
  -4   4   6  423.96   31.80 
  -4   4   6  408.76   26.40 
   4  -4   6  446.36   26.70 
   4   4  -6  442.96   28.10 
  -4  -4  -6  429.46   31.80 
  -4  -4  -6  438.96   27.10 
   4  -4   6  415.36   35.20 
  -4  -4  -6  100.79  191.58 
  -4  -4  -6  440.96   27.90 
   4   4  -6  455.95   26.00 
   4  -4   6  432.86   24.90 
   4  -4  -6  342.47   37.40 
   4   4   6  363.06   27.50 
  -4  -4   6  375.16   28.30 
   4  -4  -6  377.96   25.40 
  -4   4  -6  362.66   27.40 
   4   4   6  360.56   25.30 
  -4  -4   6  342.47   25.20 
   4  -4  -6  378.86   27.30 
  -4  -4   6  360.76   27.80 
  -4  -4   6  339.27   29.00 
   5  -4   6   49.10   10.40 
  -5   4   6   42.60    4.60 
  -5  -4  -6   38.70    8.90 
   5   4  -6   48.30    5.20 
  -5  -4  -6   49.10    6.60 
   5  -4   6   44.80    5.70 
  -5   4   6   47.90    8.90 
   5  -4   6   47.20    4.60 
  -5  -4  -6   51.39  117.19 
  -5  -4  -6   49.20    6.00 
   5   4  -6   59.19    7.30 
   5   4   6   56.69    5.50 
   5  -4  -6   59.39    5.50 
  -5  -4   6   35.70    8.30 
   5   4   6   47.60    7.00 
  -5  -4   6   43.00    5.30 
  -5  -4   6   43.00    7.00 
   5  -4  -6   54.49    7.10 
   5  -4  -6   42.90   14.00 
  -5   4  -6   49.90    6.30 
  -5  -4   6   44.70    7.40 
  -6   4   6  369.86   33.00 
   6  -4   6  434.66   27.80 
   6   4  -6  387.26   26.70 
  -6  -4  -6  442.06   28.70 
   6  -4   6  425.96   26.00 
   6  -4   6  374.36   35.80 
   6   4  -6  446.46   29.60 
  -6  -4  -6  332.57   32.60 
  -6  -4   6  392.96   30.30 
   6   4   6  431.46   26.80 
  -6   4  -6  379.86   25.90 
  -6  -4   6  389.46   29.70 
   6  -4  -6  442.76   26.90 
   6  -4  -6  443.66   29.10 
   6   4   6  431.46   29.40 
   7   4  -6   31.10    4.30 
   7   4  -6   40.20    6.10 
   7  -4   6   28.70    3.30 
  -7  -4  -6   34.80    5.50 
   7  -4   6   26.00    4.30 
  -7   4   6   22.20    7.30 
   7   4   6   25.50    5.30 
  -7  -4   6   17.20    5.20 
   7  -4  -6   27.70    5.10 
   7  -4  -6   26.20    3.70 
   7   4   6   24.20    3.50 
  -7  -4   6   31.10    6.30 
   8  -4   6    5.90    5.20 
  -8  -4  -6   66.39  153.78 
  -8  -4  -6   13.50    4.00 
   8   4  -6   11.00    2.70 
   8  -4   6   13.00    2.10 
   8  -4   6   11.70    2.80 
  -8   4   6    8.60    3.70 
   8   4  -6   11.90    3.40 
   8  -4  -6    9.00    2.80 
   8   4   6   13.80    3.20 
   8   4   6   11.50    2.10 
  -8  -4   6    7.30    3.10 
  -8  -4   6   12.50    3.80 
   8  -4  -6    8.50    2.50 
   0   5   6  157.68   18.20 
   0   5   6  159.88   12.50 
   0  -5   6  160.88   12.40 
   0  -5  -6  146.49   13.20 
   0  -5   6  145.29   10.20 
   0   5  -6  166.98   13.70 
   0   5   6  158.38   13.00 
   0  -5  -6  157.18   23.80 
   0   5  -6  159.38   11.80 
   0   5  -6  146.29   13.40 
   0  -5  -6  146.19   11.30 
   0  -5  -6  156.28   12.90 
   0  -5   6  166.38   13.70 
   0   5   6  157.48   10.90 
   0  -5   6  175.98   18.50 
   0  -5   6  149.39   12.00 
   0  -5  -6  154.18   13.20 
  -1   5   6 1071.39   64.29 
   1   5  -6  901.61   58.99 
   1   5  -6  992.30   59.49 
   1  -5   6  946.91   56.89 
  -1  -5  -6  898.31   74.29 
   1  -5   6  960.30   57.79 
   1  -5   6  966.40   60.59 
  -1  -5  -6  907.81   55.99 
   1  -5   6 1044.50   66.69 
  -1  -5  -6  930.51   59.99 
   1   5  -6  915.61   57.29 
  -1   5   6  954.30   59.69 
  -1  -5  -6  877.91   58.39 
   1  -5   6  999.30   55.59 
   1  -5  -6  850.81   73.19 
  -1   5  -6  892.91   60.79 
   1   5   6  926.51   56.29 
  -1   5  -6  919.11   56.49 
   1   5   6  915.01   58.49 
   1  -5  -6  774.12   60.79 
   1   5   6  941.61   58.39 
  -1  -5   6  938.41   65.39 
   1   5   6  940.91   68.69 
   1  -5  -6  935.81   58.69 
   1  -5  -6  889.21   58.29 
  -1  -5   6  930.91   57.99 
  -2  -5  -6  210.68   15.90 
  -2  -5  -6  225.78   17.90 
  -2  -5  -6  -38.30  137.69 
   2  -5   6  218.68   16.90 
   2  -5   6  202.68   22.20 
   2  -5   6  225.88   15.10 
  -2  -5  -6  213.38   28.80 
   2   5  -6  213.98   17.70 
  -2  -5  -6  222.48   19.50 
   2  -5   6  231.08   20.00 
   2   5  -6  221.88   16.20 
   2  -5   6  210.48   16.20 
  -2   5   6  221.18   17.50 
   2   5  -6  221.78   18.10 
  -2   5  -6  263.47   18.70 
  -2  -5   6  242.88   23.80 
  -2  -5   6  263.07   17.10 
   2  -5  -6  248.28   16.20 
   2  -5  -6  224.08   28.00 
   2   5   6  257.07   18.40 
  -2  -5   6  244.88   20.20 
   2   5   6  254.57   16.10 
   2   5   6  244.78   18.00 
   2   5   6  251.47   27.20 
   2  -5  -6  243.58   18.00 
   2  -5  -6  248.78   18.20 
   3  -5   6  825.42   49.00 
  -3  -5  -6  799.82   49.00 
  -3   5   6  870.21   54.39 
  -3  -5  -6  777.62   53.99 
   3  -5   6  860.11   58.99 
   3  -5   6  824.82   47.40 
   3   5  -6  823.72   51.19 
  -3   5   6  872.11   50.39 
  -3  -5  -6  881.51   51.29 
   3   5  -6  810.42   48.70 
   3  -5   6  827.32   49.99 
   3  -5  -6  654.93   62.19 
   3   5   6  729.83   50.19 
   3   5   6  756.92   48.10 
   3  -5  -6  763.22   50.19 
   3   5   6  728.03   50.39 
  -3  -5   6  655.83   52.49 
  -3   5  -6  761.12   50.49 
   3  -5  -6  747.23   48.10 
  -3  -5   6  750.32   48.70 
  -4   5   6  249.97   22.50 
   4  -5   6  241.08   16.30 
   4  -5   6  258.27   31.90 
  -4  -5  -6  264.37   19.40 
  -4  -5  -6  251.27   18.20 
   4   5  -6  244.68   17.40 
  -4  -5  -6  225.08   22.50 
   4  -5   6  256.87   18.00 
  -4  -5  -6   73.59  200.58 
   4   5  -6  247.18   19.70 
  -4   5   6  250.97   18.20 
   4   5   6  266.97   17.40 
   4  -5  -6  245.88   17.20 
  -4   5  -6  258.67   19.50 
  -4  -5   6  266.97   20.50 
   4   5   6  270.37   20.00 
  -4  -5   6  246.08   17.10 
  -4  -5   6  223.48   22.00 
   4  -5  -6  221.98   29.40 
   4  -5  -6  255.67   19.40 
  -4  -5   6  225.78   18.40 
  -5  -5  -6   62.09   12.40 
   5  -5   6   79.99    7.70 
  -5  -5  -6   63.69   11.50 
  -5  -5  -6   73.99    8.10 
   5   5  -6   72.29    7.90 
  -5   5   6   65.29   10.60 
   5  -5   6   74.39   13.00 
   5  -5   6   80.79    6.30 
   5   5  -6   83.59    9.30 
  -5  -5   6   68.69    9.40 
   5  -5  -6   75.89    8.90 
   5  -5  -6   70.69    7.00 
   5   5   6   73.19    8.80 
   5  -5  -6   53.49   16.10 
   5   5   6   73.39    6.80 
  -5   5  -6   69.39    8.10 
  -5  -5   6   67.19    9.40 
  -5  -5   6   57.39    5.40 
   6  -5   6   22.70    4.00 
   6  -5   6   12.20    5.60 
   6   5  -6   16.90    3.50 
   6  -5   6   21.80    2.90 
  -6  -5  -6  -68.19   78.29 
   6   5  -6   26.30    5.70 
  -6   5   6   18.80    6.60 
   6  -5   6   21.00   11.40 
  -6  -5  -6   21.20    4.80 
   6   5   6   23.10    5.10 
  -6  -5   6   16.50    4.90 
   6  -5  -6   17.60    3.40 
  -6  -5   6   12.10    4.30 
   6  -5  -6   21.00    4.90 
  -6   5  -6   11.10    2.90 
   6   5   6   19.00    3.60 
  -7  -5  -6   50.69  172.58 
  -7  -5  -6   49.70    6.60 
   7   5  -6   40.90    4.90 
   7  -5   6   41.30    8.40 
   7  -5   6   44.80    5.50 
   7  -5   6   41.60    5.20 
  -7   5   6   24.40    8.70 
   7   5  -6   33.40    6.60 
   7  -5  -6   38.70    4.60 
  -7  -5   6   43.00    9.70 
   7  -5  -6   44.30    6.10 
   7   5   6   46.50    6.40 
  -7  -5   6   29.90    5.80 
   7   5   6   36.20    5.50 
   0   6  -6  143.89   13.20 
   0  -6  -6  155.98   10.70 
   0  -6  -6  132.19   13.60 
   0   6   6  134.49   11.60 
   0  -6  -6  141.69   12.20 
   0   6   6  134.49   12.40 
   0   6  -6  149.09   11.10 
   0  -6   6  142.09   13.30 
   0  -6   6  145.19   11.70 
   0  -6   6  137.89   17.50 
   0   6   6  141.49   18.60 
   0  -6  -6  148.39   23.40 
   0   6   6  133.19   10.30 
   0  -6   6  124.09   11.70 
   0   6  -6  144.09   12.80 
   0  -6  -6  139.89   12.80 
   1  -6   6  180.88   17.00 
  -1  -6  -6  163.78   17.20 
   1   6  -6  180.98   14.20 
   1  -6   6  189.28   21.20 
  -1   6   6  177.78   15.50 
   1   6  -6  191.18   16.40 
   1  -6   6  178.98   14.80 
  -1  -6  -6  189.48   15.90 
  -1  -6  -6  180.08   25.60 
   1  -6   6  180.88   12.80 
   1   6  -6  185.38   16.00 
   1   6   6  210.08   15.90 
   1  -6  -6  206.98   14.10 
   1  -6  -6  210.78   16.70 
  -1  -6   6  207.68   22.00 
  -1   6  -6  195.78   17.00 
   1   6   6  206.38   13.80 
  -1   6  -6  200.18   13.80 
   1   6   6  206.98   24.00 
  -1  -6   6  214.38   15.20 
   1   6   6  206.48   16.20 
  -1   6  -6  207.58   16.30 
   1  -6  -6  203.78   16.00 
   1  -6  -6  203.48   27.60 
   2  -6   6   57.89    9.00 
   2  -6   6   67.69    6.80 
   2  -6   6   65.99   11.40 
   2   6  -6   60.89    8.20 
  -2  -6  -6   62.69    7.70 
  -2  -6  -6  -25.30  159.18 
   2   6  -6   62.79    8.10 
   2   6  -6   52.99    6.20 
   2  -6   6   60.89    6.90 
  -2  -6  -6   70.59    6.20 
  -2  -6  -6   59.29   14.30 
  -2   6   6   60.29    7.40 
  -2  -6  -6   45.90    9.00 
   2  -6   6   61.79    5.30 
   2  -6  -6   59.29   14.20 
   2   6   6   60.09    5.90 
  -2   6  -6   60.09    7.80 
   2   6   6   73.89    8.10 
  -2  -6   6   47.20    9.60 
   2   6   6   72.49    8.00 
   2  -6  -6   62.99    7.80 
   2  -6  -6   62.49    6.10 
  -2  -6   6   65.09    6.90 
   2  -6  -6   72.49    8.00 
  -3   6   6  534.55   35.20 
   3   6  -6  522.15   36.20 
   3   6  -6  526.65   33.60 
  -3  -6  -6  490.35   39.20 
   3  -6   6  559.94   34.90 
   3  -6   6  530.85   32.20 
  -3  -6  -6  536.85   33.50 
   3  -6   6  590.94   56.19 
  -3   6   6  578.74   38.90 
   3  -6   6  537.55   33.90 
   3  -6   6  517.15   38.90 
  -3  -6  -6  543.35   36.00 
   3  -6  -6  539.55   33.30 
   3  -6  -6  517.95   35.30 
  -3  -6   6  451.25   38.60 
  -3  -6   6  535.95   36.00 
   3   6   6  530.95   33.10 
  -3  -6   6  510.75   33.70 
   3   6   6  496.55   35.50 
   3   6   6  484.45   35.50 
  -3   6  -6  525.05   35.80 
   3  -6  -6  477.05   35.40 
   3  -6  -6  415.26   57.99 
   4   6  -6   25.00    5.90 
  -4   6   6   23.40    6.50 
   4  -6   6   21.60    4.00 
  -4  -6  -6   26.40    4.50 
  -4  -6  -6   28.30    8.30 
   4  -6   6   14.60    5.70 
  -4  -6  -6   25.90    5.30 
   4   6  -6   27.80    4.10 
   4  -6   6   23.00    4.20 
  -4  -6  -6    2.50   59.99 
   4  -6   6   21.20    6.70 
   4  -6   6   29.10    4.50 
  -4   6   6   25.20    4.30 
  -4  -6   6   26.80    7.80 
  -4   6  -6   32.80    6.20 
   4  -6  -6   15.80    9.10 
   4   6   6   29.60    4.50 
  -4  -6   6   23.00    8.20 
   4   6   6   31.70    5.70 
  -4  -6   6   26.50    3.70 
   4  -6  -6   31.70    5.90 
   4  -6  -6   27.00    4.80 
  -5   6   6   26.70    7.10 
   5  -6   6   32.80    3.70 
  -5  -6  -6   32.30    4.90 
   5   6  -6   31.30    4.40 
   5   6  -6   40.60    7.00 
   5  -6   6   15.90    7.30 
  -5  -6  -6   22.40  115.19 
  -5  -6  -6   35.70    5.20 
   5  -6   6   20.10    6.50 
   5  -6   6   33.50    4.80 
   5   6   6   32.80    6.10 
   5  -6  -6   20.10   16.20 
   5   6   6   26.90    4.00 
   5  -6  -6   34.50    6.20 
  -5   6  -6   34.30    5.10 
  -5  -6   6   23.90    6.10 
   5  -6  -6   18.80    3.80 
   6   6  -6  103.49    9.30 
   6   6  -6  113.69   11.50 
   6  -6   6   98.99   13.70 
  -6  -6  -6  107.09    9.90 
  -6   6   6   88.09   12.10 
   6  -6   6  106.09    8.10 
  -6  -6  -6  -14.80   83.89 
   6  -6   6  119.89    9.90 
  -6  -6   6   82.19    9.90 
   6  -6  -6  114.29   11.10 
   6  -6  -6  109.19    9.10 
   6   6   6  110.39   11.30 
   6   6   6  110.49    9.00 
  -6  -6   6  112.49   11.80 
  -6   6  -6   84.69    9.30 
   7   6  -6    8.10    4.70 
   7   6  -6    2.20    1.70 
  -7   6   6    3.40    2.80 
   7  -6   6    0.60    1.10 
  -7  -6  -6    5.40    2.50 
  -7  -6  -6    6.30  145.29 
   7   6   6    3.30    1.80 
   7  -6  -6    3.50    1.70 
   7   6   6    5.10    3.10 
  -7  -6   6    4.70    3.00 
   0  -7  -6  120.39   21.60 
   0  -7  -6  127.59    9.60 
   0   7   6  116.89   13.30 
   0  -7   6  106.89   16.70 
   0  -7  -6  107.49   11.20 
   0   7  -6  126.89   10.00 
   0  -7   6  124.89   12.90 
   0   7  -6  109.59   14.60 
   0  -7   6  129.49   11.00 
   0   7  -6  126.59   12.00 
   0   7   6  114.19   11.70 
   0  -7  -6  130.49   14.10 
   0   7   6  132.79    9.10 
   0  -7  -6  127.49   12.40 
   1  -7   6  544.95   33.80 
   1   7  -6  509.65   35.20 
  -1  -7  -6  434.96   37.00 
   1  -7   6  473.65   36.10 
   1  -7   6  550.94   34.20 
   1  -7   6  432.46   39.20 
  -1  -7  -6  503.05   49.80 
  -1  -7  -6  509.05   35.00 
   1   7  -6  513.35   32.50 
  -1   7   6  499.35   34.50 
   1  -7   6  503.95   30.70 
   1   7  -6  488.75   34.70 
   1  -7   6  509.15   44.80 
   1  -7  -6  522.75   34.20 
   1   7   6  521.85   34.80 
   1   7   6  507.95   33.80 
   1  -7  -6  498.55   31.80 
  -1   7  -6  517.25   34.90 
  -1  -7   6  540.55   33.50 
   1  -7  -6  521.05   35.10 
  -1  -7   6  448.16   41.60 
   1   7   6  520.05   31.60 
   1  -7  -6  446.66   51.69 
  -1   7  -6  466.05   31.20 
  -2   7   6   77.29    8.50 
   2   7  -6   71.79    6.90 
  -2  -7  -6   -7.10  129.09 
  -2  -7  -6   75.19    8.90 
   2  -7   6   65.19   12.80 
   2  -7   6   81.99    7.90 
   2   7  -6   73.99    9.20 
   2   7  -6   69.29    8.20 
  -2  -7  -6   58.09   18.80 
  -2  -7  -6   48.50   11.00 
   2  -7   6   76.89    7.20 
   2  -7   6   77.09   10.10 
   2  -7   6   78.59    5.80 
   2   7   6   59.59    7.80 
   2  -7  -6   51.79   16.20 
  -2  -7   6   59.09    6.80 
  -2  -7   6   50.19   10.70 
   2  -7  -6   54.09    7.90 
   2   7   6   51.09    7.50 
   2   7   6   56.39    6.10 
   2  -7  -6   61.79    8.10 
   2  -7  -6   63.79    6.40 
  -2   7  -6   50.49    7.50 
  -3  -7  -6   38.80    9.50 
   3   7  -6   63.89    9.00 
   3  -7   6   49.50    6.70 
   3  -7   6   56.99    9.40 
   3   7  -6   61.09    8.60 
  -3  -7  -6   17.90  156.98 
  -3   7   6   70.19    9.20 
  -3  -7  -6   67.99    6.30 
   3  -7   6   62.89   11.70 
  -3  -7   6   56.49    9.20 
   3  -7  -6   40.10   15.80 
   3  -7  -6   52.39    8.10 
   3   7   6   50.49    7.70 
  -3  -7   6   40.90   10.30 
   3  -7  -6   76.09    8.30 
   3   7   6   62.39    7.80 
  -3   7  -6   54.29   11.00 
   3  -7  -6   42.60    8.70 
   3   7   6   66.99    8.10 
   4  -7   6   23.20    4.60 
  -4   7   6   12.80    4.40 
  -4   7   6   17.80    4.10 
  -4  -7  -6   22.20    4.30 
   4  -7   6   16.20    5.40 
   4   7  -6   11.90    3.00 
   4  -7   6   21.20    3.00 
  -4  -7  -6   13.90    8.10 
  -4  -7  -6  119.69  255.17 
   4   7  -6   17.20    5.30 
  -4  -7  -6   17.90    4.30 
   4  -7   6   20.10    6.30 
   4   7   6   29.00    5.40 
   4  -7  -6   18.90    4.70 
   4   7   6   23.30    3.60 
  -4   7  -6   25.00    5.10 
   4  -7  -6   13.00    8.90 
   4  -7  -6   24.80    3.90 
  -4  -7   6   18.80    3.20 
  -4  -7   6   23.50    5.70 
  -5  -7  -6   15.40  152.78 
   5   7  -6   22.30    3.90 
   5  -7   6   30.90    9.00 
   5   7  -6   20.60    5.30 
  -5  -7  -6   16.40    3.90 
  -5  -7  -6   21.40    4.10 
  -5   7   6   14.80    5.50 
  -5  -7   6   25.60    6.30 
   5   7   6   19.40    3.50 
  -5   7  -6   16.60    4.20 
   5   7   6   21.60    4.90 
   5  -7  -6   23.80    5.20 
   5  -7  -6   18.60    3.60 
  -6  -7  -6   51.89  154.88 
   6  -7   6   15.90    5.90 
   6  -7   6   21.90    4.10 
   6   7  -6   35.50    6.60 
  -6   7   6   22.40    5.50 
   6   7  -6   25.50    4.00 
  -6  -7  -6   24.60    4.40 
   6   7   6   37.60    5.70 
   6  -7  -6   37.00    6.20 
   6  -7  -6   23.80    5.20 
   6   7   6   24.60    4.80 
   0  -8  -6  192.38   21.10 
   0   8  -6  254.07   19.40 
   0  -8  -6  216.28   31.20 
   0  -8   6  212.58   25.60 
   0   8  -6  231.98   16.00 
   0  -8  -6  221.58   15.30 
   0  -8  -6  212.28   20.50 
   0   8  -6  255.17   19.20 
   0  -8   6  187.18   20.90 
   0   8   6  246.58   23.70 
   0   8   6  245.18   16.40 
   1  -8   6   23.90    7.50 
  -1  -8  -6   19.80   11.20 
   1  -8   6   21.00    7.00 
   1  -8   6   28.30    7.10 
   1   8  -6   39.90    7.20 
  -1  -8  -6   35.70  249.48 
  -1   8   6   35.10    5.90 
  -1  -8  -6   26.40    5.80 
   1  -8   6   27.60    3.20 
   1   8  -6   24.50    5.70 
   1  -8   6   25.80    6.60 
   1   8  -6   26.30    5.50 
  -1   8  -6   25.00    5.70 
  -1  -8   6   37.60    5.20 
   1   8   6   25.90    4.10 
   1  -8  -6   24.10    5.00 
   1  -8  -6   29.70    8.40 
   1  -8  -6   17.90    4.10 
   1   8   6   39.00    5.80 
   1  -8  -6   25.50   11.00 
  -1  -8   6   22.50    7.80 
   2   8  -6  339.97   25.40 
   2  -8   6  343.47   22.50 
  -2  -8  -6  261.17   27.50 
   2  -8   6  299.07   26.40 
   2   8  -6  310.37   24.30 
  -2  -8  -6  343.27   25.30 
   2  -8   6  318.47   32.20 
  -2   8   6  367.76   26.20 
   2  -8   6  300.97   39.20 
   2  -8   6  343.27   23.70 
  -2   8   6  359.06   25.00 
   2   8  -6  305.87   22.20 
  -2  -8  -6   36.70  192.38 
   2  -8  -6  306.97   21.70 
  -2  -8   6  328.47   23.10 
   2   8   6  330.27   21.50 
  -2   8  -6  325.67   24.60 
  -2  -8   6  369.16   25.00 
   2   8   6  341.77   25.10 
  -2  -8   6  278.37   27.90 
   2  -8  -6  357.66   24.40 
   2   8   6  341.77   24.00 
   2  -8  -6  256.67   35.70 
   2  -8  -6  299.47   24.60 
  -3   8   6   43.30    6.30 
   3  -8   6   46.40    6.00 
   3  -8   6   43.80    4.40 
  -3  -8  -6  -57.69  165.78 
  -3   8   6   42.20    7.30 
   3  -8   6   46.60    5.70 
  -3  -8  -6   32.00    6.60 
   3  -8   6   33.20    7.70 
   3   8  -6   44.20    7.60 
   3   8  -6   38.50    5.30 
  -3   8  -6   47.90    6.80 
   3  -8  -6   49.60    5.40 
  -3  -8   6   47.20    5.80 
   3   8   6   44.40    7.00 
   3   8   6   47.80    7.10 
  -3  -8   6   58.29    7.80 
   3  -8  -6   35.00   16.80 
   3  -8  -6   48.60    7.20 
   3  -8  -6   40.20    7.70 
   3   8   6   48.00    5.20 
   4   8  -6   74.89    7.70 
  -4  -8  -6   82.89    7.40 
  -4   8   6   66.59    9.30 
   4   8  -6   89.79   10.50 
   4  -8   6   61.09    8.30 
  -4   8   6   78.59    8.30 
   4  -8   6   73.89    6.40 
  -4  -8  -6  -20.30  122.69 
   4  -8   6   62.99   13.00 
  -4  -8  -6   70.69    8.40 
   4  -8   6   89.79    8.30 
  -4   8  -6   71.89    8.40 
   4  -8  -6   83.79    9.20 
  -4  -8   6   90.19   10.20 
  -4  -8   6   76.49    7.20 
   4  -8  -6   65.49    6.90 
   4   8   6   81.39    7.10 
   4   8   6   82.69    9.20 
   5   8  -6   60.69    8.80 
  -5   8   6   50.09    7.60 
   5  -8   6   60.99    5.60 
   5   8  -6   69.69    6.80 
   5  -8   6   42.80    8.50 
  -5  -8  -6   65.89  236.08 
   5  -8   6   71.59    7.00 
  -5  -8  -6   55.59    6.40 
  -5  -8  -6   64.39    6.20 
   5  -8  -6   66.79    8.30 
  -5  -8   6   69.29    8.70 
   5   8   6   65.59    7.80 
   5   8   6   63.49    6.10 
   6  -8   6   57.59    5.30 
  -6  -8  -6   63.49    6.10 
   6  -8   6   66.29    7.00 
   6   8  -6   63.79    8.60 
   6   8  -6   65.99    6.40 
  -6  -8  -6   75.99  157.78 
  -6  -8   6   73.09    8.70 
   6   8   6   65.09    6.00 
   6  -8  -6   57.09    6.10 
   6  -8  -6   73.09    8.30 
   6   8   6   67.39    7.70 
   0  -9   6    6.20    2.90 
   0   9  -6    6.70    3.00 
   0  -9  -6    5.80    3.10 
   0   9   6    6.30    2.80 
   0  -9  -6    9.20   10.90 
   0   9  -6    6.20    2.00 
  -1  -9  -6  102.89   10.60 
  -1  -9  -6   12.50  180.18 
  -1  -9  -6   74.49   20.50 
   1   9  -6  104.69   11.30 
   1  -9   6   95.89    9.40 
   1   9  -6   89.19    7.80 
   1  -9   6   77.39   11.50 
   1   9  -6   97.19   10.20 
  -1   9   6   96.19   10.10 
  -1   9  -6   79.29    9.50 
  -1  -9   6   52.69   14.30 
   1   9   6   79.79    6.60 
  -1  -9   6   97.69    9.80 
   1  -9  -6   73.69    9.70 
   1  -9  -6   69.19    6.80 
  -1  -9   6   87.69    9.00 
   1   9   6   90.29    9.70 
   1  -9  -6   64.69   11.90 
  -2   9   6   13.90    4.20 
   2   9  -6   10.30    2.90 
   2   9  -6   21.10    4.50 
  -2  -9  -6   11.60    4.70 
   2  -9   6   17.70    4.10 
  -2  -9  -6   14.70  123.59 
   2  -9   6    6.00    4.20 
   2  -9   6    6.60    2.00 
   2   9  -6   12.50    4.60 
  -2   9   6   10.70    3.70 
   2  -9   6   13.80    3.90 
   2  -9  -6   19.70    4.30 
  -2   9  -6   21.60    5.20 
  -2  -9   6   19.40    5.20 
   2  -9  -6    9.40    2.60 
   2   9   6   14.40    4.40 
   2   9   6   20.00    2.80 
   2   9   6   17.30    4.10 
  -2  -9   6   14.20    3.60 
   2  -9  -6   14.80    5.00 
   3   9  -6  225.98   15.60 
   3  -9   6  227.18   15.90 
  -3   9   6  191.28   17.10 
   3  -9   6  178.58   19.30 
  -3   9   6  239.28   17.70 
   3   9  -6  234.88   18.50 
  -3  -9  -6  219.98   17.70 
   3  -9   6  193.68   14.00 
   3  -9   6  195.88   16.50 
  -3  -9  -6   60.99  192.18 
  -3  -9   6  219.28   17.70 
  -3  -9   6  217.28   15.90 
  -3   9  -6  219.88   17.30 
   3   9   6  204.28   18.00 
   3   9   6  196.48   14.50 
   3   9   6  214.38   16.70 
   3  -9  -6  175.08   14.60 
   3  -9  -6  229.78   17.40 
   3  -9  -6  236.38   19.40 
  -4   9   6   58.79    7.30 
   4  -9   6   49.70    5.70 
   4   9  -6   72.09    8.70 
   4  -9   6   38.90    8.30 
  -4  -9  -6   18.70  163.78 
  -4  -9  -6   48.40    7.40 
   4  -9   6   71.59    6.80 
   4   9  -6   70.19    6.80 
   4  -9   6   47.60    6.70 
  -4   9   6   49.20    6.90 
   4   9   6   69.39    7.50 
   4   9   6   54.99    6.30 
  -4   9  -6   55.29    8.10 
   4  -9  -6   55.49    6.50 
  -4  -9   6   50.69    5.50 
  -5  -9  -6  -24.70   91.69 
   5   9  -6   35.00    5.90 
  -5  -9  -6   20.30    3.70 
   5  -9   6    8.10    5.20 
   5  -9   6   19.50    2.80 
   5  -9   6   26.90    4.30 
   5   9  -6   23.20    3.90 
   5   9   6   21.20    3.10 
   5  -9  -6   14.50    3.00 
   5  -9  -6   18.60    4.40 
   5   9   6   21.10    4.30 
  -5  -9   6   18.10    4.70 
  -5   9  -6   18.60    3.20 
   0 -10  -6  176.88   15.60 
   0  10   6  187.88   15.50 
   0 -10   6  173.78   14.30 
   0 -10  -6    9.10  208.08 
   0  10  -6  177.18   15.00 
   0 -10   6  160.38   15.40 
   1  10  -6   11.30    4.00 
  -1 -10  -6   11.90    4.30 
   1 -10   6   13.10    3.70 
   1 -10   6   17.80    5.80 
  -1  10   6   15.20    3.90 
  -1 -10  -6   10.70  112.49 
   1  10  -6    9.90    2.60 
  -1  10   6    9.90    3.10 
  -1 -10   6   13.00    4.00 
  -1 -10   6    7.70    3.20 
   1 -10  -6   12.90    3.90 
   1  10   6   16.00    3.80 
  -1  10  -6   11.60    3.90 
   2 -10   6   88.29    7.40 
  -2  10   6   81.89    8.60 
   2  10  -6   62.79    8.10 
  -2 -10  -6   80.89    9.10 
   2  10  -6   69.09   11.40 
  -2 -10  -6   -1.00  180.78 
  -2  10   6   67.69    7.80 
   2  10  -6   70.19    7.00 
   2 -10   6   67.79    7.80 
  -2 -10   6   77.09    7.70 
   2  10   6   70.79    5.60 
   2 -10  -6   58.19    5.90 
   2 -10  -6   62.69    8.70 
  -2  10  -6   79.99    8.50 
   2  10   6   66.89    8.00 
  -3  10   6   14.40    3.30 
   3  10  -6   10.90    4.70 
   3  10  -6    9.30    2.40 
   3 -10   6    9.00    3.20 
  -3 -10  -6    4.00  126.99 
  -3 -10  -6    6.40    2.90 
   3 -10   6    5.80    4.40 
   3 -10   6    5.20    1.90 
   3 -10  -6    8.80    4.10 
  -3 -10   6    8.40    2.60 
   3  10   6    7.50    3.50 
   3 -10  -6    4.30    1.90 
  -3 -10   6   12.00    3.80 
   3  10   6    9.70    2.00 
   3 -10  -6   11.20    3.80 
  -3  10  -6    5.30    2.40 
   3  10   6   10.20    3.20 
   4 -10   6  157.48   13.80 
  -4 -10  -6    0.80   81.59 
   4  10  -6  147.69   10.90 
   4  10  -6  161.98   13.20 
  -4 -10  -6  129.09   11.30 
  -4  10   6  147.49   11.10 
   4 -10   6  117.49   12.00 
   4 -10   6  134.39    9.60 
  -4 -10   6  121.89   10.10 
   4 -10  -6  132.69   10.30 
   4 -10  -6  166.08   12.60 
  -4 -10   6  167.58   12.90 
   4  10   6  144.79   10.00 
   4  10   6  149.09   11.70 
  -4  10  -6  129.89   11.30 
   0 -11   6   86.09    8.70 
   0 -11   6   93.49    8.30 
   0  11  -6   98.59    9.30 
   0 -11  -6   89.59    9.60 
   0  11   6   90.49    9.20 
   0 -11  -6  -27.40  111.49 
   1 -11   6   69.29    6.70 
  -1 -11  -6   55.09    7.40 
   1  11  -6   62.79    7.20 
   1 -11   6   60.89    6.90 
  -1  11   6   65.09    7.40 
  -1 -11   6   82.59    7.20 
  -1 -11   6   55.19    6.80 
   1 -11  -6   19.60  119.49 
  -1  11  -6   72.69    7.60 
   1 -11  -6   51.19    7.40 
   1  11   6   68.39    7.50 
  -2 -11  -6  -38.90  108.59 
   2  11  -6   14.00    3.60 
  -2  11   6   13.10    3.10 
  -2 -11  -6    8.10    2.70 
   2  11  -6   12.20    2.30 
   2 -11   6   14.50    3.50 
  -2  11  -6    6.50    3.00 
  -2 -11   6   10.30    2.80 
   2 -11  -6    8.50    3.10 
   2  11   6    6.80    2.50 
  -2 -11   6   17.10    3.60 
   0   0   7    1.10    0.90 
   0   0  -7    0.90    1.60 
   0   0   7    1.30    2.40 
   0   0   7   -0.20    1.60 
   0   0   7   -0.60    0.90 
   0   0  -7    0.40    1.00 
   0   0   7    2.40    1.40 
   1   0   7  319.77   25.30 
   1   0  -7  298.37   19.00 
   1   0   7  277.37   19.80 
  -1   0  -7  283.97   20.20 
  -1   0   7  290.27   19.80 
   1   0   7  303.07   27.10 
  -1   0  -7  281.27   20.30 
   1   0   7  291.97   18.30 
  -1   0   7  311.87   21.30 
   1   0  -7  273.37   20.20 
  -1   0  -7  287.47   19.10 
   1   0   7  276.17   19.40 
   1   0  -7  278.47   20.20 
  -2   0   7  207.68   16.50 
  -2   0   7  210.18   14.60 
  -2   0  -7  210.78   15.50 
   2   0  -7  176.78   19.70 
   2   0   7  201.98   14.80 
   2   0  -7  215.48   13.90 
   2   0   7  186.98   14.40 
   2   0  -7  189.28   15.00 
   2   0   7  199.18   21.30 
   2   0   7  209.08   13.30 
   2   0  -7  189.28   15.40 
   2   0   7  204.08   20.60 
   3   0  -7  336.87   29.80 
   3   0  -7  342.37   24.40 
   3   0   7  340.97   24.20 
   3   0   7  353.26   32.40 
   3   0   7  330.87   31.50 
  -3   0   7  391.36   24.00 
   3   0  -7  387.66   23.20 
  -3   0   7  361.96   26.70 
   3   0   7  365.66   24.20 
  -4   0   7  539.45   38.50 
  -4   0   7  570.64   33.90 
   4   0   7  560.14   35.00 
   4   0   7  528.95   44.80 
   4   0  -7  584.34   33.60 
  -4   0  -7  569.14   35.90 
   4   0   7  519.85   33.00 
   4   0  -7  488.55   39.90 
  -4   0   7  458.35   33.90 
   5   0   7  107.29    7.70 
   5   0  -7   96.59    9.30 
  -5   0  -7   -5.50   98.19 
  -5   0  -7   78.59    8.90 
  -5   0   7   74.79   11.50 
   5   0  -7   97.99    7.70 
   5   0   7  103.29    9.30 
   5   0   7   97.89   15.80 
  -5   0   7   81.69    6.60 
   6   0  -7    5.40    1.80 
   6   0  -7    5.70    2.90 
   6   0   7    3.50    1.50 
   6   0   7   -1.20    3.60 
  -6   0  -7   65.49  207.98 
   6   0   7    5.50    2.50 
  -6   0   7    5.20    3.70 
  -6   0  -7    6.20    2.30 
   7   0  -7   28.80    4.90 
   7   0   7   25.80    4.40 
  -7   0   7   12.10    4.90 
   7   0   7   23.70    3.00 
  -7   0  -7   64.09  158.18 
   7   0  -7   19.90    3.50 
   8   0  -7  118.49    9.40 
   8   0  -7  120.49   10.60 
  -8   0   7  118.39   14.00 
   8   0   7  131.49    9.10 
   8   0   7  142.89   11.30 
   0  -1  -7 1604.64   91.19 
   0   1  -7 1443.16   92.59 
   0  -1  -7 1477.25   92.59 
   0   1   7 1395.06   91.09 
   0   1   7 1588.84   96.19 
   0  -1  -7 1468.65   92.59 
   0  -1   7 1553.24   90.39 
   0   1   7 1723.73  101.49 
   0   1  -7 1487.85   92.69 
   0  -1   7 1425.66   90.99 
   0  -1   7 1522.05   92.09 
   0  -1   7 1690.73   96.79 
   0   1  -7 1535.65   91.19 
   0   1   7 1507.95   90.39 
   0  -1   7 1641.64  101.09 
  -1   1   7 1796.42  106.39 
  -1  -1  -7 1617.24   98.59 
  -1   1   7 1591.04   97.89 
   1  -1   7 1766.42  104.59 
  -1  -1  -7 1798.02   97.79 
   1  -1   7 1633.34   98.09 
   1   1  -7 1505.85   99.29 
  -1   1   7 1797.92   98.89 
   1   1  -7 1583.24   98.49 
   1  -1   7 1765.02  107.39 
   1  -1   7 1588.54   97.39 
  -1  -1  -7 1550.44   98.29 
   1   1  -7 1732.43   97.19 
  -1  -1   7 1734.73  100.89 
  -1  -1   7 1600.54   97.89 
   1  -1  -7 1678.93   97.09 
   1   1   7 1653.53   96.29 
   1   1   7 1693.83  104.59 
   1   1   7 1506.85   97.89 
   1  -1  -7 1494.15  107.99 
   1  -1  -7 1533.95   98.29 
   1   1   7 1708.03  107.59 
  -1  -1   7 1650.33  100.39 
  -1   1  -7 1649.63   97.39 
  -1   1  -7 1485.55   98.39 
  -1   1  -7 1600.74   98.69 
   1   1   7 1495.65   97.49 
  -2   1   7  339.37   24.10 
   2   1  -7  310.87   20.60 
  -2  -1  -7  296.47   22.10 
   2  -1   7  316.27   28.80 
   2  -1   7  300.87   21.20 
   2  -1   7  300.57   19.90 
  -2   1   7  295.27   21.40 
   2  -1   7  308.87   28.60 
   2   1  -7  296.47   22.20 
   2  -1   7  323.17   21.80 
   2   1  -7  281.87   21.70 
   2   1   7  331.97   20.30 
  -2   1  -7  341.37   22.80 
   2   1   7  320.67   21.80 
  -2  -1   7  316.47   23.00 
   2  -1  -7  349.47   20.90 
   2   1   7  316.27   28.20 
   2  -1  -7  317.57   22.40 
   2  -1  -7  320.97   22.10 
  -2  -1   7  344.57   21.70 
   2  -1  -7  313.37   29.50 
   2   1   7  330.27   22.00 
   2   1   7  345.87   30.20 
  -3  -1  -7   13.00    3.50 
   3  -1   7   16.00    2.90 
   3  -1   7   15.70    2.30 
   3  -1   7   11.50    5.80 
   3   1  -7   10.80    2.10 
   3  -1   7   12.00    2.80 
  -3   1   7   12.00    5.10 
   3   1  -7    8.90    2.80 
  -3   1   7    7.20    2.50 
   3  -1   7    7.30    3.80 
  -3  -1   7   14.40    3.00 
   3   1   7   19.10    7.50 
   3  -1  -7   16.00    2.80 
   3   1   7    8.50    4.60 
  -3   1  -7   14.40    3.50 
   3   1   7   10.40    2.80 
   3  -1  -7   12.00    6.50 
   3   1   7   11.20    2.20 
   3   1   7   10.10    2.90 
  -3  -1   7   11.50    4.10 
   3  -1  -7    9.20    2.80 
  -4  -1  -7  752.62   47.00 
  -4   1   7  738.23   45.90 
   4  -1   7  747.93   46.80 
  -4   1   7  774.22   51.39 
   4   1  -7  810.32   45.80 
   4  -1   7  763.52   45.10 
   4   1  -7  765.02   48.90 
  -4  -1  -7  835.22   48.30 
   4  -1   7  771.32   57.59 
   4   1   7  714.73   47.00 
   4   1   7  692.83   57.39 
  -4   1  -7  795.32   48.30 
  -4  -1   7  713.73   50.09 
   4  -1  -7  764.62   47.90 
   4  -1  -7  637.64   54.29 
  -4  -1   7  687.13   51.99 
   4  -1  -7  729.53   45.50 
   4   1   7  710.63   45.10 
  -4  -1   7  721.53   45.70 
  -5  -1  -7  256.67   18.70 
  -5   1   7  222.18   15.80 
   5  -1   7  251.97   16.50 
   5  -1   7  250.07   27.70 
  -5  -1  -7  261.97   18.80 
  -5   1   7  266.27   23.30 
   5   1  -7  270.27   19.00 
   5   1  -7  268.77   17.20 
   5  -1   7  258.47   18.30 
   5  -1  -7  256.57   18.90 
  -5   1  -7  -16.00  130.99 
  -5  -1   7  237.38   16.20 
   5   1   7  253.07   18.60 
  -5  -1   7  246.98   22.10 
   5  -1  -7  260.57   17.10 
   5   1   7  238.18   16.60 
  -5  -1   7  208.58   17.90 
   5   1   7  235.08   28.00 
  -6  -1  -7   91.49   10.40 
   6   1  -7  122.19   10.80 
  -6  -1  -7  -60.39  106.59 
  -6   1   7  110.29   14.30 
   6  -1   7   90.39   15.60 
   6  -1   7  115.99    8.50 
   6  -1   7  115.99   10.10 
  -6  -1  -7  117.49   10.70 
   6   1  -7  122.39    9.20 
   6  -1  -7  110.59    8.90 
   6   1   7  106.09    8.50 
   6  -1  -7  120.99   10.70 
  -6   1  -7   94.49    8.40 
   6   1   7   96.39   16.80 
  -6  -1   7  117.59   13.70 
   6   1   7  113.29   10.30 
  -6  -1   7   91.09   12.10 
   7   1  -7  106.99   10.10 
   7   1  -7  101.59    8.40 
  -7   1   7   87.69   12.90 
   7  -1   7  104.99    7.90 
   7  -1   7   99.79    9.20 
   7  -1  -7  102.39    8.40 
  -7  -1   7   96.09   12.20 
   7   1   7   99.79    8.00 
   7   1   7   97.99    9.40 
   7  -1  -7   92.09    9.50 
   8  -1   7   46.30    4.10 
  -8  -1  -7   76.49  141.09 
   8  -1   7   50.19    5.40 
   8   1  -7   35.20    4.40 
  -8   1   7   28.70    7.50 
   8   1  -7   49.70    6.00 
   8   1   7   42.80    4.20 
   8   1   7   46.90    5.40 
   8  -1  -7   40.60    4.40 
  -8  -1   7   40.50    7.40 
   8  -1  -7   39.10    5.70 
   0   2   7  141.39   11.20 
   0  -2  -7  150.88   12.40 
   0  -2   7  143.59   10.90 
   0  -2  -7  156.58   11.10 
   0  -2  -7  141.79   12.10 
   0   2  -7  178.48   11.50 
   0   2   7  151.38   10.20 
   0   2  -7  138.99   12.40 
   0  -2   7  152.08   11.80 
   0  -2  -7  139.99   19.70 
   0   2   7  154.58   14.90 
   0   2  -7  152.28   12.40 
   0   2   7  173.18   18.40 
   0  -2   7  155.08   10.00 
   0  -2   7  158.58   15.10 
   0   2   7  147.99   11.90 
  -1  -2  -7  184.58   12.80 
   1   2  -7  181.58   12.70 
  -1  -2  -7  175.68   12.60 
  -1   2   7  187.88   12.30 
   1  -2   7  178.58   11.40 
   1  -2  -7  133.49   11.90 
  -1  -2   7  136.29   11.10 
  -1   2  -7  126.49   12.00 
   1   2   7  132.69   10.00 
   1  -2  -7  142.59   10.70 
   1   2   7  129.79   11.40 
   1   2   7  144.29   17.80 
  -1  -2   7  130.59   11.50 
  -1   2  -7  136.59   10.60 
   1  -2  -7  136.29   19.10 
   1   2   7  132.19   15.20 
   1  -2  -7  126.19   11.70 
  -1  -2   7  149.29   14.30 
  -1   2  -7  143.19   12.20 
   1   2   7  128.99   11.20 
   2   2  -7 2452.65  133.29 
   2  -2   7 2341.37  133.79 
   2  -2   7 2421.26  132.29 
   2  -2   7 2395.16  134.59 
   2  -2   7 2298.67  142.19 
   2   2  -7 2229.38  135.49 
  -2  -2  -7 2347.17  135.19 
   2  -2   7 2427.96  144.29 
   2   2  -7 2364.86  135.09 
   2  -2  -7 2042.90  134.39 
   2   2   7 2198.48  132.59 
   2   2   7 2264.67  145.49 
   2  -2  -7 1939.71  161.48 
  -2   2  -7 2251.27  135.19 
  -2  -2   7 2097.69  136.69 
   2   2   7 2132.59  134.29 
  -2  -2   7 2060.09  134.99 
   2  -2  -7 2340.67  133.19 
  -3  -2  -7  743.43   49.40 
   3  -2   7  817.42   58.89 
  -3  -2  -7  847.92   50.89 
  -3   2   7  815.42   49.60 
   3  -2   7  766.92   49.80 
   3  -2   7  782.32   49.40 
   3   2  -7  792.32   50.39 
   3   2  -7  795.42   48.60 
   3  -2   7  764.32   47.80 
  -3  -2  -7  776.72   50.29 
  -3   2   7  820.02   53.59 
   3   2   7  797.12   48.30 
  -3   2  -7  784.22   50.99 
   3   2   7  763.62   49.90 
   3  -2  -7  764.52   60.69 
  -3  -2   7  837.32   49.30 
  -3  -2   7  784.62   51.69 
   3   2   7  886.41   75.39 
   3   2   7  774.32   50.09 
   3  -2  -7  861.21   48.80 
   3  -2  -7  783.02   50.29 
   4   2  -7  634.24   36.00 
   4  -2   7  604.04   36.90 
  -4   2   7  582.84   36.30 
  -4  -2  -7  602.64   37.20 
   4  -2   7  620.44   35.30 
  -4  -2  -7  590.64   38.60 
   4  -2   7  600.34   46.80 
  -4  -2  -7  644.04   38.40 
   4   2  -7  618.74   38.00 
  -4   2   7  628.74   42.30 
  -4  -2   7  565.54   39.90 
   4  -2  -7  545.85   37.40 
  -4  -2   7  550.14   35.70 
   4  -2  -7  487.65   46.10 
  -4  -2   7  495.65   37.50 
  -4   2  -7  487.75   37.80 
   4   2   7  562.34   35.50 
   4   2   7  509.85   47.00 
   4   2   7  539.75   37.40 
   4  -2  -7  566.44   35.70 
   5  -2   7  159.48   20.60 
   5   2  -7  169.78   13.50 
  -5  -2  -7  165.88   13.10 
   5  -2   7  166.18   12.70 
   5   2  -7  168.18   11.50 
  -5   2   7  155.68   17.00 
  -5  -2  -7  159.98   13.00 
  -5  -2  -7   58.89  134.39 
   5  -2   7  156.58   10.80 
  -5  -2  -7  140.49   14.10 
  -5   2   7  139.69   10.40 
   5   2   7  142.79   12.90 
   5   2   7  137.99   21.00 
  -5   2  -7  125.69   12.50 
  -5  -2   7  132.59   14.80 
   5   2   7  148.89   11.10 
   5  -2  -7  156.88   13.10 
   5  -2  -7  153.28   11.30 
  -5  -2   7  127.49   10.90 
  -5  -2   7  139.89   13.00 
   6  -2   7   63.29    5.50 
  -6  -2  -7  -39.30   98.09 
   6  -2   7   71.69    7.10 
   6   2  -7   70.39    8.00 
  -6   2   7   46.20    9.50 
  -6  -2  -7   54.59    7.20 
   6   2  -7   57.69    6.00 
  -6  -2   7   57.99    9.20 
  -6  -2   7   56.09    7.20 
   6  -2  -7   63.19    6.00 
   6   2   7   59.99   13.30 
   6   2   7   65.79    7.50 
  -6   2  -7   54.69    5.70 
   6  -2  -7   60.59    7.50 
   6   2   7   57.39    5.70 
   7  -2   7  175.38   13.40 
  -7  -2  -7  192.18   14.90 
  -7   2   7  157.08   18.00 
   7  -2   7  167.18   11.90 
   7   2  -7  177.68   12.80 
   7   2  -7  168.18   14.40 
  -7  -2  -7   58.59  155.58 
   7  -2  -7  165.68   12.50 
   7   2   7  166.78   12.30 
  -7  -2   7  171.58   16.80 
  -7  -2   7  150.88   16.40 
   7  -2  -7  183.58   14.30 
   7   2   7  180.48   14.20 
   8  -2   7  119.99    9.70 
   8   2  -7  112.69    9.40 
  -8   2   7   96.49   12.70 
   8  -2   7  127.89    8.60 
   8   2  -7  105.79   10.40 
   8  -2  -7  113.69    8.90 
   8  -2  -7  119.19   10.10 
   8   2   7  129.99   10.20 
  -8  -2   7  125.89   12.70 
   8   2   7  123.49    8.70 
   0   3   7   44.70    5.40 
   0  -3  -7   38.30    5.50 
   0  -3   7   48.20    7.90 
   0   3   7   45.90    4.10 
   0  -3   7   40.40    4.70 
   0   3   7   42.40    7.10 
   0  -3  -7   53.19    6.20 
   0  -3   7   44.70    3.80 
   0   3  -7   50.19    6.40 
   0  -3  -7   45.10   11.70 
   0  -3   7   44.00    5.20 
   0  -3  -7   46.90    4.80 
   0   3   7   48.10    9.90 
   0   3  -7   46.90    4.90 
   0   3  -7   42.30    5.80 
  -1   3   7 2009.60  122.79 
  -1   3   7 2342.97  131.29 
   1   3  -7 2151.28  121.79 
   1   3  -7 2020.40  123.59 
  -1  -3  -7 1985.90  122.79 
  -1  -3  -7 2039.00  123.39 
   1  -3   7 2178.18  120.49 
  -1  -3  -7 2045.60  121.09 
  -1   3   7 2097.79  122.79 
  -1  -3  -7 2115.89  141.29 
   1   3  -7 2056.99  123.89 
   1  -3   7 2051.69  121.69 
  -1  -3   7 2048.40  122.29 
  -1   3  -7 2000.20  121.39 
   1  -3  -7 2127.69  138.59 
   1   3   7 2099.89  133.39 
  -1  -3   7 2101.09  128.19 
   1   3   7 1959.10  122.59 
  -1   3  -7 2054.89  123.79 
   1  -3  -7 1979.60  123.19 
   1  -3  -7 1973.30  123.29 
   1  -3  -7 2077.59  121.49 
  -1   3  -7 1888.11  123.19 
   1   3   7 1891.21  122.69 
   1   3   7 2098.79  120.89 
   2  -3   7  307.07   20.30 
   2  -3   7  299.07   27.70 
  -2  -3  -7  287.57   21.10 
   2   3  -7  303.57   22.60 
  -2   3   7  307.67   22.20 
   2  -3   7  320.17   22.00 
   2   3  -7  334.17   23.50 
   2  -3   7  303.77   21.30 
  -2  -3  -7  328.87   22.90 
   2   3  -7  347.77   22.10 
   2  -3  -7  317.47   22.70 
   2  -3  -7  319.47   22.90 
   2   3   7  326.47   20.60 
  -2  -3   7  358.86   26.80 
   2  -3  -7  311.97   33.00 
   2   3   7  314.27   22.40 
   2  -3  -7  341.47   21.40 
  -2  -3   7  316.27   22.40 
  -2  -3   7  324.57   22.80 
   2   3   7  312.87   31.30 
  -2   3  -7  315.37   23.10 
   2   3   7  295.87   22.20 
   3   3  -7  762.32   53.79 
   3  -3   7  745.63   47.80 
  -3   3   7  838.92   52.19 
   3   3  -7  751.52   46.20 
   3  -3   7  747.73   47.50 
   3  -3   7  752.82   45.20 
  -3  -3  -7  681.13   47.70 
  -3  -3  -7  756.12   47.00 
  -3  -3  -7  789.82   48.50 
  -3   3   7  730.83   47.10 
  -3  -3   7  707.83   48.50 
   3  -3  -7  777.12   46.20 
   3   3   7  733.33   45.70 
  -3   3  -7  770.22   49.10 
   3  -3  -7  694.63   58.89 
   3  -3  -7  763.72   51.09 
  -3  -3   7  735.63   46.50 
   3   3   7  779.12   50.49 
  -4  -3  -7  218.58   18.90 
   4   3  -7  236.98   18.30 
  -4  -3  -7  243.18   17.50 
  -4  -3  -7   78.29  137.89 
  -4  -3  -7  253.47   18.50 
  -4   3   7  239.48   16.90 
   4  -3   7  244.58   17.20 
   4   3  -7  248.68   16.40 
   4  -3   7  237.28   15.50 
  -4   3   7  259.47   22.20 
   4  -3   7  249.38   25.10 
   4  -3  -7  243.68   16.40 
   4   3   7  233.68   18.10 
   4  -3  -7  208.98   26.10 
  -4  -3   7  218.38   16.00 
   4  -3  -7  223.48   18.00 
   4   3   7  220.98   16.00 
  -4  -3   7  218.08   18.50 
  -4  -3   7  228.58   19.30 
  -5   3   7  476.15   33.10 
   5   3  -7  545.65   34.20 
  -5  -3  -7  545.75   35.70 
   5   3  -7  536.75   36.40 
  -5   3   7  529.25   41.30 
   5  -3   7  540.55   45.20 
  -5  -3  -7  536.05   35.70 
   5  -3   7  528.55   33.20 
   5  -3   7  547.75   35.00 
  -5   3  -7  571.44   36.20 
  -5  -3   7  508.15   36.80 
   5  -3  -7  447.36   45.80 
  -5  -3   7  542.35   38.40 
   5  -3  -7  602.34   36.80 
   5  -3  -7  613.04   34.60 
   5   3   7  558.44   34.00 
   5   3   7  519.05   48.80 
  -5  -3   7  496.75   33.10 
   5   3   7  574.64   36.50 
  -6  -3  -7  -33.40  131.89 
   6  -3   7   24.00    3.10 
  -6  -3  -7   18.10    4.50 
  -6   3   7   15.50    5.70 
   6   3  -7   27.50    3.80 
  -6  -3   7   23.00    5.40 
   6   3   7   27.00    7.50 
   6   3   7   12.10    7.80 
  -6   3  -7   24.90    3.70 
  -6  -3   7   30.30    7.10 
   6  -3  -7   32.50    4.10 
   6   3   7   33.10    3.90 
  -7   3   7   20.10    6.70 
  -7  -3  -7   43.50    6.30 
   7  -3   7   33.40    3.70 
   7  -3   7   37.70    5.00 
   7   3  -7   32.50    5.80 
   7   3  -7   39.40    6.10 
  -7  -3  -7  -16.30  100.69 
   7   3   7   36.90    4.20 
  -7  -3   7   32.50    6.20 
  -7  -3   7   34.70    5.80 
   7   3   7   42.30    5.80 
   7  -3  -7   36.10    5.70 
   7  -3  -7   33.30    5.50 
  -8  -3  -7  -32.40   97.29 
   8  -3   7    1.70    1.10 
   8  -3   7    2.90    1.70 
   8   3  -7   -0.80    2.40 
  -8   3   7   -0.40    2.60 
   8   3  -7    0.70    1.90 
   8  -3  -7    2.30    2.00 
   8  -3  -7    0.90    1.50 
   8   3   7    4.20    2.10 
  -8  -3   7    1.80    2.20 
   8   3   7    0.00    1.20 
   0  -4  -7   -3.30    1.90 
   0   4  -7    0.90    2.30 
   0   4  -7    2.70    1.40 
   0   4   7   -0.20    1.80 
   0   4   7    2.90    4.70 
   0  -4  -7    3.30    1.60 
   0   4   7   -0.30    1.00 
   0  -4   7   -1.60    0.90 
   0   4   7    1.30    2.00 
   0  -4   7    4.60    2.40 
   0   4  -7    1.00    2.00 
   0  -4   7    1.60    2.40 
   0  -4  -7    1.20    1.90 
   0  -4  -7    6.20    6.20 
   1   4  -7  935.21   55.89 
  -1  -4  -7  853.21   56.69 
   1   4  -7  890.91   57.99 
   1  -4   7  947.01   64.19 
  -1   4   7 1013.60   64.69 
  -1   4   7  875.01   57.09 
   1  -4   7  870.51   55.59 
   1  -4   7  910.61   56.69 
   1   4  -7  929.61   58.59 
  -1  -4  -7  864.71   74.19 
  -1  -4  -7  847.62   54.89 
  -1  -4  -7  910.41   57.79 
   1  -4   7  917.51   54.39 
  -1   4  -7  951.40   58.59 
   1   4   7  893.21   57.29 
   1   4   7  829.12   78.49 
  -1   4  -7  893.11   58.59 
   1  -4  -7  924.51   57.89 
   1  -4  -7  948.71   57.89 
   1  -4  -7  988.50   55.89 
  -1  -4   7  968.20   56.69 
  -1   4  -7  899.11   55.49 
   1   4   7  936.41   57.19 
   1  -4  -7  902.51   72.59 
   2   4  -7 1104.79   69.99 
  -2  -4  -7 1105.99   69.69 
   2  -4   7 1019.70   70.59 
  -2  -4  -7 1100.39   67.69 
   2   4  -7 1175.38   67.89 
   2   4  -7 1139.19   70.79 
   2  -4   7 1133.89   67.89 
   2  -4   7 1174.08   66.49 
  -2   4   7 1151.48   69.19 
   2  -4   7 1232.78   77.69 
   2   4   7 1133.99   67.09 
   2   4   7 1082.89   69.19 
   2  -4  -7 1046.40   83.79 
   2  -4  -7 1084.09   67.49 
  -2  -4   7 1168.48   68.39 
  -2   4  -7 1158.68   70.69 
   2  -4  -7 1059.89   69.39 
  -2  -4   7 1136.89   75.49 
   2  -4  -7 1080.59   69.69 
   2   4   7 1043.10   69.09 
   3  -4   7   57.69    6.30 
  -3  -4  -7  104.29  152.98 
  -3  -4  -7   68.99    6.90 
   3   4  -7   74.79    8.30 
  -3   4   7   70.99   10.10 
  -3   4   7   69.79    6.90 
   3  -4   7   56.39    6.90 
  -3  -4  -7   60.59    7.50 
   3  -4   7   61.49    5.20 
   3   4  -7   66.09    6.20 
   3  -4   7   61.99   11.10 
  -3  -4   7   50.39    5.90 
   3  -4  -7   49.50    5.60 
   3   4   7   54.19    5.50 
   3   4   7   53.99    8.50 
  -3  -4   7   44.70    6.60 
   3   4   7   50.79    7.00 
   3  -4  -7   60.29    7.50 
   3  -4  -7   52.09   12.90 
  -4   4   7  193.88   19.30 
   4  -4   7  213.78   15.10 
   4   4  -7  211.78   16.80 
  -4  -4  -7  206.08   15.30 
  -4  -4  -7  191.98   16.00 
   4  -4   7  205.38   13.50 
   4  -4   7  208.78   22.60 
  -4  -4  -7   46.70  149.09 
   4   4  -7  208.48   14.60 
   4   4   7  193.68   16.10 
  -4  -4   7  179.78   14.00 
   4  -4  -7  197.28   16.30 
  -4  -4   7  177.88   16.50 
   4  -4  -7  181.88   14.10 
   4  -4  -7  162.98   28.70 
  -4   4  -7  199.88   16.30 
  -4  -4   7  186.48   16.10 
   4   4   7  192.28   14.00 
  -5  -4  -7   -2.40  100.19 
  -5   4   7   57.49   10.20 
   5   4  -7   53.49    7.70 
   5  -4   7   61.89    5.50 
   5  -4   7   54.49   11.00 
  -5  -4  -7   55.69    6.80 
   5  -4   7   66.19    7.00 
  -5  -4  -7   60.29    7.30 
  -5   4   7   47.50    6.10 
   5   4  -7   56.19    6.20 
  -5   4  -7   57.19    7.20 
   5   4   7   74.99    8.50 
   5  -4  -7   72.19    6.60 
  -5  -4   7   60.29    8.40 
   5  -4  -7   65.69   17.90 
   5   4   7   68.79    6.30 
  -5  -4   7   61.99    8.00 
  -5  -4   7   60.69    5.40 
   5  -4  -7   71.99    8.50 
  -6  -4  -7   26.60    5.20 
   6   4  -7   27.40    4.30 
   6  -4   7   30.10    3.70 
   6   4  -7   35.60    6.40 
  -6   4   7   21.20    7.30 
  -6  -4  -7   93.09  220.48 
   6  -4   7   33.90    5.00 
  -6  -4   7   35.50    6.30 
  -6  -4   7   44.00    6.70 
   6  -4  -7   43.50    4.90 
   6   4   7   46.10    6.60 
  -6   4  -7   32.50    4.40 
   6   4   7   46.30    4.80 
  -7  -4  -7   54.89  204.88 
  -7   4   7    4.60    5.40 
   7  -4   7   11.20    2.70 
   7  -4   7   10.00    2.30 
   7   4  -7   10.10    3.50 
   7   4  -7    8.30    2.50 
   7   4   7    9.50    2.80 
   7  -4  -7    7.10    2.30 
  -7  -4   7    7.60    3.60 
  -7  -4   7    6.00    2.90 
   7  -4  -7    7.30    3.00 
   7   4   7    5.80    1.90 
   0  -5   7  791.42   47.00 
   0  -5  -7  729.23   48.10 
   0   5  -7  756.02   48.70 
   0  -5   7  772.22   48.20 
   0   5  -7  772.52   46.10 
   0   5   7  829.12   58.69 
   0  -5  -7  696.23   64.59 
   0  -5  -7  726.63   45.60 
   0  -5  -7  709.93   47.50 
   0   5  -7  739.73   48.40 
   0  -5   7  731.43   54.79 
   0  -5   7  694.03   44.00 
   0   5   7  739.63   44.60 
   0   5   7  721.33   47.60 
   0   5   7  698.93   46.30 
   1  -5   7  165.38   11.30 
   1   5  -7  169.68   12.80 
  -1  -5  -7  154.28   24.80 
   1   5  -7  162.28   14.70 
  -1   5   7  176.38   14.30 
   1  -5   7  168.58   12.70 
  -1  -5  -7  169.48   14.60 
   1  -5   7  171.38   15.50 
   1  -5   7  171.58   13.50 
   1  -5   7  176.98   19.60 
   1   5  -7  178.08   15.00 
   1  -5  -7  163.88   12.50 
  -1   5  -7  165.08   14.80 
   1   5   7  169.28   14.20 
   1  -5  -7  162.48   14.40 
   1   5   7  166.68   12.00 
  -1  -5   7  177.98   13.40 
  -1  -5   7  161.98   19.00 
   1   5   7  170.98   13.90 
  -1   5  -7  157.58   12.10 
  -1   5  -7  169.58   15.10 
   1   5   7  176.28   31.40 
   1  -5  -7  165.88   14.60 
   1  -5  -7  153.28   24.40 
   2  -5   7  244.28   22.40 
   2   5  -7  263.97   21.30 
   2  -5   7  268.57   26.40 
   2   5  -7  281.07   19.00 
   2  -5   7  284.77   17.60 
   2   5  -7  270.37   21.30 
  -2  -5  -7   78.49  174.48 
   2  -5   7  275.57   19.00 
  -2  -5  -7  260.77   20.80 
  -2   5   7  276.47   20.40 
   2  -5   7  270.47   19.80 
  -2  -5   7  286.97   19.50 
   2  -5  -7  237.48   31.20 
   2  -5  -7  260.17   18.60 
   2   5   7  266.17   20.30 
   2   5   7  277.97   18.30 
   2   5   7  271.77   20.50 
   2  -5  -7  287.17   21.10 
  -2   5  -7  274.57   21.20 
   2  -5  -7  269.07   20.70 
  -3   5   7   69.29    7.90 
   3  -5   7   72.49    7.40 
   3  -5   7   64.29    7.80 
  -3   5   7   78.59   10.90 
   3   5  -7   71.69    7.20 
  -3  -5  -7   69.69    8.60 
  -3  -5  -7   62.99  171.08 
  -3  -5  -7   77.29    7.60 
   3   5  -7   77.89    9.30 
   3  -5   7   67.49    6.10 
  -3  -5   7   80.09    7.70 
   3   5   7   89.09    9.10 
   3   5   7   89.39    9.20 
   3  -5  -7   79.59    7.30 
   3   5   7   78.89    6.90 
   3  -5  -7   83.09    9.20 
   3  -5  -7   67.59   16.90 
   3  -5  -7   83.99    9.20 
  -3   5  -7   79.69    9.00 
   4  -5   7   67.59    7.20 
   4   5  -7   61.79    8.50 
   4  -5   7   57.79    7.10 
  -4  -5  -7  -43.90   94.99 
  -4  -5  -7   73.49    9.00 
   4  -5   7   59.89   12.50 
  -4  -5  -7   69.29    7.50 
  -4   5   7   65.99   11.70 
   4   5  -7   76.99    7.60 
  -4   5   7   71.59    7.50 
  -4  -5   7   76.89    6.90 
   4   5   7   84.09    9.10 
   4  -5  -7   73.89    8.30 
   4  -5  -7   43.90   14.60 
  -4   5  -7   73.89    9.30 
   4  -5  -7   83.69    9.20 
   4   5   7   73.39    7.90 
  -4  -5   7   97.19   11.90 
  -4  -5   7   70.79    8.20 
  -5  -5  -7  119.99   10.80 
  -5   5   7  119.49   14.90 
   5   5  -7  118.59   10.30 
   5  -5   7  115.69    9.10 
  -5   5   7  102.19    9.10 
   5  -5   7  119.69   10.50 
  -5  -5  -7  110.79   10.70 
   5   5  -7  120.59   12.40 
   5  -5  -7  132.39   10.40 
  -5  -5   7  144.29   13.50 
   5  -5  -7   87.09   30.00 
   5  -5  -7  133.99   12.70 
  -5  -5   7  108.09   11.30 
   5   5   7  139.09   10.20 
  -5   5  -7  125.59   11.40 
   5   5   7  144.99   12.60 
   6  -5   7    8.20    3.90 
   6   5  -7   12.90    3.90 
  -6  -5  -7   40.00  135.29 
   6  -5   7    8.20    2.10 
   6   5  -7   11.00    2.90 
   6  -5   7    8.10    2.60 
  -6  -5  -7   10.10    3.30 
  -6   5   7   10.40    4.70 
  -6  -5   7    8.40    3.40 
   6   5   7    4.50    2.00 
  -6  -5   7    5.10    3.10 
   6  -5  -7    6.60    3.10 
   6  -5  -7    7.30    2.40 
  -6   5  -7    4.50    3.00 
   6   5   7    7.20    2.80 
  -7  -5  -7   21.90  112.39 
   7  -5   7  127.79   12.40 
  -7   5   7  112.19   13.30 
  -7  -5  -7  129.59   10.60 
   7  -5   7  121.69    8.60 
   7   5  -7  120.49    9.50 
   7   5  -7  130.29   14.80 
   7  -5  -7  111.89    9.30 
  -7  -5   7  100.69   10.70 
  -7  -5   7   95.39    9.90 
   7   5   7  111.29    9.00 
   0  -6  -7  138.09   13.00 
   0  -6   7  139.29   11.80 
   0  -6  -7  143.69   10.50 
   0   6  -7  128.89   12.70 
   0  -6  -7  135.79   23.50 
   0   6   7  136.99   12.50 
   0   6   7  137.49    9.70 
   0  -6  -7  130.59   12.40 
   0   6  -7  136.89   10.90 
   0  -6   7  147.09   18.50 
   0  -6   7  127.49   13.00 
  -1  -6  -7  257.87   34.40 
   1  -6   7  287.17   20.30 
  -1   6   7  275.87   20.70 
  -1  -6  -7  259.57   21.10 
   1  -6   7  275.87   27.30 
   1   6  -7  270.77   21.10 
   1  -6   7  270.27   19.80 
   1   6  -7  266.97   18.90 
   1   6  -7  281.77   21.70 
   1  -6   7  262.87   17.30 
   1  -6   7  244.28   21.60 
   1  -6  -7  259.57   18.50 
   1   6   7  276.57   20.20 
   1  -6  -7  229.58   32.60 
   1   6   7  276.77   18.00 
   1  -6  -7  279.97   20.90 
   1  -6  -7  260.87   21.20 
  -1  -6   7  282.67   27.80 
   1   6   7  272.17   20.70 
  -1  -6   7  296.07   20.10 
  -1   6  -7  248.68   17.90 
  -1   6  -7  280.97   21.30 
   2  -6   7   50.19    5.90 
  -2  -6  -7    3.40  190.28 
  -2  -6  -7   44.80    6.70 
   2   6  -7   44.70    7.30 
   2  -6   7   43.70    4.40 
   2   6  -7   45.30    6.80 
  -2   6   7   49.60    6.60 
   2   6  -7   41.30    5.40 
   2  -6   7   52.79    7.90 
   2  -6   7   50.59    6.10 
   2  -6   7   42.90   10.00 
   2   6   7   43.80    4.90 
  -2   6  -7   52.89    7.20 
   2  -6  -7   49.40    7.40 
  -2  -6   7   50.29    6.10 
   2   6   7   54.19    7.00 
   2   6   7   48.60    6.40 
   2  -6  -7   50.29    5.50 
   2  -6  -7   50.49    7.20 
   2  -6  -7   43.10   15.10 
   3   6  -7   60.79    7.00 
   3  -6   7   61.69    6.70 
  -3   6   7   69.79    9.80 
   3  -6   7   54.19   11.50 
   3  -6   7   62.59    5.50 
  -3  -6  -7   63.79    6.40 
  -3  -6  -7  -37.70  145.19 
  -3  -6  -7   55.79    7.90 
   3   6  -7   65.19    8.70 
   3  -6   7   51.59    7.00 
   3  -6   7   57.79    9.50 
  -3   6   7   66.19    7.60 
   3   6   7   67.29    6.60 
   3   6   7   59.09    7.70 
  -3   6  -7   61.79    8.20 
   3  -6  -7   62.89    6.70 
  -3  -6   7   65.29    6.70 
   3  -6  -7   45.10   14.60 
   3   6   7   62.29    8.10 
   3  -6  -7   69.29    8.00 
   3  -6  -7   70.69    8.50 
   4  -6   7   56.49   11.20 
  -4  -6  -7   66.49    8.50 
   4  -6   7   73.29   10.90 
  -4  -6  -7   67.99    7.40 
   4  -6   7   71.59    6.20 
  -4   6   7   70.59    7.70 
   4   6  -7   72.79    7.40 
   4  -6   7   77.29    7.70 
   4   6  -7   76.99    9.50 
  -4   6   7   80.49   11.10 
   4  -6   7   80.79    8.10 
  -4  -6  -7  153.78  181.78 
   4  -6  -7   50.69   16.70 
  -4   6  -7   80.49    9.00 
   4  -6  -7   71.39    7.20 
   4   6   7   78.19    8.90 
  -4  -6   7   71.69    6.80 
   4   6   7   79.79    7.10 
   4  -6  -7   80.19    9.40 
  -4  -6   7   88.29   10.00 
  -5  -6  -7   27.50    4.80 
   5   6  -7   33.30    4.70 
  -5  -6  -7   60.29  176.48 
  -5   6   7   29.50    7.30 
   5   6  -7   29.40    6.50 
   5  -6   7   43.50    5.30 
  -5  -6  -7   25.90    5.00 
  -5   6   7   26.00    3.90 
   5  -6   7   35.00    7.40 
   5  -6   7   29.80    3.70 
  -5  -6   7   35.10    6.40 
  -5   6  -7   34.40    5.10 
   5  -6  -7   29.80    4.40 
   5  -6  -7   35.20    6.60 
   5   6   7   34.90    4.30 
   5   6   7   32.90    5.90 
   6  -6   7   58.69    6.40 
   6   6  -7   60.39    8.20 
   6  -6   7   49.50    9.20 
  -6  -6  -7   52.59    6.50 
   6   6  -7   51.09    6.90 
   6  -6   7   50.69    5.10 
  -6   6   7   44.00    8.90 
  -6  -6  -7   17.50  141.29 
   6  -6  -7   63.59    7.80 
   6  -6  -7   36.20    6.90 
   6   6   7   57.69    7.30 
  -6   6  -7   45.40    6.10 
   6   6   7   44.50    5.70 
   7  -6   7   10.70    2.10 
  -7   6   7    6.70    4.10 
   7   6  -7    6.10    2.10 
  -7  -6  -7   45.80  261.27 
   7   6  -7   13.30    3.80 
  -7  -6  -7   14.00    3.40 
   7  -6  -7    5.40    2.20 
   7   6   7    9.20    3.00 
   7   6   7   14.00    2.60 
   7  -6  -7    8.20    3.20 
  -7  -6   7    7.10    3.10 
   0  -7   7  151.38   20.80 
   0  -7  -7  175.68   12.30 
   0   7  -7  169.58   15.20 
   0   7  -7  160.58   12.60 
   0  -7   7  167.18   14.10 
   0  -7  -7  168.08   26.90 
   0   7   7  156.58   12.40 
   0  -7  -7   16.30  211.68 
   0   7   7  178.68   15.20 
   0   7  -7  181.68   15.70 
   0  -7  -7  188.08   16.00 
   1   7  -7  103.49    8.90 
  -1  -7  -7  100.19   10.80 
   1  -7   7  110.39    9.20 
  -1   7   7  103.29   10.50 
   1   7  -7   97.29   11.10 
   1  -7   7  104.99    9.90 
   1   7  -7  109.99   10.80 
  -1  -7  -7   21.10  149.19 
  -1  -7  -7   72.59   18.80 
   1  -7   7  101.19   15.70 
   1  -7  -7   78.59    8.00 
   1  -7  -7  101.89   10.20 
  -1  -7   7   76.39   14.90 
   1   7   7   93.79   10.10 
  -1  -7   7  111.69    9.80 
   1  -7  -7   81.39   10.00 
   1  -7  -7   79.59   18.80 
  -1   7  -7   87.59   10.30 
   1   7   7   91.39    7.60 
   1   7   7   93.69    9.60 
   2  -7   7  228.48   16.30 
   2   7  -7  237.48   16.50 
   2  -7   7  209.48   24.60 
   2   7  -7  230.78   19.10 
   2  -7   7  192.88   18.70 
  -2  -7  -7  -68.79  158.08 
  -2  -7  -7  215.68   18.60 
   2   7  -7  204.68   18.40 
   2  -7   7  210.88   19.80 
   2  -7   7  209.18   14.90 
  -2   7   7  243.68   18.30 
   2   7   7  209.68   15.20 
  -2  -7   7  244.28   17.10 
   2  -7  -7  182.88   28.90 
   2  -7  -7  211.28   15.70 
   2  -7  -7  182.68   21.90 
   2   7   7  236.68   17.70 
  -2   7  -7  212.68   18.10 
   2  -7  -7  236.28   18.20 
   3  -7   7   12.30    4.30 
   3  -7   7   16.40    3.70 
  -3   7   7   20.60    5.60 
  -3   7   7   19.90    4.70 
   3  -7   7    7.80    4.30 
   3   7  -7    9.60    3.90 
   3   7  -7   12.90    3.10 
   3  -7   7   15.90    2.50 
  -3  -7  -7    7.60    4.20 
  -3  -7  -7   15.50    4.70 
  -3  -7  -7  -28.20  139.99 
   3  -7  -7    9.00    9.40 
   3  -7  -7    8.00    3.00 
   3   7   7   15.50    4.00 
  -3  -7   7   14.40    4.60 
  -3  -7   7   13.20    3.20 
   3  -7  -7   10.90    2.70 
   3   7   7   10.40    3.60 
   3   7   7   15.40    2.90 
  -3   7  -7   15.00    4.20 
   3  -7  -7   12.90    4.00 
   4   7  -7  148.59   14.50 
   4  -7   7  129.69   15.50 
   4   7  -7  140.19   11.80 
  -4   7   7  151.48   12.40 
  -4  -7  -7  124.09   13.00 
  -4  -7  -7   53.29  151.88 
  -4  -7  -7  152.08   11.40 
   4  -7   7  126.79   10.20 
  -4   7   7  145.69   15.30 
   4  -7   7  138.89   12.10 
   4  -7  -7  150.88   13.80 
   4   7   7  154.28   13.40 
  -4   7  -7  146.89   13.10 
   4  -7  -7  141.59   11.50 
  -4  -7   7  133.19   11.00 
  -4  -7   7  151.98   14.30 
   4   7   7  145.59   11.10 
  -5   7   7    0.10    2.30 
  -5  -7  -7    8.70    4.00 
   5   7  -7    4.10    2.10 
  -5  -7  -7  -74.09   90.69 
   5  -7   7   -0.50    2.50 
   5  -7   7    3.30    1.60 
   5   7  -7    6.40    3.60 
  -5   7   7    3.40    2.30 
  -5  -7  -7    4.50    2.90 
   5  -7  -7    0.80    1.60 
   5   7   7    5.40    2.90 
  -5  -7   7   10.70    4.10 
   5  -7  -7    5.90    3.10 
  -6  -7  -7  -13.50   94.19 
   6   7  -7   21.40    7.30 
   6  -7   7   17.20    2.70 
  -6  -7  -7   18.60    3.90 
   6   7  -7   19.10    3.50 
   6  -7   7    9.60    4.80 
   6  -7   7   17.70    4.00 
  -6   7   7   12.00    4.30 
   6  -7  -7   13.00    5.00 
   6   7   7   19.30    3.20 
   6  -7  -7   16.60    3.20 
  -6  -7   7   18.50    5.00 
   6   7   7   15.40    5.60 
   0   8  -7  129.89   10.10 
   0   8   7  128.59   12.80 
   0  -8   7  127.09   18.50 
   0  -8  -7  134.29   13.50 
   0   8  -7  136.69   13.00 
   0  -8   7  142.59   12.20 
   0  -8  -7  116.59   22.70 
  -1  -8  -7  228.38  304.17 
   1   8  -7  149.49   11.80 
  -1   8   7  156.58   14.10 
   1   8  -7  143.39   13.70 
   1  -8   7  151.78   13.30 
   1  -8   7  134.49   21.50 
  -1  -8  -7  101.99   25.20 
  -1  -8  -7  161.58   14.70 
   1  -8   7  121.89   14.90 
   1   8  -7  151.28   14.60 
   1  -8  -7  143.39   11.20 
   1   8   7  141.19   10.50 
  -1  -8   7  177.78   13.60 
   1  -8  -7  138.79   29.10 
  -1   8  -7  175.28   14.60 
   1  -8  -7  169.18   14.00 
   1   8   7  157.88   14.20 
   1  -8  -7  158.88   14.80 
  -2   8   7  233.18   18.60 
   2   8  -7  264.97   26.60 
  -2  -8  -7  -37.80  164.68 
   2   8  -7  208.68   16.30 
   2  -8   7  235.68   17.80 
   2  -8   7  176.98   23.60 
   2  -8   7  220.28   17.50 
  -2  -8  -7  213.08   18.80 
  -2   8   7  245.48   20.30 
   2   8  -7  205.08   18.40 
  -2  -8   7  256.37   19.30 
   2   8   7  225.78   15.40 
   2  -8  -7  209.48   15.90 
   2   8   7  228.98   19.10 
  -2  -8   7  240.58   17.50 
   2   8   7  238.68   18.90 
   2  -8  -7  175.88   30.00 
  -2   8  -7  255.47   19.20 
   2  -8  -7  219.18   19.20 
   2  -8  -7  234.98   22.60 
   3  -8   7  180.18   14.10 
   3  -8   7  160.28   12.30 
   3  -8   7  173.78   14.90 
   3   8  -7  188.38   14.20 
  -3  -8  -7   72.19  174.38 
  -3  -8  -7  157.68   15.60 
  -3   8   7  177.68   15.40 
  -3   8   7  179.48   17.00 
   3   8  -7  177.78   16.60 
   3   8   7  189.88   16.10 
  -3  -8   7  223.08   17.20 
   3   8   7  188.48   15.30 
   3  -8  -7  205.38   16.20 
   3  -8  -7  181.48   16.50 
  -3  -8   7  183.68   14.30 
   3  -8  -7  177.38   13.60 
  -3   8  -7  210.28   16.50 
   3   8   7  178.58   13.10 
   4  -8   7   13.20    4.00 
  -4   8   7   22.70    4.30 
  -4  -8  -7   13.40    3.90 
  -4  -8  -7   72.89  160.58 
   4  -8   7   20.30    3.80 
   4  -8   7   18.60    2.80 
   4   8  -7   19.60    3.90 
   4   8  -7   19.50    5.40 
  -4   8   7   17.90    6.30 
  -4   8  -7   18.10    4.00 
  -4  -8   7   13.80    3.00 
   4   8   7   21.60    4.60 
   4  -8  -7   25.80    5.30 
  -4  -8   7   30.30    6.60 
   4  -8  -7   13.00    3.10 
   4   8   7   16.30    3.00 
   5   8  -7   39.60    6.70 
   5  -8   7   32.40    6.00 
   5   8  -7   33.20    4.50 
  -5   8   7   26.30    3.30 
   5  -8   7   34.40    3.60 
   5  -8   7   26.60    7.10 
  -5   8   7   24.70    5.50 
  -5  -8  -7   41.20  173.18 
  -5  -8  -7   22.20    4.00 
   5   8   7   34.50    4.10 
   5  -8  -7   36.80    4.50 
  -5  -8   7   35.20    6.30 
   5  -8  -7   41.40    7.00 
   5   8   7   38.20    7.40 
  -5   8  -7   29.20    4.40 
   0  -9  -7   29.90    6.70 
   0  -9  -7  -14.00  142.29 
   0  -9   7   29.60    5.00 
   0   9   7   35.00    5.90 
   0   9  -7   26.90    5.90 
  -1  -9  -7  201.68   17.50 
   1  -9   7  199.68   16.30 
   1   9  -7  188.98   14.50 
   1   9  -7  207.18   17.50 
  -1   9   7  226.88   17.60 
   1   9  -7  224.98   18.40 
   1   9   7  198.38   17.30 
   1  -9  -7  212.78   17.90 
  -1   9  -7  190.08   17.00 
  -1  -9   7  206.08   16.30 
  -1  -9   7  240.08   17.50 
   1  -9  -7  182.88   16.10 
   2  -9   7   21.80    7.00 
  -2   9   7   35.40    5.80 
   2  -9   7   32.90    5.30 
  -2  -9  -7   35.60    6.80 
   2   9  -7   34.20    4.40 
  -2   9   7   40.50    5.80 
   2   9  -7   29.80    6.30 
   2   9  -7   25.70    7.30 
   2   9   7   33.30    3.50 
   2  -9  -7   23.50    5.60 
   2   9   7   29.80    6.20 
   2  -9  -7   40.30    7.20 
   2   9   7   27.80    5.70 
   2  -9  -7   27.00    3.80 
  -2  -9   7   48.40    6.80 
  -2  -9   7   31.00    4.80 
  -2   9  -7   31.70    6.30 
   3  -9   7    7.90    4.50 
   3   9  -7    1.30    1.80 
  -3   9   7    1.10    2.00 
  -3   9   7    4.80    3.10 
   3  -9   7    4.50    3.70 
   3  -9   7    4.90    2.40 
  -3  -9  -7    4.10    2.80 
   3   9  -7    9.10    3.60 
   3  -9   7    3.80    1.50 
  -3  -9  -7  220.88  229.68 
   3   9   7    0.60    2.90 
   3  -9  -7    3.60    3.80 
   3  -9  -7    1.60    1.90 
  -3  -9   7    3.70    3.10 
   3  -9  -7    3.50    3.30 
   3   9   7    2.40    2.40 
  -3  -9   7    3.20    3.10 
   3   9   7    2.70    1.40 
  -3   9  -7    5.20    2.80 
  -4  -9  -7   21.90    4.40 
  -4  -9  -7   28.60  107.59 
   4   9  -7   27.00    4.10 
   4  -9   7   10.70    8.60 
  -4   9   7   26.60    4.20 
   4  -9   7   29.10    5.20 
   4  -9   7   26.20    5.60 
  -4   9   7   19.30    4.60 
   4  -9   7   27.20    3.00 
   4   9  -7   41.00    6.60 
  -4  -9   7   18.80    3.30 
   4   9   7   34.70    3.60 
   4   9   7   31.20    5.20 
  -4   9  -7   27.60    4.50 
  -4  -9   7   35.30    5.90 
   4  -9  -7   35.40    4.10 
   4  -9  -7   37.50    6.00 
   0 -10  -7   78.79  136.09 
   1  10  -7   33.80    5.50 
  -1 -10  -7  -33.60  102.29 
   1 -10   7   33.20    5.00 
  -1 -10  -7   34.90    5.80 
  -1  10   7   37.00    5.60 
  -1  10   7   30.80    5.10 
   1  10  -7   30.00    4.80 
   1 -10   7   41.00    5.20 
   1 -10  -7   26.20    5.80 
  -1  10  -7   31.20    5.30 
   1  10   7   33.30    5.30 
  -1 -10   7   40.90    5.80 
   1 -10  -7  -21.50  120.89 
  -1 -10   7   30.40    4.90 
  -2  10   7   53.49    6.70 
   2 -10   7   64.29    7.00 
   2 -10   7   64.99    6.20 
   2  10  -7   54.99    6.80 
  -2 -10  -7   50.09    7.20 
   2  10  -7   58.89    5.30 
  -2  10   7   58.09    6.80 
  -2 -10  -7   43.70   91.39 
   2 -10  -7   48.30    7.10 
  -2 -10   7   61.99    7.50 
  -2 -10   7   54.89    6.20 
   2  10   7   47.50    6.60 
  -2  10  -7   53.39    6.80 
  -3  10   7    2.80    1.80 
   3  10  -7    3.40    1.40 
   3  10  -7    2.90    3.70 
  -3  10   7    0.70    4.80 
   3 -10   7    3.10    2.50 
  -3 -10  -7    0.00    1.80 
   3  10   7    0.90    1.10 
   3 -10  -7    1.20    1.60 
  -3  10  -7    4.00    2.10 
  -3 -10   7    3.20    1.80 
   3 -10  -7    4.10    2.90 
  -3 -10   7    1.50    2.40 
   3  10   7    1.40    2.20 
   0   0   8   85.29   14.20 
   0   0   8   78.49    9.20 
   0   0  -8   67.09    8.00 
   0   0  -8   78.89    8.40 
   0   0   8   81.59    8.00 
   0   0   8   79.59    5.80 
   0   0  -8   87.09    7.20 
   0   0   8   86.29   10.20 
   1   0  -8  893.41   57.39 
  -1   0   8  953.10   59.29 
   1   0   8  898.71   55.89 
  -1   0  -8  873.31   59.09 
  -1   0  -8  911.61   55.29 
   1   0   8  956.30   63.09 
   1   0  -8  877.41   57.39 
   1   0   8  880.91   56.69 
   1   0   8  996.50   67.39 
  -1   0  -8  895.61   57.59 
   1   0   8  902.01   54.39 
   2   0   8   35.10    4.70 
   2   0  -8   38.40    5.40 
  -2   0   8   25.80    4.20 
   2   0   8   29.80    4.50 
   2   0   8   20.40    5.90 
   2   0   8   34.10    3.50 
   2   0  -8   29.10    5.10 
  -2   0  -8   32.80    5.30 
   2   0  -8   30.90    4.10 
   3   0  -8  964.70   57.89 
  -3   0   8  939.61   62.19 
  -3   0   8  964.90   58.79 
   3   0   8  918.01   56.99 
  -3   0  -8 1016.40   60.69 
   3   0   8  899.31   58.69 
   3   0  -8  989.20   60.09 
   3   0   8  948.71   68.79 
   3   0   8  911.41   59.19 
   4   0   8   46.30   10.40 
  -4   0   8   44.90    7.70 
   4   0   8   40.40    5.80 
   4   0  -8   43.90    6.50 
  -4   0   8   45.90    5.00 
   4   0   8   38.80    4.40 
  -4   0  -8   39.40    6.10 
   4   0  -8   46.50    5.20 
  -5   0  -8   -1.50    2.70 
   5   0   8   -0.10    1.60 
   5   0   8    1.60    3.70 
  -5   0   8    1.50    1.20 
   5   0  -8    1.10    2.20 
  -5   0   8    1.00    2.60 
   5   0   8    2.20    1.20 
   5   0  -8    3.50    2.40 
   6   0   8  248.38   16.80 
   6   0  -8  271.17   17.80 
   6   0   8  271.47   18.90 
  -6   0  -8  219.58   16.70 
  -6   0   8  259.87   23.40 
   6   0   8  202.38   26.30 
   6   0  -8  272.67   19.80 
   7   0   8  150.38   12.00 
   7   0  -8  149.69   11.10 
   7   0   8  129.29   11.30 
   7   0  -8  152.08   12.80 
  -7   0   8  136.19   15.50 
   0   1   8 2772.22  161.48 
   0   1   8 2467.35  150.08 
   0   1  -8 2450.65  148.89 
   0  -1  -8 2411.46  150.58 
   0   1   8 2393.06  147.39 
   0   1  -8 2365.96  150.68 
   0  -1   8 2701.43  155.08 
   0  -1   8 2760.82  153.08 
   0  -1   8 2542.05  150.08 
   0  -1  -8 2484.35  148.79 
   0  -1  -8 2518.15  150.98 
   0  -1   8 2435.16  147.39 
   0   1  -8 2556.74  151.18 
   1  -1   8  318.37   19.70 
   1  -1   8  305.17   21.00 
   1   1  -8  306.97   22.60 
   1  -1   8  317.07   22.00 
   1   1  -8  318.47   22.70 
  -1  -1  -8  324.47   20.60 
   1  -1   8  326.77   30.20 
  -1  -1  -8  286.27   26.20 
  -1  -1  -8  299.87   23.30 
   1   1  -8  321.07   21.00 
   1  -1   8  315.17   31.70 
  -1   1   8  312.97   21.90 
  -1   1  -8  301.77   20.50 
  -1  -1   8  317.87   24.20 
   1   1   8  313.87   27.00 
  -1  -1   8  320.97   22.80 
   1  -1  -8  309.67   21.20 
   1   1   8  320.17   19.90 
   1  -1  -8  300.67   22.40 
   1   1   8  291.07   21.10 
  -1  -1   8  310.87   21.70 
   1   1   8  297.07   21.80 
   1  -1  -8  310.47   22.50 
   1   1   8  329.07   30.40 
  -1   1  -8  317.67   26.80 
  -2   1   8  646.54   39.70 
   2   1  -8  574.24   37.20 
   2  -1   8  575.14   34.20 
   2   1  -8  575.84   35.30 
   2   1  -8  545.45   37.30 
  -2   1   8  568.04   36.30 
   2  -1   8  547.55   35.70 
   2  -1   8  541.75   43.10 
   2  -1   8  545.75   36.40 
  -2  -1  -8  580.04   37.40 
   2  -1  -8  468.55   44.40 
   2   1   8  543.45   36.40 
   2   1   8  555.74   34.30 
   2  -1  -8  547.85   37.30 
  -2  -1   8  567.54   38.00 
   2  -1  -8  525.95   36.80 
  -2   1  -8  586.94   37.60 
   2   1   8  556.64   36.10 
   2   1   8  522.55   43.40 
  -2  -1   8  579.24   36.20 
   2  -1  -8  560.54   35.20 
   3  -1   8  277.57   21.50 
   3  -1   8  297.47   20.10 
   3   1  -8  304.47   20.90 
   3   1  -8  299.67   22.70 
   3  -1   8  282.87   23.10 
  -3   1   8  302.87   25.00 
   3  -1   8  296.37   29.20 
  -3  -1  -8  292.77   23.20 
  -3   1   8  307.17   21.80 
   3  -1  -8  314.47   22.90 
   3  -1  -8  284.67   29.90 
   3   1   8  337.57   22.70 
   3   1   8  310.07   30.00 
  -3  -1   8  349.17   22.00 
  -3   1  -8  355.06   23.80 
   3  -1  -8  349.27   21.30 
  -3  -1   8  342.97   25.00 
   3   1   8  325.07   20.40 
   3   1   8  327.27   22.40 
   4  -1   8  354.56   22.60 
   4   1  -8  352.06   25.40 
  -4   1   8  343.97   28.50 
  -4   1   8  345.37   23.60 
   4  -1   8  358.06   24.40 
  -4  -1  -8  344.57   25.60 
   4   1  -8  358.66   23.40 
   4  -1  -8  393.46   25.90 
  -4  -1   8  357.56   23.50 
   4  -1  -8  296.37   31.50 
   4   1   8  377.66   22.90 
  -4  -1   8  364.36   28.10 
  -4   1  -8  329.27   25.50 
   4   1   8  367.86   24.90 
  -4  -1   8  326.17   24.40 
   4  -1  -8  389.56   23.70 
   4   1   8  263.27   44.70 
   5   1  -8  224.98   16.40 
  -5  -1  -8  158.38   15.00 
   5  -1   8  164.98   22.30 
  -5   1   8  164.28   12.30 
   5   1  -8  204.48   14.20 
   5  -1   8  192.98   14.90 
   5  -1   8  178.38   12.90 
  -5   1   8  175.78   19.00 
   5   1   8  173.38   23.10 
  -5  -1   8  173.28   14.50 
  -5  -1   8  163.38   12.10 
   5  -1  -8  220.38   16.30 
   5   1   8  191.88   13.30 
   5  -1  -8  195.48   14.10 
   5   1   8  212.08   15.60 
  -5  -1   8  184.98   18.30 
   6   1  -8  160.78   13.50 
   6  -1   8  133.79   24.40 
   6  -1   8  166.68   12.60 
  -6   1   8  140.59   16.50 
   6  -1   8  154.28   10.60 
   6   1  -8  151.88   11.30 
  -6  -1  -8  119.79   10.50 
   6   1   8  137.59   12.30 
   6   1   8  132.69   10.50 
   6   1   8  123.59   24.70 
   6  -1  -8  153.08   13.30 
  -6  -1   8  127.39   15.40 
  -6   1  -8  122.19   10.40 
   6  -1  -8  147.99   11.30 
   7   1  -8   34.60    5.90 
  -7   1   8   30.10    7.80 
   7   1  -8   42.80    4.70 
   7  -1   8   41.40    5.30 
   7  -1  -8   35.70    4.70 
   7   1   8   40.30    5.60 
   7  -1  -8   34.20    5.90 
  -7  -1   8   33.10    8.40 
   7   1   8   39.20    5.10 
   0  -2   8 1368.56   81.09 
   0   2   8 1326.17   82.59 
   0   2  -8 1331.77   84.69 
   0  -2   8 1414.26   89.19 
   0   2  -8 1371.76   84.89 
   0  -2  -8 1348.77   84.49 
   0  -2  -8 1441.06   82.69 
   0   2  -8 1393.66   83.29 
   0  -2   8 1403.26   84.09 
   0   2   8 1406.86   81.29 
   0   2   8 1430.66   87.99 
   0   2   8 1521.15  101.19 
   0  -2   8 1270.07   85.89 
   0  -2  -8 1296.47   84.49 
   1  -2   8  191.48   13.50 
   1   2  -8  192.48   13.40 
   1   2  -8  189.18   15.20 
  -1  -2  -8  187.18   15.10 
   1   2  -8  182.08   15.30 
   1  -2   8  197.58   19.20 
  -1   2   8  207.28   21.70 
   1  -2   8  181.18   12.90 
  -1  -2  -8  191.28   13.00 
  -1   2  -8  180.88   15.00 
   1   2   8  157.78   12.90 
   1   2   8  175.48   21.50 
   1   2   8  187.58   13.90 
  -1   2  -8  169.08   12.90 
   1  -2  -8  190.78   15.10 
  -1  -2   8  184.68   14.10 
   1  -2  -8  188.48   13.30 
  -1  -2   8  184.98   17.40 
  -1   2  -8  162.78   14.70 
   1   2   8  156.98   18.30 
   1  -2  -8  179.98   15.00 
  -1  -2   8  167.18   14.10 
   1  -2  -8  148.49   22.40 
   2  -2   8  536.65   31.90 
   2   2  -8  543.75   35.60 
   2  -2   8  550.54   33.60 
  -2  -2  -8  537.25   35.30 
   2   2  -8  552.34   33.20 
  -2   2   8  586.24   34.80 
   2  -2   8  591.74   42.40 
   2   2  -8  547.55   35.40 
   2  -2   8  434.26   37.40 
   2  -2  -8  504.55   34.90 
   2   2   8  480.45   41.30 
   2  -2  -8  514.75   33.00 
  -2   2  -8  507.95   35.20 
   2   2   8  499.25   34.00 
   2  -2  -8  495.05   34.90 
  -2  -2   8  477.35   34.90 
   2   2   8  521.25   32.30 
   2  -2  -8  452.75   44.10 
   3   2  -8  389.36   26.70 
  -3   2   8  389.86   29.40 
   3  -2   8  370.76   25.00 
  -3   2   8  380.16   25.40 
   3   2  -8  378.56   24.40 
  -3  -2  -8  395.36   27.00 
   3  -2   8  383.16   23.40 
   3  -2   8  341.57   32.30 
   3  -2   8  374.86   25.70 
  -3  -2   8  385.26   25.10 
   3   2   8  364.76   25.70 
   3  -2  -8  370.76   26.40 
  -3   2  -8  407.86   27.80 
  -3  -2   8  352.76   27.10 
   3   2   8  334.47   23.50 
   3  -2  -8  323.57   34.40 
   3   2   8  362.76   25.70 
   3  -2  -8  370.26   24.40 
   3   2   8  335.57   33.40 
   4   2  -8  152.18   12.30 
   4   2  -8  159.98   14.30 
  -4   2   8  158.98   12.60 
   4  -2   8  159.58   11.50 
  -4  -2  -8  168.98   14.40 
   4  -2   8  152.98   20.00 
  -4   2   8  156.18   16.80 
   4  -2   8  170.68   13.20 
   4   2   8  143.59   20.80 
  -4  -2   8  158.78   12.20 
   4  -2  -8  180.88   12.60 
  -4  -2   8  155.78   14.00 
  -4  -2   8  156.08   15.40 
   4  -2  -8  168.18   14.40 
  -4   2  -8  162.68   14.70 
   4   2   8  164.78   11.80 
   4   2   8  165.78   13.80 
   5  -2   8  249.28   27.30 
   5   2  -8  273.47   20.20 
  -5   2   8  260.17   24.00 
   5  -2   8  252.47   16.70 
   5   2  -8  265.87   17.80 
   5  -2   8  278.47   18.90 
  -5  -2  -8  236.08   19.10 
  -5   2   8  218.28   16.40 
   5   2   8  240.88   17.00 
  -5  -2   8  265.27   22.10 
   5  -2  -8  256.27   19.80 
  -5   2  -8  243.68   19.50 
   5   2   8  259.77   19.40 
   5  -2  -8  255.07   17.70 
  -5  -2   8  225.48   19.30 
   5   2   8  225.88   28.00 
   6   2  -8  166.98   12.30 
   6   2  -8  171.38   14.60 
   6  -2   8  174.58   13.30 
  -6   2   8  159.38   18.20 
   6  -2   8  161.98   11.50 
   6   2   8  164.38   13.80 
  -6  -2   8  143.59   15.80 
   6  -2  -8  166.88   14.30 
  -6  -2   8  149.99   13.20 
   6  -2  -8  165.38   12.50 
   6   2   8  155.28   11.70 
  -6   2  -8  142.39   11.60 
   7  -2   8   77.29    7.20 
   7   2  -8   69.09    8.10 
   7  -2   8   69.49    5.80 
  -7   2   8   61.09   12.70 
   7   2  -8   73.99    6.70 
  -7  -2   8   57.39    8.90 
   7   2   8   69.29    6.10 
   7  -2  -8   64.79    7.90 
   7   2   8   64.09    7.30 
   7  -2  -8   64.19    6.50 
   0   3   8  284.57   26.50 
   0   3   8  245.68   15.40 
   0   3  -8  238.68   18.90 
   0  -3   8  220.68   15.00 
   0   3  -8  239.78   18.90 
   0  -3  -8  246.78   18.80 
   0  -3   8  243.28   17.70 
   0   3   8  224.18   20.80 
   0  -3   8  237.58   18.50 
   0  -3  -8  249.58   16.70 
   0   3   8  228.48   16.90 
   0  -3  -8  240.38   18.50 
   0   3  -8  239.28   16.80 
   0   3   8  217.68   17.70 
   0  -3  -8  211.08   29.10 
   0  -3   8  237.68   17.00 
   0  -3   8  275.17   23.40 
   1   3  -8  764.22   50.99 
  -1  -3  -8  687.73   44.60 
   1  -3   8  813.12   54.29 
   1  -3   8  736.63   46.60 
   1  -3   8  737.43   45.50 
  -1   3   8  744.53   46.90 
   1   3  -8  747.83   48.00 
  -1   3   8  807.32   56.19 
  -1  -3  -8  753.42   47.90 
   1   3  -8  781.92   45.80 
   1  -3   8  734.83   44.00 
  -1  -3   8  772.02   46.50 
  -1   3  -8  676.63   44.90 
   1   3   8  639.04   52.29 
   1   3   8  774.82   44.50 
   1  -3  -8  779.22   45.70 
   1  -3  -8  728.23   47.50 
   1   3   8  739.43   46.30 
  -1  -3   8  675.23   53.49 
   1  -3  -8  588.74   52.09 
   1   3   8  717.23   46.80 
  -1   3  -8  751.82   48.00 
  -1   3  -8  719.83   47.40 
   1  -3  -8  663.53   60.09 
   2  -3   8   23.60    2.90 
   2   3  -8   18.00    4.40 
   2  -3   8   28.40    4.60 
   2   3  -8   22.20    3.60 
  -2  -3  -8   25.60    5.50 
   2  -3   8   17.90    5.50 
   2   3  -8   24.40    5.00 
   2  -3  -8   30.20    5.30 
  -2  -3   8   22.80    4.50 
   2  -3  -8   31.10   11.40 
  -2  -3   8   25.10    4.10 
   2  -3  -8   22.80    5.80 
   2   3   8   26.00    3.30 
  -2   3  -8   22.30    5.10 
   2  -3  -8   19.90    3.70 
   3  -3   8  281.17   21.50 
   3  -3   8  283.47   22.10 
   3  -3   8  284.17   20.10 
   3   3  -8  294.27   23.30 
   3  -3   8  285.17   28.90 
  -3  -3  -8  312.57   23.60 
  -3   3   8  320.37   26.40 
  -3   3   8  305.37   22.40 
   3   3  -8  282.57   21.20 
   3   3   8  363.36   23.50 
  -3  -3   8  317.47   23.80 
   3   3   8  362.56   21.10 
   3   3   8  297.67   31.00 
   3  -3  -8  299.17   33.90 
   3  -3  -8  373.36   22.00 
   3  -3  -8  353.66   24.10 
  -3   3  -8  313.37   24.10 
   3   3   8  320.87   23.10 
  -3  -3   8  344.57   22.20 
  -4   3   8  183.68   13.70 
   4   3  -8  176.58   13.30 
   4  -3   8  161.98   14.20 
   4  -3   8  159.28   11.90 
   4  -3   8  187.18   13.90 
  -4  -3  -8  189.78   15.40 
   4   3  -8  193.78   15.70 
  -4   3   8  186.48   18.90 
  -4  -3  -8  190.68   14.40 
   4  -3   8  156.68   20.20 
  -4  -3   8  151.28   14.70 
   4   3   8  167.08   14.50 
  -4  -3   8  170.28   12.80 
   4  -3  -8  176.48   15.20 
   4   3   8  167.18   12.50 
   4  -3  -8  149.59   23.10 
  -4  -3   8  166.88   15.60 
   4   3   8  152.08   21.60 
   4  -3  -8  171.08   13.10 
  -5   3   8    1.50    1.20 
  -5  -3  -8    3.80    1.90 
   5  -3   8   -0.60    1.00 
   5  -3   8   -2.40    1.30 
   5  -3   8    3.20    3.40 
   5   3  -8    2.80    1.80 
  -5   3   8   -0.90    2.40 
  -5  -3  -8   -0.20    1.90 
   5   3  -8   -0.20    2.00 
   5   3   8   -0.20    1.70 
  -5  -3   8    5.50    3.00 
   5  -3  -8    0.50    1.60 
   5  -3  -8    2.80    2.50 
   5   3   8    3.60    5.00 
   5   3   8   -1.00    1.00 
  -5  -3   8    1.70    2.20 
   5  -3  -8  -12.20   17.20 
  -5   3  -8   -3.10    1.40 
  -5  -3   8   -3.50    2.50 
   6   3  -8   67.49    8.00 
   6   3  -8   53.29    5.70 
  -6   3   8   41.70    8.70 
   6  -3   8   58.19    6.40 
   6  -3   8   46.90    4.70 
  -6   3  -8   36.80    4.80 
  -6  -3   8   38.00    6.30 
   6   3   8   57.29    7.10 
   6  -3  -8   54.39    5.70 
   6   3   8   49.20    5.10 
  -6  -3   8   42.60    7.40 
   6  -3  -8   53.59    7.30 
  -7   3   8   55.99    9.80 
   7  -3   8   56.29    5.10 
   7  -3   8   65.89    6.50 
   7   3  -8   39.90    9.10 
   7   3  -8   58.99    6.10 
  -7  -3   8   39.90    7.30 
   7  -3  -8   52.49    5.50 
   7  -3  -8   54.29    7.70 
   7   3   8   62.89    7.10 
  -7  -3   8   44.30    7.60 
   7   3   8   60.09    5.40 
   0   4   8 1363.96   94.89 
   0   4   8 1183.18   73.19 
   0  -4  -8 1245.08   73.09 
   0  -4  -8 1192.28   75.59 
   0  -4  -8 1219.48   94.09 
   0  -4  -8 1200.18   75.09 
   0   4  -8 1169.48   75.59 
   0  -4   8 1221.28   81.99 
   0   4  -8 1221.28   73.19 
   0  -4   8 1270.67   74.39 
   0   4   8 1252.07   73.09 
   0   4  -8 1286.67   76.59 
   0  -4   8 1090.29   71.69 
   0   4   8 1079.39   78.39 
   0   4   8 1174.78   74.79 
   1  -4   8  199.38   12.80 
   1  -4   8  198.88   15.30 
   1   4  -8  203.78   16.80 
   1  -4   8  186.38   16.90 
   1   4  -8  181.58   14.20 
   1  -4   8  207.58   21.40 
  -1  -4  -8  157.58   15.40 
   1   4  -8  199.68   17.10 
  -1  -4  -8  196.68   16.30 
  -1   4   8  209.48   15.80 
   1  -4   8  202.88   14.20 
   1  -4  -8  191.08   26.70 
   1   4   8  204.58   13.40 
  -1   4  -8  185.88   16.70 
   1  -4  -8  185.08   14.10 
   1   4   8  190.98   15.60 
  -1  -4   8  186.28   20.00 
   1  -4  -8  190.08   21.60 
   1  -4  -8  181.48   16.00 
   1   4   8  188.58   15.10 
  -1  -4   8  198.48   15.00 
  -1   4  -8  176.38   13.60 
  -2  -4  -8  152.28   14.50 
  -2   4   8  158.08   13.80 
   2   4  -8  163.08   14.90 
   2  -4   8  171.88   19.70 
   2   4  -8  141.89   14.70 
   2  -4   8  160.78   11.40 
   2  -4   8  160.08   12.80 
   2  -4   8  161.98   13.60 
   2   4  -8  163.08   12.80 
  -2   4  -8  174.18   15.50 
   2  -4  -8  157.88   24.10 
  -2  -4   8  175.88   13.60 
   2   4   8  169.38   14.00 
   2   4   8  177.78   12.20 
   2   4   8  164.28   14.20 
   2  -4  -8  171.38   12.80 
   2  -4  -8  172.48   14.70 
   2  -4  -8  185.78   15.00 
   3  -4   8  335.27   21.80 
   3   4  -8  345.37   25.70 
   3  -4   8  340.17   24.10 
   3  -4   8  336.37   31.70 
  -3   4   8  367.96   29.00 
   3  -4   8  368.36   23.70 
  -3  -4  -8  346.97   25.60 
   3   4  -8  339.27   23.20 
   3  -4  -8  302.17   36.00 
   3   4   8  352.56   22.60 
  -3  -4   8  307.17   23.80 
   3   4   8  348.97   24.80 
   3  -4  -8  300.67   25.10 
   3  -4  -8  349.27   23.20 
  -3  -4   8  355.66   23.60 
   3  -4  -8  346.67   25.40 
  -4   4   8   20.50    6.70 
   4  -4   8   13.30    5.60 
  -4  -4  -8   24.00    4.90 
  -4   4   8   19.80    3.90 
  -4  -4  -8   22.80    6.10 
   4   4  -8   22.60    5.30 
   4  -4  -8   11.30    4.10 
   4  -4  -8   14.90    9.20 
  -4  -4   8    7.60    3.30 
   4   4   8    6.80    3.20 
  -4  -4   8    9.50    4.10 
   4   4   8   11.80    2.90 
  -4   4  -8   13.20    4.00 
  -4  -4   8    9.60    2.80 
   4  -4  -8   14.40    3.30 
  -5   4   8   19.80    3.30 
   5  -4   8   33.80    7.30 
   5   4  -8   26.90    4.10 
   5  -4   8   19.90    6.80 
  -5  -4  -8   28.00    5.10 
  -5   4   8   17.90    6.50 
   5  -4   8   23.30    3.20 
  -5  -4  -8   17.50    4.20 
  -5   4  -8   28.20    5.40 
   5  -4  -8    8.90   14.00 
  -5  -4   8   19.10    5.30 
   5   4   8   21.90    3.40 
   5  -4  -8   18.10    3.70 
  -5  -4   8   19.30    6.00 
   5  -4  -8   24.50    8.10 
   6   4  -8   94.29   10.80 
   6   4  -8  101.99    8.90 
  -6  -4  -8  -66.99   89.39 
  -6  -4  -8  100.89    9.70 
   6  -4   8   91.89    7.60 
  -6   4   8   75.49   12.30 
   6  -4   8  104.89    9.20 
  -6  -4   8   96.99   10.50 
   6   4   8  105.19    8.30 
   6   4   8  104.99   10.20 
   6  -4  -8  103.39    8.80 
   6  -4  -8  102.99   10.70 
  -6   4  -8   83.29    7.70 
  -7   4   8   28.70    7.00 
   7   4  -8   41.00    4.80 
   7  -4   8   39.80    4.00 
   7  -4   8   28.90    7.50 
   7  -4   8   43.20    5.10 
   7   4  -8   51.89    7.00 
   7  -4  -8   44.40    6.40 
   7   4   8   36.60    5.60 
  -7  -4   8   30.70    5.20 
  -7  -4   8   29.50    5.50 
   7   4   8   37.60    4.10 
   7  -4  -8   37.40    4.40 
   0  -5  -8  254.87   34.80 
   0   5   8  282.47   21.30 
   0  -5  -8  288.97   21.40 
   0   5  -8  306.77   22.50 
   0   5  -8  291.87   22.40 
   0  -5   8  290.47   20.60 
   0  -5  -8  276.97   22.00 
   0   5   8  271.97   17.90 
   0  -5   8  269.87   27.50 
   0  -5  -8  272.97   19.10 
   0   5  -8  280.67   19.50 
   1   5  -8  545.25   36.60 
   1  -5   8  503.45   35.90 
   1   5  -8  536.05   33.80 
   1  -5   8  548.65   34.90 
   1   5  -8  525.35   36.50 
  -1   5   8  522.05   35.40 
  -1  -5  -8  509.65   36.10 
   1  -5   8  536.75   43.20 
  -1  -5  -8  459.75   69.29 
   1  -5   8  503.25   36.60 
   1  -5   8  472.75   31.70 
   1   5   8  516.25   32.40 
   1   5   8  535.35   34.70 
  -1   5  -8  488.05   32.60 
   1  -5  -8  484.75   62.59 
   1  -5  -8  534.15   36.40 
  -1   5  -8  536.75   36.70 
   1  -5  -8  520.45   35.70 
   1   5   8  528.95   35.60 
   1  -5  -8  519.65   33.50 
  -1  -5   8  570.34   34.80 
  -1  -5   8  526.55   42.50 
  -2  -5  -8  239.58   19.70 
   2   5  -8  232.98   19.60 
   2  -5   8  224.28   24.70 
   2  -5   8  227.88   18.10 
   2  -5   8  235.78   15.70 
   2  -5   8  215.58   20.50 
   2  -5   8  229.18   17.20 
  -2   5   8  246.28   19.00 
   2   5  -8  233.48   17.30 
   2   5  -8  245.28   19.90 
   2  -5  -8  229.78   17.10 
   2  -5  -8  245.18   19.70 
   2   5   8  237.38   19.00 
   2  -5  -8  230.48   31.30 
   2   5   8  263.87   18.90 
  -2  -5   8  263.97   18.10 
  -2   5  -8  253.27   20.00 
   2  -5  -8  254.87   19.60 
   2   5   8  223.98   16.30 
  -3   5   8  137.79   18.90 
  -3  -5  -8  116.99   15.30 
   3  -5   8  131.49   18.30 
   3  -5   8  122.79   14.90 
  -3   5   8  130.39   16.70 
   3  -5   8  109.99   12.10 
   3   5  -8  136.79   13.80 
   3  -5   8  143.69   12.50 
   3   5  -8  134.89   13.90 
   3  -5   8  149.59   11.90 
   3   5   8  142.99   13.20 
  -3   5  -8  168.58   18.70 
   3  -5  -8  171.08   14.30 
   3  -5  -8  148.29   14.10 
   3  -5  -8  174.08   14.50 
   3  -5  -8  150.08   23.40 
   3   5   8  170.18   13.70 
   4  -5   8  259.97   28.00 
   4  -5   8  310.07   20.90 
   4   5  -8  298.57   20.60 
   4   5  -8  320.47   23.70 
   4  -5   8  293.27   19.00 
   4  -5   8  241.18   24.70 
   4  -5   8  266.77   21.20 
  -4  -5  -8  293.47   20.70 
  -4   5   8  294.37   21.00 
  -4  -5  -8  293.57   22.60 
  -4   5   8  305.27   26.60 
   4  -5  -8  223.88   32.90 
  -4  -5   8  261.07   19.60 
   4   5   8  292.77   19.80 
  -4   5  -8  312.37   22.70 
   4   5   8  313.27   22.40 
   4  -5  -8  314.27   23.10 
  -4  -5   8  327.07   23.70 
   4  -5  -8  287.87   20.40 
  -5  -5  -8  210.48   16.30 
   5   5  -8  219.58   16.10 
  -5   5   8  192.08   14.60 
   5  -5   8  222.08   16.30 
  -5  -5  -8  187.28   16.50 
  -5  -5  -8   74.29  187.08 
   5   5  -8  232.28   19.00 
  -5   5   8  215.58   21.50 
  -5  -5   8  177.58   16.10 
  -5   5  -8  234.68   17.20 
   5   5   8  219.88   15.40 
  -5  -5   8  232.18   18.80 
   5  -5  -8  226.58   16.10 
   5  -5  -8  234.78   18.60 
   5   5   8  224.68   17.80 
   6   5  -8   28.50    4.20 
   6   5  -8   32.20    6.30 
   6  -5   8   17.90    5.80 
  -6  -5  -8  -42.20   96.09 
  -6   5   8   25.30    7.40 
  -6   5  -8   30.40    5.20 
  -6  -5   8   22.10    5.00 
   6  -5  -8   24.00    4.40 
   6   5   8   23.20    4.20 
  -6  -5   8   19.50    4.70 
   0  -6  -8  114.39   23.00 
   0  -6  -8  124.99   10.60 
   0   6  -8  142.59   11.10 
   0  -6  -8  147.69   13.20 
   0   6  -8  156.18   13.80 
   0   6   8  147.49   13.40 
   0   6  -8  135.69   13.80 
   0  -6   8  140.09   19.10 
   0  -6  -8  146.09   13.90 
   0  -6   8  151.38   12.50 
  -1   6   8   79.39    9.20 
   1   6  -8   80.49   10.10 
   1  -6   8   82.69    8.80 
   1  -6   8   83.09   14.40 
   1   6  -8   84.19    8.00 
   1   6  -8   72.79    9.50 
  -1  -6  -8   84.99   10.00 
   1  -6   8   79.79    8.40 
   1  -6   8   74.39    6.20 
   1  -6   8   68.69   10.10 
  -1  -6   8   93.19    9.00 
   1  -6  -8   82.89    9.80 
   1  -6  -8   76.89   19.10 
   1   6   8   92.39    7.00 
  -1   6  -8   81.89    9.80 
   1   6   8   94.19    9.40 
   1   6   8  101.99    9.80 
  -1  -6   8   77.69   13.70 
   1  -6  -8   85.69    9.80 
   1  -6  -8   83.89    7.70 
   2  -6   8  132.09   14.80 
   2  -6   8  139.99   14.60 
  -2  -6  -8  155.88   14.60 
  -2   6   8  163.68   14.00 
   2  -6   8  134.49   11.00 
   2   6  -8  134.39   13.90 
   2  -6   8  121.29   18.30 
   2   6  -8  139.19   14.20 
   2   6  -8  144.49   12.10 
   2  -6  -8  162.08   16.40 
   2   6   8  134.79   16.80 
   2  -6  -8  164.48   12.20 
   2   6   8  145.19   11.00 
  -2   6  -8  148.59   14.00 
  -2  -6   8  172.68   13.20 
   2   6   8  160.98   13.40 
   2  -6  -8  163.38   14.30 
   3  -6   8  260.87   18.90 
  -3   6   8  276.97   20.20 
  -3  -6  -8  245.48   20.80 
  -3   6   8  283.57   24.20 
   3   6  -8  251.97   18.70 
   3  -6   8  220.18   22.00 
   3  -6   8  264.37   19.60 
   3  -6   8  227.68   16.80 
   3  -6   8  216.98   25.80 
   3   6  -8  257.67   21.40 
  -3  -6   8  303.17   21.80 
   3  -6  -8  283.87   21.20 
   3   6   8  257.27   17.70 
   3  -6  -8  270.27   18.50 
  -3   6  -8  254.07   20.50 
  -3  -6   8  273.17   19.00 
   3  -6  -8  221.78   30.70 
   3   6   8  256.27   20.50 
   3   6   8  276.07   20.30 
   3  -6  -8  246.08   20.70 
  -4  -6  -8   28.30  105.49 
   4   6  -8  106.89   11.70 
   4  -6   8   79.49   12.20 
   4  -6   8   85.39    9.40 
   4  -6   8  103.39    7.90 
   4   6  -8  102.49    9.30 
  -4   6   8  110.79   13.40 
  -4  -6  -8   95.59   10.40 
  -4  -6   8   98.99    8.40 
   4  -6  -8   95.69    8.90 
  -4  -6   8  109.99   11.60 
   4  -6  -8  109.09   11.20 
  -4   6  -8   92.89   10.10 
   4   6   8  103.09   10.40 
   4   6   8   91.99    8.30 
   5  -6   8    7.00    4.20 
  -5   6   8   11.30    5.00 
  -5  -6  -8    9.70    3.50 
   5   6  -8   15.80    4.70 
   5  -6   8   15.00    2.50 
  -5  -6  -8   47.10  144.69 
   5  -6   8   15.10    3.40 
  -5   6   8   12.80    2.70 
   5   6  -8   18.80    3.70 
   5  -6  -8   11.80    3.80 
   5   6   8    9.90    3.20 
   5  -6  -8    8.10    2.90 
   5   6   8   13.50    2.90 
  -5   6  -8    9.60    3.10 
  -5  -6   8   11.50    4.40 
   6  -6   8   67.59    6.10 
   6  -6   8   73.39    8.30 
  -6   6   8   59.29    9.50 
   6   6  -8   87.29   13.30 
   6   6  -8   80.39    7.40 
   6   6   8   76.49    6.70 
  -6  -6   8   75.49    8.70 
   6  -6  -8   84.89   11.50 
   6   6   8   88.69   10.20 
   6  -6  -8   80.19    7.40 
   0  -7   8  152.18   13.00 
   0   7   8  153.98   13.90 
   0  -7  -8  139.39   14.10 
   0  -7  -8  130.49   23.60 
   0   7  -8  153.88   14.10 
   0  -7   8  124.39   18.30 
   0   7  -8  151.78   11.10 
  -1   7   8   74.29    8.50 
   1  -7   8   81.69    8.20 
   1   7  -8   60.79    8.40 
   1   7  -8   73.09    9.50 
  -1  -7  -8   73.19    9.10 
  -1  -7  -8   38.70   15.30 
   1   7  -8   72.19    6.80 
   1   7   8   61.79    8.10 
  -1   7  -8   57.69    8.10 
  -1  -7   8   63.59    7.30 
   1  -7  -8   70.99   16.30 
   1  -7  -8   57.59    8.60 
   1  -7  -8   55.19    8.10 
   1  -7  -8   51.19    6.00 
   1   7   8   50.59    5.20 
   2  -7   8   35.40    8.10 
   2  -7   8   46.80    4.40 
  -2  -7  -8   52.99    7.70 
  -2   7   8   67.99    7.90 
   2  -7   8   33.30    9.40 
   2   7  -8   37.10    9.90 
   2  -7   8   58.99    6.90 
   2   7  -8   64.29    7.80 
   2   7  -8   52.69    6.10 
   2  -7  -8   40.70   10.10 
  -2  -7   8   55.79    6.50 
   2   7   8   49.00    4.90 
  -2   7  -8   53.79    7.40 
   2   7   8   53.69    7.50 
   2  -7  -8   43.60    7.40 
   2  -7  -8   48.40    5.60 
   3  -7   8   71.79   13.50 
   3   7  -8   95.49    8.90 
   3  -7   8  102.69    9.10 
   3   7  -8   99.19   11.50 
   3  -7   8   85.99    9.40 
   3  -7   8   87.39    7.30 
  -3   7   8  107.09   10.20 
  -3  -7  -8   88.99   10.90 
  -3   7   8  106.09   12.50 
  -3   7  -8   99.79   10.60 
   3   7   8   97.59    8.00 
  -3  -7   8  106.19   11.40 
  -3  -7   8  100.79    9.00 
   3   7   8   92.99   10.60 
   3   7   8   92.59    9.90 
   3  -7  -8   76.09   11.10 
   3  -7  -8  108.69   10.80 
   3  -7  -8   93.79    8.50 
  -4  -7  -8   98.89   10.50 
  -4   7   8   95.19   12.40 
  -4  -7  -8  125.69  178.08 
   4  -7   8  118.99    9.70 
   4  -7   8   76.79   11.80 
   4   7  -8  125.99   12.50 
   4   7  -8  112.19    9.60 
   4  -7   8  111.69    8.10 
   4  -7   8   88.39    9.40 
   4  -7  -8  121.79   11.50 
  -4  -7   8   91.29    8.30 
   4  -7  -8  101.89    9.00 
   4   7   8   99.79    8.40 
   4   7   8  113.89   10.60 
  -4   7  -8  100.79   10.40 
  -4  -7   8  108.19   11.40 
  -5   7   8   10.90    4.00 
  -5  -7  -8    4.30    2.70 
   5   7  -8    9.90    2.70 
  -5   7   8    7.10    2.10 
   5  -7   8   12.40    3.80 
   5   7  -8    6.60    3.30 
   5  -7   8    8.40    2.00 
   5  -7   8    9.50    4.50 
   5   7   8   13.00    3.50 
  -5  -7   8   13.80    4.30 
   5  -7  -8   11.30    3.20 
  -5   7  -8   10.80    3.00 
   5   7   8    8.50    2.20 
   5  -7  -8   13.20    3.10 
   0  -8   8  140.99   12.20 
   0   8   8  140.99   13.00 
   0   8  -8  117.69    9.70 
   0  -8  -8  128.99   13.70 
   0   8  -8  132.09   12.90 
  -1  -8  -8   56.39    8.00 
  -1   8   8   48.90    7.10 
   1   8  -8   55.69    8.50 
   1   8  -8   55.49    7.40 
   1  -8   8   61.49    7.20 
   1   8  -8   56.89    5.70 
   1   8   8   56.09    7.80 
   1  -8  -8   41.90    5.20 
  -1  -8   8   56.69    6.90 
   1  -8  -8   52.39    7.90 
  -1   8  -8   55.09    7.80 
   2  -8   8   30.20    8.50 
   2   8  -8   38.30    6.50 
   2  -8   8   38.10    5.80 
   2   8  -8   37.80    5.10 
   2   8  -8   53.19    7.90 
  -2   8   8   48.40    7.90 
  -2   8   8   52.09    6.80 
  -2  -8  -8   35.20    6.90 
   2  -8   8   32.80    4.90 
   2   8   8   41.60    4.10 
   2   8   8   38.70    7.00 
   2  -8  -8   46.70    7.30 
  -2   8  -8   42.70    6.60 
   2  -8  -8   39.50    6.80 
  -2  -8   8   50.29    5.90 
  -2  -8   8   49.30    7.50 
   2  -8  -8   36.20    4.60 
   2   8   8   51.19    6.90 
   3   8  -8   27.00    4.60 
   3  -8   8   24.00    4.50 
  -3  -8  -8   23.00    5.30 
  -3  -8  -8   36.00   96.29 
  -3   8   8   27.50    4.70 
   3  -8   8   28.50    4.70 
   3   8  -8   29.60    6.00 
  -3   8   8   31.30    6.30 
  -3   8  -8   29.80    5.70 
   3   8   8   26.50    4.90 
   3  -8  -8   21.00    6.30 
   3   8   8   24.50    5.50 
  -3  -8   8   29.60    4.40 
   3  -8  -8   26.90    5.20 
   3   8   8   25.70    3.30 
   3  -8  -8   17.90    3.50 
  -3  -8   8   24.60    5.80 
   4  -8   8  113.19    9.20 
   4  -8   8   95.49    7.30 
   4  -8   8  102.29    9.10 
   4   8  -8  118.39   11.70 
  -4  -8  -8   91.69    9.70 
   4   8  -8  112.69    9.10 
  -4   8   8   90.29   11.00 
   4  -8  -8  125.39   15.30 
   4   8   8   97.09   10.50 
   4  -8  -8   90.29    8.30 
   4   8   8  101.29    7.80 
  -4  -8   8   82.89    7.60 
  -4   8  -8  102.09    9.60 
   5   8  -8   17.80    3.30 
   5   8  -8   29.40    5.30 
  -5   8   8   14.70    4.50 
   5  -8   8   18.70    2.40 
   5  -8   8   23.10    3.90 
  -5  -8  -8   13.80    2.80 
   5   8   8   17.70    3.60 
   5   8   8   16.30    2.50 
  -5  -8   8   16.50    4.40 
   5  -8  -8   13.30    2.90 
   5  -8  -8   12.10    3.80 
   0  -9   8   -0.40    1.40 
   0   9   8   -1.00    1.90 
   0   9  -8    1.20    2.70 
   0  -9  -8    2.00    2.40 
   1  -9   8   13.80    4.40 
  -1  -9  -8   16.40    4.40 
   1   9  -8   20.30    4.80 
  -1   9   8   30.50    6.30 
  -1   9   8   20.30    4.60 
   1   9  -8   15.20    2.60 
   1  -9  -8   15.80    4.80 
   1   9   8   15.70    4.70 
  -1  -9   8   19.50    4.00 
  -1   9  -8   26.20    6.20 
  -1  -9   8   23.40    6.60 
  -2   9   8    2.90    2.30 
  -2  -9  -8    0.70    2.30 
   2   9  -8    2.10    1.50 
   2  -9   8    1.50    2.20 
  -2   9   8    0.90    1.70 
   2   9  -8    4.70    3.00 
   2   9  -8   -7.70    4.00 
   2   9   8    3.10    1.70 
  -2   9  -8    3.40    2.90 
   2  -9  -8   -0.90    2.80 
  -2  -9   8    3.00    3.00 
  -2  -9   8    1.80    1.70 
   2  -9  -8    1.40    1.70 
   2   9   8    5.40    2.80 
   3   9  -8  134.49   12.20 
   3   9  -8  135.89    9.80 
  -3   9   8  125.19   10.70 
   3  -9   8  113.09   10.50 
  -3  -9  -8  115.49   11.40 
  -3   9   8  117.49   11.50 
   3   9   8  102.99   10.80 
   3  -9  -8  106.79    9.00 
  -3  -9   8  125.09    9.90 
   3  -9  -8  111.39   12.80 
   3  -9  -8  140.39   11.50 
   3   9   8  115.49    8.40 
  -3   9  -8  131.69   11.20 
   0  10  -8   -1.40    1.30 
   0 -10   8    1.70    1.80 
   0  10   8    1.10    1.70 
   0 -10   8    0.10    1.50 
   0  10   8    0.60    1.70 
   0 -10  -8    0.00    1.90 
  -1  10   8   22.90    4.60 
   1 -10   8   20.90    3.60 
  -1 -10  -8   25.30    5.30 
  -1  10   8   22.00    4.40 
   1 -10   8   28.70    4.40 
   1  10  -8   27.50    4.90 
  -1 -10   8   32.30    4.90 
   1 -10  -8   32.40    5.80 
   1  10   8   28.30    4.50 
  -1 -10   8   27.10    4.20 
  -1  10  -8   22.10    4.40 
   0   0  -9    0.30    2.10 
   0   0   9    0.10    1.50 
   0   0   9    2.70    2.80 
   0   0   9    5.40    1.40 
   0   0  -9    0.10    1.40 
   0   0  -9    4.40    2.60 
   1   0  -9  295.87   19.90 
   1   0  -9  252.17   27.30 
   1   0   9  299.27   26.00 
   1   0   9  279.07   21.10 
   1   0   9  284.67   19.90 
   1   0  -9  284.27   22.10 
   1   0   9  290.97   18.40 
  -1   0   9  298.47   22.60 
  -1   0  -9  295.77   22.20 
  -1   0   9  295.87   21.10 
  -1   0  -9  274.07   19.30 
   2   0  -9  648.94   43.60 
  -2   0  -9  697.23   44.30 
   2   0   9  630.94   40.00 
   2   0  -9  664.13   41.50 
   2   0  -9  654.23   44.10 
  -2   0   9  680.83   42.60 
  -2   0   9  657.93   44.90 
   2   0   9  645.94   49.99 
   2   0   9  653.23   41.90 
   2   0   9  637.34   42.70 
  -3   0   9  575.04   38.40 
   3   0   9  588.04   36.60 
   3   0  -9  582.14   37.70 
  -3   0   9  609.54   42.30 
  -3   0  -9  602.44   40.50 
   3   0   9  616.34   38.60 
   3   0  -9  594.44   40.10 
   3   0   9  571.44   39.00 
   4   0  -9   -0.10    1.50 
  -4   0   9   -0.60    3.00 
   4   0   9    0.00    1.10 
  -4   0  -9    1.80    2.10 
   4   0  -9    2.50    2.40 
   4   0   9    2.00    2.10 
   4   0   9    0.60    3.90 
   4   0   9    6.80    3.50 
  -5   0   9  271.87   19.50 
   5   0   9  344.07   20.80 
  -5   0   9  357.66   27.70 
   5   0   9  301.37   31.60 
   5   0  -9  351.76   22.00 
  -5   0  -9  274.27   23.20 
  -6   0  -9   15.70    3.50 
   6   0   9   19.20    4.20 
   6   0  -9   16.60    4.50 
   6   0  -9   20.10    3.70 
   6   0   9   21.20    3.00 
  -6   0   9   17.70    6.10 
   7   0  -9   -0.40    2.00 
   7   0   9    0.10    1.70 
   7   0  -9    1.70    1.60 
  -7   0   9    1.10    2.80 
   7   0   9    0.20    1.00 
   0   1   9  345.97   21.80 
   0  -1   9  347.77   28.70 
   0   1   9  356.06   24.90 
   0  -1   9  348.47   27.90 
   0  -1   9  341.77   21.70 
   0   1  -9  360.36   23.70 
   0  -1  -9  361.36   23.60 
   0  -1  -9  351.86   25.60 
   0   1  -9  351.56   25.70 
   0  -1  -9  361.86   26.10 
   0  -1   9  358.16   24.80 
   0   1  -9  344.07   26.00 
   0   1   9  365.26   28.10 
  -1   1   9  327.47   22.60 
  -1  -1  -9  311.27   23.60 
   1   1  -9  298.97   23.40 
   1   1  -9  303.37   23.60 
   1  -1   9  310.57   19.80 
   1  -1   9  327.17   27.90 
  -1  -1  -9  287.87   20.60 
   1  -1   9  299.77   22.40 
   1   1  -9  316.17   21.40 
   1  -1   9  290.87   21.10 
   1  -1  -9  312.67   23.60 
   1   1   9  304.27   21.50 
   1  -1  -9  339.07   21.60 
   1  -1  -9  305.27   24.40 
   1   1   9  318.07   27.80 
   1   1   9  333.27   20.10 
   1   1   9  320.07   22.70 
  -1  -1   9  323.77   22.50 
  -1  -1   9  322.47   23.50 
  -1   1  -9  315.07   23.80 
  -2   1   9  661.23   45.20 
   2   1  -9  653.33   43.40 
   2  -1   9  604.54   39.50 
   2   1  -9  602.84   40.80 
   2  -1   9  657.63   49.60 
   2   1  -9  619.04   43.40 
   2  -1   9  630.64   41.30 
  -2   1   9  628.44   42.10 
  -2  -1  -9  620.24   43.40 
   2  -1   9  616.64   42.10 
  -2   1  -9  690.33   44.10 
   2  -1  -9  666.23   43.40 
  -2  -1   9  649.64   44.00 
   2   1   9  661.73   50.39 
   2   1   9  657.93   42.60 
   2  -1  -9  673.83   43.80 
  -2  -1   9  731.23   42.50 
   2   1   9  650.93   41.70 
   2   1   9  654.73   39.80 
   2  -1  -9  689.73   41.30 
   3  -1   9  234.18   16.20 
  -3   1   9  264.87   22.00 
   3   1  -9  242.28   19.60 
  -3   1   9  239.88   18.20 
   3  -1   9  234.58   25.20 
   3   1  -9  249.38   17.60 
   3  -1   9  227.18   18.50 
  -3  -1  -9  260.07   20.10 
   3  -1   9  244.08   18.00 
   3   1   9  231.08   18.10 
   3  -1  -9  248.18   17.60 
  -3  -1   9  257.67   18.30 
  -3   1  -9  257.37   20.10 
   3  -1  -9  245.78   19.60 
  -3  -1   9  243.78   20.80 
   3   1   9  235.38   34.20 
   3   1   9  243.68   16.50 
   3   1   9  238.08   18.70 
  -4   1   9  171.78   17.60 
   4  -1   9  144.29   14.00 
   4  -1   9  173.78   14.10 
  -4  -1  -9  166.38   15.40 
   4   1  -9  184.58   15.80 
  -4   1   9  148.89   13.50 
   4  -1   9  164.58   12.30 
   4   1  -9  177.98   13.50 
   4  -1   9  156.78   20.50 
   4   1   9  197.38   12.90 
  -4  -1   9  169.98   18.50 
  -4  -1   9  158.48   14.10 
   4   1   9  200.78   14.80 
   4  -1  -9  183.28   13.70 
   4   1   9  167.58   22.10 
   4  -1  -9  203.78   16.20 
  -4   1  -9  179.38   15.90 
  -4  -1   9  205.28   14.50 
  -5   1   9   84.19   11.60 
   5  -1   9   81.09    6.40 
   5  -1   9   65.59   13.30 
  -5  -1  -9   78.49    8.40 
  -5   1   9   63.29    5.50 
   5   1  -9   90.39    7.70 
   5  -1  -9   68.49    7.20 
   5   1   9   56.99   12.40 
  -5   1  -9   50.79    7.40 
  -5  -1   9   64.59    5.90 
  -5  -1   9   67.19    9.90 
   5   1   9   72.69    6.30 
  -6  -1  -9   41.10    6.50 
   6  -1   9   62.69    6.70 
   6   1  -9   51.79    5.80 
   6   1  -9   57.99    7.50 
   6  -1   9   52.49    5.00 
  -6   1   9   53.09    9.30 
   6  -1  -9   54.29    7.40 
  -6   1  -9   39.10    5.40 
  -6  -1   9   47.60    8.50 
   6   1   9   58.99    5.20 
   6  -1  -9   50.89    5.90 
   6   1   9   55.59    6.70 
   7   1  -9   75.49    8.40 
   7   1  -9   68.49    6.70 
  -7   1   9   68.69   10.10 
   7  -1   9   75.79    6.00 
   7  -1   9   82.49    7.60 
   7  -1  -9   64.59    6.50 
   7  -1  -9   71.99    8.30 
   7   1   9   72.39    7.50 
  -7  -1   9   61.39    9.10 
   7   1   9   71.29    6.00 
   0   2  -9  509.65   34.00 
   0  -2  -9  478.05   31.00 
   0  -2  -9  480.95   33.50 
   0   2  -9  453.45   33.20 
   0  -2   9  499.15   32.50 
   0  -2  -9  487.95   33.30 
   0   2   9  455.25   29.10 
   0   2  -9  498.65   31.20 
   0  -2   9  471.25   37.10 
   0   2   9  477.45   32.50 
  -1  -2  -9  279.07   20.90 
   1   2  -9  289.67   23.30 
   1  -2   9  288.37   21.10 
  -1   2   9  305.67   22.60 
   1  -2   9  290.47   22.30 
   1   2  -9  305.77   21.40 
   1   2  -9  278.67   23.30 
   1  -2   9  289.37   19.70 
   1  -2   9  273.87   27.10 
  -1  -2  -9  281.47   23.20 
  -1  -2   9  338.87   28.20 
   1   2   9  333.27   21.90 
  -1   2  -9  342.37   24.30 
  -1   2  -9  333.97   21.00 
   1  -2  -9  329.67   23.80 
  -1  -2   9  286.57   23.60 
   1   2   9  339.17   23.10 
   1  -2  -9  334.37   23.80 
   1   2   9  353.86   20.30 
  -1  -2   9  346.07   22.80 
   1  -2  -9  346.87   21.70 
   1   2   9  310.67   27.90 
   2  -2   9  102.99    9.80 
  -2   2   9   96.39    9.50 
   2  -2   9   96.29    8.80 
   2   2  -9   80.99   10.30 
   2  -2   9   96.29   13.90 
   2   2  -9  100.79   10.60 
  -2  -2  -9  107.39   10.90 
   2  -2   9   94.39    7.50 
  -2   2   9  108.79   12.10 
   2   2  -9   89.19    8.60 
   2   2   9  107.79   10.00 
   2  -2  -9  104.39   10.70 
   2   2   9  112.29    9.60 
   2  -2  -9   87.59   15.90 
  -2  -2   9   90.09   10.00 
   2  -2  -9  100.29    8.80 
   2  -2  -9   97.79   10.50 
   2   2   9   84.99   14.20 
   2   2   9   97.39    7.80 
  -2   2  -9  107.89   10.90 
  -2  -2   9  107.09    9.70 
   3  -2   9   62.19    7.10 
   3  -2   9   69.19    5.90 
   3   2  -9   72.29    8.90 
  -3   2   9   69.19    7.60 
  -3   2   9   83.29   10.70 
   3  -2   9   68.89   12.40 
   3  -2   9   61.29    7.70 
  -3  -2  -9   66.09    8.50 
   3   2  -9   69.19    7.00 
   3   2   9   68.89    7.80 
   3   2   9   69.79    6.30 
  -3   2  -9   70.89    8.90 
  -3  -2   9   65.99    7.20 
   3  -2  -9   66.49    7.00 
  -3  -2   9   68.69    9.00 
   3  -2  -9   68.99    8.70 
   3   2   9   76.69    8.10 
   3   2   9   64.29   12.80 
   4  -2   9  438.96   40.10 
  -4  -2  -9  509.05   33.60 
   4   2  -9  521.05   33.70 
  -4   2   9  488.25   31.00 
  -4   2   9  515.15   37.50 
   4   2  -9  501.45   30.80 
   4  -2   9  491.35   29.40 
   4  -2   9  502.35   31.40 
   4  -2   9  419.26   34.80 
   4   2   9  387.16   40.40 
  -4  -2   9  428.46   33.80 
  -4  -2   9  418.36   31.80 
  -4  -2   9  447.76   30.20 
   4   2   9  465.85   29.70 
  -4   2  -9  395.86   32.60 
   4  -2  -9  484.95   33.20 
   4   2   9  478.25   31.90 
   4  -2  -9  478.25   30.70 
   5  -2   9  111.99    8.60 
  -5   2   9  116.39   14.50 
   5  -2   9   82.39   17.20 
  -5  -2  -9  109.09   10.80 
   5   2  -9  130.29   12.40 
  -5   2   9  101.69    8.10 
   5  -2   9  120.79   10.40 
   5   2  -9  119.99    9.90 
   5   2   9   86.89   15.50 
   5  -2  -9  122.49   11.90 
  -5  -2   9   98.69   10.20 
  -5  -2   9  114.59   12.70 
   5   2   9  124.39   11.00 
   5  -2  -9  117.49    9.90 
  -5   2  -9  105.09   10.70 
   5   2   9  110.19    8.90 
  -6   2   9   26.80    7.50 
   6  -2   9   25.70    3.30 
   6  -2   9   28.90    4.40 
   6   2  -9   27.90    4.30 
   6   2  -9   29.10    6.00 
   6   2   9   29.50    3.60 
   6   2   9   24.00    4.70 
  -6   2  -9   22.30    3.60 
  -6  -2   9   21.20    6.20 
   6  -2  -9   20.30    3.80 
   6  -2  -9   30.90    5.80 
  -7   2   9   22.70    6.90 
   7   2  -9   28.90    5.80 
   7   2  -9   29.00    4.00 
   7  -2   9   35.40    4.80 
   7  -2   9   29.30    3.50 
   7  -2  -9   33.20    4.00 
   7  -2  -9   32.90    5.80 
  -7  -2   9   22.30    6.10 
   7   2   9   37.90    3.80 
   7   2   9   37.10    5.10 
   0  -3   9   94.39   13.30 
   0  -3  -9  117.69   11.80 
   0   3   9   88.29    7.00 
   0   3  -9   95.29    8.50 
   0  -3   9  104.69    9.50 
   0  -3  -9   96.59    8.40 
   0  -3  -9  102.89   10.60 
   0   3  -9   88.39   10.40 
  -1  -3  -9   70.99    8.80 
   1   3  -9   80.49    9.50 
  -1   3   9   80.79    8.50 
   1   3  -9   73.59    7.50 
   1   3  -9   76.79    9.20 
   1  -3   9   84.49   12.80 
   1  -3   9   81.99    6.10 
   1  -3   9   71.49    8.10 
  -1   3  -9   72.79    9.20 
  -1  -3   9   78.49    8.20 
   1  -3  -9   86.49    9.40 
   1   3   9   82.39    8.20 
  -1   3  -9   75.19    7.10 
   1   3   9   69.99   12.10 
   1  -3  -9   75.39   16.30 
  -1  -3   9   62.19   11.60 
   1  -3  -9   79.99    9.10 
   1   3   9   81.29    8.60 
   1   3   9   73.29    6.30 
   1  -3  -9   76.39    7.50 
   2   3  -9   77.39    9.70 
   2   3  -9   73.49    7.40 
  -2  -3  -9   76.19    9.10 
  -2   3   9   62.59    7.70 
   2   3  -9   72.29    9.10 
   2  -3   9   67.49    7.80 
  -2   3   9   75.49   10.60 
   2  -3   9   74.99    7.50 
   2  -3   9   49.90   14.60 
   2  -3   9   75.59    6.10 
   2   3   9   71.39   11.90 
   2   3   9   76.39    8.00 
   2  -3  -9   82.09    9.10 
   2  -3  -9   46.30   19.10 
  -2   3  -9   86.89    9.90 
   2  -3  -9   71.39    8.70 
  -2  -3   9   67.19    8.80 
   2  -3  -9   82.99    7.50 
   2   3   9   70.99    8.10 
  -2  -3   9   81.89    8.10 
   2   3   9   79.79    6.50 
   3   3  -9  113.29   13.30 
   3  -3   9  137.99   10.80 
   3   3  -9  135.69   12.70 
   3  -3   9  110.89    9.90 
  -3   3   9  123.89   12.60 
  -3  -3  -9  120.29   15.30 
  -3   3   9  146.39   20.20 
   3  -3   9  131.29   17.40 
   3  -3   9  121.39   11.10 
  -3  -3   9  105.99   11.10 
  -3  -3   9  118.49   10.70 
   3   3   9  100.49   15.90 
   3  -3  -9  103.49   11.70 
   3   3   9  127.59   11.20 
   3  -3  -9   84.09   18.50 
   3  -3  -9  115.29   12.00 
   3   3   9  100.39   11.00 
   3   3   9  111.59   10.80 
  -3   3  -9  120.69   18.50 
  -4   3   9  123.39   15.00 
   4  -3   9  107.69   15.70 
   4  -3   9  117.69   10.80 
   4  -3   9  123.39    9.20 
  -4   3   9  117.69   10.50 
  -4  -3  -9  124.99   12.40 
   4   3  -9  129.19   10.60 
   4  -3   9  136.89   11.00 
   4   3  -9  131.39   12.90 
   4   3   9  132.99   11.60 
   4  -3  -9  134.29   12.80 
   4   3   9  126.59    9.60 
  -4  -3   9  113.19   12.00 
  -4  -3   9  121.19    9.90 
   4  -3  -9  126.99   10.60 
   4  -3  -9   95.29   18.00 
  -4  -3   9  114.69   12.10 
   4   3   9  102.19   17.20 
   5  -3   9    2.50    1.90 
  -5   3   9    4.70    1.60 
   5   3  -9   -2.10    1.90 
   5  -3   9    0.80    1.00 
   5   3  -9   -1.40    1.70 
  -5   3   9    3.70    4.30 
  -5  -3  -9   -1.80    2.20 
   5  -3  -9    2.10    2.90 
   5   3   9    2.60    1.60 
  -5  -3   9    4.30    2.70 
   5  -3  -9   -0.60    1.60 
   5   3   9    1.30    1.90 
  -5   3  -9    0.80    1.90 
  -5  -3   9    2.00    2.50 
   6   3  -9   11.40    3.50 
   6  -3   9    3.30    2.10 
   6  -3   9    5.60    1.80 
   6   3  -9    5.90    2.30 
  -6   3   9    3.10    4.30 
  -6   3  -9    5.20    2.40 
  -6  -3   9    1.30    2.90 
   6   3   9    5.50    2.60 
   6   3   9    9.80    2.60 
   6  -3  -9   12.90    3.50 
   6  -3  -9    6.70    3.00 
  -6  -3   9   -0.40    3.30 
   7  -3   9  145.19   10.70 
   7  -3   9  137.59    9.40 
  -7   3   9  130.99   14.20 
   7   3  -9  126.99   10.20 
   7   3  -9  129.99   12.10 
   7  -3  -9  127.09   10.30 
   7  -3  -9  125.59   11.60 
   7   3   9  143.39   11.40 
  -7  -3   9  115.09   12.20 
   7   3   9  126.59    9.60 
   0   4  -9  242.48   18.00 
   0  -4  -9  260.07   20.90 
   0   4  -9  273.27   21.70 
   0  -4   9  278.17   19.60 
   0  -4   9  244.68   25.40 
   0  -4  -9  280.57   20.60 
   0   4  -9  267.67   20.80 
   0  -4  -9  224.58   32.90 
   0   4   9  256.77   19.90 
   0  -4  -9  245.18   17.80 
   1  -4   9  283.27   17.80 
   1  -4   9  283.37   20.80 
  -1  -4  -9  261.57   21.90 
   1  -4   9  259.17   28.60 
   1  -4   9  250.57   21.90 
   1  -4   9  293.67   19.60 
   1   4  -9  305.57   23.20 
  -1   4   9  301.37   21.40 
   1   4  -9  281.47   22.20 
   1   4  -9  275.47   19.70 
   1  -4  -9  290.77   19.80 
  -1  -4   9  289.57   20.80 
   1   4   9  228.08   25.60 
   1  -4  -9  241.88   33.70 
  -1   4  -9  310.07   23.30 
   1  -4  -9  300.77   22.20 
  -1   4  -9  271.47   20.10 
  -1  -4   9  229.78   25.50 
   1   4   9  290.97   21.40 
   1   4   9  297.77   18.40 
   1   4   9  288.77   20.20 
   1  -4  -9  290.47   22.40 
  -2  -4  -9   32.00    6.90 
  -2   4   9   46.50    8.60 
   2   4  -9   35.10    6.50 
   2  -4   9   18.40    6.40 
   2  -4   9   35.40    5.10 
   2   4  -9   31.60    4.70 
   2   4  -9   29.70    6.80 
   2  -4   9   37.90    4.80 
   2  -4   9   32.00    3.50 
   2   4   9   34.20    4.00 
  -2   4  -9   22.10    5.90 
   2  -4  -9   27.00    4.70 
   2   4   9   29.80    5.10 
   2  -4  -9   19.60    5.20 
   2  -4  -9   25.70   10.70 
   2  -4  -9   32.60    6.40 
  -2  -4   9   34.30    5.00 
   2   4   9   22.90    7.00 
  -3   4   9  118.69   11.20 
   3  -4   9  126.69   10.40 
   3   4  -9  115.49   10.30 
  -3   4   9  122.99   14.80 
  -3  -4  -9  113.69   12.00 
   3  -4   9  117.29   11.00 
   3  -4   9   85.59   14.80 
   3   4  -9  112.89   12.40 
   3  -4   9  105.79    8.60 
   3   4   9  127.29   11.50 
   3   4   9  123.59   11.60 
   3   4   9  106.59   16.80 
   3  -4  -9  129.49   12.40 
   3  -4  -9  121.09   10.30 
  -3  -4   9  118.09   10.30 
  -3   4  -9  121.99   12.60 
   3   4   9  121.39    9.30 
  -4   4   9   32.50    9.10 
   4  -4   9   16.60    5.50 
  -4   4   9   23.80    4.40 
   4  -4   9   27.50    3.30 
  -4  -4  -9   24.70    5.30 
   4   4  -9   21.80    4.00 
   4  -4   9   15.50    6.10 
   4  -4   9   17.80    4.30 
  -4   4  -9   19.50    5.00 
   4  -4  -9   19.00   10.60 
  -4  -4   9   21.00    5.30 
   4  -4  -9   32.00    4.40 
   4  -4  -9   26.30    7.80 
   4   4   9   12.00    6.80 
   4   4   9   25.40    3.40 
  -4  -4   9   17.60    4.50 
  -4  -4   9   20.60    3.60 
   5   4  -9  189.88   14.20 
  -5  -4  -9  166.38   14.50 
   5  -4   9  206.68   14.40 
  -5   4   9  182.88   19.50 
   5   4  -9  206.68   17.00 
  -5   4   9  149.09   13.30 
  -5  -4   9  166.98   15.20 
   5  -4  -9  168.38   13.70 
   5   4   9  175.98   12.90 
   5   4   9  181.18   14.90 
  -5   4  -9  163.78   14.40 
   5  -4  -9  184.18   16.10 
   6   4  -9   43.60    5.00 
   6  -4   9   44.20    5.30 
   6   4  -9   41.80    7.00 
   6  -4   9   36.30    4.00 
  -6   4   9   39.30    7.80 
   6   4   9   40.20    4.40 
   6  -4  -9   37.40    4.70 
   6  -4  -9   44.40    6.80 
   6   4   9   43.10    6.00 
  -6  -4   9   28.30    5.50 
  -6  -4   9   27.20    5.10 
   0  -5   9   10.40    5.30 
   0  -5  -9   33.20    4.20 
   0  -5  -9   19.70    6.40 
   0   5  -9   21.00    3.80 
   0  -5  -9   25.00    7.10 
   0   5  -9   23.40    5.40 
   0   5  -9   17.80    5.80 
   0  -5  -9   22.40   12.30 
   1  -5   9  164.98   20.60 
  -1   5   9  183.48   15.20 
   1  -5   9  177.98   15.90 
   1   5  -9  172.98   14.10 
   1  -5   9  163.28   11.30 
   1   5  -9  175.08   17.20 
  -1  -5  -9  192.08   16.50 
   1   5  -9  180.18   16.30 
   1  -5  -9  161.48   15.00 
   1   5   9  181.28   12.00 
   1   5   9  178.88   19.30 
   1  -5  -9  162.78   18.30 
   1  -5  -9  137.39   26.20 
   1   5   9  174.38   13.90 
  -1  -5   9  145.89   19.60 
   1  -5  -9  131.49   16.20 
  -1  -5   9  184.08   14.40 
  -1   5  -9  165.58   16.00 
   2  -5   9  409.36   33.30 
   2  -5   9  440.76   31.20 
  -2   5   9  498.85   32.40 
   2   5  -9  461.05   32.90 
   2  -5   9  475.75   30.30 
   2   5  -9  463.75   30.30 
   2  -5   9  455.75   28.30 
   2   5  -9  470.45   33.20 
   2  -5   9  422.46   39.00 
  -2  -5  -9  466.75   33.30 
   2  -5  -9  383.66   44.80 
   2   5   9  459.05   28.90 
   2  -5  -9  420.96   29.90 
  -2   5  -9  493.25   33.50 
  -2  -5   9  460.65   31.00 
   2  -5  -9  477.25   32.80 
   2  -5  -9  413.46   32.50 
   2   5   9  465.55   31.20 
   2   5   9  510.65   32.50 
   3  -5   9   60.29    9.90 
   3   5  -9   74.19    9.50 
   3  -5   9   65.19    5.90 
  -3   5   9   76.19   11.30 
  -3   5   9   75.09    8.30 
   3   5  -9   64.79    7.20 
   3  -5   9   65.19    8.00 
   3  -5   9   44.50   12.30 
  -3  -5  -9   73.19    9.20 
  -3   5  -9   67.99    8.80 
   3   5   9   81.29    9.10 
   3   5   9   67.79   15.30 
  -3  -5   9   80.99    7.80 
   3   5   9   75.19    6.50 
   3  -5  -9   70.49    7.30 
   3  -5  -9   54.39    8.80 
   3   5   9   68.89    8.60 
   3  -5  -9   83.69    9.80 
   3  -5  -9   50.09   16.30 
  -4   5   9  199.18   15.90 
   4   5  -9  219.38   18.70 
   4  -5   9  179.18   22.30 
   4   5  -9  232.88   16.30 
   4  -5   9  177.68   16.20 
   4  -5   9  239.18   16.30 
  -4  -5  -9  204.18   17.80 
   4  -5   9  193.68   14.30 
  -4   5   9  250.27   22.40 
  -4  -5   9  200.18   15.10 
   4   5   9  212.98   17.20 
  -4   5  -9  213.08   17.50 
   4  -5  -9  207.58   15.90 
  -4  -5   9  224.48   18.40 
   4   5   9  223.88   15.00 
   4  -5  -9  226.98   18.40 
  -5  -5  -9   38.40    6.50 
   5  -5   9   44.80    4.60 
   5  -5   9   31.80    8.60 
  -5   5   9   42.90    4.10 
  -5   5   9   52.79    9.70 
   5  -5   9   52.59    6.10 
   5   5  -9   48.70    5.90 
   5   5  -9   49.00    7.70 
   5   5   9   49.30    5.00 
   5  -5  -9   48.80    5.90 
   5   5   9   50.09    6.70 
  -5  -5   9   56.39    9.50 
   5  -5  -9   53.19    7.60 
   6   5  -9   81.29    7.70 
   6  -5   9   85.69    7.80 
   6   5  -9  100.59   10.30 
   6  -5   9   79.59    6.50 
  -6   5   9   74.29   10.80 
   6   5   9   84.09    6.90 
   6  -5  -9   71.89    7.30 
   6  -5  -9   88.09    9.50 
  -6  -5   9   72.69    8.40 
   6   5   9   90.39    8.60 
   0  -6   9    2.40    2.20 
   0   6  -9   -0.30    1.90 
   0  -6   9   -1.00    4.10 
   0  -6  -9    1.10    8.50 
   0   6   9    2.00    2.50 
   0   6  -9    0.90    1.80 
   0  -6  -9    5.50    3.10 
   0  -6  -9   -3.70    2.70 
   1  -6   9  506.95   32.90 
  -1  -6  -9  462.35   34.30 
  -1   6   9  508.55   33.70 
   1   6  -9  466.95   33.90 
   1  -6   9  419.56   43.60 
   1   6  -9  437.86   33.40 
   1   6  -9  468.85   31.00 
   1  -6  -9  509.45   33.50 
  -1   6  -9  508.45   34.20 
   1   6   9  500.85   33.60 
  -1  -6   9  481.35   32.40 
   1  -6  -9  457.65   30.60 
   1  -6  -9  447.36   34.00 
   1   6   9  462.55   29.20 
   2  -6   9  233.18   17.30 
  -2   6   9  221.48   17.70 
   2  -6   9  169.18   23.60 
   2  -6   9  176.38   18.20 
   2  -6   9  232.28   19.20 
   2   6  -9  225.58   16.10 
   2  -6   9  207.38   13.90 
   2   6  -9  200.88   17.50 
  -2  -6  -9  230.38   19.10 
   2   6   9  212.98   14.50 
  -2  -6   9  226.68   16.90 
   2  -6  -9  220.08   22.60 
   2  -6  -9  156.98   27.80 
   2  -6  -9  209.28   15.70 
   2   6   9  234.68   19.80 
   2  -6  -9  202.68   18.50 
  -2   6  -9  221.38   18.30 
   2   6   9  218.08   17.70 
  -3  -6  -9   47.00    7.80 
   3   6  -9   49.10    8.30 
   3  -6   9   46.40    4.80 
   3   6  -9   51.99    6.40 
  -3   6   9   46.10    8.80 
   3  -6  -9   63.49    8.50 
   3  -6  -9   60.59    8.50 
  -3  -6   9   65.69    6.80 
   3   6   9   65.09    5.80 
  -3  -6   9   72.19    8.80 
   3   6   9   68.49    7.90 
  -3   6  -9   63.49    8.20 
   3  -6  -9   63.29    6.50 
   4  -6   9    2.20    1.90 
  -4   6   9   -1.00    2.80 
   4  -6   9    0.90    2.40 
  -4   6   9    2.80    1.80 
   4  -6   9    3.30    1.60 
   4   6  -9    5.30    3.00 
   4   6  -9    3.00    2.00 
  -4  -6  -9    1.40    2.00 
   4  -6   9    1.20    3.50 
   4  -6  -9   -0.80    2.80 
   4   6   9    5.40    2.60 
   4  -6  -9    3.20    2.20 
  -4   6  -9    4.80    2.30 
  -4  -6   9    4.00    3.10 
  -4  -6   9    5.00    2.00 
   4   6   9    3.40    1.50 
   5  -6   9  187.48   13.00 
   5  -6   9  153.38   17.10 
   5   6  -9  204.08   14.70 
  -5   6   9  197.48   18.90 
   5   6  -9  226.08   17.70 
   5  -6  -9  210.78   18.20 
   5  -6  -9  189.08   14.30 
  -5  -6   9  200.28   16.40 
   5   6   9  202.58   13.60 
  -5   6  -9  179.18   14.60 
   0   7  -9  109.39    8.80 
   0  -7  -9   97.39   11.60 
   0   7   9  114.09   11.40 
   0  -7   9  110.69   10.70 
   0   7  -9  114.49   11.70 
  -1   7   9  196.38   15.60 
   1   7  -9  183.38   13.10 
   1  -7   9  172.58   14.50 
   1   7  -9  182.78   16.40 
   1   7  -9  186.18   15.90 
  -1  -7  -9  170.58   16.10 
   1   7   9  164.98   15.10 
  -1  -7   9  171.38   14.20 
   1  -7  -9  139.59   12.00 
   1  -7  -9  155.38   15.60 
  -1   7  -9  178.58   15.70 
   2  -7   9  199.48   16.40 
   2   7  -9  216.88   18.30 
   2   7  -9  205.18   15.40 
  -2  -7  -9  187.18   17.80 
   2   7  -9  192.68   17.30 
  -2   7   9  235.28   20.50 
  -2   7   9  189.68   16.80 
   2  -7  -9  198.28   14.90 
   2   7   9  234.68   17.90 
  -2  -7   9  215.58   16.20 
   2   7   9  213.78   16.70 
   2  -7  -9  226.38   17.30 
   2   7   9  204.18   13.90 
   2  -7  -9  210.98   18.50 
  -2   7  -9  192.98   17.40 
  -3   7   9   44.60    8.20 
   3  -7   9   38.00    5.60 
   3  -7   9   35.20    4.50 
   3   7  -9   39.70    5.20 
   3   7  -9   45.80    7.70 
   3  -7   9   37.90    7.40 
  -3  -7  -9   33.80    6.80 
  -3   7  -9   39.80    6.20 
  -3  -7   9   51.19    7.60 
   3   7   9   41.40    6.10 
  -3  -7   9   44.30    5.30 
   3  -7  -9   36.20    6.90 
   3   7   9   46.90    4.50 
   3  -7  -9   26.90    6.00 
   3  -7  -9   38.70    5.00 
   4  -7   9   52.29    6.20 
   4   7  -9   63.59    6.50 
   4  -7   9   53.79   11.40 
   4   7  -9   76.69    9.10 
   4  -7   9   66.29    6.70 
  -4   7   9   62.89    9.30 
  -4   7   9   61.39    6.40 
   4  -7   9   58.29    5.00 
  -4  -7  -9   60.79    7.20 
  -4  -7   9   71.09    8.50 
  -4  -7   9   43.30    4.90 
   4   7   9   54.69    7.70 
   4  -7  -9   73.69   10.70 
   4   7   9   53.89    5.10 
   4  -7  -9   47.20    5.70 
  -4   7  -9   51.39    6.80 
   5  -7   9    9.40    1.90 
   5  -7   9   16.70    3.20 
   5   7  -9   13.30    4.10 
   5   7  -9   11.70    2.80 
  -5   7   9    7.60    3.90 
  -5  -7  -9    5.90    3.00 
   5  -7  -9   14.60    3.60 
  -5   7  -9    9.30    2.60 
   5   7   9   16.60    2.30 
   5   7   9   10.30    2.70 
  -5  -7   9   18.30    4.30 
   5  -7  -9   13.00    2.50 
   0   8  -9  163.98   14.50 
   0  -8   9  155.38   13.50 
   0  -8  -9  169.38   15.20 
   0   8   9  164.98   14.50 
   1   8  -9   68.29    8.20 
  -1   8   9   77.59    8.40 
   1  -8   9   66.39    7.70 
  -1  -8  -9   63.69    8.60 
   1   8  -9   60.89    6.10 
  -1   8  -9   75.49    8.60 
  -1  -8   9   79.29    8.00 
   1  -8  -9   45.90   11.20 
   1   8   9   69.09    9.00 
   2   8  -9    2.90    2.70 
   2  -8   9    3.00    1.80 
   2   8  -9    4.00    1.90 
   2   8  -9   -2.40    4.50 
  -2   8   9    3.50    2.60 
   2  -8  -9    1.40    1.70 
   2   8   9    1.30    1.60 
   2   8   9    6.20    3.00 
   2  -8  -9    6.30    3.50 
   2  -8  -9    4.70    9.00 
  -2  -8   9    4.80    2.80 
  -2   8  -9    1.00    2.50 
   3   8  -9    4.30    3.30 
   3  -8   9    2.50    1.90 
  -3  -8  -9    0.50    2.10 
   3   8  -9    0.80    1.50 
  -3   8   9    2.80    2.50 
   3   8   9    4.30    1.30 
  -3  -8   9    1.80    2.60 
  -3   8  -9    1.10    1.90 
   3  -8  -9    6.50    1.90 
   3  -8  -9    3.90    3.60 
   3  -8  -9    0.60    4.00 
  -3  -8   9   -0.10    1.50 
   4   8  -9   22.30    4.90 
  -4   8   9   20.10    3.10 
   4  -8   9   21.20    3.80 
   4  -8   9   16.70    2.50 
  -4   8   9   17.60    4.80 
   4   8  -9   22.80    3.40 
  -4  -8  -9   10.90    3.20 
  -4   8  -9   18.30    3.60 
   4  -8  -9   17.50    3.00 
  -4  -8   9   16.10    2.50 
   4   8   9   22.30    5.30 
   4  -8  -9   29.70    5.60 
   0   9   9   30.90    4.60 
   0  -9  -9   17.70    4.40 
   0   9  -9   21.20    4.30 
   0  -9   9   24.20    4.10 
   1  -9   9    1.30    1.60 
   1   9  -9   -0.80    1.60 
  -1  -9  -9    2.20    2.80 
  -1   9   9    3.40    2.50 
  -1   9   9    2.80    2.00 
   1   9   9   -0.40    1.60 
  -1  -9   9    1.60    1.70 
  -1  -9   9   -0.20    2.00 
  -1   9  -9    2.70    2.00 
   1  -9  -9    3.20    2.40 
  -2   9   9   17.00    4.20 
   2   9  -9   16.90    3.50 
  -2   9   9   13.80    3.50 
   2  -9   9   16.60    3.50 
  -2  -9  -9    7.50    3.00 
   2   9  -9   12.80    3.70 
   2  -9  -9    7.60    3.50 
   2   9   9   13.10    3.30 
  -2  -9   9   27.50    4.90 
  -2  -9   9   14.60    3.40 
  -2   9  -9   14.40    3.60 
   0   0  10  270.37   20.30 
   0   0 -10  249.38   18.70 
   0   0 -10  272.27   21.30 
   0   0 -10  284.67   21.90 
   1   0  10  624.14   40.40 
  -1   0 -10  608.44   41.90 
  -1   0  10  641.54   42.10 
  -1   0  10  612.74   40.20 
   1   0  10  607.74   38.50 
   1   0  10  568.74   44.80 
   1   0 -10  590.44   41.60 
   1   0  10  581.94   36.80 
   1   0 -10  595.94   38.80 
   1   0 -10  636.44   41.60 
  -2   0 -10   26.10    6.30 
   2   0 -10   25.70    5.20 
   2   0  10   16.60    5.60 
   2   0  10   26.80    3.10 
   2   0 -10   34.70    6.50 
   2   0 -10   17.60    3.90 
   2   0  10   24.90    5.00 
  -2   0  10   26.10    6.10 
   2   0  10   32.10    5.00 
  -2   0  10   29.20    5.90 
  -3   0  10  835.42   51.99 
   3   0  10  812.52   52.59 
  -3   0 -10  867.61   54.69 
   3   0  10  847.82   51.69 
   3   0 -10  834.32   53.99 
   3   0 -10  775.12   51.09 
   3   0  10  727.23   60.29 
  -3   0  10  830.82   55.79 
   4   0  10    2.50    1.40 
   4   0  10    2.40    3.40 
  -4   0  10    1.30    1.20 
   4   0  10   -0.30    1.90 
  -4   0 -10    3.20    2.90 
  -4   0  10    1.60    2.80 
   4   0  10    0.10    2.90 
   4   0 -10    2.20    2.00 
   5   0  10    1.10    1.60 
  -5   0  10    2.50    3.40 
  -5   0 -10    1.20    2.30 
   5   0  10    1.40    1.30 
   5   0 -10    3.50    2.90 
   5   0 -10    0.40    1.70 
   6   0  10   -0.40    1.50 
   6   0 -10    2.90    2.70 
   6   0  10    1.20    1.10 
  -6   0  10   -0.10    2.60 
   6   0 -10   -0.30    1.50 
   0   1 -10 1349.86   84.49 
   0   1  10 1361.96   83.79 
   0  -1 -10 1349.36   84.39 
   0  -1  10 1304.57   83.59 
   0  -1  10 1445.36   83.89 
   0  -1 -10 1310.47   81.69 
   0  -1 -10 1369.96   85.29 
   0   1 -10 1341.57   81.79 
   1  -1  10   33.60    3.40 
   1  -1  10   38.50    5.60 
   1  -1  10   32.20    5.30 
  -1  -1 -10   41.80    6.70 
   1   1 -10   43.70    6.80 
  -1   1  10   35.50    5.60 
   1   1 -10   30.20    6.40 
   1   1 -10   33.30    4.60 
   1  -1  10   44.00    5.80 
  -1   1  10   37.90    6.70 
   1  -1 -10   31.80    4.80 
  -1  -1  10   32.20    5.40 
   1   1  10   30.80    5.40 
   1   1  10   28.40    5.10 
  -1  -1  10   29.20    5.50 
   1  -1 -10   39.50    6.70 
  -1   1 -10   31.80    6.50 
   1   1  10   33.80    3.50 
   1  -1 -10   25.90    5.80 
  -2  -1 -10  544.15   44.40 
   2   1 -10  572.94   38.80 
   2  -1  10  588.44   34.10 
   2  -1  10  544.45   43.90 
   2   1 -10  603.14   38.90 
   2  -1  10  567.04   37.30 
  -2   1  10  609.04   40.60 
   2  -1  10  603.54   36.00 
   2   1  10  541.35   34.00 
   2  -1 -10  559.44   38.30 
   2  -1 -10  560.34   38.60 
  -2   1 -10  562.84   44.50 
  -2  -1  10  525.05   38.30 
  -2  -1  10  482.15   40.70 
   2  -1 -10  442.56   37.50 
   2   1  10  476.75   42.70 
   2   1  10  557.44   37.40 
   2   1  10  552.84   36.00 
   3  -1  10   27.40    4.60 
   3  -1  10   25.80    5.10 
   3   1 -10   29.90    4.50 
  -3   1  10   24.70    7.10 
   3   1 -10   33.70    6.30 
   3  -1  10   26.10    3.30 
  -3   1  10   26.70    4.40 
  -3  -1 -10   27.90    6.20 
  -3  -1  10   21.20    4.30 
  -3   1 -10   22.20    5.40 
   3   1  10   23.00    3.20 
   3   1  10   23.40    4.80 
   3  -1 -10   26.10    4.60 
   3  -1 -10   21.60    5.40 
   3   1  10   18.90    4.10 
  -3  -1  10   17.80    5.40 
   4  -1  10  130.39   17.90 
  -4  -1 -10  130.49   13.00 
   4  -1  10  121.19   11.70 
  -4   1  10  133.69   10.90 
   4  -1  10  140.29   11.80 
   4   1 -10  158.08   14.50 
  -4   1  10  145.99   15.50 
   4  -1  10  138.29    9.80 
   4   1 -10  132.69   11.20 
   4  -1 -10  136.69   11.30 
   4  -1 -10  135.79   14.40 
  -4   1 -10  129.79   13.30 
   4   1  10  125.09   12.00 
   4   1  10  140.89   12.00 
   4   1  10  112.89   17.40 
   4   1  10  118.89    9.80 
  -4  -1  10  113.29   10.30 
  -4  -1  10  124.29   14.10 
   5   1 -10    9.20    2.60 
   5   1 -10   20.40    5.10 
  -5   1  10   13.40    5.60 
  -5  -1 -10   12.70    3.80 
   5  -1  10   12.70    3.10 
   5  -1  10   17.60    2.60 
  -5  -1  10   18.50    5.60 
   5   1  10   14.60    2.60 
   5  -1 -10   11.50    3.10 
   5  -1 -10   17.10    4.30 
   5   1  10   17.10    3.70 
  -6   1  10  181.68   17.70 
   6  -1  10  174.38   12.50 
   6   1 -10  202.18   16.30 
   6   1 -10  171.18   13.70 
   6  -1  10  195.18   14.90 
   6  -1 -10  173.88   13.70 
   6   1  10  191.18   15.20 
  -6  -1  10  149.19   16.00 
   6  -1 -10  195.48   16.10 
   6   1  10  187.28   12.70 
   0  -2 -10   -2.00    1.80 
   0   2 -10    4.00    2.70 
   0   2 -10    1.70    1.90 
   0   2  10    1.00    1.90 
   0   2 -10    2.30    3.50 
   0  -2  10    2.00    2.00 
   0  -2 -10   -0.90    3.80 
   0  -2 -10    2.30    2.10 
   0  -2  10   -5.00    6.70 
   1   2 -10  268.67   21.90 
   1  -2  10  256.67   16.80 
   1  -2  10  233.38   24.70 
  -1  -2 -10  259.77   21.40 
   1  -2  10  260.77   18.40 
  -1   2  10  269.97   20.30 
   1   2 -10  261.37   21.30 
   1  -2  10  263.67   20.20 
   1   2 -10  274.57   19.10 
  -1  -2  10  282.17   20.40 
   1  -2 -10  267.37   21.50 
  -1   2 -10  293.17   22.20 
   1  -2 -10  274.57   21.30 
  -1  -2  10  228.08   19.50 
   1   2  10  261.37   17.00 
   1   2  10  266.37   18.80 
   1   2  10  267.17   20.30 
   1  -2 -10  269.87   18.90 
  -2   2  10   13.40    3.70 
   2   2 -10   13.60    4.10 
   2   2 -10   25.10    4.30 
   2  -2  10   15.10    3.30 
   2  -2  10   18.00    3.70 
  -2   2  10   19.70    5.70 
   2  -2  10   19.30    6.10 
   2   2 -10   21.60    5.50 
  -2  -2 -10   15.20    4.90 
  -2   2 -10   14.10    4.50 
   2   2  10   18.00    3.70 
   2  -2 -10   15.10    4.10 
  -2  -2  10   10.10    3.20 
   2  -2 -10   10.80    4.70 
   2  -2 -10   15.10    3.30 
   2   2  10   10.50    2.70 
  -2  -2  10   10.50    3.60 
   3  -2  10  562.74   36.90 
  -3  -2 -10  490.35   38.00 
   3   2 -10  584.84   38.80 
  -3   2  10  555.04   36.60 
   3  -2  10  524.75   44.40 
   3  -2  10  601.74   36.10 
  -3   2  10  605.04   41.70 
   3  -2  10  596.84   34.10 
   3   2  10  555.34   34.20 
   3  -2 -10  565.94   38.30 
   3   2  10  448.06   43.60 
   3  -2 -10  537.25   35.60 
   3   2  10  544.65   37.10 
   3   2  10  565.14   36.30 
  -3  -2  10  562.74   36.10 
  -3   2 -10  492.85   38.60 
  -3  -2  10  491.15   37.50 
  -4  -2 -10   71.39    8.90 
   4   2 -10   80.39    9.70 
   4  -2  10   77.19    7.80 
  -4   2  10   69.89    7.30 
   4   2 -10   77.29    7.80 
   4  -2  10   59.69    8.10 
  -4   2  10   87.69   11.70 
   4  -2  10   80.09    6.40 
  -4  -2  10   67.39    6.80 
  -4   2 -10   54.89    8.40 
   4  -2 -10   82.59    9.60 
  -4  -2  10   65.29    8.10 
   4   2  10   60.29    8.20 
  -4  -2  10   66.79    9.10 
   4   2  10   74.89    6.40 
   4  -2 -10   76.39    7.60 
   4   2  10   74.19    8.00 
  -5   2  10   86.89   12.20 
   5  -2  10   89.89    7.50 
   5   2 -10  103.49    9.00 
   5  -2  10   98.99    9.10 
  -5  -2 -10   83.09    9.40 
   5   2 -10  104.59   11.20 
   5   2  10  106.19    9.50 
   5  -2 -10   93.99    8.80 
  -5   2 -10   88.09    9.30 
   5  -2 -10  104.69   11.00 
   5   2  10   91.59    7.70 
   6   2 -10   -1.40    1.20 
   6  -2  10    1.00    1.90 
   6  -2  10    0.70    1.10 
   6   2 -10   -2.50    3.20 
  -6   2  10    0.00    2.90 
   6   2  10    0.60    2.30 
  -6  -2  10    1.20    2.30 
   6  -2 -10    0.50    1.40 
   6   2  10    1.00    1.10 
   0  -3 -10   99.39    8.60 
   0   3  10   82.79   11.70 
   0  -3  10   94.89   11.60 
   0  -3 -10  120.59   12.10 
   0   3 -10  106.59    8.80 
   0   3 -10   90.69   12.40 
   0   3 -10   97.69   11.70 
   0  -3 -10   89.29   13.20 
   1   3 -10   96.39   11.20 
   1  -3  10   89.79   10.00 
   1  -3  10   89.39   14.30 
   1   3 -10  104.59   19.40 
  -1   3  10   89.39   10.00 
   1   3 -10   96.79    9.40 
  -1  -3 -10  106.19   11.40 
   1  -3 -10  112.69   11.70 
   1  -3 -10   88.99   15.00 
   1   3  10  106.49    7.80 
  -1   3 -10  120.19   12.60 
   1   3  10  113.39   10.50 
  -1  -3  10  114.99   10.50 
   1   3  10  105.49   11.20 
   1  -3 -10  122.79   11.90 
   2   3 -10  157.78   15.20 
   2  -3  10  152.38   13.60 
   2  -3  10  138.19   18.40 
   2   3 -10  151.28   12.80 
  -2  -3 -10  162.88   15.30 
  -2   3  10  198.98   18.10 
   2  -3  10  152.58   10.90 
   2   3 -10  165.88   15.60 
   2  -3  10  156.08   12.50 
  -2   3  10  152.08   13.80 
   2   3  10  165.98   14.30 
   2   3  10  162.48   13.20 
   2   3  10  137.19   18.60 
  -2  -3  10  162.78   13.50 
   2   3  10  163.58   11.40 
   2  -3 -10  170.38   15.10 
   2  -3 -10  171.58   15.20 
  -2   3 -10  165.08   15.60 
   2  -3 -10  141.49   12.40 
   3  -3  10  145.59   14.10 
   3  -3  10  134.99    9.30 
   3   3 -10  127.69   14.20 
   3  -3  10   98.69   15.70 
  -3  -3 -10  121.59   12.80 
   3   3 -10  129.89   10.90 
  -3   3  10  129.69   11.50 
  -3   3  10  148.69   15.50 
   3  -3  10  142.09   11.90 
   3   3  10  113.69   13.00 
   3  -3 -10  111.09   10.40 
   3  -3 -10  124.69   13.20 
   3  -3 -10  122.19   17.60 
  -3  -3  10  119.69   10.60 
   3   3  10  109.79   11.20 
   3   3  10  110.29    9.20 
  -3   3 -10   95.59   12.20 
  -4  -3 -10  123.29   13.60 
   4  -3  10  136.69   12.60 
  -4   3  10  143.79   12.00 
   4   3 -10  164.28   15.00 
   4  -3  10  163.08   12.60 
   4  -3  10  151.68   10.80 
   4   3 -10  170.78   12.80 
  -4   3 -10  124.39   13.50 
   4   3  10  158.98   13.10 
   4  -3 -10  162.78   12.60 
   4  -3 -10  172.48   14.90 
  -4  -3  10  129.49   13.10 
  -4  -3  10  147.59   13.50 
   4   3  10  151.78   11.10 
   4   3  10  149.69   14.20 
  -4  -3  10  146.09   11.50 
  -5   3  10   69.99   11.00 
   5   3 -10   86.59   10.00 
  -5  -3 -10   58.89    7.80 
   5   3 -10   70.39    7.50 
   5  -3  10   75.89    6.20 
   5  -3  10   87.29    7.90 
  -5  -3  10   68.09    8.00 
   5  -3 -10   79.99    9.60 
   5  -3 -10   84.69    7.80 
  -5  -3  10   59.99    8.10 
  -5   3 -10   66.49    9.00 
   5   3  10   74.89    6.50 
   5   3  10   78.79    8.20 
  -6   3  10  123.29   14.90 
   6  -3  10  143.99   10.30 
   6  -3  10  151.28   11.60 
   6   3 -10  144.79   11.70 
   6   3 -10  142.99   13.50 
   6   3  10  146.39   10.60 
   6   3  10  152.68   12.20 
   6  -3 -10  162.88   13.60 
   6  -3 -10  151.68   11.70 
   0   4  10   23.00    5.00 
   0  -4 -10    8.50    3.00 
   0   4 -10    3.50    6.20 
   0   4 -10   25.70    6.50 
   0   4 -10   14.40    2.90 
   0  -4  10   20.80    4.70 
   0  -4 -10   15.20    4.30 
   0  -4  10   11.50    6.40 
   1   4 -10   95.09    9.20 
   1  -4  10   88.49    9.90 
   1   4 -10  110.09   11.90 
  -1   4  10   94.29   10.40 
   1   4 -10   85.29   11.00 
  -1  -4 -10  100.59   11.30 
   1  -4  10   91.89   14.90 
   1  -4 -10  117.69    9.30 
  -1   4 -10  103.39   12.20 
   1  -4 -10  109.79   11.80 
  -1  -4  10  117.19   10.60 
   1   4  10  119.69   11.10 
   1  -4 -10  113.09   11.60 
   1   4  10  110.69    7.70 
  -2   4  10  131.89   12.10 
   2  -4  10  128.99   11.50 
  -2  -4 -10  129.59   13.10 
   2  -4  10   97.69   14.60 
   2   4 -10  137.09   13.40 
  -2   4  10  150.98   15.80 
   2   4 -10  127.49   13.20 
   2   4 -10  115.39   10.50 
   2  -4  10  124.99   11.00 
   2  -4  10  114.29    8.80 
   2   4  10  110.19   11.60 
  -2   4 -10  104.09   12.60 
   2  -4 -10  103.69   10.20 
   2   4  10  136.29   11.70 
  -2  -4  10  136.19   11.40 
   2  -4 -10   83.89   33.70 
   2   4  10  124.59    9.20 
   2  -4 -10  133.99   12.70 
   2  -4 -10  105.79   12.20 
   3  -4  10  425.06   27.40 
   3  -4  10  393.96   28.30 
   3  -4  10  365.36   33.10 
   3   4 -10  412.06   27.70 
  -3   4  10  458.85   34.20 
  -3  -4 -10  395.46   30.20 
  -3   4  10  426.96   28.60 
   3  -4  10  407.56   25.60 
   3   4 -10  416.06   30.50 
   3   4  10  435.46   29.50 
  -3   4 -10  414.06   30.40 
   3   4  10  397.46   26.00 
   3  -4 -10  428.26   30.00 
   3   4  10  421.36   28.20 
   3  -4 -10  352.96   29.50 
   3  -4 -10  362.66   27.10 
  -3  -4  10  405.96   27.60 
   4  -4  10   24.10    4.80 
   4   4 -10   25.00    4.70 
  -4  -4 -10   23.20    5.50 
  -4   4  10   32.80    8.40 
   4   4 -10   36.90    6.80 
  -4   4  10   25.10    4.10 
   4  -4  10   28.40    3.40 
   4  -4  10   29.70    4.70 
  -4   4 -10   19.30    4.80 
   4  -4 -10   21.20    4.90 
   4   4  10   27.10    3.50 
  -4  -4  10   30.50    5.60 
  -4  -4  10   19.80    3.40 
   4   4  10   31.40    5.20 
   4  -4 -10   23.00    4.50 
   5  -4  10   20.40    2.80 
  -5  -4 -10   17.70    3.80 
   5   4 -10   16.50    4.60 
  -5   4  10   15.70    5.90 
   5   4 -10   17.90    3.70 
   5  -4  10   21.40    4.10 
   5  -4  10    9.20    5.90 
   5   4  10   23.00    4.40 
   5   4  10   15.90    2.80 
  -5   4 -10   23.90    4.00 
  -5  -4  10   18.40    4.30 
   5  -4 -10   25.00    5.50 
   5  -4 -10   15.00    3.40 
   0   5 -10   71.69    6.60 
   0  -5  10   69.79    8.00 
   0  -5 -10   68.39    9.30 
   0   5 -10   73.59    9.20 
   1   5 -10   19.90    3.70 
  -1  -5 -10   22.40    5.90 
   1  -5  10   28.60    4.80 
   1   5 -10   30.20    6.20 
   1   5 -10   27.30    7.20 
   1  -5  10    9.50    6.50 
  -1   5  10   21.50    5.00 
   1  -5 -10   24.30    5.80 
   1  -5 -10   19.40    3.80 
  -1   5 -10   18.40    5.10 
  -1  -5  10   19.40    4.20 
   1   5  10   26.10    5.60 
   1  -5 -10   24.80    5.70 
   1   5  10   15.50    3.80 
  -2   5  10  141.09   15.40 
   2   5 -10  120.59   10.20 
  -2  -5 -10  107.49   12.20 
  -2   5  10  126.89   11.70 
   2  -5  10  116.19   11.10 
   2   5 -10  117.29   12.60 
   2  -5  10  106.69    8.10 
   2   5 -10  118.59   12.00 
   2   5  10  104.99    8.40 
   2  -5 -10  122.69   12.80 
  -2  -5  10  115.59   10.70 
   2   5  10  114.99   11.30 
   2  -5 -10  111.79   11.70 
   2   5  10  113.29   10.70 
  -2   5 -10  111.29   12.00 
   2  -5 -10  101.09    9.60 
  -3   5  10   18.20    6.40 
   3  -5  10   11.00    2.10 
   3  -5  10    9.50    5.60 
  -3   5  10   13.50    3.70 
   3  -5  10   14.60    3.80 
   3   5 -10    8.60    3.70 
   3  -5  10    9.00    3.10 
  -3  -5 -10   17.20    5.00 
   3   5 -10   13.00    3.20 
   3  -5 -10   15.50    6.20 
   3   5  10   13.30    3.90 
   3  -5 -10   11.40    3.20 
  -3  -5  10   11.70    3.20 
   3   5  10   18.20    2.80 
  -3  -5  10   13.10    4.10 
   3   5  10   14.50    3.60 
   3  -5 -10   17.70    4.50 
  -3   5 -10    9.50    3.80 
  -4   5  10  300.17   25.30 
  -4   5  10  263.47   19.60 
   4  -5  10  282.97   18.50 
   4   5 -10  307.27   20.10 
   4  -5  10  219.08   19.30 
   4  -5  10  296.17   19.50 
   4   5 -10  290.27   22.30 
   4   5  10  293.57   20.10 
   4  -5 -10  270.17   19.40 
  -4   5 -10  256.07   21.30 
   4  -5 -10  304.47   22.10 
  -4  -5  10  251.67   18.20 
   4   5  10  238.68   18.80 
   5  -5  10   17.50    2.60 
  -5   5  10   16.60    5.50 
   5   5 -10   20.80    4.70 
   5  -5  10   24.30    4.00 
   5   5 -10   21.10    3.70 
  -5  -5 -10   11.10    3.30 
  -5  -5  10   14.30    4.00 
   5  -5 -10   16.10    4.20 
   5   5  10   18.10    2.70 
   5   5  10   23.50    4.50 
  -5   5 -10    9.90    3.00 
   5  -5 -10   18.60    3.50 
   0   6 -10   15.10    4.50 
   0  -6 -10   14.60    4.50 
   0  -6  10   22.50    4.50 
  -1  -6 -10   51.09    7.90 
   1  -6  10   49.30    6.60 
   1   6 -10   53.79    5.90 
   1   6 -10   49.60    7.20 
   1   6 -10   60.99    9.90 
   1  -6 -10   49.10    5.60 
  -1  -6  10   59.49    7.00 
   1  -6 -10   60.29    8.70 
  -1   6 -10   67.49    8.30 
  -2  -6 -10   10.10    4.00 
   2   6 -10    5.70    2.30 
   2   6 -10   16.90    5.00 
  -2   6  10    6.20    3.00 
  -2   6  10   11.50    4.80 
   2  -6  10   15.10    3.90 
  -2   6 -10   10.10    3.80 
   2   6  10   11.40    3.80 
   2  -6 -10    8.90    2.50 
   2  -6 -10   13.50    4.70 
  -2  -6  10    9.80    3.30 
   2  -6 -10   14.10    4.30 
   2   6  10    6.60    2.20 
   3  -6  10  187.68   14.30 
   3  -6  10  140.89   13.10 
   3   6 -10  159.78   13.00 
  -3  -6 -10  141.09   14.70 
   3  -6  10  149.88   11.00 
   3   6 -10  173.58   15.50 
  -3   6  10  191.68   18.00 
  -3   6  10  185.58   14.20 
   3   6  10  186.98   15.00 
  -3   6 -10  163.38   14.80 
   3  -6 -10  132.99   14.00 
  -3  -6  10  194.88   17.00 
   3   6  10  165.68   11.50 
  -3  -6  10  133.19   13.70 
   3  -6 -10  195.18   15.30 
   3  -6 -10  155.48   14.90 
   3   6  10  170.88   14.50 
   4   6 -10   23.10    4.00 
   4  -6  10   23.10    5.00 
   4  -6  10   21.70    2.70 
  -4   6  10   22.60    3.50 
  -4   6  10   20.80    6.10 
   4   6 -10   26.50    6.80 
  -4  -6 -10   16.30    4.00 
   4   6  10   19.50    2.70 
   4   6  10   22.70    4.40 
  -4  -6  10   20.20    5.10 
  -4  -6  10   16.50    2.70 
  -4   6 -10   14.70    3.70 
   4  -6 -10   17.80    3.40 
   4  -6 -10   15.60    4.50 
   0  -7 -10   69.39    8.40 
   0  -7  10   51.99    6.70 
   0   7 -10   67.39    8.90 
   1  -7  10    3.60    2.20 
  -1   7  10    1.00    2.60 
   1   7 -10    3.10    1.90 
  -1  -7 -10    0.70    2.30 
   1   7 -10    2.60    2.60 
  -1  -7  10    0.60    2.00 
   1  -7 -10    3.80    3.10 
  -1   7 -10   -1.70    1.70 
   2   7 -10   54.59    7.40 
   2  -7  10   51.89    6.60 
   2   7 -10   60.99    5.80 
  -2   7  10   56.59    7.50 
   2   7 -10   70.89    9.70 
  -2  -7 -10   56.39    8.40 
  -2   7  10   65.19    9.10 
  -2   7 -10   58.39    7.70 
   2  -7 -10   51.49    5.40 
  -2  -7  10   69.29    8.40 
   2   7  10   47.70    6.90 
   2  -7 -10   57.59   12.50 
  -2  -7  10   61.99    6.70 
  -3   7  10   12.20    3.00 
   3  -7  10   14.00    3.10 
   3   7 -10   15.20    4.50 
  -3   7  10   21.10    5.60 
  -3  -7 -10   13.00    4.00 
   3   7 -10   14.40    3.20 
  -3  -7  10    9.70    2.50 
   3   7  10   15.10    4.00 
   3   7  10    9.70    1.70 
   3  -7 -10   11.80    4.10 
  -3   7 -10    9.10    3.10 
  -3  -7  10   13.90    4.20 
   3  -7 -10    9.20    2.40 
   0   8 -10    5.50    2.70 
   0  -8 -10    2.70    3.10 
   0  -8  10    5.50    2.30 
  -1  -8 -10   41.80    6.60 
   1  -8  10   38.80    5.50 
  -1   8  10   53.39    7.60 
   1   8 -10   44.70    5.90 
  -1  -8  10   48.60    5.80 
  -1   8 -10   46.10    6.30 
   1  -8 -10   42.30    6.60 
  -2   8  10    5.20    2.70 
   2  -8  10    1.00    1.50 
   2   8 -10   -0.60    2.00 
  -2  -8 -10    3.40    2.30 
   2   8 -10    1.70    1.60 
  -2   8  10    1.40    1.80 
   2  -8 -10    4.70    3.60 
  -2  -8  10    4.00    3.00 
   2   8  10    4.30    2.30 
  -2  -8  10    3.20    1.70 
  -2   8 -10    4.50    2.20 
   0   0 -11   -1.20    1.90 
   0   0  11    0.20    1.50 
   0   0 -11    0.70    2.50 
   0   0  11    2.80    2.30 
   1   0 -11    4.50    3.30 
  -1   0  11    0.80    1.60 
   1   0 -11    2.10    1.70 
   1   0  11    1.70    2.30 
   1   0 -11   -2.00    2.30 
  -1   0  11   -1.10    2.00 
   1   0  11   -0.30    1.20 
  -1   0 -11   -2.60    1.90 
  -2   0 -11    1.90    2.10 
   2   0  11    0.40    2.00 
  -2   0  11   -0.20    2.20 
   2   0 -11    1.60    1.70 
   2   0  11    3.20    1.20 
  -2   0  11   -0.80    1.70 
   2   0 -11    1.00    3.20 
   3   0  11   -3.60    1.60 
   3   0  11    1.20    1.10 
   3   0 -11   -0.10    2.50 
  -3   0  11   -0.50    2.30 
   3   0 -11    0.60    1.80 
  -3   0  11    0.30    1.60 
   3   0  11    1.30    2.00 
  -3   0 -11    1.60    2.80 
   4   0  11   49.90    4.80 
  -4   0  11   55.99    5.70 
   4   0  11   56.79    6.30 
   4   0 -11   55.69    6.20 
  -4   0  11   53.69    8.30 
   4   0 -11   59.19    8.20 
   4   0  11   47.70    6.70 
  -5   0  11   66.59    8.90 
  -5   0 -11   48.40    6.90 
   5   0 -11   66.59    8.80 
   5   0  11   72.79    5.70 
   5   0 -11   65.29    6.80 
   0  -1  11   97.49   10.00 
   0   1 -11   98.59    8.70 
   0  -1  11  101.19   10.40 
   0  -1 -11  105.99   11.90 
   0  -1 -11  100.69    8.80 
   0   1 -11  110.39   11.90 
   0   1  11   95.69   10.30 
   0   1  11  124.39   12.40 
  -1   1  11  187.38   15.10 
   1  -1  11  172.28   14.80 
   1   1 -11  181.68   16.20 
   1   1 -11  170.08   16.00 
  -1   1  11  178.68   16.40 
  -1  -1 -11  176.18   16.20 
   1   1 -11  170.78   13.40 
   1  -1 -11  180.08   16.10 
  -1   1 -11  176.18   16.40 
   1   1  11  175.38   15.00 
  -1  -1  11  175.88   14.70 
   1  -1 -11  147.79   13.00 
  -1  -1  11  148.69   14.60 
   1  -1 -11  172.28   16.20 
   2  -1  11   17.80    4.60 
   2  -1  11   18.30    5.50 
   2   1 -11   13.60    3.00 
  -2  -1 -11    8.90    3.80 
  -2   1  11   12.20    3.20 
   2   1 -11   14.90    4.40 
  -2   1  11   14.70    4.40 
   2  -1  11    7.80    5.30 
   2  -1  11   13.30    2.10 
   2   1  11    5.40    3.50 
   2  -1 -11    4.40    3.60 
   2  -1 -11    7.20    2.20 
  -2  -1  11    6.40    3.00 
  -2  -1  11    5.40    2.80 
   2   1  11    7.30    3.30 
   2   1  11    6.80    1.80 
  -2   1 -11    6.40    3.60 
   3  -1  11   66.49    6.20 
   3   1 -11   82.09    9.80 
  -3  -1 -11   72.49    9.40 
  -3   1  11   66.99   10.30 
   3  -1  11   82.59    8.60 
   3   1 -11   71.79    7.80 
   3  -1  11   78.69    7.90 
  -3   1  11   73.79    8.20 
   3   1  11   77.79    6.40 
   3   1  11   85.59    9.20 
  -3  -1  11   99.19    8.70 
   3   1  11   85.69    8.20 
  -3   1 -11   79.49   10.20 
  -3  -1  11   71.79    8.20 
   3  -1 -11   87.29    8.10 
  -3  -1  11   78.39    9.80 
   3  -1 -11   82.69   10.40 
  -4   1  11  159.68   12.60 
   4  -1  11  139.19   13.30 
   4   1 -11  181.78   13.60 
   4  -1  11  182.38   13.40 
   4   1 -11  181.58   15.80 
  -4   1  11  182.28   17.30 
   4  -1  11  159.88   11.60 
  -4  -1 -11  158.98   15.00 
  -4  -1  11  151.78   12.40 
  -4   1 -11  172.18   15.60 
  -4  -1  11  140.19   16.80 
   4  -1 -11  184.18   15.80 
   4   1  11  180.08   11.80 
   4  -1 -11  176.98   13.40 
   4   1  11  173.68   13.40 
   4   1  11  157.58   13.90 
  -5   1  11   63.99    9.40 
   5   1 -11   66.69    7.00 
   5   1 -11   68.49    8.80 
   5  -1  11   84.09    8.60 
  -5  -1 -11   52.29    7.10 
   5  -1  11   66.89    5.70 
   5   1  11   60.19    8.50 
  -5   1 -11   64.69    7.50 
  -5  -1  11   64.39    8.70 
   5  -1 -11   74.49    7.20 
   5   1  11   71.79    5.80 
   5  -1 -11   84.19    9.40 
   0  -2 -11  266.07   19.90 
   0   2  11  323.87   22.90 
   0   2 -11  277.37   20.10 
   0   2 -11  321.77   24.50 
   0  -2 -11  300.57   24.10 
   0  -2  11  318.97   22.60 
   1   2 -11  153.48   15.20 
   1  -2  11  167.18   14.20 
  -1   2  11  178.68   14.50 
   1   2 -11  192.98   22.30 
  -1  -2 -11  150.68   15.30 
  -1   2  11  185.58   17.00 
   1   2 -11  151.68   12.60 
  -1  -2  11  153.28   13.60 
   1   2  11  140.39   13.80 
   1  -2 -11  142.39   12.30 
  -1   2 -11  152.38   15.50 
   1  -2 -11  142.89   14.90 
  -2   2  11  212.68   16.20 
  -2   2  11  200.68   18.70 
   2  -2  11  180.38   15.60 
   2   2 -11  205.58   17.50 
   2  -2  11  205.08   14.80 
   2   2 -11  197.58   14.90 
   2  -2  11  183.98   12.60 
   2   2 -11  202.58   18.10 
  -2  -2 -11  169.18   17.00 
   2  -2 -11  185.98   14.60 
   2   2  11  184.08   12.70 
   2   2  11  176.98   15.70 
   2   2  11  191.28   14.70 
   2  -2 -11  172.88   17.10 
  -2  -2  11  162.08   15.60 
  -2   2 -11  209.68   18.20 
  -2  -2  11  186.98   15.40 
   2  -2 -11  192.98   17.00 
   3  -2  11   84.59    6.80 
   3  -2  11   86.89    9.30 
  -3   2  11  106.59   12.90 
  -3   2  11   92.29    9.20 
   3   2 -11  102.29   11.00 
  -3  -2 -11   82.19   10.50 
   3  -2  11   87.99    8.40 
   3   2 -11   93.39    8.90 
   3  -2 -11   92.09   10.60 
   3   2  11   94.39    8.90 
  -3  -2  11   87.29    9.00 
   3  -2 -11   81.69    8.30 
  -3  -2  11   73.89    9.80 
   3   2  11   82.79    9.60 
  -3  -2  11   86.49    8.60 
  -3   2 -11   88.49   10.90 
   3   2  11   90.09    7.10 
   4  -2  11   75.39    6.30 
  -4   2  11   59.79    8.00 
   4  -2  11   83.09    7.90 
  -4   2  11   81.49   11.20 
   4   2 -11   79.89    9.60 
   4  -2  11   67.19    7.70 
   4   2 -11   93.89    8.30 
  -4  -2 -11   69.39    9.20 
  -4  -2  11   68.09    7.50 
   4  -2 -11   86.09    8.00 
  -4   2 -11   80.19    9.50 
   4   2  11   80.49    8.90 
   4   2  11   89.69    8.40 
  -4  -2  11   75.09    9.00 
   4   2  11   84.29    6.50 
   4  -2 -11   89.79   10.10 
  -4  -2  11   66.39    8.70 
   5   2 -11  104.09   15.80 
   5  -2  11  108.29    9.30 
   5  -2  11   99.89    7.80 
   5   2 -11  107.39    9.40 
   5  -2 -11  114.99    9.50 
   5  -2 -11  137.49   17.00 
  -5  -2  11   88.19   10.10 
  -5   2 -11   98.19    9.40 
   5   2  11  115.59    9.60 
   5   2  11  111.79    8.10 
   0   3 -11    1.90    2.10 
   0  -3 -11   -0.60    3.30 
   0  -3  11   -1.50    1.60 
   0   3  11   -0.10    1.70 
   0  -3 -11    0.60    2.40 
   0   3 -11    2.10    2.90 
  -1   3  11  176.48   15.30 
   1   3 -11  167.38   13.40 
   1  -3  11  183.38   15.00 
   1   3 -11  173.48   15.90 
  -1   3  11  205.68   18.70 
  -1  -3 -11  186.98   16.80 
   1   3 -11  172.78   16.50 
   1  -3 -11  165.08   16.00 
   1  -3 -11  158.38   13.00 
  -1  -3  11  173.18   14.70 
  -1   3 -11  174.28   16.70 
   1   3  11  164.78   14.90 
   1  -3 -11  179.08   16.00 
  -2   3  11  270.67   19.00 
   2   3 -11  248.38   20.70 
   2   3 -11  249.38   17.30 
   2  -3  11  216.38   14.80 
   2   3 -11  239.78   19.70 
   2  -3  11  238.48   18.20 
  -2   3  11  265.67   22.50 
  -2  -3 -11  235.88   20.00 
   2  -3 -11  231.18   19.30 
  -2  -3  11  242.78   17.90 
   2  -3 -11  202.58   19.80 
   2   3  11  208.98   18.20 
   2  -3 -11  182.18   16.30 
   2   3  11  221.68   15.00 
  -2   3 -11  223.68   20.20 
   2   3  11  225.08   17.00 
  -3  -3 -11   96.79   11.10 
   3  -3  11   95.19    7.40 
   3   3 -11  104.59   11.50 
  -3   3  11  104.29   13.10 
   3  -3  11  104.59    9.30 
   3  -3  11  100.19    9.80 
  -3   3  11  109.19   10.00 
   3   3 -11  102.09    9.40 
   3   3  11   96.39    7.60 
   3  -3 -11   90.39    9.00 
  -3  -3  11   87.19    9.70 
   3  -3 -11   88.89   11.10 
   3   3  11   94.09   10.20 
  -3  -3  11  105.89    9.40 
   3   3  11  109.49    9.70 
  -4   3  11   60.89    6.20 
   4  -3  11   50.29    6.60 
   4   3 -11   69.09    9.00 
   4  -3  11   55.99    5.20 
  -4   3  11   79.89   12.80 
   4  -3  11   71.59    8.40 
  -4  -3 -11   62.69    9.00 
   4   3  11   63.89    5.50 
  -4   3 -11   62.39    9.10 
  -4  -3  11   54.59    5.60 
   4  -3 -11   61.49    8.60 
   4   3  11   54.99    8.90 
  -4  -3  11   60.69    7.60 
   4   3  11   77.69    7.40 
   5  -3  11  127.99   10.20 
  -5   3  11  109.19   13.70 
   5  -3  11  120.79    8.90 
   5   3 -11  121.39   10.40 
   5   3 -11  142.69   12.80 
   5  -3 -11  149.19   13.10 
   5  -3 -11  123.39   10.40 
   5   3  11  142.19   10.90 
   5   3  11  124.49    9.10 
  -5   3 -11  108.29   10.30 
   0   4 -11   47.20    7.00 
   0  -4  11   47.10    6.40 
   0  -4 -11   38.80    7.80 
   0   4 -11   52.09    8.30 
   0   4  11   40.90    6.40 
   1   4 -11  304.17   22.70 
   1  -4  11  308.27   21.30 
   1   4 -11  277.37   19.40 
  -1   4  11  316.17   21.90 
   1   4 -11  273.27   22.60 
  -1  -4 -11  263.47   22.40 
  -1  -4  11  288.67   20.90 
   1   4  11  236.18   20.80 
   1  -4 -11  244.88   18.80 
  -1   4 -11  290.17   23.20 
   1  -4 -11  274.47   22.70 
   1  -4 -11  259.37   22.10 
   2   4 -11  149.69   11.90 
  -2  -4 -11  153.28   14.80 
   2  -4  11  156.48   13.20 
  -2   4  11  177.08   13.80 
   2   4 -11  155.78   15.00 
   2   4 -11  161.08   14.60 
  -2   4  11  180.48   17.30 
  -2  -4  11  144.09   12.50 
   2   4  11  132.49   10.30 
   2  -4 -11  124.69   11.40 
   2   4  11  131.69   13.10 
  -2   4 -11  158.18   14.90 
   2  -4 -11  119.19   13.90 
   2  -4 -11  144.79   14.00 
  -3   4  11    4.70    2.30 
   3   4 -11    9.20    2.70 
  -3   4  11    2.20    3.50 
   3  -4  11    5.20    2.70 
   3   4 -11    6.60    3.40 
   3  -4  11    5.10    5.60 
  -3  -4 -11    1.60    3.00 
   3  -4  11    4.90    1.50 
  -3  -4  11    7.40    2.50 
   3   4  11   11.20    3.60 
   3   4  11    7.40    2.20 
  -3   4 -11   11.70    3.80 
   3   4  11    7.50    3.40 
   3  -4 -11   12.50    4.00 
   3  -4 -11   10.10    2.70 
  -4  -4 -11   91.19   10.20 
   4   4 -11  109.79    9.40 
   4  -4  11   91.59    7.50 
   4  -4  11  114.09    9.40 
   4   4 -11  120.79   12.70 
   4  -4  11   79.69    9.00 
  -4   4  11   98.19    8.60 
  -4   4  11  111.69   13.30 
  -4  -4  11   96.29    7.90 
   4   4  11  124.69    8.10 
   4   4  11  117.29    9.70 
  -4  -4  11  106.39   10.30 
   4  -4 -11  101.49    9.10 
  -4   4 -11  108.89   10.40 
   0  -5 -11    7.70    4.60 
   0  -5  11    8.50    3.00 
   0   5  11   12.10    3.90 
   0   5 -11    9.10    4.10 
   1  -5  11   68.29    8.00 
   1   5 -11   68.09    8.80 
  -1  -5 -11   67.49    9.10 
  -1   5  11   78.59   10.90 
  -1   5  11   69.59    8.10 
   1   5 -11   60.79    7.40 
  -1   5 -11   75.89    9.40 
   1  -5 -11   63.09    8.90 
   1   5  11   78.69    8.70 
   1  -5 -11   54.29    6.30 
  -1  -5  11   71.69    7.90 
  -2   5  11   23.10    4.60 
  -2  -5 -11   18.40    5.10 
   2   5 -11   23.00    4.30 
   2   5 -11   17.50    4.50 
   2   5 -11    9.60    4.60 
   2  -5  11   16.70    6.20 
  -2   5  11   23.30    6.40 
   2  -5 -11   21.60    5.20 
   2   5  11   16.50    4.70 
   2   5  11   11.80    3.00 
   2  -5 -11   16.10    3.50 
  -2  -5  11   23.70    4.50 
   2  -5 -11   23.20    7.50 
  -2   5 -11   27.10    5.70 
   3   5 -11  122.79   15.10 
   3   5 -11  153.88   12.10 
  -3   5  11  168.48   16.80 
   3  -5  11  126.59    9.90 
   3  -5  11  143.99   12.50 
  -3   5  11  150.28   12.60 
  -3  -5  11  173.18   14.10 
   3  -5 -11  142.89   11.60 
   3  -5 -11  192.58   18.10 
   3   5  11  160.68   13.50 
  -3  -5  11  155.08   11.90 
  -3   5 -11  174.38   14.40 
   3   5  11  158.48   10.40 
  -4   5  11   73.49   10.40 
   4   5 -11   84.79    9.50 
   4   5 -11   66.99    7.10 
  -4  -5 -11   58.89    8.00 
   4  -5  11   75.39    5.60 
  -4   5  11   73.09    6.50 
   4  -5 -11   79.69    7.10 
   4  -5 -11   67.79    8.70 
  -4  -5  11   78.49    8.20 
   4   5  11   79.59    8.50 
  -4   5 -11   81.79    8.20 
   4   5  11   74.69    5.80 
   0   6 -11    5.70    3.20 
   0   6  11    2.80    2.30 
   0  -6  11    4.10    2.80 
   0  -6 -11    2.50    3.00 
  -1  -6 -11   44.10    7.50 
  -1   6  11   71.89   10.00 
  -1   6  11   64.19    7.50 
   1   6 -11   59.89    7.80 
   1  -6  11   63.49    7.10 
   1   6 -11   53.39    5.60 
  -1  -6  11   69.59    7.30 
  -1   6 -11   63.29    8.00 
   1  -6 -11   63.89    8.50 
   1   6  11   64.69    7.70 
  -2   6  11   18.70    4.00 
   2  -6  11   18.00    4.10 
   2   6 -11   22.40    3.40 
  -2   6  11   24.30    6.40 
   2   6 -11   15.80    4.50 
  -2  -6 -11   10.50    4.10 
   2   6 -11   16.00    5.60 
   2  -6 -11   26.10    5.70 
   2   6  11   23.00    4.60 
  -2   6 -11   20.70    4.40 
   2  -6 -11   17.40    3.10 
  -2  -6  11   20.80    3.80 
  -3  -6 -11   20.90    4.90 
   3  -6  11   16.10    3.60 
  -3   6  11   26.60    4.10 
   3   6 -11   22.60    3.60 
   3   6 -11   27.10    5.40 
  -3   6  11   32.40    7.40 
   3   6  11   21.40    4.50 
   3  -6 -11   14.80    2.90 
   3  -6 -11   18.90    5.90 
   3   6  11   22.70    2.60 
  -3  -6  11   22.20    3.30 
  -3   6 -11   13.50    3.60 
   0   7 -11  108.29   10.50 
   0  -7  11  108.89    9.50 
   0   7  11  102.69    9.90 
   0  -7 -11   98.19   10.70 
  -1   7  11   23.60    4.60 
  -1  -7 -11   13.80    4.10 
  -1   7  11   25.60    5.90 
   1   7 -11   21.60    4.20 
   1  -7  11   19.40    3.80 
   1  -7 -11    8.90    4.10 
  -1  -7  11   16.30    3.30 
  -1   7 -11   19.90    4.50 
   1   7  11   15.10    3.70 
  -2   7  11   24.00    4.50 
  -2   7  11   16.80    4.90 
   2   7 -11   21.50    4.40 
  -2  -7 -11   16.50    4.30 
   2  -7  11   25.60    4.10 
   2   7 -11   24.00    3.60 
   2   7  11   28.10    4.40 
   2  -7 -11   32.50    5.90 
  -2   7 -11   28.30    4.80 
  -2  -7  11   28.40    4.00 
  -2  -7  11   34.60    5.30 
   0   0  12   38.60    6.00 
   0   0  12   36.50    5.60 
   0   0 -12   30.70    6.70 
   1   0 -12   12.20    5.10 
   1   0 -12   17.80    3.30 
   1   0 -12   23.10    6.60 
  -1   0  12   27.50    5.40 
  -1   0 -12   24.30    5.50 
  -1   0  12   16.30    4.70 
   1   0  12   22.40    4.90 
  -2   0 -12    2.40    2.80 
   2   0 -12    5.70    3.60 
   2   0 -12    1.90    1.90 
  -2   0  12   -0.30    2.90 
  -2   0  12    1.90    2.00 
   2   0  12    6.30    2.70 
   3   0  12  143.49   13.00 
  -3   0 -12  135.29   15.30 
  -3   0  12  128.89   12.20 
   3   0  12  120.29    8.90 
   3   0 -12  142.89   13.40 
   3   0  12  132.39   12.40 
  -3   0  12  119.29   12.80 
   3   0 -12  127.59   12.70 
  -4   0  12  131.19   13.20 
   4   0 -12  148.99   11.40 
   4   0 -12  153.88   13.60 
  -4   0 -12  145.39   13.40 
   4   0  12  141.29    9.50 
   4   0  12  112.99   11.20 
  -4   0  12  119.49    9.80 
   4   0  12  154.08   11.20 
   0  -1  12    2.00    2.20 
   0  -1 -12    1.20    2.40 
   0   1  12    3.00    2.60 
   0   1  12    2.10    2.30 
   0   1 -12    6.20    3.70 
   1   1 -12   25.50    4.20 
   1   1 -12   25.50    5.80 
  -1  -1 -12   21.70    5.20 
  -1   1  12   26.90    5.60 
  -1   1  12   24.40    5.00 
   1   1 -12   22.80    7.70 
   1  -1  12   21.20    4.70 
   1   1  12   36.40    5.70 
   1  -1 -12   30.60    4.50 
  -1  -1  12   33.70    5.40 
  -1   1 -12   31.10    6.70 
   1   1  12   37.10    5.50 
   1  -1 -12   35.60   14.10 
   1  -1 -12   29.30    6.80 
   2  -1  12  144.59   12.90 
   2   1 -12  167.98   14.80 
  -2  -1 -12  136.29   14.60 
   2   1 -12  166.48   14.90 
  -2   1  12  151.68   13.10 
  -2   1  12  144.79   14.90 
   2   1 -12  141.59   11.90 
   2  -1 -12  149.99   14.50 
  -2  -1  12  151.48   12.90 
   2  -1 -12  156.78   12.10 
   2   1  12  135.49   13.00 
  -2   1 -12  168.68   15.50 
   2  -1 -12  150.88   14.90 
  -2  -1  12  133.49   13.10 
  -3   1  12  132.89   11.20 
   3  -1  12  133.09    9.00 
   3   1 -12  126.39   11.00 
   3  -1  12  129.69   11.70 
   3   1 -12  154.38   13.60 
  -3   1  12  117.09   13.40 
  -3  -1 -12  114.79   14.30 
   3  -1 -12  129.09   11.20 
  -3   1 -12  144.99   17.30 
  -3  -1  12  117.89   10.80 
   3   1  12  127.59   11.70 
   3   1  12  133.59    9.10 
   3  -1 -12  145.99   13.40 
  -3  -1  12  113.99   12.10 
   3   1  12  131.39   14.20 
  -4   1  12    6.30    3.60 
   4   1 -12   10.90    3.70 
   4  -1  12    5.30    2.70 
   4  -1  12    7.90    1.60 
   4  -1  12    2.00    3.00 
  -4  -1 -12    4.80    2.80 
   4   1 -12    8.90    2.80 
  -4   1  12    7.90    2.10 
  -4   1 -12    9.00    3.60 
  -4  -1  12    9.90    2.10 
   4  -1 -12   10.40    2.80 
  -4  -1  12    4.60    3.10 
   4   1  12   13.10    3.00 
   4   1  12    2.70    3.20 
   4  -1 -12   13.80    4.30 
   4   1  12    5.50    1.40 
   0  -2  12  187.98   15.70 
   0   2 -12  196.88   17.80 
   0   2  12  173.98   15.60 
   0  -2 -12  184.18   17.30 
   0   2  12  217.38   18.10 
   1   2 -12   30.30    6.70 
  -1  -2 -12   27.50    6.40 
  -1   2  12   36.90    6.90 
  -1   2  12   31.10    5.50 
   1   2 -12   32.30    5.30 
   1  -2  12   33.30    5.50 
  -1   2 -12   52.79    7.80 
  -1  -2  12   43.50    5.90 
   1  -2 -12   30.30    6.50 
   1   2  12   46.30    6.30 
   2   2 -12   89.79   10.80 
   2   2 -12   77.29    8.70 
   2   2 -12   80.29   10.00 
  -2   2  12   91.89   11.80 
  -2   2  12  100.69    9.30 
  -2  -2 -12   75.89   10.00 
  -2   2 -12   69.59    9.80 
  -2  -2  12   76.99    8.20 
   2   2  12   53.09    9.10 
   2  -2 -12   80.19   10.40 
   2  -2 -12   81.39   10.70 
   2  -2 -12   73.59    9.80 
   3  -2  12  162.48   11.40 
   3  -2  12  163.18   14.00 
  -3   2  12  202.58   14.30 
  -3   2  12  198.98   17.70 
   3   2 -12  198.78   13.80 
  -3  -2 -12  154.98   15.60 
   3   2  12  177.38   11.60 
  -3   2 -12  146.19   15.60 
  -3  -2  12  178.48   13.70 
   3  -2 -12  180.98   13.60 
  -3  -2  12  184.18   13.50 
   3  -2 -12  156.08   17.50 
   3   2  12  172.98   14.70 
   4   2 -12  105.19    8.60 
   4  -2  12   68.49    8.10 
   4  -2  12   88.79    6.50 
  -4   2  12   78.69    7.00 
   4  -2  12  118.99   12.90 
  -4   2  12   93.49   11.20 
   4   2 -12  103.99   10.40 
  -4  -2 -12   98.99    9.80 
  -4   2 -12   69.79    8.80 
   4   2  12  107.69   10.20 
   4  -2 -12   95.09   10.20 
   4  -2 -12   94.29    8.30 
  -4  -2  12   77.09    6.90 
   4   2  12   92.49    6.60 
   0   3  12  142.59   13.70 
   0  -3 -12  113.79   12.50 
   0  -3  12  101.19   10.50 
   0   3  12  125.09   11.60 
   0   3 -12  109.89   12.70 
  -1   3  12   62.49    7.60 
   1   3 -12   57.69    6.00 
  -1   3  12   74.49    9.80 
   1  -3  12   66.89    7.50 
  -1  -3 -12   44.60    7.80 
   1   3 -12   58.29    8.30 
   1  -3 -12   61.59    9.00 
   1   3  12   62.89    7.60 
  -1  -3  12   60.49    7.30 
   1  -3 -12   46.10    5.90 
  -1   3 -12   60.49    8.70 
   2   3 -12   45.40    7.70 
   2  -3  12   49.40    6.30 
  -2   3  12   56.79    8.70 
   2   3 -12   46.00    5.30 
   2   3 -12   49.00    8.80 
   2  -3 -12   50.19    8.40 
  -2  -3  12   37.00    6.50 
   2   3  12   50.59    6.50 
  -2   3 -12   24.90    7.60 
   2  -3 -12   44.40    8.30 
   2  -3 -12   41.40    5.20 
   3  -3  12   73.49    8.20 
   3   3 -12  101.89   10.50 
   3   3 -12   90.79    8.20 
  -3  -3 -12   88.99   10.30 
  -3   3  12   88.29    8.40 
  -3   3  12   97.59   11.70 
  -3  -3  12   84.29    8.00 
  -3   3 -12   78.59    9.70 
   3   3  12   93.59    6.50 
   3   3  12   97.39    9.20 
  -3  -3  12   93.29    9.00 
   3  -3 -12   82.49    7.90 
   3  -3 -12   92.79   10.40 
   4   3 -12   73.79    8.80 
   4  -3  12   65.69    5.00 
  -4  -3 -12   72.39    7.70 
   4   3 -12   72.29    6.60 
  -4   3  12   63.09    9.40 
  -4   3  12   60.69    5.70 
   4  -3  12   45.70    6.50 
  -4   3 -12   68.99    7.40 
   4   3  12   62.49    5.20 
   4  -3 -12   83.69    8.70 
  -4  -3  12   52.79    4.80 
   4  -3 -12   68.29    6.30 
   0  -4 -12  281.67   22.50 
   0   4 -12  275.47   22.00 
   0   4  12  266.77   21.90 
   0  -4  12  256.67   20.90 
   1  -4  12   25.80    5.00 
  -1  -4 -12   23.20    6.10 
   1   4 -12   20.20    5.20 
  -1   4  12   32.50    7.50 
   1   4 -12   23.40    3.80 
  -1   4  12   21.90    5.00 
   1   4  12   32.10    5.40 
   1  -4 -12   24.50    6.50 
  -1   4 -12   29.70    6.50 
  -1  -4  12   20.90    4.30 
   2  -4  12   29.90    4.80 
  -2  -4 -12   24.50    6.10 
   2   4 -12   21.50    3.70 
   2   4 -12   36.50    6.70 
  -2   4  12   38.50    7.00 
   2   4 -12   35.30    6.40 
  -2   4  12   34.40    5.20 
  -2   4 -12   29.00    6.40 
   2  -4 -12   27.00    3.80 
   2  -4 -12   26.50    5.50 
   2   4  12   29.10    5.00 
  -2  -4  12   21.20    4.30 
   3  -4  12   53.99    6.60 
  -3   4  12   65.49    6.60 
   3   4 -12   73.29    6.30 
  -3  -4 -12   60.29    7.80 
   3   4 -12   76.09    9.30 
  -3   4  12   76.69    9.70 
  -3   4 -12   65.09    7.80 
  -3  -4  12   59.59    6.00 
  -3  -4  12   58.89    7.10 
   3   4  12   47.00    6.80 
   3  -4 -12   63.99    8.70 
   3  -4 -12   55.39    5.80 
   0   5 -12    0.70    2.10 
   0  -5  12    2.00    2.00 
   0   5  12    2.70    2.80 
   0  -5 -12   -1.70    2.10 
   1   5 -12   50.99    6.70 
   1  -5  12   47.00    6.20 
  -1   5  12   48.10    6.40 
  -1   5  12   57.79    8.70 
  -1  -5 -12   44.70    7.30 
  -1   5 -12   49.30    7.10 
   1  -5 -12   49.20    7.60 
  -1  -5  12   58.99    6.50 
   1   5  12   59.19    6.90 
  -2   5  12    3.70    2.30 
  -2   5  12    5.50    3.30 
   2   5 -12   -3.60    2.80 
   2   5 -12    1.70    1.70 
  -2  -5 -12    4.50    3.10 
   2  -5  12    2.80    2.20 
  -2   5 -12    4.90    2.50 
   2   5  12    5.20    3.00 
  -2  -5  12    1.80    1.80 
   2  -5 -12    1.50    3.00 
  -2  -5  12    0.50    2.00 
   2  -5 -12    4.60    2.40 
   0   6  12   89.89    8.80 
   0  -6  12   85.29    8.40 
   0   6 -12   87.79    9.10 
   0  -6 -12   88.29    9.80 
   0   6  12  110.89   11.10 
   0   0 -13    2.50    2.70 
   0   0  13    1.90    1.90 
   1   0  13   60.79    7.50 
  -1   0  13   63.09    7.50 
  -1   0 -13   80.49    9.60 
   1   0 -13   66.19    9.00 
  -2   0 -13  367.06   30.10 
   2   0  13  437.86   28.90 
  -2   0  13  401.76   30.50 
  -2   0  13  478.75   28.80 
   2   0 -13  418.86   27.00 
   0   1  13   62.59    7.00 
   0  -1 -13   57.19    8.50 
   0  -1  13   51.69    6.60 
   0   1 -13   54.49    7.70 
   0   1  13   49.60    7.00 
  -1   1  13  205.38   17.50 
  -1   1  13  218.68   18.50 
   1   1 -13  267.07   20.40 
   1  -1  13  227.98   17.90 
   1  -1 -13  244.78   20.00 
  -1   1 -13  284.17   20.90 
  -1  -1  13  250.77   18.20 
   1   1  13  228.38   18.00 
   1   1  13  231.88   19.10 
  -2  -1 -13   65.19    8.40 
   2   1 -13   46.90    5.10 
  -2   1  13   53.39    7.10 
   2  -1  13   56.59    6.40 
  -2   1  13   52.29    6.20 
   2   1 -13   51.79    9.40 
  -2  -1  13   53.99    6.20 
  -2   1 -13   53.79    7.80 
   2   1  13   58.79    6.60 
   2  -1 -13   46.20    5.30 
   0  -2  13    1.80    1.90 
   0  -2 -13    2.10    2.70 
   0   2  13    1.90    1.90 
   0   2  13    0.50    2.30 
   0   2 -13    1.30    2.70 
  -1  -2 -13   32.10    6.60 
  -1   2  13   33.40    5.90 
   1  -2  13   29.70    4.70 
  -1   2  13   36.50    5.10 
   1   2 -13   27.50    5.30 
  -1   2 -13   21.80    5.50 
   1  -2 -13   16.60    4.50 
  -1  -2  13   29.20    4.50 
   1   2  13   25.40    5.00 
   1   2  13   24.10    4.70 
  -2   2  13  106.09   11.20 
  -2   2  13  103.59    9.40 
   2  -2  13   81.89    8.90 
   2   2 -13   86.19   10.30 
   2   2 -13  111.99    8.50 
   2   2  13  112.49   10.00 
  -2  -2  13  120.39    9.40 
   2  -2 -13  106.29   11.50 
   2  -2 -13  108.69    8.80 
   2   2  13  119.29    9.90 
  -2   2 -13   75.69   10.40 
   0   3 -13   -0.10    2.40 
   0   3  13    3.10    2.30 
   0  -3  13    0.30    1.40 
   0  -3 -13    2.00    2.60 
   0   3  13    0.90    1.50 
   1   3 -13   28.20    5.20 
  -1   3  13   26.70    5.30 
  -1   3  13   20.00    4.20 
   1  -3  13   28.80    4.30 
  -1  -3 -13   18.90    5.10 
   1   3  13   37.10    5.20 
  -1  -3  13   39.00    4.90 
  -1   3 -13   39.40    6.30 
   1   3  13   37.90    5.60 
   1  -3 -13   34.60    5.80 
   0   0   0    0.00    0.00 
  
_computing_structure_solution     'SHELXT 2014/5 (Sheldrick, 2014)' 
;
_shelx_hkl_checksum              52225
loop_
_space_group_symop_operation_xyz
'x, y, z'
'-x+1/2, -y, z+1/2'
'-x, y+1/2, -z+1/2'
'x+1/2, -y+1/2, -z'
loop_
_atom_site_label
_atom_site_type_symbol
_atom_site_fract_x
_atom_site_fract_y
_atom_site_fract_z
_atom_site_U_iso_or_equiv
_atom_site_adp_type
_atom_site_occupancy
_atom_site_site_symmetry_order
_atom_site_calc_flag
_atom_site_refinement_flags_posn
_atom_site_refinement_flags_adp
_atom_site_refinement_flags_occupancy
_atom_site_disorder_assembly
_atom_site_disorder_group
Cl1 Cl 0.90607(8) 0.50257(7) 0.57726(5) 0.0592(2) Uani 1 1 d . . . . .
Cl2 Cl 0.87617(9) 0.33821(6) 0.35251(6) 0.0637(2) Uani 1 1 d . . . . .
O1 O 0.6398(2) 0.67018(16) 0.38964(16) 0.0576(4) Uani 1 1 d . . . . .
O2 O 0.8974(3) 0.6419(2) 0.29813(16) 0.0688(5) Uani 1 1 d . . . . .
C3 C 0.5889(3) 0.4511(2) 0.47231(18) 0.0454(5) Uani 1 1 d . . . . .
H3 H 0.574963 0.407650 0.554407 0.054 Uiso 1 1 calc R U . . .
C1 C 0.7840(3) 0.6017(2) 0.3650(2) 0.0458(5) Uani 1 1 d . . . . .
C2 C 0.7797(3) 0.4693(2) 0.43831(17) 0.0420(5) Uani 1 1 d . . . . .
C4 C 0.4753(4) 0.3874(3) 0.3746(2) 0.0578(6) Uani 1 1 d . . . . .
H4 H 0.496056 0.302708 0.340257 0.069 Uiso 1 1 calc R U . . .
C5 C 0.3435(4) 0.4640(3) 0.3428(3) 0.0707(8) Uani 1 1 d . . . . .
H5 H 0.259749 0.439647 0.283784 0.085 Uiso 1 1 calc R U . . .
C6 C 0.3429(4) 0.5956(4) 0.4124(3) 0.0774(9) Uani 1 1 d . . . . .
H6A H 0.250823 0.598071 0.474837 0.093 Uiso 1 1 calc R U . . .
H6B H 0.328654 0.670974 0.355257 0.093 Uiso 1 1 calc R U . . .
C7 C 0.5206(4) 0.5973(3) 0.4733(2) 0.0557(6) Uani 1 1 d . . . . .
H7 H 0.517847 0.635800 0.558074 0.067 Uiso 1 1 calc R U . . .
loop_
_atom_site_aniso_label
_atom_site_aniso_U_11
_atom_site_aniso_U_22
_atom_site_aniso_U_33
_atom_site_aniso_U_23
_atom_site_aniso_U_13
_atom_site_aniso_U_12
Cl1 0.0594(4) 0.0778(4) 0.0404(3) 0.0019(2) -0.0091(2) -0.0041(3)
Cl2 0.0706(5) 0.0618(3) 0.0586(3) -0.0102(3) -0.0003(3) 0.0214(3)
O1 0.0647(11) 0.0424(7) 0.0656(9) 0.0032(7) -0.0004(8) 0.0016(7)
O2 0.0696(12) 0.0803(12) 0.0564(9) 0.0158(9) 0.0077(9) -0.0259(11)
C3 0.0513(14) 0.0489(10) 0.0361(9) 0.0032(8) 0.0063(9) -0.0088(10)
C1 0.0523(13) 0.0466(11) 0.0387(9) 0.0036(9) -0.0036(9) -0.0109(10)
C2 0.0469(12) 0.0448(11) 0.0343(8) 0.0025(8) 0.0008(8) -0.0003(9)
C4 0.0619(16) 0.0592(13) 0.0523(12) -0.0068(11) 0.0059(11) -0.0208(12)
C5 0.0450(15) 0.106(2) 0.0608(15) -0.0045(15) -0.0005(11) -0.0138(15)
C6 0.0500(17) 0.098(2) 0.0841(19) -0.0040(18) 0.0074(14) 0.0148(16)
C7 0.0550(15) 0.0597(14) 0.0524(12) -0.0106(11) 0.0083(11) 0.0034(11)
loop_
_atom_type_symbol
_atom_type_description
_atom_type_scat_dispersion_real
_atom_type_scat_dispersion_imag
_atom_type_scat_source
C C 0.0137 0.0067 'International Tables Vol C Tables 4.2.6.8 and 6.1.1.4'
H H 0.0000 0.0000 'International Tables Vol C Tables 4.2.6.8 and 6.1.1.4'
Cl Cl 0.3281 0.5435 'International Tables Vol C Tables 4.2.6.8 and 6.1.1.4'
O O 0.0389 0.0241 'International Tables Vol C Tables 4.2.6.8 and 6.1.1.4'
loop_
_geom_angle_atom_site_label_1
_geom_angle_atom_site_label_2
_geom_angle_atom_site_label_3
_geom_angle
_geom_angle_site_symmetry_1
_geom_angle_site_symmetry_3
_geom_angle_publ_flag
C1 O1 C7 112.79(17) . . ?
C4 C3 C2 116.46(18) . . ?
C4 C3 C7 101.8(2) . . ?
C2 C3 C7 102.51(18) . . ?
C4 C3 H3 111.7 . . ?
C2 C3 H3 111.7 . . ?
C7 C3 H3 111.7 . . ?
O2 C1 O1 123.7(2) . . ?
O2 C1 C2 127.4(2) . . ?
O1 C1 C2 108.80(18) . . ?
C3 C2 C1 104.18(18) . . ?
C3 C2 Cl2 116.26(16) . . ?
C1 C2 Cl2 111.28(14) . . ?
C3 C2 Cl1 110.18(13) . . ?
C1 C2 Cl1 104.48(15) . . ?
Cl2 C2 Cl1 109.72(12) . . ?
C5 C4 C3 112.6(2) . . ?
C5 C4 H4 123.7 . . ?
C3 C4 H4 123.7 . . ?
C4 C5 C6 112.3(3) . . ?
C4 C5 H5 123.8 . . ?
C6 C5 H5 123.8 . . ?
C5 C6 C7 102.6(2) . . ?
C5 C6 H6A 111.2 . . ?
C7 C6 H6A 111.2 . . ?
C5 C6 H6B 111.2 . . ?
C7 C6 H6B 111.2 . . ?
H6A C6 H6B 109.2 . . ?
O1 C7 C6 107.9(2) . . ?
O1 C7 C3 104.38(18) . . ?
C6 C7 C3 107.0(2) . . ?
O1 C7 H7 112.4 . . ?
C6 C7 H7 112.4 . . ?
C3 C7 H7 112.4 . . ?
loop_
_geom_bond_atom_site_label_1
_geom_bond_atom_site_label_2
_geom_bond_distance
_geom_bond_site_symmetry_2
_geom_bond_publ_flag
Cl1 C2 1.799(2) . ?
Cl2 C2 1.753(2) . ?
O1 C1 1.324(3) . ?
O1 C7 1.467(3) . ?
O2 C1 1.192(3) . ?
C3 C4 1.497(3) . ?
C3 C2 1.517(3) . ?
C3 C7 1.543(3) . ?
C3 H3 0.9800 . ?
C1 C2 1.529(3) . ?
C4 C5 1.309(4) . ?
C4 H4 0.9300 . ?
C5 C6 1.502(5) . ?
C5 H5 0.9300 . ?
C6 C7 1.509(4) . ?
C6 H6A 0.9700 . ?
C6 H6B 0.9700 . ?
C7 H7 0.9800 . ?
loop_
_geom_torsion_atom_site_label_1
_geom_torsion_atom_site_label_2
_geom_torsion_atom_site_label_3
_geom_torsion_atom_site_label_4
_geom_torsion
_geom_torsion_site_symmetry_1
_geom_torsion_site_symmetry_2
_geom_torsion_site_symmetry_3
_geom_torsion_site_symmetry_4
_geom_torsion_publ_flag
C7 O1 C1 O2 179.3(2) . . . . ?
C7 O1 C1 C2 -2.3(2) . . . . ?
C4 C3 C2 C1 84.2(2) . . . . ?
C7 C3 C2 C1 -26.0(2) . . . . ?
C4 C3 C2 Cl2 -38.7(2) . . . . ?
C7 C3 C2 Cl2 -148.80(15) . . . . ?
C4 C3 C2 Cl1 -164.26(17) . . . . ?
C7 C3 C2 Cl1 85.59(17) . . . . ?
O2 C1 C2 C3 -163.0(2) . . . . ?
O1 C1 C2 C3 18.6(2) . . . . ?
O2 C1 C2 Cl2 -37.0(3) . . . . ?
O1 C1 C2 Cl2 144.66(16) . . . . ?
O2 C1 C2 Cl1 81.4(2) . . . . ?
O1 C1 C2 Cl1 -97.01(18) . . . . ?
C2 C3 C4 C5 -122.3(2) . . . . ?
C7 C3 C4 C5 -11.8(3) . . . . ?
C3 C4 C5 C6 0.4(3) . . . . ?
C4 C5 C6 C7 11.4(3) . . . . ?
C1 O1 C7 C6 -128.3(2) . . . . ?
C1 O1 C7 C3 -14.7(3) . . . . ?
C5 C6 C7 O1 93.7(3) . . . . ?
C5 C6 C7 C3 -18.1(3) . . . . ?
C4 C3 C7 O1 -95.9(2) . . . . ?
C2 C3 C7 O1 24.9(2) . . . . ?
C4 C3 C7 C6 18.3(3) . . . . ?
C2 C3 C7 C6 139.1(2) . . . . ?
