#------------------------------------------------------------------------------
#$Date: 2021-07-06 04:26:30 +0300 (Tue, 06 Jul 2021) $
#$Revision: 267261 $
#$URL: file:///home/coder/svn-repositories/cod/cif/1/56/39/1563954.cif $
#------------------------------------------------------------------------------
#
# This file is available in the Crystallography Open Database (COD),
# http://www.crystallography.net/
#
# All data on this site have been placed in the public domain by the
# contributors.
#
data_1563954
loop_
_publ_author_name
'Xiong, Zuping'
'Zhang, Xiaoxiao'
'Liu, Longxiang'
'Zhu, Qiaozhi'
'Wang, Zhenni'
'Feng, Hui'
'Qian, Zhaosheng'
_publ_section_title
;
 Achieving Highly Efficient Aggregation-Induced Emission, Reversible and
 Irreversible Photochromism by Heavy Halogen-Regulated Photophysics and
 D-A Molecular Pattern-Controlled Photochemistry of Through-Space
 Conjugated Lumingens
;
_journal_name_full               'Chemical Science'
_journal_paper_doi               10.1039/D1SC02168K
_journal_year                    2021
_chemical_formula_moiety         'C21 H14 I N'
_chemical_formula_sum            'C21 H14 I N'
_chemical_formula_weight         407.23
_chemical_name_common            TPAN-I
_space_group_crystal_system      triclinic
_space_group_IT_number           2
_space_group_name_Hall           '-P 1'
_space_group_name_H-M_alt        'P -1'
_atom_sites_solution_hydrogens   geom
_atom_sites_solution_primary     dual
_audit_creation_date             2020-01-02
_audit_creation_method
;
Olex2 1.2
(compiled 2018.05.29 svn.r3508 for OlexSys, GUI svn.r5506)
;
_audit_update_record
;
2021-01-06 deposited with the CCDC.	2021-07-05 downloaded from the CCDC.
;
_cell_angle_alpha                63.694(2)
_cell_angle_beta                 81.390(3)
_cell_angle_gamma                80.864(2)
_cell_formula_units_Z            2
_cell_length_a                   9.6674(4)
_cell_length_b                   9.7329(4)
_cell_length_c                   10.2634(7)
_cell_measurement_reflns_used    2251
_cell_measurement_temperature    295(2)
_cell_measurement_theta_max      74.34
_cell_measurement_theta_min      28.44
_cell_volume                     851.27(8)
_computing_cell_refinement       'SAINT V8.38A (?, 2016)'
_computing_data_reduction        'SAINT V8.38A (?, 2016)'
_computing_molecular_graphics    'Olex2 (Dolomanov et al., 2009)'
_computing_publication_material  'Olex2 (Dolomanov et al., 2009)'
_computing_structure_refinement  'ShelXL (Sheldrick, 2015)'
_computing_structure_solution    'ShelXT (Sheldrick, 2015)'
_diffrn_ambient_temperature      295.0
_diffrn_measured_fraction_theta_full 0.982
_diffrn_measured_fraction_theta_max 0.978
_diffrn_measurement_device_type  'Bruker APEX-II CCD'
_diffrn_measurement_method       '\f and \w scans'
_diffrn_radiation_type           CuK\a
_diffrn_radiation_wavelength     1.54178
_diffrn_reflns_av_R_equivalents  0.0591
_diffrn_reflns_av_unetI/netI     0.0642
_diffrn_reflns_Laue_measured_fraction_full 0.982
_diffrn_reflns_Laue_measured_fraction_max 0.978
_diffrn_reflns_limit_h_max       11
_diffrn_reflns_limit_h_min       -11
_diffrn_reflns_limit_k_max       12
_diffrn_reflns_limit_k_min       -11
_diffrn_reflns_limit_l_max       12
_diffrn_reflns_limit_l_min       -12
_diffrn_reflns_number            8529
_diffrn_reflns_point_group_measured_fraction_full 0.982
_diffrn_reflns_point_group_measured_fraction_max 0.978
_diffrn_reflns_theta_full        67.679
_diffrn_reflns_theta_max         72.096
_diffrn_reflns_theta_min         4.651
_diffrn_standards_number         0
_exptl_absorpt_coefficient_mu    14.747
_exptl_absorpt_correction_T_max  0.0872
_exptl_absorpt_correction_T_min  0.0078
_exptl_absorpt_correction_type   multi-scan
_exptl_absorpt_process_details
;
SADABS-2016/2 (Bruker,2016/2) was used for absorption correction.
wR2(int) was 0.1564 before and 0.0876 after correction.
The Ratio of minimum to maximum transmission is 0.0894.
The \l/2 correction factor is Not present.
;
_exptl_crystal_density_diffrn    1.589
_exptl_crystal_description       block
_exptl_crystal_F_000             400
_exptl_crystal_size_max          0.2
_exptl_crystal_size_mid          0.15
_exptl_crystal_size_min          0.1
_refine_diff_density_max         3.304
_refine_diff_density_min         -3.590
_refine_diff_density_rms         0.316
_refine_ls_extinction_method     none
_refine_ls_goodness_of_fit_ref   1.207
_refine_ls_hydrogen_treatment    constr
_refine_ls_matrix_type           full
_refine_ls_number_parameters     208
_refine_ls_number_reflns         3273
_refine_ls_number_restraints     0
_refine_ls_restrained_S_all      1.207
_refine_ls_R_factor_all          0.1060
_refine_ls_R_factor_gt           0.1053
_refine_ls_shift/su_max          0.001
_refine_ls_shift/su_mean         0.000
_refine_ls_structure_factor_coef Fsqd
_refine_ls_weighting_details
'w=1/[\s^2^(Fo^2^)+(0.2000P)^2^] where P=(Fo^2^+2Fc^2^)/3'
_refine_ls_weighting_scheme      calc
_refine_ls_wR_factor_gt          0.2529
_refine_ls_wR_factor_ref         0.2556
_reflns_Friedel_coverage         0.000
_reflns_number_gt                3161
_reflns_number_total             3273
_reflns_threshold_expression     'I > 2\s(I)'
_iucr_refine_instructions_details
;
TITL 1230xzp03_0m_a.res in P-1
    1230xzp03_0m.res
    created by SHELXL-2018/3 at 21:00:57 on 02-Jan-2020
REM Old TITL 1230xzp03_0m in P1
REM SHELXT solution in P-1: R1 0.241, Rweak 0.020, Alpha 0.045
REM <I/s> 0.000 for 0 systematic absences, Orientation as input
REM Formula found by SHELXT: C21 N I
CELL 1.54178 9.6674 9.7329 10.2634 63.694 81.39 80.864
ZERR 2 0.0004 0.0004 0.0007 0.002 0.003 0.002
LATT 1
SFAC C H I N
UNIT 42 28 2 2

L.S. 4 0 0
PLAN  20
TEMP 21.85
list 4
fmap 2 53
ACTA
REM <olex2.extras>
REM <HklSrc "%.\\1230xzp03_0m.hkl">
REM </olex2.extras>

WGHT    0.200000
FVAR       0.78760
I001  3   -0.078562    0.173769    0.574556    11.00000    0.04610    0.04647 =
         0.07788   -0.01750    0.01610   -0.01812
C002  1    0.105263    0.281458    0.477729    11.00000    0.02816    0.03089 =
         0.04371   -0.00766    0.00241   -0.00514
C003  1    0.625354    0.325833    0.214327    11.00000    0.02934    0.02704 =
         0.03900   -0.00845   -0.00210   -0.00391
C004  1    0.173629    0.274844    0.351974    11.00000    0.04078    0.03062 =
         0.04391   -0.01101   -0.00446   -0.00631
AFIX  43
H004  2    0.140136    0.220129    0.310615    11.00000   -1.20000
AFIX   0
C005  1    0.346722    0.431390    0.348551    11.00000    0.04157    0.02246 =
         0.03230   -0.00546    0.00258   -0.00475
C006  1    0.591869    0.481294    0.210357    11.00000    0.03192    0.02844 =
         0.03342   -0.00685    0.00006   -0.00491
C007  1    0.661086    0.743538    0.031427    11.00000    0.04520    0.03230 =
         0.04140   -0.01187    0.00172   -0.00579
AFIX  43
H007  2    0.566915    0.778217    0.016384    11.00000   -1.20000
AFIX   0
C008  1    0.698900    0.591652    0.129744    11.00000    0.03580    0.03116 =
         0.03661   -0.01378    0.00269   -0.00724
C009  1    0.469753    0.521625    0.278443    11.00000    0.03034    0.02808 =
         0.03695   -0.01195    0.00332   -0.00463
C00A  1    0.275586    0.435573    0.477145    11.00000    0.03818    0.04586 =
         0.04165   -0.02120    0.00283   -0.00427
AFIX  43
H00A  2    0.309862    0.488636    0.519700    11.00000   -1.20000
AFIX   0
N00B  4    0.430977    0.780060    0.300329    11.00000    0.05672    0.04816 =
         0.08314   -0.03731    0.01962   -0.01502
C00C  1    0.293981    0.351742    0.287900    11.00000    0.03609    0.03624 =
         0.03124   -0.00722    0.00210   -0.00894
AFIX  43
H00C  2    0.339394    0.349008    0.202414    11.00000   -1.20000
AFIX   0
C00D  1    0.611548    0.192071    0.345699    11.00000    0.04785    0.03153 =
         0.03634   -0.00325    0.00233   -0.00134
AFIX  43
H00D  2    0.580496    0.199951    0.432615    11.00000   -1.20000
AFIX   0
C00E  1    0.675166    0.311301    0.085635    11.00000    0.04304    0.03885 =
         0.03527   -0.00983    0.00082   -0.00745
AFIX  43
H00E  2    0.686275    0.399555   -0.001114    11.00000   -1.20000
AFIX   0
C00F  1    0.452478    0.668185    0.286044    11.00000    0.04055    0.03623 =
         0.05430   -0.02037    0.00278   -0.00631
C00G  1    0.644587    0.047533    0.345197    11.00000    0.05631    0.02660 =
         0.06121   -0.00196   -0.00246   -0.00031
AFIX  43
H00G  2    0.634469   -0.041110    0.431786    11.00000   -1.20000
AFIX   0
C00H  1    0.155547    0.361915    0.540975    11.00000    0.04132    0.03872 =
         0.04618   -0.01803    0.00692   -0.00672
AFIX  43
H00H  2    0.108806    0.366077    0.625412    11.00000   -1.20000
AFIX   0
C00I  1    0.763847    0.842889   -0.043920    11.00000    0.05841    0.03779 =
         0.04953   -0.01111    0.00748   -0.01838
AFIX  43
H00I  2    0.738286    0.943093   -0.110899    11.00000   -1.20000
AFIX   0
C00J  1    0.692757    0.035506    0.215238    11.00000    0.05845    0.02718 =
         0.08045   -0.02090   -0.01213    0.00286
AFIX  43
H00J  2    0.714659   -0.061071    0.215274    11.00000   -1.20000
AFIX   0
C00K  1    0.841255    0.542265    0.150576    11.00000    0.03489    0.04442 =
         0.04645   -0.01702   -0.00013   -0.00353
AFIX  43
H00K  2    0.867908    0.440583    0.213430    11.00000   -1.20000
AFIX   0
C00L  1    0.708164    0.168687    0.084750    11.00000    0.04737    0.05155 =
         0.05670   -0.02958   -0.00273    0.00101
AFIX  43
H00L  2    0.740477    0.160962   -0.002019    11.00000   -1.20000
AFIX   0
C00M  1    0.941842    0.641737    0.079598    11.00000    0.03707    0.05947 =
         0.06257   -0.02219    0.00586   -0.01538
AFIX  43
H00M  2    1.035484    0.607790    0.097900    11.00000   -1.20000
AFIX   0
C00N  1    0.905965    0.792848   -0.019497    11.00000    0.05433    0.05421 =
         0.06259   -0.02400    0.01603   -0.02638
AFIX  43
H00N  2    0.974856    0.859454   -0.068633    11.00000   -1.20000
AFIX   0
HKLF 4




REM  1230xzp03_0m_a.res in P-1
REM wR2 = 0.2556, GooF = S = 1.207, Restrained GooF = 1.207 for all data
REM R1 = 0.1053 for 3161 Fo > 4sig(Fo) and 0.1060 for all 3273 data
REM 208 parameters refined using 0 restraints

END  
     
WGHT      0.2000      0.0000 

REM Highest difference peak  3.304,  deepest hole -3.590,  1-sigma level  0.316
Q1    1  -0.0474  0.1648  0.6651  11.00000  0.05    3.30
Q2    1  -0.0779  0.1860  0.4783  11.00000  0.05    2.80
Q3    1  -0.1033  0.0365  0.5580  11.00000  0.05    1.91
Q4    1  -0.1622  0.1745  0.6195  11.00000  0.05    1.73
Q5    1  -0.0605  0.3197  0.5798  11.00000  0.05    1.72
Q6    1   0.0017  0.1635  0.5341  11.00000  0.05    1.57
Q7    1   0.2439  0.5058  0.5630  11.00000  0.05    0.70
Q8    1   0.7151  0.8443  0.0593  11.00000  0.05    0.65
Q9    1   0.3135  0.6973  0.2787  11.00000  0.05    0.65
Q10   1   1.0762  0.4011  0.1379  11.00000  0.05    0.65
Q11   1   0.6252  0.3098  0.1218  11.00000  0.05    0.65
Q12   1   0.2800  0.6826  0.3552  11.00000  0.05    0.63
Q13   1   0.4460  0.7380  0.4049  11.00000  0.05    0.62
Q14   1   0.7431  0.5415  0.2456  11.00000  0.05    0.62
Q15   1   0.7012  0.7745  0.0804  11.00000  0.05    0.61
Q16   1   0.6395  0.3024 -0.0187  11.00000  0.05    0.61
Q17   1   0.3760  0.8012  0.1752  11.00000  0.05    0.60
Q18   1   0.3207  0.4336  0.3989  11.00000  0.05    0.59
Q19   1   0.6445  0.5553  0.2384  11.00000  0.05    0.56
Q20   1   0.7309  0.8365 -0.1386  11.00000  0.05    0.55

  REM The information below was added by Olex2.
  REM
  REM R1 = 0.1053 for 3161 Fo > 4sig(Fo) and 0.1060 for all 8529 data
  REM n/a parameters refined using n/a restraints
  REM Highest difference peak 3.30, deepest hole -3.59
  REM Mean Shift 0, Max Shift -0.001.

  REM +++ Tabular Listing of Refinement Information +++
  REM R1_all = 0.1060
  REM R1_gt = 0.1053
  REM wR_ref = 0.2556
  REM GOOF = 1.207
  REM Shift_max = -0.001
  REM Shift_mean = 0
  REM Reflections_all = 8529
  REM Reflections_gt = 3161
  REM Parameters = n/a
  REM Hole = -3.59
  REM Peak = 3.30
  REM Flack = n/a

  
;
_cod_data_source_file            d1sc02168k2.cif
_cod_data_source_block           1230xzp03_0m
_cod_database_code               1563954
_shelx_shelxl_version_number     2018/3
_shelx_space_group_comment
;
The symmetry employed for this shelxl refinement is uniquely defined
by the following loop, which should always be used as a source of
symmetry information in preference to the above space-group names.
They are only intended as comments.
;
_olex2_refinement_description
;
1. Fixed Uiso
 At 1.2 times of:
  All C(H) groups
2.a Aromatic/amide H refined with riding coordinates:
 C004(H004), C007(H007), C00A(H00A), C00C(H00C), C00D(H00D), C00E(H00E),
 C00G(H00G), C00H(H00H), C00I(H00I), C00J(H00J), C00K(H00K), C00L(H00L),
 C00M(H00M), C00N(H00N)
;
_olex2_submission_special_instructions 'No special instructions were received'
loop_
_space_group_symop_operation_xyz
'x, y, z'
'-x, -y, -z'
loop_
_atom_site_label
_atom_site_type_symbol
_atom_site_fract_x
_atom_site_fract_y
_atom_site_fract_z
_atom_site_U_iso_or_equiv
_atom_site_adp_type
_atom_site_occupancy
_atom_site_site_symmetry_order
_atom_site_calc_flag
_atom_site_refinement_flags_posn
_atom_site_refinement_flags_adp
_atom_site_refinement_flags_occupancy
_atom_site_disorder_assembly
_atom_site_disorder_group
I001 I -0.07856(4) 0.17377(4) 0.57456(5) 0.0611(3) Uani 1 1 d . . . . .
C002 C 0.1053(5) 0.2815(6) 0.4777(5) 0.0377(10) Uani 1 1 d . . . . .
C003 C 0.6254(5) 0.3258(6) 0.2143(5) 0.0339(9) Uani 1 1 d . . . . .
C004 C 0.1736(6) 0.2748(6) 0.3520(5) 0.0399(10) Uani 1 1 d . . . . .
H004 H 0.140136 0.220129 0.310615 0.048 Uiso 1 1 calc R . . . .
C005 C 0.3467(6) 0.4314(5) 0.3486(5) 0.0349(9) Uani 1 1 d . . . . .
C006 C 0.5919(5) 0.4813(6) 0.2104(5) 0.0338(9) Uani 1 1 d . . . . .
C007 C 0.6611(6) 0.7435(6) 0.0314(6) 0.0415(11) Uani 1 1 d . . . . .
H007 H 0.566915 0.778217 0.016384 0.050 Uiso 1 1 calc R . . . .
C008 C 0.6989(5) 0.5917(6) 0.1297(5) 0.0350(9) Uani 1 1 d . . . . .
C009 C 0.4698(5) 0.5216(6) 0.2784(5) 0.0331(9) Uani 1 1 d . . . . .
C00A C 0.2756(5) 0.4356(7) 0.4771(6) 0.0417(11) Uani 1 1 d . . . . .
H00A H 0.309862 0.488636 0.519700 0.050 Uiso 1 1 calc R . . . .
N00B N 0.4310(7) 0.7801(8) 0.3003(8) 0.0611(14) Uani 1 1 d . . . . .
C00C C 0.2940(5) 0.3517(6) 0.2879(5) 0.0372(9) Uani 1 1 d . . . . .
H00C H 0.339394 0.349008 0.202414 0.045 Uiso 1 1 calc R . . . .
C00D C 0.6115(6) 0.1921(6) 0.3457(5) 0.0438(11) Uani 1 1 d . . . . .
H00D H 0.580496 0.199951 0.432615 0.053 Uiso 1 1 calc R . . . .
C00E C 0.6752(6) 0.3113(7) 0.0856(5) 0.0414(11) Uani 1 1 d . . . . .
H00E H 0.686275 0.399555 -0.001114 0.050 Uiso 1 1 calc R . . . .
C00F C 0.4525(6) 0.6682(7) 0.2860(7) 0.0439(11) Uani 1 1 d . . . . .
C00G C 0.6446(7) 0.0475(7) 0.3452(7) 0.0551(14) Uani 1 1 d . . . . .
H00G H 0.634469 -0.041110 0.431786 0.066 Uiso 1 1 calc R . . . .
C00H C 0.1555(6) 0.3619(7) 0.5410(6) 0.0431(11) Uani 1 1 d . . . . .
H00H H 0.108806 0.366077 0.625412 0.052 Uiso 1 1 calc R . . . .
C00I C 0.7638(8) 0.8429(7) -0.0439(7) 0.0512(13) Uani 1 1 d . . . . .
H00I H 0.738286 0.943093 -0.110899 0.061 Uiso 1 1 calc R . . . .
C00J C 0.6928(8) 0.0355(7) 0.2152(9) 0.0564(15) Uani 1 1 d . . . . .
H00J H 0.714659 -0.061071 0.215274 0.068 Uiso 1 1 calc R . . . .
C00K C 0.8413(6) 0.5423(7) 0.1506(6) 0.0433(11) Uani 1 1 d . . . . .
H00K H 0.867908 0.440583 0.213430 0.052 Uiso 1 1 calc R . . . .
C00L C 0.7082(8) 0.1687(9) 0.0848(8) 0.0505(15) Uani 1 1 d . . . . .
H00L H 0.740477 0.160962 -0.002019 0.061 Uiso 1 1 calc R . . . .
C00M C 0.9418(7) 0.6417(10) 0.0796(7) 0.0545(14) Uani 1 1 d . . . . .
H00M H 1.035484 0.607790 0.097900 0.065 Uiso 1 1 calc R . . . .
C00N C 0.9060(8) 0.7928(9) -0.0195(8) 0.0574(15) Uani 1 1 d . . . . .
H00N H 0.974856 0.859454 -0.068633 0.069 Uiso 1 1 calc R . . . .
loop_
_atom_site_aniso_label
_atom_site_aniso_U_11
_atom_site_aniso_U_22
_atom_site_aniso_U_33
_atom_site_aniso_U_23
_atom_site_aniso_U_13
_atom_site_aniso_U_12
I001 0.0461(4) 0.0465(4) 0.0779(4) -0.0175(3) 0.0161(2) -0.0181(2)
C002 0.028(2) 0.031(2) 0.044(2) -0.0077(19) 0.0024(17) -0.0051(17)
C003 0.029(2) 0.027(2) 0.039(2) -0.0084(18) -0.0021(16) -0.0039(15)
C004 0.041(2) 0.031(2) 0.044(2) -0.0110(18) -0.0045(19) -0.0063(18)
C005 0.042(2) 0.022(2) 0.0323(19) -0.0055(16) 0.0026(17) -0.0048(17)
C006 0.032(2) 0.028(2) 0.0334(19) -0.0069(17) 0.0001(16) -0.0049(17)
C007 0.045(3) 0.032(2) 0.041(2) -0.012(2) 0.0017(19) -0.006(2)
C008 0.036(2) 0.031(2) 0.0366(19) -0.0138(18) 0.0027(16) -0.0072(17)
C009 0.030(2) 0.028(2) 0.0369(19) -0.0119(17) 0.0033(16) -0.0046(16)
C00A 0.038(2) 0.046(3) 0.042(2) -0.021(2) 0.0028(19) -0.004(2)
N00B 0.057(3) 0.048(3) 0.083(4) -0.037(3) 0.020(3) -0.015(2)
C00C 0.036(2) 0.036(2) 0.0312(18) -0.0072(17) 0.0021(16) -0.0089(18)
C00D 0.048(3) 0.032(3) 0.036(2) -0.0032(19) 0.0023(19) -0.0013(19)
C00E 0.043(3) 0.039(3) 0.035(2) -0.0098(19) 0.0008(18) -0.007(2)
C00F 0.041(3) 0.036(3) 0.054(3) -0.020(2) 0.003(2) -0.006(2)
C00G 0.056(3) 0.027(3) 0.061(3) -0.002(2) -0.002(3) 0.000(2)
C00H 0.041(3) 0.039(3) 0.046(2) -0.018(2) 0.0069(19) -0.0067(19)
C00I 0.058(4) 0.038(3) 0.050(3) -0.011(2) 0.007(2) -0.018(2)
C00J 0.058(4) 0.027(3) 0.080(4) -0.021(3) -0.012(3) 0.003(2)
C00K 0.035(3) 0.044(3) 0.046(2) -0.017(2) -0.0001(19) -0.004(2)
C00L 0.047(4) 0.052(4) 0.057(3) -0.030(3) -0.003(3) 0.001(3)
C00M 0.037(3) 0.059(4) 0.063(4) -0.022(3) 0.006(2) -0.015(3)
C00N 0.054(4) 0.054(4) 0.063(4) -0.024(3) 0.016(3) -0.026(3)
loop_
_atom_type_symbol
_atom_type_description
_atom_type_scat_dispersion_real
_atom_type_scat_dispersion_imag
_atom_type_scat_source
C C 0.0181 0.0091 'International Tables Vol C Tables 4.2.6.8 and 6.1.1.4'
H H 0.0000 0.0000 'International Tables Vol C Tables 4.2.6.8 and 6.1.1.4'
I I -0.3257 6.8362 'International Tables Vol C Tables 4.2.6.8 and 6.1.1.4'
N N 0.0311 0.0180 'International Tables Vol C Tables 4.2.6.8 and 6.1.1.4'
loop_
_geom_angle_atom_site_label_1
_geom_angle_atom_site_label_2
_geom_angle_atom_site_label_3
_geom_angle
_geom_angle_site_symmetry_1
_geom_angle_site_symmetry_3
_geom_angle_publ_flag
C004 C002 I001 120.5(4) . . ?
C004 C002 C00H 120.8(5) . . ?
C00H C002 I001 118.7(4) . . ?
C00D C003 C006 121.4(4) . . ?
C00E C003 C006 119.4(4) . . ?
C00E C003 C00D 119.2(5) . . ?
C002 C004 C00C 119.0(4) . . ?
C00A C005 C009 118.8(4) . . ?
C00C C005 C009 122.7(4) . . ?
C00C C005 C00A 118.4(5) . . ?
C003 C006 C008 116.3(4) . . ?
C009 C006 C003 122.1(5) . . ?
C009 C006 C008 121.6(5) . . ?
C00I C007 C008 120.2(5) . . ?
C007 C008 C006 121.6(4) . . ?
C007 C008 C00K 118.8(5) . . ?
C00K C008 C006 119.5(4) . . ?
C006 C009 C005 127.8(4) . . ?
C006 C009 C00F 118.9(5) . . ?
C00F C009 C005 113.3(4) . . ?
C00H C00A C005 120.9(5) . . ?
C005 C00C C004 121.5(5) . . ?
C00G C00D C003 119.7(5) . . ?
C00L C00E C003 121.2(5) . . ?
N00B C00F C009 174.9(7) . . ?
C00D C00G C00J 120.2(6) . . ?
C00A C00H C002 119.4(5) . . ?
C007 C00I C00N 120.4(6) . . ?
C00G C00J C00L 120.0(5) . . ?
C00M C00K C008 120.8(6) . . ?
C00E C00L C00J 119.6(6) . . ?
C00K C00M C00N 121.0(7) . . ?
C00M C00N C00I 118.8(6) . . ?
loop_
_geom_bond_atom_site_label_1
_geom_bond_atom_site_label_2
_geom_bond_distance
_geom_bond_site_symmetry_2
_geom_bond_publ_flag
I001 C002 2.094(5) . ?
C002 C004 1.383(7) . ?
C002 C00H 1.392(7) . ?
C003 C006 1.480(7) . ?
C003 C00D 1.406(7) . ?
C003 C00E 1.396(7) . ?
C004 C00C 1.399(8) . ?
C005 C009 1.490(7) . ?
C005 C00A 1.408(7) . ?
C005 C00C 1.377(7) . ?
C006 C008 1.489(7) . ?
C006 C009 1.373(7) . ?
C007 C008 1.398(7) . ?
C007 C00I 1.390(9) . ?
C008 C00K 1.399(7) . ?
C009 C00F 1.445(7) . ?
C00A C00H 1.382(8) . ?
N00B C00F 1.145(9) . ?
C00D C00G 1.394(9) . ?
C00E C00L 1.378(9) . ?
C00G C00J 1.395(11) . ?
C00I C00N 1.404(11) . ?
C00J C00L 1.400(11) . ?
C00K C00M 1.369(9) . ?
C00M C00N 1.391(11) . ?
loop_
_refln_index_h
_refln_index_k
_refln_index_l
_refln_F_squared_meas
_refln_F_squared_sigma
-1 0 0 1571.74 136.79
-1 0 0 1734.03 137.59
1 0 0 1699.23 136.89
1 0 0 1739.93 137.29
-2 0 0 229.08 23.4
-2 0 0 225.18 24.4
2 0 0 274.37 24
2 0 0 273.07 24.2
-3 0 0 1567.34 142.59
3 0 0 1821.72 141.39
3 0 0 1699.33 140.79
4 0 0 2705.43 229.78
4 0 0 2898.41 230.18
-5 0 0 2483.35 237.88
5 0 0 3315.27 239.08
-6 0 0 1105.29 104.09
-6 0 0 1086.89 99.89
6 0 0 1389.56 104.59
6 0 0 1279.67 98.49
-7 0 0 638.74 55.29
-7 0 0 566.94 59.29
7 0 0 699.83 54.29
7 0 0 716.63 53.89
-8 0 0 685.03 53.99
-8 0 0 550.94 54.19
8 0 0 661.43 52.49
8 0 0 669.73 52.89
-9 0 0 56.89 9
-9 0 0 82.19 8
9 0 0 71.49 6.8
9 0 0 76.79 7.1
-10 0 0 8.1 2
10 0 0 8.5 1.5
10 0 0 8.7 1.7
-11 0 0 111.99 10.1
-11 0 0 120.09 9.9
11 0 0 103.99 9.6
11 0 0 102.29 9.6
11 0 0 128.79 9.7
11 -1 0 72.09 6.8
11 -1 0 83.89 6.8
10 -1 0 252.57 21.5
10 -1 0 245.28 21.7
10 -1 0 276.87 21.8
-10 1 0 253.47 22.4
-10 1 0 280.17 22.1
9 -1 0 303.57 25.3
9 -1 0 302.77 25.1
-9 1 0 316.47 26
-9 1 0 259.87 25.7
8 -1 0 90.69 8.6
8 -1 0 93.99 8.3
-8 1 0 81.29 9.6
-8 1 0 88.89 9.2
7 -1 0 108.09 14.1
7 -1 0 109.79 9.7
7 -1 0 96.19 9
-7 1 0 104.49 10.4
-7 1 0 74.99 10.5
6 -1 0 1033.3 85.19
6 -1 0 1010.1 88.39
6 -1 0 1061.69 84.09
-6 1 0 1017.7 85.19
4 -1 0 1445.06 111.29
-4 1 0 1188.08 110.39
3 -1 0 3755.12 302.87
3 -1 0 4137.29 302.67
3 -1 0 3837.82 303.27
-3 1 0 3619.44 304.37
-3 1 0 3217.38 301.17
2 -1 0 445.16 38.4
2 -1 0 444.96 37.9
-2 1 0 350.16 36.7
-2 1 0 446.96 39.4
1 -1 0 973.8 79.69
-1 1 0 920.41 78.89
-1 1 0 914.91 78.99
0 -1 0 226.48 22.3
0 -1 0 279.67 23.6
0 1 0 234.98 22.3
0 1 0 263.27 23.5
1 1 0 3942.71 292.97
1 1 0 3163.88 292.87
1 1 0 3776.22 292.97
-2 -1 0 372.46 34.3
-2 -1 0 355.96 35.2
2 1 0 404.26 35.1
-3 -1 0 7508.15 608.64
-4 -1 0 921.21 83.29
4 1 0 998.5 83.29
5 1 0 730.43 62.49
5 1 0 680.53 62.99
-6 -1 0 169.48 19.4
-6 -1 0 153.58 15.6
-7 -1 0 839.32 78.59
-7 -1 0 827.82 73.89
7 1 0 971.7 79.09
7 1 0 902.81 72.19
7 1 0 906.31 72.69
-8 -1 0 535.45 45.5
8 1 0 545.35 44.4
8 1 0 532.65 43.9
-9 -1 0 277.27 27.4
-9 -1 0 343.37 27.2
9 1 0 306.07 25.6
9 1 0 313.37 26
-10 -1 0 135.39 13.6
-10 -1 0 162.68 13.5
10 1 0 148.39 12.7
10 1 0 138.69 12.3
-11 -1 0 15 2.4
11 1 0 14.5 1.9
11 -2 0 0.9 0.5
11 -2 0 0.9 0.7
-11 2 0 0.7 0.6
10 -2 0 103.59 8.3
10 -2 0 92.09 8.2
-10 2 0 94.69 8.7
-10 2 0 82.09 8
9 -2 0 240.38 22
9 -2 0 266.67 22.5
9 -2 0 278.57 22.4
-9 2 0 277.87 22.7
-9 2 0 274.67 23.3
8 -2 0 242.48 20.3
8 -2 0 222.98 20.1
8 -2 0 243.68 20.7
-8 2 0 219.58 21.4
-8 2 0 269.57 21.2
7 -2 0 349.37 37.6
7 -2 0 410.26 32.4
7 -2 0 393.86 33
-7 2 0 322.37 32.5
-7 2 0 388.06 32.2
6 -2 0 550.54 47.3
6 -2 0 613.74 48.2
6 -2 0 571.64 52.39
-6 2 0 581.24 48.7
5 -2 0 14.7 4.1
-5 2 0 13 4.5
4 -2 0 1061.69 82.39
-4 2 0 842.32 81.29
3 -2 0 2055.89 169.48
2 -2 0 6549.14 483.25
2 -2 0 5901.21 494.15
-2 2 0 5484.05 481.55
-1 2 0 9999 803.72
0 -2 0 5605.04 456.35
0 -2 0 5334.67 454.55
0 2 0 6012.3 455.05
0 2 0 5595.74 456.25
-1 -2 0 367.56 34
-1 -2 0 386.46 36.7
1 2 0 389.36 35.2
1 2 0 379.36 34.5
-2 -2 0 373.66 32.2
-2 -2 0 309.87 33.8
-2 -2 0 328.17 32.5
2 2 0 406.06 33.7
-3 -2 0 2966.3 226.68
-3 -2 0 2361.56 225.88
3 2 0 2999.6 225.98
3 2 0 2936.51 226.98
3 2 0 2554.64 226.98
-4 -2 0 6620.44 553.44
-4 -2 0 6138.29 552.74
4 2 0 7702.63 553.04
4 2 0 6892.31 554.14
-5 -2 0 1255.27 127.09
5 2 0 1652.93 128.89
5 2 0 1611.94 126.89
-6 -2 0 887.21 83.59
-6 -2 0 859.81 82.79
6 2 0 1027.2 81.19
6 2 0 998.2 77.99
-7 -2 0 309.17 32.7
-7 -2 0 307.97 28.2
7 2 0 333.97 27
7 2 0 309.87 26
-8 -2 0 32.9 5.8
-8 -2 0 35 5
8 2 0 30.5 3.3
8 2 0 35 4.1
-9 -2 0 498.65 39.7
9 2 0 433.36 38.4
-10 -2 0 500.15 37.7
-10 -2 0 411.86 37.9
10 2 0 430.36 36.7
-11 -2 0 325.37 26.5
-11 -2 0 329.17 26.7
11 2 0 300.87 26
10 -3 0 43.4 3.9
10 -3 0 34.8 3.8
-10 3 0 38.2 4.1
9 -3 0 13 2.2
-9 3 0 15.3 2.8
8 -3 0 177.58 14.7
8 -3 0 160.08 14.2
-8 3 0 157.88 15.3
7 -3 0 419.56 31.8
7 -3 0 363.06 31
-7 3 0 322.97 32.2
-7 3 0 390.36 31.6
6 -3 0 1269.17 100.09
6 -3 0 1311.57 100.49
6 -3 0 1193.78 99.69
6 -3 0 1215.98 104.79
-6 3 0 1177.38 100.39
5 -3 0 623.34 49.9
5 -3 0 589.64 53.29
5 -3 0 585.64 48.9
4 -3 0 206.48 20.1
-4 3 0 153.68 19
3 -3 0 32.8 6.2
-3 3 0 25.5 5.4
2 -3 0 2282.87 174.88
2 -3 0 2013.9 174.18
-2 3 0 2023.3 173.48
1 -3 0 1530.85 126.19
1 -3 0 1382.16 122.39
-1 3 0 1501.15 124.59
-1 3 0 1434.06 123.19
0 -3 0 5177.78 462.65
0 3 0 6306.37 464.25
0 3 0 5712.03 464.85
-1 -3 0 4923.71 443.16
-1 -3 0 5817.82 442.56
-1 -3 0 5233.68 445.26
1 3 0 5657.13 444.26
1 3 0 5201.28 441.76
1 3 0 5982.8 444.06
-2 -3 0 1405.06 124.69
-2 -3 0 1267.47 116.29
2 3 0 1371.16 118.29
2 3 0 1544.95 128.09
2 3 0 1456.55 118.29
-3 -3 0 76.09 10.1
3 3 0 80.29 10.4
-4 -3 0 22.9 5.1
-4 -3 0 26.4 6
4 3 0 29 5.4
-5 -3 0 328.97 31.6
-5 -3 0 318.47 33.1
-6 -3 0 2174.28 173.98
-6 -3 0 2164.78 171.08
6 3 0 1846.32 169.48
-7 -3 0 714.93 59.89
-7 -3 0 630.44 60.89
7 3 0 770.32 58.19
-8 -3 0 104.59 13.9
-8 -3 0 135.29 13.4
8 3 0 158.68 12.7
-9 -3 0 90.09 11
-9 -3 0 104.99 10.4
9 3 0 112.69 9.8
-10 -3 0 7.2 2.5
-10 -3 0 4.5 1.5
10 3 0 6.6 1.4
-11 -3 0 36.1 4.3
-11 -3 0 38.2 3.9
11 3 0 35.6 3.6
10 -4 0 72.99 6
10 -4 0 61.39 5.9
-10 4 0 69.99 6.2
9 -4 0 101.59 8.9
9 -4 0 95.79 8.9
-9 4 0 104.19 9.4
8 -4 0 8.4 1.7
8 -4 0 9.2 1.9
-8 4 0 9.8 2.5
7 -4 0 15.6 2.3
7 -4 0 10.5 2.2
-7 4 0 13.8 3.4
-7 4 0 9.6 2
6 -4 0 136.49 11.5
-6 4 0 112.59 13.8
5 -4 0 1015 82.69
5 -4 0 933.91 77.99
-5 4 0 945.61 78.19
-5 4 0 949.11 83.19
4 -4 0 283.47 28.6
4 -4 0 300.47 25.3
4 -4 0 339.47 25.7
-4 4 0 255.07 28.3
-4 4 0 273.37 24.8
3 -4 0 1341.17 107.99
-3 4 0 1202.98 107.29
2 -4 0 2211.68 186.98
2 -4 0 1889.71 186.28
-2 4 0 2348.47 186.78
-2 4 0 2584.04 191.88
1 -4 0 385.96 39.5
-1 4 0 456.25 42.4
0 -4 0 213.88 20.9
0 -4 0 167.58 20.2
0 4 0 186.48 20.2
0 4 0 210.48 22.4
-1 -4 0 2543.85 189.68
1 4 0 2055.19 190.18
-2 -4 0 3846.92 304.07
2 4 0 3621.94 305.67
-3 -4 0 4628.74 366.46
3 4 0 4400.86 367.16
-4 -4 0 1200.28 99.69
4 4 0 1155.08 99.59
5 4 0 409.56 37.2
5 4 0 443.06 38.7
-6 -4 0 34 7.3
-6 -4 0 23.4 5
-6 -4 0 41.8 8.3
-7 -4 0 280.57 29.1
-7 -4 0 325.67 27.6
-8 -4 0 343.37 31.5
8 4 0 388.46 31.2
-9 -4 0 809.02 68.09
9 4 0 851.01 67.69
-10 -4 0 329.57 25
-10 -4 0 258.97 25.4
10 4 0 295.97 24.6
-11 -4 0 55.99 5
-11 -4 0 53.39 5.2
11 4 0 54.29 4.9
9 -5 0 71.09 6
9 -5 0 56.79 5.8
-9 5 0 70.69 6.2
8 -5 0 168.98 15.3
8 -5 0 181.98 15.3
-8 5 0 186.98 15.9
7 -5 0 118.59 10.8
7 -5 0 121.39 10.5
-7 5 0 105.39 10.3
-7 5 0 122.49 11.4
6 -5 0 160.88 14
6 -5 0 150.68 13.4
-6 5 0 139.49 14.4
-6 5 0 158.28 13.7
5 -5 0 79.99 8.1
5 -5 0 76.99 8.4
-5 5 0 62.49 8.5
-5 5 0 83.49 7.8
4 -5 0 240.08 21.1
-4 5 0 201.88 21.4
-4 5 0 270.97 25.7
-4 5 0 242.08 20.7
3 -5 0 1274.57 91.69
3 -5 0 1078.79 94.69
-3 5 0 1101.09 90.89
-3 5 0 1086.29 98.19
-3 5 0 1026.6 91.99
2 -5 0 1065.89 101.69
2 -5 0 1170.78 102.99
-2 5 0 1114.29 97.49
-2 5 0 1318.97 107.59
-2 5 0 1326.17 102.39
1 -5 0 3123.39 267.87
1 -5 0 3361.36 270.47
-1 5 0 3254.17 271.07
-1 5 0 3335.17 269.37
0 -5 0 1806.62 149.88
0 5 0 1725.33 149.49
1 5 0 77.39 11.6
-2 -5 0 338.17 30.2
2 5 0 276.87 30.4
3 5 0 537.35 49.3
-4 -5 0 1926.01 160.08
4 5 0 1924.11 159.48
-5 -5 0 1283.97 109.99
5 5 0 1309.87 107.19
-6 -5 0 778.92 71.69
6 5 0 963.4 73.49
-7 -5 0 112.49 11.2
-8 -5 0 0.2 1.7
-8 -5 0 3.1 1.3
8 5 0 2.9 1.4
-9 -5 0 73.49 7.1
9 5 0 71.39 7.1
-10 -5 0 274.47 25.6
-10 -5 0 322.97 25.1
10 5 0 307.47 25
9 -6 0 2.9 0.7
9 -6 0 3.2 0.7
-9 6 0 2.3 0.7
8 -6 0 12 1.9
8 -6 0 13.4 1.8
-8 6 0 10.5 2
7 -6 0 55.69 5.3
7 -6 0 49.9 5.4
-7 6 0 51.99 5.2
-7 6 0 52.79 5.8
6 -6 0 302.07 28.3
6 -6 0 356.46 28.4
-6 6 0 346.17 28.2
-6 6 0 345.07 29.1
5 -6 0 109.79 10.9
5 -6 0 119.89 10.7
-5 6 0 107.19 11.4
-5 6 0 122.19 10.8
4 -6 0 129.59 11.8
4 -6 0 104.49 11.1
-4 6 0 130.19 11.5
-4 6 0 127.29 12.3
3 -6 0 40.2 5.1
3 -6 0 30.2 4.3
-3 6 0 42.1 5.6
2 -6 0 298.67 27
-2 6 0 322.67 27.8
-2 6 0 302.67 26.9
-2 6 0 324.17 30.8
1 -6 0 200.48 27.9
1 -6 0 232.28 20.8
1 -6 0 248.08 29.5
-1 6 0 231.88 24.7
-1 6 0 251.17 21.6
-1 6 0 229.38 20.7
0 -6 0 2809.62 220.58
0 -6 0 2590.24 216.18
0 6 0 2568.34 223.38
0 6 0 2735.33 216.18
-1 -6 0 1948.21 160.98
-1 -6 0 2003.2 164.68
1 6 0 2007.9 160.38
1 6 0 1953.4 166.78
-2 -6 0 1108.09 93.79
-2 -6 0 1189.68 96.79
2 6 0 1049.7 97.99
2 6 0 1292.77 94.39
2 6 0 1054.69 93.29
-3 -6 0 97.89 12.6
-3 -6 0 138.99 15.4
-3 -6 0 114.39 13.1
3 6 0 138.79 16.2
3 6 0 143.69 13.5
-4 -6 0 28.9 7.1
-4 -6 0 20.8 5
4 6 0 31.8 5.5
-5 -6 0 336.87 36.5
-5 -6 0 422.06 35.5
5 6 0 485.45 36.8
-6 -6 0 835.12 68.19
6 6 0 815.22 68.89
-7 -6 0 836.42 65.79
7 6 0 705.73 67.09
-8 -6 0 345.57 25.7
-8 -6 0 255.17 26.6
8 6 0 301.37 25.9
-9 -6 0 108.69 10.5
-9 -6 0 127.69 9.8
9 6 0 91.29 10.1
-10 -6 0 0.3 0.6
10 6 0 1.5 0.6
8 -7 0 31.9 3.3
8 -7 0 35.6 3.3
-8 7 0 39.1 3.6
7 -7 0 2 0.9
7 -7 0 4 1
-7 7 0 2.2 0.9
-7 7 0 3.2 0.9
6 -7 0 1.2 1.1
6 -7 0 1.2 1
-6 7 0 1.2 0.9
-6 7 0 1.4 1.1
5 -7 0 119.09 11.2
5 -7 0 120.79 11.4
-5 7 0 127.29 11.2
-5 7 0 130.19 11.9
4 -7 0 350.86 30.4
-4 7 0 354.56 30.1
-4 7 0 369.66 31.8
3 -7 0 530.65 46.5
3 -7 0 578.04 46.9
-3 7 0 574.04 47.3
-3 7 0 560.94 46.5
2 -7 0 192.68 17.8
-2 7 0 190.48 17.5
-2 7 0 201.98 18.2
1 -7 0 216.78 20.5
-1 7 0 225.48 20.3
-1 7 0 241.58 20.9
0 -7 0 13.6 3.7
1 7 0 1705.23 146.69
1 7 0 1929.51 149.99
-2 -7 0 59.19 8
2 7 0 84.09 8.9
2 7 0 63.59 7.1
-3 -7 0 1760.12 153.88
3 7 0 2022.3 154.18
-4 -7 0 970.6 85.99
4 7 0 1106.49 86.09
-5 -7 0 53.99 6.8
5 7 0 47.8 6.4
-6 -7 0 13.9 3.1
-6 -7 0 7.5 1.9
6 7 0 6.6 1.9
-7 -7 0 86.39 9
-7 -7 0 79.99 7.4
7 7 0 72.39 8
-8 -7 0 264.07 23.3
-8 -7 0 270.87 22.2
8 7 0 268.67 22.8
-9 -7 0 240.08 18.9
-9 -7 0 236.58 19.4
9 7 0 211.38 18.9
6 -8 0 34.7 3.3
6 -8 0 29 3.3
-6 8 0 32.3 3.4
-6 8 0 29.8 3.2
5 -8 0 32.7 4
-5 8 0 31.3 3.5
-5 8 0 30.7 3.8
4 -8 0 34.8 4.7
4 -8 0 44 5
-4 8 0 43.1 5
-4 8 0 42.5 4.6
3 -8 0 147.79 13.2
-3 8 0 136.39 13.2
-3 8 0 142.99 12.9
2 -8 0 313.47 27.8
-2 8 0 303.17 27.8
-2 8 0 352.56 28.8
1 -8 0 247.68 22.5
-1 8 0 258.97 22.7
-1 8 0 260.77 22.4
0 -8 0 667.73 57.99
0 8 0 729.43 57.89
0 8 0 700.43 58.19
-1 -8 0 50.29 6.5
1 8 0 64.19 6.9
1 8 0 50.39 6
-2 -8 0 141.19 13.8
2 8 0 150.98 13.9
2 8 0 137.89 12.9
-3 -8 0 22.2 4.3
3 8 0 22.1 3.9
-4 -8 0 1093.69 92.49
4 8 0 1142.09 92.39
4 8 0 1141.19 91.19
-5 -8 0 421.06 36.9
5 8 0 442.86 36.7
-6 -8 0 355.86 29.5
6 8 0 325.97 28.9
-7 -8 0 169.68 14.8
-7 -8 0 183.38 14.2
7 8 0 138.09 14.1
-8 -8 0 4.8 1.1
8 8 0 3.4 0.8
5 -9 0 32.2 3.6
-5 9 0 32.5 3.3
-5 9 0 35.4 3.3
4 -9 0 35 3.8
-4 9 0 30.4 3.5
-4 9 0 38.2 3.7
3 -9 0 20.4 3.5
-3 9 0 21.3 2.8
-3 9 0 20.1 2.9
2 -9 0 3.5 1.5
-2 9 0 2.6 1.4
-2 9 0 2.1 1.4
1 -9 0 103.79 10.2
-1 9 0 116.99 10.1
-1 9 0 97.79 10
0 -9 0 300.87 26.3
0 9 0 327.47 25.9
0 9 0 286.77 26.1
-1 -9 0 536.65 46.2
1 9 0 542.65 46.1
1 9 0 581.14 45.6
-2 -9 0 224.68 19.6
2 9 0 214.28 19.3
-3 -9 0 70.99 8
3 9 0 81.49 7.9
-4 -9 0 -1.6 1.2
4 9 0 0.6 1.2
4 9 0 -1.1 0.9
-5 -9 0 145.59 12.4
5 9 0 122.79 12
-6 -9 0 109.39 9.5
6 9 0 94.29 9
7 9 0 181.98 15.5
3 -10 0 30.9 3.1
-3 10 0 32.8 3
-3 10 0 24.3 2.8
2 -10 0 75.89 6.7
-2 10 0 60.59 6.4
-2 10 0 79.39 6.5
1 -10 0 6.3 1.5
-1 10 0 8.2 1.5
-1 10 0 5.1 1.3
0 -10 0 19.7 3
0 10 0 22.6 2.4
0 10 0 15.8 2.5
-1 -10 0 26.5 3.5
1 10 0 23.9 3.2
1 10 0 25.6 2.7
-2 -10 0 40.5 4.2
2 10 0 28.7 3.7
-3 -10 0 219.28 16.5
3 10 0 178.48 16.1
3 10 0 172.58 15.5
-4 -10 0 264.27 20.1
4 10 0 207.98 19.6
-5 -10 0 94.79 7.7
5 10 0 73.99 7.3
3 10 -1 139.99 11.7
-3 -10 1 135.39 12.5
2 10 -1 85.49 8.3
-2 -10 1 106.09 8.7
1 10 -1 59.59 5.9
-1 -10 1 71.39 6.2
0 10 -1 26.4 3.1
0 -10 1 35.1 3.5
-1 10 -1 -0.5 0.7
1 -10 1 0.1 1
6 9 -1 314.27 25.8
5 9 -1 125.49 12.3
-5 -9 1 160.88 12.7
4 9 -1 94.69 9.4
-4 -9 1 111.59 9.8
3 9 -1 3 1.1
3 9 -1 3.4 1.3
-3 -9 1 2.9 1.5
2 9 -1 28.2 3.9
-2 -9 1 26.9 3.9
1 9 -1 330.57 26
1 9 -1 319.07 27.1
-1 -9 1 283.77 26.4
0 9 -1 170.88 15.7
0 -9 1 184.48 15.8
-1 9 -1 169.38 15.4
1 -9 1 183.48 15.6
-2 9 -1 102.89 8.8
-2 9 -1 88.99 8.7
2 -9 1 91.49 8.8
-3 9 -1 -0.3 0.8
-3 9 -1 0.2 0.8
3 -9 1 1 0.9
-4 9 -1 20.5 2.4
-4 9 -1 18.7 2.6
4 -9 1 21 2.5
8 8 -1 17.9 1.9
7 8 -1 12.5 1.9
-7 -8 1 16.4 2.4
-7 -8 1 15.7 1.9
6 8 -1 103.59 9.3
-6 -8 1 95.19 9
-6 -8 1 94.79 10.5
5 8 -1 339.67 33.2
-5 -8 1 425.36 33.8
-5 -8 1 420.56 32.9
4 8 -1 383.96 33.2
-4 -8 1 396.26 33.3
3 8 -1 267.07 24
-3 -8 1 280.87 24.2
2 8 -1 92.29 8.3
2 8 -1 83.09 8.9
-2 -8 1 79.69 8.9
1 8 -1 2.8 1.7
1 8 -1 5.7 2
-1 -8 1 7.9 2.4
0 8 -1 243.88 20.2
0 8 -1 231.48 20.5
0 -8 1 211.58 20.2
-1 8 -1 78.59 7.8
-1 8 -1 75.29 7.9
1 -8 1 65.09 7.6
-2 8 -1 273.67 25
-2 8 -1 298.77 24.9
2 -8 1 315.37 24.9
2 -8 1 268.27 24.7
-3 8 -1 92.89 8.9
-3 8 -1 91.89 9.1
3 -8 1 100.09 10.1
3 -8 1 87.59 8.9
-4 8 -1 41.3 5.3
-4 8 -1 42.1 4.7
4 -8 1 50.09 4.9
4 -8 1 44.2 4.9
-5 8 -1 9.2 1.6
-5 8 -1 10.8 2.4
5 -8 1 9.1 2.5
5 -8 1 7.8 1.6
-6 8 -1 0.8 0.8
6 -8 1 0.8 0.6
6 -8 1 1.2 0.7
9 7 -1 156.78 12.5
-9 -7 1 143.09 12.5
-8 -7 1 386.86 31.6
-8 -7 1 386.06 32.2
7 7 -1 335.37 30.7
-7 -7 1 373.26 31.3
-7 -7 1 385.26 30.3
6 7 -1 307.57 29.1
-6 -7 1 345.67 29.7
-6 -7 1 359.46 28.6
5 7 -1 4.9 2
-5 -7 1 8.3 1.9
-5 -7 1 5.2 2.2
4 7 -1 108.49 11.3
-4 -7 1 105.09 11.3
3 7 -1 165.68 15.5
-3 -7 1 148.49 15.2
2 7 -1 2255.07 172.18
2 7 -1 2209.18 173.28
-2 -7 1 1927.41 172.58
1 7 -1 1269.07 102.09
1 7 -1 1277.97 101.39
-1 -7 1 1178.18 101.49
0 7 -1 100.79 9.7
0 7 -1 95.89 10.1
0 -7 1 82.59 9.5
-1 7 -1 355.46 28.9
-1 7 -1 329.77 29.2
1 -7 1 313.37 28.7
-2 7 -1 15.7 3.5
-2 7 -1 15.5 3.5
2 -7 1 17.7 3.2
-3 7 -1 638.94 54.29
-3 7 -1 652.53 55.09
3 -7 1 655.53 54.49
3 -7 1 688.03 55.59
-4 7 -1 61.49 7
-4 7 -1 62.29 6.5
4 -7 1 66.79 6.7
4 -7 1 62.79 6.8
-5 7 -1 315.37 25.4
-5 7 -1 278.47 24.7
5 -7 1 292.07 24.9
5 -7 1 294.07 24.9
-6 7 -1 25.7 3.8
-6 7 -1 37.1 4.4
6 -7 1 29 3.5
6 -7 1 31.1 3.5
-7 7 -1 11.7 1.8
-7 7 -1 12.4 1.7
7 -7 1 10.9 1.6
7 -7 1 11.1 1.7
9 6 -1 12.3 1.8
-9 -6 1 15.2 2.4
-9 -6 1 14.3 1.8
8 6 -1 180.08 16.6
-8 -6 1 209.48 16.5
-8 -6 1 180.38 17.4
7 6 -1 646.24 54.19
-7 -6 1 730.73 53.79
-7 -6 1 560.94 54.69
6 6 -1 469.05 40.9
-6 -6 1 520.55 40.1
-6 -6 1 421.76 41.1
5 6 -1 782.92 63.49
-5 -6 1 686.63 63.59
-5 -6 1 779.52 62.49
4 6 -1 340.17 29.5
-4 -6 1 320.27 29.3
-4 -6 1 341.47 28.3
-4 -6 1 287.97 28
3 6 -1 33.5 6
3 6 -1 18.6 8.1
-3 -6 1 20.4 6.7
-3 -6 1 28.9 4.7
-3 -6 1 19.3 4.1
2 6 -1 177.08 23
2 6 -1 218.18 18.2
-2 -6 1 224.48 19.1
-2 -6 1 178.18 17.9
1 6 -1 1777.42 131.39
1 6 -1 1603.54 130.19
1 6 -1 1433.36 136.59
-1 -6 1 1592.44 130.49
0 6 -1 1011.8 77.89
0 6 -1 903.31 84.89
0 6 -1 948.51 77.09
0 -6 1 923.01 77.09
0 -6 1 886.51 80.69
-1 6 -1 583.84 49.1
-1 6 -1 590.74 48.5
-1 6 -1 613.34 59.19
1 -6 1 534.15 48.1
-2 6 -1 1079.59 91.09
-2 6 -1 1057.69 85.29
2 -6 1 927.11 84.19
2 -6 1 1070.09 86.09
-3 6 -1 20 4.1
-3 6 -1 21 3.6
3 -6 1 24.6 4
-4 6 -1 115.99 11
-4 6 -1 118.09 11.9
4 -6 1 112.29 10.9
4 -6 1 118.39 11.2
-5 6 -1 17.2 2.8
5 -6 1 16.3 2.9
5 -6 1 15.7 3.7
-6 6 -1 344.17 27.3
-6 6 -1 305.27 26.3
6 -6 1 306.47 26.4
6 -6 1 306.57 26.5
-7 6 -1 22.1 3
-7 6 -1 19.2 3.3
7 -6 1 28.5 3.2
7 -6 1 30.5 3.2
-8 6 -1 52.49 5
8 -6 1 53.69 4.9
8 -6 1 53.79 5
10 5 -1 197.38 17.1
-10 -5 1 216.88 17.2
-10 -5 1 204.68 17.7
9 5 -1 205.28 18.5
-9 -5 1 178.48 18.4
-9 -5 1 228.98 17.7
8 5 -1 186.78 17.4
-8 -5 1 203.28 17.4
7 5 -1 81.79 9
-7 -5 1 78.29 8.5
6 5 -1 351.96 30.6
-6 -5 1 329.17 29.8
5 5 -1 957.1 75.89
-5 -5 1 851.11 74.89
4 5 -1 1357.46 113.89
4 5 -1 1390.16 109.79
-4 -5 1 1369.76 110.79
-4 -5 1 1177.08 107.99
3 5 -1 1553.84 116.09
3 5 -1 1346.37 120.39
-3 -5 1 1295.37 114.09
-3 -5 1 1408.26 115.89
2 5 -1 1020 98.99
-2 -5 1 1249.77 94.29
1 5 -1 347.27 39.8
-1 -5 1 453.85 38
-1 -5 1 406.06 34.7
0 5 -1 92.49 14.4
0 -5 1 99.59 9.8
0 -5 1 87.49 11.9
-1 5 -1 315.47 32.9
-1 5 -1 273.67 25
1 -5 1 288.97 24.9
1 -5 1 277.67 27.5
1 -5 1 271.07 28.6
-2 5 -1 1273.97 108.39
-2 5 -1 1124.89 101.29
-2 5 -1 1373.56 112.39
2 -5 1 1211.28 101.29
-3 5 -1 1330.17 117.99
-3 5 -1 1676.23 131.79
-3 5 -1 1360.26 119.99
-3 5 -1 1662.63 125.59
3 -5 1 1428.86 118.19
3 -5 1 1307.87 118.09
-4 5 -1 384.26 36.1
-4 5 -1 411.96 35.2
-4 5 -1 478.55 43
4 -5 1 416.36 35.5
4 -5 1 411.76 35.4
-5 5 -1 237.18 19.5
-5 5 -1 198.18 20.2
5 -5 1 211.98 19.2
5 -5 1 238.08 19.7
-6 5 -1 19.8 3
-6 5 -1 18.1 3.7
6 -5 1 21.8 3.1
6 -5 1 23.8 3.3
-7 5 -1 121.19 12.4
-7 5 -1 170.58 13.6
7 -5 1 145.69 12.6
7 -5 1 141.39 12.7
-8 5 -1 63.59 6.2
8 -5 1 53.99 5.6
8 -5 1 63.19 5.8
-9 5 -1 95.19 8.5
9 -5 1 102.39 8.4
9 -5 1 92.79 8.3
11 4 -1 1.2 0.5
-11 -4 1 1.8 0.6
-11 -4 1 1 0.6
10 4 -1 126.19 10.4
-10 -4 1 100.29 10.9
-10 -4 1 125.69 10.5
9 4 -1 469.55 38.6
-9 -4 1 461.65 38.9
-8 -4 1 604.84 56.39
-7 -4 1 541.05 43
-7 -4 1 445.56 44
-6 -4 1 111.69 14.2
-6 -4 1 127.69 13
5 4 -1 81.69 11.3
-5 -4 1 47.6 9.3
-5 -4 1 63.29 7.8
-5 -4 1 47.3 9.3
4 4 -1 11.8 5.1
-4 -4 1 9.9 2.9
-4 -4 1 5.7 3.8
-4 -4 1 12.9 3.9
2 4 -1 3472.15 331.27
-2 -4 1 4623.44 328.57
1 4 -1 3033.4 277.97
-1 -4 1 3699.33 274.37
0 4 -1 2417.56 200.48
0 -4 1 2481.75 196.68
0 -4 1 2260.17 195.28
-1 4 -1 82.39 12.9
1 -4 1 62.69 9.8
1 -4 1 80.79 10.6
1 -4 1 64.89 9
-2 4 -1 958.1 80.99
2 -4 1 835.02 74.59
2 -4 1 882.51 74.19
-3 4 -1 961 83.39
-3 4 -1 863.41 74.69
3 -4 1 896.91 74.49
3 -4 1 998 74.79
3 -4 1 829.52 75.29
-4 4 -1 730.43 67.79
-4 4 -1 646.34 61.19
4 -4 1 841.62 61.79
4 -4 1 764.42 61.59
-5 4 -1 679.33 57.69
-5 4 -1 554.54 49.4
5 -4 1 584.34 49.3
-6 4 -1 52.19 7
-6 4 -1 45.6 5.8
6 -4 1 61.49 6
6 -4 1 73.49 6.7
6 -4 1 66.69 6.6
-7 4 -1 47.5 6.1
7 -4 1 51.89 5.2
7 -4 1 47.9 5.5
-8 4 -1 -0.2 1.2
8 -4 1 1.4 1
8 -4 1 0.2 0.9
-9 4 -1 22.8 2.9
9 -4 1 23.1 2.7
9 -4 1 18 2.5
10 -4 1 47.9 4.1
10 -4 1 40.4 3.9
11 3 -1 94.69 10
-11 -3 1 113.39 10.4
-11 -3 1 124.49 9.7
-10 -3 1 65.69 6.6
9 3 -1 -0.6 0.9
-9 -3 1 2.2 1.3
-9 -3 1 0.2 1.5
8 3 -1 92.49 8.8
-8 -3 1 88.69 9.6
-8 -3 1 80.89 10.2
7 3 -1 973.3 75.99
-7 -3 1 969.8 78.89
-7 -3 1 876.21 79.59
6 3 -1 1559.84 117.19
-6 -3 1 1434.76 120.29
-6 -3 1 1361.06 121.19
5 3 -1 1216.48 99.79
-5 -3 1 1023.5 98.09
-5 -3 1 1250.87 97.59
4 3 -1 1105.39 106.79
-4 -3 1 1425.56 105.39
3 3 -1 140.79 17.6
-3 -3 1 167.28 20.8
2 3 -1 237.98 28.2
-2 -3 1 320.47 26.7
1 3 -1 518.25 51.69
-1 -3 1 579.44 48.2
0 3 -1 3134.89 233.78
0 3 -1 2996.2 237.08
0 -3 1 2521.65 230.48
0 -3 1 2720.83 231.88
-1 3 -1 1467.15 112.29
1 -3 1 1292.97 104.89
1 -3 1 1064.59 106.09
-2 3 -1 4660.13 356.66
2 -3 1 4009.6 349.57
-3 3 -1 1993.1 166.98
3 -3 1 1897.01 158.68
-4 3 -1 5.7 3.3
4 -3 1 8.3 2.8
-5 3 -1 197.18 24
-5 3 -1 226.28 19.7
-6 3 -1 372.86 32.9
-6 3 -1 317.97 42
6 -3 1 387.86 32.3
6 -3 1 451.95 33.2
-7 3 -1 428.36 41.4
-7 3 -1 483.55 40.8
7 -3 1 489.25 40.3
7 -3 1 513.85 40.6
7 -3 1 478.65 41.5
7 -3 1 538.45 40.9
-8 3 -1 443.36 38.2
-8 3 -1 421.56 39.1
8 -3 1 529.65 39.4
-9 3 -1 9.3 1.9
9 -3 1 4.8 1.3
9 -3 1 5.5 1.4
-10 3 -1 2.7 1
10 -3 1 5.1 1.1
10 -3 1 2.4 0.8
11 2 -1 248.88 21.4
-11 -2 1 272.67 21.7
-11 -2 1 257.67 21.9
10 2 -1 309.67 26.1
-10 -2 1 331.67 26.8
-10 -2 1 298.57 27.1
9 2 -1 443.36 36.8
9 2 -1 422.06 36.1
-9 -2 1 485.45 38
-9 -2 1 430.26 38.5
8 2 -1 121.79 11.1
8 2 -1 123.29 10.2
-8 -2 1 106.29 12.8
7 2 -1 202.98 16.1
7 2 -1 201.48 17.2
-7 -2 1 166.68 18.9
-7 -2 1 183.88 18.6
6 2 -1 146.09 13.3
6 2 -1 140.49 12
6 2 -1 140.49 17.8
-6 -2 1 150.68 18.1
-6 -2 1 118.29 15
-6 -2 1 122.39 14.4
-6 -2 1 154.28 15.8
5 2 -1 631.64 55.69
-5 -2 1 599.04 51.89
-5 -2 1 553.54 54.49
4 2 -1 1398.56 128.59
4 2 -1 1688.53 130.49
-4 -2 1 1611.14 125.39
-4 -2 1 1374.96 127.59
3 2 -1 7297.57 628.54
3 2 -1 7765.32 628.94
-3 -2 1 8268.07 625.14
2 2 -1 1571.94 147.19
2 2 -1 1580.84 146.49
2 2 -1 1881.31 148.39
-2 -2 1 1956.1 149.39
-2 -2 1 1827.22 144.29
1 2 -1 3118.09 240.18
1 2 -1 2893.01 242.08
-1 -2 1 2649.03 239.48
-1 -2 1 3114.19 238.98
0 2 -1 74.89 11.9
0 2 -1 78.89 10
0 -2 1 84.49 12.2
0 -2 1 73.09 9.3
-2 2 -1 3741.93 304.67
-2 2 -1 3708.53 303.97
-3 2 -1 620.24 62.69
-3 2 -1 740.83 60.99
4 -2 1 891.81 75.09
5 -2 1 363.66 33.4
-6 2 -1 14 3.9
-6 2 -1 24.5 3.9
6 -2 1 16.6 2.5
6 -2 1 21 3
6 -2 1 12.4 4.3
6 -2 1 21 3.1
6 -2 1 20.4 5.6
7 -2 1 41.8 4.7
7 -2 1 44.4 4.9
7 -2 1 44.7 5
7 -2 1 48.3 5.2
-8 2 -1 173.78 18.1
-8 2 -1 210.78 17.8
8 -2 1 215.78 17.4
8 -2 1 181.18 17
8 -2 1 206.68 17.1
8 -2 1 201.48 16.9
-9 2 -1 399.06 31.9
-9 2 -1 366.36 32.4
9 -2 1 408.76 31.8
9 -2 1 353.46 31.2
9 -2 1 388.36 31.7
-10 2 -1 59.89 5.8
-10 2 -1 57.39 6.1
10 -2 1 65.79 5.8
11 -2 1 64.09 6.1
11 -2 1 79.79 6.3
11 1 -1 3.3 0.9
-11 -1 1 3.2 1
-11 -1 1 4.4 1.3
10 1 -1 139.39 12.9
-10 -1 1 160.38 13.6
-10 -1 1 147.99 13.9
9 1 -1 182.48 16.1
9 1 -1 175.78 15.5
-9 -1 1 207.28 19.9
-9 -1 1 181.68 17.9
8 1 -1 1961 154.38
8 1 -1 1899.21 154.18
-8 -1 1 1743.93 156.28
-8 -1 1 2056.39 156.18
7 1 -1 728.53 78.69
7 1 -1 806.02 61.59
7 1 -1 786.52 62.19
-7 -1 1 686.43 64.09
-7 -1 1 760.92 63.79
6 1 -1 873.51 74.39
6 1 -1 1060.29 82.89
6 1 -1 863.21 75.59
-6 -1 1 993.6 81.49
-6 -1 1 813.12 78.69
5 1 -1 33.3 10.6
5 1 -1 16.2 5.3
-5 -1 1 19.7 6.1
-5 -1 1 27.8 7
4 1 -1 635.64 54.99
-4 -1 1 516.15 53.19
-4 -1 1 638.94 52.99
3 1 -1 1689.13 147.49
3 1 -1 1782.32 144.39
3 1 -1 1599.04 142.79
-3 -1 1 1802.82 146.29
2 1 -1 7077.79 606.54
2 1 -1 7965.3 610.74
1 1 -1 5654.13 457.05
0 1 -1 1796.42 159.08
0 -1 1 1963.8 155.78
0 -1 1 2141.89 160.08
0 -1 1 1791.82 155.88
-1 1 -1 1306.97 113.09
1 -1 1 1346.37 111.49
-2 1 -1 3632.94 278.97
-2 1 -1 2992.6 278.97
-2 1 -1 3651.73 279.27
-3 1 -1 1545.15 141.39
-3 1 -1 1620.54 140.99
-3 1 -1 1915.31 142.39
4 -1 1 3134.79 255.07
5 -1 1 2593.74 212.18
-6 1 -1 704.33 63.39
-7 1 -1 458.85 40.9
7 -1 1 479.35 39.7
7 -1 1 498.05 44.7
7 -1 1 515.65 40.1
7 -1 1 453.55 39.6
-8 1 -1 1.2 1.3
-8 1 -1 5.8 2.1
8 -1 1 1.9 1
8 -1 1 1.3 1.1
-9 1 -1 35.8 4.4
-9 1 -1 31.7 4.5
9 -1 1 34.4 3.9
9 -1 1 31.8 3.6
9 -1 1 35.2 4.1
-10 1 -1 73.29 7.2
-10 1 -1 72.69 6.7
10 -1 1 70.49 6.4
10 -1 1 72.99 6.5
10 -1 1 61.69 6.3
-11 1 -1 55.09 5.4
11 -1 1 57.69 5.1
11 0 -1 265.67 25
11 0 -1 303.27 25.3
-11 0 1 336.87 25.4
-11 0 1 335.07 25.8
10 0 -1 116.89 10.5
10 0 -1 114.89 10.1
-10 0 1 129.09 11.5
-10 0 1 117.19 10.8
9 0 -1 1.5 0.9
9 0 -1 0.7 1
-9 0 1 2.7 2.3
-9 0 1 3.5 2.1
8 0 -1 15.8 2.4
8 0 -1 18.2 2.7
-8 0 1 21.2 4.4
-8 0 1 17.6 3.5
7 0 -1 728.53 58.89
7 0 -1 739.53 59.39
-7 0 1 733.93 60.59
-7 0 1 774.22 68.49
-7 0 1 645.14 61.09
6 0 -1 993.8 79.99
6 0 -1 943.01 73.29
-6 0 1 880.51 75.49
-6 0 1 926.21 78.79
-6 0 1 748.73 75.19
5 0 -1 3660.63 282.27
-5 0 1 3197.98 280.07
4 0 -1 1433.46 119.69
-4 0 1 1481.05 118.89
-4 0 1 1316.37 116.69
3 0 -1 2473.35 185.98
3 0 -1 2152.68 186.68
-3 0 1 2161.58 182.58
-3 0 1 2162.08 184.08
-3 0 1 2270.17 188.08
2 0 -1 22.7 4.3
2 0 -1 29.5 5.9
-2 0 1 27.7 4.6
-2 0 1 28.4 5.9
1 0 -1 3880.61 313.07
-1 0 -1 3236.08 269.17
-1 0 -1 3665.03 271.97
-1 0 -1 3153.78 271.07
-3 0 -1 149.49 17.7
-3 0 -1 172.68 18.8
3 0 1 171.58 18
-4 0 -1 362.06 38.2
-4 0 -1 457.55 41.5
5 0 1 92.99 11.9
-6 0 -1 1337.47 126.59
6 0 1 1622.44 136.29
6 0 1 1541.25 125.29
6 0 1 1715.13 125.69
-7 0 -1 459.65 42.6
7 0 1 532.15 41.8
7 0 1 507.15 46.4
7 0 1 514.85 41.5
-8 0 -1 655.53 56.49
8 0 1 675.03 55.29
8 0 1 704.53 55.49
-9 0 -1 159.98 16.9
-9 0 -1 164.98 14.9
9 0 1 162.28 14
9 0 1 158.18 14
-10 0 -1 27.6 3.5
-10 0 -1 26.1 3.7
10 0 1 22.8 2.7
10 0 1 24.7 2.9
10 0 1 24.7 2.9
-11 0 -1 38.7 3.8
-11 0 -1 40.7 4
11 0 1 39.2 3.6
11 0 1 32.1 3.3
11 0 1 37.1 3.6
11 -1 -1 112.59 10.2
11 -1 -1 111.59 10.1
-11 1 1 137.29 10.5
10 -1 -1 260.47 23.4
10 -1 -1 265.87 23.7
10 -1 -1 306.37 23.7
-10 1 1 296.37 24.4
-10 1 1 304.77 24.4
9 -1 -1 335.47 27.3
9 -1 -1 326.97 27.5
-9 1 1 331.67 27.9
-9 1 1 320.27 28.5
8 -1 -1 308.37 25.4
8 -1 -1 302.37 24.9
-8 1 1 267.87 26.4
-8 1 1 310.17 26
7 -1 -1 106.59 9.6
7 -1 -1 102.79 9
-7 1 1 81.29 10.5
-7 1 1 101.49 10.2
-7 1 1 87.69 16.7
6 -1 -1 192.78 15.7
6 -1 -1 171.98 20.2
6 -1 -1 174.08 16.2
-6 1 1 160.28 16.9
-6 1 1 154.68 19
5 -1 -1 1091.29 93.59
-5 1 1 1075.09 92.89
4 -1 -1 3934.71 315.57
-4 1 1 3627.94 313.37
-4 1 1 4013.7 314.27
3 -1 -1 4410.86 355.46
3 -1 -1 4399.16 355.36
-3 1 1 4348.56 356.16
-3 1 1 4223.08 351.66
-2 1 1 5802.92 466.55
1 -1 -1 1043 89.29
-1 1 1 1144.19 89.09
0 -1 -1 227.28 20.5
-1 -1 -1 630.94 61.09
1 1 1 844.12 61.39
-2 -1 -1 3384.36 307.37
-2 -1 -1 3747.62 307.07
2 1 1 4220.88 303.97
-3 -1 -1 9626.84 776.42
4 1 1 682.73 66.99
4 1 1 852.11 65.49
5 1 1 3132.49 298.47
5 1 1 4191.58 298.27
6 1 1 980.2 84.69
-7 -1 -1 536.25 49.99
7 1 1 609.84 49.1
7 1 1 653.43 54.59
7 1 1 590.04 48.7
-8 -1 -1 180.08 17.6
8 1 1 197.38 16.7
8 1 1 199.98 16.4
-9 -1 -1 610.44 60.79
-9 -1 -1 806.52 60.89
9 1 1 735.33 59.49
9 1 1 771.02 59.69
-10 -1 -1 135.99 11.6
-10 -1 -1 117.59 11.8
10 1 1 121.29 10.5
10 1 1 118.09 10.7
-11 -1 -1 226.48 17.9
-11 -1 -1 224.08 18.6
11 1 1 188.58 17.2
11 1 1 204.28 17.4
11 -2 -1 13.4 1.6
11 -2 -1 12.9 1.6
-11 2 1 13.6 1.8
10 -2 -1 3.9 1.8
10 -2 -1 7.8 1.6
-10 2 1 7.2 1.8
9 -2 -1 55.29 5.9
9 -2 -1 63.29 5.8
-9 2 1 59.09 5.9
-9 2 1 61.09 6.6
8 -2 -1 758.82 60.49
8 -2 -1 700.53 59.99
-8 2 1 771.12 60.89
-8 2 1 725.53 61.49
7 -2 -1 945.51 76.79
7 -2 -1 971.1 77.19
-7 2 1 890.61 78.59
-7 2 1 968.1 77.79
6 -2 -1 491.65 47.2
6 -2 -1 532.15 41.4
-6 2 1 454.85 43.1
-6 2 1 483.15 46.3
-6 2 1 541.05 42.8
5 -2 -1 133.79 16.1
-5 2 1 114.49 14.3
4 -2 -1 3.8 2.6
-4 2 1 1.7 1.5
3 -2 -1 404.96 38.6
3 -2 -1 372.46 37.2
-3 2 1 411.76 35.7
2 -2 -1 4481.05 376.06
2 -2 -1 4574.34 376.26
2 -2 -1 4718.63 379.16
-2 2 1 4832.12 375.06
1 -2 -1 5943.5 478.95
0 -2 -1 2656.93 215.18
0 2 1 2852.71 211.98
0 2 1 2390.16 214.58
-1 -2 -1 2560.84 176.68
-1 -2 -1 2009.7 174.88
-1 -2 -1 2122.69 176.58
1 2 1 1938.61 174.78
-2 -2 -1 312.37 28.4
-2 -2 -1 338.27 30.1
-2 -2 -1 254.77 30
-3 -2 -1 1356.36 121.79
-3 -2 -1 1516.95 121.39
-4 -2 -1 3598.04 293.37
4 2 1 3185.88 291.67
4 2 1 3939.71 288.37
-5 -2 -1 814.92 79.39
5 2 1 893.71 78.59
5 2 1 978.9 74.89
-6 -2 -1 1957.4 171.38
6 2 1 2120.09 165.18
-7 -2 -1 139.79 21
-7 -2 -1 151.28 15.8
-7 -2 -1 153.58 20.2
7 2 1 189.28 15.1
7 2 1 181.58 14.4
-8 -2 -1 8 2.4
-8 -2 -1 4.7 2.3
8 2 1 4.7 1.5
8 2 1 6.3 1.2
-9 -2 -1 41.7 6.1
-9 -2 -1 36.6 5.1
9 2 1 35.6 4.1
9 2 1 38.9 3.8
-10 -2 -1 282.57 22.7
-10 -2 -1 248.18 23
10 2 1 252.37 21.8
-11 -2 -1 184.68 15.1
-11 -2 -1 159.88 13.9
11 2 1 143.79 13.4
10 -3 -1 100.79 8.1
10 -3 -1 82.69 8
-10 3 1 92.99 8.4
9 -3 -1 9.1 2
9 -3 -1 9.9 1.9
-9 3 1 17.1 2.7
8 -3 -1 1.9 1
8 -3 -1 1.5 1.2
-8 3 1 0.7 1.5
7 -3 -1 322.67 28.3
7 -3 -1 381.96 29.2
-7 3 1 335.17 28.8
-7 3 1 332.37 29.7
6 -3 -1 641.54 62.99
6 -3 -1 723.73 57.29
6 -3 -1 814.22 58.29
-6 3 1 748.63 58.19
-6 3 1 632.44 61.69
-6 3 1 640.24 58.69
5 -3 -1 986.3 82.09
5 -3 -1 996.3 75.29
-5 3 1 808.52 76.69
-5 3 1 912.51 79.19
4 -3 -1 1723.43 138.19
-4 3 1 1541.95 134.59
3 -3 -1 682.33 60.39
-3 3 1 635.24 56.39
2 -3 -1 679.13 60.09
2 -3 -1 674.43 73.69
-2 3 1 692.33 57.69
1 -3 -1 722.73 75.59
-1 3 1 984.4 74.19
0 -3 -1 2224.48 184.48
0 -3 -1 1965.3 185.08
0 3 1 2502.45 181.48
-1 -3 -1 5986.9 497.05
1 3 1 6320.97 496.45
-2 -3 -1 2503.75 212.68
-2 -3 -1 2482.05 215.18
-2 -3 -1 2796.32 212.28
-3 -3 -1 2031.6 165.78
-3 -3 -1 1955.5 165.28
-4 -3 -1 555.04 56.69
-4 -3 -1 648.34 57.99
4 3 1 680.23 52.79
-5 -3 -1 157.78 19.2
-5 -3 -1 133.29 21.8
-6 -3 -1 271.07 25.2
-6 -3 -1 283.67 30.1
-7 -3 -1 1010.3 84.09
-7 -3 -1 1018.6 93.09
-8 -3 -1 1186.28 104.39
8 3 1 1364.46 103.49
-9 -3 -1 381.86 32.4
9 3 1 342.47 30.1
-10 -3 -1 54.49 5.7
-10 -3 -1 43.7 5.9
10 3 1 49.6 4.9
-11 -3 -1 3.7 1
-11 -3 -1 2.7 1
11 3 1 2.6 0.7
10 -4 -1 21.7 2.4
-10 4 1 23.3 2.7
9 -4 -1 254.07 23.1
9 -4 -1 288.47 23.1
-9 4 1 292.77 23.6
8 -4 -1 197.78 16.9
8 -4 -1 200.08 17.3
-8 4 1 203.68 17.9
7 -4 -1 109.09 9.9
-7 4 1 114.49 11.1
6 -4 -1 11.3 2.4
-6 4 1 11.1 3.7
-6 4 1 7.8 1.7
5 -4 -1 51.79 5.7
5 -4 -1 47.4 4.7
5 -4 -1 47.1 10
-5 4 1 48.4 5.2
-5 4 1 50.79 8.2
-5 4 1 36.4 5.7
4 -4 -1 1049.59 82.69
-4 4 1 891.01 78.09
-4 4 1 831.42 79.49
3 -4 -1 2728.93 210.68
-3 4 1 2311.57 204.78
2 -4 -1 1541.35 129.19
2 -4 -1 1522.45 126.59
-2 4 1 1434.46 122.99
1 -4 -1 2387.26 202.08
-1 4 1 2503.95 199.58
0 -4 -1 1148.39 101.19
0 4 1 1224.08 98.39
-1 -4 -1 1449.76 118.49
-1 -4 -1 1450.25 116.79
1 4 1 1341.77 116.39
1 4 1 1277.47 114.09
-2 -4 -1 3020 246.08
-2 -4 -1 2559.04 248.78
2 4 1 2976.2 244.68
2 4 1 3443.96 245.48
-3 -4 -1 2600.04 234.98
3 4 1 3127.29 233.58
4 4 1 2422.96 196.18
-5 -4 -1 650.33 62.09
-5 -4 -1 700.03 61.69
-6 -4 -1 66.19 9.7
-6 -4 -1 74.39 11.9
-6 -4 -1 72.69 14
-7 -4 -1 51.79 6.6
-7 -4 -1 50.49 9.3
-8 -4 -1 175.68 17.1
8 4 1 199.88 16.7
-9 -4 -1 408.76 35.4
9 4 1 432.06 34.9
-10 -4 -1 229.68 23
-10 -4 -1 289.47 22.6
10 4 1 271.27 22.1
-11 -4 -1 123.19 11.7
-11 -4 -1 144.09 11.6
11 4 1 137.99 11.4
9 -5 -1 20.5 2.4
9 -5 -1 21.4 2.4
-9 5 1 22 2.7
8 -5 -1 166.98 13.6
8 -5 -1 142.79 13.7
-8 5 1 168.18 14.3
7 -5 -1 352.66 28.1
7 -5 -1 338.37 28.5
-7 5 1 310.17 28
-7 5 1 349.87 29
6 -5 -1 254.97 21.1
6 -5 -1 234.88 20.2
-6 5 1 243.18 20.5
-6 5 1 225.58 21.3
5 -5 -1 14.6 2.2
-5 5 1 18.3 2.8
4 -5 -1 33.8 8.2
4 -5 -1 36.6 4.9
-4 5 1 34.1 4.2
-4 5 1 36.1 7.2
-4 5 1 30.3 5
3 -5 -1 269.57 31.2
3 -5 -1 321.57 27.1
-3 5 1 278.37 26.4
-3 5 1 322.67 27.8
2 -5 -1 2311.97 178.58
2 -5 -1 1950.1 179.28
-2 5 1 2136.29 173.78
1 -5 -1 1965.4 161.68
-1 5 1 1849.71 153.08
-1 5 1 1673.03 157.18
-1 5 1 1963.5 152.78
0 -5 -1 2829.42 218.38
0 5 1 2732.03 215.28
0 5 1 2383.96 218.98
-1 -5 -1 1160.28 95.89
1 5 1 1069.09 95.79
-2 -5 -1 11.9 4.3
2 5 1 17.7 4.6
-3 -5 -1 13.6 4.7
4 5 1 1870.11 158.78
4 5 1 2023.8 159.08
-5 -5 -1 1429.96 140.59
5 5 1 1926.61 137.79
-6 -5 -1 600.84 50.79
-7 -5 -1 576.54 48.4
-8 -5 -1 99.79 10.1
8 5 1 109.49 10.1
-9 -5 -1 0.9 1.6
-9 -5 -1 5.4 1.6
9 5 1 2.1 1
-10 -5 -1 48.3 4.7
-10 -5 -1 35 5
10 5 1 54.59 5.6
-11 -5 -1 72.29 6.3
11 5 1 61.89 5.7
9 -6 -1 24.8 2.6
9 -6 -1 18.2 2.2
-9 6 1 23.1 2.4
8 -6 -1 16.2 2.1
8 -6 -1 15.2 2.2
-8 6 1 18 2.5
7 -6 -1 41.8 4.8
7 -6 -1 45.6 4.7
-7 6 1 48.4 4.7
-7 6 1 50.89 5.3
6 -6 -1 18.8 3.4
6 -6 -1 22.8 2.9
-6 6 1 20.4 3.1
-6 6 1 20.2 3.5
5 -6 -1 698.53 58.59
5 -6 -1 724.23 59.19
-5 6 1 653.43 59.39
-5 6 1 787.92 58.79
4 -6 -1 750.22 59.89
-4 6 1 736.73 59.29
-4 6 1 677.43 60.09
3 -6 -1 373.56 29.9
3 -6 -1 343.27 35.8
-3 6 1 337.07 29.1
-3 6 1 318.97 29.9
2 -6 -1 21 3.4
2 -6 -1 10 6.1
2 -6 -1 15.5 5.7
-2 6 1 18.8 4
-2 6 1 20.1 3.2
1 -6 -1 52.39 11.4
1 -6 -1 49.5 8.9
1 -6 -1 43.5 6.1
-1 6 1 45.8 7.1
-1 6 1 53.19 5.9
0 -6 -1 812.02 70.49
0 6 1 742.43 65.39
0 6 1 812.62 65.99
0 6 1 805.02 72.39
-1 -6 -1 2304.27 192.88
1 6 1 2171.28 194.18
1 6 1 2528.65 189.58
-2 -6 -1 2397.66 202.38
2 6 1 2313.37 202.28
2 6 1 2634.34 198.78
-3 -6 -1 1336.17 113.59
3 6 1 1372.66 109.29
3 6 1 1278.47 111.59
-4 -6 -1 433.36 41.6
4 6 1 412.96 36.6
-5 -6 -1 6.4 3.1
5 6 1 6.3 1.9
5 6 1 5.4 2.3
-6 -6 -1 358.76 31.9
6 6 1 379.16 32.3
-7 -6 -1 516.35 44.6
7 6 1 560.54 45.4
-8 -6 -1 686.43 56.29
8 6 1 690.13 56.59
-9 -6 -1 344.97 27.5
9 6 1 311.47 27.2
-10 -6 -1 52.29 5.7
-10 -6 -1 62.69 5.3
10 6 1 58.59 5.3
8 -7 -1 66.79 5.6
8 -7 -1 55.29 5.8
-8 7 1 67.99 5.8
7 -7 -1 58.29 5.7
7 -7 -1 62.39 5.7
-7 7 1 59.39 5.5
-7 7 1 58.79 5.9
6 -7 -1 90.19 8
6 -7 -1 78.79 8.1
-6 7 1 84.49 8.4
-6 7 1 86.89 7.9
5 -7 -1 18.9 2.7
5 -7 -1 15.5 3
-5 7 1 21.8 2.9
-5 7 1 19.1 3.2
4 -7 -1 199.28 17.9
4 -7 -1 211.48 18.5
-4 7 1 211.28 18
-4 7 1 206.28 18.7
3 -7 -1 259.37 23
-3 7 1 258.37 23.3
-3 7 1 263.57 22.5
2 -7 -1 1403.96 117.09
-2 7 1 1386.96 116.49
-2 7 1 1518.55 117.49
1 -7 -1 408.56 36.9
1 -7 -1 504.75 52.49
-1 7 1 398.06 36.9
-1 7 1 455.75 37.4
0 -7 -1 8.3 2.2
0 7 1 8.9 2.8
0 7 1 4.8 2
-1 -7 -1 58.89 7.4
1 7 1 69.49 7.1
1 7 1 67.09 7.6
-2 -7 -1 946.51 89.49
2 7 1 1096.99 88.99
2 7 1 1230.08 89.99
-3 -7 -1 2580.44 225.08
3 7 1 2987.4 226.78
-4 -7 -1 256.47 26.1
4 7 1 324.47 26.1
-5 -7 -1 229.38 24.8
5 7 1 314.37 24.9
5 7 1 282.07 23.6
-6 -7 -1 216.98 23
6 7 1 283.97 22.7
-7 -7 -1 69.39 8.5
-7 -7 -1 76.59 7.1
7 7 1 73.39 7.8
-8 -7 -1 76.69 8.6
-8 -7 -1 99.69 8.6
8 7 1 76.29 7.9
-9 -7 -1 136.89 12.3
-9 -7 -1 138.79 11.6
-10 -7 -1 128.99 10
10 7 1 108.59 10
7 -8 -1 67.29 6.8
7 -8 -1 75.29 7
-7 8 1 93.59 7.2
-7 8 1 81.49 6.9
6 -8 -1 91.59 8.6
-6 8 1 100.79 8.4
-6 8 1 95.09 8.6
5 -8 -1 66.29 6.7
5 -8 -1 73.79 6.5
-5 8 1 61.49 6.6
-5 8 1 65.69 6.4
4 -8 -1 15.3 2.8
4 -8 -1 10.3 2.3
-4 8 1 9.8 2.2
3 -8 -1 93.29 9.5
-3 8 1 98.19 9.6
-3 8 1 96.79 9.3
2 -8 -1 93.89 9.3
-2 8 1 82.59 9
-2 8 1 85.69 8.7
1 -8 -1 554.84 49.3
-1 8 1 612.44 49.5
-1 8 1 600.84 49.1
0 -8 -1 418.06 39
0 8 1 481.85 38.8
0 8 1 481.85 39.2
-1 -8 -1 245.18 24.9
1 8 1 323.17 25.3
1 8 1 288.77 24.6
-2 -8 -1 235.58 21.7
2 8 1 257.07 21.7
2 8 1 231.88 20.7
-3 -8 -1 172.88 17.8
3 8 1 210.78 17.8
-4 -8 -1 277.17 25.2
4 8 1 287.27 24.8
-5 -8 -1 300.67 26.6
5 8 1 307.97 26.1
5 8 1 290.67 25
-6 -8 -1 785.42 67.19
6 8 1 837.52 66.79
7 8 1 336.47 28.3
-8 -8 -1 71.09 6.3
8 8 1 53.69 5.6
-9 -8 -1 19.4 2.4
9 8 1 14.7 1.7
5 -9 -1 31.7 3.4
-5 9 1 30 3.3
-5 9 1 34.6 3.3
4 -9 -1 122.99 10.7
-4 9 1 116.69 10.6
3 -9 -1 177.28 16.1
-3 9 1 181.38 16
-3 9 1 193.08 15.9
2 -9 -1 41.8 5
-2 9 1 38.9 4.7
-2 9 1 39.9 4.6
1 -9 -1 115.69 11.7
-1 9 1 123.49 11.6
-1 9 1 131.29 11.5
0 -9 -1 150.28 14.1
0 9 1 160.18 13.6
0 9 1 140.69 13.8
-1 -9 -1 359.36 32.2
1 9 1 376.06 32.1
1 9 1 393.06 31.6
-2 -9 -1 1343.17 112.89
2 9 1 1374.16 112.69
2 9 1 1438.26 111.89
-3 -9 -1 133.19 13
3 9 1 138.19 12.7
-4 -9 -1 11.5 2.6
4 9 1 20.3 3.1
4 9 1 17.3 2.4
-5 -9 -1 3.4 1.5
5 9 1 4.3 1.5
5 9 1 1.5 0.9
-6 -9 -1 23 3.5
6 9 1 27.8 5.1
-7 -9 -1 533.95 38.8
7 9 1 395.76 37.5
8 9 1 62.19 5.4
4 -10 -1 32.3 3.1
-4 10 1 28.6 3
-4 10 1 33.4 3
3 -10 -1 63.19 6
-3 10 1 72.29 5.9
-3 10 1 56.79 5.8
2 -10 -1 33.8 3.7
-2 10 1 34.8 3.5
-2 10 1 27.9 3.4
1 -10 -1 119.29 10.6
-1 10 1 102.19 10.2
-1 10 1 124.39 10.3
0 -10 -1 31.1 4.1
0 10 1 32.4 3.5
-1 -10 -1 6.4 1.8
1 10 1 7.7 1.5
1 10 1 5.6 1.7
-2 -10 -1 15.6 2.9
2 10 1 16.3 2.9
-3 -10 -1 87.79 8.2
3 10 1 79.09 8.1
3 10 1 80.29 7.3
4 10 1 242.78 21.1
4 10 1 266.27 21.5
-5 -10 -1 199.98 16.2
5 10 1 168.28 15.5
-6 -10 -1 45.6 4.1
6 10 1 35.9 3.8
0 -11 -1 121.39 9.4
0 11 1 94.89 9.1
-1 -11 -1 158.28 11.9
1 11 1 126.09 11.4
1 11 1 130.29 11.6
-2 -11 -1 6.7 1.4
2 11 1 3.4 0.9
2 11 1 3.9 0.7
-3 -11 -1 5.1 1.2
3 11 1 3 0.8
-5 -9 2 263.27 21.9
4 9 -2 134.69 12.8
-4 -9 2 168.78 13.1
3 9 -2 27.9 3.1
-3 -9 2 22.3 3.1
2 9 -2 18.6 2.9
-2 -9 2 20.8 2.9
1 9 -2 138.99 12.5
-1 -9 2 130.29 11.9
0 9 -2 121.99 11.7
0 -9 2 143.59 11.8
-1 9 -2 67.59 7.5
-1 9 -2 94.09 7.6
1 -9 2 85.09 7.7
-2 9 -2 137.09 14.3
-2 9 -2 182.48 13.6
2 -9 2 151.58 13.5
-3 9 -2 4.9 1.1
3 -9 2 4.9 1
7 8 -2 17.6 3.1
-7 -8 2 27.8 2.7
6 8 -2 2.9 0.9
-6 -8 2 3.8 1.2
5 8 -2 137.49 13.9
-5 -8 2 174.78 14.5
-5 -8 2 169.08 14.6
4 8 -2 155.68 15.1
-4 -8 2 164.78 15.2
-4 -8 2 187.18 14.9
3 8 -2 463.25 43.2
-3 -8 2 561.14 42.9
2 8 -2 175.88 16.4
-2 -8 2 185.98 16.3
1 8 -2 132.59 13.4
1 8 -2 164.68 13.1
-1 -8 2 131.59 13.1
0 8 -2 0.2 1.6
0 8 -2 1 1.3
0 -8 2 2.6 1.6
0 -8 2 5.4 2.7
-1 8 -2 36.2 4.4
-1 8 -2 36.5 5.7
1 -8 2 29.7 4.3
-2 8 -2 96.69 10
-2 8 -2 112.99 10
2 -8 2 98.59 9.8
2 -8 2 111.69 9.9
-3 8 -2 136.39 12.7
-3 8 -2 137.49 13
3 -8 2 144.39 12.7
3 -8 2 158.88 12.8
-4 8 -2 41 4.6
-4 8 -2 44.3 4.5
4 -8 2 45.2 4.5
4 -8 2 46.9 4.8
-5 8 -2 15 1.9
5 -8 2 15 1.9
5 -8 2 15.6 1.9
-8 -7 2 313.47 25
-8 -7 2 299.47 25.3
-7 -7 2 270.47 23.3
-7 -7 2 276.37 22.7
6 7 -2 354.36 33.4
-6 -7 2 430.76 33.6
-6 -7 2 408.86 33.9
5 7 -2 112.69 12
-5 -7 2 145.49 11.9
-5 -7 2 117.39 12.2
4 7 -2 33.9 4.9
-4 -7 2 35.1 5
3 7 -2 222.18 22
-3 -7 2 214.88 20.1
-3 -7 2 227.08 19.8
2 7 -2 575.14 44.7
2 7 -2 520.85 45.4
-2 -7 2 492.35 44.6
-2 -7 2 591.14 45.1
-2 -7 2 498.05 45
1 7 -2 82.29 8.9
1 7 -2 86.79 8.3
-1 -7 2 76.29 8.5
-1 -7 2 74.49 8.3
0 7 -2 1142.29 96.69
0 7 -2 1300.47 96.49
0 -7 2 1215.68 96.39
0 -7 2 1057.79 95.89
-1 7 -2 207.98 19.4
-1 7 -2 232.98 19.4
1 -7 2 199.98 18.8
1 -7 2 213.98 19
-2 7 -2 30.3 4.5
2 -7 2 35.5 6.3
2 -7 2 28.9 4.1
-3 7 -2 2 1.7
-3 7 -2 4.4 1.8
3 -7 2 1.8 1.4
3 -7 2 2.5 1.3
-4 7 -2 42.1 5
4 -7 2 48.4 5.3
4 -7 2 48.9 5.3
-5 7 -2 296.17 25.7
-5 7 -2 284.97 25.3
5 -7 2 310.87 25.4
5 -7 2 326.17 26
-6 7 -2 80.99 7.4
6 -7 2 85.89 7.5
6 -7 2 83.09 7.4
7 -7 2 2.7 0.7
7 -7 2 3.9 0.8
9 6 -2 51.69 5
-9 -6 2 60.49 5.5
-9 -6 2 58.89 5.3
8 6 -2 15.3 2.3
-8 -6 2 17.1 2.8
-8 -6 2 18.3 2.4
7 6 -2 158.58 15.9
-7 -6 2 166.48 16.6
-7 -6 2 210.88 16.1
6 6 -2 395.56 35.6
-6 -6 2 392.26 36.1
-6 -6 2 452.45 35.3
5 6 -2 635.04 55.89
-5 -6 2 715.43 55.29
-5 -6 2 630.74 56.09
4 6 -2 641.54 59.49
-4 -6 2 672.43 59.59
-4 -6 2 804.82 59.39
-4 -6 2 706.63 58.89
3 6 -2 1023.1 85.59
-3 -6 2 1091.49 84.99
-3 -6 2 969.6 84.39
-3 -6 2 1032.3 85.19
2 6 -2 80.49 10.1
2 6 -2 71.39 9
-2 -6 2 70.89 8.5
-2 -6 2 75.49 8.6
1 6 -2 793.62 63.59
-1 -6 2 770.12 62.69
-1 -6 2 809.02 63.09
-1 -6 2 652.23 62.09
0 6 -2 299.07 27.3
0 6 -2 302.57 27.5
0 -6 2 275.77 26.5
0 -6 2 351.56 27.2
-1 6 -2 1668.83 133.59
-1 6 -2 1627.54 134.09
1 -6 2 1727.33 134.79
1 -6 2 1544.85 132.99
-2 6 -2 351.96 29.7
-2 6 -2 335.47 29.1
2 -6 2 328.57 28.6
2 -6 2 327.37 28.8
-3 6 -2 69.89 7.7
-3 6 -2 58.99 6.7
3 -6 2 55.49 6.5
3 -6 2 59.49 6.6
-4 6 -2 43.8 5.7
-4 6 -2 39.2 4.9
4 -6 2 43.8 5.1
4 -6 2 37.4 4.9
-5 6 -2 12.9 3.4
-5 6 -2 13.7 2.5
5 -6 2 12.7 2.5
5 -6 2 12.9 2.5
-6 6 -2 28.3 3.6
-6 6 -2 21 3
6 -6 2 25.9 3.3
6 -6 2 22.3 3.1
-7 6 -2 18.8 2.5
7 -6 2 24.2 2.9
7 -6 2 22 2.7
8 -6 2 40.4 3.7
8 -6 2 38.2 3.6
10 5 -2 246.58 20.3
-10 -5 2 249.48 20.5
-10 -5 2 247.68 20.3
9 5 -2 409.26 34.3
-9 -5 2 386.86 34.9
-9 -5 2 456.25 34.5
8 5 -2 284.97 23.1
-8 -5 2 249.88 23.8
7 5 -2 110.29 11.6
-7 -5 2 130.29 11.8
6 5 -2 0.2 1.5
-6 -5 2 0.4 1.8
-6 -5 2 4.5 1.7
5 5 -2 246.38 24.4
-5 -5 2 282.17 23.8
4 5 -2 1060.59 93.99
-4 -5 2 1202.28 93.29
3 5 -2 1189.98 101.49
-3 -5 2 1171.78 100.09
-3 -5 2 1310.17 101.59
2 5 -2 318.87 28.3
2 5 -2 237.88 32.6
-2 -5 2 338.87 27.7
-2 -5 2 336.17 27.5
-2 -5 2 323.57 28.9
-2 -5 2 275.37 26.4
1 5 -2 837.02 82.99
-1 -5 2 915.01 77.79
-1 -5 2 825.62 74.59
-1 -5 2 1055.59 75.49
0 5 -2 230.08 21.6
0 5 -2 234.78 28.7
0 -5 2 260.97 21.7
-1 5 -2 190.88 23.2
-1 5 -2 133.89 14.3
1 -5 2 146.79 14.4
1 -5 2 158.28 14.2
-2 5 -2 615.64 49.2
-2 5 -2 569.74 66.69
-2 5 -2 563.34 48
-2 5 -2 464.75 65.39
2 -5 2 547.75 47.6
2 -5 2 624.24 47.6
2 -5 2 562.34 47.7
-3 5 -2 226.98 20.3
-3 5 -2 239.28 21.6
3 -5 2 211.08 20.2
3 -5 2 247.88 20.2
3 -5 2 212.88 19.9
-4 5 -2 1578.04 126.79
-4 5 -2 1451.55 124.49
4 -5 2 1507.75 124.69
4 -5 2 1442.46 124.59
4 -5 2 1707.13 124.69
-5 5 -2 305.27 28.1
-5 5 -2 298.17 27
5 -5 2 275.27 26.8
5 -5 2 350.96 27.4
5 -5 2 365.86 27.2
-6 5 -2 85.09 9.1
-6 5 -2 81.19 8.3
6 -5 2 90.39 8.5
6 -5 2 93.09 8.6
-7 5 -2 3 1.5
-7 5 -2 1.9 1
7 -5 2 0.9 0.9
7 -5 2 1.8 1
8 -5 2 38.2 4.2
9 -5 2 114.69 9.9
9 -5 2 124.79 10.1
10 4 -2 6.3 1.2
-10 -4 2 7.2 1.7
-10 -4 2 7.3 1.4
9 4 -2 139.49 11.8
-9 -4 2 112.89 12.3
-9 -4 2 133.79 11.8
8 4 -2 557.24 43.6
-8 -4 2 443.96 44.5
-8 -4 2 557.84 44
7 4 -2 548.55 42.6
-7 -4 2 426.46 43.6
-7 -4 2 521.05 43
6 4 -2 957 69.69
-6 -4 2 682.93 69.99
-6 -4 2 837.02 69.49
-5 -4 2 464.15 40.4
-5 -4 2 489.35 39.9
-5 -4 2 424.26 41.3
4 4 -2 15.6 4.1
4 4 -2 15.6 6.9
-4 -4 2 27.2 4.2
-4 -4 2 28.5 8.6
-4 -4 2 15.9 4.1
3 4 -2 64.69 12.4
-3 -4 2 98.89 9.3
-3 -4 2 86.69 10.5
1 4 -2 2447.85 224.38
-1 -4 2 2890.71 218.48
0 4 -2 2007.9 168.88
0 -4 2 1932.71 160.88
0 -4 2 1935.61 161.88
-1 4 -2 1186.18 106.29
-2 4 -2 199.98 24
-2 4 -2 171.58 22.7
-2 4 -2 136.99 15
2 -4 2 173.68 14.9
2 -4 2 152.68 14.9
-3 4 -2 475.25 45.2
-3 4 -2 567.44 53.69
3 -4 2 494.45 45
3 -4 2 558.74 45.3
3 -4 2 622.04 45.2
-4 4 -2 15.3 3.1
-4 4 -2 18.7 10.5
-4 4 -2 44.9 12.4
4 -4 2 20.9 3.2
4 -4 2 25.2 3.7
4 -4 2 23.4 3.5
-5 4 -2 64.49 9.4
5 -4 2 90.39 8.6
5 -4 2 89.69 8.4
5 -4 2 80.59 8.3
-6 4 -2 405.66 39.9
6 -4 2 486.05 39
6 -4 2 505.85 39
7 -4 2 136.59 12.3
7 -4 2 134.29 11.7
7 -4 2 108.79 12.4
-8 4 -2 16.4 3
8 -4 2 20.5 2.6
8 -4 2 19.7 2.7
9 -4 2 11.3 1.7
9 -4 2 8.4 1.5
10 -4 2 11.5 1.4
10 -4 2 10.2 1.2
10 3 -2 207.88 16.7
-10 -3 2 196.28 16.9
-10 -3 2 185.98 17.3
9 3 -2 152.08 13.2
-9 -3 2 134.79 14.2
-9 -3 2 155.08 13.8
8 3 -2 3.8 1.7
-8 -3 2 4.3 2.2
-8 -3 2 3.3 2.6
7 3 -2 150.88 12.3
7 3 -2 161.68 13.9
-7 -3 2 134.69 14.7
-7 -3 2 128.99 15.3
6 3 -2 570.04 44.8
-6 -3 2 529.05 48
-6 -3 2 554.44 48.9
5 3 -2 1460.25 123.39
-5 -3 2 1405.46 118.39
-5 -3 2 1366.86 119.29
-5 -3 2 1528.85 120.09
4 3 -2 770.62 81.49
-4 -3 2 1040.3 77.69
-4 -3 2 921.91 75.79
-3 -3 2 517.25 43.9
2 3 -2 1175.48 108.69
-2 -3 2 1221.98 99.49
1 3 -2 81.19 13.7
-1 -3 2 87.19 9.9
-1 -3 2 77.49 11
0 3 -2 2786.22 233.88
0 -3 2 2801.12 226.98
0 -3 2 2754.82 226.08
-1 3 -2 1856.21 148.49
1 -3 2 1694.33 136.79
1 -3 2 1542.05 136.59
-2 3 -2 512.95 51.29
-4 3 -2 329.67 40.2
4 -3 2 343.37 29.7
4 -3 2 365.56 29.7
-5 3 -2 184.48 16.9
5 -3 2 169.48 16.2
5 -3 2 206.18 16.3
-6 3 -2 146.39 14.4
6 -3 2 157.28 13.7
6 -3 2 167.98 14.1
-7 3 -2 299.57 25.7
7 -3 2 303.07 25.4
7 -3 2 277.97 24.9
7 -3 2 307.47 25.5
7 -3 2 320.57 25.6
-8 3 -2 294.17 23.5
-8 3 -2 244.88 24.1
8 -3 2 282.87 23.5
8 -3 2 287.27 23.5
8 -3 2 286.47 23.6
-9 3 -2 54.29 6.1
9 -3 2 64.39 5.8
9 -3 2 55.99 5.5
10 -3 2 12.1 1.6
10 -3 2 9.4 1.4
11 2 -2 68.99 6.5
-11 -2 2 81.49 7.2
10 2 -2 434.06 36.5
-10 -2 2 457.15 37.3
9 2 -2 685.53 56.29
9 2 -2 677.23 56.89
-9 -2 2 729.33 57.99
-9 -2 2 701.13 58.49
8 2 -2 840.32 65.89
8 2 -2 775.02 64.99
-8 -2 2 842.72 67.39
-8 -2 2 759.82 67.59
7 2 -2 114.19 11.5
7 2 -2 102.89 9
-7 -2 2 87.59 11.4
-7 -2 2 106.89 11.7
6 2 -2 78.19 7.1
6 2 -2 93.39 14.4
6 2 -2 68.29 12.7
6 2 -2 85.79 8.5
-6 -2 2 72.29 9.7
-6 -2 2 67.09 9.3
-5 -2 2 271.37 24.9
-5 -2 2 231.38 23.9
-5 -2 2 263.07 24.6
4 2 -2 2252.77 197.78
-4 -2 2 2475.35 191.38
3 2 -2 3287.37 279.17
3 2 -2 3498.25 280.87
2 2 -2 2046.2 190.28
2 2 -2 2400.96 193.68
-2 -2 2 2465.25 186.68
1 2 -2 2693.23 242.38
1 2 -2 2932.81 238.88
-1 -2 2 3155.58 237.28
0 2 -2 175.88 18.7
0 2 -2 169.38 21.7
-1 2 -2 20.2 8.5
-1 2 -2 32.9 6.7
-4 2 -2 267.67 30.3
-4 2 -2 209.98 25.7
-5 2 -2 624.34 53.89
5 -2 2 659.13 52.79
-6 2 -2 193.08 20.1
6 -2 2 236.38 19.5
6 -2 2 241.58 19.7
6 -2 2 251.47 19.6
6 -2 2 207.48 19.3
-7 2 -2 8.3 2.3
-7 2 -2 3.7 3
7 -2 2 6.5 1.7
7 -2 2 8.5 2
7 -2 2 6.3 1.6
7 -2 2 5.9 1.7
-8 2 -2 31.2 4.5
-8 2 -2 32.9 4.3
8 -2 2 34.8 3.6
8 -2 2 34 4
8 -2 2 34.4 4
8 -2 2 29.5 3.8
-9 2 -2 25.1 3.6
-9 2 -2 29.2 3.4
9 -2 2 24.4 2.7
9 -2 2 25.7 3.2
10 -2 2 106.39 9.4
11 -2 2 64.09 5.3
11 -2 2 57.79 5.5
11 1 -2 57.19 5.4
-11 -1 2 63.59 5.8
10 1 -2 0.2 0.7
10 1 -2 0.2 0.5
-10 -1 2 0.1 0.9
-10 -1 2 1.6 1.1
9 1 -2 36 4.4
9 1 -2 39.3 4
-9 -1 2 47.8 5.5
-9 -1 2 55.29 6.1
8 1 -2 319.57 25.9
8 1 -2 304.57 26.5
-8 -1 2 348.87 28.2
-8 -1 2 280.37 27.9
7 1 -2 544.15 49.3
-7 -1 2 663.73 53.19
6 1 -2 1469.35 120.79
6 1 -2 1404.96 140.99
6 1 -2 1659.93 133.59
6 1 -2 1549.94 120.29
-6 -1 2 1356.06 122.39
-6 -1 2 1475.45 122.89
5 1 -2 1210.88 110.39
-5 -1 2 1189.48 102.59
-5 -1 2 1243.58 99.59
4 1 -2 4.6 5.4
4 1 -2 10.1 4.3
3 1 -2 233.18 25.4
3 1 -2 221.58 28.9
-3 -1 2 243.98 20.1
2 1 -2 1986.3 163.78
2 1 -2 1758.32 152.08
2 1 -2 1713.83 151.18
1 1 -2 2631.64 199.28
1 1 -2 2519.05 205.98
1 1 -2 2226.88 200.88
0 1 -2 4206.88 392.06
0 1 -2 4887.91 391.66
0 1 -2 5508.15 397.96
-1 1 -2 684.93 63.79
-2 1 -2 3322.97 288.57
2 -1 2 3647.64 285.67
-3 1 -2 17 6.9
3 -1 2 18.8 6.2
-4 1 -2 258.37 28.3
-4 1 -2 244.68 26.7
-5 1 -2 188.88 22.3
6 -1 2 1412.96 124.79
6 -1 2 1601.24 125.09
6 -1 2 1621.04 124.59
-7 1 -2 748.33 66.49
7 -1 2 795.32 65.69
7 -1 2 806.42 65.19
7 -1 2 853.51 65.69
-8 1 -2 172.78 15.8
8 -1 2 171.38 14.9
8 -1 2 173.08 15.1
8 -1 2 182.88 15.1
8 -1 2 161.78 14.9
-9 1 -2 9 2.5
-9 1 -2 10.8 2.4
9 -1 2 9.3 1.7
9 -1 2 7.3 1.7
9 -1 2 10.3 1.9
-10 1 -2 31.2 3.4
-10 1 -2 33.7 4.6
10 -1 2 32.4 3.3
10 -1 2 24.7 2.8
10 -1 2 27.6 3.1
11 -1 2 48.4 4.4
11 -1 2 51.39 4.4
11 0 -2 214.38 18.4
-11 0 2 217.58 18.3
-11 0 2 241.28 18.8
10 0 -2 286.17 25.2
-10 0 2 315.47 25.5
-10 0 2 305.77 25.8
9 0 -2 341.17 30.7
9 0 -2 363.66 30.4
-9 0 2 369.26 31.9
-9 0 2 408.86 31.6
8 0 -2 15.9 2.4
8 0 -2 18 2.7
-8 0 2 16.4 3.8
-8 0 2 19.4 3.6
7 0 -2 709.03 57.49
7 0 -2 801.32 73.99
-7 0 2 663.83 62.19
-7 0 2 636.54 59.19
6 0 -2 467.15 39.5
6 0 -2 532.35 47.3
6 0 -2 460.85 38.9
-6 0 2 453.05 40.9
-6 0 2 452.15 41
-6 0 2 466.25 42
5 0 -2 3528.35 285.97
-5 0 2 3458.05 283.67
-5 0 2 3392.56 285.57
4 0 -2 3716.03 281.17
-4 0 2 3160.78 277.77
-4 0 2 3337.87 274.67
3 0 -2 2184.28 163.08
3 0 -2 1962.5 160.08
-3 0 2 1708.73 158.78
-3 0 2 1867.31 155.68
2 0 -2 1059.79 96.19
2 0 -2 1212.68 98.59
1 0 -2 413.46 45.1
1 0 -2 460.05 40.7
0 0 -2 1728.53 156.38
0 0 -2 1977.2 152.08
-2 0 -2 1307.67 107.69
-2 0 -2 1324.37 112.59
-3 0 -2 1333.97 115.39
-3 0 -2 1414.46 116.09
-4 0 -2 1126.29 104.69
4 0 2 1323.67 104.09
5 0 2 149.29 17.2
5 0 2 197.08 22.3
-6 0 -2 666.43 61.49
6 0 2 792.22 59.89
-7 0 -2 175.98 18.7
7 0 2 207.68 17.8
7 0 2 235.28 18.1
7 0 2 208.18 17.8
-8 0 -2 303.27 27.9
8 0 2 334.27 27
8 0 2 298.07 26.7
8 0 2 349.17 27
-9 0 -2 366.36 31.8
9 0 2 353.96 30.3
9 0 2 379.46 30.9
-10 0 -2 108.69 8.8
-10 0 -2 74.29 8.6
10 0 2 98.59 8.1
10 0 2 86.99 8
10 0 2 83.79 7.9
-11 0 -2 10.8 1.6
11 0 2 10.6 1.3
11 0 2 9 1.2
11 0 2 8.5 1.3
11 -1 -2 19.5 2
-11 1 2 24.4 2.7
10 -1 -2 156.78 13.1
10 -1 -2 135.39 13.1
-10 1 2 166.48 13.9
-10 1 2 163.28 13.3
9 -1 -2 484.15 39.8
9 -1 -2 474.65 40
-9 1 2 516.55 40.5
-9 1 2 470.15 40.9
8 -1 -2 449.86 35.5
8 -1 -2 422.76 35.8
-8 1 2 442.46 36.5
-8 1 2 403.26 36.9
7 -1 -2 276.27 23.2
7 -1 -2 241.68 22.2
6 -1 -2 159.68 14.3
6 -1 -2 162.48 14.8
6 -1 -2 158.68 20.7
-6 1 2 198.38 19.8
-6 1 2 150.38 15.9
-6 1 2 157.38 15.7
5 -1 -2 25.2 6.8
-5 1 2 24.3 5.5
4 -1 -2 2021.8 171.88
-4 1 2 2200.78 168.68
-4 1 2 1896.01 166.58
3 -1 -2 1136.29 93.59
3 -1 -2 1000.4 93.69
-3 1 2 1080.49 90.09
2 -1 -2 6349.46 475.75
2 -1 -2 5300.47 469.95
-2 1 2 5871.81 470.25
1 -1 -2 168.68 14.7
1 -1 -2 127.59 13.1
0 -1 -2 346.87 31.1
0 -1 -2 365.86 35.3
-1 -1 -2 3629.44 288.77
-1 -1 -2 3508.45 290.57
-2 -1 -2 3087.79 248.78
-2 -1 -2 3050.19 246.08
-2 -1 -2 2986.4 247.88
3 1 2 122.19 14.3
3 1 2 115.19 11.5
-4 -1 -2 1275.27 116.29
-4 -1 -2 1467.85 118.89
5 1 2 3085.59 249.97
-6 -1 -2 355.16 31.1
-7 -1 -2 8.8 4.6
-7 -1 -2 19.9 3.6
7 1 2 14.7 2.4
7 1 2 16.5 2.7
7 1 2 16.7 2.4
-8 -1 -2 4.9 2.5
-8 -1 -2 5.9 2.3
8 1 2 8.2 1.6
8 1 2 4.1 1.4
-9 -1 -2 434.26 34.6
-9 -1 -2 334.07 34.8
9 1 2 423.86 33.4
9 1 2 421.56 33.5
-10 -1 -2 166.88 14.1
10 1 2 144.49 13
10 1 2 157.98 13.3
-11 -1 -2 83.19 7
11 1 2 69.59 6.4
11 1 2 69.69 6.4
11 -2 -2 30.6 3.4
11 -2 -2 42.4 3.4
-11 2 2 38.9 3.7
10 -2 -2 1.9 0.8
10 -2 -2 3.4 1.4
-10 2 2 1.3 0.8
9 -2 -2 2.6 1
9 -2 -2 1.6 0.9
-9 2 2 2.3 1.4
8 -2 -2 312.57 27.2
8 -2 -2 326.27 26.9
-8 2 2 324.07 27.4
-8 2 2 330.67 28.2
7 -2 -2 1122.09 83.89
7 -2 -2 978.5 81.99
-7 2 2 987.7 84.29
-7 2 2 966.8 83.49
6 -2 -2 1109.09 91.09
6 -2 -2 1076.89 101.89
-6 2 2 1168.78 95.99
-6 2 2 1141.09 92.29
-6 2 2 1117.79 92.69
5 -2 -2 1991.5 178.78
-5 2 2 2270.67 175.98
4 -2 -2 507.95 52.19
-4 2 2 593.44 48.9
3 -2 -2 727.43 72.69
3 -2 -2 849.22 69.79
-3 2 2 847.62 68.69
2 -2 -2 954.1 86.79
2 -2 -2 1062.09 87.79
2 -2 -2 1077.49 101.79
-2 2 2 1108.29 88.09
1 -2 -2 5361.56 403.46
1 -2 -2 4991.3 394.56
1 -2 -2 4410.96 396.86
-1 -2 -2 6338.07 493.15
-1 -2 -2 5234.98 493.25
-1 -2 -2 6858.51 496.35
-2 -2 -2 146.99 19.8
-2 -2 -2 168.28 19.6
-2 -2 -2 197.68 18.3
-3 -2 -2 45.7 7.9
3 2 2 63.39 8.7
-4 -2 -2 51.29 8.4
-5 -2 -2 2347.86 195.48
6 2 2 1122.59 91.19
-7 -2 -2 627.64 56.89
7 2 2 714.83 55.49
7 2 2 699.13 55.59
-8 -2 -2 695.63 58.79
8 2 2 723.53 57.59
8 2 2 700.43 57.49
-9 -2 -2 36.2 6
-9 -2 -2 57.19 6.1
9 2 2 48 4.6
9 2 2 47.4 4.9
-10 -2 -2 87.29 8.5
-10 -2 -2 85.59 10.4
10 2 2 83.69 7.7
-11 -2 -2 32.4 3.6
11 2 2 29.3 3
11 2 2 28.8 3
10 -3 -2 234.38 22.2
10 -3 -2 299.27 22.4
-10 3 2 279.27 22.6
9 -3 -2 69.39 7
9 -3 -2 78.29 6.9
-9 3 2 77.49 7.5
8 -3 -2 6.5 1.6
-8 3 2 3.2 1.5
-8 3 2 3.7 1.8
7 -3 -2 59.89 5.9
7 -3 -2 49.3 5.2
-7 3 2 49.9 6.3
-7 3 2 48.4 5.5
6 -3 -2 309.27 36.4
6 -3 -2 396.56 31.2
6 -3 -2 350.86 30.2
-6 3 2 384.46 34.8
-6 3 2 358.76 30.9
-6 3 2 394.56 32
5 -3 -2 1046.9 85.79
5 -3 -2 1011.6 93.49
-5 3 2 1150.28 89.59
-5 3 2 1018.1 88.99
4 -3 -2 700.93 70.99
-4 3 2 868.01 67.59
3 -3 -2 1018.9 96.09
-3 3 2 1147.29 90.39
2 -3 -2 2147.69 184.48
2 -3 -2 2002 179.48
-2 3 2 2383.26 179.88
1 -3 -2 84.29 22.7
1 -3 -2 86.59 10.9
1 -3 -2 61.99 11.3
0 -3 -2 845.62 73.69
-1 -3 -2 2534.65 209.18
-1 -3 -2 2554.94 208.58
-2 -3 -2 2226.98 173.18
-2 -3 -2 1964.2 178.68
-2 -3 -2 2148.39 175.58
-3 -3 -2 1151.28 108.99
-3 -3 -2 1416.96 117.49
-4 -3 -2 789.32 76.89
-4 -3 -2 922.31 76.59
-5 -3 -2 43 9.4
-6 -3 -2 258.57 27.1
-6 -3 -2 208.28 27.1
-7 -3 -2 274.27 32.2
-7 -3 -2 288.97 25.3
-8 -3 -2 215.78 20.4
8 3 2 238.78 19.5
-9 -3 -2 310.37 27.1
9 3 2 316.37 26.1
-10 -3 -2 127.49 15.7
-10 -3 -2 161.18 13.7
10 3 2 152.68 12.9
-11 -3 -2 6.3 1.5
11 3 2 9.3 1.4
10 -4 -2 28.5 3.2
10 -4 -2 36 3.3
-10 4 2 36.6 3.5
9 -4 -2 83.99 7.2
9 -4 -2 73.19 7.5
-9 4 2 79.59 7.6
8 -4 -2 328.27 27.6
-8 4 2 341.67 28.5
7 -4 -2 319.27 26.3
7 -4 -2 285.97 25.4
-7 4 2 320.37 26.7
6 -4 -2 154.38 13.3
6 -4 -2 151.38 13.7
-6 4 2 125.29 12.8
-6 4 2 158.58 14.1
5 -4 -2 37.1 4.1
5 -4 -2 46.3 5.3
5 -4 -2 35.4 9.4
-5 4 2 38.1 4.5
-5 4 2 49.1 7.9
-5 4 2 36.4 5.2
4 -4 -2 1134.29 99.19
-4 4 2 1098.79 91.59
3 -4 -2 1588.84 147.19
3 -4 -2 1730.93 144.39
-3 4 2 1808.62 139.69
2 -4 -2 1818.62 167.28
2 -4 -2 1891.71 163.38
-2 4 2 2137.09 158.08
1 -4 -2 3154.08 228.58
1 -4 -2 2372.96 234.18
0 -4 -2 148.29 21
0 -4 -2 200.18 21.2
0 4 2 191.08 15.5
-1 -4 -2 617.84 56.59
-1 -4 -2 635.84 56.99
-2 -4 -2 103.79 13.5
-2 -4 -2 98.29 12.7
-3 -4 -2 1370.46 123.09
-3 -4 -2 1532.65 122.39
-4 -4 -2 2996 244.68
-4 -4 -2 2920.71 243.78
-5 -4 -2 1420.16 113.69
-5 -4 -2 1193.18 112.49
-6 -4 -2 708.43 62.99
-6 -4 -2 641.64 56.39
-7 -4 -2 169.78 16
-8 -4 -2 51.09 5.8
-8 -4 -2 34.8 6.9
-9 -4 -2 213.28 19.7
9 4 2 236.58 19.2
-10 -4 -2 370.76 30.3
10 4 2 352.66 29.6
-11 -4 -2 215.78 18
11 4 2 213.38 17.6
9 -5 -2 31.2 3.1
9 -5 -2 24.9 3
-9 5 2 34.7 3.4
8 -5 -2 43.4 4.6
8 -5 -2 43.7 4.3
-8 5 2 43.2 4.9
7 -5 -2 226.78 20.4
7 -5 -2 265.07 21.1
-7 5 2 239.98 20.5
6 -5 -2 336.07 27.8
6 -5 -2 313.37 26.8
-6 5 2 325.97 28
-6 5 2 321.47 27.1
5 -5 -2 454.55 37.4
5 -5 -2 410.96 36.2
-5 5 2 459.55 36.8
4 -5 -2 155.28 22.1
4 -5 -2 162.48 14.8
-4 5 2 175.08 16.1
-4 5 2 192.58 15.6
2 -5 -2 16.5 6.9
2 -5 -2 20.1 6.6
-2 5 2 17.1 2.6
1 -5 -2 2453.85 240.98
1 -5 -2 3235.98 235.88
0 -5 -2 8524.25 683.73
0 5 2 8402.16 678.13
-1 -5 -2 1130.79 90.99
1 5 2 959.4 85.69
-2 -5 -2 1210.28 102.39
-2 -5 -2 1152.48 102.79
2 5 2 1195.68 99.09
-3 -5 -2 3.9 3.4
-4 -5 -2 337.37 34.6
5 5 2 663.13 52.89
5 5 2 595.24 52.09
-6 -5 -2 307.97 27.1
-6 -5 -2 305.57 33.1
-7 -5 -2 641.34 62.19
7 5 2 873.41 62.59
-8 -5 -2 229.18 20.8
8 5 2 246.58 20.6
-9 -5 -2 55.29 5.8
9 5 2 54.99 5.6
-10 -5 -2 6.1 2
-10 -5 -2 4.9 1.5
-11 -5 -2 62.49 5.6
11 5 2 63.39 5.4
9 -6 -2 47.6 4.6
9 -6 -2 40.7 3.8
-9 6 2 35.8 4.3
8 -6 -2 25.8 3.2
8 -6 -2 32.6 3.2
-8 6 2 30.5 3.5
7 -6 -2 1.3 0.9
7 -6 -2 1 0.8
-7 6 2 1.1 1.1
-7 6 2 0.4 0.9
-6 6 2 51.69 6.7
5 -6 -2 448.56 40
5 -6 -2 469.55 40.8
-5 6 2 539.15 40.4
-5 6 2 493.65 41
4 -6 -2 536.75 45.3
-4 6 2 562.14 44.8
-4 6 2 522.15 45.5
3 -6 -2 427.86 37
3 -6 -2 430.76 45.9
-3 6 2 431.36 36.7
-3 6 2 455.05 37.5
2 -6 -2 312.97 30.5
2 -6 -2 429.66 37.4
2 -6 -2 353.26 39.4
-2 6 2 359.96 30.9
-2 6 2 345.27 30.3
1 -6 -2 42.9 11
1 -6 -2 54.39 9.6
-1 6 2 52.69 6.1
-1 6 2 51.59 6.5
0 -6 -2 50.49 8.7
0 6 2 48.6 5.7
0 6 2 58.89 6.3
-1 -6 -2 1357.76 117.49
1 6 2 1396.96 112.69
-2 -6 -2 1815.72 156.58
2 6 2 1903.51 151.18
-3 -6 -2 2353.66 196.78
-4 -6 -2 1232.58 112.69
4 6 2 1371.06 106.99
-5 -6 -2 418.36 46.6
5 6 2 499.95 40.4
5 6 2 512.35 41.2
6 6 2 129.19 12.8
6 6 2 131.89 12.1
-7 -6 -2 496.65 44.3
7 6 2 573.74 44.9
-8 -6 -2 377.36 31.7
8 6 2 381.76 31.8
-9 -6 -2 277.27 23.1
-10 -6 -2 182.68 14.3
-10 -6 -2 159.28 14.7
10 6 2 167.08 14.2
-11 -6 -2 29.3 2.6
11 6 2 28.8 2.5
11 6 2 26.1 2.5
8 -7 -2 119.59 9.8
8 -7 -2 98.69 9.6
-8 7 2 124.49 9.8
7 -7 -2 64.79 5.9
7 -7 -2 59.09 6
-7 7 2 63.69 5.8
-7 7 2 64.89 6.7
6 -7 -2 14.2 2.6
6 -7 -2 14.5 2.2
-6 7 2 16.9 2.3
-6 7 2 13.8 2.7
5 -7 -2 135.09 13.3
5 -7 -2 139.09 12.9
-5 7 2 157.88 13.8
-5 7 2 162.38 13.5
4 -7 -2 205.88 18.4
-4 7 2 213.28 18
-4 7 2 199.68 18.5
3 -7 -2 230.18 20.7
-3 7 2 229.78 20.2
-3 7 2 236.78 20.9
2 -7 -2 903.01 72.99
-2 7 2 866.91 72.79
1 -7 -2 1844.12 158.38
1 -7 -2 1620.34 148.39
-1 7 2 1859.41 148.39
-1 7 2 2001.4 148.89
0 -7 -2 354.76 36.7
0 -7 -2 316.87 30.8
0 7 2 396.66 31.2
0 7 2 372.26 30.9
-1 -7 -2 125.79 15.8
1 7 2 107.59 11.3
1 7 2 132.89 11.9
-2 -7 -2 238.58 26.6
-2 -7 -2 199.08 21.9
2 7 2 261.27 21.3
2 7 2 275.47 21.9
-3 -7 -2 239.08 22.2
5 7 2 395.76 32.8
5 7 2 364.16 31.9
6 7 2 242.78 21.8
6 7 2 247.58 20.9
-7 -7 -2 207.48 18
7 7 2 215.98 19.2
-8 -7 -2 7.1 2.2
-8 -7 -2 7.9 1.5
8 7 2 6 1.6
-9 -7 -2 80.29 8.2
-9 -7 -2 88.19 7.5
9 7 2 86.49 7.8
-10 -7 -2 104.99 8.4
10 7 2 94.09 8.3
7 -8 -2 22.3 2.5
-7 8 2 23.8 2.6
-7 8 2 25.5 2.3
6 -8 -2 118.09 9.6
6 -8 -2 103.29 9.6
-6 8 2 106.29 9.4
-6 8 2 105.09 9.6
5 -8 -2 106.89 10.5
5 -8 -2 122.09 10.3
-5 8 2 113.49 10.5
-5 8 2 116.99 10.3
4 -8 -2 100.59 9.9
-4 8 2 111.19 9.7
-4 8 2 100.09 9.9
3 -8 -2 40.4 6.5
-3 8 2 31.8 4.1
-3 8 2 34.2 4.5
2 -8 -2 7.8 2
-2 8 2 7.9 2.3
1 -8 -2 358.76 32.4
-1 8 2 364.16 32
-1 8 2 411.76 32.5
0 -8 -2 400.16 37.6
0 8 2 474.85 37.9
0 8 2 460.55 37.5
-1 -8 -2 1239.68 113.09
1 8 2 1432.26 112.79
1 8 2 1494.55 113.19
-2 -8 -2 383.96 37.4
2 8 2 468.55 36.9
2 8 2 468.85 37.5
-3 -8 -2 18.1 3.8
3 8 2 26.3 3.9
-4 -8 -2 160.38 16.9
4 8 2 201.68 16.7
-5 -8 -2 467.55 45.6
5 8 2 588.74 45.2
5 8 2 559.14 44.4
-6 -8 -2 597.94 55.29
6 8 2 724.93 54.89
6 8 2 660.23 53.79
-7 -8 -2 244.08 22.3
7 8 2 257.77 21.5
-8 -8 -2 203.08 17.1
8 8 2 189.98 16.5
-9 -8 -2 80.99 7.2
9 8 2 65.59 6.1
6 -9 -2 4.4 0.9
-6 9 2 4.7 0.9
-6 9 2 4.6 0.8
5 -9 -2 48.2 4.6
-5 9 2 41.7 4.4
-5 9 2 47.3 4.4
4 -9 -2 153.88 13.5
-4 9 2 157.88 13.3
-4 9 2 147.19 13.3
3 -9 -2 138.49 12.6
-3 9 2 136.69 12.3
-3 9 2 136.09 12.2
2 -9 -2 141.49 13.2
-2 9 2 134.29 12.9
-2 9 2 151.58 12.9
1 -9 -2 87.39 9.3
-1 9 2 95.39 9
-1 9 2 96.09 9.2
0 -9 -2 109.29 11.7
0 9 2 131.59 11.8
0 9 2 137.39 13.8
-1 -9 -2 130.99 13
1 9 2 136.29 13.8
1 9 2 130.29 13.8
-2 -9 -2 429.66 37.1
2 9 2 481.85 36.1
2 9 2 382.06 38.3
-3 -9 -2 374.46 34.1
3 9 2 426.26 33.9
-4 -9 -2 240.68 21.9
4 9 2 255.17 21.5
4 9 2 248.68 21
-5 -9 -2 78.89 8.2
5 9 2 75.59 7.1
5 9 2 79.89 7.7
-6 -9 -2 19.8 3.4
6 9 2 15.9 2
6 9 2 17.6 2.7
-7 -9 -2 13.6 2.4
7 9 2 10.1 1.7
-8 -9 -2 99.19 8.6
8 9 2 80.19 7.4
4 -10 -2 8.1 1.5
-4 10 2 9.5 1.4
-4 10 2 11.4 1.4
3 -10 -2 60.99 5.8
-3 10 2 65.19 5.7
-3 10 2 56.59 5.6
2 -10 -2 75.69 7.3
-2 10 2 83.39 7.2
-2 10 2 68.19 7
1 -10 -2 181.18 15.7
-1 10 2 189.98 15.4
-1 10 2 165.18 15.4
0 10 2 84.79 7.7
0 10 2 82.09 8
-1 -10 -2 31.4 5
1 10 2 20.8 3.2
2 10 2 3.3 1.4
2 10 2 6.3 1.8
-3 -10 -2 49.6 5.4
3 10 2 41.7 4.6
3 10 2 47.7 5
-4 -10 -2 191.68 16.1
4 10 2 166.48 15.1
4 10 2 185.28 15.6
-5 -10 -2 458.25 36
5 10 2 407.16 35.5
-6 -10 -2 148.69 12
6 10 2 126.09 11.6
1 -11 -2 37.1 3.7
-1 11 2 36.7 3.3
-1 11 2 34 3.5
0 -11 -2 151.78 12.2
0 11 2 141.69 11.6
0 11 2 128.79 11.9
-1 -11 -2 118.69 9.5
1 11 2 98.89 8.9
1 11 2 97.19 9.1
-2 -11 -2 204.58 15.5
2 11 2 163.38 14.8
2 11 2 173.28 15.1
-3 -11 -2 -1.6 1
3 11 2 2.8 0.8
3 11 2 2.2 0.7
-4 -11 -2 5.3 1.5
4 11 2 5.4 1.1
-2 -9 3 1.8 0.9
-1 -9 3 2.1 0.9
0 -9 3 3.2 0.9
1 -9 3 84.79 7.4
-5 -8 3 5 1.2
-4 -8 3 24.8 2.8
-4 -8 3 16.7 2.7
-3 -8 3 151.98 13.8
-2 -8 3 542.85 41
-2 -8 3 448.16 40.7
-1 -8 3 111.19 9.5
-1 -8 3 90.89 9.3
0 -8 3 38.9 4.2
0 -8 3 31.5 4.1
-1 8 -3 20.4 3
1 -8 3 17.4 2.8
1 -8 3 14.5 2.6
-2 8 -3 14.6 2.4
2 -8 3 9.5 2
2 -8 3 13 2.3
-3 8 -3 41 4.3
3 -8 3 44.5 4.5
3 -8 3 39.1 4.1
4 -8 3 25.8 2.6
4 -8 3 25.6 2.7
-7 -7 3 276.77 24.1
-7 -7 3 307.57 24
-6 -7 3 530.25 46.8
-6 -7 3 611.04 46.8
-5 -7 3 350.06 27.9
-5 -7 3 310.27 27.9
4 7 -3 48.6 6.6
-4 -7 3 70.59 6.6
-4 -7 3 62.29 6.7
-3 -7 3 0.7 1.3
-3 -7 3 2 1.4
-2 -7 3 124.59 12.2
-2 -7 3 136.69 12.4
-2 -7 3 130.99 12.2
1 7 -3 240.68 20.1
-1 -7 3 222.18 19.8
-1 -7 3 225.18 20.1
-1 -7 3 228.38 20.2
0 7 -3 401.16 31.7
0 -7 3 368.36 31.5
0 -7 3 344.57 31.2
-1 7 -3 426.66 33.9
1 -7 3 381.56 33.3
1 -7 3 388.76 33.6
-2 7 -3 153.48 13.2
2 -7 3 140.79 12.8
2 -7 3 129.39 12.5
-3 7 -3 16.3 3
3 -7 3 21.6 3.1
3 -7 3 16.4 2.8
-4 7 -3 72.99 6.9
4 -7 3 73.19 6.7
4 -7 3 66.99 6.9
-5 7 -3 49.2 5
5 -7 3 52.19 4.9
5 -7 3 54.89 5.1
6 -7 3 86.09 7.4
6 -7 3 81.49 7.1
8 6 -3 11 1.8
-8 -6 3 14.3 1.8
-8 -6 3 15.9 2
7 6 -3 2.2 1
-7 -6 3 4 2
6 6 -3 197.88 20.3
-6 -6 3 260.97 20.6
-6 -6 3 246.28 21
5 6 -3 254.37 26.5
-5 -6 3 347.27 26.7
-5 -6 3 316.87 27
-4 -6 3 698.83 60.39
-3 -6 3 484.65 41.8
-3 -6 3 480.55 41.9
-3 -6 3 519.05 42.1
-2 -6 3 56.39 6.9
-2 -6 3 64.59 7.1
-2 -6 3 61.39 7
1 6 -3 12.5 3.1
-1 -6 3 8 2.5
-1 -6 3 8.5 2.3
-1 -6 3 7.5 2.5
0 6 -3 273.87 23.9
0 -6 3 259.57 23.5
0 -6 3 276.97 23.8
0 -6 3 267.27 23.4
-1 6 -3 377.26 32.1
1 -6 3 379.16 31.8
1 -6 3 393.36 31.5
1 -6 3 338.27 31.3
-2 6 -3 90.79 9.7
2 -6 3 94.99 9.1
2 -6 3 94.09 9.3
-3 6 -3 451.85 38.5
3 -6 3 460.25 38
-4 6 -3 6.7 2.1
4 -6 3 7 1.9
4 -6 3 9.8 2
-5 6 -3 16.5 2.6
5 -6 3 13.2 2.4
5 -6 3 13.2 2.5
-6 6 -3 107.79 9.9
6 -6 3 96.69 8.9
7 -6 3 82.39 7.2
7 -6 3 79.49 7
-9 -5 3 252.77 21
-9 -5 3 256.47 21.2
8 5 -3 312.57 24.3
-8 -5 3 259.97 26.5
7 5 -3 463.05 39.7
-7 -5 3 411.86 39.2
-7 -5 3 514.95 39.1
6 5 -3 278.67 25.7
-6 -5 3 312.67 26.7
-5 -5 3 31.7 4.8
-5 -5 3 33.6 5
-5 -5 3 33.6 5.5
4 5 -3 51.49 8.2
-4 -5 3 69.09 8.6
-4 -5 3 75.49 8.1
-4 -5 3 82.69 8.6
-3 -5 3 468.45 43.5
-3 -5 3 526.15 44.3
-3 -5 3 553.64 44.4
-2 -5 3 1906.91 143.39
-2 -5 3 1601.74 142.29
-1 -5 3 1172.88 105.19
-1 -5 3 1309.67 105.89
-1 -5 3 1387.56 105.39
0 5 -3 651.63 62.49
0 -5 3 751.62 62.49
0 -5 3 851.91 62.49
0 -5 3 766.32 62.89
-1 5 -3 32 5.4
1 -5 3 29.7 4.3
1 -5 3 32.9 4.6
1 -5 3 33.5 6
-2 5 -3 9.5 2.9
2 -5 3 10.4 2.4
2 -5 3 15.6 3.1
-3 5 -3 108.19 11.8
3 -5 3 118.89 11.7
3 -5 3 122.09 11.7
3 -5 3 137.89 11.5
-4 5 -3 750.32 64.69
4 -5 3 850.11 64.39
4 -5 3 764.92 64.69
4 -5 3 778.82 64.69
-5 5 -3 178.38 17.5
5 -5 3 165.78 17.4
5 -5 3 190.88 15.8
5 -5 3 181.48 16.3
-6 5 -3 61.39 6.6
6 -5 3 73.79 6.6
6 -5 3 68.49 6.8
-7 5 -3 34.2 4
7 -5 3 39.4 4.1
7 -5 3 37.9 3.9
8 -5 3 51.89 4.7
8 -5 3 52.69 4.9
-10 -4 3 54.99 4.9
-10 -4 3 54.49 5
9 4 -3 5.5 1.4
-9 -4 3 11.5 2.3
-9 -4 3 8.5 1.7
8 4 -3 358.86 29.4
-8 -4 3 280.57 28.7
-8 -4 3 365.36 28.7
7 4 -3 459.55 41.7
-7 -4 3 470.65 42.9
-7 -4 3 570.94 42.9
6 4 -3 496.85 44.6
-6 -4 3 586.14 45.5
-6 -4 3 493.95 45.7
-5 -4 3 636.54 56.79
-5 -4 3 672.23 56.69
-5 -4 3 681.03 55.89
-4 -4 3 305.97 28.3
-4 -4 3 346.57 29.5
-4 -4 3 313.17 29.3
3 4 -3 11.7 7.2
-3 -4 3 12 3.5
-3 -4 3 8.2 3
-3 -4 3 9.5 2.8
-2 -4 3 641.44 53.69
-1 -4 3 1126.99 96.89
-1 -4 3 1244.68 97.99
0 -4 3 1293.87 114.39
0 -4 3 1534.55 114.59
0 -4 3 1393.66 115.29
-1 4 -3 1137.79 108.39
1 -4 3 1329.07 97.89
1 -4 3 1175.78 98.49
1 -4 3 1154.88 97.89
-2 4 -3 433.86 44.9
-2 4 -3 326.67 41.5
2 -4 3 425.76 32.8
2 -4 3 381.76 33.1
2 -4 3 380.66 32.8
2 -4 3 369.56 33
-3 4 -3 12.7 6
-3 4 -3 5.6 2
3 -4 3 9.1 2.2
3 -4 3 5.4 1.9
3 -4 3 5.2 2.2
-4 4 -3 133.09 16.2
4 -4 3 161.78 14
4 -4 3 169.38 14.6
5 -4 3 117.09 10.2
5 -4 3 90.99 9.2
5 -4 3 96.59 9.8
5 -4 3 108.99 9.7
6 -4 3 56.19 5.8
6 -4 3 57.69 5.6
6 -4 3 56.29 5.7
6 -4 3 43.2 5.1
7 -4 3 143.29 11.6
7 -4 3 120.89 11.1
7 -4 3 120.99 11.4
8 -4 3 45.1 4.4
8 -4 3 40.2 4.1
9 -4 3 2.6 0.8
9 -4 3 1.5 0.6
10 3 -3 95.59 8.3
-10 -3 3 89.69 8.5
-10 -3 3 96.89 8.4
9 3 -3 313.77 26.6
-9 -3 3 328.47 27.2
-9 -3 3 317.67 27.5
8 3 -3 156.38 13.7
-8 -3 3 152.98 14.8
-8 -3 3 145.69 14.4
7 3 -3 9.6 2.3
-7 -3 3 5.7 2.1
-7 -3 3 6.9 2.8
6 3 -3 161.88 13.4
6 3 -3 166.68 15.4
-6 -3 3 148.19 15.6
-6 -3 3 183.08 16.9
-6 -3 3 137.49 15.9
5 3 -3 977.6 72.69
5 3 -3 870.11 74.79
5 3 -3 839.92 81.59
-5 -3 3 828.42 75.69
-5 -3 3 952.1 75.09
4 3 -3 921.41 71.59
-4 -3 3 834.32 74.49
3 3 -3 1221.68 115.89
-3 -3 3 1426.06 111.09
2 3 -3 583.64 57.59
1 3 -3 126.79 16.8
-1 -3 3 132.79 15.8
0 3 -3 32.8 12.2
-1 3 -3 508.95 53.79
-2 3 -3 765.42 73.19
3 -3 3 1853.51 134.89
3 -3 3 1480.25 135.19
3 -3 3 1674.43 136.19
4 -3 3 902.31 76.39
4 -3 3 962.8 76.09
-5 3 -3 181.78 17.5
5 -3 3 170.58 17.1
5 -3 3 229.28 17.3
5 -3 3 201.38 16.9
-6 3 -3 1.9 1.2
-6 3 -3 3.6 1.7
6 -3 3 5.6 1.4
6 -3 3 7.2 2
6 -3 3 4.7 1.6
6 -3 3 6.2 2
-7 3 -3 123.59 11.7
7 -3 3 134.49 11.8
7 -3 3 131.29 11.5
7 -3 3 120.99 11.2
7 -3 3 139.99 11.8
8 -3 3 145.49 12.2
8 -3 3 151.28 12.3
8 -3 3 133.79 11.9
8 -3 3 123.99 11.6
9 -3 3 103.29 8.6
9 -3 3 89.39 8.2
10 -3 3 11.1 1.3
10 -3 3 12.8 1.5
10 2 -3 151.18 13.6
-10 -2 3 168.08 13.9
-10 -2 3 163.58 14.1
-9 -2 3 225.88 20.5
-9 -2 3 234.28 20.3
8 2 -3 982.2 78.49
8 2 -3 949.01 79.09
-8 -2 3 984.6 80.79
-8 -2 3 980.9 80.69
7 2 -3 446.26 36.5
7 2 -3 412.16 37.3
-7 -2 3 477.15 39.2
-7 -2 3 456.95 39.4
6 2 -3 508.05 44.7
6 2 -3 559.14 43.8
5 2 -3 3.4 5.5
5 2 -3 7.6 7
5 2 -3 6.2 1.7
-5 -2 3 10.2 3.8
-5 -2 3 4 2.1
-5 -2 3 6 2.9
4 2 -3 103.19 15.3
-4 -2 3 104.69 11.2
-4 -2 3 93.19 12.6
3 2 -3 337.97 36.9
3 2 -3 337.07 34.8
2 2 -3 3987.3 311.47
2 2 -3 3517.25 306.47
1 2 -3 956.4 89.99
1 2 -3 1033.7 84.79
-1 2 -3 145.29 21.5
-4 2 -3 526.35 59.59
4 -2 3 607.14 49.2
4 -2 3 632.94 49
-5 2 -3 775.42 75.89
5 -2 3 1008.6 75.19
5 -2 3 976.8 75.49
-6 2 -3 131.49 14.6
6 -2 3 154.98 15.3
6 -2 3 172.38 14.2
6 -2 3 166.58 13.9
-7 2 -3 9 2.5
7 -2 3 12 2
7 -2 3 9 2.2
7 -2 3 12.2 2.5
-8 2 -3 5.5 2
8 -2 3 5.4 1.7
8 -2 3 3.4 1.1
-9 2 -3 17.6 2.5
9 -2 3 19.9 2.4
9 -2 3 16.8 2.2
9 -2 3 18.8 2.6
9 -2 3 16.2 2.1
10 -2 3 90.79 7.4
10 -2 3 75.79 7.1
10 1 -3 49.99 5.1
-10 -1 3 56.59 5.7
-10 -1 3 54.89 5.4
9 1 -3 3.7 0.9
-9 -1 3 3.1 1.6
-9 -1 3 4.9 1.8
8 1 -3 202.18 18
8 1 -3 212.18 19.4
-8 -1 3 219.58 20
-8 -1 3 236.68 20.1
7 1 -3 1161.38 102.49
7 1 -3 1254.67 102.19
-7 -1 3 1352.66 104.49
-7 -1 3 1301.47 104.79
6 1 -3 354.76 33.2
6 1 -3 368.46 45.1
6 1 -3 398.46 32.9
-6 -1 3 408.16 35.6
-6 -1 3 445.56 35.2
5 1 -3 2485.25 202.48
-5 -1 3 2703.93 196.18
-5 -1 3 2032 196.08
4 1 -3 343.57 40.5
3 1 -3 62.59 10.9
3 1 -3 58.29 13
2 1 -3 302.57 34
2 1 -3 262.57 28.4
1 1 -3 1272.37 104.39
1 1 -3 1033 97.29
1 1 -3 1180.98 94.89
0 1 -3 677.33 62.89
0 1 -3 688.43 57.39
0 1 -3 628.74 56.29
-1 1 -3 3431.26 260.47
-1 1 -3 2782.22 253.57
-4 1 -3 1.9 3
-4 1 -3 -1.4 2.7
-5 1 -3 122.89 12.3
5 -1 3 112.99 10.9
6 -1 3 925.71 70.69
6 -1 3 741.03 70.69
6 -1 3 879.81 70.69
6 -1 3 924.41 70.79
-7 1 -3 413.76 40.4
7 -1 3 499.85 39.5
7 -1 3 482.65 39.8
7 -1 3 522.05 39.6
7 -1 3 469.85 39.4
-8 1 -3 256.87 22.4
8 -1 3 250.17 21.4
8 -1 3 258.27 21.7
8 -1 3 264.77 21.5
8 -1 3 242.68 21.5
-9 1 -3 40.6 4.6
9 -1 3 35.6 3.8
9 -1 3 38 4
9 -1 3 46.9 4.4
9 -1 3 31.6 3.9
-10 1 -3 3.3 1.1
10 -1 3 1.8 0.8
10 -1 3 3.1 0.7
11 -1 3 15.9 1.6
-11 0 3 105.89 9.1
10 0 -3 396.66 34.8
10 0 -3 408.26 34.6
-10 0 3 443.76 35.1
-10 0 3 463.15 35.5
9 0 -3 182.48 16.7
9 0 -3 194.68 16.3
-9 0 3 196.38 17.5
-9 0 3 206.98 17.3
8 0 -3 263.07 23.2
8 0 -3 262.57 22.8
-8 0 3 290.67 24.3
-8 0 3 283.37 24.5
7 0 -3 584.14 47.7
-7 0 3 569.64 49.4
-7 0 3 591.14 49.4
6 0 -3 417.86 41
6 0 -3 475.95 41
6 0 -3 528.55 50.09
-6 0 3 576.04 43.1
-6 0 3 494.05 43
5 0 -3 1169.68 110.49
5 0 -3 1234.38 103.89
-5 0 3 1073.29 96.29
4 0 -3 1246.38 133.09
4 0 -3 1695.33 129.19
3 0 -3 1996.1 192.98
3 0 -3 2431.36 187.38
2 0 -3 3088.19 281.57
2 0 -3 3277.87 274.47
2 0 -3 3641.04 275.97
1 0 -3 71.59 12.3
1 0 -3 111.99 13.5
1 0 -3 90.79 16.2
0 0 -3 111.09 10.6
0 0 -3 86.69 14.7
0 0 -3 91.59 11.3
-1 0 -3 1280.87 111.79
-1 0 -3 1292.17 105.79
-2 0 -3 2165.08 183.98
-3 0 -3 829.12 81.79
-3 0 -3 1016.8 76.69
-4 0 -3 387.26 35.5
-4 0 -3 302.77 34.1
-5 0 -3 47.6 10.9
-5 0 -3 35.1 7.9
-6 0 -3 69.69 8.5
6 0 3 80.89 7.6
-7 0 -3 187.68 19.5
7 0 3 236.38 18.5
7 0 3 207.58 18.6
7 0 3 225.88 18.5
-8 0 -3 171.18 17.1
8 0 3 180.88 16.2
8 0 3 189.58 16.3
8 0 3 198.38 16.5
8 0 3 203.58 16.3
-9 0 -3 332.47 28.8
9 0 3 353.86 28.2
9 0 3 338.67 28
9 0 3 332.27 27.9
9 0 3 334.27 27.9
-10 0 -3 45.8 4.6
10 0 3 42.4 4
10 0 3 37 3.9
10 0 3 43.3 4.1
-11 0 -3 48.4 4
11 0 3 32.2 3.8
11 0 3 40.2 3.6
-11 1 3 3.3 0.8
10 -1 -3 61.79 5.1
10 -1 -3 49.7 5.2
-10 1 3 52.59 5
-10 1 3 62.29 5.7
9 -1 -3 569.44 49.2
9 -1 -3 607.84 49
-9 1 3 632.14 49.99
-9 1 3 604.74 49.5
8 -1 -3 626.84 54.59
8 -1 -3 658.63 54.49
-8 1 3 688.13 55.39
-8 1 3 704.23 55.79
7 -1 -3 342.77 28.3
-7 1 3 344.67 29.6
-7 1 3 324.87 29.2
6 -1 -3 516.65 47.9
6 -1 -3 573.24 56.89
6 -1 -3 573.94 48
-6 1 3 570.34 49.2
-6 1 3 677.13 49.8
5 -1 -3 26.9 3.8
5 -1 -3 25 8
-5 1 3 28.4 4.8
-5 1 3 28.6 5.5
4 -1 -3 129.49 19.9
-4 1 3 174.28 15.2
3 -1 -3 741.23 79.49
-3 1 3 1003.4 71.79
2 -1 -3 3612.44 277.17
2 -1 -3 3055.29 270.97
1 -1 -3 5824.92 470.65
0 -1 -3 3240.18 267.07
0 -1 -3 3395.16 263.67
0 -1 -3 2950 258.47
-1 -1 -3 454.15 44.1
-1 -1 -3 452.25 41.3
-2 -1 -3 306.67 29.5
-4 -1 -3 1402.46 133.89
-4 -1 -3 1838.12 158.48
6 1 3 631.84 58.99
6 1 3 815.42 58.99
7 1 3 640.64 51.59
7 1 3 646.24 51.59
7 1 3 607.14 51.79
-8 -1 -3 26.4 4.4
8 1 3 32.6 3.6
8 1 3 30.3 3.6
8 1 3 30.8 3.6
-9 -1 -3 5.8 1.9
9 1 3 7.3 1.5
9 1 3 5.4 1.8
-10 -1 -3 119.19 10.2
10 1 3 108.59 9.4
10 1 3 109.09 9.7
10 1 3 99.09 9.4
-11 -1 -3 84.29 7.1
11 1 3 70.39 6.6
11 1 3 76.99 6.6
10 -2 -3 112.29 8.9
10 -2 -3 89.09 8.8
-10 2 3 105.29 9.2
9 -2 -3 49.2 5
9 -2 -3 51.99 4.9
-9 2 3 55.39 5.6
-9 2 3 44 4.9
8 -2 -3 6.2 2.1
8 -2 -3 5.9 1.5
-8 2 3 7.7 2.3
7 -2 -3 627.14 53.89
7 -2 -3 672.93 53.69
-7 2 3 714.53 54.99
-7 2 3 613.94 54.19
6 -2 -3 1529.25 122.69
6 -2 -3 1421.16 121.89
-6 2 3 1470.25 122.79
-6 2 3 1613.34 123.09
5 -2 -3 1014 97.59
5 -2 -3 1068.89 105.59
-5 2 3 1336.57 102.09
-5 2 3 1216.18 99.89
-5 2 3 1398.06 101.09
4 -2 -3 671.63 74.89
-4 2 3 726.93 61.89
-4 2 3 729.13 61.09
3 -2 -3 727.23 74.29
3 -2 -3 880.81 69.89
-3 2 3 813.62 67.99
2 -2 -3 578.34 57.29
2 -2 -3 610.14 50.09
2 -2 -3 553.74 49.9
1 -2 -3 2015.3 163.98
1 -2 -3 2004.3 154.78
1 -2 -3 1705.23 156.08
0 -2 -3 78.49 10
0 -2 -3 77.39 13.6
-1 -2 -3 989.5 81.39
-1 -2 -3 960.3 83.69
-2 -2 -3 3025.8 246.88
-3 -2 -3 589.74 52.49
-3 -2 -3 559.74 57.69
-4 -2 -3 14.3 4.6
-5 -2 -3 352.06 35.3
-6 -2 -3 41 5.6
-6 -2 -3 33.7 7.4
7 2 3 1824.82 135.69
7 2 3 1573.94 135.89
7 2 3 1651.03 135.19
-8 -2 -3 334.97 30.8
8 2 3 375.46 29.6
8 2 3 360.86 29.6
-9 -2 -3 8.9 2.4
9 2 3 13.2 1.9
-10 -2 -3 83.79 8
10 2 3 76.69 7.1
-11 -2 -3 46.4 4.5
11 2 3 42.8 3.9
11 2 3 39.8 4
10 -3 -3 175.78 16.6
10 -3 -3 226.68 16.8
-10 3 3 201.38 16.9
9 -3 -3 180.38 15.7
9 -3 -3 204.18 16.8
-9 3 3 180.08 16.2
8 -3 -3 29.7 3.3
8 -3 -3 26.5 3.5
7 -3 -3 56.19 5.6
7 -3 -3 65.49 6.4
-7 3 3 53.29 5.8
-7 3 3 59.19 6.7
6 -3 -3 21.9 2.8
6 -3 -3 24 3.7
-6 3 3 22.4 4.3
-6 3 3 14.5 3.2
5 -3 -3 457.05 42
-5 3 3 567.14 43.3
4 -3 -3 1443.66 144.59
-4 3 3 1923.41 139.49
3 -3 -3 1537.95 125.99
3 -3 -3 1304.67 117.29
1 -3 -3 1444.26 114.59
1 -3 -3 1257.67 119.99
1 -3 -3 1345.97 119.09
0 -3 -3 37.2 6.7
0 -3 -3 21.3 6.3
-1 -3 -3 2251.27 196.58
-1 -3 -3 2516.75 192.98
-2 -3 -3 2072.89 178.58
-2 -3 -3 2089.89 175.38
-2 -3 -3 2261.47 173.68
-3 -3 -3 1079.39 99.79
-3 -3 -3 1215.58 101.09
-4 -3 -3 1511.95 131.79
-4 -3 -3 1534.75 128.99
-5 -3 -3 260.57 31.1
-5 -3 -3 291.07 30
-6 -3 -3 39.7 8.8
-6 -3 -3 32.7 5.1
-6 -3 -3 28.4 8.4
6 3 3 47.7 5.1
6 3 3 45.5 4.9
-7 -3 -3 44.6 6.4
7 3 3 55.89 5.7
7 3 3 67.89 5.9
-8 -3 -3 437.26 39.8
8 3 3 493.05 38.6
8 3 3 477.65 38.6
-9 -3 -3 445.16 37.6
9 3 3 442.46 36.3
-10 -3 -3 185.68 16
10 3 3 175.88 15.1
-11 -3 -3 191.58 15.6
11 3 3 176.78 15.1
11 3 3 177.28 15
10 -4 -3 3.3 0.8
-10 4 3 2.5 0.7
9 -4 -3 4.9 1.1
9 -4 -3 7.1 1.4
-9 4 3 6.2 1.4
8 -4 -3 722.53 62.69
-8 4 3 831.12 63.49
7 -4 -3 449.26 38.9
7 -4 -3 451.45 38.3
-7 4 3 503.25 39.3
6 -4 -3 256.67 21.7
6 -4 -3 246.08 23.3
-6 4 3 273.37 22.8
5 -4 -3 121.69 13.6
5 -4 -3 103.99 18.1
5 -4 -3 129.59 11.7
-5 4 3 158.38 12.8
-5 4 3 138.29 12.4
4 -4 -3 6.8 4.4
-4 4 3 4.1 2
3 -4 -3 599.74 66.89
3 -4 -3 718.13 60.59
2 -4 -3 1462.85 138.79
2 -4 -3 1685.23 133.89
0 -4 -3 454.85 44.5
-1 -4 -3 2189.58 181.98
-1 -4 -3 2190.68 181.88
-2 -4 -3 21.9 4.2
-2 -4 -3 27.5 7.2
2 4 3 27.6 4.2
-3 -4 -3 698.43 60.19
-3 -4 -3 675.13 62.69
-4 -4 -3 526.95 51.79
-4 -4 -3 554.74 49.99
-5 -4 -3 1006.5 83.89
-5 -4 -3 880.71 84.99
-6 -4 -3 908.71 82.19
-6 -4 -3 877.81 73.99
7 4 3 176.48 15.1
7 4 3 169.78 15.9
-8 -4 -3 48.4 6.5
8 4 3 61.89 5.9
8 4 3 67.39 6.1
-9 -4 -3 3 1.6
-10 -4 -3 51.49 5.4
10 4 3 48.7 4.7
-11 -4 -3 115.99 9.8
11 4 3 111.49 9.4
11 4 3 108.49 9.5
9 -5 -3 2.3 0.8
9 -5 -3 2.7 1.2
-9 5 3 2.6 0.9
8 -5 -3 1.3 1.7
8 -5 -3 2.2 0.9
-8 5 3 2.6 1
7 -5 -3 259.07 22
7 -5 -3 256.87 21.3
-7 5 3 227.18 21.3
-7 5 3 285.97 22.2
6 -5 -3 203.78 17.3
6 -5 -3 191.38 18
-6 5 3 203.68 17.6
-6 5 3 218.28 18.2
5 -5 -3 498.35 42.3
5 -5 -3 490.25 41.3
-5 5 3 522.45 42.4
-5 5 3 509.25 42.9
4 -5 -3 290.27 26.1
4 -5 -3 273.97 25.6
-4 5 3 344.57 26.1
-4 5 3 295.17 26
3 -5 -3 406.56 40.9
2 -5 -3 21.5 8
1 -5 -3 822.12 82.39
0 -5 -3 1426.66 122.19
-1 -5 -3 2465.25 205.08
-2 -5 -3 1678.63 146.19
-2 -5 -3 1570.24 147.49
2 5 3 2012.8 143.49
-3 -5 -3 361.16 42.6
-4 -5 -3 328.47 31
-4 -5 -3 275.47 31.7
5 5 3 493.95 41
5 5 3 490.35 41.4
-6 -5 -3 288.07 32.5
6 5 3 304.07 25.6
6 5 3 308.47 26.2
7 5 3 329.37 28
-8 -5 -3 887.51 75.09
8 5 3 909.01 73.99
8 5 3 949.31 74.49
-9 -5 -3 293.87 25.2
9 5 3 299.37 24.6
-10 -5 -3 28.9 3.3
10 5 3 28.7 3
-11 -5 -3 0.9 0.5
11 5 3 0.3 0.3
11 5 3 0 0.3
9 -6 -3 83.59 8.2
9 -6 -3 104.19 8.1
-9 6 3 98.29 8.3
8 -6 -3 110.59 10.8
8 -6 -3 129.59 10.7
-8 6 3 138.59 11.1
7 -6 -3 46.9 4.9
7 -6 -3 41.9 4.5
-7 6 3 47.1 4.7
-7 6 3 52.19 5.1
6 -6 -3 1.5 1
6 -6 -3 0.8 0.7
-6 6 3 1.2 1.6
5 -6 -3 9.5 1.7
5 -6 -3 8.1 2.1
-5 6 3 9.6 2.1
-5 6 3 9 2.2
4 -6 -3 1019.7 86.89
4 -6 -3 948.91 85.99
-4 6 3 1082.49 86.99
-4 6 3 1207.08 86.79
3 -6 -3 730.03 67.49
3 -6 -3 748.53 62.29
3 -6 -3 632.24 70.69
-3 6 3 772.82 59.79
-3 6 3 715.43 59.79
2 -6 -3 1400.96 110.99
-2 6 3 1227.28 103.39
-2 6 3 1192.28 103.29
1 -6 -3 467.15 53.19
-1 6 3 477.95 41.1
-1 6 3 495.05 40.9
0 -6 -3 264.07 27.6
0 6 3 237.68 21.7
-1 -6 -3 21 7.3
-2 -6 -3 2482.95 235.38
2 6 3 3202.18 230.18
-3 -6 -3 1328.87 131.19
3 6 3 1744.63 126.39
4 6 3 679.73 56.79
4 6 3 695.13 57.09
-5 -6 -3 1409.66 143.49
5 6 3 1749.12 135.69
5 6 3 1815.82 135.09
6 6 3 83.19 8.9
6 6 3 81.29 8.5
-7 -6 -3 186.58 18.7
7 6 3 215.58 18.4
7 6 3 248.58 19.2
-8 -6 -3 123.09 11
8 6 3 108.99 10.5
8 6 3 132.49 12.7
-9 -6 -3 229.58 19
9 6 3 218.98 18.7
-10 -6 -3 185.48 14.9
10 6 3 169.68 14.6
-11 -6 -3 42.4 3.6
11 6 3 37.7 3.5
11 6 3 41.8 3.5
8 -7 -3 27.7 3.1
8 -7 -3 37 3.2
-8 7 3 33.3 3.3
7 -7 -3 194.08 16.3
7 -7 -3 183.38 16.4
-7 7 3 193.88 16.6
-7 7 3 205.08 16.3
6 -7 -3 98.69 9.8
6 -7 -3 115.79 11.5
-6 7 3 112.09 9.6
-6 7 3 104.99 9.9
5 -7 -3 20.7 2.7
5 -7 -3 19 3.2
-5 7 3 29.6 5.6
-5 7 3 26.7 4.4
4 -7 -3 15.6 3.1
-4 7 3 14.8 2.6
-4 7 3 18.4 3
-3 7 3 90.29 9.2
-3 7 3 91.99 9
2 -7 -3 490.35 41.3
1 -7 -3 1794.12 156.68
-1 7 3 1766.12 143.99
-1 7 3 1762.52 143.89
0 -7 -3 489.95 46.9
0 -7 -3 495.45 55.09
0 7 3 491.75 41.6
0 7 3 490.35 41.2
-1 -7 -3 595.94 55.79
1 7 3 608.34 49.9
1 7 3 595.74 50.09
-2 -7 -3 8.7 4.8
2 7 3 8.1 2
3 7 3 174.08 15.8
4 7 3 851.61 71.09
4 7 3 886.31 71.59
5 7 3 434.36 37.2
5 7 3 446.06 36.8
6 7 3 360.96 31.2
6 7 3 372.36 30.7
7 7 3 330.47 28.2
7 7 3 321.47 27.7
-8 -7 -3 36 3.8
8 7 3 34.8 3.9
-9 -7 -3 0.9 0.6
9 7 3 1 0.6
-10 -7 -3 17.7 1.8
10 7 3 16.8 1.7
7 -8 -3 3.3 1.1
7 -8 -3 2.9 0.7
-7 8 3 3.7 0.8
-7 8 3 2.7 0.6
6 -8 -3 81.09 7
-6 8 3 73.39 6.9
5 -8 -3 256.07 20.7
5 -8 -3 228.08 20.9
-5 8 3 256.17 20.7
-5 8 3 240.28 20.8
4 -8 -3 219.78 19.4
-4 8 3 231.18 19.4
-4 8 3 219.98 19.1
3 -8 -3 158.68 14.8
-3 8 3 161.48 14.7
-3 8 3 168.98 14.6
2 -8 -3 4.6 1.7
-2 8 3 4 1.5
-2 8 3 3.3 1.5
1 -8 -3 32.5 4.8
-1 8 3 32 4.7
-1 8 3 41.8 4.8
0 -8 -3 244.58 25.3
0 8 3 302.87 25.2
0 8 3 327.67 25.4
-1 -8 -3 485.85 47.7
1 8 3 617.04 47.7
1 8 3 617.44 47.8
-2 -8 -3 732.93 70.99
2 8 3 981.8 70.69
3 8 3 455.25 38.2
4 8 3 599.84 50.89
4 8 3 639.04 51.39
5 8 3 89.49 8.5
5 8 3 89.49 8.8
6 8 3 107.69 10.1
6 8 3 103.09 9.5
7 8 3 343.57 29.3
7 8 3 373.76 30
8 8 3 313.57 25.8
9 8 3 82.39 7
6 -9 -3 3 0.8
-6 9 3 0.2 0.4
-6 9 3 0.9 0.6
5 -9 -3 48.6 5.7
-5 9 3 45.2 4.3
-5 9 3 40.5 4.3
4 -9 -3 50.99 5.4
-4 9 3 55.39 5.3
-4 9 3 50.49 5.2
3 -9 -3 167.28 14.6
-3 9 3 158.98 14.3
-3 9 3 163.18 14.2
2 -9 -3 357.36 30.9
-2 9 3 379.66 30.6
-2 9 3 358.46 30.6
1 -9 -3 98.39 10.2
-1 9 3 118.29 10.4
-1 9 3 98.99 11.2
0 9 3 4.3 1.5
0 9 3 6.4 1.9
-1 -9 -3 4.1 1.8
1 9 3 7.1 1.8
1 9 3 10.9 2.3
-2 -9 -3 506.65 48.4
2 9 3 624.14 48
2 9 3 612.74 48.2
-3 -9 -3 703.03 62.79
3 9 3 811.72 62.29
-4 -9 -3 82.99 9.3
4 9 3 93.49 8.8
4 9 3 94.79 8.5
-5 -9 -3 89.79 10
5 9 3 100.49 9.1
5 9 3 113.39 9.6
6 9 3 15.3 2
6 9 3 19.3 2.6
7 9 3 9.7 1.6
8 9 3 144.89 12
4 -10 -3 14.9 2.1
-4 10 3 13.1 1.7
-4 10 3 13.4 1.7
3 -10 -3 5.4 1.5
-3 10 3 6.1 1.3
-3 10 3 8.7 1.6
2 -10 -3 47.3 4.9
-2 10 3 44.8 4.5
-2 10 3 38.8 4.3
1 -10 -3 112.89 10.5
-1 10 3 108.39 10.1
-1 10 3 116.79 10.1
0 -10 -3 187.38 20.8
0 10 3 246.68 19
0 10 3 224.68 19.1
-1 -10 -3 68.09 9.5
1 10 3 83.69 7.9
1 10 3 88.99 7.7
-2 -10 -3 59.79 8.8
2 10 3 76.29 7
-3 -10 -3 26.4 3.9
3 10 3 25.4 3.1
3 10 3 28.6 3.5
-4 -10 -3 56.69 5.8
4 10 3 50.19 5.2
4 10 3 49.2 4.9
5 10 3 229.48 20
5 10 3 257.17 20.4
6 10 3 128.19 11.4
6 10 3 151.38 11.9
7 10 3 119.09 10
-2 11 3 0.5 0.4
-2 11 3 0.9 0.6
1 -11 -3 31.2 4.4
-1 11 3 30.4 2.9
-1 11 3 27.5 3
0 -11 -3 44 4.7
0 11 3 49.3 4.3
0 11 3 41.2 4.3
-1 -11 -3 92.59 8
1 11 3 72.29 7.3
1 11 3 81.99 7.5
1 11 3 90.19 7.2
-2 -11 -3 274.77 21.8
2 11 3 263.77 21.5
2 11 3 239.08 21.3
-3 -11 -3 25.7 4.6
3 11 3 29.9 3.1
3 11 3 36.1 3.4
4 11 3 3.4 0.9
4 11 3 2.3 0.8
5 11 3 -0.1 0.4
-4 -8 4 5.2 1
-3 -8 4 35.9 4
-3 -8 4 36 3.5
-2 -8 4 134.69 10.9
-2 -8 4 117.59 10.8
-1 -8 4 55.19 5
-1 -8 4 45.2 4.7
0 -8 4 234.68 18
0 -8 4 193.38 17.7
1 -8 4 6.4 1.2
1 -8 4 9.7 1.6
2 -8 4 0.1 0.6
2 -8 4 2.4 0.8
3 -8 4 2.4 0.6
-6 -7 4 130.79 11.4
-6 -7 4 141.49 11.9
-5 -7 4 288.17 25.2
-5 -7 4 323.37 25.4
-4 -7 4 252.37 20
-4 -7 4 215.58 19.7
-3 -7 4 8.2 1.8
-2 -7 4 0.8 1.2
-2 -7 4 0.7 0.9
-1 -7 4 75.39 7.5
-1 -7 4 76.39 7.5
-1 -7 4 79.89 7.8
0 -7 4 111.19 10.3
0 -7 4 107.89 10
1 -7 4 316.37 28.4
1 -7 4 370.86 29.4
-2 7 -4 48.5 5.1
2 -7 4 45.1 4.7
2 -7 4 42.9 5
-3 7 -4 43.9 4.9
3 -7 4 35.6 4.2
3 -7 4 38.6 3.9
4 -7 4 1.6 0.7
4 -7 4 2 0.9
5 -7 4 6.4 0.9
5 -7 4 7.1 1.3
-7 -6 4 22.7 2.5
-7 -6 4 23.5 2.6
-6 -6 4 27.1 3.5
-6 -6 4 31.9 3.6
-5 -6 4 61.79 6.2
-5 -6 4 53.99 6.1
-4 -6 4 337.77 29.9
-4 -6 4 368.26 30.2
-3 -6 4 629.04 51.69
-3 -6 4 605.64 51.39
-3 -6 4 629.34 51.79
-2 -6 4 406.56 33.4
-2 -6 4 389.66 33.3
-2 -6 4 377.26 32.9
-1 -6 4 198.68 18.2
-1 -6 4 218.48 18.6
-1 -6 4 191.58 18.1
0 6 -4 36.4 5.5
0 -6 4 37.7 4.8
0 -6 4 37.3 5
-1 6 -4 12.3 3.1
1 -6 4 12.1 2.5
1 -6 4 10.9 2.4
1 -6 4 8.5 2.2
-2 6 -4 215.08 18.5
2 -6 4 177.88 18
2 -6 4 207.68 17.6
2 -6 4 213.38 18.1
-3 6 -4 183.88 16.6
3 -6 4 179.68 15.9
3 -6 4 193.88 16.5
-4 6 -4 37 4.5
4 -6 4 37.2 4.4
4 -6 4 39.3 4.1
-5 6 -4 8.1 2.2
5 -6 4 5.6 1.6
5 -6 4 5 1.8
6 -6 4 7.3 1.1
6 -6 4 7.3 1.5
7 -6 4 0.5 0.4
-8 -5 4 246.38 20.3
-8 -5 4 242.88 20.3
-7 -5 4 467.55 38.3
-7 -5 4 437.26 37.7
-6 -5 4 255.57 23.4
-6 -5 4 285.57 23.6
-5 -5 4 119.69 12
-5 -5 4 119.39 11.9
-5 -5 4 128.19 12.1
-4 -5 4 2.9 1.8
-4 -5 4 3.7 1.9
-4 -5 4 3.8 2
-3 -5 4 476.85 39.4
-3 -5 4 470.85 39.7
-3 -5 4 440.46 39.3
-2 -5 4 308.87 26.9
-2 -5 4 310.27 26.5
-2 -5 4 291.37 26.6
1 5 -4 197.48 20.8
-1 -5 4 254.77 21.5
-1 -5 4 253.57 21
-1 -5 4 242.98 21.3
0 5 -4 905.11 84.39
0 -5 4 1039.5 84.59
0 -5 4 1078.99 83.99
0 -5 4 1091.19 84.69
-1 5 -4 110.39 12.3
1 -5 4 130.69 12.3
1 -5 4 134.89 11.7
1 -5 4 128.29 12.1
-2 5 -4 19.4 4.1
2 -5 4 20.9 3.2
2 -5 4 15.9 3
2 -5 4 21.3 3.5
-3 5 -4 47.2 6.1
3 -5 4 52.09 5.5
3 -5 4 52.99 5.6
3 -5 4 51.79 6
4 -5 4 54.09 5.6
4 -5 4 57.79 6.1
4 -5 4 56.69 6.5
-5 5 -4 235.58 22.3
5 -5 4 281.77 21.9
5 -5 4 265.97 22.4
-6 5 -4 156.08 14.7
6 -5 4 180.88 14.5
6 -5 4 177.38 14.9
7 -5 4 3.4 1
7 -5 4 4.6 0.9
8 -5 4 0.2 0.5
8 -5 4 0.3 0.3
-9 -4 4 40.8 3.9
-9 -4 4 40 3.9
-8 -4 4 6 1.8
-8 -4 4 7.2 1.8
-7 -4 4 149.79 13.2
-7 -4 4 126.59 12.8
-6 -4 4 440.56 40.6
-6 -4 4 517.05 41.2
-5 -4 4 851.01 70.29
-5 -4 4 791.02 70.39
-5 -4 4 896.91 71.09
-4 -4 4 531.15 43.5
-4 -4 4 501.35 42.6
-4 -4 4 464.15 42.6
-3 -4 4 619.74 49.99
-3 -4 4 574.54 49.1
-3 -4 4 549.15 48.9
-2 -4 4 77.59 8.7
-2 -4 4 74.29 8.5
-2 -4 4 77.59 9.1
-1 -4 4 509.05 40.2
-1 -4 4 440.76 40.1
-1 -4 4 473.45 40.8
0 -4 4 691.43 52.99
0 -4 4 634.44 53.59
0 -4 4 589.84 53.09
1 -4 4 765.82 69.99
1 -4 4 936.61 69.79
1 -4 4 829.82 70.19
1 -4 4 875.51 70.59
2 -4 4 465.85 40.3
2 -4 4 492.85 40.6
2 -4 4 478.95 40.2
-3 4 -4 140.49 15.8
3 -4 4 195.68 16
3 -4 4 177.08 15.7
-4 4 -4 5.8 2
4 -4 4 6.2 1.9
4 -4 4 10.5 2.5
4 -4 4 14.8 2.9
4 -4 4 12.4 2.3
-5 4 -4 43.8 5.6
5 -4 4 60.89 5.5
5 -4 4 50.19 5.7
5 -4 4 54.29 5.8
5 -4 4 46.7 5.1
-6 4 -4 26.3 3.8
6 -4 4 36.8 4.3
6 -4 4 37.8 3.9
6 -4 4 40.6 4.4
6 -4 4 34.8 3.7
7 -4 4 129.49 11.4
7 -4 4 133.49 11.4
7 -4 4 123.49 11
8 -4 4 4.2 1.1
8 -4 4 2.5 0.7
9 -4 4 34 2.9
-9 -3 4 300.57 26.3
-9 -3 4 332.07 26.4
-8 -3 4 240.68 20.9
-8 -3 4 234.88 20.7
-7 -3 4 56.99 7.4
-7 -3 4 68.49 7.3
6 3 -4 0.6 0.8
-6 -3 4 1.5 1.4
-6 -3 4 0.2 1.5
-6 -3 4 -0.6 1.1
5 3 -4 91.99 8.3
-5 -3 4 82.79 10.5
-5 -3 4 87.99 10
-5 -3 4 103.29 10.5
4 3 -4 640.34 52.49
-4 -3 4 632.74 55.29
-4 -3 4 553.64 54.79
-4 -3 4 749.53 56.59
3 3 -4 1465.55 124.09
-3 -3 4 1602.64 125.19
2 3 -4 684.03 56.59
-2 -3 4 666.63 58.39
-2 -3 4 702.43 57.19
1 3 -4 453.85 49.1
0 -3 4 190.08 17.6
0 -3 4 158.18 16.5
0 -3 4 209.08 17.1
-1 3 -4 421.56 49.8
1 -3 4 464.75 42.2
1 -3 4 497.95 39.1
1 -3 4 456.65 38.9
-2 3 -4 454.45 47.4
-2 3 -4 371.36 34.5
2 -3 4 415.06 34.9
2 -3 4 391.76 34.6
2 -3 4 426.76 34.7
-3 3 -4 600.74 59.39
3 -3 4 503.15 45.8
3 -3 4 515.25 46.1
3 -3 4 589.04 46.5
3 -3 4 575.94 45.7
-4 3 -4 1033.8 99.49
4 -3 4 1181.68 99.09
4 -3 4 1324.37 99.99
4 -3 4 1419.26 99.09
4 -3 4 1162.28 99.59
-5 3 -4 67.79 7.7
5 -3 4 88.59 8.2
5 -3 4 86.29 7.6
5 -3 4 72.09 7.8
5 -3 4 80.29 7.5
-6 3 -4 11.8 2.3
6 -3 4 13.4 2.1
6 -3 4 9.8 2.3
6 -3 4 8.5 2.2
6 -3 4 7.8 1.7
-7 3 -4 3.8 1.3
7 -3 4 2.9 1.2
7 -3 4 3.3 1.2
7 -3 4 3.4 1.1
7 -3 4 2.6 1
8 -3 4 37.7 3.9
8 -3 4 43.5 4.3
8 -3 4 39.7 4
8 -3 4 46.7 4.5
9 -3 4 54.99 5
9 -3 4 61.09 5.4
-10 -2 4 1.9 0.7
-9 -2 4 308.57 26.7
8 2 -4 317.97 26
-8 -2 4 303.27 27.7
-8 -2 4 340.37 27.7
-7 -2 4 712.53 54.39
-7 -2 4 582.44 54.69
6 2 -4 1165.78 84.89
-6 -2 4 1019.1 87.79
-6 -2 4 945.51 86.89
5 2 -4 278.97 21.6
-5 -2 4 198.28 25.6
4 2 -4 114.79 10.7
-4 -2 4 119.19 12
-4 -2 4 96.99 12.7
3 2 -4 70.89 13.8
3 2 -4 67.79 11.6
2 2 -4 711.63 65.89
2 2 -4 618.24 59.29
1 2 -4 503.55 51.89
1 2 -4 636.24 58.79
0 2 -4 1224.28 111.19
-1 2 -4 482.45 51.89
-3 2 -4 10.1 7.4
-3 2 -4 7.3 2.4
-3 2 -4 3.8 4
3 -2 4 10.9 2.5
3 -2 4 11.8 2.8
3 -2 4 8.4 2.2
3 -2 4 13.7 2.1
-4 2 -4 206.28 21.5
4 -2 4 207.28 20.9
4 -2 4 264.37 20.8
4 -2 4 279.77 20.6
4 -2 4 248.08 21
-5 2 -4 206.68 20.8
5 -2 4 253.57 20.2
5 -2 4 254.67 19.7
5 -2 4 189.58 19.9
5 -2 4 248.58 19.8
-6 2 -4 353.76 33.9
6 -2 4 377.26 33.2
6 -2 4 390.56 32.7
6 -2 4 416.46 32.9
6 -2 4 440.26 33.2
-7 2 -4 150.58 13.9
7 -2 4 147.39 13.3
7 -2 4 149.09 12.8
7 -2 4 152.48 13.2
7 -2 4 142.49 12.8
-8 2 -4 16.5 2.6
8 -2 4 11.7 1.9
8 -2 4 17 2.3
8 -2 4 15.8 2.6
8 -2 4 15.3 2.1
-9 2 -4 1.6 0.9
9 -2 4 2.2 0.9
9 -2 4 1.4 0.9
9 -2 4 0.7 0.6
10 -2 4 7.9 1.2
10 -2 4 6.6 0.9
-10 -1 4 242.18 20.3
-10 -1 4 247.38 20.3
9 1 -4 63.99 5.3
9 1 -4 50.69 5.7
-9 -1 4 65.89 6.3
-9 -1 4 59.29 6.2
8 1 -4 -0.9 1.2
8 1 -4 3.2 0.9
-8 -1 4 2.2 1.6
-8 -1 4 1.2 1.2
7 1 -4 97.59 8.7
-7 -1 4 99.79 10.1
-7 -1 4 89.89 10.5
6 1 -4 234.18 20.3
-6 -1 4 220.28 22.5
-6 -1 4 209.78 22.4
-6 -1 4 280.57 22
5 1 -4 1022.4 85.89
5 1 -4 878.41 74.89
-5 -1 4 909.51 77.09
-5 -1 4 859.71 77.09
4 1 -4 1209.48 106.69
3 1 -4 694.03 57.69
3 1 -4 508.45 59.89
2 1 -4 285.37 30.7
2 1 -4 335.37 36.8
1 1 -4 98.59 13
1 1 -4 124.29 18.2
0 1 -4 606.74 57.09
0 1 -4 532.35 48
-1 1 -4 3066.09 259.37
-1 1 -4 3247.48 265.47
-4 1 -4 141.49 14.3
-4 1 -4 119.59 21.4
4 -1 4 149.88 13.1
-5 1 -4 117.19 12.1
5 -1 4 110.59 10.8
-6 1 -4 28 5.1
6 -1 4 42.4 4.6
6 -1 4 38 5
6 -1 4 45.6 4.7
-7 1 -4 234.88 23.6
7 -1 4 271.27 23
7 -1 4 286.27 22.6
7 -1 4 277.37 22.7
8 -1 4 225.58 21.7
8 -1 4 275.97 22
-9 1 -4 73.59 6.7
9 -1 4 59.69 5.8
9 -1 4 68.99 6.3
9 -1 4 61.79 5.8
9 -1 4 64.59 6.2
-10 1 -4 11 1.6
10 -1 4 9.1 1.4
10 -1 4 8.1 1.1
10 -1 4 7.9 1.1
10 0 -4 246.78 18.5
-10 0 4 198.98 18.7
-10 0 4 235.68 19
9 0 -4 552.54 45.2
9 0 -4 519.75 45.4
-9 0 4 592.24 46
-9 0 4 565.84 45.8
8 0 -4 563.94 51.39
8 0 -4 636.24 51.29
-8 0 4 632.14 52.39
-8 0 4 693.73 52.49
7 0 -4 386.56 32.3
-7 0 4 351.26 33.6
-7 0 4 433.76 33.7
6 0 -4 91.39 9.6
-6 0 4 87.79 12.6
-6 0 4 114.19 10.7
5 0 -4 262.17 31.2
5 0 -4 208.98 20.8
-5 0 4 252.97 22.8
4 0 -4 1403.96 135.49
4 0 -4 1788.32 145.29
-4 0 4 1830.72 137.89
3 0 -4 1258.37 127.89
3 0 -4 1501.15 121.39
2 0 -4 1075.89 102.19
2 0 -4 1074.49 94.59
1 0 -4 497.25 45.9
1 0 -4 458.35 50.79
0 0 -4 18.7 7.5
0 0 -4 14.6 3.7
-1 0 -4 67.69 12.6
-1 0 -4 85.39 10.6
-1 0 -4 66.29 7.2
-2 0 -4 314.07 32.1
5 0 4 374.96 30
5 0 4 348.57 29.8
5 0 4 342.07 29.5
-6 0 -4 29.9 4.7
6 0 4 30.5 4
-7 0 -4 3.2 1.8
7 0 4 1.7 1.2
7 0 4 0.5 0.7
7 0 4 -0.7 0.9
7 0 4 0.8 1
-8 0 -4 50.89 6.3
8 0 4 56.59 5.5
8 0 4 58.09 5.8
8 0 4 53.09 5.3
8 0 4 56.49 5.5
-9 0 -4 73.09 7.2
9 0 4 72.89 6.6
9 0 4 67.29 6.4
9 0 4 70.19 6.3
9 0 4 63.09 6.4
-10 0 -4 49.6 4.8
10 0 4 43.1 4.1
10 0 4 42.6 4
10 0 4 38.1 3.9
11 0 4 15.3 1.6
11 0 4 18.4 1.7
10 -1 -4 0.6 0.5
-10 1 4 0.6 0.6
9 -1 -4 95.89 7.8
9 -1 -4 80.69 7.9
-9 1 4 82.29 8.2
-9 1 4 94.29 8.5
8 -1 -4 146.59 12.5
8 -1 -4 132.09 12.6
-8 1 4 153.88 13.3
-8 1 4 142.49 13
7 -1 -4 331.47 28.1
-7 1 4 357.46 29.1
-7 1 4 320.07 28.9
-6 1 4 654.33 55.09
5 -1 -4 614.14 56.29
5 -1 -4 675.13 73.39
-5 1 4 747.93 57.69
4 -1 -4 461.25 48.2
3 -1 -4 287.17 33.4
2 -1 -4 120.29 17.7
1 -1 -4 1410.06 131.59
1 -1 -4 1560.44 126.99
1 -1 -4 1399.96 124.19
0 -1 -4 2558.34 187.58
0 -1 -4 2127.09 189.98
0 -1 -4 1982.9 180.78
-1 -1 -4 673.33 68.99
-1 -1 -4 841.12 67.89
-2 -1 -4 84.09 12.3
-2 -1 -4 99.39 12
-2 -1 -4 110.59 15.6
-2 -1 -4 120.39 13.7
-3 -1 -4 54.89 9.2
-3 -1 -4 65.19 8.4
-4 -1 -4 6.9 3.6
-4 -1 -4 10.6 4.1
-4 -1 -4 9.8 4.2
-5 -1 -4 144.69 18.7
6 1 4 583.94 48.2
7 1 4 507.35 41
7 1 4 542.75 42.4
7 1 4 450.65 41.2
-8 -1 -4 79.39 8.4
8 1 4 81.49 7.5
8 1 4 84.69 7.3
8 1 4 76.39 7.5
8 1 4 74.39 7.4
-9 -1 -4 54.19 6.3
9 1 4 59.09 5.4
9 1 4 55.79 5.5
9 1 4 56.39 5.5
9 1 4 60.09 5.5
-10 -1 -4 90.39 8.3
10 1 4 85.69 7.5
10 1 4 97.49 7.9
10 1 4 88.89 7.6
10 1 4 80.29 7.6
11 1 4 48.5 4.5
11 1 4 54.99 4.5
10 -2 -4 134.99 10.7
-10 2 4 119.19 10.8
9 -2 -4 193.18 14.9
9 -2 -4 156.78 14.9
-9 2 4 178.48 15.2
8 -2 -4 78.69 8.3
8 -2 -4 98.79 8.3
-8 2 4 83.09 8.2
-8 2 4 101.29 9
7 -2 -4 356.16 30.4
-7 2 4 401.96 31.3
-7 2 4 339.77 30.6
6 -2 -4 1114.09 89.09
-6 2 4 1168.38 88.89
-6 2 4 960.6 88.09
5 -2 -4 687.73 59.49
5 -2 -4 642.04 68.69
-5 2 4 811.62 60.19
4 -2 -4 2100.09 181.28
3 -2 -4 861.61 81.09
2 -2 -4 30.6 8.6
2 -2 -4 34.9 5.8
1 -2 -4 21.3 8
1 -2 -4 14.3 3.8
1 -2 -4 17.3 3.8
0 -2 -4 1190.28 99.89
-1 -2 -4 2599.74 208.18
-1 -2 -4 2329.77 212.38
-1 -2 -4 2572.54 206.48
-1 -2 -4 2592.74 212.38
-2 -2 -4 793.52 64.59
-2 -2 -4 678.73 65.09
-3 -2 -4 1277.67 104.59
-3 -2 -4 1236.68 107.29
-4 -2 -4 163.18 19.7
-5 -2 -4 21.8 7.4
6 2 4 384.36 31.6
6 2 4 383.06 31.9
7 2 4 531.05 43.3
7 2 4 502.35 43.5
7 2 4 553.84 43.2
-8 -2 -4 214.88 22
8 2 4 259.67 21
8 2 4 268.47 20.9
8 2 4 253.17 21.1
-9 -2 -4 104.39 11.7
9 2 4 96.39 9.3
9 2 4 120.59 9.9
9 2 4 102.39 9.3
-10 -2 -4 77.59 7.4
10 2 4 75.09 6.5
10 2 4 70.99 6.7
-11 -2 -4 2.2 1
11 2 4 2.8 0.7
11 2 4 1.8 0.5
10 -3 -4 180.38 13.7
-10 3 4 148.19 13.6
9 -3 -4 338.37 27.2
-9 3 4 323.37 27.4
8 -3 -4 111.29 9.3
8 -3 -4 96.79 9.4
-8 3 4 102.79 9.7
7 -3 -4 181.88 16.2
-7 3 4 196.38 16.9
6 -3 -4 54.29 5.7
-6 3 4 46.7 5.4
-6 3 4 59.69 6.4
5 -3 -4 36.5 11.7
5 -3 -4 45.5 5.4
-5 3 4 49.8 5.7
-4 3 4 439.26 37.2
3 -3 -4 683.93 52.19
3 -3 -4 507.05 58.79
2 -3 -4 1347.27 102.09
2 -3 -4 1159.68 110.09
2 -3 -4 1128.19 98.79
1 -3 -4 711.93 69.59
1 -3 -4 705.33 62.49
0 -3 -4 145.49 16.8
0 -3 -4 141.59 21.6
-1 -3 -4 72.09 10.6
-1 -3 -4 82.09 8.8
-2 -3 -4 400.76 37.1
-2 -3 -4 409.36 34.6
-2 -3 -4 310.07 34.5
-3 -3 -4 205.58 24.5
-3 -3 -4 212.88 22.5
-4 -3 -4 485.35 48.1
-4 -3 -4 475.95 45.2
-5 -3 -4 474.75 50.19
-5 -3 -4 539.45 48.8
-6 -3 -4 135.19 19.3
-6 -3 -4 141.39 17.6
-6 -3 -4 91.89 14.5
-7 -3 -4 2.9 2
7 3 4 3.6 1.3
-8 -3 -4 5.8 1.9
8 3 4 5.7 1.3
8 3 4 7.9 1.5
-9 -3 -4 35.3 5.2
9 3 4 35.4 3.8
9 3 4 37.2 3.8
-10 -3 -4 354.36 30
10 3 4 357.96 29.3
10 3 4 357.66 29.1
-11 -3 -4 56.89 5.1
11 3 4 47.7 4.6
11 3 4 49.8 4.4
10 -4 -4 34.6 3.1
-10 4 4 30.3 3
9 -4 -4 14.1 1.8
9 -4 -4 11.8 1.9
-9 4 4 13.3 2
8 -4 -4 123.09 11
-8 4 4 133.19 11.5
7 -4 -4 301.67 26.9
-7 4 4 350.26 27.6
6 -4 -4 763.82 60.49
-6 4 4 808.02 60.99
-6 4 4 650.63 60.29
5 -4 -4 715.43 60.19
-5 4 4 820.92 60.59
-5 4 4 667.93 60.39
4 -4 -4 165.18 14.8
4 -4 -4 159.38 24.1
3 -4 -4 307.97 37.3
2 -4 -4 488.85 56.39
2 -4 -4 571.24 49.99
-1 -4 -4 733.63 74.09
-1 -4 -4 981.8 75.69
-2 -4 -4 718.43 67.59
-2 -4 -4 793.02 63.89
-2 -4 -4 752.42 64.59
-3 -4 -4 36.1 6.7
-4 -4 -4 289.17 28.5
-4 -4 -4 242.88 29.2
5 4 4 1417.76 113.49
5 4 4 1388.46 113.59
6 4 4 972.7 80.29
6 4 4 1006.6 80.39
7 4 4 1082.19 89.29
7 4 4 1116.29 88.89
-8 -4 -4 127.39 13.3
8 4 4 150.08 12.4
8 4 4 149.39 12.5
-9 -4 -4 4.4 1.9
9 4 4 3.4 1.1
9 4 4 2.5 0.8
-10 -4 -4 7.2 1.8
10 4 4 6.8 1.2
-11 -4 -4 60.19 5.5
11 4 4 58.29 5
11 4 4 58.29 5.2
9 -5 -4 61.39 5.4
-9 5 4 61.39 5.5
8 -5 -4 14.2 2.2
8 -5 -4 14.7 1.9
-8 5 4 17.5 2.3
7 -5 -4 1.5 0.8
7 -5 -4 1.1 1.1
-7 5 4 0.5 0.8
-7 5 4 0.3 1
6 -5 -4 164.48 14.7
-6 5 4 183.68 15.4
-6 5 4 172.28 15.1
5 -5 -4 588.74 51.39
-5 5 4 658.13 52.09
-5 5 4 643.04 51.99
4 -5 -4 171.78 16.4
-4 5 4 190.88 16.9
-4 5 4 212.68 17.5
3 -5 -4 567.64 58.59
-3 5 4 688.93 52.59
2 -5 -4 611.54 68.19
-2 5 4 814.62 61.69
-2 5 4 760.62 60.79
1 -5 -4 5 3.4
1 -5 -4 3.8 5.7
0 -5 -4 281.07 38.1
-1 -5 -4 1984 166.98
-2 -5 -4 515.15 46.3
-2 -5 -4 451.55 42.8
-3 -5 -4 677.23 53.29
-3 -5 -4 501.05 54.59
-4 -5 -4 323.37 30.2
-4 -5 -4 267.07 31.4
-6 -5 -4 81.79 14.9
6 5 4 113.19 10
6 5 4 112.49 10
-7 -5 -4 32.6 4.9
7 5 4 37.8 4.2
7 5 4 45.5 4.4
-8 -5 -4 166.68 15.9
8 5 4 183.48 15.1
8 5 4 178.68 15.1
-9 -5 -4 188.28 16.3
9 5 4 182.78 15.5
9 5 4 182.78 15.5
-10 -5 -4 132.19 11
10 5 4 97.89 9.4
-11 -5 -4 11.8 1.5
11 5 4 9.7 1.3
11 5 4 10.7 1.1
9 -6 -4 154.38 12.4
-9 6 4 147.29 12.4
8 -6 -4 46.1 4.1
8 -6 -4 38 4.2
-8 6 4 48 4.4
7 -6 -4 89.39 8.8
7 -6 -4 97.79 8.6
-7 6 4 108.49 9.1
6 -6 -4 89.39 9.5
6 -6 -4 98.39 9.1
-6 6 4 112.29 9.5
-6 6 4 115.59 9.8
5 -6 -4 4.2 1.2
-5 6 4 7.7 1.7
-5 6 4 4.3 1.5
4 -6 -4 320.47 30.3
-4 6 4 369.56 31
-4 6 4 418.86 31.3
3 -6 -4 378.16 41.9
-3 6 4 433.26 35.4
-3 6 4 418.56 34.8
2 -6 -4 1377.66 109.79
-2 6 4 1194.08 101.59
-2 6 4 1178.68 100.89
1 -6 -4 978.4 82.29
-1 6 4 858.81 77.39
0 -6 -4 169.58 30.4
0 -6 -4 257.07 26.3
0 6 4 222.58 19.3
0 6 4 231.48 20.5
-1 -6 -4 279.27 31.4
1 6 4 312.67 25.6
-2 -6 -4 250.17 30.4
2 6 4 317.87 24.9
-3 -6 -4 324.67 36.9
3 6 4 401.56 32
4 6 4 3110.79 240.18
4 6 4 2853.71 239.98
5 6 4 1427.46 116.99
5 6 4 1454.35 116.69
6 6 4 475.25 39.7
6 6 4 481.75 40
-7 -6 -4 49.3 5.7
7 6 4 54.49 5.5
7 6 4 49.3 5.2
-8 -6 -4 78.39 7.4
8 6 4 75.69 6.9
8 6 4 68.09 7.7
-9 -6 -4 151.08 13.1
9 6 4 149.59 12.7
-10 -6 -4 90.09 7.8
10 6 4 86.39 7.4
-11 -6 -4 95.49 7.5
11 6 4 83.89 7.4
11 6 4 88.59 7.3
8 -7 -4 52.39 4.6
-8 7 4 50.29 4.6
7 -7 -4 62.49 6.1
7 -7 -4 68.39 5.9
-7 7 4 66.89 5.9
6 -7 -4 176.68 16.6
6 -7 -4 199.08 16.2
-6 7 4 195.78 16.5
-6 7 4 196.58 16.3
5 -7 -4 153.18 13.7
-5 7 4 165.98 14.1
-5 7 4 166.58 14.3
-4 7 4 235.88 21.5
-4 7 4 265.77 21.6
-3 7 4 99.69 9.5
-3 7 4 92.39 9.2
-2 7 4 30.1 4.1
-2 7 4 29.3 7.3
-1 7 4 754.62 62.19
-1 7 4 761.52 62.99
0 -7 -4 2093.69 182.08
0 -7 -4 2157.48 172.08
0 7 4 1945.01 164.98
0 7 4 1997 165.88
-1 -7 -4 774.92 67.49
1 7 4 713.73 59.59
1 7 4 702.43 60.39
-2 -7 -4 346.27 35.6
2 7 4 330.37 28.4
2 7 4 319.87 27.8
3 7 4 0.9 1.2
4 7 4 34.9 4.4
4 7 4 33.7 4.5
5 7 4 573.94 48.2
5 7 4 591.14 48.1
6 7 4 74.99 7.2
6 7 4 69.69 7.3
7 7 4 396.06 32.3
7 7 4 358.96 31.3
-8 -7 -4 245.78 19.7
8 7 4 217.38 19.2
8 7 4 230.98 19.3
-9 -7 -4 20 2.3
9 7 4 16.9 2
-10 -7 -4 2 0.5
10 7 4 1.3 0.4
10 7 4 1.2 0.4
7 -8 -4 1.2 0.9
-7 8 4 1.6 0.6
6 -8 -4 73.79 7.2
-6 8 4 85.29 7.1
5 -8 -4 75.79 8.3
-5 8 4 93.49 8
-5 8 4 93.39 8.2
4 -8 -4 35.9 5.1
-4 8 4 51.79 4.9
-4 8 4 42.8 4.9
-3 8 4 473.35 38.8
-3 8 4 461.15 38.8
-2 8 4 31.3 3.9
-2 8 4 30.1 4.1
-1 8 4 41.4 4.9
-1 8 4 37.3 4.6
0 8 4 125.19 11.8
0 8 4 132.29 12.1
1 8 4 378.06 31.9
1 8 4 383.66 32.2
2 8 4 881.31 71.89
3 8 4 566.54 46.8
4 8 4 298.87 24.6
4 8 4 275.17 24.4
5 8 4 188.48 16.5
5 8 4 190.28 16.6
6 8 4 155.98 14.5
7 8 4 153.78 13
7 8 4 143.59 12.6
8 8 4 135.59 11.3
8 8 4 129.69 11.1
9 8 4 91.59 7.6
9 8 4 90.59 7.6
10 8 4 55.79 4.6
-6 9 4 19 2
-6 9 4 19.9 2
-5 9 4 15.7 2
-5 9 4 16.7 2
4 -9 -4 47.3 5.8
-4 9 4 55.99 5.1
-4 9 4 51.09 5.1
-3 9 4 270.27 22.7
-3 9 4 271.57 22.8
-2 9 4 137.69 12.5
-2 9 4 144.99 12.7
0 9 4 314.57 26.7
0 9 4 317.47 26.6
1 9 4 19.4 3
1 9 4 18.1 2.8
2 9 4 1.6 1.1
2 9 4 3.2 1.2
3 9 4 121.29 10.5
3 9 4 106.79 10.3
4 9 4 322.97 28.1
5 9 4 220.78 18.7
5 9 4 217.08 18.5
6 9 4 122.09 10.7
6 9 4 120.09 10.5
7 9 4 37 3.5
7 9 4 39.4 3.8
8 9 4 0.2 0.3
9 9 4 12.1 1.1
-4 10 4 48.7 4.5
-4 10 4 56.69 4.8
-4 10 4 51.29 4.7
-3 10 4 14.9 1.9
-3 10 4 14.5 2
-2 10 4 39.3 4.1
-2 10 4 40.7 4.2
-1 10 4 46.8 4.8
-1 10 4 46.4 4.7
0 10 4 205.88 17.4
0 10 4 202.48 17.4
1 10 4 367.56 31.3
1 10 4 388.96 31.3
2 10 4 99.19 9.4
2 10 4 110.99 9.3
3 10 4 3.3 1.2
3 10 4 2.6 1
4 10 4 6.9 1.5
4 10 4 4.5 1.2
5 10 4 65.79 6
5 10 4 63.19 5.9
6 10 4 175.08 14.1
6 10 4 161.58 13.9
7 10 4 89.69 7.5
-2 11 4 17.8 1.9
-2 11 4 14.5 1.7
-2 11 4 15.7 1.8
-1 11 4 23 2.4
-1 11 4 23 2.4
0 11 4 19.6 2.3
0 11 4 22.2 2.2
0 11 4 17.8 2.3
1 11 4 89.79 7.3
1 11 4 80.79 7.1
1 11 4 70.69 7
2 11 4 20.2 2.4
2 11 4 20.4 2.4
3 11 4 157.08 12.8
3 11 4 147.09 12.7
4 11 4 90.39 7.9
4 11 4 96.19 8.1
5 11 4 18.2 2
5 11 4 21.6 2.1
6 11 4 6.6 0.8
-4 -7 5 188.68 15.2
-4 -7 5 173.98 14.8
-3 -7 5 52.79 5
-3 -7 5 59.29 5.5
-2 -7 5 21.3 2.4
-1 -7 5 -0.4 0.5
-1 -7 5 -0.6 0.7
0 -7 5 26.5 3.2
0 -7 5 25.8 2.8
1 -7 5 44.2 4.2
1 -7 5 47.3 4.7
2 -7 5 132.99 10.9
2 -7 5 118.29 10.4
3 -7 5 44.4 4.5
-6 -6 5 25 3.2
-6 -6 5 26.6 2.6
-5 -6 5 6.3 1.4
-5 -6 5 6.3 1.2
-4 -6 5 89.39 8.6
-4 -6 5 95.49 8.7
-3 -6 5 124.39 11.6
-3 -6 5 132.89 12.2
-3 -6 5 137.19 12.1
-2 -6 5 189.18 17
-2 -6 5 203.68 17.7
-2 -6 5 205.08 17.5
-1 -6 5 191.28 17.2
-1 -6 5 207.38 17.8
-1 -6 5 208.58 17.9
0 -6 5 10.3 2.3
0 -6 5 9.3 1.9
0 -6 5 15 2.8
1 -6 5 4.3 1.7
1 -6 5 2 1
2 -6 5 12.4 2
2 -6 5 14 2.6
3 -6 5 30.3 3.7
3 -6 5 31.2 4.1
4 -6 5 47.6 4.8
4 -6 5 46 4.2
5 -6 5 13.2 1.3
5 -6 5 14.2 1.9
-7 -5 5 217.38 17.9
-7 -5 5 211.78 17.6
-6 -5 5 371.26 30.1
-6 -5 5 348.27 29.6
-5 -5 5 361.36 30.1
-5 -5 5 348.77 30.5
-5 -5 5 372.26 30.6
-4 -5 5 69.29 7.3
-4 -5 5 60.19 6.6
-3 -5 5 69.29 7.2
-3 -5 5 69.59 7.6
-3 -5 5 66.79 7.7
-2 -5 5 141.19 13.3
-2 -5 5 151.18 14.1
-2 -5 5 152.58 14
-1 -5 5 840.12 74.19
-1 -5 5 921.41 73.39
0 -5 5 248.38 23.1
0 -5 5 256.57 22.5
0 -5 5 259.77 21.8
1 -5 5 339.87 31.6
-2 5 -5 186.38 17.3
2 -5 5 181.88 16.7
2 -5 5 197.58 16.3
2 -5 5 188.88 16.9
-3 5 -5 9.2 2.6
3 -5 5 15.3 2.8
3 -5 5 10 2.2
3 -5 5 11.8 2.1
-4 5 -5 9.1 2.2
4 -5 5 9.7 1.7
4 -5 5 7.7 2.1
4 -5 5 7.4 1.8
5 -5 5 98.89 9.2
5 -5 5 100.99 8.6
6 -5 5 39.7 3.5
6 -5 5 40.7 4.1
7 -5 5 2.3 0.7
-8 -4 5 15.8 1.9
-8 -4 5 16.6 2
-7 -4 5 37.7 4.7
-7 -4 5 33.1 3.8
-6 -4 5 119.59 11.6
-6 -4 5 120.79 11
-5 -4 5 427.46 35.4
-5 -4 5 400.86 35.1
-5 -4 5 405.26 34.6
-4 -4 5 609.04 52.49
-4 -4 5 654.83 52.99
-3 -4 5 54.29 6.4
-3 -4 5 55.69 6.7
-3 -4 5 59.09 7.3
-2 -4 5 43.2 5.9
-2 -4 5 33.1 4.7
-2 -4 5 41.5 5.5
-1 -4 5 37.9 5
-1 -4 5 45 6
-1 -4 5 39.4 5.5
0 -4 5 130.29 12.6
0 -4 5 118.39 12.3
0 -4 5 134.69 11.9
1 -4 5 175.78 17.3
1 -4 5 194.68 17.6
1 -4 5 207.08 16.9
2 -4 5 194.38 18
2 -4 5 180.28 17.9
2 -4 5 210.58 18.4
2 -4 5 226.18 17.6
-3 4 -5 224.18 23
3 -4 5 249.78 22.5
3 -4 5 287.27 22.1
3 -4 5 287.27 23
3 -4 5 255.17 22.5
-4 4 -5 28.4 4.5
4 -4 5 37.2 4.7
4 -4 5 42.5 4.3
4 -4 5 35.7 4.5
-5 4 -5 1.9 1.3
5 -4 5 3.8 1.1
5 -4 5 3.9 1.2
5 -4 5 3.8 1.5
5 -4 5 2.8 1.5
6 -4 5 11.2 1.8
6 -4 5 9.1 1.6
6 -4 5 9.5 2
6 -4 5 7.9 1.8
7 -4 5 10.2 1.3
7 -4 5 10.7 2.2
8 -4 5 26.1 2.7
-9 -3 5 45.7 4.3
-9 -3 5 46.2 4
-8 -3 5 333.27 28.6
-8 -3 5 362.46 29.1
-7 -3 5 372.56 32.2
-7 -3 5 381.66 31.5
-6 -3 5 68.09 8.4
-6 -3 5 82.29 7.9
-6 -3 5 76.69 8.5
5 3 -5 18.8 2.4
-5 -3 5 21.7 3.8
-5 -3 5 16.7 3.5
4 3 -5 15.6 2.6
-4 -3 5 8.4 3.1
-4 -3 5 16 3.5
-4 -3 5 13 3
-3 -3 5 584.94 53.89
-3 -3 5 616.84 53.19
-3 -3 5 694.03 52.99
2 3 -5 2071.89 177.28
-2 -3 5 2321.87 178.48
1 3 -5 946.41 78.69
-1 -3 5 1013.2 79.79
-1 -3 5 912.51 78.79
-1 -3 5 961.6 78.39
0 3 -5 405.96 35.6
0 -3 5 440.16 36.3
0 -3 5 382.46 35.5
0 -3 5 447.46 35.2
-1 3 -5 73.29 8
1 -3 5 74.69 7.9
1 -3 5 88.59 7.6
1 -3 5 64.49 7.6
-2 3 -5 107.49 10.7
2 -3 5 102.29 10.4
2 -3 5 108.19 11
2 -3 5 99.79 10.3
2 -3 5 125.39 10.1
3 -3 5 321.27 24.9
3 -3 5 322.47 26
3 -3 5 294.87 25.6
3 -3 5 250.27 25.1
-4 3 -5 169.78 16.6
4 -3 5 179.98 16.6
4 -3 5 209.88 16.1
4 -3 5 193.28 16.9
4 -3 5 180.68 16.4
-5 3 -5 143.79 14.1
5 -3 5 161.58 14.4
5 -3 5 177.28 13.7
5 -3 5 154.98 13.9
5 -3 5 156.98 14.4
-6 3 -5 148.29 13.2
6 -3 5 152.18 13.4
6 -3 5 156.08 12.8
6 -3 5 146.49 13
6 -3 5 148.69 13.5
7 -3 5 12.6 2.1
7 -3 5 13.7 2.4
7 -3 5 11.7 1.8
7 -3 5 13 1.7
8 -3 5 6 1.3
8 -3 5 3.4 1.7
8 -3 5 4.1 0.7
8 -3 5 3.9 1.2
9 -3 5 16.1 1.8
-9 -2 5 57.59 5.3
-9 -2 5 55.19 5.1
-8 -2 5 34.5 4.4
-8 -2 5 39.1 4.2
7 2 -5 881.21 69.29
-7 -2 5 941.81 70.29
-7 -2 5 751.92 70.99
6 2 -5 521.45 38.8
-6 -2 5 401.56 40
5 2 -5 462.45 37.1
-5 -2 5 422.26 38.6
4 2 -5 92.69 10.7
-4 -2 5 93.49 11.3
-4 -2 5 102.39 10.7
3 2 -5 29.3 4
-3 -2 5 16.4 5
-3 -2 5 31.4 4.5
-3 -2 5 25.6 4.6
2 2 -5 96.69 9.5
-2 -2 5 73.29 10.2
-2 -2 5 95.29 9.6
1 2 -5 895.51 72.39
-1 -2 5 900.51 72.19
-1 -2 5 826.62 73.09
0 -2 5 854.31 72.29
0 -2 5 1001.8 71.19
0 -2 5 748.53 71.09
1 -2 5 495.85 46.3
1 -2 5 558.64 46.5
1 -2 5 642.04 46.1
1 -2 5 538.15 47.1
-2 2 -5 347.97 43.3
-2 2 -5 331.37 31.4
2 -2 5 361.56 30.8
2 -2 5 395.86 31
2 -2 5 383.76 31.5
-3 2 -5 53.29 6.9
-3 2 -5 52.69 14.1
3 -2 5 73.49 6.1
3 -2 5 59.79 6.3
3 -2 5 56.39 6.4
3 -2 5 63.29 6.9
-4 2 -5 104.39 11.7
4 -2 5 113.19 11.4
4 -2 5 141.29 10.8
4 -2 5 111.29 12.5
4 -2 5 129.79 11.2
-5 2 -5 209.08 21
5 -2 5 214.38 20.7
5 -2 5 247.28 20.3
5 -2 5 256.77 20.7
5 -2 5 259.77 20
-6 2 -5 126.19 13.4
6 -2 5 144.79 12.4
6 -2 5 142.79 13.2
6 -2 5 147.79 12.7
6 -2 5 164.88 13.2
-7 2 -5 25.1 3.4
7 -2 5 24.8 3.4
7 -2 5 24.1 2.6
7 -2 5 21.8 2.8
7 -2 5 23.1 3.1
-8 2 -5 24.5 3
8 -2 5 24.3 2.9
8 -2 5 23 2.6
8 -2 5 25.3 3.1
8 -2 5 25.1 2.5
9 -2 5 2.7 0.8
9 -2 5 1.7 0.4
9 -2 5 1.7 0.7
9 -2 5 2.7 0.9
-9 -1 5 96.59 8.6
-9 -1 5 97.19 8.5
8 1 -5 100.69 8.4
-8 -1 5 98.09 9.5
-8 -1 5 92.29 9
7 1 -5 8.5 1.6
-7 -1 5 11.1 2.5
-7 -1 5 4.5 2.2
6 1 -5 373.76 28.8
-6 -1 5 319.27 30.6
-6 -1 5 322.37 30.7
5 1 -5 44.1 5.3
-5 -1 5 52.09 7.1
-5 -1 5 34.4 6.2
-5 -1 5 58.19 6.1
4 1 -5 1410.36 143.69
4 1 -5 1815.82 136.59
-4 -1 5 1790.72 137.89
3 1 -5 1244.68 102.69
-3 -1 5 1392.36 103.79
-3 -1 5 1129.39 104.09
2 1 -5 361.56 30.9
-2 -1 5 345.17 32.5
-1 -1 5 170.18 18.1
-1 -1 5 151.08 15.4
0 1 -5 4.4 4.1
-1 1 -5 235.78 30.8
-2 1 -5 1057.59 110.79
-2 1 -5 1195.88 99.89
2 -1 5 1372.26 99.69
-3 1 -5 797.82 77.19
3 -1 5 744.43 63.69
-4 1 -5 106.19 18.5
4 -1 5 129.49 10.1
4 -1 5 94.29 10.7
4 -1 5 113.79 10.7
4 -1 5 120.99 10.5
-5 1 -5 212.58 22
5 -1 5 271.67 20.8
5 -1 5 260.17 20.9
5 -1 5 257.77 20.2
5 -1 5 203.18 20.9
-6 1 -5 80.99 10
6 -1 5 106.39 9.1
6 -1 5 116.09 9.4
6 -1 5 94.09 8.6
6 -1 5 90.09 9.4
-7 1 -5 267.97 23.4
7 -1 5 263.07 22.1
7 -1 5 248.18 21.7
7 -1 5 272.57 22.7
7 -1 5 266.97 22.3
-8 1 -5 62.19 6.3
8 -1 5 58.99 5.9
8 -1 5 53.99 5.2
8 -1 5 54.99 5.3
8 -1 5 57.09 5.6
-9 1 -5 57.09 6.5
9 -1 5 51.59 5.5
9 -1 5 54.09 5.1
9 -1 5 47.3 5.3
9 -1 5 61.69 5.3
-10 1 -5 49.3 4
10 -1 5 45.9 4
10 -1 5 39.3 3.8
-10 0 5 64.09 5.5
9 0 -5 245.38 19.3
-9 0 5 224.88 19.6
-9 0 5 236.48 19.6
8 0 -5 271.17 22.4
-8 0 5 284.17 23
-8 0 5 258.57 23.1
-7 0 5 1441.96 118.39
6 0 -5 400.76 32.6
-6 0 5 367.16 33.7
-5 0 5 178.28 19.4
-5 0 5 218.28 19.2
4 0 -5 17.6 7.5
4 0 -5 15.1 3.2
-4 0 5 15.4 3.9
-4 0 5 10.5 3.9
-4 0 5 20.3 3.5
-3 0 5 838.62 66.79
-3 0 5 739.73 67.39
2 0 -5 625.14 68.59
2 0 -5 733.93 63.99
1 0 -5 619.74 56.49
0 0 -5 80.19 8.5
0 0 -5 65.29 9.2
0 0 -5 71.29 13.6
-1 0 -5 70.39 10.5
-1 0 -5 64.49 13.2
-2 0 -5 36.8 10.1
-4 0 -5 540.35 58.09
4 0 5 680.33 52.49
-5 0 -5 295.67 26.2
5 0 5 279.37 24.7
-6 0 -5 85.49 11.2
-7 0 -5 33.9 5.3
7 0 5 45.4 4.5
7 0 5 36.6 4.6
7 0 5 42.9 4.5
8 0 5 27.8 4.2
8 0 5 25.8 3.3
-9 0 -5 15 2.7
9 0 5 17.5 2.3
9 0 5 15.3 2
9 0 5 16.3 1.8
9 0 5 16.7 2.2
-10 0 -5 63.79 5.3
10 0 5 45.9 4.6
10 0 5 53.99 4.5
10 0 5 53.69 4.8
10 0 5 51.99 4.8
10 -1 -5 40.4 3.8
-10 1 5 42.7 3.9
9 -1 -5 2 0.8
-9 1 5 0.8 0.9
-9 1 5 0.4 0.8
8 -1 -5 374.86 29.8
-8 1 5 373.66 30.2
-8 1 5 336.37 30
7 -1 -5 377.96 31.2
-7 1 5 353.46 31.7
-7 1 5 392.06 31.6
6 -1 -5 190.18 17.2
-6 1 5 192.48 17.7
5 -1 -5 848.92 73.29
-5 1 5 928.51 74.09
4 -1 -5 377.16 42.2
4 -1 -5 402.76 34.2
3 -1 -5 3.4 1.8
3 -1 -5 -0.9 6.4
3 -1 -5 1.4 3.3
2 -1 -5 8.8 7.9
2 -1 -5 5.1 4.5
1 -1 -5 384.26 45.5
1 -1 -5 413.76 41.4
0 -1 -5 1173.28 109.99
0 -1 -5 1262.67 109.79
-1 -1 -5 470.25 42.8
-1 -1 -5 508.25 43.9
-1 -1 -5 429.06 47
-2 -1 -5 720.63 61.69
-2 -1 -5 723.93 68.79
-3 -1 -5 7.4 5.4
-3 -1 -5 4.6 2.9
4 1 5 19 3.1
4 1 5 18.4 4.2
5 1 5 209.78 18.6
5 1 5 218.48 19.2
5 1 5 245.08 19.4
6 1 5 299.67 26
6 1 5 316.77 26.5
6 1 5 331.17 26.6
7 1 5 361.86 30
7 1 5 337.07 30.2
7 1 5 384.36 30.1
7 1 5 358.46 29.6
-8 -1 -5 84.29 9.4
8 1 5 93.79 8.7
8 1 5 102.89 8.6
8 1 5 95.09 8.6
8 1 5 93.39 8.2
-9 -1 -5 53.29 5.9
9 1 5 57.59 5.2
9 1 5 49.6 5.1
9 1 5 54.49 5.2
-10 -1 -5 53.79 5
10 1 5 37.4 4.4
10 1 5 45.8 4.3
10 1 5 45.6 4
-11 -1 -5 67.99 5.9
11 1 5 54.89 5.3
10 -2 -5 216.28 15.5
-10 2 5 160.88 15.3
9 -2 -5 199.58 15.2
-9 2 5 160.78 15.1
8 -2 -5 219.78 18.3
-8 2 5 212.88 18.4
7 -2 -5 171.48 15.4
-7 2 5 180.78 15.7
6 -2 -5 205.08 17.8
-6 2 5 189.28 17.4
5 -2 -5 561.84 47.1
-5 2 5 605.74 47.1
-5 2 5 507.25 46.5
4 -2 -5 691.13 75.29
4 -2 -5 763.52 66.09
-4 2 5 905.81 65.79
3 -2 -5 580.84 59.59
2 -2 -5 502.05 52.29
1 -2 -5 10.2 5.8
1 -2 -5 17.3 4.8
1 -2 -5 10 6.8
0 -2 -5 59.79 8.7
0 -2 -5 69.59 13
0 -2 -5 72.99 14.4
-1 -2 -5 22.8 4.9
-1 -2 -5 29.8 8
-1 -2 -5 32.4 9.8
-2 -2 -5 370.16 37.9
-2 -2 -5 454.75 40.6
-2 -2 -5 429.86 41.9
-2 -2 -5 393.56 41.5
-3 -2 -5 897.41 75.39
-3 -2 -5 924.81 81.59
-3 -2 -5 707.43 72.99
-4 -2 -5 70.19 8.4
-5 -2 -5 129.39 13.3
-6 -2 -5 1.7 4
-6 -2 -5 3.1 1.6
6 2 5 2.3 0.8
6 2 5 1.1 1.2
6 2 5 0.3 1
7 2 5 27.8 3.3
7 2 5 23.3 4.2
7 2 5 27.3 3.5
7 2 5 27.7 2.9
-8 -2 -5 355.76 34.4
8 2 5 432.36 33.6
8 2 5 409.96 33.4
8 2 5 402.36 33.4
8 2 5 426.86 33.2
-9 -2 -5 118.19 11.3
9 2 5 125.79 10.5
9 2 5 112.39 10.4
9 2 5 122.89 10.2
-10 -2 -5 9.9 2
10 2 5 12.3 1.7
10 2 5 8.3 1.5
-11 -2 -5 41.1 3.7
11 2 5 31.2 3.1
9 -3 -5 209.48 16.4
-9 3 5 182.28 16.3
8 -3 -5 314.77 25.3
-8 3 5 294.17 25.3
6 -3 -5 293.07 23
-6 3 5 237.88 23.1
5 -3 -5 39.3 5
-5 3 5 40.9 4.9
-5 3 5 34 4.7
4 -3 -5 61.69 15.6
4 -3 -5 80.29 8.4
-4 3 5 80.79 9.4
3 -3 -5 274.77 34.2
2 -3 -5 574.04 44.8
2 -3 -5 447.66 54.49
1 -3 -5 2078.69 180.18
1 -3 -5 2075.19 171.08
0 -3 -5 986 72.69
0 -3 -5 854.91 71.89
0 -3 -5 741.63 80.39
-1 -3 -5 11.1 3.4
-1 -3 -5 12.5 5.5
-1 -3 -5 7.1 5.2
-2 -3 -5 16.6 5
-2 -3 -5 16.7 5.1
-2 -3 -5 17.1 4.9
-3 -3 -5 200.98 22.9
-3 -3 -5 211.98 20.1
-3 -3 -5 238.88 26
-4 -3 -5 260.17 31.2
-4 -3 -5 308.07 30.7
-5 -3 -5 293.77 33.6
-5 -3 -5 349.07 33
-5 -3 -5 282.27 27.6
-6 -3 -5 223.88 19.9
-6 -3 -5 165.78 25
-6 -3 -5 234.98 25.4
7 3 5 63.39 6
7 3 5 59.39 5.6
-8 -3 -5 112.29 12.2
8 3 5 138.39 11.5
8 3 5 127.39 10.9
8 3 5 130.59 11.2
-9 -3 -5 14.3 2.7
9 3 5 14.1 2
9 3 5 14.8 2.2
9 3 5 15.4 1.8
-10 -3 -5 110.49 10.1
10 3 5 110.69 9.2
10 3 5 110.19 9.4
10 3 5 108.79 9.5
-11 -3 -5 53.19 4.7
11 3 5 44.5 4.2
9 -4 -5 11.7 1.6
-9 4 5 10.6 1.5
8 -4 -5 1.5 0.8
-8 4 5 1.2 0.8
7 -4 -5 412.26 35.2
-7 4 5 445.26 35.5
6 -4 -5 424.36 34.8
-6 4 5 475.95 35.1
-6 4 5 358.76 34.7
5 -4 -5 322.47 30.2
-5 4 5 395.76 30.2
4 -4 -5 390.26 63.49
-4 4 5 490.85 40.9
-4 4 5 518.05 40.2
3 -4 -5 112.39 19.9
2 -4 -5 97.39 12.2
2 -4 -5 73.29 16.8
1 -4 -5 258.37 27.1
0 -4 -5 138.99 22.4
-1 -4 -5 256.87 27
-2 -4 -5 1279.67 102.59
-2 -4 -5 1265.87 97.89
-2 -4 -5 1009.7 99.09
-3 -4 -5 244.98 23.5
-3 -4 -5 203.28 30.6
-4 -4 -5 33.6 7
-4 -4 -5 32.3 8.5
5 4 5 123.69 10.7
5 4 5 111.89 10.1
6 4 5 394.36 30.8
6 4 5 347.67 30.3
7 4 5 579.14 49
7 4 5 629.34 49.4
-8 -4 -5 60.39 7.1
8 4 5 65.79 5.8
8 4 5 66.89 6.2
-9 -4 -5 2.4 1.4
9 4 5 3.5 0.9
9 4 5 3.9 0.9
9 4 5 1.9 0.9
-10 -4 -5 3.3 1.2
10 4 5 3.8 1
10 4 5 3.5 0.7
10 4 5 2.1 0.8
-11 -4 -5 2.3 0.8
11 4 5 2.6 0.7
9 -5 -5 23.1 2.2
-9 5 5 21.2 2.2
8 -5 -5 41.9 4.2
-8 5 5 41.3 4.6
7 -5 -5 131.19 11.7
-7 5 5 143.49 12
6 -5 -5 191.58 17
-6 5 5 209.48 17.3
5 -5 -5 55.19 6
-5 5 5 63.09 6.3
-5 5 5 68.59 6.8
4 -5 -5 453.75 43.5
-4 5 5 606.14 44.4
3 -5 -5 717.33 77.09
3 -5 -5 789.32 62.79
2 -5 -5 274.57 30.7
2 -5 -5 232.08 36.1
-2 5 5 350.06 25.9
1 -5 -5 222.38 25.9
-1 5 5 258.27 22.2
0 -5 -5 3.7 4.7
0 -5 -5 2.6 3.1
-1 -5 -5 515.35 49.2
-2 -5 -5 563.74 52.89
-3 -5 -5 676.13 67.29
-3 -5 -5 801.42 64.09
4 5 5 1134.19 85.29
4 5 5 955.3 84.29
5 5 5 491.55 38.5
5 5 5 437.86 38.1
-6 -5 -5 14.3 9.1
6 5 5 17.2 2.3
6 5 5 22.2 2.9
-7 -5 -5 5.2 2
7 5 5 7 1.4
7 5 5 12.2 2.2
-8 -5 -5 106.99 11.4
8 5 5 124.49 10.4
8 5 5 133.19 10.8
-9 -5 -5 389.66 33
9 5 5 395.06 32.3
9 5 5 385.96 32.1
9 5 5 409.36 32.4
-10 -5 -5 102.79 9.3
10 5 5 106.89 9
10 5 5 101.89 8.6
-11 -5 -5 47.6 4.3
11 5 5 43.1 3.9
8 -6 -5 65.69 5.8
-8 6 5 66.99 5.8
7 -6 -5 221.08 19.3
-7 6 5 253.27 19.6
-7 6 5 228.68 19.3
6 -6 -5 143.19 12.7
-6 6 5 156.28 13.1
-6 6 5 148.09 13
5 -6 -5 3.1 0.9
-5 6 5 3.7 1.4
-5 6 5 6.6 1.7
4 -6 -5 104.99 10.3
-4 6 5 129.99 11.4
-4 6 5 118.09 10.6
2 -6 -5 490.25 51.49
-2 6 5 577.24 45.3
-2 6 5 526.85 44.1
1 -6 -5 1298.97 110.39
-1 6 5 1234.58 102.19
-1 6 5 1260.27 103.49
0 -6 -5 1247.38 105.99
0 6 5 1136.49 97.69
0 6 5 1249.77 99.79
-1 -6 -5 433.66 45.8
1 6 5 491.55 39.1
1 6 5 485.05 40.5
-2 -6 -5 0.2 3.9
2 6 5 1.9 1.1
3 6 5 638.64 52.79
4 6 5 540.65 45
4 6 5 554.54 45.4
5 6 5 359.46 29
5 6 5 327.07 28.6
6 6 5 1037.7 84.79
6 6 5 1052.49 84.79
-7 -6 -5 28.8 4.1
7 6 5 33.5 3.3
7 6 5 27.5 3.4
-8 -6 -5 44.7 4.9
8 6 5 40.4 4.1
8 6 5 45.8 4.4
-9 -6 -5 8.1 1.7
9 6 5 7.2 1.1
-10 -6 -5 36.8 3.6
10 6 5 36.5 3.2
10 6 5 36.3 3.4
-11 -6 -5 52.49 4.3
11 6 5 46.4 4.1
8 -7 -5 2.9 0.6
-8 7 5 2.9 0.6
7 -7 -5 37.3 3.5
-7 7 5 40.2 3.7
-7 7 5 35.8 3.6
6 -7 -5 274.87 22.6
-6 7 5 263.17 22.1
-6 7 5 261.67 22.2
5 -7 -5 58.19 6
-5 7 5 73.19 6.6
-5 7 5 69.89 6.5
4 -7 -5 109.99 10.6
-4 7 5 124.09 11
-4 7 5 133.59 11.4
-3 7 5 181.58 16
-3 7 5 188.18 16.7
-2 7 5 277.57 23.6
-2 7 5 279.07 24.5
-1 7 5 57.19 6.2
-1 7 5 73.79 7.5
0 7 5 407.56 34.9
0 7 5 407.66 33.8
-1 -7 -5 467.75 66.39
-1 -7 -5 545.35 49.7
1 7 5 479.65 41.9
1 7 5 492.95 40.9
2 7 5 787.62 65.99
2 7 5 810.32 65.09
3 7 5 366.66 29.3
3 7 5 366.36 29.8
3 7 5 316.67 29.7
4 7 5 79.69 8.6
4 7 5 88.79 9.6
5 7 5 173.98 15.3
5 7 5 173.88 15.4
6 7 5 76.49 7.6
6 7 5 82.09 7.6
-8 -7 -5 225.08 18.4
8 7 5 208.58 17.9
8 7 5 214.28 17.9
-9 -7 -5 56.39 5.1
9 7 5 52.09 4.9
9 7 5 51.69 4.8
9 7 5 60.39 5.4
-10 -7 -5 29.2 2.6
10 7 5 25 2.8
10 7 5 26.6 2.4
-7 8 5 6.6 1
6 -8 -5 21.5 2.2
-6 8 5 18.9 2.2
-6 8 5 20.3 2.3
-5 8 5 33 3.5
-5 8 5 31.2 3.5
-4 8 5 128.69 11.5
-4 8 5 133.59 11.7
-3 8 5 328.17 27.5
-3 8 5 325.37 27.6
-2 8 5 418.16 35.5
-2 8 5 442.16 36.2
-1 8 5 292.37 25.2
-1 8 5 290.87 24.5
0 8 5 3.1 1.3
0 8 5 7.6 2.1
1 8 5 123.99 11.2
1 8 5 127.69 11.9
2 8 5 341.87 29
2 8 5 354.56 29.5
3 8 5 895.41 73.59
3 8 5 905.11 73.29
3 8 5 904.41 73.39
4 8 5 139.69 12.2
4 8 5 132.49 12.3
5 8 5 361.16 30.1
5 8 5 358.66 30
6 8 5 9.6 2.1
6 8 5 6.2 1.5
7 8 5 1.9 0.8
7 8 5 1.6 0.9
7 8 5 1.8 0.7
8 8 5 92.19 7.9
8 8 5 96.99 7.9
8 8 5 88.79 7.8
9 8 5 74.99 6.2
9 8 5 73.59 6.1
-6 9 5 46.9 4.3
-6 9 5 43.7 3.9
-5 9 5 4.3 0.9
-5 9 5 3.8 0.9
-4 9 5 15.7 2.1
-4 9 5 17.2 2.2
-4 9 5 15.9 2.2
-3 9 5 57.59 5.7
-3 9 5 59.29 5.6
-2 9 5 89.79 8.3
-2 9 5 85.39 8
-1 9 5 183.58 17.9
-1 9 5 184.48 16.7
0 9 5 236.88 20.3
0 9 5 234.38 19.9
1 9 5 27.1 3.3
1 9 5 27.3 3.4
2 9 5 34.4 3.8
2 9 5 32.8 3.8
3 9 5 82.39 7.6
3 9 5 80.39 7.8
4 9 5 176.38 15.7
4 9 5 180.58 16.3
5 9 5 93.39 8.4
5 9 5 91.79 8.4
6 9 5 319.57 25.5
6 9 5 297.97 25.4
7 9 5 12.9 1.8
7 9 5 14.1 1.6
8 9 5 9 1
8 9 5 10.4 1.1
-4 10 5 34.7 3.4
-4 10 5 36.2 3.3
-3 10 5 91.39 8.1
-3 10 5 93.19 8.3
-3 10 5 98.89 8.1
-2 10 5 9.6 1.7
-2 10 5 7.7 1.5
-1 10 5 14.1 2
-1 10 5 14.4 2.1
0 10 5 125.79 10.8
0 10 5 123.09 10.9
1 10 5 120.89 10.6
1 10 5 122.19 10.6
2 10 5 138.29 12.9
2 10 5 140.49 12.8
2 10 5 168.98 12.9
3 10 5 284.67 22.9
3 10 5 267.47 23
4 10 5 6.2 1.3
4 10 5 5.3 1.4
5 10 5 7.9 1.5
5 10 5 6.1 1.2
6 10 5 14.8 1.7
6 10 5 15.5 1.7
7 10 5 67.49 5.8
7 10 5 70.99 5.8
-2 11 5 48.8 4.4
-2 11 5 49.2 4.3
-2 11 5 49.9 4.4
-1 11 5 8.3 1.2
-1 11 5 7.6 1.2
-1 11 5 8.2 1.3
0 11 5 0.9 0.5
0 11 5 0.1 0.6
0 11 5 0.2 0.5
1 11 5 11.2 1.8
1 11 5 14.4 1.6
1 11 5 14.3 1.7
2 11 5 49 4.9
2 11 5 49.9 4.5
3 11 5 147.79 11.7
3 11 5 132.49 11.8
4 11 5 38 3.3
4 11 5 33 3.3
5 11 5 41.2 3.6
5 11 5 41 3.7
6 11 5 8.1 0.8
6 11 5 9.2 0.9
-4 -6 6 6.1 1.4
-3 -6 6 66.89 5.9
-3 -6 6 57.69 5.1
-2 -6 6 46.8 4.2
-2 -6 6 48.4 4.9
-2 -6 6 49.99 4.9
-1 -6 6 34.1 3.7
-1 -6 6 35.3 3.9
-1 -6 6 33.1 3.1
0 -6 6 158.68 13.2
0 -6 6 157.18 13.3
0 -6 6 143.79 12.5
1 -6 6 16.8 2.5
1 -6 6 16.3 2.4
2 -6 6 1.8 1
3 -6 6 8.4 1.6
4 -6 6 5.9 1.5
-6 -5 6 139.79 11.9
-5 -5 6 170.78 14
-5 -5 6 169.68 14.6
-4 -5 6 125.29 11.7
-4 -5 6 115.19 11.5
-4 -5 6 130.39 10.6
-3 -5 6 125.49 12.2
-3 -5 6 136.59 11.6
-3 -5 6 141.89 12.5
-2 -5 6 14.5 2.9
-2 -5 6 13 2.1
-2 -5 6 15.1 2.9
-1 -5 6 135.99 12.2
-1 -5 6 146.79 13
-1 -5 6 142.29 13.1
0 -5 6 80.09 7.2
0 -5 6 75.19 7.7
0 -5 6 72.19 7.6
1 -5 6 260.87 22.5
1 -5 6 261.97 21.8
1 -5 6 263.47 22.5
2 -5 6 27.5 2.9
2 -5 6 28.8 3.8
2 -5 6 26.9 3.5
3 -5 6 4.8 1.5
3 -5 6 7.3 1.8
3 -5 6 7.3 1.2
4 -5 6 2.3 2
4 -5 6 1.2 1.4
5 -5 6 1.9 0.9
6 -5 6 27.9 2.8
-7 -4 6 21.5 2.2
-7 -4 6 16.3 1.6
-6 -4 6 11.1 2.1
-6 -4 6 11.2 1.5
-5 -4 6 135.09 11.6
-5 -4 6 138.19 12.4
-5 -4 6 130.49 12.4
-4 -4 6 277.97 24
-4 -4 6 268.07 23.9
-4 -4 6 277.57 23
-3 -4 6 213.58 19.4
-3 -4 6 249.38 20.5
-3 -4 6 221.78 20.2
-2 -4 6 328.67 28.9
-2 -4 6 349.27 29.1
-2 -4 6 326.47 28
-1 -4 6 108.69 12.7
-1 -4 6 94.49 11.1
1 -4 6 9 2.9
1 -4 6 7.3 2.3
2 -4 6 174.48 17
2 -4 6 211.18 16.6
2 -4 6 197.28 17.4
3 -4 6 80.59 6.5
3 -4 6 66.39 7
3 -4 6 59.59 6.8
3 -4 6 71.69 7.3
4 -4 6 144.89 11.1
4 -4 6 119.89 11.7
4 -4 6 130.09 11.9
4 -4 6 128.69 11.7
5 -4 6 10 1.8
5 -4 6 13.7 2.4
5 -4 6 10.7 2.1
5 -4 6 13.2 1.5
6 -4 6 1.2 0.9
6 -4 6 0.4 0.7
7 -4 6 0.7 0.6
-8 -3 6 96.39 8.7
-7 -3 6 233.98 18.9
-7 -3 6 224.28 19.5
-6 -3 6 93.79 9.5
-6 -3 6 98.59 8.6
-5 -3 6 139.39 11.9
-5 -3 6 125.49 12.9
-5 -3 6 133.49 12.8
4 3 -6 7.8 1.7
-4 -3 6 8.5 3.1
-4 -3 6 8.3 1.8
3 3 -6 231.58 18.9
-3 -3 6 217.98 18.9
-3 -3 6 219.08 20.2
-3 -3 6 196.58 19.5
2 3 -6 436.76 35.2
-2 -3 6 412.46 34.9
-2 -3 6 397.16 35.7
-2 -3 6 425.76 36.2
1 3 -6 311.57 26.3
-1 -3 6 275.07 26.4
-1 -3 6 301.27 25.7
-1 -3 6 332.87 27.2
0 3 -6 473.35 37.7
0 -3 6 396.96 37.4
0 -3 6 462.25 38.1
0 -3 6 447.86 36.8
-1 3 -6 178.48 15.6
1 -3 6 144.59 14.9
1 -3 6 152.48 15.3
1 -3 6 186.58 15.9
1 -3 6 184.28 14.8
-2 3 -6 5.8 2
2 -3 6 8 2.2
2 -3 6 12.6 2.7
2 -3 6 9.4 1.7
2 -3 6 6.5 2.2
-3 3 -6 83.79 8.3
3 -3 6 72.59 8
3 -3 6 83.89 8.5
3 -3 6 75.09 8
3 -3 6 93.19 7.5
4 -3 6 40 4.8
4 -3 6 42.7 5.1
4 -3 6 42.5 4.9
-5 3 -6 143.59 12.6
5 -3 6 138.09 12.6
5 -3 6 159.78 12.1
5 -3 6 138.09 12.9
5 -3 6 134.09 12.8
6 -3 6 26.1 3.5
6 -3 6 28.5 3.1
6 -3 6 24.3 3.2
6 -3 6 28.5 2.7
7 -3 6 16.7 2.6
7 -3 6 20.3 3
7 -3 6 16.6 2
8 -3 6 1.3 0.6
-8 -2 6 15 2
-8 -2 6 14.4 1.6
-7 -2 6 80.69 8.6
-7 -2 6 96.39 8
6 2 -6 332.57 27.6
-6 -2 6 341.57 28.1
5 2 -6 982 86.79
-5 -2 6 1169.78 88.39
4 2 -6 221.28 20.6
-4 -2 6 270.47 20.7
-4 -2 6 215.98 21.5
3 2 -6 14.9 3.1
-3 -2 6 14 3.9
-3 -2 6 20.5 3.6
2 2 -6 286.37 24
-2 -2 6 224.58 24.3
-2 -2 6 316.67 23.6
-2 -2 6 251.37 23.9
1 2 -6 300.47 28.7
-1 -2 6 335.37 27.8
-1 -2 6 367.46 33.4
0 2 -6 335.77 28.5
0 -2 6 327.77 28.7
0 -2 6 282.57 27.5
0 -2 6 303.67 27.8
0 -2 6 369.66 27.3
-1 2 -6 324.97 28.4
1 -2 6 382.46 30.5
1 -2 6 287.47 27.7
1 -2 6 316.77 27.5
2 -2 6 360.56 31.7
2 -2 6 348.87 31.8
2 -2 6 368.56 32.1
2 -2 6 419.06 31
-3 2 -6 238.28 22.9
3 -2 6 258.37 22.3
3 -2 6 289.07 21.7
3 -2 6 253.47 22.7
3 -2 6 253.87 22.3
-4 2 -6 32.8 4.8
4 -2 6 35.5 4.3
4 -2 6 35.7 4.8
4 -2 6 33.5 4.4
4 -2 6 41.7 3.8
-5 2 -6 0.6 1.1
5 -2 6 1.8 1.3
5 -2 6 2.2 0.8
5 -2 6 5.6 2
5 -2 6 0 0.9
-6 2 -6 84.19 8.4
6 -2 6 84.69 7.9
6 -2 6 79.09 8.3
6 -2 6 82.09 8.1
6 -2 6 94.49 7.4
-7 2 -6 51.29 5.3
7 -2 6 55.39 4.6
7 -2 6 55.79 5.5
7 -2 6 48.6 5.2
7 -2 6 49.5 5
-8 2 -6 14.5 2.3
8 -2 6 14.8 2.1
8 -2 6 11.3 1.5
8 -2 6 8.8 1.9
9 -2 6 17.9 2
9 -2 6 20.9 2
-9 -1 6 164.58 13.3
-8 -1 6 192.58 16.5
-8 -1 6 194.88 16.1
7 1 -6 10.1 1.5
-7 -1 6 7.6 1.5
-7 -1 6 5.9 1.8
6 1 -6 1.4 0.9
-6 -1 6 1.1 1.4
-6 -1 6 0.3 0.7
-6 -1 6 0.4 1.3
5 1 -6 43 5.1
-5 -1 6 41.7 6
-5 -1 6 53.89 5.1
-5 -1 6 30.2 5.5
4 1 -6 779.02 61.59
-4 -1 6 717.93 62.89
-4 -1 6 724.23 62.49
2 1 -6 494.25 43.8
-2 -1 6 524.45 44.7
-2 -1 6 526.55 43.9
1 1 -6 937.71 82.19
-1 -1 6 1036.9 82.69
-1 -1 6 1010.5 81.79
0 1 -6 16.1 4
0 -1 6 24.5 3.3
0 -1 6 22.1 4.6
0 -1 6 18 3.6
-1 1 -6 100.99 11.7
1 -1 6 121.89 11.8
1 -1 6 121.79 11.2
1 -1 6 130.69 11.2
-2 1 -6 680.23 66.39
2 -1 6 768.22 66.09
2 -1 6 870.51 65.69
2 -1 6 889.01 65.79
-3 1 -6 113.39 12.5
-3 1 -6 106.79 21.3
3 -1 6 120.19 12.2
3 -1 6 153.98 11.9
3 -1 6 135.39 11.8
-4 1 -6 382.76 34.7
4 -1 6 459.15 33.6
4 -1 6 376.96 33.6
4 -1 6 381.06 33.9
-5 1 -6 48.3 6.7
5 -1 6 59.89 5.8
5 -1 6 62.59 5.1
5 -1 6 55.49 5.9
5 -1 6 44.1 5.9
-6 1 -6 1.8 1.4
6 -1 6 2.3 1.3
6 -1 6 2.2 0.8
6 -1 6 1.4 1.1
-7 1 -6 1.8 1.3
7 -1 6 -0.6 0.9
7 -1 6 0.5 0.5
7 -1 6 1.5 0.9
7 -1 6 1.3 1
-8 1 -6 28.4 3.3
8 -1 6 25.6 2.8
8 -1 6 25.5 3.2
8 -1 6 23.8 2.9
8 -1 6 25.8 2.4
-9 1 -6 46.7 4.3
9 -1 6 41.4 4
9 -1 6 49.3 4.2
9 -1 6 44.2 4.2
-9 0 6 60.89 5.3
8 0 -6 376.06 27.4
-8 0 6 320.47 27.6
-8 0 6 304.67 28.2
7 0 -6 445.16 35.2
-7 0 6 438.16 35.2
-7 0 6 398.36 35.7
6 0 -6 510.05 40
-6 0 6 437.86 40.5
5 0 -6 104.89 10.3
-5 0 6 95.29 10.8
-5 0 6 103.69 11.6
4 0 -6 28.8 4.6
-4 0 6 32 5.4
-4 0 6 50.59 10.9
3 0 -6 465.65 43.5
-3 0 6 542.85 44.5
-3 0 6 528.45 44.3
2 0 -6 129.49 14.7
-2 0 6 162.28 15.2
-2 0 6 174.18 15.9
1 0 -6 930.31 83.99
-1 0 6 1107.59 84.69
0 0 6 551.04 43.9
0 0 6 469.15 42.6
-1 0 -6 50.19 7.9
-2 0 -6 529.85 41
-2 0 -6 404.16 49.9
-3 0 -6 130.29 22.9
-3 0 -6 129.79 14.4
3 0 6 178.88 13.7
3 0 6 147.69 13.8
-4 0 -6 26.9 9.8
-4 0 -6 34.2 5.4
4 0 6 33.6 4.6
4 0 6 38.1 4.5
4 0 6 40.6 4.3
-5 0 -6 542.65 53.69
5 0 6 672.63 52.39
5 0 6 684.03 52.19
5 0 6 712.13 51.49
5 0 6 560.74 53.69
-6 0 -6 128.49 14.7
6 0 6 168.58 13.7
6 0 6 154.08 12.8
6 0 6 161.88 13.5
-7 0 -6 31.6 4.9
7 0 6 37 3.9
7 0 6 36.2 4.3
7 0 6 34.6 3.4
7 0 6 37.7 4
-8 0 -6 27.1 3.7
8 0 6 19.6 2.8
8 0 6 21.9 2.6
8 0 6 22.6 2.2
8 0 6 22 2.8
-9 0 -6 1.4 1
9 0 6 2.6 0.7
9 0 6 1 0.8
9 0 6 1.1 0.7
-10 0 -6 23.1 2.3
10 0 6 19.1 1.9
10 0 6 15.7 1.8
9 -1 -6 38.8 3.2
-9 1 6 28.1 3
8 -1 -6 8.6 1.5
-8 1 6 6.1 1.2
-8 1 6 6.1 1.2
7 -1 -6 20.1 2.8
-7 1 6 16.2 2.6
-7 1 6 19.4 2.7
6 -1 -6 145.99 14.7
-6 1 6 190.18 14.5
-6 1 6 151.68 14.7
-5 1 6 543.35 45.9
4 -1 -6 618.24 58.09
-4 1 6 710.83 56.29
-3 1 6 835.62 69.29
-3 1 6 806.32 68.69
2 -1 -6 44 10.8
2 -1 -6 56.69 7
1 -1 -6 4.5 3.7
1 -1 -6 -0.8 4.9
1 -1 -6 -0.7 1.9
0 -1 -6 361.56 41.1
0 -1 -6 379.26 37.2
-1 -1 -6 379.96 34.9
-1 -1 -6 377.36 35.3
-2 -1 -6 268.57 24.8
-3 -1 -6 235.88 29.4
3 1 6 295.47 25.7
3 1 6 311.57 25.9
3 1 6 329.37 25.3
-4 -1 -6 23.6 4.6
4 1 6 31.4 3.8
4 1 6 34.3 3.8
4 1 6 26.3 3.9
-5 -1 -6 46.2 7.3
5 1 6 71.19 6.4
5 1 6 69.29 5.6
5 1 6 61.89 6.3
5 1 6 55.39 6.4
6 1 6 178.38 14.4
6 1 6 180.78 14.5
6 1 6 135.09 14.4
-7 -1 -6 70.19 8.8
7 1 6 88.89 7.9
7 1 6 79.79 8
7 1 6 90.79 7.9
7 1 6 88.99 7.3
-8 -1 -6 127.09 12.4
8 1 6 125.59 11.4
8 1 6 136.49 10.9
8 1 6 133.99 11.5
8 1 6 129.69 11.3
-9 -1 -6 73.29 6.9
9 1 6 67.59 6
9 1 6 67.09 6.2
9 1 6 66.79 6.1
-10 -1 -6 25.4 2.8
10 1 6 20.2 2.2
10 1 6 22.3 2.3
-9 2 6 228.88 18.6
8 -2 -6 283.37 21.4
-8 2 6 230.08 21.1
7 -2 -6 92.49 7.9
-7 2 6 69.09 7.2
-7 2 6 84.89 7.6
6 -2 -6 38.4 4.9
-6 2 6 34.5 4.3
-6 2 6 43.2 4.5
5 -2 -6 124.49 12.7
-5 2 6 148.99 12.3
-5 2 6 108.69 12
-4 2 6 362.06 31.1
3 -2 -6 676.83 51.69
3 -2 -6 511.85 59.79
2 -2 -6 355.36 40.4
2 -2 -6 390.96 32
2 -2 -6 302.87 42.5
1 -2 -6 47.6 13.6
1 -2 -6 45.9 11.1
0 -2 -6 50.39 10.7
0 -2 -6 36.8 6.4
0 -2 -6 46.4 12.1
-1 -2 -6 13.6 6
-1 -2 -6 8 3
-1 -2 -6 8.8 4.9
-1 -2 -6 8.5 3.4
-2 -2 -6 183.58 20.5
-2 -2 -6 176.18 22.9
-2 -2 -6 211.38 22.2
-2 -2 -6 139.59 18.4
-3 -2 -6 154.18 21
-3 -2 -6 181.78 18.7
-3 -2 -6 125.59 17.1
5 2 6 336.47 25.6
5 2 6 273.37 25.7
-6 -2 -6 3.6 2
6 2 6 7.9 1.7
6 2 6 6.9 1.8
6 2 6 5.7 1.7
-7 -2 -6 2.2 1.6
7 2 6 4.9 1.3
7 2 6 2.5 1.3
7 2 6 3 1.2
-9 -2 -6 54.09 5.8
9 2 6 50.09 4.9
9 2 6 54.19 4.5
9 2 6 51.69 4.9
-10 -2 -6 6.7 1.6
10 2 6 5.5 1
11 2 6 13.4 1.3
-9 3 6 28.5 2.6
8 -3 -6 43.4 4.1
-8 3 6 36.8 3.8
7 -3 -6 231.68 18.8
-7 3 6 206.98 18.4
6 -3 -6 587.84 49.8
-6 3 6 612.54 49.1
5 -3 -6 139.09 12.8
-5 3 6 120.49 12.2
4 -3 -6 42.5 5.8
-4 3 6 45 5.5
3 -3 -6 5 6.1
3 -3 -6 9.7 2.7
-3 3 6 9.1 1.7
-3 3 6 5.1 2.1
2 -3 -6 151.38 24.3
2 -3 -6 202.18 17.9
1 -3 -6 238.68 21.1
1 -3 -6 201.98 30.1
1 -3 -6 219.48 29.1
0 -3 -6 85.29 18.3
0 -3 -6 110.59 11.6
0 -3 -6 103.19 18.4
0 -3 -6 109.99 17.7
-1 -3 -6 324.37 38.4
-1 -3 -6 403.06 34.8
-1 -3 -6 365.56 32.3
-1 -3 -6 304.87 37.5
-2 -3 -6 79.29 13.3
-2 -3 -6 72.09 14
-2 -3 -6 104.79 12.2
-2 -3 -6 113.79 13.8
-3 -3 -6 49.2 8.6
-3 -3 -6 47.5 8.6
-3 -3 -6 45.2 8.8
-4 -3 -6 22 4.1
-4 -3 -6 14.4 6.9
-4 -3 -6 22.1 6.8
-5 -3 -6 152.28 15
6 3 6 536.05 43.3
7 3 6 126.49 10.6
7 3 6 111.89 10.2
7 3 6 109.99 9.7
-8 -3 -6 76.49 9
8 3 6 97.79 8.2
8 3 6 89.49 8.1
-9 -3 -6 6.8 1.9
9 3 6 9.1 1.7
9 3 6 9.2 1.6
10 3 6 22.8 2.4
-11 -3 -6 64.79 5.3
11 3 6 50.79 4.8
-9 4 6 33.1 2.9
8 -4 -6 0.2 0.7
-8 4 6 0.2 0.5
7 -4 -6 53.39 5.1
-7 4 6 48.2 4.9
-6 4 6 126.79 11.6
5 -4 -6 448.76 36.9
-5 4 6 425.46 36.8
-4 4 6 831.82 71.69
3 -4 -6 235.48 20.7
3 -4 -6 209.18 31
2 -4 -6 14.4 8.9
-2 4 6 26.2 3.8
-2 4 6 25.2 2.9
1 -4 -6 3.2 3.1
1 -4 -6 3.3 3.7
0 -4 -6 362.66 42.5
-1 -4 -6 784.62 62.49
-1 -4 -6 582.74 64.19
-2 -4 -6 288.97 27.1
-2 -4 -6 302.77 30.8
-3 -4 -6 268.67 25.8
-3 -4 -6 246.28 28
-4 -4 -6 48.5 11.3
-4 -4 -6 61.19 9.7
-5 -4 -6 -2.4 4.1
-5 -4 -6 3.6 3
5 4 6 4 0.9
5 4 6 5.7 1.6
5 4 6 5.7 1.5
6 4 6 211.48 18.9
6 4 6 258.37 21.9
6 4 6 233.38 19.5
7 4 6 135.39 12
7 4 6 158.58 12.8
7 4 6 140.49 12.5
8 4 6 209.48 19.2
8 4 6 236.58 18.8
-9 -4 -6 50.19 5.5
9 4 6 53.59 4.9
9 4 6 49.6 4.2
9 4 6 44.6 4.7
-10 -4 -6 6.6 1.5
10 4 6 4.9 1.1
10 4 6 6.9 1.1
-11 -4 -6 12.7 1.7
11 4 6 9.4 1.2
8 -5 -6 152.18 12.1
-8 5 6 137.19 12
7 -5 -6 46.1 4.4
-7 5 6 46.9 4.5
6 -5 -6 3.9 1.2
-6 5 6 2.3 0.9
-6 5 6 2.6 1
5 -5 -6 13 2.3
-5 5 6 14.3 2.6
-5 5 6 13.6 2.2
-4 5 6 209.48 17.5
-4 5 6 201.28 18.4
-3 5 6 232.78 20.2
-3 5 6 248.78 21.5
2 -5 -6 308.87 26.1
2 -5 -6 256.77 37.9
2 -5 -6 315.57 35.9
-1 5 6 325.07 29
-1 5 6 343.57 27.6
0 -5 -6 45.6 12.1
-1 -5 -6 101.09 14.7
2 5 6 200.98 17
2 5 6 186.38 17.6
3 5 6 473.15 39.2
4 5 6 512.25 40.1
4 5 6 550.74 40.4
4 5 6 406.36 39.5
5 5 6 412.96 38.2
5 5 6 515.35 39
5 5 6 493.25 39
6 5 6 88.19 7.9
6 5 6 72.49 7.5
6 5 6 89.99 7.8
-7 -5 -6 6.8 2
7 5 6 8.8 1.8
7 5 6 8.8 2
7 5 6 8.8 1.2
-8 -5 -6 5.8 1.7
8 5 6 8 1.6
8 5 6 5.1 1
8 5 6 5.6 1.4
-9 -5 -6 33.2 4
9 5 6 38.4 3.6
9 5 6 32.2 3.4
9 5 6 33.1 3
-10 -5 -6 68.89 6.1
10 5 6 68.79 5.8
10 5 6 57.59 6
-11 -5 -6 26.5 2.4
11 5 6 21.8 2.2
-8 6 6 65.89 5.8
7 -6 -6 38.7 3.9
-7 6 6 48.4 4.4
6 -6 -6 131.19 11.8
-6 6 6 138.29 12
-6 6 6 146.19 11.9
5 -6 -6 336.47 29.6
-5 6 6 373.36 30.2
-5 6 6 366.76 29.9
4 -6 -6 57.89 6.2
-4 6 6 67.69 6.2
-4 6 6 67.09 6.9
-3 6 6 253.97 22.2
-3 6 6 251.57 21.2
-2 6 6 9.6 1.6
-2 6 6 9.2 2.5
-2 6 6 12.6 5
1 -6 -6 1001.5 97.89
-1 6 6 1101.89 91.19
-1 6 6 1102.29 89.79
-1 6 6 1225.38 90.59
0 -6 -6 1897.11 169.18
0 6 6 1918.31 162.38
0 6 6 2139.49 162.08
0 6 6 2047.3 160.98
-1 -6 -6 109.29 17.1
1 6 6 132.79 11.3
1 6 6 140.59 12.1
1 6 6 127.49 12.6
2 6 6 483.05 38.5
2 6 6 466.85 39.2
2 6 6 459.85 39.7
-3 -6 -6 2.4 4.5
3 6 6 3.7 1.8
3 6 6 1.3 0.9
3 6 6 1.8 1.2
4 6 6 162.78 14.6
4 6 6 166.28 14
5 6 6 602.14 45.7
5 6 6 540.45 45.1
5 6 6 524.85 45.3
6 6 6 226.58 20.4
6 6 6 286.77 21.2
6 6 6 238.78 20.9
-7 -6 -6 249.68 23.7
7 6 6 299.77 23.1
7 6 6 258.77 22.5
7 6 6 297.37 23.1
-8 -6 -6 135.19 12.2
8 6 6 145.09 11.7
8 6 6 141.59 11.7
8 6 6 122.49 11.2
-9 -6 -6 0.7 1.1
9 6 6 0.6 0.6
9 6 6 0.7 0.3
9 6 6 1 1
-10 -6 -6 31.8 3.1
10 6 6 29.3 2.8
-7 7 6 44.2 3.9
6 -7 -6 21.3 2.4
-6 7 6 24.3 2.6
-6 7 6 24.7 2.6
5 -7 -6 154.48 13.9
-5 7 6 169.38 14.3
-5 7 6 172.48 14.1
4 -7 -6 239.08 20
-3 7 6 144.19 12.5
-3 7 6 142.79 13.3
-2 7 6 15.9 2.7
-2 7 6 13.4 2.1
-2 7 6 13.1 2.9
-1 7 6 210.78 19
-1 7 6 210.88 17.8
0 7 6 325.07 31.8
0 7 6 362.36 29.5
0 7 6 383.36 30.3
1 7 6 451.75 38.4
1 7 6 440.56 39.5
1 7 6 518.95 39.4
2 7 6 352.96 30.9
2 7 6 370.86 29.9
2 7 6 360.76 30.6
3 7 6 514.15 44.4
3 7 6 549.15 43.2
3 7 6 518.55 44
4 7 6 38 4.4
4 7 6 35.5 3.9
5 7 6 103.89 9.4
5 7 6 96.69 8.9
6 7 6 132.29 10.3
6 7 6 104.29 9.8
6 7 6 106.59 9.7
7 7 6 43.9 4.2
7 7 6 47.2 4.5
7 7 6 48.4 4.6
-8 -7 -6 50.39 5.8
8 7 6 51.79 4.7
8 7 6 53.39 4.8
8 7 6 47.9 4.4
-9 -7 -6 51.29 4.5
9 7 6 44.9 4.3
9 7 6 48.1 4.2
-10 -7 -6 21.8 2.4
10 7 6 19.6 1.8
6 -8 -6 20.8 2.1
-6 8 6 19.6 2.1
-6 8 6 21.1 2.1
-5 8 6 10.7 1.6
-5 8 6 9.5 1.5
-4 8 6 27.8 3.3
-4 8 6 27.1 3
-3 8 6 38.9 4.4
-3 8 6 36.2 3.9
-3 8 6 39 4
-2 8 6 528.65 43.5
-2 8 6 537.75 44.3
-1 8 6 223.98 18.8
-1 8 6 225.38 19.9
0 8 6 98.99 9.9
0 8 6 102.49 9
1 8 6 36.8 4.6
1 8 6 39 4.6
1 8 6 36.3 3.8
2 8 6 7.1 2
2 8 6 7.1 2.1
2 8 6 3.8 1
3 8 6 359.96 30.1
3 8 6 371.56 30.6
3 8 6 362.16 30.6
4 8 6 523.45 42.9
4 8 6 517.15 42.5
5 8 6 217.68 18.2
5 8 6 206.38 17.8
6 8 6 96.59 8.7
6 8 6 97.09 8.4
7 8 6 1.9 0.6
7 8 6 1.9 0.8
8 8 6 0.5 0.3
8 8 6 0.8 0.5
9 8 6 67.09 5.6
-5 9 6 117.99 9.6
-5 9 6 112.99 9.7
-4 9 6 20 2.4
-3 9 6 48.4 4.6
-3 9 6 50.09 4.6
-3 9 6 48.8 4.9
-2 9 6 39.7 4.2
-2 9 6 47.2 4.5
-2 9 6 44 4.7
-1 9 6 52.19 4.9
-1 9 6 44.1 4.9
-1 9 6 41.9 4.4
1 9 6 277.47 24.6
1 9 6 303.87 24.6
1 9 6 291.17 24.1
2 9 6 28.2 3.1
2 9 6 27.1 3.6
3 9 6 39.8 4.2
3 9 6 43.4 5.3
4 9 6 6.5 1.3
4 9 6 9.2 1.8
5 9 6 89.19 8
5 9 6 94.59 8.3
6 9 6 162.58 13.5
6 9 6 156.38 13.2
7 9 6 61.69 5.2
8 9 6 29.9 2.7
-4 10 6 5 0.9
-3 10 6 159.48 12.6
-3 10 6 147.69 12.6
-3 10 6 150.28 12.8
-2 10 6 79.09 6.9
-2 10 6 77.99 7
-1 10 6 14.9 1.9
-1 10 6 17.7 2.2
-1 10 6 15.1 2.1
0 10 6 6.8 1.2
0 10 6 7.1 1.5
0 10 6 7.1 1.5
1 10 6 115.09 10.1
1 10 6 117.59 9.9
1 10 6 106.79 9.6
2 10 6 310.47 25.9
2 10 6 331.37 26
2 10 6 305.97 26.2
3 10 6 76.89 6.5
3 10 6 68.19 6.7
4 10 6 7.1 1.2
4 10 6 8.3 1.6
5 10 6 16.1 1.9
5 10 6 12.9 1.9
6 10 6 12.5 1.4
6 10 6 9 1
7 10 6 24.1 2.2
-2 11 6 26 2.6
-2 11 6 29.6 2.5
-2 11 6 30.2 2.7
-1 11 6 27.1 2.4
-1 11 6 25.4 2.5
-1 11 6 25.3 2.5
0 11 6 36.2 3.2
0 11 6 35.9 3.4
0 11 6 33.6 3.3
1 11 6 1.2 0.5
1 11 6 0.4 0.7
1 11 6 0.8 0.5
2 11 6 0.7 0.6
2 11 6 0.8 0.4
3 11 6 2.6 0.8
3 11 6 2.3 0.6
4 11 6 111.39 9.9
4 11 6 125.89 9.8
5 11 6 88.59 7.4
6 11 6 33.2 2.9
2 12 6 15.4 1.5
0 -6 7 29.6 3
-4 -5 7 136.99 11.6
-3 -5 7 93.09 8.6
-3 -5 7 97.79 8.5
-2 -5 7 44.8 4.6
-2 -5 7 45 4.6
-1 -5 7 14.5 2.5
-1 -5 7 19 2.6
0 -5 7 59.79 5.9
0 -5 7 60.49 5.9
1 -5 7 40.3 4.4
1 -5 7 41.6 4.3
2 -5 7 53.39 5.2
2 -5 7 53.49 5.1
3 -5 7 43.5 4.2
3 -5 7 41.9 4.1
4 -5 7 1.5 0.7
-6 -4 7 5.3 0.9
-5 -4 7 0.4 0.7
-4 -4 7 130.69 11.9
-4 -4 7 135.09 11.8
-3 -4 7 105.29 9.9
-2 -4 7 10.4 2.4
-2 -4 7 8.3 2
-1 -4 7 115.69 11.2
-1 -4 7 122.69 11.2
0 -4 7 104.89 10.1
0 -4 7 108.09 10.1
1 -4 7 25 3.5
1 -4 7 20.1 3.3
2 -4 7 0.8 1.2
2 -4 7 1.1 1.2
3 -4 7 5.5 1.6
3 -4 7 4.6 1.7
4 -4 7 118.09 10.3
5 -4 7 12.2 1.9
5 -4 7 13.8 1.8
6 -4 7 10.2 1.4
-7 -3 7 182.68 15
-6 -3 7 181.68 15.4
-5 -3 7 149.39 11.8
-5 -3 7 134.19 13
-5 -3 7 149.49 13.1
-4 -3 7 139.79 13.6
-4 -3 7 158.28 13.8
-3 -3 7 65.39 5.9
-3 -3 7 62.19 7
-3 -3 7 70.09 7.3
2 3 -7 220.38 18.7
-2 -3 7 228.28 18.2
-2 -3 7 233.08 19.7
-2 -3 7 194.28 19.3
1 3 -7 596.34 45
-1 -3 7 494.65 45.2
-1 -3 7 524.15 45.4
-1 -3 7 557.94 44.1
0 3 -7 201.18 16.7
0 -3 7 191.48 18.9
0 -3 7 188.78 18.3
0 -3 7 176.98 15.6
-1 3 -7 229.18 18.7
1 -3 7 184.58 19.1
1 -3 7 226.88 19.4
-2 3 -7 52.69 5.4
2 -3 7 47.7 5.1
2 -3 7 49.6 5.7
2 -3 7 44.4 5.3
3 -3 7 5.1 1.7
3 -3 7 3.5 1.3
3 -3 7 3.9 1.2
4 -3 7 20.3 2.8
4 -3 7 21.5 2.9
4 -3 7 22.3 3.2
5 -3 7 22 2.9
5 -3 7 22.1 3.1
5 -3 7 24.8 2.8
6 -3 7 4.1 1
6 -3 7 5.2 1.1
6 -3 7 6.3 1.4
7 -3 7 32.4 3.2
7 -3 7 34.3 3.2
-7 -2 7 1.4 0.7
-6 -2 7 154.18 12.6
-6 -2 7 154.88 15
-5 -2 7 162.48 16.4
-5 -2 7 210.18 15.3
-5 -2 7 171.18 16.5
4 2 -7 294.07 23.4
-4 -2 7 238.18 24.1
-4 -2 7 310.37 22.9
-4 -2 7 251.37 24.1
3 2 -7 24.8 4.8
-3 -2 7 30.3 5.3
-3 -2 7 32 6.5
-3 -2 7 38.4 3.8
2 2 -7 23.1 3.8
-2 -2 7 24.9 3
-2 -2 7 22.2 4
-2 -2 7 23 4.3
1 2 -7 15.3 3.3
-1 -2 7 20 3.8
-1 -2 7 18.4 3.3
-1 -2 7 20 2.6
0 2 -7 38 5
0 -2 7 31.2 4.4
0 -2 7 32.9 4.8
-1 2 -7 91.99 8.9
1 -2 7 83.59 8.3
1 -2 7 70.09 7.7
1 -2 7 84.49 8.7
-2 2 -7 137.89 12.8
2 -2 7 129.89 11.9
2 -2 7 125.49 12.1
2 -2 7 139.29 12.6
-3 2 -7 171.28 14.7
3 -2 7 153.38 13.9
3 -2 7 152.08 14.3
3 -2 7 154.28 14
-4 2 -7 90.09 9.1
-5 2 -7 9.6 2.1
5 -2 7 10.1 2.3
5 -2 7 8 1.7
5 -2 7 6.5 1.7
-6 2 -7 25.1 3.1
6 -2 7 22 2.7
6 -2 7 21.8 2.9
6 -2 7 22.9 3
-7 2 -7 9.2 1.9
7 -2 7 5.7 1.1
7 -2 7 8.2 1.6
8 -2 7 11.3 1.7
8 -2 7 7.5 1.2
8 -2 7 7.3 1
7 1 -7 174.48 14.1
-7 -1 7 163.28 13.6
-7 -1 7 167.08 14.3
6 1 -7 220.78 17.1
-6 -1 7 201.88 16.7
-6 -1 7 184.18 17.7
5 1 -7 53.29 5.6
-5 -1 7 58.89 5.1
-5 -1 7 47.1 6.2
-5 -1 7 47.1 6.3
4 1 -7 9.8 2.5
-4 -1 7 8.2 2.6
-4 -1 7 7.8 2.5
3 1 -7 439.26 35.4
-3 -1 7 423.56 35.6
-3 -1 7 368.36 35.3
2 1 -7 1078.79 85.39
-2 -1 7 1015.3 85.19
-2 -1 7 1003.3 84.89
1 1 -7 356.96 31
-1 -1 7 352.76 30.4
-1 -1 7 351.86 30.9
0 1 -7 115.29 11.9
0 -1 7 123.99 11.4
0 -1 7 114.19 11.7
-1 1 -7 150.48 14.4
1 -1 7 156.28 13.6
1 -1 7 144.89 13.2
1 -1 7 143.59 14
-2 1 -7 161.28 15.8
2 -1 7 186.48 15.1
2 -1 7 167.58 14.7
2 -1 7 154.18 15.3
-3 1 -7 161.88 15.5
3 -1 7 168.18 14.4
3 -1 7 171.08 14.5
3 -1 7 148.49 14.7
-4 1 -7 48.4 6.1
4 -1 7 48.3 5.2
4 -1 7 48.7 5.1
4 -1 7 46 5.6
-5 1 -7 103.39 10.1
5 -1 7 102.49 9.1
5 -1 7 102.59 9.3
5 -1 7 89.39 9.4
-6 1 -7 139.79 12.4
6 -1 7 130.09 11.6
6 -1 7 127.59 11.9
6 -1 7 133.69 11.7
-7 1 -7 37.8 3.9
7 -1 7 28.1 3.4
7 -1 7 28.6 3.3
7 -1 7 33.9 3.7
-8 1 -7 31.3 3.1
8 -1 7 25.6 2.7
8 -1 7 28.2 2.9
8 -1 7 24.3 2.8
9 -1 7 2.1 0.4
9 -1 7 2 0.6
8 0 -7 136.89 11.2
-7 0 7 116.69 10.4
-7 0 7 121.39 9.9
6 0 -7 437.66 33.7
-6 0 7 411.76 32.9
-6 0 7 362.96 33.7
5 0 -7 235.48 23
-5 0 7 291.57 21.5
-5 0 7 251.47 23.3
-5 0 7 240.58 23.3
4 0 -7 7.2 2.3
-4 0 7 8.7 1.6
-4 0 7 9.8 3
-4 0 7 15.5 3
3 0 -7 170.78 17
-3 0 7 193.18 17.6
2 0 -7 180.98 19.7
-2 0 7 219.08 18.5
-2 0 7 233.38 20
-2 0 7 225.88 20
1 0 -7 488.35 48.4
-1 0 7 610.34 48.1
-1 0 7 614.64 48.4
0 0 7 267.37 23.1
0 0 7 260.37 23.5
1 0 7 239.28 21.8
1 0 7 266.77 23
1 0 7 271.77 22.4
2 0 7 250.07 24.4
2 0 7 309.47 24.2
2 0 7 289.17 24
-3 0 -7 5.7 2.2
3 0 7 9.3 2
3 0 7 10.7 3.4
3 0 7 10.3 2.8
-4 0 -7 1.6 1.8
4 0 7 1.8 1.1
4 0 7 1.2 1.3
4 0 7 4.7 1.5
-5 0 -7 303.87 27.4
5 0 7 312.67 25.9
5 0 7 312.77 26.1
-6 0 -7 40.9 5.2
6 0 7 37.3 4
6 0 7 36.7 4.2
6 0 7 32.7 4.3
-7 0 -7 7.2 2.1
7 0 7 7.2 1.6
7 0 7 4.3 1.3
7 0 7 7.9 1.5
-8 0 -7 38.9 4.1
8 0 7 32 3.3
8 0 7 32.5 3.4
8 0 7 33.3 3.7
-9 0 -7 3.4 0.9
9 0 7 3.5 0.8
9 0 7 2.5 0.6
-8 1 7 43.9 3.7
7 -1 -7 6.2 1.4
-7 1 7 5.7 1.2
-7 1 7 5.7 1.3
6 -1 -7 70.29 6.9
-6 1 7 53.39 6.1
-6 1 7 65.79 5.8
5 -1 -7 254.67 24.9
-5 1 7 319.47 23.7
-5 1 7 252.97 24.4
-5 1 7 311.57 25.9
-4 1 7 662.83 57.59
-4 1 7 620.94 56.49
-4 1 7 749.23 55.29
-3 1 7 409.26 36.9
-3 1 7 415.96 38
-3 1 7 463.25 35.3
-2 1 7 246.08 22.9
-2 1 7 269.57 23.6
1 -1 -7 3.6 5.3
1 -1 -7 8.3 2.7
-1 1 7 16.4 3.5
0 -1 -7 4.4 2.1
0 -1 -7 8.5 7.8
0 1 7 5.8 2.6
-1 -1 -7 92.59 10.2
-2 -1 -7 462.05 39.7
3 1 7 721.23 56.59
3 1 7 629.14 56.89
3 1 7 725.93 56.69
4 1 7 31.8 4.1
-5 -1 -7 195.28 19.1
5 1 7 222.58 17.6
5 1 7 218.48 17.4
5 1 7 174.08 17.6
-6 -1 -7 0.3 1.2
6 1 7 1.8 1.1
6 1 7 1.1 1.1
6 1 7 3 1.3
-7 -1 -7 39.3 5.1
7 1 7 38.5 4
7 1 7 34.6 4
7 1 7 38.5 4
-8 -1 -7 81.89 7.9
8 1 7 77.49 6.9
8 1 7 74.29 6.9
9 1 7 17 2.5
9 1 7 14.8 1.9
-10 -1 -7 19.9 2.2
10 1 7 18.9 1.8
10 1 7 18.3 1.9
-8 2 7 66.99 5.7
7 -2 -7 251.57 19
-7 2 7 196.08 18.2
-6 2 7 198.78 16.6
5 -2 -7 1.1 1.5
-5 2 7 1.2 1
-5 2 7 2.9 1
4 -2 -7 12.7 3.5
-4 2 7 14.5 2.8
-4 2 7 9.2 2.3
-3 2 7 363.46 32.4
-3 2 7 352.26 30.9
-3 2 7 439.76 34
1 -2 -7 162.88 24.5
1 -2 -7 209.38 18.8
0 -2 -7 80.39 15.4
0 -2 -7 122.59 11.7
-1 -2 -7 0.7 2.5
-1 -2 -7 5.7 5
-1 -2 -7 5.1 4.9
-1 -2 -7 4.8 2.1
1 2 7 3.6 1.9
-2 -2 -7 19.4 8.7
-2 -2 -7 35.5 5
-3 -2 -7 98.99 10.6
4 2 7 340.17 30.7
4 2 7 370.66 30.6
4 2 7 389.86 30.5
5 2 7 115.59 11.5
5 2 7 125.99 11.4
5 2 7 144.59 11.6
-6 -2 -7 85.89 10.8
6 2 7 115.09 9.7
6 2 7 103.39 9.6
6 2 7 117.19 9.7
7 2 7 8.5 1.8
7 2 7 11.8 2
-8 -2 -7 0.2 1.2
8 2 7 0.5 0.7
8 2 7 0.8 0.8
-9 -2 -7 75.29 6.7
9 2 7 63.89 5.9
9 2 7 60.69 5.8
-10 -2 -7 3.9 1
10 2 7 4.4 0.8
10 2 7 6.1 0.9
-8 3 7 56.29 4.9
7 -3 -7 378.56 28
-7 3 7 293.57 27.2
6 -3 -7 139.39 12.2
-6 3 7 119.49 10.9
5 -3 -7 288.57 24.7
-5 3 7 230.18 23.6
-5 3 7 310.27 23
-4 3 7 134.19 12.5
-4 3 7 131.09 11.3
-3 3 7 4 2.5
-3 3 7 5.2 1.1
2 -3 -7 15.7 7.9
2 -3 -7 25.1 4.5
2 -3 -7 -6 16.3
1 -3 -7 77.79 8.8
1 -3 -7 63.79 14.6
0 -3 -7 211.88 20.9
0 -3 -7 195.98 28
0 -3 -7 248.88 29.6
-1 -3 -7 209.78 19.8
-2 -3 -7 197.78 22.1
-3 -3 -7 200.18 18.8
-4 -3 -7 29.5 4.7
5 3 7 283.27 23.2
5 3 7 243.28 21.9
6 3 7 83.89 8
6 3 7 92.59 8.3
7 3 7 198.48 16.3
7 3 7 182.28 16.1
-8 -3 -7 26.3 4
8 3 7 29.3 3.2
8 3 7 27 3.1
-9 -3 -7 34.8 4.1
9 3 7 32.4 3.3
9 3 7 31.3 3.3
-10 -3 -7 5.5 1.4
10 3 7 5 0.9
10 3 7 4.8 0.9
8 -4 -7 44.4 4.1
7 -4 -7 28 3.2
-7 4 7 30.6 3.2
6 -4 -7 25.8 3.4
-6 4 7 25.6 3.1
-6 4 7 26 2.7
5 -4 -7 88.59 9.2
-5 4 7 91.49 10.4
-5 4 7 98.79 8.3
4 -4 -7 318.87 32.1
-4 4 7 430.56 30.9
-4 4 7 371.96 32
-3 4 7 429.76 33.2
-3 4 7 380.46 34.4
2 -4 -7 120.19 12.2
1 -4 -7 20.1 4.2
1 -4 -7 11.1 12.6
0 -4 -7 4.9 5.9
0 -4 -7 8.2 7.4
0 -4 -7 3.7 2
0 -4 -7 1 6.8
-1 -4 -7 37 10.3
-1 -4 -7 43.7 12.1
-2 -4 -7 121.59 17.3
-2 -4 -7 163.48 14.6
-3 -4 -7 148.79 17.3
-3 -4 -7 154.78 19.4
-4 -4 -7 141.69 13.8
-5 -4 -7 22.9 4.2
5 4 7 28.9 3.3
-6 -4 -7 1.2 1.4
6 4 7 1.3 1
-7 -4 -7 4.5 2.3
7 4 7 7.3 1.6
7 4 7 5.4 1.3
-8 -4 -7 141.19 14
8 4 7 169.48 13.2
8 4 7 147.99 13
-9 -4 -7 30.4 3.8
9 4 7 30.6 3.1
9 4 7 30.7 3.1
-10 -4 -7 5.1 1.2
10 4 7 2.7 0.6
10 4 7 4.3 0.8
8 -5 -7 117.79 9.8
7 -5 -7 106.99 9
-7 5 7 101.59 8.7
6 -5 -7 110.69 9.6
-6 5 7 113.89 9.3
-6 5 7 100.09 9.6
5 -5 -7 7.6 1.8
-5 5 7 6.6 1.7
4 -5 -7 3 1.7
-4 5 7 7.3 2.1
-4 5 7 6.3 1.3
-3 5 7 268.37 21.8
-3 5 7 256.97 23
-2 5 7 488.75 37.2
-2 5 7 411.96 41
1 -5 -7 228.58 20.6
0 -5 -7 173.48 22.2
-1 -5 -7 62.29 11.2
-2 -5 -7 17.7 5.5
2 5 7 25.7 3.2
-3 -5 -7 66.49 12.3
4 5 7 465.05 40.9
4 5 7 500.15 40.8
4 5 7 529.45 41.4
5 5 7 317.57 27
5 5 7 333.67 27.6
6 5 7 190.28 17.1
6 5 7 214.88 17.3
7 5 7 70.29 6.4
7 5 7 63.29 6.3
-8 -5 -7 3.9 1.5
8 5 7 4.6 1.2
8 5 7 5.5 1.2
-9 -5 -7 31.4 3.9
9 5 7 26.2 2.9
9 5 7 29 2.9
-10 -5 -7 25.8 2.6
10 5 7 18.6 2.4
10 5 7 23.3 2.2
7 -6 -7 21.4 2.1
-7 6 7 16.9 1.9
-6 6 7 105.09 8.9
-6 6 7 102.69 9.1
5 -6 -7 196.68 16.6
-5 6 7 194.98 16.9
-4 6 7 8.7 2.2
-3 6 7 301.27 26.1
-3 6 7 303.97 24.9
-2 6 7 7.4 2.3
-2 6 7 4.2 1
-1 6 7 380.06 34.1
-1 6 7 439.76 33.3
-1 6 7 384.36 32.6
0 6 7 411.16 35.9
0 6 7 435.26 35.2
1 6 7 341.37 29.6
1 6 7 351.06 29
2 6 7 554.34 46.8
2 6 7 572.44 46.4
3 6 7 12.2 2.8
3 6 7 14.7 2.4
4 6 7 2.1 1.6
4 6 7 6.4 1.8
5 6 7 49 5
5 6 7 53.59 5.3
-6 -6 -7 79.69 8.6
6 6 7 91.39 7.8
6 6 7 83.39 7.8
-7 -6 -7 106.69 10.4
7 6 7 111.29 9.7
7 6 7 111.79 9.6
-8 -6 -7 15.9 2.4
8 6 7 13.1 1.9
8 6 7 14.5 1.9
-9 -6 -7 13.1 1.9
9 6 7 13.7 1.6
9 6 7 13.3 1.7
-10 -6 -7 7.3 1.1
10 6 7 8.6 1
10 6 7 6.2 0.8
7 -7 -7 -0.2 0.3
6 -7 -7 2.3 0.7
-6 7 7 3.5 0.6
-6 7 7 3.8 0.8
5 -7 -7 135.29 11.6
-5 7 7 133.19 11
-5 7 7 125.09 11.4
4 -7 -7 92.69 8.4
-4 7 7 98.39 8.3
-4 7 7 94.29 8.9
-3 7 7 157.08 14.5
-3 7 7 175.58 15
-2 7 7 184.98 17.3
-2 7 7 202.88 16.2
-1 7 7 92.19 7.8
-1 7 7 70.99 8.2
-1 7 7 81.39 7.1
0 7 7 68.69 6.2
0 7 7 75.19 7
0 7 7 69.39 7.5
1 7 7 7.8 1.9
1 7 7 7.8 2.2
2 7 7 497.55 41.5
2 7 7 505.55 41.9
3 7 7 585.64 47.6
3 7 7 563.54 47.3
4 7 7 153.68 13.6
4 7 7 148.29 13.4
5 7 7 317.77 26.5
6 7 7 2.1 0.9
6 7 7 1 0.9
7 7 7 4 1.1
7 7 7 2.1 0.8
-8 -7 -7 141.39 11.9
8 7 7 133.49 11.5
8 7 7 134.29 11.5
-9 -7 -7 69.89 5.8
9 7 7 62.39 5.5
9 7 7 61.59 5.4
-6 8 7 36 3.2
-5 8 7 32.6 2.9
-5 8 7 30.2 3.1
-4 8 7 5.7 1.3
-4 8 7 8.4 1.1
-3 8 7 3.4 1.3
-3 8 7 4.2 0.9
-2 8 7 285.97 22.7
-2 8 7 247.78 23.4
-2 8 7 281.07 22.4
-1 8 7 569.44 50.79
-1 8 7 655.53 50.49
-1 8 7 623.74 49.8
0 8 7 137.99 11.6
0 8 7 125.69 12.5
0 8 7 150.28 12.4
1 8 7 57.89 5.8
1 8 7 53.59 5
1 8 7 53.09 5.8
2 8 7 0.8 0.9
2 8 7 2.2 1.3
2 8 7 2.9 0.7
3 8 7 204.78 18.5
3 8 7 220.48 17.7
3 8 7 220.28 18.7
4 8 7 121.39 10.4
4 8 7 132.29 11.4
5 8 7 10.5 1.3
6 8 7 213.88 17.9
7 8 7 3.5 1
8 8 7 20.5 2.2
9 8 7 5.2 0.7
-5 9 7 26.2 2.5
-4 9 7 21.4 1.9
-4 9 7 19.9 2.3
-3 9 7 4.1 1.1
-2 9 7 24.3 2.5
-2 9 7 23.4 3
-2 9 7 26.4 3.3
-1 9 7 21.4 2.5
-1 9 7 16.5 2.6
-1 9 7 18.8 2.1
0 9 7 18.6 2.5
0 9 7 14.1 2.3
0 9 7 13.9 1.8
1 9 7 192.48 15.8
1 9 7 181.58 15.1
1 9 7 175.38 15.8
2 9 7 89.19 8.3
2 9 7 90.59 8.4
2 9 7 90.79 7.7
3 9 7 110.09 10.2
3 9 7 116.69 10
3 9 7 114.49 9.6
4 9 7 13.2 1.5
4 9 7 13 2.1
5 9 7 22.8 2.7
6 9 7 55.89 5.1
7 9 7 117.49 9.8
8 9 7 6.9 0.9
-4 10 7 48.2 4.7
-3 10 7 56.89 5.1
-2 10 7 114.89 8.9
-2 10 7 104.69 9.3
-2 10 7 105.59 9.5
-1 10 7 32.1 3.4
-1 10 7 33.9 3
-1 10 7 35.7 3.4
0 10 7 0.7 0.7
0 10 7 0.8 0.6
1 10 7 36.4 3.7
1 10 7 37.5 3.4
1 10 7 37 3.8
2 10 7 82.39 7.3
2 10 7 76.89 7.1
2 10 7 80.89 6.8
3 10 7 114.29 9.4
3 10 7 108.49 9.7
4 10 7 111.29 9.6
5 10 7 5.9 1.2
6 10 7 6.9 1
7 10 7 5.4 0.7
-2 11 7 4.7 0.9
-1 11 7 32.4 2.9
-1 11 7 33.3 3
0 11 7 35.1 3
0 11 7 29 2.9
1 11 7 12.7 1.5
1 11 7 16.9 1.7
2 11 7 1.6 0.7
3 11 7 2 0.6
4 11 7 27.7 2.6
5 11 7 29.9 2.7
6 11 7 31.4 2.7
-4 -4 8 6 1
-3 -4 8 31 3.3
-3 -4 8 30.2 3.1
-2 -4 8 19.6 2.5
-2 -4 8 23 2.7
-1 -4 8 49.2 4.9
-1 -4 8 49 4.9
0 -4 8 68.19 6.3
0 -4 8 63.59 6.2
1 -4 8 26.4 3.1
1 -4 8 26.1 3.1
2 -4 8 3.1 1
2 -4 8 3.9 1.1
3 -4 8 19.8 2.5
3 -4 8 23.6 2.8
4 -4 8 8.9 1.4
4 -4 8 9 1.3
-5 -3 8 108.19 9.2
-4 -3 8 56.99 5.5
-4 -3 8 57.19 5.6
-3 -3 8 14.4 3.5
-3 -3 8 23.6 4.3
-2 -3 8 0.6 0.9
-2 -3 8 3.5 1.3
-1 -3 8 60.89 6.3
-1 -3 8 63.79 6.4
0 -3 8 57.69 6.1
0 -3 8 59.49 6.1
1 -3 8 78.49 7.5
1 -3 8 73.69 7.4
2 -3 8 39 4.3
2 -3 8 37.8 4.4
3 -3 8 3.8 1.3
3 -3 8 3.5 1.2
4 -3 8 4.7 1.2
4 -3 8 3.7 1.1
5 -3 8 1.7 0.8
5 -3 8 1.8 0.7
6 -3 8 21.1 2
6 -3 8 16.3 1.9
-6 -2 8 1 0.5
-5 -2 8 61.89 5.8
-5 -2 8 52.79 5.4
4 2 -8 107.99 9.6
-4 -2 8 119.99 10.7
-4 -2 8 115.79 10.4
3 2 -8 172.68 14.4
-3 -2 8 135.69 13.3
-3 -2 8 140.09 13.4
2 2 -8 195.48 15.8
-2 -2 8 166.28 15.9
-2 -2 8 171.98 15.9
1 2 -8 101.29 9.2
-1 -2 8 84.39 9
-1 -2 8 92.49 9.1
0 -2 8 15.1 2.9
0 -2 8 10.3 2.3
-1 2 -8 3.5 1.7
1 -2 8 5 1.9
1 -2 8 5.4 1.8
-2 2 -8 74.39 7
2 -2 8 55.29 5.9
2 -2 8 62.49 6.6
2 -2 8 61.49 6.3
-3 2 -8 83.09 7.6
3 -2 8 72.59 7.3
3 -2 8 67.09 6.8
3 -2 8 71.89 7
-4 2 -8 72.39 6.6
4 -2 8 61.89 6
4 -2 8 63.79 6.1
4 -2 8 57.49 6.3
-5 2 -8 10.5 1.9
5 -2 8 9.2 1.9
5 -2 8 7.5 1.5
5 -2 8 5.3 1.2
6 -2 8 4.9 1
6 -2 8 4.9 1.1
6 -2 8 4.9 1.1
7 -2 8 8 1.1
7 -2 8 9.9 1.2
7 -2 8 7.1 1
6 1 -8 89.99 6.6
-6 -1 8 66.99 6.9
5 1 -8 19.7 2.3
-5 -1 8 14.4 2.5
-5 -1 8 19.2 3.1
4 1 -8 29.8 3.5
-4 -1 8 18.2 3.3
-4 -1 8 30.7 4.1
-4 -1 8 23.9 3.5
3 1 -8 275.27 22.8
-3 -1 8 241.38 22.7
-3 -1 8 266.97 23
2 1 -8 82.29 8.5
-2 -1 8 63.09 8.5
-2 -1 8 87.79 9.1
1 1 -8 52.59 6.2
-1 -1 8 45 5.8
-1 -1 8 54.49 6
0 1 -8 548.25 42.8
0 -1 8 527.05 41.9
0 -1 8 434.96 41.7
-1 1 -8 10.5 2.8
1 -1 8 10 2.4
1 -1 8 8.1 2.2
-2 1 -8 -0.7 1.1
2 -1 8 0.6 1
2 -1 8 2.3 1.2
2 -1 8 1.7 1.2
3 -1 8 21 3.5
-4 1 -8 62.59 6.5
4 -1 8 54.39 5.5
4 -1 8 52.49 5.5
4 -1 8 49.4 5.7
5 -1 8 97.59 8.8
5 -1 8 107.79 8.9
5 -1 8 89.09 9
-6 1 -8 1.8 1.1
6 -1 8 1.9 0.9
6 -1 8 2.4 1
6 -1 8 2 0.9
-7 1 -8 12.5 1.8
7 -1 8 10.6 1.5
7 -1 8 11.2 1.6
7 -1 8 11.5 1.6
8 -1 8 0.1 0.3
8 -1 8 0.4 0.4
7 0 -8 38.9 3.4
-6 0 8 109.09 9.4
5 0 -8 264.67 21.3
-5 0 8 275.57 21.9
-5 0 8 207.98 20.8
4 0 -8 137.19 12.7
-4 0 8 144.19 13.2
-4 0 8 123.49 12.3
3 0 -8 206.98 19.7
-3 0 8 176.28 19.2
2 0 -8 57.49 7.3
-2 0 8 57.79 6.8
-2 0 8 72.39 7.4
1 0 -8 1.3 1.5
-1 0 8 4.6 2
-1 0 8 2.7 1.5
0 0 -8 182.88 17.7
0 0 8 203.58 17
0 0 8 176.98 16.8
-1 0 -8 324.47 29.8
1 0 8 320.87 28.2
1 0 8 387.16 29
1 0 8 332.97 29
-2 0 -8 41.1 5.7
2 0 8 39.7 4.3
2 0 8 46.3 4.8
2 0 8 38.6 4.9
-3 0 -8 161.68 15.3
3 0 8 159.28 13.9
3 0 8 150.58 14.3
3 0 8 165.88 14.1
-4 0 -8 3.7 2
4 0 8 4.3 1.4
4 0 8 5.2 1.5
4 0 8 3.3 1.4
-5 0 -8 14.8 3.2
5 0 8 12.5 2.1
5 0 8 11.7 2.1
5 0 8 8.9 2.1
-6 0 -8 49.7 5.4
6 0 8 44.8 4.5
6 0 8 43.8 4.5
6 0 8 40.2 4.5
-7 0 -8 34.4 3.8
7 0 8 29.4 3.2
7 0 8 31 3.3
-8 0 -8 14.1 1.8
8 0 8 10.3 1.4
8 0 8 10.5 1.5
9 0 8 7.1 0.9
9 0 8 6.3 0.8
7 -1 -8 64.69 5.8
6 -1 -8 0.2 0.8
-6 1 8 0.1 0.5
5 -1 -8 45.6 5.2
-5 1 8 36.1 4.1
4 -1 -8 103.49 9.9
-4 1 8 79.89 8.4
3 -1 -8 264.57 26.5
-3 1 8 329.37 25.8
-2 1 8 316.67 29.2
-2 1 8 371.06 30.1
1 -1 -8 84.49 10.5
-1 1 8 109.49 10
0 -1 -8 121.69 14.4
0 1 8 179.28 14.2
0 1 8 151.38 13.9
-1 -1 -8 324.47 33
1 1 8 448.46 32.4
1 1 8 373.06 32.3
1 1 8 384.56 31.6
-2 -1 -8 65.19 8.2
2 1 8 73.19 7.4
2 1 8 75.89 7.2
2 1 8 72.39 6.9
-3 -1 -8 64.89 7.5
3 1 8 66.89 6.4
3 1 8 69.89 6.3
3 1 8 50.49 6.4
-4 -1 -8 513.95 43.9
4 1 8 553.24 42.6
4 1 8 515.25 42.5
4 1 8 486.85 42.7
-5 -1 -8 2.2 1.6
5 1 8 3.6 1.3
5 1 8 2.9 1.2
5 1 8 3.4 1.4
-6 -1 -8 0.9 1.3
6 1 8 1.7 0.9
6 1 8 1 1
6 1 8 1.2 0.9
-7 -1 -8 0.8 1.1
7 1 8 0.1 0.6
7 1 8 1.9 0.8
-8 -1 -8 16.7 3.4
8 1 8 14.3 1.8
8 1 8 14 1.8
-9 -1 -8 22.6 2.3
9 1 8 18 1.9
9 1 8 17.8 1.9
8 -2 -8 189.08 15.4
7 -2 -8 88.79 7.9
6 -2 -8 125.89 11.5
-5 2 8 46.4 4.9
4 -2 -8 0.7 1.3
-4 2 8 3.2 2.7
-4 2 8 1.3 1.4
-3 2 8 182.08 16.1
-2 2 8 275.37 26.3
-2 2 8 356.66 27.8
1 -2 -8 109.29 11.9
0 2 8 303.87 28.2
0 2 8 366.66 28.9
1 2 8 385.46 28.8
1 2 8 306.57 28
1 2 8 328.47 28.7
-2 -2 -8 3.3 2
2 2 8 2.2 1.1
2 2 8 3.7 1.6
-3 -2 -8 18.5 3.7
3 2 8 21.1 2.9
3 2 8 19.7 2.8
3 2 8 19.8 3.6
4 2 8 19.9 2.7
4 2 8 19.3 2.8
4 2 8 20.2 3.3
-5 -2 -8 173.58 16.1
5 2 8 157.38 14.5
5 2 8 174.98 14.6
5 2 8 170.08 14.5
-6 -2 -8 74.19 9.4
6 2 8 66.99 6.4
6 2 8 62.69 6.3
-7 -2 -8 18.6 3.4
7 2 8 17.8 2.4
7 2 8 18 2.4
-8 -2 -8 7.5 2
8 2 8 5.3 1.1
8 2 8 5.5 1.2
-9 -2 -8 0.3 0.7
9 2 8 0.7 0.5
9 2 8 0.6 0.4
8 -3 -8 12.2 1.4
7 -3 -8 3 1.1
6 -3 -8 224.58 19.4
5 -3 -8 299.77 23
-5 3 8 217.38 21.5
4 -3 -8 44.8 5.8
-4 3 8 42 6
-3 3 8 181.38 16.2
-1 -3 -8 93.19 10.2
2 3 8 448.56 38.8
2 3 8 498.45 39.2
-3 -3 -8 249.78 25.2
-4 -3 -8 1.1 1.6
4 3 8 2.5 1.3
4 3 8 0.1 0.8
-5 -3 -8 8 2.6
5 3 8 10.7 2.1
5 3 8 10.5 2
-6 -3 -8 50.39 6.3
6 3 8 48.8 4.8
6 3 8 43.9 4.7
-7 -3 -8 103.69 10.4
7 3 8 101.29 9
7 3 8 104.89 9.1
-8 -3 -8 42.6 4.8
8 3 8 34.8 3.7
8 3 8 38.7 3.8
-9 -3 -8 22.7 2.8
9 3 8 17.3 2.1
9 3 8 19.7 2.1
-10 -3 -8 0.2 0.4
10 3 8 0.9 0.4
10 3 8 0.3 0.3
7 -4 -8 2.4 0.8
6 -4 -8 13.5 2.3
5 -4 -8 14.8 2.6
-5 4 8 10.6 2
3 -4 -8 158.08 15.3
2 -4 -8 154.28 15.1
0 -4 -8 15.3 4
-1 -4 -8 224.18 20.5
2 4 8 306.57 27.2
2 4 8 349.77 27.5
-3 -4 -8 92.29 10.8
3 4 8 124.89 9.9
-4 -4 -8 205.88 21.7
4 4 8 255.07 20.7
4 4 8 273.57 20.7
-5 -4 -8 46.1 6.2
5 4 8 54.39 5.1
5 4 8 49.9 5
-6 -4 -8 8 2.4
6 4 8 14.7 2.1
6 4 8 10.6 1.9
-7 -4 -8 9.9 2.5
7 4 8 11.7 1.8
7 4 8 11.9 1.9
-8 -4 -8 1 1
8 4 8 1.6 0.8
8 4 8 0.9 0.7
-9 -4 -8 5.4 1.3
9 4 8 6.8 1.1
9 4 8 7.1 1.2
-10 -4 -8 40 3.4
10 4 8 31.8 2.9
10 4 8 30.3 3
7 -5 -8 74.99 6.5
-6 5 8 114.09 9.7
5 -5 -8 18 2.6
-5 5 8 16.4 2.4
4 -5 -8 2.8 1.3
-4 5 8 1.1 0.9
3 -5 -8 -0.1 1.3
-3 5 8 1.2 1.1
2 -5 -8 50.39 6.2
1 -5 -8 56.19 6.7
0 -5 -8 16.3 3.4
0 5 8 17.6 2.7
0 5 8 23.4 3.3
-2 -5 -8 459.85 43.3
2 5 8 574.94 42.6
-3 -5 -8 26.2 4.1
3 5 8 34.4 3.7
3 5 8 29.6 3.4
-4 -5 -8 33.8 4.9
4 5 8 38.1 4
4 5 8 42.1 4.1
-5 -5 -8 67.19 7.4
5 5 8 69.49 6.3
5 5 8 63.39 6.3
5 5 8 72.09 6.7
-6 -5 -8 182.38 16.8
6 5 8 170.58 15.3
6 5 8 191.58 15.4
-7 -5 -8 88.79 9.3
7 5 8 97.39 8.2
7 5 8 91.19 8.2
-8 -5 -8 1.2 1.1
8 5 8 2.3 0.8
8 5 8 2.2 0.8
-9 -5 -8 0.7 0.6
9 5 8 0.4 0.5
9 5 8 1.3 0.5
-10 -5 -8 4.3 0.9
10 5 8 3.7 0.6
10 5 8 3 0.5
7 -6 -8 6.1 0.8
6 -6 -8 8.9 1.3
-6 6 8 9.5 1.7
5 -6 -8 206.58 16.9
-5 6 8 194.58 17
4 -6 -8 163.38 14.1
-4 6 8 157.88 14.1
3 -6 -8 80.59 8
-2 6 8 4.6 1.6
1 -6 -8 23.4 3.7
0 6 8 854.21 68.79
0 6 8 841.12 69.39
1 6 8 1068.29 86.09
1 6 8 1048.2 85.69
2 6 8 19 2.8
2 6 8 12.6 2.3
3 6 8 190.38 16.7
3 6 8 202.98 17.2
-4 -6 -8 41.9 5.5
4 6 8 39.1 4.4
4 6 8 48.2 4.9
-5 -6 -8 15.8 2.8
5 6 8 12.3 2.1
5 6 8 15.7 2
-6 -6 -8 36.1 4.6
6 6 8 37.7 3.7
-7 -6 -8 16.9 2.8
7 6 8 12 1.8
7 6 8 16.9 2.1
-8 -6 -8 108.59 9.6
8 6 8 102.19 9.3
-9 -6 -8 47.2 4.3
9 6 8 43.8 3.9
9 6 8 41.2 3.8
-10 -6 -8 8.3 1.1
10 6 8 6.1 1
10 6 8 8.3 1
6 -7 -8 1 0.4
-6 7 8 0.7 0.4
5 -7 -8 6.8 1.1
-5 7 8 6.7 1.2
-4 7 8 22.7 2.9
3 -7 -8 60.09 6.3
-3 7 8 74.19 6.7
-1 7 8 14.8 2.4
0 7 8 424.66 35.9
0 7 8 431.66 35.2
1 7 8 1.7 1.1
1 7 8 1.2 1
2 7 8 79.09 7.4
2 7 8 79.49 7.9
3 7 8 37.6 4.4
3 7 8 47 4.9
4 7 8 280.97 22.5
4 7 8 250.97 22.2
5 7 8 97.69 9.2
-7 -7 -8 15.4 2.5
7 7 8 17.7 2.1
7 7 8 17.5 2.2
-8 -7 -8 5.2 1.1
8 7 8 3.1 0.6
8 7 8 1.9 0.9
-9 -7 -8 2.3 0.9
9 7 8 2.1 0.5
9 7 8 2.3 0.5
-5 8 8 70.69 6.1
-3 8 8 3.3 1.1
-2 8 8 30.9 3.7
-1 8 8 223.68 19.6
-1 8 8 233.58 19
0 8 8 195.48 16.6
1 8 8 203.18 17.1
1 8 8 194.78 17.2
2 8 8 21.5 2.9
2 8 8 21.9 3
3 8 8 69.59 7.1
3 8 8 82.39 7.9
5 8 8 216.58 18.1
6 8 8 8.5 1.5
7 8 8 61.39 5.5
8 8 8 63.09 5.4
9 8 8 0.1 0.2
-4 9 8 64.39 5.6
-3 9 8 17.7 2.1
-2 9 8 1.2 0.7
-1 9 8 6.5 1.5
0 9 8 9.4 1.6
0 9 8 7.7 1.8
1 9 8 181.58 15.4
1 9 8 176.48 15.2
2 9 8 102.19 9.3
2 9 8 106.39 9.3
3 9 8 8.2 1.7
3 9 8 12.1 1.7
4 9 8 90.39 8
5 9 8 1.2 0.7
6 9 8 13.3 1.6
7 9 8 24.5 2.4
-3 10 8 1.7 0.5
-2 10 8 117.89 9.9
-1 10 8 34 3.4
-1 10 8 36.2 3.6
0 10 8 1.7 0.9
0 10 8 2.5 0.8
1 10 8 5.9 1.3
2 10 8 22.4 2.4
2 10 8 19.4 2.2
3 10 8 62.39 5.6
4 10 8 62.29 5.5
5 10 8 25.7 2.5
6 10 8 9.7 1.2
7 10 8 0.1 0.4
-1 11 8 60.59 5.4
0 11 8 20.5 2
0 11 8 22.4 2.3
1 11 8 15.6 1.6
1 11 8 18.5 1.8
2 11 8 11.2 1.3
3 11 8 6.1 1
4 11 8 2.3 0.6
5 11 8 17.2 1.6
-3 -3 9 81.79 6.4
-3 -3 9 61.79 6
-2 -3 9 6.8 1.2
-2 -3 9 7.7 1.4
-1 -3 9 6.1 1.3
0 -3 9 12 1.9
0 -3 9 13.9 2
1 -3 9 34.1 3.6
1 -3 9 39.9 3.8
2 -3 9 55.89 5.3
2 -3 9 62.39 5.5
3 -3 9 7.7 1.4
3 -3 9 6.8 1.2
4 -3 9 0.4 0.4
4 -3 9 -0.2 0.4
-4 -2 9 6.2 1.3
-4 -2 9 2.9 0.8
-3 -2 9 127.19 10.1
-3 -2 9 100.69 9.6
-2 -2 9 5.3 1.3
-2 -2 9 9.1 1.8
1 2 -9 44.6 4.5
-1 -2 9 34.4 4.3
0 2 -9 44.9 4.5
0 -2 9 41 4.6
-1 2 -9 3.5 1.3
1 -2 9 2.9 1.3
1 -2 9 3.4 1.2
-2 2 -9 3.5 1.2
2 -2 9 2 1.1
2 -2 9 4 1.3
3 -2 9 5.6 1.3
3 -2 9 5.3 1.5
4 -2 9 18.7 2.3
4 -2 9 20.1 2.3
5 -2 9 12.3 2.1
5 -2 9 16.9 1.8
-5 -1 9 51.09 4.4
4 1 -9 5.8 1.2
-4 -1 9 5 1.4
-4 -1 9 3.7 0.9
3 1 -9 45.8 4.7
-3 -1 9 45.6 5.1
2 1 -9 89.19 8.4
-2 -1 9 85.89 8.4
1 1 -9 175.98 15.5
-1 -1 9 168.98 15.2
0 1 -9 149.99 13.2
0 -1 9 132.79 12.6
1 -1 9 58.39 5.4
1 -1 9 43.2 5.1
2 -1 9 61.39 5.8
2 -1 9 52.89 5.7
-3 1 -9 3.4 1.6
3 -1 9 1.8 1.1
3 -1 9 5.7 1.5
3 -1 9 3.7 1.4
-4 1 -9 11.2 2.5
4 -1 9 5.3 1.2
4 -1 9 5.6 1.4
5 -1 9 16.4 1.9
5 -1 9 14.2 2
5 -1 9 15.2 2.1
6 -1 9 17.6 1.9
6 -1 9 18.9 2
6 -1 9 17.5 1.9
7 -1 9 5.2 0.8
7 -1 9 4.7 0.8
-5 0 9 17.9 1.9
-4 0 9 156.78 13.3
3 0 -9 35.6 4.3
-3 0 9 30.6 3.6
2 0 -9 34.2 4.7
-2 0 9 32.5 4
-2 0 9 40.8 4.7
1 0 -9 0.1 1.3
-1 0 9 1 1.1
-1 0 9 2.1 1.4
0 0 -9 53.19 6.4
0 0 9 60.79 5.9
0 0 9 44.8 5.4
1 0 9 18.4 3.1
1 0 9 25.1 3.3
-2 0 -9 45.5 5.6
2 0 9 34.2 4.4
2 0 9 39.8 4.4
2 0 9 40.6 4
-3 0 -9 149.88 12.6
3 0 9 111.79 11.2
3 0 9 124.49 11
3 0 9 127.49 11.3
-4 0 -9 26.3 3.7
4 0 9 15.6 2.5
4 0 9 19.9 2.6
4 0 9 18.3 2.4
-5 0 -9 7.3 2.1
5 0 9 7.8 1.4
5 0 9 6.3 1.5
-6 0 -9 5.1 1.6
6 0 9 1.9 0.8
6 0 9 0.7 0.8
6 0 9 2.2 1
-7 0 -9 6.8 1.3
7 0 9 3.8 0.8
7 0 9 6.4 1
6 -1 -9 31.2 3
5 -1 -9 19.6 3
-4 1 9 34.4 3.4
-4 1 9 28.7 3.4
3 -1 -9 79.49 8.7
-3 1 9 84.79 7.7
2 -1 -9 78.99 9.3
-2 1 9 95.09 8.4
1 -1 -9 314.07 29.7
0 -1 -9 38.6 5.8
0 1 9 53.89 5.4
0 1 9 42.2 5
-1 -1 -9 6.7 2.3
1 1 9 7.5 1.9
1 1 9 6.9 1.9
-2 -1 -9 30.2 4.6
2 1 9 27.3 3.6
2 1 9 25.5 3.5
2 1 9 34.5 3.8
3 1 9 151.08 12.7
3 1 9 136.29 13.1
4 1 9 161.58 15
4 1 9 182.48 15
4 1 9 181.08 14.9
-5 -1 -9 3 1.7
5 1 9 2.1 1
5 1 9 3.5 1.1
5 1 9 2.4 1
6 1 9 126.59 10.8
6 1 9 127.79 10.9
-7 -1 -9 2.3 1.2
7 1 9 1.9 0.8
7 1 9 1.6 0.8
-8 -1 -9 9 1.4
8 1 9 8.1 1.1
8 1 9 7.8 1.1
6 -2 -9 91.39 8.1
5 -2 -9 117.29 10.9
4 -2 -9 72.79 7.5
-4 2 9 59.79 6.2
3 -2 -9 15.7 3.3
-3 2 9 17.6 2.5
-2 2 9 90.89 8.4
-1 2 9 180.28 15.6
0 -2 -9 223.08 24.1
0 2 9 321.27 23.6
-1 -2 -9 82.19 9.7
1 2 9 87.79 8.6
1 2 9 105.09 8.9
-2 -2 -9 4.2 1.9
2 2 9 3 1.5
2 2 9 6.4 1.5
2 2 9 6.5 1.7
-3 -2 -9 0.7 1.6
3 2 9 2.2 1.4
3 2 9 1.6 0.9
3 2 9 2.4 1.2
-4 -2 -9 9 2.7
4 2 9 15.2 2.3
4 2 9 14.8 2.7
-5 -2 -9 9.3 2.5
5 2 9 9.5 1.8
-6 -2 -9 6.2 1.9
6 2 9 4.7 1.2
6 2 9 5.8 1.3
-7 -2 -9 49.7 4.9
7 2 9 41.3 4
7 2 9 38.7 4
-8 -2 -9 0.6 0.7
8 2 9 0.3 0.4
8 2 9 0.4 0.5
-9 -2 -9 7.2 1.1
9 2 9 4.5 0.8
9 2 9 6 0.9
7 -3 -9 7.9 1.1
6 -3 -9 88.39 8
-5 3 9 34.8 3.5
4 -3 -9 102.99 10.6
-4 3 9 107.69 9.6
3 -3 -9 31.1 4.7
2 -3 -9 23 4
1 -3 -9 6.1 2.2
-1 3 9 14.3 3
0 -3 -9 1.5 1.5
0 3 9 2.4 1.5
-1 -3 -9 16.3 3.5
1 3 9 22.4 3.1
1 3 9 21.8 3.7
-2 -3 -9 145.89 15
2 3 9 169.68 14
2 3 9 161.88 13.6
-3 -3 -9 494.75 42.2
3 3 9 519.45 40.8
3 3 9 476.75 40.6
-4 -3 -9 80.89 8.4
4 3 9 72.59 7
4 3 9 77.19 7.1
-5 -3 -9 3 1.6
5 3 9 3.7 1.2
-6 -3 -9 3.1 1.4
6 3 9 2.3 0.9
6 3 9 2.3 1
-7 -3 -9 15.7 2.8
7 3 9 15.5 2
7 3 9 15.3 2
-8 -3 -9 48.4 4.5
8 3 9 40.4 3.7
8 3 9 34.8 3.6
-9 -3 -9 1.2 0.6
9 3 9 0.7 0.4
9 3 9 1.2 0.4
6 -4 -9 100.89 8.8
5 -4 -9 1.7 0.9
-5 4 9 0.1 0.6
4 -4 -9 1.7 1.1
-4 4 9 1 0.9
3 -4 -9 113.09 11.3
2 -4 -9 105.59 10.9
1 -4 -9 59.59 7.3
0 -4 -9 116.19 11.8
-1 -4 -9 0 1.2
1 4 9 2.1 1.4
-2 -4 -9 119.99 13
2 4 9 159.98 12.3
2 4 9 132.49 11.8
-3 -4 -9 6.1 2.1
3 4 9 6.1 1.4
3 4 9 4.7 1.2
-4 -4 -9 17.3 3.2
4 4 9 13.7 2.2
4 4 9 20.4 2.4
-5 -4 -9 89.79 10.4
-6 -4 -9 38.7 4.7
6 4 9 32.4 3.5
6 4 9 34 3.6
-7 -4 -9 3 1.3
7 4 9 1.5 0.7
7 4 9 5.3 1.1
-8 -4 -9 6 1.4
8 4 9 5 1.3
8 4 9 6.5 1.1
-9 -4 -9 24.5 2.4
9 4 9 18.3 2
9 4 9 20 2
6 -5 -9 50.19 4.6
5 -5 -9 48.9 4.6
-5 5 9 38.5 4.1
4 -5 -9 8.3 1.9
-4 5 9 7 1.6
3 -5 -9 24.9 3.7
-3 5 9 36.6 3.9
2 -5 -9 15.1 4.4
1 -5 -9 36.5 4.9
0 -5 -9 113.99 11.3
-1 -5 -9 160.88 15.9
1 5 9 184.88 14.7
-2 -5 -9 159.98 15.3
2 5 9 173.88 14.2
-3 -5 -9 35.1 4.5
3 5 9 38 3.8
3 5 9 33 3.6
-4 -5 -9 13.6 2.6
4 5 9 15.4 2
4 5 9 10.2 1.8
-5 -5 -9 91.59 9.2
5 5 9 88.39 8.3
5 5 9 91.09 8.2
5 5 9 108.79 9.1
-6 -5 -9 57.59 5.9
6 5 9 45.2 4.7
6 5 9 50.19 4.7
-7 -5 -9 52.59 5.4
7 5 9 42.4 4.4
7 5 9 49.3 4.4
-8 -5 -9 9.9 1.9
8 5 9 9.2 1.3
8 5 9 8.8 2
9 5 9 2.7 0.6
9 5 9 1.8 0.5
6 -6 -9 5.8 0.8
5 -6 -9 29.4 3
-5 6 9 30.1 3
4 -6 -9 73.49 8
-4 6 9 82.09 7.2
3 -6 -9 58.89 6.7
-3 6 9 82.79 7
2 -6 -9 58.99 6.2
1 -6 -9 6.9 3.3
-1 6 9 4.8 1.6
0 -6 -9 3.4 1.3
0 6 9 1.4 1.2
-1 -6 -9 47.4 6.2
1 6 9 69.29 6.3
1 6 9 58.69 5.4
-2 -6 -9 62.49 6.8
2 6 9 70.99 6.7
2 6 9 64.89 6.1
-3 -6 -9 101.89 10
3 6 9 101.69 9.2
3 6 9 113.39 9.7
-4 -6 -9 29.7 4.4
4 6 9 20 2.6
-5 -6 -9 30.1 3.5
5 6 9 23.4 2.9
5 6 9 26 2.8
-6 -6 -9 1.5 1.1
6 6 9 0.8 0.7
6 6 9 1.9 0.8
-7 -6 -9 3.3 1.1
7 6 9 1.5 0.8
7 6 9 0.7 0.6
-8 -6 -9 13.3 1.7
8 6 9 10.2 1.4
8 6 9 10.2 1.3
-9 -6 -9 15.1 1.5
9 6 9 12.5 1.3
9 6 9 11 1.2
5 -7 -9 4.3 0.7
-5 7 9 5.5 1.3
4 -7 -9 6.1 1.1
-4 7 9 8.7 1.4
3 -7 -9 34.6 3.7
-3 7 9 37.1 3.9
2 -7 -9 55.29 6.3
-2 7 9 76.79 6.6
1 -7 -9 65.69 6.7
0 7 9 40.2 3.9
1 7 9 34.1 4.3
1 7 9 47.1 5.9
2 7 9 1 1.2
3 7 9 59.49 6
3 7 9 56.39 5.8
4 7 9 161.48 12.8
4 7 9 134.09 12.5
5 7 9 19.2 2.4
-6 -7 -9 177.78 14.2
6 7 9 151.28 13.7
-7 -7 -9 7.9 1.4
7 7 9 5.3 1.1
-8 -7 -9 0.6 0.5
8 7 9 -0.1 0.4
9 7 9 17.6 1.7
-5 8 9 16.2 1.6
-4 8 9 28.2 2.7
-2 8 9 2.3 0.9
-1 8 9 88.59 8.2
0 8 9 123.89 10.7
0 8 9 115.89 10.1
1 8 9 37.5 4
1 8 9 36.5 3.7
2 8 9 60.69 5.7
2 8 9 62.59 6
3 8 9 33.2 3.6
3 8 9 36.1 3.7
4 8 9 47.3 4.5
4 8 9 47.3 4.7
5 8 9 5.7 1.2
6 8 9 2.7 0.9
7 8 9 84.09 7.2
8 8 9 9.4 1.1
-4 9 9 10.4 1.1
-3 9 9 30.5 2.9
-2 9 9 21.2 2.4
-1 9 9 0.7 0.7
0 9 9 1.2 0.8
0 9 9 0.1 0.5
1 9 9 3.5 0.9
1 9 9 2.9 0.9
2 9 9 37 3.6
2 9 9 36.3 3.7
3 9 9 60.99 5.8
3 9 9 66.89 5.9
4 9 9 89.89 7.8
5 9 9 1.9 0.7
6 9 9 5.7 1
7 9 9 0.7 0.3
-2 10 9 17.9 1.8
-1 10 9 52.49 4.6
0 10 9 23.9 2.3
0 10 9 28.3 2.6
1 10 9 17.4 1.9
1 10 9 17.2 1.8
2 10 9 2 0.6
2 10 9 1.7 0.5
3 10 9 28.6 2.8
4 10 9 14.9 1.7
5 10 9 15.8 1.6
6 10 9 15.2 1.5
0 11 9 7.2 0.8
1 11 9 15.8 1.6
2 11 9 12.5 1.3
3 11 9 1.2 0.6
4 11 9 1.5 0.4
-1 -2 10 47.1 4.1
0 -2 10 12.6 1.7
0 -2 10 11.6 1.4
1 -2 10 0.4 0.6
2 -2 10 12.7 1.7
3 -2 10 14.5 1.7
-3 -1 10 1.5 0.8
-2 -1 10 0.6 0.8
-2 -1 10 0.7 0.5
1 1 -10 16.8 2.9
-1 -1 10 12 1.6
-1 -1 10 16.4 2.2
0 -1 10 53.49 4.8
0 -1 10 41.8 4.3
1 -1 10 57.29 5.8
1 -1 10 76.29 6.3
-2 1 -10 2 1
2 -1 10 1.7 0.8
2 -1 10 2 0.8
3 -1 10 19.2 2.1
3 -1 10 14.1 2
4 -1 10 0.3 0.5
5 -1 10 12.6 1.6
4 0 -10 77.09 6.5
3 0 -10 82.29 7.6
-3 0 10 89.79 7.7
2 0 -10 227.68 19.6
-2 0 10 234.28 19.5
1 0 -10 5.6 2.4
-1 0 10 3.7 1.3
-1 0 10 4.1 1
0 0 -10 1.5 1.2
0 0 10 1 0.8
0 0 10 1.1 1
-1 0 -10 4.8 1.9
1 0 10 3 1.1
1 0 10 2 1.1
2 0 10 57.79 5.1
2 0 10 43.9 4.7
-3 0 -10 8 2.9
3 0 10 7.1 1.3
3 0 10 6.3 1.2
3 0 10 5.3 1.2
-4 0 -10 5 1.5
4 0 10 2.7 0.7
4 0 10 1.3 1
4 0 10 3.6 1
5 0 10 11.2 1.4
5 0 10 11.6 1.6
6 0 10 16.5 1.8
6 0 10 17.4 1.7
5 -1 -10 18.6 1.9
4 -1 -10 3.4 1
-3 1 10 22.2 2.4
2 -1 -10 6.1 1.8
-2 1 10 6.9 2.4
1 -1 -10 102.09 9.8
-1 1 10 84.99 8.5
-1 1 10 115.69 9.4
0 -1 -10 66.09 7
0 1 10 50.69 5.9
0 1 10 67.69 6.2
1 1 10 57.49 5.7
-2 -1 -10 4.7 2.1
2 1 10 7.1 1.7
-3 -1 -10 1 1.4
3 1 10 1.4 0.9
3 1 10 1.7 1.1
3 1 10 1.7 0.8
4 1 10 25.2 3
4 1 10 29.8 3.3
5 1 10 131.29 11
-6 -1 -10 10 1.9
6 1 10 7.3 1.3
6 1 10 7.1 1.1
-7 -1 -10 7.7 1.5
7 1 10 5 0.9
5 -2 -10 96.99 8.4
4 -2 -10 95.99 8
-4 2 10 69.19 7.4
3 -2 -10 19.1 3.1
-3 2 10 13.8 2.2
2 -2 -10 7.8 2.4
-2 2 10 14.3 2.4
1 -2 -10 22.4 4
-1 2 10 31.2 3.7
0 -2 -10 27.8 4.5
0 2 10 33.7 3.9
-1 -2 -10 67.99 7.6
1 2 10 65.59 6.5
-2 -2 -10 163.58 14.9
2 2 10 153.88 13.7
-3 -2 -10 26.1 4
3 2 10 17.3 2.2
3 2 10 21.8 2.7
-4 -2 -10 7.4 2.2
4 2 10 5.1 1.1
4 2 10 4.4 1.2
5 2 10 79.69 6.8
5 2 10 71.39 6.6
6 2 10 47.6 4.4
6 2 10 50.39 4.6
7 2 10 11.4 1.4
7 2 10 13.2 1.5
5 -3 -10 17.1 2.2
4 -3 -10 43.5 4.8
-4 3 10 37.8 3.8
3 -3 -10 30.1 4.2
-3 3 10 30 3.3
2 -3 -10 102.79 10.8
-2 3 10 110.39 9.6
-2 3 10 111.09 11
1 -3 -10 70.29 7.8
0 -3 -10 2.1 1.5
0 3 10 -0.5 1
-1 -3 -10 25.1 4.2
1 3 10 26 3.3
-2 -3 -10 10.1 2.9
2 3 10 9.9 1.9
2 3 10 7.9 1.4
-3 -3 -10 122.19 10.8
3 3 10 106.49 9.4
3 3 10 95.59 9.1
-4 -3 -10 142.29 11.8
4 3 10 118.59 10.3
4 3 10 102.19 10.1
-5 -3 -10 1.3 1.6
5 3 10 2.5 0.9
5 3 10 1 0.7
-6 -3 -10 1.1 1.1
6 3 10 0.6 0.6
6 3 10 1.3 0.7
-7 -3 -10 4.1 1.3
7 3 10 4 0.9
7 3 10 4.4 0.9
-8 -3 -10 5.1 1.1
8 3 10 2.5 0.6
8 3 10 2.1 0.5
5 -4 -10 26.5 2.9
4 -4 -10 0.6 0.8
-4 4 10 0.7 0.5
3 -4 -10 66.39 7.4
-3 4 10 79.09 6.8
2 -4 -10 19.7 3.6
-2 4 10 24.6 2.9
1 -4 -10 57.09 7.2
-1 4 10 72.89 6.5
-1 -4 -10 39 5.2
1 4 10 42.9 4.5
-2 -4 -10 4.9 1.8
2 4 10 9.2 1.7
2 4 10 4.5 1.1
-3 -4 -10 10.4 2.4
3 4 10 11.1 1.6
3 4 10 10.7 1.8
-4 -4 -10 2.1 1.3
4 4 10 3.5 1
4 4 10 3.7 1
-5 -4 -10 49.5 5.2
5 4 10 40.2 3.9
5 4 10 33.3 3.7
-6 -4 -10 21.9 3.1
6 4 10 15.7 2
6 4 10 17.7 2.1
-7 -4 -10 5.9 1.5
7 4 10 3.2 0.8
7 4 10 4.7 0.9
-8 -4 -10 0.8 0.6
8 4 10 0.3 0.4
8 4 10 0.8 0.4
5 -5 -10 79.29 6.9
4 -5 -10 28 3.1
-4 5 10 23.9 2.7
3 -5 -10 30.3 3.9
-3 5 10 33.6 3.5
2 -5 -10 6.9 1.9
1 -5 -10 0.6 0.9
-1 5 10 0.9 0.9
0 -5 -10 41.5 5.4
0 5 10 50.59 5
-1 -5 -10 19 3.1
1 5 10 11.6 2.2
-2 -5 -10 135.69 12
2 5 10 125.79 11.2
2 5 10 120.89 10.7
-3 -5 -10 153.68 12.9
3 5 10 144.39 11.8
3 5 10 128.49 11.7
3 5 10 130.19 12
-4 -5 -10 2.9 1.5
4 5 10 1.9 0.8
4 5 10 3 0.9
4 5 10 3.1 1
-5 -5 -10 3.5 1.5
5 5 10 2.3 0.8
5 5 10 2.7 0.8
5 5 10 1.5 0.8
-6 -5 -10 6.6 1.7
6 5 10 5.6 1.1
6 5 10 8.6 1.4
7 5 10 36.8 3.6
7 5 10 41.7 3.6
8 5 10 23.1 2.3
8 5 10 25.3 2.3
5 -6 -10 0.4 0.4
4 -6 -10 93.89 7.8
-4 6 10 85.19 7.7
3 -6 -10 40.6 4.5
-3 6 10 50.29 4.6
2 -6 -10 41.2 5
-2 6 10 56.29 5
1 -6 -10 30.8 4.1
-1 6 10 40.3 4.1
0 -6 -10 18 2.9
0 6 10 19 2.7
-1 -6 -10 209.68 19.2
1 6 10 232.68 18.9
-2 -6 -10 27.6 3.7
2 6 10 24.2 2.7
2 6 10 28.6 3.3
-3 -6 -10 5.7 1.8
3 6 10 6.1 1.4
3 6 10 8.2 1.4
-4 -6 -10 137.59 10.9
4 6 10 112.79 10.1
4 6 10 104.19 9.9
-5 -6 -10 3.6 1.2
5 6 10 3 0.8
5 6 10 0.9 0.8
5 6 10 1.3 0.7
-6 -6 -10 0.3 0.8
6 6 10 0.7 0.5
6 6 10 0.2 0.5
-7 -6 -10 0.5 0.6
7 6 10 1.2 0.5
7 6 10 0.2 0.5
-8 -6 -10 0.1 0.4
8 6 10 0.3 0.3
4 -7 -10 3.2 0.6
-4 7 10 2 0.6
3 -7 -10 2.2 0.7
-3 7 10 2.1 0.7
2 -7 -10 3.4 1
-2 7 10 2.3 0.9
1 -7 -10 84.19 8.1
-1 7 10 92.89 8.1
0 7 10 6.8 1.7
-1 -7 -10 131.19 13.2
1 7 10 158.88 12.2
-2 -7 -10 16.5 3.8
2 7 10 18.9 2.4
2 7 10 16.1 2
3 7 10 -0.1 0.5
3 7 10 1.5 0.8
-4 -7 -10 0.3 1.1
4 7 10 1.6 0.7
4 7 10 0.9 0.7
-5 -7 -10 42.8 4
5 7 10 32.6 3.5
6 7 10 25.1 2.9
-7 -7 -10 11.2 1.4
7 7 10 7.4 1.2
8 7 10 0.1 0.3
-4 8 10 81.59 6.8
-3 8 10 1.1 0.4
-2 8 10 2.1 0.8
-1 8 10 3.6 1
0 8 10 99.39 8.8
1 8 10 37.1 3.7
1 8 10 33 3.2
2 8 10 66.89 6.2
2 8 10 76.19 6.5
3 8 10 3.7 0.9
4 8 10 17 1.9
4 8 10 16.3 1.9
6 8 10 15.6 1.7
7 8 10 4.6 0.8
-3 9 10 14.4 1.4
-2 9 10 21.1 2.1
-1 9 10 31.2 3
0 9 10 7.6 1.2
1 9 10 2.8 0.8
1 9 10 2.6 0.9
2 9 10 11.5 1.4
2 9 10 13.5 1.6
3 9 10 11.4 1.4
3 9 10 13.1 1.4
4 9 10 2.4 0.7
5 9 10 47.1 4.1
6 9 10 1.6 0.5
-1 10 10 13.4 1.4
0 10 10 7.6 0.9
1 10 10 24.7 2.5
2 10 10 12.1 1.2
2 10 10 12.7 1.3
3 10 10 -0.1 0.3
4 10 10 5.9 0.8
5 10 10 19.1 2
1 0 -11 12.4 1.6
-1 0 11 12.3 1.6
0 0 11 0.7 0.5
-1 0 -11 1.4 1
1 0 11 1.8 0.7
-2 0 -11 1.7 0.8
2 0 11 1.1 0.7
-3 0 -11 6.3 1.2
3 0 11 4 0.9
3 -1 -11 20.6 2.1
2 -1 -11 19.1 2.3
-2 1 11 16.8 1.9
1 -1 -11 72.19 6.8
-1 1 11 70.99 6.4
0 -1 -11 46.8 4.8
0 1 11 41.9 4.3
-1 -1 -11 47.8 4.8
1 1 11 35.5 3.9
-2 -1 -11 5.5 1.6
2 1 11 5.9 1.2
-3 -1 -11 4.1 1.3
3 1 11 3.5 0.9
-4 -1 -11 5.3 1.3
4 1 11 2.7 0.8
-5 -1 -11 60.39 5.5
-3 2 11 9.2 1.1
2 -2 -11 21.3 3
-2 2 11 23.8 2.6
1 -2 -11 14.5 2.6
-1 2 11 15.1 2
0 -2 -11 2.4 1.8
0 2 11 3.1 1
-1 -2 -11 18 3
1 2 11 13.1 2
-2 -2 -11 31.6 3.9
2 2 11 24.7 3
-3 -2 -11 1.1 1.4
3 2 11 1.2 0.7
-4 -2 -11 4.3 1.6
4 2 11 1.9 0.8
4 2 11 1.7 0.5
-5 -2 -11 0.6 0.9
5 2 11 1 0.6
5 2 11 0.8 0.4
-6 -2 -11 0.9 0.9
6 2 11 0.4 0.5
6 2 11 -0.1 0.3
4 -3 -11 12.2 2
3 -3 -11 35.2 3.8
-2 3 11 17 2
1 -3 -11 58.49 6.9
0 -3 -11 14.8 2.9
0 3 11 19.3 2.4
-1 -3 -11 14.1 2.8
1 3 11 12.8 2
-2 -3 -11 0.8 1.1
2 3 11 0.1 0.8
-3 -3 -11 41.5 4.6
3 3 11 32.6 3.6
4 3 11 60.09 4.9
4 3 11 45.5 4.5
-5 -3 -11 20.4 2.8
5 3 11 16.9 1.9
5 3 11 13 1.6
-6 -3 -11 5.1 1.3
6 3 11 3.4 0.7
6 3 11 2.3 0.6
4 -4 -11 3.6 1.3
3 -4 -11 14.4 2
-3 4 11 10 1.4
2 -4 -11 23.6 3.1
-2 4 11 20.2 2.3
1 -4 -11 47.7 5.1
-1 4 11 42.1 4.3
0 -4 -11 22.6 3.3
0 4 11 19 2.4
-1 -4 -11 29.8 4.2
1 4 11 39.6 3.8
-2 -4 -11 0.8 1.1
2 4 11 0.8 0.9
-3 -4 -11 7.3 1.9
3 4 11 4.2 0.8
3 4 11 5.5 1.1
-4 -4 -11 6.9 2.4
4 4 11 5.3 1.1
-5 -4 -11 8.4 1.8
5 4 11 3.7 0.7
5 4 11 4.8 0.8
-6 -4 -11 8 1.6
6 4 11 4.4 0.8
6 4 11 5.2 0.9
-7 -4 -11 2.5 0.9
7 4 11 1.3 0.4
7 4 11 1.2 0.4
4 -5 -11 84.39 7.2
3 -5 -11 9.1 1.5
-3 5 11 6.3 1
2 -5 -11 31.9 3.5
-2 5 11 27.5 3
1 -5 -11 -1.7 0.9
-1 5 11 0.4 0.6
0 -5 -11 4.2 1.5
0 5 11 2.6 1
-1 -5 -11 8.1 1.9
1 5 11 9.6 1.6
-2 -5 -11 66.79 6.4
2 5 11 54.49 5.5
3 5 11 50.99 4.6
3 5 11 54.49 4.9
-4 -5 -11 4.4 1.7
4 5 11 4.3 1
4 5 11 4.1 0.8
4 5 11 3.2 0.8
-5 -5 -11 4.6 1.4
5 5 11 2.9 0.7
5 5 11 3.2 0.9
5 5 11 1.8 0.6
-6 -5 -11 7.5 1.5
6 5 11 4.6 0.8
6 5 11 4.5 0.9
-7 -5 -11 7.4 1.3
7 5 11 5.9 1
-3 6 11 16.8 1.8
2 -6 -11 36.7 3.6
-2 6 11 31.1 3.3
1 -6 -11 18.3 2.5
-1 6 11 20.4 3.1
0 -6 -11 2.2 1.2
0 6 11 1.1 0.8
-1 -6 -11 49.9 5
1 6 11 40.5 4.3
-2 -6 -11 5.1 1.5
2 6 11 3.3 1
-3 -6 -11 20.5 2.8
3 6 11 16.1 1.8
3 6 11 16.5 2.5
-4 -6 -11 10.6 1.9
4 6 11 6.1 1.1
4 6 11 7.1 1.1
-5 -6 -11 7.9 1.6
5 6 11 4.5 0.8
-6 -6 -11 21.6 3.2
6 6 11 18.4 1.9
-7 -6 -11 0.1 0.5
-3 7 11 0.3 0.3
2 -7 -11 2 0.6
-2 7 11 0.5 0.5
-1 7 11 39.5 3.8
0 -7 -11 78.99 7.2
-1 -7 -11 24.8 2.9
1 7 11 19.2 2.4
-2 -7 -11 7.1 1.5
-3 -7 -11 0 0.8
3 7 11 -0.3 0.3
3 7 11 0.4 0.5
-4 -7 -11 2 1.3
4 7 11 0.4 0.4
4 7 11 -0.4 0.4
5 7 11 12.8 1.4
-6 -7 -11 6.6 1.3
6 7 11 5.1 0.8
7 7 11 19.1 1.8
-2 8 11 7.8 1
-1 8 11 1.9 0.6
0 8 11 1.4 0.6
1 8 11 9.5 1.4
2 8 11 51.29 4.6
3 8 11 31.5 2.8
3 8 11 32 2.9
4 8 11 4.3 0.7
5 8 11 0.2 0.3
6 8 11 0.1 0.3
-1 9 11 54.59 4.8
0 9 11 2.9 0.6
1 9 11 0.5 0.4
2 9 11 -0.1 0.4
3 9 11 2 0.4
4 9 11 5.5 0.7
5 9 11 21.7 1.9
0 -2 -12 1.6 0.8
0 2 12 1 0.3
-1 -2 -12 2.5 1.2
1 2 12 1.4 0.6
-2 -2 -12 3.5 1.5
2 2 12 4.8 1
3 2 12 6.7 0.9
3 2 12 8.8 1.1
-1 3 12 9.9 1.2
0 3 12 17.9 1.8
-1 -3 -12 3.4 1.1
1 3 12 2.5 0.7
2 3 12 6.9 1
2 3 12 10.4 1.8
-3 -3 -12 3 1.1
3 3 12 2.2 0.7
4 3 12 12.6 1.3
4 3 12 13.9 1.6
2 -4 -12 0.4 0.5
-2 4 12 -0.1 0.2
1 -4 -12 1.3 0.7
-1 4 12 0.9 0.4
0 -4 -12 1.5 0.9
0 4 12 1.9 0.6
-1 -4 -12 11.1 1.8
1 4 12 8 1.2
2 4 12 23.5 2.4
-3 -4 -12 2.4 1
3 4 12 1.2 0.4
-4 -4 -12 0.8 0.8
4 4 12 0.4 0.3
-5 -4 -12 2.5 0.8
2 -5 -12 47.2 3.8
-2 5 12 34.7 3.4
1 -5 -12 9.6 1.8
-1 5 12 6.7 1
0 -5 -12 0.5 0.7
0 5 12 1.4 0.5
-1 -5 -12 32.9 3.3
1 5 12 25.1 2.7
-2 -5 -12 3.7 1.1
2 5 12 2.3 0.6
-3 -5 -12 2.8 1
3 5 12 1.7 0.6
4 5 12 14.7 1.5
-5 -5 -12 1.7 0.8
1 -6 -12 25.8 2.4
-1 6 12 20.4 2.2
0 -6 -12 0.6 0.6
0 6 12 1.1 0.5
-1 -6 -12 32 3.8
1 6 12 25.7 2.7
-2 -6 -12 2.5 1.1
2 6 12 2.2 0.7
-3 -6 -12 1.1 1.1
3 6 12 0.4 0.4
-4 -6 -12 16.1 1.8
4 6 12 11.3 1.5
-5 -6 -12 29.8 2.9
-1 7 12 0.6 0.3
0 7 12 23 2.2
1 7 12 1.9 0.6
2 7 12 27.3 2.6
3 7 12 0.9 0.3
1 8 12 18.1 1.7
2 8 12 1.6 0.4
