#------------------------------------------------------------------------------
#$Date: 2021-07-04 04:48:31 +0300 (Sun, 04 Jul 2021) $
#$Revision: 266972 $
#$URL: file:///home/coder/svn-repositories/cod/cif/1/56/34/1563411.cif $
#------------------------------------------------------------------------------
#
# This file is available in the Crystallography Open Database (COD),
# http://www.crystallography.net/
#
# All data on this site have been placed in the public domain by the
# contributors.
#
data_1563411
loop_
_publ_author_name
'Ugata, Yosuke'
'Sasagawa, Shohei'
'Tatara, Ryoichi'
'Ueno, Kazuhide'
'Watanabe, Masayoshi'
'Dokko, Kaoru'
_publ_section_title
;
 Structural Effects of Solvents on Li-Ion-Hopping Conduction in Highly
 Concentrated LiBF<sub>4</sub>/Sulfone Solutions.
;
_journal_issue                   24
_journal_name_full               'The journal of physical chemistry. B'
_journal_page_first              6600
_journal_page_last               6608
_journal_paper_doi               10.1021/acs.jpcb.1c01361
_journal_volume                  125
_journal_year                    2021
_chemical_formula_sum            'C2 H6 B F4 Li O2 S'
_chemical_formula_weight         187.88
_space_group_crystal_system      orthorhombic
_space_group_IT_number           19
_space_group_name_Hall           'P 2ac 2ab'
_space_group_name_H-M_alt        'P 21 21 21'
_atom_sites_solution_hydrogens   geom
_audit_creation_method           SHELXL-2018/3
_cell_angle_alpha                90
_cell_angle_beta                 90
_cell_angle_gamma                90
_cell_formula_units_Z            4
_cell_length_a                   5.1068(4)
_cell_length_b                   8.5769(6)
_cell_length_c                   17.3195(11)
_cell_measurement_reflns_used    2811
_cell_measurement_temperature    223(2)
_cell_measurement_theta_max      26.9470
_cell_measurement_theta_min      4.1300
_cell_volume                     758.60(9)
_computing_cell_refinement       'CrysAlisPro 1.171.39.46e (Rigaku OD, 2018)'
_computing_data_collection       'CrysAlisPro 1.171.39.46e (Rigaku OD, 2018)'
_computing_data_reduction        'CrysAlisPro 1.171.39.46e (Rigaku OD, 2018)'
_computing_structure_refinement  'SHELXL-2018/3 (Sheldrick, 2018)'
_computing_structure_solution    'SHELXT 2014/4 (Sheldrick, 2014)'
_diffrn_ambient_temperature      223(2)
_diffrn_measured_fraction_theta_full 0.996
_diffrn_measured_fraction_theta_max 0.879
_diffrn_measurement_device_type  'XtaLAB AFC12 (RINC): Kappa dual home/near'
_diffrn_measurement_method       '\w scans'
_diffrn_radiation_type           MoK\a
_diffrn_radiation_wavelength     0.71073
_diffrn_reflns_av_R_equivalents  0.0252
_diffrn_reflns_av_unetI/netI     0.0287
_diffrn_reflns_Laue_measured_fraction_full 0.996
_diffrn_reflns_Laue_measured_fraction_max 0.879
_diffrn_reflns_limit_h_max       6
_diffrn_reflns_limit_h_min       -5
_diffrn_reflns_limit_k_max       11
_diffrn_reflns_limit_k_min       -9
_diffrn_reflns_limit_l_max       22
_diffrn_reflns_limit_l_min       -22
_diffrn_reflns_number            4646
_diffrn_reflns_point_group_measured_fraction_full 0.982
_diffrn_reflns_point_group_measured_fraction_max 0.839
_diffrn_reflns_theta_full        25.242
_diffrn_reflns_theta_max         28.096
_diffrn_reflns_theta_min         3.343
_diffrn_source                   'micro-focus sealed X-ray tube'
_exptl_absorpt_coefficient_mu    0.442
_exptl_absorpt_correction_T_max  1.00000
_exptl_absorpt_correction_T_min  0.92686
_exptl_absorpt_correction_type   multi-scan
_exptl_crystal_colour            'clear colourless'
_exptl_crystal_density_diffrn    1.645
_exptl_crystal_description       needle
_exptl_crystal_F_000             376
_exptl_crystal_size_max          0.5
_exptl_crystal_size_mid          0.2
_exptl_crystal_size_min          0.1
_refine_diff_density_max         0.650
_refine_diff_density_min         -0.283
_refine_diff_density_rms         0.063
_refine_ls_abs_structure_details
;
 Flack x determined using 484 quotients [(I+)-(I-)]/[(I+)+(I-)]
 (Parsons, Flack and Wagner, Acta Cryst. B69 (2013) 249-259).
;
_refine_ls_abs_structure_Flack   0.35(5)
_refine_ls_extinction_method     none
_refine_ls_goodness_of_fit_ref   1.080
_refine_ls_hydrogen_treatment    constr
_refine_ls_matrix_type           full
_refine_ls_number_parameters     102
_refine_ls_number_reflns         1550
_refine_ls_number_restraints     0
_refine_ls_restrained_S_all      1.080
_refine_ls_R_factor_all          0.0505
_refine_ls_R_factor_gt           0.0453
_refine_ls_shift/su_max          0.000
_refine_ls_shift/su_mean         0.000
_refine_ls_structure_factor_coef Fsqd
_refine_ls_weighting_details
'w=1/[\s^2^(Fo^2^)+(0.0545P)^2^+0.7040P] where P=(Fo^2^+2Fc^2^)/3'
_refine_ls_weighting_scheme      calc
_refine_ls_wR_factor_gt          0.1131
_refine_ls_wR_factor_ref         0.1162
_reflns_Friedel_coverage         0.593
_reflns_Friedel_fraction_full    0.959
_reflns_Friedel_fraction_max     0.779
_reflns_number_gt                1421
_reflns_number_total             1550
_reflns_threshold_expression     'I > 2\s(I)'
_cod_data_source_file            jp1c01361_si_002.cif
_cod_data_source_block           LiBF4_DMS=1_1
_cod_depositor_comments          'Adding full bibliography for 1563411.cif.'
_cod_database_code               1563411
_shelx_shelxl_version_number     2018/3
_shelx_space_group_comment
;
The symmetry employed for this shelxl refinement is uniquely defined
by the following loop, which should always be used as a source of
symmetry information in preference to the above space-group names.
They are only intended as comments.
;
_shelx_res_file
;
TITL exp_471_a.res in P2(1)2(1)2(1)
    exp_471.res
    created by SHELXL-2018/3 at 16:10:30 on 07-May-2019
REM Old TITL exp_471 in P2(1)2(1)2(1)
REM SHELXT solution in P2(1)2(1)2(1)
REM R1 0.146, Rweak 0.041, Alpha 0.003, Orientation as input
REM Flack x = 0.448 ( 0.034 ) from Parsons' quotients
REM Formula found by SHELXT: C4 Li B O4 S
CELL 0.71073 5.1068 8.5769 17.3195 90 90 90
ZERR 4 0.0004 0.0006 0.0011 0 0 0
LATT -1
SYMM 0.5-X,-Y,0.5+Z
SYMM -X,0.5+Y,0.5-Z
SYMM 0.5+X,0.5-Y,-Z
SFAC C H B F Li O S
UNIT 8 24 4 16 4 8 4

L.S. 4
PLAN  5
BOND $H
LIST 6
fmap 2
acta
REM <olex2.extras>
REM <HklSrc "%.\\exp_471.hkl">
REM </olex2.extras>

WGHT    0.054500    0.704000
FVAR       0.71108
S2    7    1.075615    0.045090    0.588012    11.00000    0.02740    0.03112 =
         0.03076    0.00652    0.00082    0.00132
F10   4    0.182294    0.496836    0.593654    11.00000    0.04329    0.08314 =
         0.04947   -0.00419   -0.01753   -0.01299
O1    6    1.271255    0.023917    0.528880    11.00000    0.04075    0.06406 =
         0.03529    0.01112    0.00930    0.00121
F8    4    0.593247    0.453494    0.637064    11.00000    0.04257    0.12643 =
         0.05447   -0.00777    0.00517    0.03472
O3    6    0.904865    0.177162    0.579254    11.00000    0.04995    0.03231 =
         0.06753    0.00677   -0.00862    0.00671
F6    4    0.262673    0.449963    0.717561    11.00000    0.06177    0.15832 =
         0.04729    0.02441    0.00940    0.00005
F9    4    0.388179    0.671776    0.666981    11.00000    0.10248    0.04264 =
         0.20490   -0.02090   -0.07436    0.00474
C5    1    1.236417    0.056346    0.676729    11.00000    0.04414    0.05535 =
         0.03375    0.00003   -0.00662    0.00155
AFIX 137
H5A   2    1.325098   -0.040252    0.686741    11.00000   -1.50000
H5B   2    1.110959    0.075714    0.716878    11.00000   -1.50000
H5C   2    1.361663    0.139769    0.675378    11.00000   -1.50000
AFIX   0
C4    1    0.881686   -0.121288    0.592341    11.00000    0.03265    0.03310 =
         0.05718    0.00864   -0.00246   -0.00454
AFIX 137
H4A   2    0.782184   -0.130594    0.545540    11.00000   -1.50000
H4B   2    0.764490   -0.113736    0.635518    11.00000   -1.50000
H4C   2    0.991303   -0.211403    0.598355    11.00000   -1.50000
AFIX   0
B7    3    0.357762    0.521699    0.653807    11.00000    0.02403    0.03588 =
         0.03756   -0.00537   -0.00245    0.00196
LI11  5    0.863093    0.396441    0.571343    11.00000    0.03177    0.03544 =
         0.03180    0.00308   -0.00196    0.00384
HKLF 4




REM  exp_471_a.res in P2(1)2(1)2(1)
REM wR2 = 0.1162, GooF = S = 1.080, Restrained GooF = 1.080 for all data
REM R1 = 0.0453 for 1421 Fo > 4sig(Fo) and 0.0505 for all 1550 data
REM 102 parameters refined using 0 restraints

END

WGHT      0.0543      0.7040

REM Highest difference peak  0.650,  deepest hole -0.283,  1-sigma level  0.063
Q1    1   0.4195  0.6729  0.6010  11.00000  0.05    0.65
Q2    1   0.2917  0.5699  0.7174  11.00000  0.05    0.48
Q3    1   0.5910  0.5304  0.6073  11.00000  0.05    0.44
Q4    1   0.4003  0.7072  0.6783  11.00000  0.05    0.26
Q5    1   0.2742  0.6626  0.6828  11.00000  0.05    0.26
;
_shelx_res_checksum              17566
_shelx_hkl_file
;
   0   0  -3   -0.31    0.83
   0   0   3    0.13    0.83
   0   0  -4 5326.67  138.06
   0   0   4 5314.42  138.06
   0   0  -5    0.02    1.09
   0   0   5   -0.14    1.12
   0   0   6 1434.14   37.62
   0   0  -6 1431.70   37.64
   0   0  -7    1.10    1.21
   0   0   7    0.83    1.20
   0   0   8  360.27   10.26
   0   0  -8  374.31   10.31
   0   0   9   -0.06    1.27
   0   0  -9    0.43    1.39
   0   0 -10  580.40   15.80
   0   0  10  563.78   15.69
   0   0 -11    3.82    1.65
   0   0  11    4.36    1.48
   0   0 -12  673.31   18.86
   0   0  12  692.92   18.78
   0   0 -13    4.67    1.75
   0   0  14   44.34    3.28
   0   0 -14   45.10    2.77
   0   0 -15    0.90    1.91
   0   0  15   -2.27    2.45
   0   0  16  508.97   15.02
   0   0  16  545.25   15.39
   0   0  17    1.87    2.12
   0   0  17    1.21    2.63
   0   0  18  178.36    6.48
   0   0  18  198.34    7.08
   0   0  19   -1.11    2.68
   0   0  20   12.07    3.02
   0   0  21    4.13    3.05
   0  -1  -2    0.17    0.47
   0   1   2    0.19    0.87
   0  -1  -2    0.02    0.82
   0   1   2    0.39    0.46
   0  -1  -3   96.92    2.94
   0   1   3   90.73    2.92
   0   1   3   88.81    2.64
   0   1   4 2903.25   76.15
   0  -1  -4 2951.15   76.30
   0   1   4 2951.44   76.28
   0   1   5  136.95    4.06
   0   1   5  127.91    3.81
   0   1  -5  125.96    4.06
   0  -1   6  482.09   13.16
   0   1   6  486.96   13.15
   0   1   6  471.94   12.97
   0   1  -6  487.77   13.14
   0   1  -6  491.75   13.19
   0  -1  -6  481.62   13.14
   0   1   7  387.11   10.68
   0  -1  -7  392.38   10.86
   0   1  -7  386.60   10.89
   0   1  -7  388.35   10.84
   0  -1   7  388.54   10.86
   0   1   7  398.35   10.87
   0  -1   8    5.81    1.42
   0   1   8    5.81    1.66
   0   1   8    5.91    1.25
   0  -1  -8    8.09    1.52
   0   1  -8    6.83    1.45
   0   1  -8    6.28    1.61
   0   1   9   11.73    1.39
   0  -1  -9   11.76    1.57
   0   1  -9   11.79    1.68
   0   1  -9   13.02    1.74
   0   1   9   10.68    1.73
   0  -1   9    9.82    1.47
   0   1  10  489.61   13.59
   0   1 -10  483.33   13.60
   0  -1 -10  481.44   13.61
   0   1 -10  491.32   13.63
   0   1  10  472.43   13.37
   0  -1  10  495.77   13.60
   0   1 -11    3.50    1.64
   0   1  11    4.56    1.30
   0   1 -11    5.04    1.67
   0   1  11    3.54    1.76
   0  -1 -11    9.44    1.81
   0  -1  11    4.38    1.54
   0   1 -12  562.34   16.23
   0   1  12  578.70   16.20
   0  -1 -12  572.58   16.21
   0   1  12  589.07   15.99
   0   1 -12  591.22   16.27
   0   1  13   36.37    2.70
   0  -1 -13   37.93    2.72
   0   1 -13   38.30    2.65
   0   1  13   37.01    2.26
   0   1 -13   37.17    2.64
   0  -1 -14  179.07    6.27
   0   1 -14  191.89    6.37
   0   1 -14  182.93    6.24
   0   1  14  176.95    6.33
   0  -1 -15    5.27    2.13
   0   1 -15    4.92    2.13
   0   1  15    4.43    2.24
   0  -1  15    1.89    2.00
   0   1 -15    5.52    2.23
   0  -1  16    2.63    2.15
   0   1 -16    4.02    2.20
   0  -1 -16   11.60    2.53
   0   1 -16    2.24    2.05
   0   1  16   11.16    2.61
   0   1 -17   15.06    2.46
   0  -1  17   16.06    2.38
   0   1  17   14.48    2.81
   0   1  17   15.42    2.32
   0   1 -18    3.12    2.33
   0   1  18    1.55    2.12
   0   1  18    6.03    2.87
   0   1  19   10.04    3.01
   0   1  19    7.58    2.28
   0  -1  19    7.43    3.07
   0   1  19    6.71    2.24
   0  -1  20   99.89    5.10
   0   1  20   85.07    4.33
   0   1  20  100.70    5.00
   0   1  21    4.00    3.00
   0  -1  21    0.09    3.25
   0   1  21    3.16    2.54
   0   1  22   16.97    2.85
   0  -2   0 9999.00  259.03
   0   2   0 9994.98  259.04
   0  -2  -1  243.60    6.43
   0   2  -1  241.49    6.52
   0   2   1  222.11    6.38
   0  -2   1  239.83    6.56
   0   2   2   83.30    2.69
   0   2  -2   84.07    2.91
   0  -2   2   88.74    2.99
   0   2  -2   96.31    2.63
   0  -2  -2   95.65    2.63
   0   2  -3  257.97    6.90
   0   2  -3  229.60    7.12
   0  -2   3  241.67    7.13
   0  -2  -3  250.60    7.12
   0  -2  -3  262.54    6.80
   0  -2  -3  260.30    6.92
   0  -2  -4  374.69    9.77
   0  -2  -4  369.63   10.09
   0   2   4  365.93   10.11
   0  -2  -4  357.60    9.93
   0   2  -4  365.42    9.94
   0   2  -5    2.62    1.11
   0  -2  -5    2.80    1.30
   0  -2  -5    1.94    1.10
   0   2   5    2.23    0.85
   0   2   5    0.46    1.29
   0   2   6  288.77    8.07
   0   2   6  271.43    7.74
   0  -2  -6  285.97    8.06
   0  -2  -6  279.10    7.95
   0   2  -6  290.34    7.97
   0   2   6  282.84    7.73
   0   2   7  134.29    4.39
   0   2  -7  128.67    4.23
   0   2   7  131.80    4.02
   0  -2  -7  138.73    4.44
   0  -2  -7  129.63    4.25
   0   2   7  133.98    4.03
   0   2   8   13.55    1.25
   0  -2   8   11.71    1.60
   0   2  -8   15.47    1.82
   0   2  -8   14.36    1.58
   0   2   8   14.08    1.75
   0   2   8   13.05    1.25
   0  -2  -8   14.45    1.63
   0   2  -9  174.70    5.58
   0   2   9  178.61    5.28
   0   2   9  175.48    5.62
   0  -2  -9  172.89    5.58
   0   2  -9  170.03    5.71
   0   2   9  179.77    5.28
   0   2  10  171.56    5.63
   0   2  10  168.13    5.27
   0  -2 -10  177.12    5.62
   0   2 -10  174.75    5.60
   0   2 -10  171.58    5.72
   0   2  10  177.22    5.33
   0   2  11   45.32    2.16
   0   2  11   47.74    2.23
   0  -2 -11   48.27    2.60
   0   2 -11   43.85    2.67
   0   2  11   45.36    2.69
   0   2 -11   46.56    2.57
   0  -2 -12   59.38    3.04
   0   2  12   60.98    2.66
   0   2 -12   61.51    3.06
   0   2 -12   62.43    3.18
   0   2  12   62.55    3.20
   0   2  12   58.26    2.59
   0  -2 -13  242.29    7.84
   0   2 -13  252.38    7.97
   0   2 -13  244.59    7.78
   0   2  13  245.28    7.44
   0   2  13  252.22    7.86
   0   2  13  250.02    7.51
   0   2  14    5.62    1.53
   0   2  14    7.08    1.74
   0  -2 -14    7.29    1.99
   0   2 -14    7.63    2.10
   0   2 -14    6.85    2.15
   0  -2  14    6.04    2.01
   0   2  14    8.16    2.36
   0   2 -15    3.39    2.03
   0   2  15    0.81    1.74
   0   2 -15    1.23    2.09
   0  -2 -15    4.37    2.13
   0   2  15    4.01    2.43
   0  -2  15    2.16    2.10
   0  -2  16  307.59   10.02
   0   2  16  308.00    9.61
   0  -2 -16  336.05   10.15
   0   2  16  326.52   10.07
   0   2 -16  332.70   10.21
   0   2 -16  324.54   10.07
   0   2  17    7.11    2.19
   0   2 -17    0.45    2.37
   0   2 -18   89.66    4.47
   0   2  18   91.91    4.52
   0   2  18   84.77    3.89
   0   2  18   92.38    4.01
   0   2  19   12.75    2.35
   0   2  19    9.22    2.18
   0   2 -19   12.23    2.77
   0   2  19   14.96    3.00
   0   2 -20    2.06    2.61
   0   2  20    4.61    2.78
   0   2  20    0.85    2.15
   0   2  21   19.22    3.29
   0   2  21   16.30    2.54
   0  -3   0    1.47    1.05
   0   3   0    0.59    1.08
   0   3   1 1121.67   29.41
   0   3  -1 1134.67   29.53
   0  -3   1 1112.97   29.51
   0  -3  -1 1117.08   29.42
   0  -3  -2  146.48    4.39
   0   3  -2  144.37    4.61
   0   3   2  146.77    4.37
   0  -3   2  146.53    4.63
   0  -3  -2  157.98    4.18
   0   3  -2  159.15    4.19
   0  -3  -3  313.99    8.18
   0   3  -3  303.99    8.56
   0  -3  -3  290.20    8.53
   0   3  -3  313.40    8.18
   0   3   3  289.32    8.23
   0  -3   3  298.26    8.55
   0   3  -4   61.32    2.73
   0   3   4   64.05    2.25
   0  -3  -4   66.92    2.29
   0  -3  -4   66.37    2.71
   0   3  -4   69.48    2.30
   0  -3   4   65.57    2.70
   0  -3  -4   70.16    2.12
   0  -3  -5    5.21    1.10
   0   3  -5    6.20    1.17
   0  -3  -5    4.47    0.79
   0  -3  -5    4.12    1.52
   0  -3   5    4.93    1.49
   0   3  -5    4.47    1.42
   0   3   6  274.77    7.79
   0  -3   6  253.95    7.80
   0   3  -6  263.96    7.53
   0  -3  -6  261.95    7.50
   0  -3  -6  268.66    7.73
   0   3  -7  136.33    4.36
   0  -3  -7  138.52    4.38
   0  -3  -7  139.08    4.61
   0   3   7  135.44    4.64
   0  -3  -8  298.20    8.72
   0   3   8  304.92    8.80
   0   3  -8  302.58    8.61
   0  -3  -8  299.46    8.60
   0   3   8  292.44    8.30
   0  -3  -9   14.03    1.71
   0   3   9   14.60    1.34
   0   3   9   16.91    1.92
   0   3  -9   13.61    1.65
   0  -3  -9   13.07    1.92
   0   3   9   13.16    1.27
   0   3  10   34.20    2.35
   0   3 -10   34.92    2.18
   0  -3 -10   31.91    2.10
   0   3  10   32.49    1.77
   0   3 -10   27.05    2.38
   0  -3 -10   33.71    2.47
   0   3  10   31.48    1.72
   0   3 -11   28.59    2.14
   0  -3 -11   28.16    2.15
   0   3  11   24.78    1.66
   0   3 -11   23.10    2.24
   0   3  11   24.99    1.72
   0   3  11   25.97    2.26
   0   3 -12  143.37    5.17
   0   3  12  146.76    4.74
   0   3 -12  154.01    5.48
   0   3  12  152.25    5.30
   0   3  12  145.17    4.78
   0  -3 -12  152.14    5.24
   0   3  13   28.82    2.71
   0   3 -13   26.86    2.35
   0  -3 -13   27.94    2.52
   0   3  13   28.21    1.93
   0   3 -13   30.87    2.72
   0   3  13   27.20    1.97
   0   3  14    5.68    1.61
   0   3 -14    3.55    2.26
   0   3 -14    4.94    1.94
   0  -3 -14    3.34    2.11
   0   3  14    3.58    2.30
   0   3  14    7.34    1.55
   0  -3  14    6.90    2.13
   0   3  15    7.84    1.76
   0   3 -15    3.55    2.36
   0   3  15    6.18    2.31
   0  -3  15    6.41    2.28
   0  -3 -15    6.49    2.27
   0   3 -15    7.48    2.10
   0   3 -16   -0.27    2.15
   0  -3 -16   -0.07    2.23
   0   3  16    0.97    1.70
   0   3  16    0.77    2.38
   0   3 -16    1.99    2.24
   0   3  17   45.28    3.42
   0   3 -17   49.01    3.45
   0   3  17   43.75    2.71
   0   3  18    5.73    2.62
   0   3  18    8.38    2.02
   0   3 -18    9.96    2.69
   0   3  19   24.13    3.11
   0   3 -19   27.52    3.26
   0   3  19   20.52    2.37
   0   3  20   18.24    3.19
   0   3 -20   17.13    3.07
   0   3  21   -0.17    2.86
   0   4   0  457.80   12.25
   0  -4   0  440.08   12.21
   0  -4  -1  157.58    4.71
   0   4  -1  158.81    4.86
   0   4   1  157.03    4.72
   0  -4   1  154.24    4.88
   0   4   2   68.71    2.51
   0  -4   2   69.14    2.78
   0  -4  -2   67.79    2.52
   0   4  -2   74.82    2.78
   0   4  -3  109.53    3.90
   0   4  -3  116.29    3.32
   0  -4   3  105.77    3.92
   0   4   3  114.92    3.56
   0  -4  -3  117.90    3.31
   0  -4  -4   17.62    1.14
   0  -4   4   18.14    1.90
   0   4  -4   15.39    1.75
   0  -4  -4   18.43    1.82
   0   4   4   15.83    1.22
   0   4  -4   16.54    1.12
   0  -4  -5  122.73    3.55
   0   4   5  113.75    3.69
   0   4  -5  115.64    4.18
   0  -4   5  117.74    4.18
   0  -4  -5  127.77    4.25
   0  -4  -5  127.00    3.73
   0   4  -5  121.19    3.72
   0  -4  -6   12.64    1.71
   0  -4   6   13.80    1.86
   0  -4  -6   11.59    0.97
   0  -4  -6   13.58    1.27
   0   4   6   11.12    1.18
   0   4  -6   12.50    1.80
   0   4  -6   11.69    1.29
   0   4  -7    5.66    1.28
   0  -4  -7    4.32    1.26
   0  -4  -7    7.12    1.81
   0   4  -7    5.18    1.72
   0  -4  -8   43.01    2.15
   0  -4  -8   45.95    2.56
   0   4  -8   45.90    2.69
   0   4  -8   41.62    2.14
   0  -4  -9   70.85    2.91
   0  -4  -9   76.14    3.22
   0   4   9   66.95    2.52
   0   4  -9   72.07    2.93
   0   4   9   72.09    3.31
   0  -4 -10    8.08    1.63
   0  -4 -10    7.87    1.95
   0   4 -10    8.29    1.66
   0   4  10    8.14    2.06
   0   4  10    9.05    1.22
   0  -4 -11    1.20    1.64
   0  -4 -11   -3.94    2.07
   0   4  11   -0.66    2.05
   0   4 -11    0.22    1.62
   0   4  11    1.17    1.16
   0   4  12   15.45    2.47
   0   4  12   15.48    1.47
   0   4 -12   17.57    2.09
   0  -4 -12   19.20    2.23
   0   4  13  265.09    8.51
   0   4 -13  271.22    8.71
   0   4 -13  273.19    8.35
   0   4  13  262.51    7.76
   0  -4 -13  262.15    8.29
   0   4 -14   -0.23    1.95
   0   4  14    0.31    2.30
   0   4 -14   -1.93    2.35
   0  -4  14    0.95    2.10
   0   4  14    1.05    1.36
   0  -4 -14    0.52    2.03
   0   4  15   12.31    2.71
   0   4  15   15.30    1.69
   0   4 -15   12.83    2.64
   0  -4 -15   14.13    2.39
   0   4 -15   15.45    2.29
   0  -4 -16   83.47    4.05
   0   4 -16   80.08    4.01
   0   4  16   81.02    3.37
   0   4 -16   84.70    4.43
   0   4  16   81.45    4.25
   0   4 -17    5.25    2.67
   0   4  17    7.55    2.77
   0   4  17    5.50    1.80
   0   4 -18   24.06    3.14
   0   4  18   26.58    3.16
   0   4  19   40.65    3.61
   0   4 -19   44.32    3.79
   0   4  20    0.68    3.01
   0   5   0    0.61    1.30
   0  -5   0   -0.09    1.37
   0  -5  -1  958.20   25.44
   0   5  -1  970.09   25.54
   0   5   1  946.28   25.41
   0  -5   1  949.99   25.54
   0   5   2   72.82    2.71
   0  -5  -2   70.11    2.67
   0  -5   2   70.41    2.95
   0   5  -2   70.53    2.94
   0   5  -3  247.87    7.32
   0  -5   3  246.08    7.31
   0   5   3  238.65    6.93
   0  -5   4  145.55    4.97
   0   5   4  142.73    4.47
   0  -5  -4  159.02    5.12
   0   5  -4  153.78    5.04
   0   5   5   52.22    2.11
   0   5  -5   55.27    2.69
   0  -5  -5   52.52    2.76
   0  -5   5   49.26    2.75
   0  -5  -5   51.85    1.94
   0   5  -6  156.50    5.39
   0   5  -6  159.50    4.76
   0   5   6  152.59    4.72
   0  -5  -6  161.06    4.57
   0  -5   6  152.62    5.34
   0  -5  -6  166.33    4.78
   0  -5  -6  162.72    5.36
   0  -5  -7   85.40    3.00
   0  -5  -7   84.19    3.52
   0   5  -7   81.97    3.68
   0   5   7   84.11    2.90
   0  -5   7   83.59    3.71
   0   5  -7   85.28    3.00
   0   5  -8   -0.05    1.87
   0  -5  -8    4.32    1.87
   0  -5  -8    1.48    1.25
   0   5   8    0.43    1.16
   0   5  -8    0.69    1.28
   0   5   9   32.96    1.79
   0   5  -9   29.78    2.52
   0   5  -9   31.19    2.05
   0  -5  -9   32.18    2.07
   0  -5  -9   40.74    2.70
   0   5  10   -0.13    1.26
   0   5  10    0.22    1.10
   0  -5 -10    0.32    1.48
   0  -5 -10   -1.24    2.01
   0   5 -10   -0.06    2.04
   0   5 -10    0.12    1.52
   0  -5 -11  146.97    4.89
   0   5  11  133.54    4.35
   0   5 -11  133.59    4.82
   0  -5 -11  146.21    5.25
   0   5 -11  139.20    5.43
   0  -5  12    5.82    2.19
   0   5  12    3.16    1.22
   0  -5 -12    3.13    1.81
   0   5 -12    3.88    1.83
   0  -5 -12    0.35    2.23
   0   5 -13   13.08    2.16
   0   5  13   10.96    1.41
   0  -5 -13   12.43    2.70
   0  -5 -13   12.17    2.11
   0   5  14    1.12    2.53
   0  -5 -14    4.53    2.04
   0   5 -14    2.56    2.00
   0   5  15   58.66    3.74
   0  -5 -15   54.72    3.31
   0   5 -15   54.05    3.26
   0   5  16   30.99    3.19
   0   5 -16   37.05    3.41
   0   5  17   79.06    4.36
   0   5 -17   83.11    4.52
   0   5  18   14.34    3.08
   0   5 -18   14.59    2.92
   0   5  19   23.93    3.37
   0   6   0  262.16    7.52
   0  -6   0  243.50    7.47
   0  -6  -1  207.02    6.37
   0   6  -1  216.64    6.47
   0  -6   1  209.63    6.46
   0   6   1  206.70    6.29
   0  -6  -2   31.96    2.00
   0   6  -2   35.65    2.29
   0  -6   2   35.10    2.33
   0   6   2   37.23    1.96
   0   6   3  802.40   21.68
   0   6  -3  821.04   22.06
   0  -6   3  809.17   22.05
   0  -6  -4   38.04    2.70
   0   6   4   32.91    1.97
   0   6   5   74.54    2.78
   0   6  -5   75.70    3.45
   0  -6  -5   79.92    3.59
   0  -6   5   72.02    3.36
   0  -6  -6    1.39    0.97
   0  -6   6    2.99    2.05
   0   6   6    5.60    1.29
   0   6  -6    2.12    1.87
   0  -6  -7   44.10    2.96
   0  -6   7   26.38    2.64
   0   6   7   51.45    2.11
   0   6  -7   30.69    2.60
   0  -6  -7   37.09    1.61
   0   6  -8    4.79    2.08
   0  -6   8    2.34    2.20
   0   6   8    9.49    1.35
   0  -6  -8    8.63    2.31
   0   6  -9  263.68    8.32
   0  -6  -9  260.32    7.54
   0  -6  -9  256.00    8.06
   0   6  -9  261.65    7.54
   0   6   9  241.01    7.24
   0  -6   9  253.56    8.30
   0   6  10    2.24    1.32
   0  -6  10    2.50    2.42
   0  -6 -10    4.80    2.37
   0  -6 -10    2.90    1.62
   0   6 -10    0.74    1.54
   0   6 -10    5.10    2.39
   0  -6 -11   29.48    2.85
   0   6  11   27.18    1.80
   0   6 -11   27.76    2.10
   0  -6  11   26.19    2.97
   0  -6 -11   25.59    2.14
   0   6  11   29.28    1.71
   0   6 -11   30.91    2.95
   0   6  12   18.28    1.65
   0   6 -12   24.01    2.21
   0  -6 -12   21.71    2.71
   0  -6 -12   20.62    2.18
   0   6  12   23.50    1.60
   0   6 -12   24.46    2.91
   0  -6 -13  207.65    6.70
   0  -6 -13  216.56    7.23
   0   6 -13  231.04    7.50
   0   6  13  184.67    6.02
   0   6 -13  202.13    6.67
   0  -6 -14   -1.54    1.97
   0   6 -14   -0.06    1.92
   0   6 -14    1.34    2.44
   0  -6 -15   79.48    3.88
   0   6 -15   81.84    3.88
   0  -7   0    0.08    1.76
   0   7   0   -0.24    1.62
   0  -7  -1  273.24    8.26
   0   7   1  282.51    8.26
   0  -7   1  277.87    8.42
   0   7  -1  280.57    8.39
   0  -7  -2   71.05    3.08
   0  -7   2   72.84    3.37
   0   7   2   76.24    3.06
   0   7  -2   71.44    3.33
   0  -7   3   24.65    2.36
   0   7  -3   25.92    2.33
   0   7   3   25.12    1.87
   0  -7  -4    6.71    2.55
   0  -7   4    2.35    2.09
   0   7  -4    0.94    1.93
   0   7   4    4.12    1.45
   0   7  -5  239.73    7.49
   0   7   5  225.55    6.80
   0  -7  -5  236.71    7.61
   0  -7   5  227.89    7.49
   0  -7   6   17.71    2.49
   0   7   6   18.56    1.66
   0  -7  -6   17.15    2.51
   0   7  -6   19.51    2.43
   0  -7  -6   20.44    1.31
   0   7  -7  201.19    6.79
   0  -7  -7  202.41    6.75
   0  -7   7  190.99    6.72
   0  -7  -7  196.39    5.55
   0   7   7  188.77    5.82
   0  -7  -8   20.56    2.54
   0   7   8   17.54    1.56
   0  -7   8   18.39    2.63
   0   7  -8   22.37    2.60
   0   7  -9   35.39    2.91
   0   7   9   31.64    1.84
   0  -7   9   28.23    2.86
   0  -7  -9   32.08    2.93
   0   7 -10   44.98    3.27
   0   7  10   43.38    2.09
   0  -7 -10   47.94    3.32
   0   7 -11  114.20    5.05
   0  -7 -11  112.07    4.89
   0   7 -12   17.33    2.94
   0   7 -13   25.75    3.06
   0   7 -14   15.58    2.94
   0   7 -15   19.30    3.17
   0  -8   0  112.02    4.36
   0   8   0  116.48    4.35
   0  -8   1  138.14    5.15
   0   8  -1  151.93    5.18
   0   8   1  136.37    4.93
   0  -8  -1  145.00    4.98
   0   8   2    4.70    1.74
   0  -8  -2    3.53    1.81
   0  -8   2    3.92    2.06
   0   8  -2    3.39    1.95
   0   8  -3  209.63    6.89
   0   8   3  211.51    6.46
   0  -8   3  200.75    6.88
   0  -8   4   29.37    2.72
   0   8   4   33.28    2.13
   0  -8  -4   32.52    3.19
   0   8  -4   28.83    2.58
   0   8   5   16.39    1.75
   0  -8  -5   18.39    2.89
   0   8  -5   15.66    2.43
   0  -8   5   17.97    2.55
   0   8   6    8.46    1.51
   0  -8   6   11.02    2.51
   0   8  -6    8.73    2.35
   0  -8  -6    9.97    2.66
   0  -8  -7    2.87    2.51
   0   8   7    3.14    1.42
   0   8  -7    2.15    2.20
   0  -8   7    3.42    2.35
   0   8  -8   13.48    2.60
   0  -8  -8    9.39    2.48
   0   8  -9   79.83    4.20
   0   8 -10    7.98    2.66
   0   8 -11   16.25    2.84
   0   8 -12   12.87    2.99
   0   8 -13   28.86    3.25
   0   9   0   -0.79    1.87
   0  -9   0    1.28    2.08
   0   9   1    5.87    1.88
   0   9  -1    2.81    1.97
   0  -9   1    4.85    2.23
   0  -9  -1    4.13    2.00
   0   9  -2   75.13    3.61
   0  -9   2   74.33    3.78
   0   9   2   69.11    3.27
   0   9   3    4.97    1.76
   0   9  -3    8.14    2.24
   0  -9   3    6.33    2.37
   0   9   4   96.95    3.77
   0  -9   4   94.51    4.41
   0   9  -4  104.89    4.46
   0   9  -5    1.58    2.25
   0  -9   5    2.80    2.42
   0   9  -6    1.37    2.26
   0   9  -7    5.20    2.48
   0   9  -8   64.59    3.88
   0   9  -9    1.66    2.50
   0   9 -10   58.04    3.95
   0   9 -11    6.26    2.90
   0  10   0   38.39    2.78
   0  10  -1    2.50    2.09
   0  10  -2    1.61    2.06
   0  10  -3    1.62    2.26
   0  10  -4   14.90    2.57
   0  10  -5    0.60    2.35
   0  10  -6   17.53    2.75
   0  10  -7    1.31    2.51
   0  10  -8    6.19    2.68
   0  10  -9    3.07    2.72
  -1   0   0    1.66    0.76
   1   0   0   -0.02    0.74
   1   0   1   18.80    1.17
   1   0  -1   17.62    1.23
  -1   0  -1   17.09    1.14
   1   0   2 2204.54   59.69
   1   0  -2 2330.44   59.67
  -1   0   2 2339.10   59.67
  -1   0   3 3283.70   85.03
   1   0  -3 3282.62   85.04
   1   0   3 3244.75   85.15
   1   0   4  499.08   13.60
   1   0  -4  501.84   13.40
  -1   0   4  504.12   13.39
   1   0  -5 2584.99   66.99
   1   0   5 2519.88   67.21
  -1   0   5 2590.06   66.97
  -1   0   6 1091.87   28.17
   1   0   6 1032.02   28.46
   1   0   6 1063.61   28.39
   1   0  -6 1075.80   28.19
   1   0   6 1062.52   28.36
   1   0   7 1153.61   31.47
   1   0  -7 1194.99   31.28
  -1   0   7 1203.86   31.26
   1   0   7 1177.80   31.46
   1   0   8   64.03    2.85
  -1   0   8   67.13    2.58
   1   0  -8   67.23    2.63
   1   0   8   61.87    2.75
   1   0   9 2311.18   62.41
   1   0  -9 2399.61   62.28
  -1   0   9 2404.47   62.21
   1   0 -10    1.67    1.40
   1   0  10    0.74    1.54
  -1   0  10    3.76    1.27
  -1   0  11   15.53    1.54
   1   0 -11   15.49    1.64
   1   0  11   13.16    1.61
   1   0 -12  207.47    6.37
  -1   0  12  206.08    6.31
   1   0  12  188.48    6.72
   1   0 -13  366.95   10.49
  -1   0  13  354.31   10.37
   1   0  13  356.48   10.88
   1   0 -14  270.81    8.08
   1   0  14  248.25    8.21
   1   0  14  262.16    8.55
   1   0  15  148.80    5.61
   1   0  15  143.66    5.49
   1   0 -15  163.04    5.49
   1   0  15  162.72    6.05
   1   0  16    1.19    2.04
  -1   0  16    1.46    2.43
   1   0  16    2.45    2.59
   1   0 -16    4.19    2.08
   1   0  16    3.90    2.16
   1   0 -17   16.89    2.49
   1   0  17    2.33    2.17
   1   0  17    0.08    2.58
  -1   0  17   11.94    2.24
   1   0  17    1.73    2.17
  -1   0  17   15.89    2.76
   1   0  18   32.49    2.97
   1   0  18   32.31    3.34
  -1   0  18   40.26    3.36
   1   0 -18   35.33    2.81
  -1   0  18   35.48    2.76
   1   0  19   45.03    3.80
   1   0 -19   47.71    3.15
  -1   0  19   45.76    3.57
   1   0  19   38.05    3.25
  -1   0  19   45.01    3.06
   1   0  20   10.11    3.11
  -1   0  20    7.01    2.83
   1   0  20    7.04    2.58
  -1   0  21   34.22    3.47
   1   0  21   32.22    3.28
  -1   0  22   14.30    3.16
  -1   1  22    4.65    3.07
   1   1 -22    3.50    2.70
   1  -1  21   19.08    3.07
  -1   1  21   21.88    3.21
   1   1 -21   23.66    2.94
   1  -1  20   19.11    2.92
  -1   1  20   22.20    3.07
   1  -1  20   15.14    3.39
   1   1 -20   23.23    2.90
  -1   1  19   20.57    2.91
   1  -1  19   15.41    3.13
   1  -1  19   16.44    2.80
   1   1 -19   16.67    2.67
  -1   1  19   20.98    2.46
  -1   1  18   57.71    3.56
   1   1 -18   62.07    3.62
   1  -1  18   56.29    4.03
  -1   1  18   58.23    3.10
   1  -1  17  137.53    5.95
  -1   1  17  132.65    5.33
   1   1 -17  141.03    5.36
   1   1 -16   20.29    2.63
   1  -1  16   21.63    2.58
   1   1 -16   20.11    2.48
  -1  -1 -16   17.85    2.67
  -1   1  16   17.47    2.51
   1  -1  15    7.75    2.15
  -1   1  15    4.72    2.19
   1   1 -15    4.58    2.09
  -1  -1 -15    3.53    2.18
  -1   1  14   74.53    3.15
  -1  -1 -14   72.22    3.60
  -1   1  14   73.01    3.45
   1   1 -14   78.87    3.53
   1  -1  14   73.33    3.60
  -1  -1 -13  182.00    6.35
  -1   1  13  185.24    5.83
   1   1 -13  186.55    6.16
  -1   1  13  188.20    6.10
  -1   1  12    1.97    1.65
  -1   1  12    1.57    1.28
   1   1 -12    1.97    1.69
  -1   1  11  131.42    4.25
  -1  -1 -11  123.49    4.66
   1   1 -11  134.05    4.60
  -1   1  11  137.23    4.54
  -1   1  10  242.81    7.24
  -1   1  10  243.16    7.04
  -1  -1 -10  240.40    7.44
   1   1 -10  247.79    7.36
  -1   1   9    9.35    1.50
   1   1  -9   11.04    1.69
  -1   1   9   11.62    1.31
  -1  -1  -9   10.09    1.75
   1  -1   8   31.98    2.13
  -1   1   8   36.59    1.90
   1   1  -8   34.51    2.06
  -1   1   8   35.60    1.67
  -1   1   7   34.21    1.76
  -1   1   7   29.13    1.45
   1  -1   7   29.60    1.98
   1   1  -7   30.96    1.92
  -1   1   6  536.20   14.36
  -1   1   6  546.48   14.45
   1  -1   6  535.72   14.71
   1   1  -6  539.89   14.68
  -1   1   5  835.48   22.28
   1   1  -5  857.31   22.62
  -1  -1  -5  852.29   22.60
  -1   1   5  854.05   22.35
   1  -1   5  863.90   22.64
  -1  -1  -4   64.40    2.43
  -1   1   4   66.43    2.11
   1  -1   4   61.43    2.51
  -1   1   4   66.65    2.05
  -1   1   4   67.77    2.39
   1   1  -4   66.41    2.49
  -1  -1  -3  931.98   24.44
   1  -1   3  917.65   24.47
  -1   1   3  936.54   24.11
  -1   1   3  932.28   24.13
   1  -1   3  878.40   24.44
  -1  -1  -3  858.67   24.43
   1   1  -3  952.47   24.46
  -1   1   3  951.52   24.33
   1   1  -2 1155.10   29.61
   1  -1   2 1148.64   29.55
  -1  -1  -2 1075.03   29.56
   1  -1   2 1103.97   29.57
  -1  -1  -2 1099.76   29.42
  -1   1   2 1169.95   29.44
  -1  -1  -1 2266.05   58.54
   1  -1   1 2320.87   58.50
  -1  -1  -1 2186.45   58.38
  -1   1   0   14.31    1.09
   1  -1  -1 2332.30   60.56
  -1   1  -1 2328.53   60.66
   1   1   2 1092.98   29.63
   1   1   2 1142.91   29.81
   1  -1  -2 1175.39   29.65
   1  -1  -2 1130.74   29.51
  -1  -1   3  941.17   24.21
   1  -1  -3  922.94   23.90
   1   1   3  900.80   24.22
   1   1   3  894.30   24.09
   1   1   4   63.38    2.29
  -1  -1   4   66.47    2.42
   1   1   4   59.37    2.49
   1  -1  -4   61.73    1.98
   1   1   4   63.38    2.44
   1  -1  -5  864.17   22.42
   1   1   5  843.72   22.75
   1   1   5  850.20   22.76
  -1  -1   5  849.65   22.69
   1  -1  -6  553.38   14.47
  -1  -1   6  539.70   14.76
   1   1   6  535.54   14.78
   1   1   6  538.47   14.83
   1   1   7   30.98    1.99
   1   1   7   28.44    1.90
   1  -1  -7   29.18    1.48
  -1  -1   7   28.85    1.86
   1   1   8   31.93    1.98
   1   1   8   31.61    1.93
   1   1   8   34.71    2.01
  -1  -1   8   33.48    1.96
   1  -1  -8   36.97    1.67
   1  -1  -9   13.42    1.34
   1   1   9   12.15    1.67
   1   1   9   14.82    1.84
  -1   1  -9   12.58    1.72
   1   1   9   14.50    1.81
  -1  -1   9   11.30    1.53
  -1   1 -10  233.45    7.38
   1   1  10  227.38    7.19
  -1  -1  10  242.25    7.21
   1   1  10  236.93    7.27
   1  -1 -10  251.63    6.99
  -1   1 -11  121.91    4.64
   1   1  11  128.44    4.49
   1   1  11  129.33    4.79
   1  -1 -11  126.38    4.19
   1   1  11  130.78    4.53
  -1  -1  11  129.38    4.42
   1   1  12    6.08    2.31
   1  -1 -12    2.05    1.39
  -1   1 -12   -0.10    1.75
   1   1  12    7.06    1.81
  -1   1 -13  181.08    6.30
   1  -1 -13  197.96    6.00
   1   1  13  185.06    6.49
   1   1  13  183.23    6.21
   1   1  14   69.57    3.47
   1   1  14   74.04    3.95
  -1   1 -14   71.12    3.62
   1  -1 -14   80.06    3.29
   1   1  15    3.00    1.96
  -1   1 -15    2.38    2.02
   1   1  15    4.91    2.02
   1   1  15    4.16    2.51
   1  -1 -15   10.34    1.99
  -1  -1  16   20.64    2.40
   1  -1 -16   20.79    2.66
   1   1  16   22.01    2.92
   1   1  16   17.20    2.35
   1   1  16   20.14    2.46
  -1   1 -16   18.98    2.61
   1  -1 -16   20.82    2.20
  -1  -1  17  136.08    5.11
   1   1  17  132.97    5.66
   1   1  17  121.10    5.11
   1   1  17  129.86    5.10
   1   1  18   62.71    3.96
   1   1  18   55.62    3.35
   1   1  18   54.49    3.50
  -1  -1  18   58.18    3.40
   1   1  19   19.02    3.33
   1   1  19   15.15    2.58
  -1  -1  20   20.65    3.32
   1   1  20   25.66    3.51
   1   1  20   21.34    2.82
   1   1  21   18.42    2.85
  -1  -1  21   20.32    3.45
   1   1  22    1.11    2.71
  -1   2  22   24.24    3.37
   1   2 -21   23.16    3.25
  -1   2  21   22.15    3.15
   1   2 -20   11.10    2.81
  -1   2  20   12.23    2.91
   1  -2  20   10.86    3.53
  -1   2  20   17.46    3.38
  -1   2  19   38.65    3.48
  -1   2  19   35.33    3.12
   1   2 -19   34.05    3.23
  -1   2  18   48.85    3.36
  -1   2  18   49.28    3.61
   1   2 -18   44.64    3.34
  -1   2  17   10.92    2.72
   1   2 -17    6.22    2.46
  -1   2  17    6.57    2.44
   1   2 -16   18.24    2.58
  -1   2  16   14.85    2.49
  -1   2  16   19.37    2.87
   1  -2  16   17.57    2.63
   1   2 -16   15.70    2.55
   1   2 -15   51.19    3.23
  -1  -2 -15   42.66    3.09
  -1   2  15   54.35    3.12
  -1   2  15   48.55    2.48
   1  -2  15   45.62    3.19
  -1   2  14  283.90    8.63
   1  -2  14  262.21    8.84
  -1  -2 -14  279.71    8.87
   1   2 -14  291.55    8.95
  -1   2  14  288.89    8.28
  -1   2  13  200.04    6.50
   1   2 -13  213.02    6.86
  -1   2  13  200.71    6.13
  -1  -2 -13  201.91    6.76
  -1   2  12   97.65    3.76
  -1   2  12   97.50    4.04
  -1   2  12   95.49    3.31
   1   2 -12   93.41    3.93
  -1  -2 -12   90.88    3.89
  -1   2  11   60.42    3.07
  -1  -2 -11   58.32    3.00
  -1   2  11   62.83    2.81
   1   2 -11   63.22    3.08
  -1   2  11   60.71    2.39
   1   2 -10   38.32    2.37
  -1   2  10   34.23    1.68
  -1   2  10   32.31    2.05
  -1   2  10   38.68    2.43
  -1   2   9  673.72   17.77
  -1   2   9  636.01   17.97
  -1   2   9  651.29   17.45
   1   2  -9  662.81   18.06
  -1   2   8  343.25    9.68
  -1   2   8  327.33    9.08
  -1   2   8  340.68    9.39
   1  -2   8  331.15    9.61
   1   2  -8  346.16    9.76
   1  -2   7  162.23    5.64
   1  -2   7  188.59    5.67
   1   2  -7  185.14    5.74
  -1   2   7  187.08    5.38
  -1   2   7  186.21    5.72
  -1   2   7  181.20    5.04
  -1  -2  -6  687.20   18.44
  -1   2   6  695.03   18.32
  -1   2   6  675.20   18.04
   1  -2   6  684.30   18.69
   1  -2   6  692.90   18.54
   1   2  -6  703.14   18.67
  -1   2   6  709.01   18.61
  -1   2   5  133.20    3.67
  -1   2   5  139.25    4.06
  -1   2   5  147.34    4.46
   1  -2   5  136.99    4.45
   1   2  -5  133.15    4.45
  -1  -2  -5  136.26    4.20
   1  -2   5  136.58    4.27
  -1   2   4  401.91   10.70
  -1  -2  -4  373.75   10.61
   1  -2   4  398.84   10.61
  -1  -2  -4  384.22   10.60
   1  -2   4  375.28   10.71
   1  -2   3  400.46   10.81
  -1  -2  -3  388.05   10.75
   1  -2   2 1651.30   43.62
  -1  -2  -2 1683.16   43.63
   1  -2   1  800.64   21.11
   1  -2   0  100.01    2.94
   1  -2   0   99.46    2.92
  -1  -2   0   96.19    3.31
   1   2   1  788.15   21.21
   1  -2  -1  803.59   20.85
  -1   2  -1  812.74   21.05
   1  -2  -1  787.27   20.86
   1  -2  -2 1755.69   45.55
  -1   2  -2 1728.05   45.57
   1  -2  -3  431.41   11.38
   1  -2  -3  433.97   11.62
  -1   2  -3  413.23   11.67
   1   2   4  397.22   10.82
   1  -2  -4  389.39   10.82
   1   2   4  366.50   10.83
  -1   2  -4  399.84   10.93
   1  -2  -4  410.14   10.59
   1  -2  -5  145.40    4.13
   1   2   5  131.72    4.45
   1   2   5  139.22    4.38
  -1   2  -5  141.02    4.55
  -1  -2   5  132.97    4.44
   1   2   6  670.60   18.74
  -1   2  -6  658.39   18.82
   1   2   6  682.43   18.72
   1  -2  -6  711.85   18.21
  -1  -2   6  705.82   18.80
   1   2   7  183.83    5.80
  -1  -2   7  184.81    5.85
   1  -2  -7  194.06    5.23
   1   2   7  187.20    5.75
   1   2   7  181.95    5.85
  -1  -2   8  336.09    9.74
   1   2   8  333.23    9.72
   1   2   8  335.28    9.62
   1   2   8  326.19    9.72
   1  -2  -8  346.99    9.18
  -1  -2   9  662.59   18.00
   1   2   9  654.67   18.06
   1   2   9  626.46   17.83
   1   2   9  652.77   17.88
   1  -2  -9  673.49   17.48
   1   2   9  650.28   18.10
   1   2  10   32.61    2.49
  -1  -2  10   34.15    2.18
   1   2  10   33.43    2.36
   1   2  10   35.43    2.11
   1   2  10   37.13    2.18
   1   2  11   61.89    3.20
   1   2  11   65.60    3.23
   1   2  11   60.96    2.87
   1   2  11   57.79    2.83
  -1   2 -11   62.06    3.14
   1   2  12   89.67    3.56
   1   2  12   90.00    3.90
   1   2  12   91.05    3.87
  -1   2 -12   87.73    3.73
  -1   2 -12   91.19    3.86
  -1   2 -13  202.01    6.65
  -1   2 -13  194.45    6.68
   1   2  13  195.62    6.81
   1   2  13  193.39    6.38
   1   2  14  287.24    8.97
  -1   2 -14  270.40    8.81
  -1   2 -14  275.00    8.88
   1   2  14  272.33    8.54
  -1  -2  14  282.95    8.72
  -1   2 -15   47.14    3.04
   1   2  15   46.81    2.87
   1   2  15   49.19    3.51
  -1  -2  15   46.40    3.03
  -1  -2  16   16.47    2.46
   1   2  16   15.79    2.83
   1   2  16   13.15    2.22
   1   2  16   15.16    2.31
   1   2  16   17.68    2.97
   1  -2 -16   18.41    2.58
   1   2  17    2.39    2.13
   1   2  17    7.43    2.72
   1   2  17    7.86    2.77
   1   2  17    2.85    2.06
  -1  -2  17    6.03    2.31
   1   2  18   51.64    3.70
   1   2  18   48.89    3.76
   1   2  18   47.52    3.22
   1   2  18   43.56    2.99
   1   2  19   36.51    3.65
   1   2  19   34.88    3.61
   1   2  19   33.71    3.01
   1   2  20   15.54    3.28
   1   2  20   11.06    3.13
   1   2  20    9.45    2.57
   1   2  21   22.42    2.94
   1   2  22   20.86    2.99
  -1   3  21   21.20    3.16
   1   3 -20   24.14    3.17
  -1   3  20   18.32    2.95
   1   3 -19    3.95    2.59
  -1   3  19    7.74    3.18
  -1   3  19    8.94    2.66
  -1   3  18   40.55    3.22
   1   3 -18   46.29    3.50
  -1   3  18   46.99    3.79
  -1   3  17   37.91    3.42
  -1   3  17   35.69    2.91
   1   3 -17   36.67    3.24
  -1   3  17   31.38    2.22
  -1   3  16    9.29    1.68
  -1   3  16    6.84    2.30
  -1   3  16    9.05    1.56
   1   3 -16    7.83    2.49
  -1   3  16    9.80    2.79
  -1   3  15   10.93    1.61
   1   3 -15   13.10    2.38
   1  -3  15    9.27    2.32
   1   3 -15   13.83    2.52
  -1   3  15    9.10    1.49
  -1   3  15   10.91    2.61
  -1   3  15    9.57    2.27
  -1   3  14   84.39    3.17
   1  -3  14   91.17    4.21
  -1   3  14   90.91    3.83
   1   3 -14   96.80    4.30
  -1   3  14   85.21    4.28
  -1   3  14   81.74    3.20
  -1   3  13   97.90    3.47
  -1   3  13  104.01    4.56
  -1   3  13  100.45    4.11
  -1   3  13  100.71    3.41
   1   3 -13  107.31    4.43
  -1   3  12   21.84    2.63
  -1   3  12   25.08    2.27
  -1   3  12   22.11    1.54
   1   3 -12   20.78    2.46
  -1   3  12   22.17    1.46
  -1   3  11   38.65    1.78
  -1   3  11   42.70    2.44
  -1   3  11   39.23    1.72
  -1   3  11   37.29    2.79
   1   3 -11   43.19    2.79
  -1   3  10  124.18    3.77
  -1   3  10  124.57    3.82
  -1   3  10  135.23    4.40
   1   3 -10  131.27    4.75
  -1   3  10  131.61    4.76
  -1   3   9  122.63    4.20
   1   3  -9  128.53    4.58
  -1   3   9  126.85    4.60
  -1   3   9  122.90    3.61
  -1   3   9  119.74    3.56
  -1   3   8  203.20    5.79
  -1   3   8  226.84    6.40
   1   3  -8  215.98    6.79
  -1   3   8  226.05    6.76
   1  -3   8  221.76    6.54
  -1   3   8  215.22    5.84
  -1  -3  -7   10.24    1.32
  -1   3   7   10.89    0.69
  -1   3   7    9.85    1.54
   1  -3   7   10.85    1.82
   1   3  -7   11.33    1.90
   1  -3   7   10.84    1.50
  -1   3   7    9.48    1.74
  -1   3   7   11.59    0.66
  -1  -3  -6   95.46    3.66
  -1   3   6   98.13    3.74
   1  -3   6  102.63    3.41
  -1  -3  -6   98.12    3.34
   1  -3   6   94.95    3.60
   1  -3   5  101.98    3.74
  -1  -3  -5  105.70    3.77
   1  -3   5  110.34    3.54
  -1  -3  -5  108.06    3.55
   1  -3   4  161.18    4.74
   1  -3   4  159.12    5.00
  -1  -3  -4  157.43    5.02
  -1  -3  -3   44.60    2.19
   1  -3   3   39.72    1.96
   1   3  -2  251.53    7.45
  -1   3   2  260.22    6.81
   1  -3   2  243.82    7.20
   1  -3   1  497.47   13.68
   1   3  -1  514.79   13.96
  -1   3   1  516.64   13.50
  -1  -3   0  770.75   20.47
  -1   3   0  778.35   20.17
   1   3   0  750.43   20.46
   1  -3   0  754.68   20.15
   1   3   1  497.30   13.67
   1  -3  -1  492.14   13.24
  -1   3  -1  513.17   13.45
  -1  -3   1  506.26   13.71
   1  -3  -2  240.63    6.65
   1   3   2  235.68    7.19
   1  -3  -2  256.63    6.62
  -1   3  -2  257.38    7.10
  -1  -3   2  257.70    7.32
  -1  -3   3   42.93    2.26
   1  -3  -3   42.44    2.17
  -1   3  -3   43.64    2.09
   1   3   3   40.23    2.13
   1   3   4  163.70    4.85
   1  -3  -4  164.05    5.11
   1  -3  -4  163.20    4.82
  -1   3  -4  159.34    5.06
   1  -3  -5  113.86    3.89
   1   3   5  110.96    3.66
   1  -3  -5  116.89    3.59
  -1   3  -5  100.01    3.83
   1  -3  -6  105.89    3.51
   1   3   6   93.16    3.77
   1   3   6  103.63    3.58
   1   3   7   13.45    1.47
  -1   3  -7   11.87    1.76
   1   3   7    9.55    1.91
   1   3   7    9.32    1.94
   1  -3  -7   11.80    1.42
   1   3   8  229.85    7.21
   1  -3  -8  239.27    6.75
   1   3   8  220.27    7.04
  -1   3  -8  214.70    7.05
   1   3   9  134.56    4.66
   1   3   9  127.03    4.55
   1   3  10  123.64    4.86
   1   3  10  135.71    4.90
   1   3  11   42.20    2.82
   1   3  11   35.50    2.19
   1   3  11   39.78    2.92
   1   3  12   23.29    2.14
   1   3  12   22.90    1.93
   1   3  12   24.82    2.79
   1   3  12   24.39    2.60
  -1  -3  13   99.81    4.38
  -1   3 -13   94.82    4.41
   1   3  13  100.00    3.97
   1   3  13  108.74    4.61
   1   3  13  102.56    4.46
   1   3  14   94.93    4.42
   1   3  14  101.17    4.52
  -1   3 -14   88.73    4.38
   1   3  14  102.18    4.03
  -1  -3  14   88.72    4.14
   1   3  15    7.70    2.64
   1   3  15    8.45    2.76
  -1  -3  15   10.32    2.33
   1  -3 -15   13.93    2.35
   1   3  15   10.27    2.04
  -1   3 -15   12.01    2.50
  -1   3 -16    8.69    2.38
   1   3  16    8.93    2.04
   1   3  16    9.62    2.69
   1   3  16    7.00    2.76
   1   3  16    7.83    2.11
   1   3  17   34.46    2.63
   1   3  17   30.33    3.31
   1   3  17   32.22    2.72
  -1   3 -17   36.39    3.29
   1   3  17   37.28    3.49
   1   3  18   45.18    3.82
   1   3  18   41.54    3.04
   1   3  18   43.25    3.51
   1   3  18   42.28    2.92
   1   3  19    6.53    2.85
   1   3  19    8.55    3.03
   1   3  19    9.98    2.37
   1   3  20   20.47    2.71
   1   3  20   21.03    3.49
  -1   4  20    7.21    2.89
  -1   4  19   21.66    3.08
   1   4 -19   18.34    3.13
  -1   4  18   37.46    3.29
   1   4 -18   37.68    3.45
  -1   4  18   33.97    3.52
   1   4 -17   26.40    3.16
  -1   4  17   24.68    3.38
  -1   4  17   20.72    2.82
   1   4 -16   40.51    3.31
  -1   4  16   45.99    3.17
  -1   4  16   40.58    3.54
   1   4 -15   11.51    2.22
  -1   4  15   12.60    1.50
  -1   4  15    8.75    2.81
   1   4 -15   15.18    2.54
  -1   4  15   15.21    2.43
  -1   4  14  118.74    3.80
  -1   4  14  113.08    5.06
  -1   4  14  123.71    4.76
   1   4 -14  124.34    4.85
  -1   4  14  118.23    3.85
   1   4 -14  122.19    5.05
  -1   4  13   39.08    2.78
  -1   4  13   36.11    3.16
  -1   4  13   35.53    1.72
   1   4 -13   34.50    2.96
  -1   4  13   35.16    1.70
   1   4 -12   64.46    3.53
  -1  -4 -12   57.90    3.52
  -1   4  12   59.34    2.16
  -1   4  12   59.97    3.14
  -1   4  12   63.08    3.63
  -1   4  12   56.84    2.12
  -1   4  11   54.96    1.97
  -1   4  11   59.73    2.99
   1   4 -11   58.94    3.30
  -1  -4 -11   55.03    3.25
  -1   4  11   62.63    3.55
  -1   4  10   55.72    3.23
  -1   4  10   55.09    1.84
  -1  -4 -10   65.68    3.32
   1   4 -10   59.71    3.18
  -1   4   9   92.40    3.91
  -1   4   9   82.81    2.39
  -1  -4  -8   72.38    2.76
   1  -4   8   71.82    3.27
   1  -4   7   22.39    2.14
  -1  -4  -7   20.63    1.71
  -1  -4  -7   18.11    1.52
  -1  -4  -6   23.02    1.93
  -1  -4  -6   21.72    1.58
   1  -4   6   22.13    1.59
   1  -4   6   16.79    1.89
   1  -4   5  256.53    7.09
   1  -4   5  248.27    7.43
   1   4  -5  240.85    7.53
  -1  -4  -5  241.60    7.46
   1   4  -4  760.84   20.33
   1  -4   4  762.61   19.82
  -1  -4  -4  736.03   20.23
   1  -4   4  714.08   20.11
   1   4  -3   22.68    2.05
   1  -4   3   24.47    1.76
  -1   4   3   22.49    0.96
  -1  -4  -3   19.72    1.91
   1  -4   3   23.59    1.27
   1   4  -2  560.76   15.64
  -1   4   2  578.12   14.99
   1  -4   2  548.69   15.34
   1   4  -1  482.18   13.50
  -1  -4  -1  481.57   13.44
   1  -4   1  475.29   13.18
  -1   4   1  501.15   13.03
  -1  -4   0  646.33   17.38
   1   4   0  654.03   17.39
  -1   4   0  642.22   17.03
   1  -4   0  622.74   17.00
   1   4   1  478.25   13.20
   1  -4  -1  469.46   12.78
  -1  -4   1  480.16   13.27
  -1   4  -1  488.10   12.97
   1  -4  -2  551.16   14.69
  -1  -4   2  575.56   15.33
  -1   4  -2  560.45   15.07
   1   4   2  547.39   15.18
   1   4   3   22.06    1.85
  -1  -4   3   23.85    2.01
   1   4   3   23.56    1.34
   1  -4  -3   23.61    1.01
  -1   4  -3   24.26    1.69
   1  -4  -3   19.95    1.98
  -1  -4   4  733.39   20.35
   1   4   4  752.58   19.91
   1   4   4  717.75   20.14
   1  -4  -4  770.34   20.36
   1  -4  -4  762.43   20.06
  -1   4  -4  751.63   20.23
   1   4   5  246.72    7.47
   1   4   5  258.47    7.29
   1  -4  -5  252.04    7.37
   1  -4  -5  267.45    7.74
  -1   4  -5  252.78    7.62
   1  -4  -6   21.78    2.08
  -1   4  -6   20.37    1.95
   1  -4  -6   20.07    1.74
   1   4   6   22.64    1.65
   1  -4  -7   21.33    2.15
   1  -4  -7   23.46    1.77
  -1   4  -7   19.00    1.99
   1  -4  -8   78.17    3.05
  -1   4  -8   71.90    3.37
   1   4   9   87.93    3.95
   1  -4  -9   96.88    3.54
   1   4   9   86.67    3.98
  -1   4  -9   84.17    3.72
   1   4  10   55.25    3.40
   1   4  10   61.29    3.44
   1  -4 -10   61.60    2.93
  -1   4 -10   59.15    3.27
  -1   4 -11   54.48    3.25
   1   4  11   55.86    3.56
   1   4  11   58.21    3.35
   1   4  12   57.37    3.51
   1   4  12   50.43    2.50
   1   4  12   56.87    3.50
   1   4  13   36.39    3.21
   1   4  13   33.00    3.03
  -1  -4  13   35.61    3.03
   1   4  14  128.66    5.30
   1   4  14  118.52    5.25
   1  -4 -14  124.41    4.80
  -1  -4  14  114.06    4.99
   1   4  15   10.79    2.74
   1  -4 -15   14.37    2.38
   1   4  15   13.28    2.87
  -1   4 -16   41.52    3.48
   1   4  16   37.74    3.56
   1   4  16   44.59    3.53
   1   4  16   41.03    2.71
  -1   4 -17   22.07    3.10
   1   4  17   18.79    3.23
   1   4  17   20.67    2.30
   1   4  17   26.49    3.37
  -1   4 -18   32.18    3.39
   1   4  18   34.25    3.66
   1   4  18   33.38    3.69
   1   4  19   14.54    3.41
  -1   5  19    0.66    2.72
  -1   5  18   18.62    2.89
   1   5 -17   -0.09    2.54
  -1   5  17   -6.02    3.23
   1   5 -16    9.04    2.79
  -1   5  16    6.00    2.90
   1   5 -15   12.66    2.61
  -1   5  15    7.31    2.96
   1   5 -15   13.18    2.46
  -1   5  14  105.72    5.01
   1   5 -14  107.05    4.43
   1   5 -14  112.40    5.01
  -1   5  13   69.91    4.12
   1   5 -13   81.06    3.52
  -1   5  13   63.85    2.24
  -1  -5 -13   85.44    4.18
   1   5 -13   87.55    4.18
  -1   5  12   65.89    2.09
  -1  -5 -12   76.89    3.87
   1   5 -12   76.22    3.30
  -1   5  12   65.42    2.06
   1  -5  12   78.38    3.89
   1   5 -11    7.71    1.85
   1  -5  11    7.14    2.23
  -1  -5 -11    3.42    2.21
  -1  -5 -10   68.36    3.83
   1  -5  10   81.09    3.83
  -1  -5  -9  166.31    5.89
   1  -5   9  149.99    5.66
  -1  -5  -9  166.01    5.11
  -1  -5  -8  256.28    7.44
   1   5  -8  246.13    8.11
  -1  -5  -8  262.59    8.14
   1  -5   8  254.55    8.01
  -1  -5  -7    9.29    1.37
   1   5  -7   10.24    2.12
   1  -5   7    9.88    1.83
   1   5  -6   22.82    2.31
   1  -5   6   21.60    2.05
  -1  -5  -6   23.00    1.65
   1  -5   5   95.69    3.75
   1   5  -5   98.70    4.01
  -1   5   4  279.82    7.47
   1  -5   4  281.34    7.72
   1  -5   4  282.73    8.25
   1   5  -4  294.55    8.49
   1  -5   3   53.72    2.50
  -1   5   3   54.42    1.88
   1  -5   3   55.09    1.94
   1   5  -3   60.87    2.86
   1   5  -2   45.63    2.62
   1  -5   2   47.59    1.69
  -1   5   2   48.35    1.82
   1  -5   2   45.18    2.18
   1  -5   1  270.84    7.82
   1   5  -1  280.97    8.20
  -1  -5  -1  270.34    8.06
  -1   5   1  271.68    7.61
   1  -5   0   70.33    2.64
   1   5   0   69.12    3.05
  -1   5   0   75.63    2.66
  -1  -5   0   74.59    3.14
   1   5   1  275.14    7.35
   1  -5  -1  260.97    7.57
   1   5   1  272.47    8.04
  -1  -5   1  271.78    8.15
  -1   5  -1  276.67    7.78
   1   5   2   42.06    1.62
   1   5   2   44.35    2.35
  -1  -5   2   42.04    2.55
   1  -5  -2   43.76    1.74
  -1   5  -2   46.31    2.15
  -1   5  -3   56.03    2.53
   1   5   3   54.23    2.57
  -1  -5   3   55.12    2.83
   1   5   3   55.05    2.00
   1  -5  -3   54.55    1.91
  -1  -5   4  288.73    8.76
   1  -5  -4  302.66    8.53
   1   5   4  281.50    8.49
   1   5   4  283.34    8.08
  -1   5  -4  300.86    8.60
   1  -5  -4  308.56    8.84
   1   5   5   91.31    3.53
   1  -5  -5   93.14    3.86
  -1   5  -5   97.10    3.67
   1  -5  -5   98.85    3.63
   1   5   6   21.88    1.88
   1  -5  -6   22.03    1.91
   1  -5  -6   22.41    2.32
  -1   5  -6   19.43    1.98
   1  -5  -7   12.15    2.18
  -1   5  -7   10.85    1.96
   1   5   7   14.12    1.79
   1  -5  -7   11.77    1.81
  -1   5  -8  259.08    8.16
   1   5   8  247.39    7.73
   1  -5  -8  268.76    7.84
   1  -5  -8  266.18    8.15
   1  -5  -9  173.31    5.49
  -1   5  -9  151.81    5.78
   1  -5 -10   73.17    3.35
  -1   5 -10   84.47    3.96
  -1   5 -11    6.51    2.22
   1  -5 -11    2.96    1.95
  -1   5 -12   76.48    4.00
   1  -5 -12   85.46    3.68
   1  -5 -13   83.89    3.75
   1   5  13   79.38    4.27
  -1   5 -13   81.49    4.24
   1   5  13   76.09    4.32
   1   5  14  100.72    4.89
   1   5  14   97.90    5.04
   1  -5 -14  108.50    4.47
  -1   5 -14  116.77    5.07
   1  -5 -15   16.17    2.49
   1   5  15   12.97    2.95
   1   5  16    8.41    2.82
   1   5  16    5.08    3.02
   1   5  17   -4.06    3.10
   1   5  17   -2.22    2.80
   1   5  18   23.90    3.56
   1   5  18   14.58    3.21
   1   6 -16   33.96    3.55
   1   6 -15   12.32    2.91
   1   6 -15   11.62    2.31
   1   6 -14   12.46    2.17
   1   6 -13    5.81    2.04
   1   6 -12  121.94    4.55
   1   6 -11   16.47    2.76
   1  -6  11   12.52    2.46
  -1  -6 -11    9.56    2.51
   1   6 -11   11.62    1.96
   1  -6  10  101.14    4.70
  -1  -6 -10  108.29    4.86
   1   6 -10  118.37    4.13
   1   6 -10  122.41    5.11
  -1  -6  -9   20.59    1.83
   1  -6   9   17.75    2.60
  -1  -6  -9   23.52    2.80
   1  -6   8   43.31    2.94
  -1  -6  -8   45.05    3.13
  -1  -6  -8   37.61    3.08
   1   6  -8   43.38    2.21
  -1  -6  -8   44.29    2.19
   1   6  -8   41.09    3.07
  -1  -6  -7   33.46    1.97
  -1  -6  -7   29.95    2.81
  -1  -6  -7   36.46    2.90
   1  -6   7   30.52    2.56
   1   6  -7   31.86    2.85
   1  -6   6  319.44    9.80
  -1  -6  -6  330.06   10.04
   1   6  -6  340.35   10.11
   1   6  -5   33.16    2.62
  -1   6   5   32.03    1.27
   1  -6   5   31.45    2.36
   1   6  -4  141.42    5.13
   1  -6   4  137.81    4.83
  -1   6   4  138.79    4.01
  -1   6   3   13.44    1.11
   1   6  -3   16.71    2.01
   1  -6   3   13.75    1.90
   1  -6   2  114.15    4.11
   1   6  -2  123.69    4.45
  -1   6   2  114.81    3.65
   1  -6   1   77.67    3.11
  -1  -6  -1   81.66    3.45
   1   6  -1   84.00    3.57
  -1   6   1   88.59    2.96
   1   6   0  467.94   12.83
  -1  -6   0  437.23   12.74
   1  -6   0  436.31   12.33
  -1   6   0  454.50   12.35
   1   6   1   85.87    3.49
   1  -6  -1   83.31    2.97
  -1   6  -1   81.57    3.15
  -1  -6   1   87.71    3.63
   1  -6  -2  111.97    3.74
  -1   6  -2  116.77    4.08
  -1  -6   2  116.69    4.47
  -1   6  -3   14.86    1.82
  -1  -6   3   15.46    2.09
  -1   6  -4  143.88    4.90
   1   6   4  142.01    4.83
   1  -6  -4  143.10    5.24
  -1  -6   4  136.92    5.11
  -1  -6   5   35.21    2.71
   1   6   5   33.03    2.31
   1  -6  -5   32.85    2.62
  -1   6  -5   32.41    2.33
   1  -6  -5   33.23    2.39
   1  -6  -6  359.03   10.42
  -1   6  -6  339.24   10.16
  -1  -6   6  345.83   10.35
   1   6   6  334.11    9.88
   1  -6  -6  333.81    9.98
  -1  -6   7   31.30    2.80
   1   6   7   31.05    2.29
   1  -6  -7   33.43    2.78
  -1   6  -7   31.53    2.52
   1  -6  -7   30.74    2.42
  -1  -6   8   44.18    3.14
   1  -6  -8   46.44    2.73
   1  -6  -8   44.74    3.09
   1  -6  -8   41.16    2.23
  -1   6  -8   39.24    2.87
   1   6   8   43.12    2.61
  -1   6  -9   20.26    2.50
   1  -6  -9   22.52    1.90
   1   6   9   22.23    2.14
   1  -6  -9   21.89    2.30
   1   6  10   95.66    3.95
   1  -6 -10  107.20    3.95
  -1   6 -10   97.69    4.46
   1  -6 -10  103.83    4.24
  -1   6 -11   11.52    2.52
   1  -6 -11   11.54    1.89
   1   6  11    7.31    1.93
   1  -6 -11    9.21    2.12
   1  -6 -12  124.92    4.63
   1   6  12  114.63    4.51
   1  -6 -12  132.20    4.93
  -1   6 -12  127.49    5.31
  -1   6 -13    3.76    2.33
   1  -6 -13    5.87    2.04
   1  -6 -13    2.93    2.34
   1   6  13    6.11    1.98
   1  -6 -14   10.48    2.20
  -1   6 -14   14.05    2.73
  -1   6 -15   10.70    2.87
   1  -6 -15   11.64    2.35
  -1   6 -16   31.54    3.48
   1   7 -14   80.30    4.55
   1   7 -13    9.39    2.82
   1   7 -12   54.16    3.84
   1   7 -11    8.98    2.55
   1   7 -10   91.41    3.56
   1   7 -10  105.04    4.74
   1   7  -9   21.25    1.82
   1   7  -9   21.23    2.87
   1  -7   9   19.88    2.62
  -1  -7  -9   20.84    2.76
  -1  -7  -9   21.39    1.77
  -1  -7  -8  116.82    4.91
  -1  -7  -8  109.42    3.86
   1   7  -8  110.99    4.88
   1   7  -8  110.54    3.74
   1  -7   8  109.90    4.72
  -1  -7  -8  108.80    4.75
  -1  -7  -7    6.57    2.58
   1   7  -7    2.38    2.25
   1  -7   7    4.16    2.15
   1   7  -7    4.40    1.19
  -1  -7  -7    6.30    2.42
  -1  -7  -7    5.42    1.49
   1   7  -6   25.44    2.67
  -1  -7  -6   20.56    2.66
   1  -7   6   21.73    2.49
  -1   7   6   19.69    0.96
  -1  -7  -6   25.36    2.83
   1   7  -6   22.11    1.39
   1   7  -5   84.07    2.69
  -1  -7  -5   75.53    3.94
   1  -7   5   83.66    3.77
   1   7  -5   88.93    4.06
  -1   7   5   85.25    2.66
  -1  -7  -5   84.66    4.22
   1   7  -4  158.00    5.55
   1   7  -4  142.97    4.12
  -1  -7  -4  158.03    5.72
  -1  -7  -4  143.98    5.54
   1  -7   4  147.65    5.23
  -1   7   4  152.10    4.39
  -1   7   3    8.24    1.23
   1   7  -3   10.51    2.19
   1  -7   3    8.47    1.91
  -1   7   2  324.70    9.05
   1  -7   2  313.69    9.39
   1   7  -2  327.63    9.78
   1  -7   1   21.77    2.03
   1   7  -1   18.85    2.28
  -1  -7  -1   16.97    2.27
  -1   7   1   19.13    1.65
   1  -7   0   84.88    3.26
   1   7   0   85.41    3.75
  -1  -7   0   82.15    3.77
  -1   7   0   85.51    3.24
  -1   7  -1   19.01    1.85
   1   7   1   16.66    2.24
   1  -7  -1   16.76    1.68
  -1  -7   1   16.05    2.31
  -1  -7   2  322.28    9.84
   1  -7  -2  314.82    9.11
  -1   7  -2  330.53    9.52
   1   7   2  334.41    9.71
  -1   7  -3   10.05    1.89
   1   7   3    8.34    1.96
  -1  -7   3   10.36    2.37
   1  -7  -3    6.93    1.32
   1   7   4  151.68    5.15
   1  -7  -4  145.69    4.18
   1  -7  -4  158.20    5.76
  -1   7  -4  150.34    5.24
  -1  -7   4  151.82    5.56
   1   7   5   88.86    3.64
   1  -7  -5   88.50    3.83
   1  -7  -5   84.68    2.73
   1  -7  -5   87.88    4.21
  -1  -7   5   75.83    3.90
  -1   7  -5   87.86    3.82
   1  -7  -6   22.89    1.45
  -1   7  -6   20.89    2.33
   1  -7  -6   22.96    2.80
   1   7   6   22.02    2.21
  -1  -7   6   24.41    2.73
   1  -7  -6   26.31    2.47
   1  -7  -7    8.84    2.48
  -1   7  -7    4.16    2.05
  -1  -7   7    7.45    2.39
   1   7   7    8.01    1.89
   1  -7  -7    4.84    2.10
   1  -7  -7    4.74    1.26
   1   7   8  103.50    4.14
   1  -7  -8  117.69    4.51
   1  -7  -8  109.75    3.79
  -1  -7   8  112.37    4.92
  -1   7  -8  108.96    4.69
   1  -7  -9   21.33    1.85
  -1   7  -9   19.39    2.64
   1   7   9   19.92    2.14
   1  -7  -9   22.22    2.47
   1  -7 -10  100.91    4.29
   1  -7 -10   98.03    3.69
   1   7  10   92.89    3.88
  -1   7 -10  100.62    4.53
   1   7  11   12.26    2.06
  -1   7 -11    9.66    2.62
   1  -7 -11   13.15    2.36
   1   7  12   40.19    2.67
   1  -7 -12   48.13    3.11
  -1   7 -12   44.93    3.45
   1  -7 -13    8.33    2.44
  -1   7 -13    7.67    2.59
  -1   7 -14   89.01    4.76
  -1   7 -15    9.83    3.06
   1   8 -12   45.98    3.78
   1   8 -11    6.02    2.74
   1   8 -10   32.38    3.21
   1   8  -9   29.02    3.08
   1  -8   8   19.21    2.83
   1   8  -8   22.11    2.97
   1   8  -7   13.33    2.64
   1  -8   7   12.25    2.53
   1  -8   6  136.00    5.27
   1   8  -6  136.95    5.57
  -1   8   5   14.44    1.19
   1   8  -5   17.50    2.68
   1  -8   5   16.32    2.41
  -1   8   4   15.38    1.37
   1   8  -4   16.83    2.50
   1  -8   4   18.08    2.37
   1  -8   3   35.71    2.61
  -1  -8  -3   34.92    3.20
   1   8  -3   36.38    2.93
  -1   8   3   35.95    1.91
   1   8  -2   59.07    3.36
  -1   8   2   57.59    2.53
   1  -8   2   59.03    3.03
   1  -8   1   33.06    2.39
  -1   8   1   34.72    2.13
   1   8  -1   36.34    2.80
   1   8   0   49.72    3.07
  -1  -8   0   51.24    3.21
   1  -8   0   51.34    2.65
  -1   8   0   50.91    2.58
   1   8   1   31.62    2.60
  -1  -8   1   33.11    2.80
  -1   8  -1   31.86    2.29
   1  -8  -1   33.87    2.23
   1   8   2   56.70    3.21
  -1   8  -2   64.44    3.03
  -1  -8   2   56.18    3.42
   1  -8  -2   58.05    2.65
   1   8   3   35.35    2.65
  -1  -8   3   37.89    3.03
   1  -8  -3   28.58    3.00
  -1   8  -3   37.19    2.53
  -1   8  -4   16.01    2.24
   1   8   4   19.12    2.25
   1  -8  -4   15.67    2.56
  -1  -8   4   17.56    2.64
   1   8   5   16.29    2.18
   1  -8  -5   15.60    2.52
  -1  -8   5   17.87    2.76
  -1   8  -5   14.64    2.26
  -1  -8   6  133.17    5.47
   1  -8  -6  143.96    5.33
  -1   8  -6  135.20    5.22
   1   8   6  129.78    4.85
  -1   8  -7   13.11    2.47
   1   8   7   12.48    2.08
   1  -8  -7   14.83    2.49
   1   8   8   24.59    2.22
   1  -8  -8   23.24    2.61
  -1   8  -8   18.89    2.65
  -1   8  -9   26.31    2.88
   1  -8  -9   33.26    2.86
   1   8   9   29.06    2.36
  -1   8 -10   31.87    3.17
   1  -8 -10   32.79    2.93
  -1   8 -11    2.89    2.48
  -1   8 -12   42.27    3.57
  -1   8 -13    9.46    2.77
   1   9 -10   10.99    3.01
   1   9  -9    6.31    2.81
   1   9  -8    4.81    2.67
   1   9  -7   32.53    3.15
   1  -9   6    8.25    2.48
   1   9  -6    7.08    2.55
   1  -9   5   63.75    3.57
   1   9  -5   64.08    3.81
   1   9  -4   20.93    2.74
   1  -9   4   20.10    2.46
   1   9  -3   31.16    2.93
   1  -9   3   31.74    2.57
   1   9  -2    7.12    2.40
   1   9  -1   85.03    4.06
  -1   9   1   84.02    3.39
  -1   9   0   11.55    1.84
   1   9   0   16.41    2.47
  -1  -9   0   10.33    2.45
   1   9   1   90.30    4.06
  -1  -9   1   85.78    4.18
  -1   9  -1   87.75    3.67
  -1   9  -2    7.13    1.96
   1   9   2   11.98    2.30
  -1  -9   2    6.66    2.45
   1   9   3   29.19    2.60
  -1  -9   3   32.85    3.01
  -1   9  -3   31.46    2.58
   1   9   4   20.71    2.31
   1  -9  -4   23.92    2.94
  -1   9  -4   19.40    2.41
   1   9   5   56.27    3.19
  -1   9  -5   63.69    3.46
  -1   9  -6    9.40    2.44
   1   9   6    8.71    2.15
  -1   9  -7   30.55    2.93
  -1   9  -8    4.55    2.52
  -1   9  -9    6.32    2.51
  -1   9 -10   11.75    2.76
  -1   9 -11   31.66    3.37
   1  10  -7   19.41    3.17
   1  10  -6   -3.47    2.81
   1  10  -5   10.86    2.80
   1  10  -4    5.11    2.64
   1  10  -3   25.30    3.00
   1  10  -2   14.19    2.64
   1  10  -1   23.28    2.76
   1  10   0    1.15    2.25
   1  10   1   25.17    2.76
   1  10   2   13.82    2.39
  -1  10  -4    1.49    2.10
  -1  10  -5    7.11    2.31
  -1  10  -6    0.44    2.37
  -1  10  -7   13.47    2.70
  -1  10  -8    9.28    2.73
  -1  10  -9   15.44    2.96
   1  11  -4    6.17    2.76
   1  11  -3    5.03    2.74
  -2   0   0  442.30   11.79
  -2   0   1    2.39    0.77
   2   0   1    1.31    0.98
  -2   0  -1    0.19    0.98
  -2   0   2  160.30    4.34
   2   0  -2  154.66    4.78
   2   0   2  153.79    4.67
  -2   0  -2  154.64    4.90
  -2   0  -3    1.58    1.29
   2   0  -3    4.85    1.41
   2   0   3    3.09    1.37
   2   0  -4  938.34   25.11
  -2   0   4  954.71   25.11
   2   0   4  945.75   25.22
   2   0  -5  594.56   16.04
  -2   0   5  605.96   16.05
   2   0   5  579.11   16.20
  -2   0   6  310.34    8.53
   2   0   6  287.00    8.73
   2   0  -6  302.49    8.53
   2   0  -7    2.54    1.26
  -2   0   7    2.64    1.26
   2   0   7    1.93    1.70
  -2   0   8   30.88    1.83
   2   0   8   26.93    2.32
   2   0  -8   32.70    1.91
   2   0   8   26.22    2.19
   2   0   9  275.91    8.92
  -2   0   9  311.21    8.57
   2   0   9  293.46    8.96
   2   0  -9  301.29    8.59
   2   0  10   -0.25    1.83
   2   0 -10   -1.12    1.45
  -2   0  10    1.88    1.36
   2   0  10    0.97    2.02
  -2   0  11   49.92    2.45
   2   0  11   48.27    2.90
   2   0 -11   50.26    2.50
   2   0  11   45.38    3.00
   2   0  12  102.27    4.41
   2   0  12  106.55    4.62
   2   0 -12  111.13    4.05
  -2   0  12  109.30    3.96
   2   0  13   -0.55    2.00
   2   0  13   -0.78    1.99
   2   0 -13   -1.26    1.69
   2   0  13    0.38    2.37
   2   0  14   23.87    2.97
   2   0  14   26.54    2.70
   2   0  14   26.91    2.64
   2   0 -14   26.96    2.29
   2   0  15    3.11    2.29
   2   0 -15    1.60    1.84
   2   0  15    4.24    2.22
   2   0  15   -0.29    2.64
  -2   0  16   -0.69    2.30
   2   0 -16    3.58    1.96
   2   0  16    3.43    2.32
  -2   0  17   61.14    3.21
  -2   0  17   54.03    3.34
   2   0 -17   57.32    3.20
   2   0  17   50.83    3.57
  -2   0  18   24.52    2.83
   2   0  18   21.52    2.91
   2   0 -18   21.77    2.51
  -2   0  18   22.06    2.45
   2   0  19   10.63    2.80
   2   0 -19    9.82    2.29
  -2   0  19   12.16    2.56
   2   0  20   10.94    2.89
  -2   0  20   11.30    2.80
   2   1 -21    6.60    2.61
   2  -1  20    9.57    2.84
   2   1 -20    8.22    2.52
  -2   1  20    9.89    2.65
   2   1 -19    3.12    2.37
   2  -1  19    1.76    2.56
  -2   1  19    6.47    2.48
  -2   1  18   50.44    3.19
   2   1 -18   45.92    3.21
   2  -1  17    2.06    2.32
   2   1 -17    3.15    2.14
   2  -1  17    1.53    2.83
  -2   1  17    3.48    2.22
  -2   1  16   37.70    2.63
   2  -1  16   31.21    2.96
   2  -1  16   34.92    3.60
  -2   1  15   53.86    2.94
   2  -1  15   51.19    3.77
   2   1 -15   55.34    3.17
   2  -1  15   54.96    3.45
   2  -1  15   52.15    3.43
  -2   1  14  114.34    4.08
  -2   1  14  115.41    4.20
   2  -1  14  114.84    5.15
   2  -1  14  105.40    4.65
   2   1 -14  122.16    4.56
   2  -1  14  106.60    4.70
  -2   1  13   42.70    2.43
   2  -1  13   37.27    3.28
  -2   1  13   40.93    2.34
   2  -1  13   37.74    2.89
   2   1 -13   43.27    2.75
   2  -1  12   17.33    2.67
   2  -1  12   14.03    2.24
  -2   1  12   19.37    1.74
   2   1 -12   19.63    2.15
  -2   1  12   17.44    1.85
  -2   1  11   91.96    3.28
  -2   1  11   90.16    3.34
   2  -1  11   93.04    4.30
   2  -1  11   88.98    3.97
   2   1 -11   93.02    3.75
  -2   1  10  114.95    3.78
  -2   1  10  112.90    3.77
   2   1 -10  112.92    4.16
  -2   1   9  189.04    5.61
  -2   1   9  188.11    5.56
   2   1  -9  191.90    6.00
   2   1  -8 1763.03   45.74
  -2   1   8 1738.09   45.35
  -2   1   8 1707.46   45.25
   2   1  -7   22.45    1.90
  -2   1   7   22.43    1.50
  -2   1   7   21.88    1.24
  -2  -1  -7   20.53    1.91
   2  -1   6   81.68    3.31
   2   1  -6   83.84    3.25
  -2   1   6   83.29    2.75
  -2   1   6   80.85    2.48
   2  -1   6   78.50    3.27
  -2  -1  -6   84.38    3.25
   2   1  -5  121.69    4.21
  -2   1   5  126.39    3.45
  -2  -1  -5  127.74    4.28
  -2   1   5  126.28    3.92
   2  -1   5  118.71    4.24
  -2  -1  -5  118.13    4.13
   2   1  -4  294.35    8.30
  -2  -1  -4  294.86    8.28
  -2   1   4  294.04    7.96
   2  -1   4  293.82    8.38
  -2   1   3   95.69    2.98
   2   1  -3   94.21    3.47
  -2  -1  -3   94.33    3.37
   2  -1   3  104.86    3.57
   2   1  -2  254.36    7.47
  -2  -1  -2  247.38    7.29
   2  -1   2  263.57    7.17
   2  -1   1   11.49    1.05
  -2  -1  -1   12.83    0.81
   2   1  -1   11.30    1.61
  -2  -1  -1    9.79    1.28
  -2  -1   0  287.96    7.75
   2   1   0  284.07    8.10
   2  -1   0  276.76    7.47
  -2   1   0  265.96    7.80
  -2   1  -1   12.88    1.38
  -2  -1   1    9.05    1.20
   2  -1  -2  257.56    7.05
   2   1   2  247.24    7.19
  -2   1  -2  245.45    7.21
   2   1   3   97.44    3.39
   2   1   3   89.59    2.94
   2  -1  -3   98.90    3.10
  -2  -1   3   99.54    3.44
  -2   1  -3   98.84    3.41
  -2  -1   4  298.86    8.31
   2   1   4  290.00    8.34
   2  -1  -4  292.94    7.99
   2   1   4  278.48    8.02
   2  -1  -5  120.94    3.82
  -2  -1   5  129.56    4.19
   2   1   5  122.51    4.35
   2   1   5  129.12    3.97
   2  -1  -6   83.08    2.79
  -2  -1   6   82.03    3.10
   2   1   6   78.94    3.33
   2   1   6   81.58    3.00
   2  -1  -7   22.77    1.49
  -2  -1   7   22.47    1.79
   2   1   7   21.50    2.11
  -2  -1   8 1748.51   45.34
   2   1   8 1651.56   45.56
   2  -1  -8 1763.85   45.07
   2   1   8 1659.60   45.57
  -2  -1   9  194.91    5.93
   2   1   9  180.41    6.26
   2   1   9  182.99    6.16
   2  -1  -9  191.00    5.61
  -2  -1  10  118.98    4.17
   2  -1 -10  116.95    3.83
   2   1  10  108.85    4.50
   2   1  10  113.26    4.39
  -2  -1  11   89.72    3.49
   2   1  11   87.40    4.05
   2   1  11   92.59    3.96
   2  -1 -11   93.97    3.34
   2   1  12   20.96    2.37
   2   1  12   20.13    2.78
   2  -1 -12   17.14    1.69
   2   1  13   38.77    3.32
   2   1  13   37.82    2.96
   2  -1 -13   41.23    2.30
   2   1  13   39.45    2.83
   2  -1 -14  119.34    4.23
   2   1  14  117.58    4.80
   2   1  14  111.03    4.64
  -2  -1  15   55.11    3.17
   2   1  15   50.22    3.23
   2   1  15   57.40    3.50
   2  -1 -15   58.69    2.85
  -2  -1  16   35.73    2.82
   2   1  16   38.23    3.12
   2   1  16   34.18    2.85
   2  -1 -16   41.61    2.52
   2   1  17    4.20    2.52
   2  -1 -17    5.23    1.89
  -2  -1  17    7.23    2.27
  -2  -1  18   40.53    3.08
   2  -1 -18   45.87    2.85
   2   1  18   41.07    3.37
   2   1  19    1.35    2.53
   2   1  19    5.67    3.25
   2   1  20   22.45    3.29
  -2  -1  20   10.78    3.05
  -2  -1  21    2.11    2.90
   2   2 -21   17.95    2.97
   2   2 -20   16.29    2.92
   2  -2  19   17.67    3.55
   2  -2  19   21.84    3.08
   2   2 -19   24.73    3.01
  -2   2  19   22.65    3.37
  -2   2  19   24.64    2.69
   2  -2  18   11.02    3.23
   2  -2  18   12.51    2.75
   2   2 -18   14.29    2.66
  -2   2  18   17.23    3.11
  -2   2  18   17.60    2.54
  -2   2  17   57.01    3.76
   2  -2  17   51.02    3.61
  -2   2  17   56.79    3.14
   2  -2  17   51.09    3.96
   2   2 -17   54.42    3.49
   2  -2  16    5.66    2.55
   2   2 -16   10.83    2.40
  -2   2  16   10.78    2.12
  -2   2  16   10.17    2.76
  -2   2  15   45.77    3.22
  -2   2  15   43.70    2.65
  -2   2  15   41.73    2.32
   2   2 -15   49.53    3.15
   2  -2  15   39.68    3.25
  -2   2  14   47.67    2.28
  -2   2  14   50.43    3.17
  -2   2  14   46.90    2.63
   2   2 -14   48.46    3.08
   2  -2  14   42.29    2.99
   2  -2  14   38.72    3.08
   2  -2  13   27.58    2.74
  -2   2  13   34.28    1.93
  -2   2  13   35.99    2.93
  -2   2  13   36.78    2.25
   2   2 -13   32.37    2.65
  -2   2  12   53.85    3.20
  -2   2  12   54.98    2.31
  -2   2  12   52.69    2.53
   2  -2  12   49.09    3.06
   2   2 -12   52.36    3.05
  -2   2  11  267.69    8.16
  -2   2  11  266.35    7.64
   2  -2  11  247.78    8.27
  -2   2  11  259.94    7.45
   2   2 -11  279.90    8.30
   2  -2  10   22.99    2.25
   2  -2  10   20.37    2.26
  -2   2  10   25.38    1.46
  -2   2  10   25.03    2.16
   2   2 -10   26.88    2.29
  -2   2  10   25.07    1.66
  -2   2   9  153.83    4.51
   2  -2   9  156.55    5.32
  -2   2   9  149.83    4.59
   2  -2   9  152.97    5.38
   2   2  -9  152.28    5.27
  -2   2   9  157.81    5.11
   2   2  -8  331.94    9.61
  -2   2   8  324.15    8.90
  -2   2   8  326.54    8.84
   2  -2   8  322.49    9.57
  -2   2   8  336.48    9.41
   2  -2   8  316.36    9.64
  -2  -2  -8  314.37    9.50
   2   2  -7  237.89    7.18
   2  -2   7  226.25    7.10
  -2   2   7  237.96    6.45
  -2   2   7  233.26    6.42
  -2   2   7  238.32    7.01
  -2  -2  -7  222.47    7.06
   2  -2   7  222.85    7.19
   2   2  -6   59.88    2.84
   2  -2   6   57.03    2.72
  -2  -2  -6   52.36    2.77
  -2   2   6   58.60    2.51
  -2  -2  -6   54.24    2.63
   2  -2   6   57.49    2.79
   2   2  -5 1082.41   28.79
  -2   2   5 1093.11   28.55
  -2  -2  -5 1080.14   28.80
  -2  -2  -5 1056.92   28.75
   2  -2   5 1068.60   28.79
   2  -2   5 1069.09   28.75
  -2  -2  -4  485.67   13.30
   2  -2   4  464.58   13.25
   2   2  -4  482.31   13.38
  -2  -2  -4  478.04   13.31
   2  -2   4  484.93   13.30
  -2  -2  -3  274.98    8.05
  -2  -2  -3  300.07    8.41
   2  -2   3  297.56    8.38
   2  -2   3  304.32    8.39
   2   2  -3  288.29    8.51
   2  -2   2   12.59    1.41
  -2  -2  -2    8.14    1.20
   2  -2   2   13.38    1.48
   2   2  -2    9.69    1.81
  -2   2   2   11.80    1.12
  -2  -2  -2    9.33    1.59
  -2  -2  -1 1255.73   32.77
   2   2  -1 1180.39   32.88
  -2   2   1 1258.62   32.53
  -2  -2   0  734.90   20.26
  -2   2   0  774.49   20.14
  -2   2  -1 1297.63   34.20
   2  -2  -2    9.60    1.16
  -2  -2   2    9.04    1.51
   2  -2  -3  300.85    8.15
  -2  -2   3  297.82    8.69
   2  -2  -3  299.10    8.29
   2  -2  -4  479.44   12.69
  -2  -2   4  492.29   13.31
   2   2   4  457.62   13.33
   2  -2  -5 1079.78   28.13
   2   2   5 1046.96   28.80
  -2  -2   5 1119.45   28.76
   2   2   5 1050.52   28.48
   2  -2  -6   58.79    1.93
  -2  -2   6   57.03    2.71
   2   2   6   53.04    2.46
   2   2   6   54.27    2.92
   2  -2  -7  238.60    6.46
   2   2   7  221.76    7.15
   2   2   7  220.99    7.26
   2   2   7  234.49    7.03
  -2  -2   7  241.47    7.13
  -2  -2   8  323.96    9.40
   2   2   8  316.74    9.50
   2   2   8  300.91    9.53
   2   2   8  312.17    9.33
   2  -2  -8  334.33    8.78
  -2  -2   9  127.45    4.78
   2   2   9  136.91    5.23
   2  -2  -9  156.24    4.34
   2   2   9  149.99    5.00
   2   2  10   23.23    2.28
   2   2  10   20.85    2.45
   2  -2 -10   23.97    1.44
   2   2  11  244.91    8.00
   2   2  11  242.86    8.23
   2   2  12   51.71    3.17
   2   2  12   50.11    3.17
   2  -2 -12   51.09    2.22
   2   2  12   50.75    3.04
  -2  -2  13   33.16    2.71
   2   2  13   33.96    2.99
   2  -2 -13   35.25    1.95
   2   2  13   28.99    2.72
   2   2  13   30.92    2.70
   2   2  13   32.85    2.65
  -2  -2  14   46.86    3.09
   2   2  14   43.09    3.23
   2  -2 -14   48.29    2.31
   2   2  14   42.35    2.94
   2   2  14   48.46    3.14
  -2  -2  15   43.98    3.09
   2   2  15   44.17    3.41
   2  -2 -15   44.88    2.31
   2   2  15   39.19    3.09
   2   2  15   37.80    2.84
   2  -2 -16   10.72    1.63
   2   2  16    7.86    2.16
  -2  -2  16    9.82    2.38
   2   2  16    8.55    2.71
   2   2  16    8.91    2.41
   2   2  17   56.94    3.91
   2   2  17   53.93    4.03
   2   2  17   53.75    3.52
   2   2  18   17.44    3.13
   2   2  18   12.12    3.05
   2   2  18   15.60    2.67
   2   2  19   26.41    3.33
   2   2  19   23.51    3.49
   2   2  19   21.16    2.99
   2   2  20   16.95    2.94
   2   2  21   16.87    3.08
   2   3 -20    8.74    2.92
   2   3 -19    6.55    2.64
  -2   3  19   10.22    3.05
  -2   3  18   48.38    3.11
   2   3 -18   52.22    3.70
  -2   3  18   45.01    3.84
   2  -3  18   43.11    3.65
   2  -3  17   16.18    2.87
   2   3 -17   14.59    2.79
  -2   3  17   15.61    2.32
  -2   3  17   15.99    3.07
  -2   3  16   53.69    2.96
  -2   3  16   53.55    3.69
   2   3 -16   55.62    3.63
  -2   3  15   75.09    3.43
   2   3 -15   77.88    4.04
  -2   3  15   82.42    4.19
  -2   3  14   42.62    1.98
  -2   3  14   44.20    2.59
  -2   3  14   43.44    3.22
   2   3 -14   44.21    3.19
  -2   3  13   58.92    2.17
  -2   3  13   56.49    2.73
  -2   3  13   63.38    3.55
   2   3 -13   42.34    3.16
   2  -3  13   40.55    3.12
  -2   3  12   75.46    2.59
  -2   3  12   82.43    3.20
   2  -3  12   70.63    3.72
  -2   3  12   78.09    3.83
   2   3 -12   82.36    3.92
  -2   3  11   73.91    2.92
  -2   3  11   68.93    2.34
   2  -3  11   64.91    3.42
  -2   3  11   69.47    3.54
   2   3 -11   73.17    3.64
  -2   3  10   88.15    3.18
  -2   3  10   88.16    2.65
   2  -3  10   83.32    3.73
  -2   3  10   85.44    3.77
   2   3 -10   90.52    3.97
   2   3  -9  168.49    5.87
   2  -3   9  163.95    5.67
  -2   3   9  177.60    5.72
  -2  -3  -9  168.40    5.59
   2   3  -8  334.56    9.88
   2  -3   8  321.23    9.66
  -2   3   8  343.71    9.68
   2  -3   8  326.66    9.87
  -2  -3  -8  319.84    9.57
   2   3  -7   74.12    3.29
   2  -3   7   73.67    3.08
  -2   3   7   75.23    3.19
   2  -3   7   73.16    3.27
  -2  -3  -7   72.23    3.12
   2  -3   7   77.48    3.28
   2   3  -6  161.27    5.43
  -2  -3  -6  161.55    5.26
   2  -3   6  159.39    5.27
   2  -3   6  153.73    5.25
   2   3  -5  534.46   14.60
  -2  -3  -5  497.83   14.32
  -2   3   5  520.51   13.63
   2  -3   5  499.00   14.36
   2  -3   5  522.45   14.37
  -2  -3  -4  363.27   10.33
   2  -3   4  366.05   10.46
   2   3  -4  364.24   10.69
  -2   3   4  378.62    9.86
  -2  -3  -4  351.86   10.56
   2  -3   4  372.11   10.49
  -2  -3  -3  122.45    4.22
  -2  -3  -3  115.11    3.94
   2  -3   3  122.52    4.05
   2  -3   3  121.85    4.00
  -2  -3  -2  110.65    3.88
  -2  -3  -2   95.46    3.50
   2  -3   2  105.30    3.54
   2  -3   2  112.38    3.56
   2  -3   1    8.50    1.14
   2  -3   1    9.31    1.20
  -2  -3  -1    7.68    1.59
   2  -3   0  715.42   18.92
   2  -3   0  703.94   18.89
   2  -3  -1    8.48    1.00
   2   3   1    6.75    1.77
   2  -3  -2  104.22    3.56
   2   3   2  109.52    4.09
   2  -3  -2  110.54    3.23
   2  -3  -3  122.87    3.52
   2   3   3  115.97    4.32
   2  -3  -3  122.28    3.45
   2  -3  -3  120.79    3.97
   2  -3  -4  380.45   10.38
   2  -3  -4  390.01    9.94
   2  -3  -4  375.63    9.78
   2  -3  -4  355.70    9.77
   2  -3  -5  539.64   14.32
   2   3   6  150.25    5.27
   2   3   7   65.97    3.08
   2   3   7   72.84    3.11
   2   3   7   73.68    3.42
   2   3   8  304.76    9.60
   2   3   8  310.84    9.31
   2   3   8  325.06    9.32
   2   3   9  166.40    6.01
   2   3   9  167.33    5.68
   2   3  10   78.49    3.67
   2   3  11   70.47    3.63
  -2  -3  12   81.48    3.82
   2   3  12   72.98    3.72
   2   3  12   76.05    3.84
  -2  -3  13   44.45    3.13
   2   3  13   43.90    3.25
   2   3  13   40.27    2.75
  -2  -3  14   46.79    3.23
   2   3  14   42.70    2.91
   2   3  14   41.25    3.29
  -2  -3  15   78.23    3.96
   2   3  15   66.25    4.22
   2   3  15   65.13    3.99
   2   3  15   75.76    3.72
   2   3  16   58.43    3.95
   2   3  16   52.61    3.84
   2   3  16   48.33    3.22
   2   3  17   19.22    3.17
   2   3  17   17.18    3.20
   2   3  18   48.28    4.01
   2   3  18   46.80    3.97
   2   3  19   12.53    3.30
  -2   4  18   -3.28    3.12
   2   4 -18    2.93    2.88
  -2   4  17   14.24    3.05
   2   4 -17   16.27    2.85
  -2   4  17   17.15    2.43
  -2   4  16   13.98    3.04
   2   4 -16   12.06    2.78
  -2   4  16   10.30    2.21
  -2   4  15   34.79    3.34
  -2   4  15   39.11    2.66
   2   4 -15   42.87    3.28
  -2   4  14  101.73    4.67
   2   4 -14  103.48    4.79
   2  -4  13   19.05    2.66
   2   4 -13   20.85    2.82
  -2   4  13   20.65    1.16
  -2   4  13   17.94    2.74
  -2   4  12   39.54    3.10
  -2  -4 -12   44.07    3.32
  -2   4  12   37.45    1.39
   2  -4  12   41.42    3.10
   2   4 -12   38.79    3.09
  -2   4  11  130.76    4.89
   2  -4  11  125.05    4.55
   2  -4  11  124.10    4.86
   2   4 -11  133.34    4.95
  -2   4  10  274.66    8.34
   2  -4  10  245.18    8.00
  -2  -4 -10  249.69    7.95
   2   4 -10  277.64    8.50
   2  -4  10  258.99    8.33
   2  -4   9  165.89    5.88
   2  -4   9  169.29    5.69
  -2  -4  -9  163.43    5.56
   2   4  -9  179.05    6.10
   2  -4   8  379.22   11.03
   2   4  -8  399.08   11.43
  -2  -4  -8  381.70   11.01
   2  -4   8  371.89   11.25
   2   4  -7  346.24   10.07
   2  -4   7  322.70    9.60
   2  -4   7  327.69    9.84
  -2  -4  -7  333.20    9.70
   2  -4   6   22.11    1.86
  -2  -4  -6   23.78    2.00
   2  -4   6   25.16    2.09
  -2  -4  -6   24.59    1.96
  -2  -4  -5  433.39   12.21
   2  -4   4  226.92    6.85
  -2  -4  -4  217.34    6.83
   2  -4   4  234.08    6.86
  -2  -4  -3   26.60    1.95
   2  -4   3   28.20    1.84
   2  -4   3   27.62    1.82
   2   4  -2  479.19   13.57
   2  -4   2  469.12   13.10
   2  -4   2  483.74   13.08
   2   4  -1  480.66   13.48
   2  -4   1  491.09   12.98
   2  -4   1  458.87   12.97
   2  -4   0  100.95    3.46
   2  -4   0  108.38    3.48
   2   4   1  471.76   13.26
   2  -4  -1  465.01   12.55
   2   4   2  466.19   13.23
   2  -4  -2  466.00   12.42
   2  -4  -3   25.86    1.90
   2   4   3   27.07    2.28
   2  -4  -3   24.91    1.02
   2  -4  -4  242.35    6.76
   2   4   4  229.35    7.41
   2  -4  -4  241.83    7.19
   2  -4  -5  455.28   12.70
   2   4   5  426.70   12.87
   2  -4  -5  463.68   12.26
   2   4   6   27.03    1.94
   2  -4  -6   27.02    1.58
   2  -4  -6   28.09    2.15
   2   4   7  320.52    9.80
   2  -4  -7  346.21    9.35
   2   4   8  367.42   11.41
   2  -4  -8  420.06   11.07
  -2  -4  10  265.21    8.49
  -2  -4  11  130.02    5.05
   2   4  11  121.47    5.10
  -2  -4  12   42.33    3.16
   2   4  12   37.85    3.23
  -2  -4  13   25.47    2.68
   2   4  13   15.51    2.73
   2   4  14  103.38    5.00
   2   4  14   98.60    4.19
   2   4  14   94.68    4.69
   2   4  15   34.29    3.41
   2   4  15   36.96    2.84
   2   4  15   42.70    3.71
   2   4  16   13.13    2.37
   2   4  16   12.03    3.05
   2   4  16    7.85    3.12
   2   4  17   12.56    3.24
   2   4  17   14.41    3.37
   2   4  18   -2.05    3.04
   2   5 -17   23.56    3.20
  -2   5  17   14.03    3.23
   2   5 -16   29.84    3.32
  -2   5  16   18.68    3.24
   2   5 -15   -1.21    2.38
   2   5 -14   30.71    3.24
   2   5 -13   32.24    3.12
   2   5 -12   83.27    4.41
  -2  -5 -11   37.72    3.13
   2  -5  11   33.00    2.87
  -2  -5 -11   38.24    2.47
   2   5 -11   38.14    3.23
   2   5 -10   54.84    3.53
   2  -5  10   49.16    2.84
  -2  -5 -10   53.41    2.77
   2  -5  10   48.58    3.20
  -2  -5  -9   14.69    1.92
   2  -5   9   15.97    2.34
   2   5  -9   20.02    2.61
   2  -5   9   19.21    2.11
   2  -5   8   37.09    2.37
  -2  -5  -8   39.62    2.46
   2  -5   8   36.75    2.77
  -2  -5  -7   17.67    1.99
   2  -5   7   17.46    2.17
   2  -5   7   18.28    1.85
   2  -5   6  161.05    5.14
   2  -5   6  153.48    5.44
   2   5  -5  296.36    9.18
   2  -5   5  298.59    8.57
   2  -5   5  290.48    8.80
   2   5  -4  180.47    6.27
   2  -5   4  180.58    5.82
   2   5  -3   32.28    2.58
  -2  -5  -3   34.46    2.22
   2  -5   3   31.78    2.07
   2   5  -2   97.49    4.06
   2  -5   2   91.11    3.38
   2  -5   2   98.58    3.36
   2  -5   1   11.27    1.27
   2  -5   1    8.98    1.27
   2   5  -1   12.68    2.21
   2   5   0  321.78    9.79
   2  -5   0  332.74    9.08
   2  -5   0  323.68    9.09
   2  -5  -1   12.06    1.11
   2  -5  -1   11.71    1.13
   2   5   1   12.73    2.05
  -2  -5   1   12.78    2.06
   2  -5  -2   91.17    2.86
   2   5   2   98.52    3.92
   2  -5  -3   32.46    1.21
   2   5   3   33.11    2.57
   2  -5  -3   32.32    2.32
  -2   5  -3   36.18    2.04
   2  -5  -4  180.28    5.41
   2   5   4  176.47    6.00
   2  -5  -4  179.85    5.86
  -2   5  -4  173.48    5.67
   2   5   5  302.90    8.95
   2  -5  -5  311.16    8.76
   2   5   5  304.47    9.37
   2  -5  -5  322.40    9.31
  -2   5  -5  310.22    9.19
   2  -5  -6  187.11    5.85
   2   5   6  164.82    5.41
   2   5   6  150.85    5.74
   2  -5  -6  181.88    5.25
  -2   5  -6  155.87    5.63
  -2   5  -7   19.34    2.28
   2  -5  -7   40.03    2.75
   2   5   7   16.82    2.38
   2   5   7   18.65    1.93
   2   5   8   38.42    2.83
   2   5   8   38.97    2.39
   2  -5  -8   49.68    2.34
  -2   5  -8   41.90    2.81
  -2   5  -9   16.81    2.34
   2  -5  -9   17.49    1.83
  -2  -5  10   57.43    3.33
  -2   5 -10   52.28    3.25
  -2  -5  11   41.08    3.14
  -2   5 -11   43.22    3.17
  -2   5 -12   78.74    4.17
   2   5  14   24.40    2.44
   2   5  14   22.99    3.36
   2   5  15    2.87    2.06
   2   5  15   -1.05    2.95
   2   5  16   24.01    3.33
   2   5  16   18.02    3.39
   2   5  17   21.39    3.48
   2   6 -15   40.83    3.54
   2   6 -14   25.50    3.08
   2   6 -13    7.63    2.72
   2   6 -12   23.22    3.13
  -2  -6 -11    3.49    1.87
   2  -6  10   24.57    2.76
  -2  -6 -10   28.62    2.26
   2  -6   9  101.93    4.51
  -2  -6  -9  104.57    4.68
  -2  -6  -9  104.92    4.06
  -2  -6  -8  119.86    4.92
   2  -6   8  116.97    4.24
   2   6  -8  115.15    5.07
  -2  -6  -8  127.62    4.51
   2  -6   8  110.07    4.68
   2   6  -7  122.30    4.93
  -2  -6  -7  115.49    4.65
   2  -6   7  108.47    3.96
   2  -6   7  103.19    4.47
  -2  -6  -7  112.61    4.24
  -2  -6  -6    1.65    2.24
   2  -6   6    2.95    1.92
   2   6  -6    5.79    2.32
   2  -6   6    4.96    1.46
   2   6  -5   28.95    2.76
   2  -6   5   23.80    1.77
   2  -6   5   24.70    2.23
   2   6  -4   39.46    3.14
   2  -6   4   37.70    1.96
   2  -6   4   40.96    2.41
   2  -6   3   72.82    3.08
   2   6  -3   72.12    3.76
   2  -6   2   20.42    1.77
   2   6  -2   18.10    2.57
   2  -6   1   40.08    2.07
   2   6  -1   47.34    3.06
   2  -6   1   43.30    2.06
   2  -6   0    3.38    1.23
   2   6   0    3.38    2.13
   2  -6   0    8.16    1.19
   2  -6  -1   36.94    1.84
   2   6   1   43.08    2.92
  -2  -6   1   41.75    2.98
   2  -6  -1   44.16    1.76
   2  -6  -2   16.01    1.20
  -2   6  -2   15.34    1.70
   2   6   2   17.74    2.36
  -2  -6   2   17.62    2.43
   2  -6  -2   18.35    1.08
   2   6   3   70.05    2.69
   2   6   3   74.16    3.53
   2  -6  -3   65.37    2.15
   2  -6  -3   69.29    3.49
  -2  -6   3   72.80    3.67
  -2   6  -3   71.08    3.01
   2  -6  -4   41.61    2.39
   2   6   4   42.21    2.10
   2   6   4   39.84    2.86
  -2  -6   4   39.39    3.09
   2  -6  -4   40.78    2.83
  -2   6  -4   41.04    2.54
   2  -6  -5   28.99    2.13
  -2  -6   5   27.67    2.71
   2   6   5   24.49    1.82
   2  -6  -5   25.82    2.60
   2   6   5   28.32    2.66
  -2   6  -5   23.52    2.23
   2  -6  -6    6.36    2.28
  -2   6  -6    1.21    1.83
  -2  -6   6    1.31    2.26
   2   6   6    2.76    2.22
   2  -6  -6    2.56    1.66
   2   6   6    4.63    1.47
   2  -6  -7  116.36    4.67
  -2  -6   7  112.59    4.81
   2   6   7  109.97    4.58
   2  -6  -7  116.18    4.04
   2   6   7  110.27    4.03
  -2   6  -7  108.57    4.50
  -2  -6   8  113.70    4.83
   2   6   8  113.74    4.68
   2  -6  -8  122.08    4.19
   2   6   8  112.83    4.15
   2  -6  -8  123.37    4.79
  -2   6  -8  111.58    4.68
  -2  -6   9  100.40    4.70
   2   6   9  103.47    4.49
   2  -6  -9  113.55    3.99
  -2   6  -9  105.52    4.60
  -2   6 -10   25.25    2.74
   2  -6 -10   26.82    2.21
   2   6  10   25.38    2.75
   2  -6 -11    1.06    1.85
  -2   6 -11    2.90    2.17
   2   6  11    7.54    2.42
  -2   6 -12   21.68    2.87
   2   6  12   21.15    2.63
  -2   6 -13    3.67    2.41
  -2   6 -14   21.33    3.10
   2   7 -11   27.19    3.30
  -2  -7 -10    4.85    1.80
   2   7 -10    6.15    2.67
   2  -7   9   41.03    3.16
  -2  -7  -9   41.49    2.66
   2   7  -9   41.62    3.52
  -2  -7  -8   13.43    2.07
   2   7  -8   13.27    2.70
   2  -7   8   11.00    2.39
  -2  -7  -8   15.34    2.76
  -2  -7  -7   83.12    4.14
   2   7  -7   86.16    4.38
   2  -7   7   80.75    3.94
  -2  -7  -7   91.98    3.75
   2  -7   6    5.91    1.42
   2   7  -6    4.13    2.49
   2  -7   6    3.93    2.02
  -2  -7  -6    3.19    2.49
   2  -7   5   92.73    3.91
   2   7  -5   92.23    4.34
   2  -7   5   92.18    3.26
  -2  -7  -5   95.85    4.42
   2  -7   4   59.85    3.01
   2  -7   4   61.22    2.43
  -2  -7  -4   57.91    3.58
   2  -7   3   74.66    3.12
   2   7  -3   73.47    3.91
  -2  -7  -3   62.46    3.76
   2  -7   3   68.69    2.56
   2  -7   2   -0.83    1.65
   2   7  -2    0.46    2.31
   2  -7   2    2.39    1.06
   2  -7   1   22.49    1.95
   2   7  -1   22.98    2.67
   2  -7   1   25.23    1.75
   2  -7   0  147.12    4.84
   2   7   0  157.35    5.73
   2  -7   0  163.06    4.81
   2  -7  -1   25.36    1.63
   2   7   1   26.11    2.67
  -2  -7   1   20.98    2.70
  -2   7  -1   24.05    1.87
   2  -7  -1   25.26    1.45
  -2   7  -2   -0.32    1.53
   2   7   2   -2.08    2.31
   2  -7  -2    0.30    1.08
   2   7   2    0.46    1.11
   2  -7  -2    1.29    0.85
  -2  -7   2   -0.86    2.34
   2   7   3   71.27    3.66
   2  -7  -3   66.45    3.72
   2  -7  -3   64.81    2.24
   2   7   3   73.70    2.62
  -2  -7   3   75.64    3.88
  -2   7  -3   72.08    3.17
   2  -7  -4   67.88    3.18
   2   7   4   69.10    3.55
  -2  -7   4   61.10    3.59
   2   7   4   65.27    2.57
   2  -7  -4   64.11    3.64
  -2   7  -4   62.08    3.12
   2   7   5   96.29    4.23
   2  -7  -5   95.33    3.85
  -2  -7   5   92.78    4.49
   2   7   5   95.42    3.37
   2  -7  -5   96.44    4.40
  -2   7  -5   98.69    4.07
   2   7   6    4.81    1.40
  -2   7  -6   -0.29    2.04
   2  -7  -6    4.47    2.45
   2   7   6    3.64    2.31
  -2  -7   6    4.06    2.62
   2  -7  -6    1.60    1.76
   2  -7  -7   87.64    4.19
   2   7   7   89.19    4.05
   2  -7  -7   79.96    3.52
  -2   7  -7   81.08    3.95
   2  -7  -8   13.17    2.03
  -2   7  -8   13.98    2.44
   2  -7  -8   12.94    2.59
   2   7   8   13.14    2.56
   2   7   9   43.64    3.20
   2  -7  -9   46.02    2.71
  -2   7  -9   38.74    3.15
  -2   7 -10    1.85    2.30
   2   7  10    4.73    2.41
   2   7  11   37.90    3.00
  -2   7 -11   34.59    3.09
   2   7  12   32.81    2.95
  -2   7 -12   37.53    3.28
   2   7  13   34.70    2.99
  -2   7 -13   38.40    3.32
  -2   7 -14   11.52    2.83
   2   8 -11   13.30    2.95
   2   8 -10    8.39    2.96
   2   8  -9   22.36    3.20
   2   8  -8   40.42    3.48
   2  -8   7   30.34    2.80
   2   8  -7   28.80    3.13
  -2  -8  -7   31.57    2.46
   2   8  -6   32.41    3.25
   2  -8   6   24.67    2.64
   2   8  -5   25.06    3.03
   2  -8   5   18.28    2.44
   2   8  -4   51.97    3.51
   2  -8   4   42.17    2.88
   2   8  -3   23.30    2.83
   2  -8   3   21.05    2.31
   2   8  -2   27.37    2.95
   2  -8   2   27.68    2.19
   2   8  -1   20.44    2.86
   2  -8   1   18.45    1.90
   2  -8   1   20.86    1.74
   2   8   0   34.51    3.07
  -2   8   0   32.80    2.04
   2  -8   0   33.93    1.88
   2   8   1   20.29    2.70
  -2   8  -1   20.12    1.87
   2   8   2   24.90    2.81
  -2  -8   2   23.46    2.88
  -2   8  -2   27.71    2.19
  -2   8  -3   22.59    2.23
   2   8   3   23.08    2.74
   2   8   4   49.25    3.25
   2  -8  -4   45.74    2.93
  -2   8  -4   47.43    2.85
  -2   8  -5   21.49    2.43
   2   8   5   21.28    2.66
   2  -8  -5   20.95    2.43
   2  -8  -6   28.46    2.59
  -2   8  -6   24.84    2.58
  -2   8  -7   26.80    2.76
   2   8   7   30.15    2.72
   2   8   8   45.02    3.14
  -2   8  -8   44.99    3.24
  -2   8  -9   20.38    2.81
   2   8   9   20.17    2.67
  -2   8 -10    7.51    2.57
   2   8  10    4.65    2.29
  -2   8 -11   12.86    2.78
   2   8  11   15.99    2.64
  -2   8 -12   15.54    2.85
   2   9  -8   21.72    3.17
   2   9  -7   27.06    3.36
   2   9  -6   33.75    3.43
   2   9  -5    1.86    2.54
   2   9  -4   36.94    3.49
   2   9  -3   35.83    3.25
   2   9  -2    9.12    2.66
   2   9  -1   23.82    2.87
   2   9   0   49.90    3.55
   2   9   1   19.32    2.91
   2   9   2    8.06    2.64
   2   9   3   31.18    3.06
  -2   9  -3   30.46    2.49
   2   9   4   28.73    2.95
  -2   9  -4   32.86    2.64
  -2   9  -5    4.93    2.21
   2   9   5    5.71    2.40
  -2   9  -6   28.50    2.81
   2   9   6   28.05    2.83
  -2   9  -7   27.12    2.89
   2   9   7   27.92    2.92
  -2   9  -8   23.22    2.94
   2   9   8   22.62    2.83
  -2   9  -9   29.38    3.11
  -2   9 -10    2.27    2.52
  -2   9 -11    8.88    2.78
   2  10  -4   23.17    3.19
   2  10  -3    1.65    2.72
   2  10  -2   35.97    3.48
   2  10  -1   34.06    3.29
   2  10   0   14.47    2.88
   2  10   1   38.05    3.32
   2  10   2   40.32    3.31
   2  10   3   -0.52    2.69
   2  10   4   23.13    2.99
  -3   0   0    5.91    1.18
  -3   0   1   10.96    1.10
   3   0  -1    8.58    1.71
   3   0   2   63.54    2.56
   3   0  -2   65.57    2.88
  -3   0   2   67.15    2.16
  -3   0  -2   66.86    2.87
   3   0  -3  188.85    5.71
   3   0   3  174.86    4.87
   3   0   3  184.65    5.50
  -3   0   3  180.39    4.98
  -3   0   3  182.89    4.93
   3   0  -4   24.32    1.86
  -3   0   4   26.52    1.15
  -3   0   4   27.09    1.27
   3   0   4   24.22    1.91
   3   0   4   26.23    1.28
   3   0  -5   35.46    2.07
   3   0   5   30.29    2.06
   3   0  -6  174.20    5.46
   3   0   6  167.24    5.58
  -3   0   7  165.49    5.30
   3   0   7  160.35    5.60
   3   0  -7  170.52    5.37
   3   0  -8   62.84    2.89
  -3   0   8   62.93    2.83
   3   0   8   62.71    3.26
   3   0  -9  106.68    4.03
  -3   0   9  114.18    4.04
   3   0   9  110.96    4.56
   3   0 -10  185.79    5.91
  -3   0  10  181.03    5.82
   3   0  10  176.94    6.41
   3   0 -11    0.62    1.66
   3   0  11    4.60    2.54
  -3   0  11    1.86    1.56
   3   0  11    3.26    2.23
   3   0  12   16.71    2.42
   3   0 -12   17.21    2.08
   3   0  12   17.30    2.71
   3   0  12   17.74    2.54
   3   0  13    9.80    2.24
   3   0 -13   11.26    2.03
   3   0  13   10.08    2.74
   3   0  13   10.59    2.66
   3   0  14   45.87    3.75
   3   0  14   41.59    3.45
   3   0 -14   53.56    2.91
  -3   0  15    1.83    1.89
   3   0 -15    1.57    1.94
   3   0  15    4.95    2.80
   3   0  15    1.21    2.52
   3   0  16    4.66    2.64
  -3   0  16   -0.85    1.96
   3   0 -16    2.47    1.97
  -3   0  16    2.65    2.12
   3   0  16    2.63    2.90
   3   0  17    0.89    2.63
   3   0 -17    1.27    2.06
   3   0  18   26.36    3.34
   3   0  18   25.43    3.47
  -3   1  19   19.29    3.25
   3  -1  18   31.46    3.41
   3   1 -18   34.65    3.01
   3  -1  18   30.19    3.83
   3  -1  17    4.80    2.74
  -3   1  17   12.70    2.86
   3   1 -17    9.59    2.40
   3  -1  17    6.31    3.09
   3  -1  16   34.29    3.34
   3  -1  16   40.33    3.50
   3  -1  16   35.74    3.72
   3  -1  15    4.22    2.41
   3  -1  15    4.61    2.59
   3   1 -15    3.17    2.12
  -3   1  15    4.89    1.75
   3  -1  15    2.72    2.82
   3  -1  14  100.49    4.89
  -3   1  14  118.07    3.99
   3  -1  14  102.12    4.93
   3  -1  14  107.07    4.97
   3   1 -14  119.27    4.61
   3   1 -13   17.37    2.35
  -3   1  13   19.20    1.97
   3  -1  13   17.56    2.62
  -3   1  13   17.08    1.73
   3  -1  13   20.40    2.78
  -3   1  12   33.97    2.20
   3  -1  12   30.96    2.79
  -3   1  12   31.59    1.86
   3  -1  12   32.30    3.02
   3   1 -12   36.31    2.61
   3  -1  11   43.40    3.04
  -3   1  11   49.17    2.45
  -3   1  11   48.86    2.08
   3  -1  11   46.17    3.20
  -3   1  11   50.64    2.78
   3   1 -11   48.62    2.92
   3   1 -10  132.69    4.62
  -3   1  10  125.11    4.14
  -3   1  10  120.65    4.39
  -3   1  10  116.50    3.71
   3  -1  10  118.59    4.85
   3   1  -9   26.08    2.29
  -3   1   9   29.25    1.87
  -3   1   9   27.05    2.12
  -3   1   9   27.36    1.34
   3  -1   9   23.35    2.49
   3  -1   9   23.99    2.57
  -3   1   8    3.98    1.54
   3   1  -8    2.66    1.77
  -3   1   8    2.06    0.73
   3  -1   8    3.89    1.96
   3  -1   8    1.30    1.98
   3   1  -7  122.68    4.37
   3  -1   7  110.61    4.31
   3  -1   7  117.73    4.55
  -3   1   7  117.44    3.89
   3   1  -6  680.51   17.97
  -3   1   6  657.58   17.49
   3   1  -5  171.49    5.39
  -3   1   5  162.03    4.78
   3  -1   5  151.89    5.18
   3   1  -4  235.86    6.95
   3  -1   4  227.65    6.71
  -3  -1  -4  211.59    6.74
   3   1  -3   95.08    3.76
   3  -1   3  104.56    3.42
  -3  -1  -3   91.95    3.47
   3   1  -2   26.45    2.22
   3  -1   2   28.65    1.63
  -3  -1  -2   23.90    1.75
   3   1  -1  187.20    5.95
   3  -1   1  182.01    5.26
  -3  -1  -1  183.32    5.53
   3  -1   0  391.98   10.58
   3   1   0  386.01   11.30
  -3  -1   0  389.25   10.85
  -3   1   0  418.65   11.18
  -3  -1   1  177.60    5.29
  -3   1  -1  185.18    5.68
  -3  -1   2   25.52    1.53
   3  -1  -2   24.85    1.88
  -3   1  -2   25.26    1.89
  -3  -1   3  101.63    3.21
   3   1   3   96.78    3.60
   3  -1  -3   97.88    3.51
  -3   1  -3   98.21    3.66
   3   1   4  224.85    6.93
   3  -1  -4  234.73    6.71
  -3   1  -4  218.44    6.92
   3  -1  -5  162.31    4.89
   3   1   5  159.66    5.23
   3   1   5  149.83    4.60
   3  -1  -6  640.96   17.27
   3   1   6  612.69   17.60
   3   1   6  603.55   17.11
   3  -1  -7  118.11    3.99
  -3  -1   7  131.44    4.39
   3   1   7  111.73    4.41
   3   1   7  113.04    3.92
   3  -1  -8    5.98    1.42
  -3  -1   8    3.05    1.51
   3   1   8    2.49    2.05
   3   1   8    4.47    1.58
   3  -1  -9   25.90    1.88
   3   1   9   24.45    2.09
   3   1   9   26.74    2.60
   3   1  10  113.78    4.83
   3   1  10  111.20    4.28
   3  -1 -10  123.94    4.11
   3   1  11   46.14    3.12
   3   1  11   48.21    3.43
   3   1  11   46.50    2.88
   3  -1 -11   49.75    2.45
   3   1  12   35.66    3.15
   3   1  12   35.24    2.66
   3   1  12   27.96    2.68
   3   1  12   29.18    2.67
   3  -1 -12   33.47    2.13
   3   1  13   15.39    2.48
   3  -1 -13   20.37    1.94
   3   1  13   19.58    3.06
   3   1  13   16.46    2.65
  -3  -1  14  120.87    4.67
   3   1  14  121.47    5.35
   3   1  14  111.38    5.10
   3  -1 -14  118.27    4.30
   3   1  15    5.66    2.48
   3  -1 -15    6.30    1.78
  -3  -1  15    5.52    2.25
   3   1  15    5.52    2.84
  -3  -1  16   42.33    3.03
   3   1  16   41.60    3.77
   3   1  16   41.78    3.42
   3   1  16   41.71    3.30
   3   1  16   39.24    3.49
   3  -1 -16   44.85    2.63
   3   1  17    8.89    2.83
  -3  -1  17   10.02    2.50
   3   1  17    8.04    2.90
   3   1  17    6.95    2.75
   3   1  18   38.22    3.55
   3   1  18   36.75    3.84
   3   1  18   34.80    3.47
   3   1  19   19.54    3.38
   3   2 -20   13.95    2.91
   3   2 -19   -1.58    2.59
  -3   2  19    6.93    3.09
   3   2 -18   17.07    2.79
  -3   2  18   20.52    3.22
   3  -2  17   35.82    3.30
   3   2 -17   38.41    3.23
  -3   2  17   47.31    3.49
   3  -2  17   38.13    3.71
   3  -2  16   12.12    3.01
   3  -2  16   16.03    2.84
   3   2 -16   14.84    2.51
  -3   2  16   17.02    2.75
   3  -2  15   11.72    3.09
   3  -2  15   11.67    2.66
   3   2 -15   12.38    2.39
  -3   2  15   11.69    2.60
  -3   2  14   48.31    2.35
   3  -2  14   41.83    3.30
   3  -2  14   46.25    3.76
  -3   2  14   53.39    3.25
   3   2 -14   50.59    3.25
  -3   2  13   43.31    2.14
  -3   2  13   47.95    2.28
  -3   2  13   51.78    3.14
   3  -2  13   41.79    3.15
   3  -2  13   47.89    3.60
   3   2 -13   47.45    3.14
   3  -2  12    7.33    2.31
   3  -2  12    5.89    2.61
  -3   2  12   11.64    2.26
   3  -2  12    7.02    2.14
   3   2 -12   10.37    2.28
  -3   2  12    8.30    1.31
  -3   2  12    7.99    1.42
   3  -2  12   10.59    2.48
   3  -2  11   18.81    2.50
   3  -2  11   21.19    2.81
  -3   2  11   20.86    1.42
   3  -2  11   22.79    2.47
   3   2 -11   23.18    2.47
   3  -2  11   18.26    2.49
  -3   2  11   23.58    2.41
   3   2 -10  256.95    7.97
  -3   2  10  248.25    6.83
   3  -2  10  229.35    7.90
   3  -2  10  260.39    8.22
  -3   2  10  257.06    7.69
   3  -2  10  241.04    8.09
   3  -2  10  238.02    8.02
   3   2  -9  115.77    4.52
   3  -2   9  106.72    4.61
  -3   2   9  117.68    4.20
   3  -2   9  119.42    4.77
   3  -2   9  114.58    4.69
   3  -2   9  112.53    4.63
  -3  -2  -9  115.20    4.54
   3   2  -8  326.81    9.49
  -3   2   8  318.43    9.05
   3  -2   8  312.50    9.55
   3  -2   8  302.33    9.45
  -3  -2  -8  288.20    9.31
   3   2  -7   38.37    2.66
  -3   2   7   37.35    2.21
   3  -2   7   38.77    2.69
   3  -2   7   36.44    2.63
   3   2  -6   55.06    2.94
   3  -2   6   55.09    2.94
   3  -2   6   56.36    3.01
   3   2  -5  132.40    4.85
  -3  -2  -5  131.63    4.66
   3  -2   5  137.64    4.67
   3  -2   5  134.28    4.79
   3  -2   5  132.09    4.74
   3   2  -4  380.67   11.24
  -3  -2  -4  383.56   11.09
   3  -2   4  395.58   10.93
   3   2  -3  151.54    5.30
  -3  -2  -3  148.49    5.05
   3  -2   3  158.21    4.83
  -3   2   3  160.72    4.86
   3  -2   2    8.89    1.27
  -3   2   2    9.84    1.35
   3   2  -2    7.75    1.89
  -3  -2  -2    8.69    1.52
   3   2  -1  161.60    5.54
  -3  -2  -1  163.88    5.13
   3  -2   1  166.76    4.74
  -3   2   1  166.43    5.08
  -3  -2  -1  158.63    4.62
  -3  -2   0   93.72    3.44
  -3  -2   0   95.02    2.96
   3   2   0   94.94    3.90
   3  -2   0   93.19    2.94
   3  -2   0  103.74    2.93
  -3   2   0   97.51    3.43
   3  -2  -1  159.66    4.64
  -3  -2   1  169.82    5.12
   3  -2  -1  161.93    4.41
   3   2   1  172.73    5.67
  -3   2  -1  170.22    5.21
  -3   2  -2    7.56    1.40
  -3  -2   2    7.94    1.43
   3  -2  -3  149.34    4.61
   3  -2  -4  388.94   10.74
   3   2   5  130.69    4.73
   3  -2  -5  129.36    4.05
   3  -2  -6   55.16    2.24
   3   2   6   57.34    3.12
   3  -2  -7   39.80    1.88
   3   2   7   36.62    2.75
   3   2   7   36.00    2.16
   3  -2  -8  307.28    8.49
   3   2   8  307.64    9.39
   3   2   8  292.92    8.83
   3   2   9  109.02    4.74
   3   2   9  113.25    4.28
   3  -2  -9  121.75    3.80
   3   2  10  234.25    7.98
   3   2  10  244.12    8.14
   3   2  10  248.80    7.71
   3  -2 -10  251.50    7.11
   3   2  11   21.63    2.41
  -3  -2  11   20.15    2.43
   3   2  11   15.07    2.60
   3   2  11   23.00    2.65
   3  -2 -11   21.45    1.57
   3  -2 -12    8.95    1.40
  -3  -2  12    9.21    2.28
   3   2  12    8.79    2.76
   3   2  12    8.45    2.32
   3   2  12    8.32    2.31
  -3  -2  13   53.44    3.20
   3   2  13   43.16    3.48
   3   2  13   44.70    3.36
   3   2  13   40.01    3.10
   3   2  13   48.67    3.21
   3  -2 -13   47.93    2.32
  -3  -2  14   51.62    3.20
   3   2  14   47.40    3.69
   3   2  14   47.77    3.50
   3  -2 -14   54.59    2.45
   3   2  14   48.82    3.39
   3   2  15   13.10    2.60
   3   2  15   10.86    2.73
  -3  -2  15   11.57    2.57
   3   2  15   12.32    3.10
   3   2  16   14.54    2.94
   3   2  16   14.41    2.81
   3   2  16   18.51    3.34
   3   2  17   39.31    3.93
   3   2  17   36.82    3.52
   3   2  18   27.60    3.48
   3   2  19    3.09    3.05
   3   3 -18   23.42    3.09
  -3   3  18   17.65    3.23
   3  -3  17    6.49    3.17
   3   3 -17    8.71    2.73
  -3   3  17    9.28    2.92
   3  -3  16   19.26    2.89
   3  -3  16   22.93    3.62
  -3   3  16   25.07    3.10
   3   3 -16   28.41    3.11
   3  -3  15   33.34    3.27
  -3   3  15   40.26    3.28
   3  -3  15   38.94    3.36
   3   3 -15   39.72    3.27
   3  -3  14   44.67    3.30
  -3   3  14   48.44    3.36
   3  -3  14   47.56    3.49
   3   3 -14   49.64    3.52
   3  -3  13   79.91    4.23
  -3   3  13   97.11    4.25
   3  -3  13   85.75    4.32
   3   3 -13   96.59    4.44
   3  -3  12  107.08    4.83
   3  -3  12  101.86    4.61
  -3   3  12  120.58    4.71
   3   3 -12  119.17    4.89
   3   3 -11   80.61    4.01
   3  -3  11   72.94    3.87
  -3   3  11   80.07    3.70
   3  -3  11   77.55    3.92
   3  -3  11   79.08    3.94
   3   3 -10   79.76    3.79
   3  -3  10   67.49    3.66
  -3   3  10   78.94    3.58
  -3  -3 -10   77.56    4.09
   3  -3  10   75.32    3.81
   3  -3  10   74.43    3.80
  -3  -3 -10   67.70    3.48
   3   3  -9  242.57    7.59
  -3   3   9  237.56    7.25
   3  -3   9  217.30    7.49
  -3  -3  -9  220.41    7.56
   3  -3   9  233.82    7.58
   3  -3   9  226.60    7.60
  -3  -3  -9  222.59    7.39
   3  -3   8   18.28    2.37
  -3  -3  -8   20.95    2.24
   3  -3   8   20.39    2.32
   3   3  -8   18.73    2.51
  -3  -3  -8   19.13    2.53
   3   3  -7  288.84    8.70
   3  -3   7  276.65    8.55
  -3  -3  -7  267.11    8.50
   3  -3   7  264.86    8.49
   3   3  -6  469.36   13.51
  -3  -3  -6  460.22   13.43
  -3   3   6  477.26   12.63
   3  -3   6  464.70   13.35
   3  -3   6  440.52   13.27
   3   3  -5   94.75    4.12
  -3   3   5   99.59    3.23
   3  -3   5   97.44    3.91
   3  -3   5   95.20    3.81
   3   3  -4  339.92   10.01
   3  -3   4  333.58    9.74
   3  -3   4  323.83    9.71
  -3   3   4  331.88    9.22
  -3  -3  -3  195.63    6.11
  -3  -3  -3  201.79    6.55
   3  -3   3  205.76    6.50
  -3   3   3  204.42    6.10
  -3   3   2    2.75    1.13
   3  -3   2    3.00    1.41
   3   3  -2    3.35    2.01
  -3  -3  -2    2.53    1.23
  -3  -3  -2    3.33    1.67
   3   3  -1   98.12    4.03
  -3  -3  -1   95.97    3.66
  -3  -3  -1   88.70    3.13
   3  -3   1   96.27    3.40
  -3   3   1   94.98    3.29
  -3  -3   0  716.69   19.51
   3  -3   0  713.26   19.26
  -3  -3   1   94.35    3.60
   3  -3  -1   95.16    3.17
   3  -3  -2    3.01    1.17
   3  -3  -3  200.10    5.84
   3  -3  -3  204.12    5.94
   3  -3  -4  333.64    9.17
   3  -3  -5   99.00    3.12
   3  -3  -6  445.42   11.95
   3  -3  -7  268.02    7.39
   3   3   7  277.64    8.64
   3   3   8   19.05    2.68
   3  -3  -8   18.34    1.13
   3   3   9  229.29    7.71
  -3  -3   9  238.01    7.51
   3  -3  -9  226.88    6.32
   3   3  10   74.91    4.10
   3   3  10   70.06    3.53
   3   3  10   72.85    3.72
  -3  -3  10   83.00    3.91
   3  -3 -10   77.16    2.46
   3   3  11   76.53    4.20
  -3  -3  11   84.37    3.91
   3   3  11   75.50    3.94
   3   3  11   74.27    3.70
   3  -3 -11   79.38    2.53
  -3  -3  12  117.19    4.84
   3   3  12  109.56    5.13
   3   3  12  105.53    4.88
   3   3  12  104.07    4.66
   3  -3 -12  119.27    3.50
  -3  -3  13   92.58    4.27
   3   3  13   91.96    4.77
   3   3  13   85.26    4.36
   3   3  13   80.72    4.14
   3   3  14   41.24    3.69
   3   3  14   44.79    3.42
   3   3  14   43.49    3.30
   3   3  15   39.73    3.34
   3   3  15   40.80    3.28
   3   3  15   36.54    3.54
   3   3  16   20.00    3.11
   3   3  16   27.68    3.56
   3   3  17    6.96    3.01
   3   3  17   10.06    3.13
   3   3  18   19.38    3.39
  -3   4  18    1.12    3.02
  -3   4  17   82.04    4.60
   3   4 -17   89.36    4.80
   3  -4  16    8.61    2.79
   3   4 -16   13.73    3.00
  -3   4  16    8.48    2.91
   3  -4  15    4.79    2.52
   3  -4  15    3.95    2.58
   3   4 -15    6.78    2.74
  -3   4  15    0.29    2.80
   3  -4  14   11.21    2.62
   3  -4  14   10.10    2.50
   3   4 -14    9.06    2.78
  -3   4  14    7.49    2.59
  -3   4  13  109.26    4.80
   3  -4  13   98.04    4.75
   3   4 -13  108.10    4.91
   3  -4  13  108.34    4.85
   3  -4  12    2.31    2.27
   3   4 -12    2.48    2.54
   3  -4  12    2.43    2.24
   3  -4  11   64.56    3.55
   3  -4  11   64.98    3.66
   3  -4  11   67.40    3.82
  -3  -4 -11   63.14    3.45
   3   4 -11   67.94    3.75
   3   4 -10   82.17    4.09
   3  -4  10   70.66    3.70
  -3  -4 -10   77.82    4.06
  -3   4  10   76.89    2.33
   3  -4  10   75.50    3.80
   3  -4  10   78.63    3.94
  -3  -4 -10   75.46    3.64
   3   4  -9   85.84    4.07
   3  -4   9   82.38    3.77
  -3  -4  -9   84.88    4.10
  -3   4   9   75.50    2.39
  -3  -4  -9   84.43    3.72
   3  -4   9   84.68    3.89
   3  -4   9   88.58    4.04
   3   4  -8   92.90    4.06
   3  -4   8   82.62    3.81
  -3  -4  -8   87.85    4.14
  -3  -4  -8   86.69    3.75
   3  -4   8   84.64    3.87
  -3   4   8   80.85    2.51
   3  -4   8   84.47    3.90
   3   4  -7  235.73    7.67
  -3  -4  -7  231.77    7.54
  -3  -4  -7  237.57    7.38
   3  -4   7  216.32    7.19
   3  -4   7  226.35    7.30
  -3   4   7  216.66    6.11
   3   4  -6   34.90    3.05
  -3  -4  -6   33.27    2.86
  -3  -4  -6   34.06    2.55
   3  -4   6   41.44    2.59
   3  -4   6   34.50    2.59
   3   4  -5  443.16   12.80
   3  -4   5  440.78   12.43
   3  -4   5  413.31   12.37
  -3  -4  -4   70.12    3.01
   3   4  -4   68.31    3.73
   3  -4   4   76.58    3.23
   3  -4   4   72.10    3.22
  -3  -4  -3   28.40    2.00
   3  -4   3   30.66    2.09
   3  -4   3   27.44    2.02
  -3  -4  -2   54.72    2.50
   3  -4   2   55.96    2.50
  -3  -4  -1  294.30    8.49
   3  -4   1  293.53    8.48
   3  -4   0   12.46    1.38
   3  -4  -1  300.54    8.51
   3   4   1  299.80    9.28
   3  -4  -1  289.97    8.32
   3   4   2   54.40    3.37
   3  -4  -2   56.86    2.53
   3  -4  -2   58.71    2.21
   3  -4  -3   27.95    1.21
   3   4   3   28.16    2.70
   3  -4  -3   31.82    1.97
   3  -4  -3   28.82    1.42
   3  -4  -4   80.48    3.04
   3  -4  -4   73.02    2.31
   3   4   4   69.66    3.74
   3  -4  -4   68.16    2.10
   3  -4  -4   65.67    2.26
   3  -4  -5  397.50   10.74
   3   4   5  416.46   12.18
   3  -4  -5  411.24   10.74
  -3  -4   7  242.96    7.93
  -3  -4   8   90.49    4.18
   3   4   9   80.96    3.89
  -3  -4   9   85.44    4.02
  -3  -4  10   82.18    4.10
   3   4  10   76.06    3.87
   3   4  11   66.59    4.25
  -3  -4  11   71.05    3.89
   3   4  11   61.43    3.60
   3   4  12   -0.56    2.75
   3   4  12    2.13    2.29
   3   4  13   98.30    4.92
   3   4  13  101.28    4.69
   3   4  14    9.36    2.66
   3   4  14   10.01    3.17
   3   4  14    3.52    2.65
   3   4  15    3.12    2.89
   3   4  15    1.91    2.82
   3   4  16    6.33    2.94
   3   4  17   76.55    4.56
   3   4  18   -1.60    3.13
   3   5 -15   40.21    3.70
   3  -5  15   39.81    3.47
   3  -5  14    1.11    2.50
   3  -5  14    2.09    2.40
   3   5 -14   -0.54    2.79
   3  -5  13   44.40    3.28
   3  -5  13   49.13    3.50
   3   5 -13   47.32    3.67
   3  -5  12    2.68    2.36
  -3  -5 -12    2.21    2.12
   3   5 -12    2.48    2.52
   3  -5  12    5.97    2.31
   3  -5  11   30.42    2.83
  -3  -5 -11   27.30    2.60
   3   5 -11   31.80    3.17
   3  -5  11   27.22    2.68
  -3  -5 -10   11.04    2.21
   3  -5  10    8.90    2.26
   3  -5  10    8.84    2.44
   3   5 -10   11.15    2.72
   3  -5  10    7.82    2.17
   3   5  -9  231.37    7.68
   3  -5   9  210.19    7.13
  -3  -5  -9  222.89    7.25
   3  -5   9  214.18    7.30
   3  -5   9  206.17    7.28
  -3  -5  -8    3.57    2.11
   3  -5   8    2.68    1.99
   3  -5   8    4.41    2.24
   3   5  -8    6.19    2.57
   3  -5   8    3.77    1.92
  -3  -5  -8    5.72    2.58
   3   5  -7  132.94    5.34
   3  -5   7  119.57    4.74
  -3  -5  -7  123.68    5.11
  -3  -5  -7  129.36    4.92
   3  -5   7  132.70    4.91
   3  -5   7  126.52    4.91
   3   5  -6   23.45    2.95
  -3  -5  -6   28.66    2.59
  -3  -5  -6   26.70    2.89
   3  -5   6   29.35    2.40
   3  -5   6   26.91    2.35
  -3  -5  -5   60.23    3.51
   3  -5   5   57.72    2.98
   3  -5   5   59.03    3.03
   3  -5   4    7.39    1.76
   3  -5   4   10.50    1.86
  -3  -5  -4    9.32    2.40
  -3  -5  -3  206.54    7.15
  -3  -5  -3  222.21    6.77
   3  -5   3  225.19    6.79
   3  -5   3  213.27    6.72
   3  -5   2    2.69    1.34
   3   5  -2    2.70    2.31
  -3  -5  -2   -0.23    2.31
  -3  -5  -2   -0.37    1.59
   3  -5   2    3.94    1.41
   3  -5   1    4.90    1.40
   3   5  -1    7.60    2.30
   3   5   0   31.02    2.95
   3  -5   0   36.45    1.93
   3  -5  -1    9.99    1.31
   3   5   1    6.50    2.43
   3   5   2    2.35    2.46
   3  -5  -2   -0.89    1.72
   3  -5  -3  216.82    6.17
   3   5   3  219.17    7.37
   3  -5  -3  230.76    6.81
   3  -5  -3  210.64    6.01
   3  -5  -4    9.45    1.93
   3  -5  -4    7.14    0.65
   3  -5  -4    9.73    1.14
   3   5   4    4.32    2.46
   3  -5  -4    7.73    0.61
   3  -5  -5   63.40    3.05
   3   5   5   55.25    3.56
   3  -5  -5   63.05    2.24
   3  -5  -6   26.37    1.43
   3   5   6   29.77    2.96
  -3  -5   7  146.09    5.47
   3   5   7  127.67    5.43
  -3  -5   8    6.10    2.50
   3   5   8    2.93    2.37
   3   5   9  216.84    7.25
   3   5  10    7.61    2.21
   3   5  11   28.70    2.72
   3   5  12    7.04    2.41
   3   5  13   44.92    3.30
   3  -6  14    6.01    2.62
   3  -6  13   47.31    3.52
   3   6 -13   39.28    3.74
   3  -6  12    9.05    2.34
   3  -6  12    7.01    2.44
   3   6 -12    8.42    2.89
   3  -6  11   20.31    2.49
   3  -6  11   15.57    2.63
   3   6 -11   20.71    3.17
  -3  -6 -10    2.89    2.09
   3  -6  10    0.42    2.17
   3   6 -10    3.23    2.72
   3  -6  10    3.39    2.08
  -3  -6  -9   24.91    2.58
   3  -6   9   24.87    2.65
   3  -6   9   22.68    2.79
   3   6  -9   22.43    3.03
   3  -6   9   21.01    2.42
  -3  -6  -8   19.57    2.49
   3  -6   8   13.92    2.35
   3  -6   8   16.34    2.54
   3  -6   8   15.86    2.21
   3  -6   7   45.24    2.68
  -3  -6  -7   48.51    3.04
   3  -6   7   44.45    2.92
   3  -6   7   41.21    2.97
   3  -6   6    7.84    2.03
  -3  -6  -6    8.73    2.32
   3  -6   6    5.32    2.06
   3  -6   6    4.23    1.76
   3   6  -5  101.43    4.91
  -3  -6  -5  112.09    4.88
   3  -6   5  113.17    4.28
   3  -6   5  105.44    4.31
   3   6  -4   75.24    4.13
  -3  -6  -4   66.95    3.72
   3  -6   4   71.44    3.14
   3  -6   4   65.66    3.22
   3  -6   3   24.50    2.06
   3   6  -3   31.52    3.10
  -3  -6  -3   28.54    2.96
   3  -6   3   27.46    2.01
   3  -6   2   -0.71    1.37
   3  -6   2   -1.19    1.46
   3   6  -2    0.69    2.56
  -3  -6  -2    0.39    2.38
   3   6  -1   69.50    3.90
  -3  -6  -1   63.66    3.72
   3  -6   1   67.99    2.75
   3  -6   1   61.35    2.71
   3  -6   0    0.90    1.31
   3   6   0    0.40    2.49
   3   6   1   70.53    3.80
   3  -6  -1   60.26    2.39
   3  -6  -2    1.15    0.95
   3   6   2    1.32    2.44
   3  -6  -2   -4.01    2.04
   3  -6  -3   25.24    1.18
   3  -6  -3   25.11    2.44
   3   6   3   22.33    2.80
   3  -6  -4   76.83    2.83
   3   6   4   66.73    3.95
  -3  -6   4   69.58    3.74
   3  -6  -4   73.37    3.53
   3   6   5  116.28    5.09
   3  -6  -5  114.16    3.73
  -3  -6   5  111.27    4.81
   3  -6  -5  112.39    4.52
   3  -6  -6   10.45    2.27
   3   6   6    3.78    2.62
   3   6   7   44.95    3.42
   3   6   8   15.71    2.78
   3   6   9   22.41    3.03
   3   6   9   24.27    2.50
   3   6  10    3.14    2.67
   3   6  10    1.87    2.16
   3   6  11   21.93    2.56
   3   6  11   19.16    2.99
   3   6  12    8.51    2.41
   3   6  12    2.73    2.65
   3   6  13   43.29    3.62
   3  -7  13    7.54    2.70
   3  -7  12    6.33    2.65
   3  -7  11    2.60    2.35
   3  -7  10   11.52    2.21
   3  -7  10    9.06    2.45
   3  -7   9   58.75    3.15
   3  -7   9   55.65    3.44
  -3  -7  -8    2.05    2.18
   3  -7   8    2.68    2.13
   3  -7   8    1.42    2.28
   3   7  -8    3.81    2.81
   3  -7   8    3.65    1.85
   3   7  -7   49.50    3.55
   3  -7   7   39.38    2.54
  -3  -7  -7   45.72    3.25
  -3  -7  -7   42.49    3.06
   3  -7   7   42.05    2.87
   3  -7   7   41.01    2.98
   3  -7   6   15.52    2.10
   3  -7   6   18.21    2.35
   3   7  -6   20.96    3.02
   3  -7   6   15.24    1.93
  -3  -7  -6   20.21    2.64
   3  -7   5   20.35    2.11
   3  -7   5   19.87    2.29
   3   7  -5   20.14    3.17
   3  -7   5   16.81    1.91
  -3  -7  -5   22.42    2.72
   3  -7   4   22.50    2.21
  -3  -7  -4   22.69    2.76
   3   7  -4   24.50    3.13
   3  -7   4   22.41    1.92
   3  -7   4   24.35    2.04
  -3  -7  -3   19.94    2.64
   3   7  -3   29.04    3.18
   3  -7   3   26.08    2.01
   3  -7   3   24.12    2.03
   3  -7   2   10.74    1.63
   3  -7   2    7.56    1.61
   3   7  -2    8.63    2.60
  -3  -7  -2    4.52    2.33
   3  -7   1    2.85    1.41
   3   7  -1    3.02    2.55
   3  -7   1    3.86    1.43
   3   7   0   67.14    3.94
   3   7   1    4.99    2.62
   3   7   2   10.27    2.82
   3  -7  -2    6.25    2.31
   3  -7  -3   26.30    2.71
   3   7   3   25.29    2.95
   3  -7  -4   29.87    2.83
   3   7   4   22.44    3.02
   3  -7  -5   23.86    2.74
   3   7   5   23.07    2.97
   3  -7  -6   22.88    2.66
   3   7   6   15.30    2.90
   3   7   7   41.41    3.45
   3  -7  -7   44.13    3.16
   3   7   8    2.56    2.74
   3   7   9   56.30    3.88
   3   7   9   60.92    3.23
   3   7  10    6.57    2.09
   3   7  10    6.45    2.84
   3   7  11    1.14    2.64
   3   7  12    5.21    2.86
   3   7  13    5.84    2.94
   3   7  14   -0.65    2.83
   3  -8  11   17.67    2.85
   3  -8  10    1.55    2.36
   3  -8   9   10.92    2.38
   3  -8   8   22.61    2.59
   3   8  -8   28.30    3.58
   3  -8   7   13.78    2.21
   3   8  -7   14.15    3.10
   3  -8   6    9.08    1.94
   3   8  -6    9.01    2.82
   3   8  -5   40.35    3.42
   3  -8   5   38.71    2.50
   3   8  -4   31.72    3.30
   3   8  -3   17.11    3.19
   3   8  -2   21.01    3.14
   3   8  -1   24.94    3.26
   3   8   0    1.65    2.70
   3   8   1   25.62    3.15
   3   8   2   23.43    3.11
   3   8   3   16.40    3.07
   3   8   4   34.23    3.36
   3   8   5   42.62    3.41
   3   8   6    9.80    2.73
   3   8   7   15.55    2.94
   3   8   8   23.17    3.19
   3   8   9    8.24    2.83
   3   8  10    4.80    2.89
   3   8  11   20.03    3.21
   3   9  -4   16.28    3.27
   3   9  -3   40.83    3.59
   3   9  -2    7.51    3.11
   3   9  -1   11.87    3.12
   3   9   0   18.56    3.21
   3   9   1   12.24    3.01
   3   9   2   10.47    2.98
   3   9   3   35.40    3.53
   3   9   4   12.54    2.98
   3   9   5    5.43    2.89
   3   9   6   30.57    3.39
   3   9   7   18.41    3.18
   3   9   8    6.35    2.91
   3   9   9   37.90    3.56
   4   0   0  209.39    6.86
   4   0  -1  112.99    4.41
   4   0  -2   26.74    2.36
   4   0   3    4.59    1.66
   4   0  -3    6.89    2.05
   4   0   4  423.26   12.15
   4   0  -4  442.30   12.40
  -4   0  -4  424.99   12.54
  -4   0  -5   19.08    2.33
  -4   0   5   16.27    0.82
   4   0  -5   21.92    2.22
   4   0   5   21.18    2.19
   4   0  -6   83.26    3.47
   4   0   6   76.22    3.48
  -4   0   6   66.81    2.08
   4   0   6   75.96    2.50
  -4   0   6   81.61    2.55
  -4   0  -6   79.28    3.55
  -4   0  -7    9.08    2.08
  -4   0   7   12.57    0.73
  -4   0   7   14.97    1.44
   4   0  -7   15.52    2.14
   4   0   7   12.17    1.41
   4   0   7    8.86    2.20
  -4   0   8    6.05    1.55
   4   0  -8    3.47    2.03
  -4   0   8    1.93    0.76
   4   0   8    0.54    2.25
   4   0   8    1.84    1.43
  -4   0   9    8.35    1.73
   4   0   9    6.27    1.66
   4   0  -9    3.16    2.03
   4   0   9    4.24    2.44
  -4   0  10    4.16    1.68
   4   0  10    3.40    1.74
   4   0 -10    3.40    1.90
   4   0  10    0.83    2.43
   4   0 -11    3.73    1.97
   4   0  11    2.74    2.56
   4   0  11    4.60    1.92
   4   0  12   71.88    4.16
   4   0 -12   74.52    3.54
   4   0 -13   19.99    2.40
  -4   0  13   19.29    2.28
   4   0  13   19.64    3.21
   4   0 -14   18.65    2.38
   4   0  14   13.58    3.04
   4   0  15    5.13    2.90
   4   0  16    5.97    3.19
   4   1 -16    6.96    2.40
  -4   1  16   11.72    2.76
   4  -1  16    7.28    3.20
   4  -1  15   53.90    3.88
   4  -1  15   50.12    4.11
   4   1 -15   57.80    3.51
  -4   1  15   61.71    3.47
   4   1 -14    3.82    2.33
  -4   1  14    8.17    2.34
   4  -1  14    6.60    2.68
   4  -1  14    9.61    2.96
   4  -1  13  124.98    5.55
  -4   1  13  133.32    4.89
   4   1 -13  138.17    5.21
  -4   1  12    4.78    1.97
   4   1 -12    2.75    2.11
   4  -1  12    0.96    2.43
   4  -1  12    4.02    2.61
   4   1 -11    0.71    2.00
   4  -1  11   -0.31    2.36
  -4   1  11   -0.69    1.82
   4  -1  11    1.84    2.55
   4   1 -10    7.12    2.19
  -4   1  10    8.21    1.81
   4  -1  10    8.13    2.56
   4   1  -9  198.68    6.66
   4  -1   9  194.21    6.70
  -4   1   9  198.12    6.01
   4  -1   9  181.14    6.70
   4   1  -8  336.64   10.07
   4  -1   8  333.75   10.03
  -4   1   8  337.16    9.37
   4  -1   8  304.94   10.14
   4   1  -7   94.97    4.00
  -4   1   7   92.69    3.21
   4  -1   7   87.96    3.91
   4   1  -6    8.61    2.18
   4  -1   6    9.15    2.00
   4   1  -5  139.22    5.09
   4  -1   5  134.55    4.74
   4   1  -4   54.81    3.06
   4  -1   4   51.55    2.51
   4  -1   4   43.76    1.39
   4   1  -3  389.69   11.22
   4  -1   3  369.71   10.56
  -4  -1  -2   18.70    1.81
   4  -1   2   19.51    1.64
   4   1  -2   18.44    2.46
   4   1  -1   20.52    2.42
  -4  -1  -1   19.27    1.68
   4   1   0   30.24    2.70
  -4  -1   0   28.45    1.81
  -4  -1   1   23.43    1.67
   4   1   1   21.71    2.54
   4  -1  -1   19.65    2.12
  -4  -1   2   21.52    1.60
   4  -1  -2   22.33    2.26
   4  -1  -3  377.31   10.86
  -4  -1   3  371.85   10.28
   4  -1  -4   56.81    2.88
  -4  -1   4   52.27    2.13
  -4  -1   4   50.12    1.66
   4   1   5  137.42    4.97
   4  -1  -5  136.67    4.71
  -4  -1   5  135.15    4.15
  -4   1  -5  132.07    5.09
  -4   1  -6    7.68    2.08
  -4  -1   6    8.11    1.26
   4  -1  -6   10.05    1.87
   4   1   6    6.35    2.21
   4  -1  -7   92.36    3.66
   4   1   7   93.74    4.17
   4   1   8  312.10    9.71
   4   1   8  296.11    8.87
   4  -1  -9  200.57    6.15
   4   1   9  192.18    6.72
   4   1   9  181.08    5.88
   4  -1 -10    9.80    1.85
   4   1  10    6.53    1.88
   4   1  10    5.19    2.56
   4  -1 -11    1.32    1.69
   4   1  11    2.58    1.89
   4   1  11    1.02    2.22
   4   1  11    3.78    2.66
  -4  -1  11    0.39    2.16
   4  -1 -12    0.77    1.69
   4   1  12    3.17    2.54
   4   1  12    2.89    2.63
  -4  -1  12    2.84    2.27
   4   1  12    3.77    2.03
   4   1  13  119.05    5.51
  -4  -1  13  136.99    5.12
   4   1  13  129.62    5.68
   4   1  13  124.41    4.95
   4  -1 -13  132.85    4.71
   4   1  14    5.79    2.34
  -4  -1  14    6.50    2.33
   4   1  14    9.21    3.06
   4   1  14    6.61    2.67
   4   1  15   53.28    3.95
   4   1  15   49.75    3.84
   4   1  15   57.90    3.53
   4   1  16    9.88    3.24
   4   2 -17   37.10    3.37
   4   2 -16   -2.02    2.49
  -4   2  16   -0.88    2.56
   4  -2  16    1.20    3.15
  -4   2  15    8.47    2.45
   4   2 -15    6.22    2.61
   4  -2  15   10.15    2.73
   4  -2  15    7.60    3.12
  -4   2  14   26.49    2.82
   4   2 -14   27.20    2.98
   4  -2  14   27.25    3.23
   4  -2  14   28.16    3.39
   4  -2  14   33.06    3.37
  -4   2  13   33.33    2.76
   4  -2  13   27.79    3.19
   4  -2  13   31.49    3.31
   4  -2  13   34.45    3.38
   4   2 -13   33.91    3.06
  -4   2  12   25.78    2.44
   4   2 -12   28.31    2.89
   4  -2  12   18.52    2.79
   4  -2  12   24.49    3.00
   4  -2  12   26.42    3.08
   4   2 -11    4.41    2.30
   4  -2  11    3.55    2.45
  -4   2  11    0.79    1.93
   4  -2  11    5.25    2.58
   4  -2  11    1.91    2.42
   4   2 -10   14.69    2.49
   4  -2  10   10.73    2.50
  -4   2  10   12.14    2.01
   4  -2  10   13.30    2.55
   4  -2   9    5.29    2.26
   4   2  -9    4.43    2.35
   4  -2   9    5.05    2.29
   4   2  -8   63.02    3.58
   4  -2   8   60.76    3.38
   4  -2   8   60.28    3.56
  -4  -2  -8   61.04    3.47
  -4  -2  -7   15.94    2.20
   4  -2   7   20.45    2.49
   4   2  -7   17.51    2.57
   4  -2   7   19.08    2.28
   4  -2   6    7.05    2.13
   4   2  -6    8.82    2.31
   4  -2   6    9.16    2.06
   4   2  -5   59.23    3.42
   4  -2   5   58.24    2.90
   4   2  -4  176.67    6.34
   4  -2   4  187.66    5.79
  -4   2   4  186.17    5.91
   4   2  -3    5.78    2.34
   4  -2   3    7.34    1.49
  -4   2   3    6.98    1.61
  -4   2   2    3.25    1.55
   4  -2   2    3.22    0.58
   4   2  -2    4.01    2.35
   4  -2   2    4.50    1.27
  -4  -2  -2    5.14    1.78
   4  -2   1  177.27    5.19
   4   2  -1  184.53    6.41
  -4  -2  -1  182.33    5.78
   4   2   0   -0.06    2.29
  -4  -2   0    0.79    1.53
   4   2   1  183.65    6.69
  -4  -2   1  198.60    6.02
  -4  -2   2    2.87    1.49
   4  -2  -2    0.24    1.77
  -4  -2   2    1.84    0.70
  -4  -2   3    6.15    1.50
   4  -2  -3    5.37    1.71
  -4  -2   4  184.61    5.72
   4  -2  -4  188.77    5.92
  -4  -2   5   60.32    2.54
   4  -2  -5   54.97    2.68
   4  -2  -6    8.47    1.71
   4  -2  -7   16.37    1.75
   4   2   7   18.24    2.61
   4  -2  -8   61.63    2.78
   4   2   8   65.72    3.74
   4  -2  -9    5.57    1.49
   4   2   9    5.54    2.62
  -4  -2   9    5.02    2.20
   4  -2 -10   13.44    1.66
   4   2  10    9.34    2.56
   4   2  10    8.90    1.96
   4   2  10   14.29    2.88
  -4  -2  10   13.72    2.48
   4  -2 -11    3.20    1.48
   4   2  11    5.42    2.81
   4   2  11    1.43    2.33
  -4  -2  11    4.55    2.37
   4   2  11    1.30    1.92
   4   2  12   29.53    3.36
   4   2  12   26.37    3.07
  -4  -2  12   25.43    2.85
   4   2  12   20.95    2.43
   4   2  13   26.59    2.71
   4   2  13   32.56    3.52
   4   2  13   29.54    3.26
   4   2  14   23.40    2.70
   4   2  14   26.31    3.42
   4   2  14   28.06    3.22
   4   2  15    6.97    2.61
   4   2  15    9.28    3.06
   4   2  15    8.31    2.91
   4   3 -16   22.81    3.16
  -4   3  15   42.01    3.33
   4  -3  15   39.80    3.64
   4   3 -15   42.91    3.61
   4  -3  15   34.36    3.57
   4  -3  14    6.78    2.65
   4   3 -14    2.44    2.58
  -4   3  14   -0.57    2.47
   4  -3  14    2.75    2.47
   4  -3  14    4.07    2.97
  -4   3  13   47.82    3.19
   4  -3  13   43.50    3.47
   4  -3  13   51.23    3.80
   4  -3  13   54.69    3.72
   4   3 -13   51.68    3.59
   4  -3  12   30.86    3.12
   4   3 -12   28.98    3.05
   4  -3  12   26.73    2.96
   4  -3  12   29.50    3.03
   4  -3  11   -1.95    2.53
   4   3 -11    3.28    2.47
   4  -3  11   -1.53    2.42
   4  -3  11   -0.72    2.45
   4  -3  10   22.35    2.72
   4   3 -10   23.55    2.85
   4  -3  10   17.00    2.67
   4  -3  10   24.88    2.90
   4   3  -9  172.62    6.46
   4  -3   9  172.23    6.21
   4  -3   9  178.07    6.44
   4  -3   9  172.19    6.38
   4   3  -8   35.12    3.17
   4  -3   8   36.34    2.81
  -4  -3  -8   36.40    3.13
   4  -3   8   34.36    2.83
   4   3  -7   46.37    3.24
   4  -3   7   48.72    2.98
  -4  -3  -7   43.89    3.13
  -4   3   7   49.89    2.29
   4  -3   7   46.02    3.13
  -4  -3  -7   47.50    3.10
   4   3  -6  119.46    4.98
  -4  -3  -6  115.24    4.83
   4  -3   6  120.87    4.55
  -4   3   6  124.01    4.11
  -4  -3  -6  122.46    4.97
   4  -3   6  122.64    4.86
   4   3  -5  152.21    5.79
   4  -3   5  149.35    5.03
  -4  -3  -5  147.53    5.55
  -4   3   5  149.18    4.80
   4  -3   5  140.93    5.36
   4   3  -4   61.03    3.49
   4  -3   4   60.89    2.71
  -4  -3  -4   52.15    3.17
   4  -3   4   58.32    3.11
  -4   3   4   59.19    2.62
   4   3  -3  265.53    8.46
   4  -3   3  255.95    7.48
   4  -3   3  249.24    7.96
  -4   3   3  259.25    7.64
   4   3  -2   82.47    3.97
   4  -3   2   81.65    2.91
   4  -3   2   78.48    3.37
  -4   3   2   77.41    3.21
   4   3  -1   34.47    3.05
   4  -3   1   34.85    1.63
   4  -3   1   28.79    1.55
  -4   3   1   32.20    2.08
   4   3   0  207.73    7.05
   4  -3   0  203.31    5.51
  -4  -3   0  196.75    5.69
   4  -3   0  194.52    5.66
   4   3   1   32.99    2.99
  -4  -3   1   31.87    2.12
  -4  -3   1   26.49    1.55
  -4  -3   2   81.19    3.35
   4   3   2   71.60    3.99
  -4  -3   3  255.48    7.68
   4  -3  -3  250.88    7.48
  -4  -3   4   63.88    2.94
   4  -3  -4   59.66    2.72
   4  -3  -5  144.43    4.61
   4  -3  -6  121.01    3.98
   4  -3  -7   49.01    2.21
   4  -3  -8   36.82    1.89
  -4  -3   8   42.36    3.16
  -4  -3   9  181.02    6.54
   4   3  10   25.67    3.11
   4   3  10   18.25    2.75
   4   3  11   -1.91    2.75
   4   3  11   -0.48    2.44
   4   3  12   25.73    3.43
   4   3  12   23.41    3.02
   4   3  13   50.30    4.03
   4   3  13   53.49    3.82
   4   3  14    1.29    2.46
   4   3  14    6.54    3.18
   4   3  14    5.37    2.73
   4   3  15   43.45    3.66
   4  -4  15   10.57    3.28
   4   4 -15    7.98    2.98
   4  -4  14   54.57    3.86
   4  -4  14   64.19    4.30
   4   4 -14   60.25    4.14
   4  -4  13    5.42    2.81
   4  -4  13    4.71    2.91
   4   4 -13    6.29    2.77
   4  -4  13    3.94    2.44
   4  -4  12   10.44    2.71
   4  -4  12    4.26    2.81
   4   4 -12    9.11    2.83
   4  -4  12    8.53    2.51
   4  -4  11    6.79    2.60
   4   4 -11    1.69    2.46
   4  -4  11    3.72    2.49
   4   4 -10   52.03    3.68
   4  -4  10   45.45    3.40
   4  -4  10   54.04    3.57
   4   4  -9    4.10    2.71
   4  -4   9    3.33    2.46
   4  -4   9    6.97    2.39
   4   4  -8  106.55    4.93
   4  -4   8  106.01    4.70
   4  -4   8  101.50    4.57
  -4  -4  -7   37.24    3.02
   4   4  -7   33.13    3.21
   4  -4   7   36.36    2.94
   4  -4   7   33.61    2.90
  -4  -4  -6   13.03    2.27
  -4   4   6   13.49    1.40
   4  -4   6   15.10    2.31
   4   4  -6   17.18    2.77
  -4  -4  -6   15.08    2.57
  -4   4   5    6.92    1.29
   4  -4   5    5.00    1.98
   4   4  -5    9.21    2.64
  -4  -4  -5    5.98    2.35
  -4  -4  -5    8.60    2.24
   4   4  -4  193.03    6.80
  -4  -4  -4  186.20    6.49
   4  -4   4  177.82    6.20
   4  -4   3    1.03    1.65
   4   4  -3    4.44    2.63
  -4  -4  -3   -0.11    2.13
  -4  -4  -2  128.58    4.22
   4   4  -2  131.85    5.37
  -4  -4  -2  126.96    4.96
   4  -4   2  133.96    4.27
   4  -4   2  124.51    4.52
   4  -4   1   13.35    1.35
   4  -4   1   16.35    1.73
  -4  -4  -1   13.69    1.56
   4   4  -1   15.18    2.80
   4  -4   1   11.16    1.53
  -4  -4   0    4.20    1.41
   4  -4   0    5.22    1.44
   4  -4   0    7.55    1.54
   4  -4   0    5.65    1.00
   4  -4  -1   13.68    0.76
   4  -4  -1   15.76    1.69
   4  -4  -1   12.70    1.56
   4  -4  -2  127.36    4.15
   4  -4  -2  126.50    4.24
   4  -4  -3    2.18    1.32
   4  -4  -3    1.53    1.44
   4  -4  -4  183.52    5.54
   4   4   4  183.05    6.80
   4  -4  -4  185.76    5.51
   4  -4  -5    4.34    1.12
   4  -4  -5    7.46    1.27
   4   4   5    5.09    2.63
   4  -4  -6   12.47    1.24
   4   4   6   10.68    2.86
   4   4   7   33.16    3.17
   4   4   9    3.56    2.33
   4   4  10   52.31    3.58
   4   4  11    1.60    2.52
   4   4  12    6.77    2.72
   4   4  13    4.21    2.69
   4   4  14   62.68    4.13
   4  -5  14    3.51    2.68
   4  -5  13    4.20    2.67
   4  -5  13    3.93    2.65
   4  -5  12   35.56    3.36
   4  -5  12   38.20    3.29
   4   5 -12   38.23    3.66
   4  -5  11    6.50    2.54
   4   5 -11    7.23    2.93
   4  -5  11    7.46    2.57
   4   5 -10   40.54    3.47
   4  -5  10   33.13    3.03
   4  -5  10   39.55    3.27
   4  -5   9    8.47    2.38
   4   5  -9    7.73    2.53
   4  -5   9    6.96    2.38
   4   5  -8   11.05    2.87
   4  -5   8   11.37    2.41
   4  -5   8   17.21    2.60
   4  -5   7    5.14    2.17
   4   5  -7    4.75    2.85
   4  -5   7    8.34    2.28
   4   5  -6  123.91    5.50
   4  -5   6  129.71    5.02
   4  -5   6  124.69    4.95
   4   5  -5   39.37    3.30
  -4  -5  -5   42.16    3.36
   4  -5   5   39.88    2.77
   4   5  -4   37.51    3.33
  -4  -5  -4   41.43    3.20
   4  -5   4   35.78    2.57
  -4  -5  -3   21.92    1.93
   4  -5   3   21.69    2.02
   4   5  -3   23.70    3.10
  -4  -5  -3   21.82    2.72
  -4  -5  -2   58.52    3.37
  -4  -5  -2   52.80    2.67
   4  -5   2   54.37    2.71
  -4  -5  -1    8.28    1.80
   4  -5   1    9.89    1.64
  -4  -5  -1   10.56    2.46
  -4  -5   0  157.73    5.76
  -4  -5   0  151.58    5.08
   4  -5   0  153.21    5.03
   4  -5   0  149.62    4.97
   4  -5  -1    8.26    1.51
   4  -5  -1    7.04    1.67
  -4  -5   1    9.35    2.40
   4   5   1   10.75    2.72
  -4  -5   2   56.28    3.35
   4   5   2   62.55    4.00
   4  -5  -2   51.80    2.65
   4  -5  -2   54.26    2.37
   4  -5  -3   24.28    2.05
   4  -5  -3   19.42    1.56
   4   5   3   24.38    3.30
   4   5   4   42.47    3.58
   4   5   5   36.16    3.36
   4   5   6  120.73    5.42
   4   5   7    2.85    2.85
   4   5   8   12.33    2.44
   4   5   8   10.32    3.02
   4   5   9    5.38    2.41
   4   5   9    8.13    2.89
   4   5  10   33.81    3.11
   4   5  10   32.05    3.51
   4   5  11    4.64    2.52
   4   5  12   31.45    3.18
   4   5  13    6.56    2.81
   4   5  14    5.59    2.86
   4  -6  14   31.66    3.27
   4  -6  13    6.90    2.72
   4  -6  12    6.57    2.83
   4  -6  12    7.16    2.60
   4  -6  11    5.76    2.67
   4  -6  11    6.09    2.44
   4  -6  10   24.90    2.94
   4   6 -10   22.21    3.33
   4  -6  10   18.71    2.75
   4   6  -9   35.68    3.41
   4  -6   9   33.49    2.94
   4  -6   9   35.36    3.10
   4  -6   8   38.86    3.04
   4  -6   8   44.40    3.17
   4  -6   7   29.74    2.82
   4   6  -7   31.07    3.56
   4  -6   7   35.82    2.87
   4  -6   7   32.44    2.86
   4  -6   6    5.74    2.09
   4   6  -6    2.89    2.74
   4  -6   6    3.84    2.06
   4  -6   5   35.03    2.60
   4  -6   4   73.98    3.40
   4  -6   3   39.08    2.37
   4   6  -2   65.97    4.20
   4   6  -1   40.40    3.46
   4   6   0   15.18    2.99
   4  -6   0    8.89    1.99
  -4  -6   1   44.42    3.30
   4   6   1   41.82    3.60
  -4  -6   2   61.27    3.70
   4   6   2   63.44    4.16
   4  -6  -2   65.27    3.10
   4   6   3   35.53    3.54
   4  -6  -3   38.90    2.54
   4   6   4   73.02    4.21
   4   6   5   37.24    3.68
   4   6   6    2.62    2.91
   4   6   7   32.05    2.85
   4   6   7   36.44    3.73
   4   6   8   43.99    3.18
   4   6   8   45.44    3.71
   4   6   9   37.39    3.73
   4   6   9   31.02    2.94
   4   6  10   21.25    3.51
   4   6  10   20.65    2.82
   4   6  11   12.20    3.27
   4   6  11   10.64    2.64
   4   6  12    6.94    2.74
   4   6  13   11.72    2.90
   4   6  14   30.26    3.37
   4  -7  11    6.93    2.68
   4  -7  10   15.74    2.78
   4  -7   9   10.68    2.60
   4  -7   8   -0.22    2.27
   4  -7   7   11.12    2.40
   4  -7   6   39.92    2.89
   4  -7   5   42.74    2.86
   4   7  -4   10.79    3.21
   4   7  -3    3.71    2.88
   4   7  -2   11.58    3.02
   4   7  -1    3.38    2.95
   4   7   0   41.04    3.78
   4   7   1    3.40    2.91
   4   7   2   13.67    3.04
   4   7   3    6.19    2.95
   4   7   4   10.85    3.11
   4   7   5   36.45    3.67
   4   7   6   33.81    2.78
   4   7   6   39.44    3.86
   4   7   7   14.42    3.33
   4   7   8    1.20    3.22
   4   7   9   11.65    3.39
   4   8   1   17.97    3.23
   4   8   2   40.01    3.95
   4   8   3   18.02    3.42
   4   8   4   27.10    3.54
   5   0   0   -0.13    2.36
  -5   0   0    0.07    2.12
  -5   0  -1    5.04    2.13
   5   0  -1    4.78    2.45
   5   0   1    2.01    2.53
  -5   0   1    8.80    2.17
   5   0  -2   58.65    3.52
  -5   0  -2   59.31    3.47
   5   0  -3   73.28    3.78
  -5   0  -3   74.24    3.84
   5   0  -4   66.54    3.60
   5   0  -5  143.55    5.40
   5   0  -6   23.78    2.64
   5   0   6   21.71    2.42
   5   0  -7   24.28    2.62
   5   0   7   26.27    2.71
   5   0  -8   68.19    3.57
   5   0   8   69.33    3.74
   5   0  -9   80.69    3.92
   5   0   9   77.22    4.03
   5   0 -10   13.03    2.40
   5   0  10   12.21    2.72
   5   0 -11    3.96    2.19
   5   0  11    1.75    2.65
   5   0  12   11.37    3.00
   5   0  13   24.11    3.40
   5   0  14   34.14    3.73
   5  -1  14   11.81    3.29
   5  -1  13   21.72    3.27
   5   1 -12   60.53    3.65
   5  -1  12   53.07    3.93
   5   1 -11   40.63    3.10
   5  -1  11   41.97    3.36
   5  -1  11   31.80    3.37
   5   1 -10   28.52    2.92
   5  -1  10   23.18    2.86
   5   1  -9    7.43    2.48
   5  -1   9   10.15    2.47
   5   1  -8    4.96    2.42
   5  -1   8    6.68    2.34
   5   1  -7   16.83    2.62
   5  -1   7   18.78    2.40
   5   1  -6    6.85    2.38
   5  -1   6    5.88    2.14
   5   1  -5  180.36    6.42
   5  -1   5  173.44    5.84
   5  -1   4   80.84    3.37
   5   1  -4   82.60    4.14
   5   1  -3    8.25    2.49
  -5   1   3    9.30    2.08
   5   1  -2   44.65    3.39
  -5   1   2   44.38    2.94
   5   1  -1  255.36    8.64
  -5  -1  -1  265.41    8.64
  -5   1   1  267.69    8.47
   5   1   0  204.59    7.23
   5  -1   0  205.99    7.04
  -5   1   0  210.41    7.04
   5  -1  -1  253.01    8.18
   5   1   1  258.98    8.54
  -5   1  -1  252.65    8.21
   5  -1  -2   44.53    3.04
   5   1   2   40.37    3.45
  -5   1  -2   43.11    3.02
  -5   1  -3    8.73    2.24
   5  -1  -3    8.83    2.25
   5  -1  -4   83.13    3.90
   5  -1  -5  177.08    6.10
   5  -1  -6   10.64    2.25
   5  -1  -7   17.56    2.33
   5  -1  -8    5.32    2.08
   5   1   8    3.79    2.41
   5  -1  -9   10.61    2.17
   5   1   9    9.74    2.65
   5   1  10   19.27    2.95
   5   1  11   37.27    3.50
   5   1  11   36.98    3.55
   5   1  12   52.84    4.00
   5   1  13   16.56    3.42
   5   1  14   15.59    3.52
   5   2 -14   12.99    2.83
   5  -2  14   11.60    3.15
   5   2 -13   10.13    2.76
   5  -2  13   15.06    3.12
   5   2 -12    7.28    2.59
   5  -2  12   12.43    2.92
   5   2 -11    5.59    2.54
   5  -2  11    1.47    2.72
   5  -2  11    8.12    2.62
   5   2 -10    6.64    2.74
   5  -2  10   13.27    2.67
   5   2  -9    8.30    2.66
   5  -2   9   11.07    2.52
   5  -2   8   31.52    2.74
   5   2  -8   26.73    2.94
   5   2  -7    1.49    2.46
   5  -2   7    1.52    2.05
   5   2  -6   42.74    3.32
   5   2  -5   41.91    3.31
   5  -2   5   33.92    2.36
  -5   2   5   37.92    2.61
   5   2  -4   33.47    3.10
   5  -2   4   33.14    2.22
  -5   2   4   34.82    2.57
  -5   2   3    6.67    2.00
   5  -2   3    3.41    1.52
   5   2  -3    4.13    2.56
   5   2  -2   36.72    3.37
  -5   2   2   36.75    2.63
  -5   2   1    7.35    1.96
   5   2  -1    7.05    2.83
  -5   2   0   20.16    2.33
  -5  -2   0   24.22    1.99
  -5   2  -1    5.45    2.02
   5   2   1    5.89    2.69
   5  -2  -1    4.53    2.15
  -5  -2   1    5.72    1.70
   5  -2  -2   33.73    2.69
  -5  -2   2   37.66    2.25
   5   2   2   33.56    3.44
  -5   2  -2   29.97    2.67
  -5   2  -3    5.51    2.05
   5  -2  -3    5.12    2.06
   5   2   3    3.61    2.62
   5  -2  -4   36.62    2.66
   5   2   4   33.93    3.27
   5  -2  -5   34.13    2.52
   5  -2  -7    3.21    1.81
   5   2  10    7.92    2.84
   5   2  11    1.56    2.93
   5   2  11    1.88    2.75
   5   2  12    4.59    3.01
   5   2  13   13.35    3.29
   5  -3  14   11.36    3.25
   5   3 -13   10.68    2.94
   5  -3  13   12.86    3.11
   5   3 -12   29.40    3.31
   5  -3  12   22.42    3.20
   5   3 -11    7.19    2.74
   5  -3  11    4.94    2.71
   5  -3  11    6.33    2.82
   5   3 -10    7.84    2.89
   5  -3  10    8.75    2.67
   5   3  -9   27.38    3.27
   5  -3   9   29.42    2.90
   5   3  -8   17.23    2.97
   5  -3   8   18.29    2.52
   5   3  -7    2.24    2.58
   5  -3   7    1.68    2.04
  -5  -3  -6    6.96    2.49
   5   3  -6    7.39    2.70
  -5  -3  -5   26.95    2.82
   5  -3   5   25.31    2.66
   5   3  -5   31.90    3.26
   5   3  -4   55.66    3.78
  -5  -3  -4   52.49    3.21
   5  -3   4   51.84    3.23
   5  -3   3   26.70    2.44
   5   3  -3   26.38    3.00
  -5  -3  -3   25.03    2.51
   5  -3   2   23.84    2.40
  -5  -3  -2   28.65    2.57
   5   3  -2   28.81    3.21
   5   3  -1   64.47    4.06
  -5   3   1   62.08    3.21
   5   3   0   85.48    4.67
  -5   3   0   89.34    3.84
   5   3   1   57.00    3.89
   5  -3  -1   67.05    3.30
   5   3   2   24.36    3.33
   5  -3  -2   25.60    2.39
   5  -3  -3   29.65    2.43
   5   3   3   25.07    3.31
   5  -3  -4   51.75    2.85
   5   3   4   49.91    3.92
   5   3   5   26.94    3.32
   5   3  11    5.29    2.75
   5   4 -10    9.63    2.87
   5  -4  10    4.69    2.85
   5   4  -9   -0.99    3.00
   5   4  -8    1.49    2.83
   5   4  -7    8.06    2.79
   5   4  -6   13.33    3.01
   5  -4   5   16.48    2.39
   5   4  -5   17.91    3.11
   5  -4   4   23.73    2.41
   5   4  -4   25.85    3.24
  -5  -4  -4   19.64    2.71
   5  -4   3    2.75    1.92
   5   4  -3    5.79    2.81
  -5  -4  -3    2.99    2.31
   5  -4   2    6.89    1.79
   5   4  -2    8.69    2.87
  -5  -4  -2    6.10    2.28
   5   4  -1   38.72    3.60
  -5  -4  -1   36.88    2.86
   5   4   0   45.03    3.66
  -5  -4   0   50.86    3.14
   5   4   1   39.25    3.61
  -5  -4   1   36.26    2.81
   5   4   2    7.56    2.96
  -5  -4   2    6.69    2.07
   5   4   3    5.56    2.82
   5   4   7   12.07    3.26
   5   4   8   -0.19    2.81
   5   4  10    2.48    2.66
   5   4  11   20.67    3.08
   5  -5  10    7.53    2.92
   5  -5   9   18.71    3.03
   5   5  -7    4.80    3.06
   5   5  -6    0.09    2.94
   5   5  -5    5.28    2.86
   5   5  -4   39.49    3.71
   5   5  -3   45.72    3.90
   5   5  -2   21.23    3.21
   5   5  -1   62.14    4.05
   5   5   0    9.11    2.98
  -5  -5   0    9.41    2.48
  -5  -5   1   60.01    3.49
  -5  -5   2   19.26    2.62
   5   5   4   38.76    3.90
   5   5   5    7.18    3.23
   5   5   6   -0.29    3.10
   5   5   9   16.17    2.97
   5   5  10    7.57    2.76
   5  -6   9    1.43    2.63
   5  -6   8    1.81    2.61
   5   6   8    3.75    2.71
   5   6   9    1.40    2.69
   6   0   0  150.36    6.11
   6   0  -1   27.74    3.19
   6   0   1   26.67    3.28
   6   0  -2   11.83    2.84
   6   0   2    8.47    2.94
   6   0  -3    5.45    2.72
   6   0   3    4.41    2.87
   6   0  -4   14.89    2.76
   6   0  -5   32.94    3.12
   6   0  -6   37.11    3.23
   6   1  -8   34.95    3.33
   6   1  -7   11.77    2.87
   6   1  -6    0.47    2.62
   6   1  -5    4.41    2.73
   6   1  -4   66.20    4.02
   6   1  -3    2.18    2.82
   6   1  -2   90.82    4.68
   6  -1   2   88.49    4.63
   6   1  -1   10.18    3.03
   6  -1   1   13.19    2.89
   6   1   0    2.98    2.90
   6  -1   0    1.38    2.57
   6  -1  -1   11.09    2.74
   6   1   1   10.25    3.02
   6  -1  -2   94.03    4.57
   6   1   2   97.55    5.00
   6  -1  -3    1.90    2.48
   6   1   3    1.75    2.95
   6  -1  -4   67.28    3.78
   6   1   4   67.40    4.39
   6   1   5    4.94    3.00
   6   2  -9   18.71    3.30
   6   2  -8    2.10    2.84
   6   2  -7    8.28    2.89
   6   2  -6   15.29    3.06
   6   2  -5   15.89    3.17
   6   2  -4    9.73    2.97
   6   2  -3   28.82    3.35
   6   2  -2    4.57    2.97
   6   2  -1    5.20    2.94
   6  -2   1    5.43    2.63
   6   2   0   49.36    4.06
   6  -2   0   52.04    3.50
   6   2   1    7.41    3.03
   6  -2  -1    7.64    2.56
   6  -2  -2    4.23    2.52
   6   2   2    5.69    2.92
   6   2   3   25.24    3.54
   6   3  -3   15.04    3.28
   6   3  -2   27.55    3.40
   6  -3   1   34.18    3.10


TITL exp_471 in P2(1)2(1)2(1)
REM P2(1)2(1)2(1) (#19 in standard setting)
CELL 0.71073   5.106845   8.576935  17.319504  90.0000  90.0000  90.0000
ZERR    7.00   0.000389   0.000622   0.001115   0.0000   0.0000   0.0000
LATT -1
SYMM -x+1/2,-y, z+1/2
SYMM -x, y+1/2,-z+1/2
SYMM  x+1/2,-y+1/2,-z
SFAC C Li B O F S
UNIT 7.00 7.00 7.00 7.00 7.00 7.00
TREF
HKLF 4
END
_computing_structure_solution     'SHELXT 2014/4 (Sheldrick, 2014)'
;
_shelx_hkl_checksum              71425
loop_
_space_group_symop_operation_xyz
'x, y, z'
'-x+1/2, -y, z+1/2'
'-x, y+1/2, -z+1/2'
'x+1/2, -y+1/2, -z'
loop_
_atom_site_label
_atom_site_type_symbol
_atom_site_fract_x
_atom_site_fract_y
_atom_site_fract_z
_atom_site_U_iso_or_equiv
_atom_site_adp_type
_atom_site_occupancy
_atom_site_site_symmetry_order
_atom_site_calc_flag
_atom_site_refinement_flags_posn
_atom_site_refinement_flags_adp
_atom_site_refinement_flags_occupancy
_atom_site_disorder_assembly
_atom_site_disorder_group
S2 S 1.0756(2) 0.04509(11) 0.58801(6) 0.0298(3) Uani 1 1 d . . . . .
F10 F 0.1823(6) 0.4968(4) 0.59365(18) 0.0586(9) Uani 1 1 d . . . . .
O1 O 1.2713(6) 0.0239(4) 0.52888(18) 0.0467(8) Uani 1 1 d . . . . .
F8 F 0.5932(7) 0.4535(5) 0.63706(18) 0.0745(11) Uani 1 1 d . . . . .
O3 O 0.9049(8) 0.1772(4) 0.5793(2) 0.0499(9) Uani 1 1 d . . . . .
F6 F 0.2627(7) 0.4500(6) 0.7176(2) 0.0891(14) Uani 1 1 d . . . . .
F9 F 0.3882(10) 0.6718(4) 0.6670(4) 0.117(2) Uani 1 1 d . . . . .
C5 C 1.2364(10) 0.0563(6) 0.6767(3) 0.0444(11) Uani 1 1 d . . . . .
H5A H 1.325098 -0.040252 0.686741 0.067 Uiso 1 1 calc R U . . .
H5B H 1.110959 0.075714 0.716878 0.067 Uiso 1 1 calc R U . . .
H5C H 1.361663 0.139769 0.675378 0.067 Uiso 1 1 calc R U . . .
C4 C 0.8817(9) -0.1213(5) 0.5923(3) 0.0410(10) Uani 1 1 d . . . . .
H4A H 0.782184 -0.130594 0.545540 0.061 Uiso 1 1 calc R U . . .
H4B H 0.764490 -0.113736 0.635518 0.061 Uiso 1 1 calc R U . . .
H4C H 0.991303 -0.211403 0.598355 0.061 Uiso 1 1 calc R U . . .
B7 B 0.3578(9) 0.5217(6) 0.6538(3) 0.0325(11) Uani 1 1 d . . . . .
Li11 Li 0.8631(14) 0.3964(8) 0.5713(4) 0.0330(16) Uani 1 1 d . . . . .
loop_
_atom_site_aniso_label
_atom_site_aniso_U_11
_atom_site_aniso_U_22
_atom_site_aniso_U_33
_atom_site_aniso_U_23
_atom_site_aniso_U_13
_atom_site_aniso_U_12
S2 0.0274(5) 0.0311(5) 0.0308(5) 0.0065(4) 0.0008(4) 0.0013(5)
F10 0.0433(15) 0.083(2) 0.0495(16) -0.0042(16) -0.0175(13) -0.0130(16)
O1 0.0408(17) 0.064(2) 0.0353(15) 0.0111(16) 0.0093(14) 0.0012(18)
F8 0.0426(17) 0.126(3) 0.0545(18) -0.008(2) 0.0052(15) 0.035(2)
O3 0.050(2) 0.0323(16) 0.068(2) 0.0068(15) -0.009(2) 0.0067(16)
F6 0.062(2) 0.158(4) 0.0473(17) 0.024(2) 0.0094(16) 0.000(3)
F9 0.102(4) 0.043(2) 0.205(5) -0.021(3) -0.074(4) 0.005(2)
C5 0.044(3) 0.055(3) 0.034(2) 0.000(2) -0.007(2) 0.002(3)
C4 0.033(3) 0.033(2) 0.057(3) 0.009(2) -0.002(2) -0.0045(19)
B7 0.024(2) 0.036(3) 0.038(2) -0.005(2) -0.0024(18) 0.002(2)
Li11 0.032(4) 0.035(4) 0.032(4) 0.003(3) -0.002(3) 0.004(3)
loop_
_atom_type_symbol
_atom_type_description
_atom_type_scat_dispersion_real
_atom_type_scat_dispersion_imag
_atom_type_scat_source
C C 0.0033 0.0016 'International Tables Vol C Tables 4.2.6.8 and 6.1.1.4'
H H 0.0000 0.0000 'International Tables Vol C Tables 4.2.6.8 and 6.1.1.4'
B B 0.0013 0.0007 'International Tables Vol C Tables 4.2.6.8 and 6.1.1.4'
F F 0.0171 0.0103 'International Tables Vol C Tables 4.2.6.8 and 6.1.1.4'
Li Li -0.0003 0.0001 'International Tables Vol C Tables 4.2.6.8 and 6.1.1.4'
O O 0.0106 0.0060 'International Tables Vol C Tables 4.2.6.8 and 6.1.1.4'
S S 0.1246 0.1234 'International Tables Vol C Tables 4.2.6.8 and 6.1.1.4'
loop_
_geom_angle_atom_site_label_1
_geom_angle_atom_site_label_2
_geom_angle_atom_site_label_3
_geom_angle
_geom_angle_site_symmetry_1
_geom_angle_site_symmetry_3
_geom_angle_publ_flag
O3 S2 O1 116.4(2) . . ?
O3 S2 C4 107.8(2) . . ?
O1 S2 C4 108.8(2) . . ?
O3 S2 C5 109.6(2) . . ?
O1 S2 C5 107.8(2) . . ?
C4 S2 C5 106.0(3) . . ?
B7 F10 Li11 141.4(4) . 1_455 ?
S2 O1 Li11 139.9(3) . 4_556 ?
B7 F8 Li11 153.7(4) . . ?
S2 O3 Li11 149.0(4) . . ?
S2 C5 H5A 109.5 . . ?
S2 C5 H5B 109.5 . . ?
H5A C5 H5B 109.5 . . ?
S2 C5 H5C 109.5 . . ?
H5A C5 H5C 109.5 . . ?
H5B C5 H5C 109.5 . . ?
S2 C4 H4A 109.5 . . ?
S2 C4 H4B 109.5 . . ?
H4A C4 H4B 109.5 . . ?
S2 C4 H4C 109.5 . . ?
H4A C4 H4C 109.5 . . ?
H4B C4 H4C 109.5 . . ?
F9 B7 F6 110.2(5) . . ?
F9 B7 F8 110.6(5) . . ?
F6 B7 F8 107.1(4) . . ?
F9 B7 F10 110.8(4) . . ?
F6 B7 F10 108.1(4) . . ?
F8 B7 F10 110.0(4) . . ?
F8 Li11 F10 113.4(4) . 1_655 ?
F8 Li11 O3 107.5(4) . . ?
F10 Li11 O3 109.9(4) 1_655 . ?
F8 Li11 O1 106.2(4) . 4_456 ?
F10 Li11 O1 103.5(4) 1_655 4_456 ?
O3 Li11 O1 116.4(4) . 4_456 ?
loop_
_geom_bond_atom_site_label_1
_geom_bond_atom_site_label_2
_geom_bond_distance
_geom_bond_site_symmetry_2
_geom_bond_publ_flag
S2 O3 1.438(3) . ?
S2 O1 1.442(3) . ?
S2 C4 1.739(4) . ?
S2 C5 1.745(4) . ?
F10 B7 1.391(5) . ?
F10 Li11 1.884(8) 1_455 ?
O1 Li11 1.923(7) 4_556 ?
F8 B7 1.368(6) . ?
F8 Li11 1.853(8) . ?
O3 Li11 1.898(8) . ?
F6 B7 1.354(6) . ?
F9 B7 1.316(6) . ?
C5 H5A 0.9600 . ?
C5 H5B 0.9600 . ?
C5 H5C 0.9600 . ?
C4 H4A 0.9600 . ?
C4 H4B 0.9600 . ?
C4 H4C 0.9600 . ?
