#------------------------------------------------------------------------------
#$Date: 2021-07-06 04:26:30 +0300 (Tue, 06 Jul 2021) $
#$Revision: 267261 $
#$URL: file:///home/coder/svn-repositories/cod/cif/1/56/39/1563951.cif $
#------------------------------------------------------------------------------
#
# This file is available in the Crystallography Open Database (COD),
# http://www.crystallography.net/
#
# All data on this site have been placed in the public domain by the
# contributors.
#
data_1563951
loop_
_publ_author_name
'Xiong, Zuping'
'Zhang, Xiaoxiao'
'Liu, Longxiang'
'Zhu, Qiaozhi'
'Wang, Zhenni'
'Feng, Hui'
'Qian, Zhaosheng'
_publ_section_title
;
 Achieving Highly Efficient Aggregation-Induced Emission, Reversible and
 Irreversible Photochromism by Heavy Halogen-Regulated Photophysics and
 D-A Molecular Pattern-Controlled Photochemistry of Through-Space
 Conjugated Lumingens
;
_journal_name_full               'Chemical Science'
_journal_paper_doi               10.1039/D1SC02168K
_journal_year                    2021
_chemical_formula_moiety         'C21 H14 Br N'
_chemical_formula_sum            'C21 H14 Br N'
_chemical_formula_weight         360.24
_chemical_name_common            TPAN-Br
_space_group_crystal_system      triclinic
_space_group_IT_number           2
_space_group_name_Hall           '-P 1'
_space_group_name_H-M_alt        'P -1'
_atom_sites_solution_hydrogens   geom
_atom_sites_solution_primary     dual
_audit_creation_date             2020-01-09
_audit_creation_method
;
Olex2 1.2
(compiled 2018.05.29 svn.r3508 for OlexSys, GUI svn.r5506)
;
_audit_update_record
;
2021-01-06 deposited with the CCDC.	2021-07-05 downloaded from the CCDC.
;
_cell_angle_alpha                63.011(4)
_cell_angle_beta                 81.004(4)
_cell_angle_gamma                80.806(4)
_cell_formula_units_Z            2
_cell_length_a                   9.4954(9)
_cell_length_b                   9.5538(8)
_cell_length_c                   10.1628(9)
_cell_measurement_reflns_used    4437
_cell_measurement_temperature    150(2)
_cell_measurement_theta_max      26.27
_cell_measurement_theta_min      2.26
_cell_volume                     807.29(13)
_computing_cell_refinement       'SAINT v8.37A (Bruker, 2015)'
_computing_data_reduction        'SAINT v8.37A (Bruker, 2015)'
_computing_molecular_graphics    'Olex2 (Dolomanov et al., 2009)'
_computing_publication_material  'Olex2 (Dolomanov et al., 2009)'
_computing_structure_refinement  'ShelXL (Sheldrick, 2015)'
_computing_structure_solution    'ShelXT (Sheldrick, 2015)'
_diffrn_ambient_temperature      149.99
_diffrn_measured_fraction_theta_full 0.997
_diffrn_measured_fraction_theta_max 0.994
_diffrn_measurement_device_type  'Bruker APEX-II CCD'
_diffrn_measurement_method       '\f and \w scans'
_diffrn_radiation_type           MoK\a
_diffrn_radiation_wavelength     0.71073
_diffrn_reflns_av_R_equivalents  0.0625
_diffrn_reflns_av_unetI/netI     0.0495
_diffrn_reflns_Laue_measured_fraction_full 0.997
_diffrn_reflns_Laue_measured_fraction_max 0.994
_diffrn_reflns_limit_h_max       11
_diffrn_reflns_limit_h_min       -11
_diffrn_reflns_limit_k_max       11
_diffrn_reflns_limit_k_min       -11
_diffrn_reflns_limit_l_max       12
_diffrn_reflns_limit_l_min       -12
_diffrn_reflns_number            14512
_diffrn_reflns_point_group_measured_fraction_full 0.997
_diffrn_reflns_point_group_measured_fraction_max 0.994
_diffrn_reflns_theta_full        25.242
_diffrn_reflns_theta_max         26.444
_diffrn_reflns_theta_min         2.183
_diffrn_standards_number         0
_exptl_absorpt_coefficient_mu    2.544
_exptl_absorpt_correction_T_max  0.0276
_exptl_absorpt_correction_T_min  0.0087
_exptl_absorpt_correction_type   multi-scan
_exptl_absorpt_process_details
;
SADABS-2016/2 (Bruker,2016/2) was used for absorption correction.
wR2(int) was 0.0982 before and 0.0641 after correction.
The Ratio of minimum to maximum transmission is 0.3152.
The \l/2 correction factor is Not present.
;
_exptl_crystal_density_diffrn    1.482
_exptl_crystal_description       block
_exptl_crystal_F_000             364
_exptl_crystal_recrystallization_method 'Re-crystallisation from solvent'
_exptl_crystal_size_max          0.2
_exptl_crystal_size_mid          0.15
_exptl_crystal_size_min          0.1
_refine_diff_density_max         0.340
_refine_diff_density_min         -0.342
_refine_diff_density_rms         0.078
_refine_ls_extinction_method     none
_refine_ls_goodness_of_fit_ref   1.045
_refine_ls_hydrogen_treatment    constr
_refine_ls_matrix_type           full
_refine_ls_number_parameters     208
_refine_ls_number_reflns         3303
_refine_ls_number_restraints     0
_refine_ls_restrained_S_all      1.045
_refine_ls_R_factor_all          0.0589
_refine_ls_R_factor_gt           0.0402
_refine_ls_shift/su_max          0.000
_refine_ls_shift/su_mean         0.000
_refine_ls_structure_factor_coef Fsqd
_refine_ls_weighting_details
'w=1/[\s^2^(Fo^2^)+(0.0307P)^2^+0.8628P] where P=(Fo^2^+2Fc^2^)/3'
_refine_ls_weighting_scheme      calc
_refine_ls_wR_factor_gt          0.0855
_refine_ls_wR_factor_ref         0.0970
_reflns_Friedel_coverage         0.000
_reflns_number_gt                2619
_reflns_number_total             3303
_reflns_threshold_expression     'I > 2\s(I)'
_cod_data_source_file            d1sc02168k2.cif
_cod_data_source_block           mo_0109_7_0m
_cod_database_code               1563951
_shelx_shelxl_version_number     2018/3
_shelx_space_group_comment
;
The symmetry employed for this shelxl refinement is uniquely defined
by the following loop, which should always be used as a source of
symmetry information in preference to the above space-group names.
They are only intended as comments.
;
_olex2_refinement_description
;
1. Fixed Uiso
 At 1.2 times of:
  All C(H) groups
2.a Aromatic/amide H refined with riding coordinates:
 C007(H007), C009(H009), C00A(H00A), C00C(H00C), C00D(H00D), C00F(H00F),
 C00G(H00G), C00H(H00H), C00I(H00I), C00J(H00J), C00K(H00K), C00L(H00L),
 C00M(H00M), C00N(H00N)
;
_shelx_res_file
;
TITL mo_0109_7_0m_a.res in P-1
    mo_0109_7_0m.res
    created by SHELXL-2018/3 at 13:02:10 on 09-Jan-2020
REM Old TITL mo_0109_7_0m in P1
REM SHELXT solution in P-1: R1 0.129, Rweak 0.013, Alpha 0.044
REM <I/s> 0.000 for 0 systematic absences, Orientation as input
REM Formula found by SHELXT: C21 N Br
CELL 0.71073 9.4954 9.5538 10.1628 63.011 81.004 80.806
ZERR 2 0.0009 0.0008 0.0009 0.004 0.004 0.004
LATT 1
SFAC C H Br N
UNIT 42 28 2 2

L.S. 4 0 0
PLAN  20
TEMP -123.16
list 4
fmap 2 53
ACTA
REM <olex2.extras>
REM <HklSrc "%.\\mo_0109_7_0m.hkl">
REM </olex2.extras>

WGHT    0.030700    0.862800
FVAR       0.63664
BR01  3   -0.079146    0.174701    0.561300    11.00000    0.03602    0.04421 =
         0.05448   -0.01984    0.00782   -0.01296
N002  4    0.427347    0.781515    0.309361    11.00000    0.03703    0.03921 =
         0.04928   -0.02474    0.00559   -0.00801
C003  1    0.697088    0.595440    0.131495    11.00000    0.02829    0.03319 =
         0.02790   -0.01632   -0.00146   -0.00514
C004  1    0.339018    0.427203    0.354033    11.00000    0.02529    0.02794 =
         0.02775   -0.00957   -0.00391    0.00035
C005  1    0.465678    0.519398    0.284351    11.00000    0.03122    0.02884 =
         0.02883   -0.01233   -0.00274   -0.00530
C006  1    0.624093    0.323094    0.216023    11.00000    0.02196    0.03110 =
         0.03281   -0.01349   -0.00292   -0.00409
C007  1    0.261619    0.432085    0.480444    11.00000    0.03323    0.03156 =
         0.03439   -0.01579   -0.00259   -0.00100
AFIX  43
H007  2    0.293341    0.489425    0.524080    11.00000   -1.20000
AFIX   0
C008  1    0.588449    0.480893    0.213963    11.00000    0.02705    0.03064 =
         0.02655   -0.01000   -0.00406   -0.00290
C009  1    0.288993    0.343552    0.291173    11.00000    0.03168    0.03076 =
         0.02925   -0.01289    0.00032   -0.00454
AFIX  43
H009  2    0.340577    0.338387    0.205250    11.00000   -1.20000
AFIX   0
C00A  1    0.659361    0.750332    0.029456    11.00000    0.03476    0.03414 =
         0.03346   -0.01815    0.00018   -0.00484
AFIX  43
H00A  2    0.561418    0.785762    0.013507    11.00000   -1.20000
AFIX   0
C00B  1    0.448071    0.668130    0.294887    11.00000    0.02479    0.03919 =
         0.03332   -0.01590    0.00295   -0.00680
C00C  1    0.674034    0.313153    0.083205    11.00000    0.03022    0.03286 =
         0.02963   -0.01175   -0.00165   -0.00444
AFIX  43
H00C  2    0.684291    0.407037   -0.006441    11.00000   -1.20000
AFIX   0
C00D  1    0.139098    0.354720    0.543687    11.00000    0.03206    0.03498 =
         0.03307   -0.01514    0.00358   -0.00383
AFIX  43
H00D  2    0.088479    0.356826    0.631237    11.00000   -1.20000
AFIX   0
C00E  1    0.091638    0.274758    0.478046    11.00000    0.02619    0.03091 =
         0.03604   -0.01009    0.00011   -0.00473
C00F  1    0.165821    0.268272    0.351880    11.00000    0.03562    0.03080 =
         0.03213   -0.01351   -0.00499   -0.00462
AFIX  43
H00F  2    0.132287    0.212616    0.307616    11.00000   -1.20000
AFIX   0
C00G  1    0.614145    0.184229    0.346254    11.00000    0.03255    0.03494 =
         0.02999   -0.01279    0.00011   -0.00379
AFIX  43
H00G  2    0.583297    0.188817    0.437883    11.00000   -1.20000
AFIX   0
C00H  1    0.648772    0.039468    0.343559    11.00000    0.03677    0.03006 =
         0.03751   -0.00817   -0.00019   -0.00391
AFIX  43
H00H  2    0.641016   -0.054719    0.433328    11.00000   -1.20000
AFIX   0
C00I  1    0.708751    0.167152    0.081311    11.00000    0.03654    0.03782 =
         0.03509   -0.02070    0.00094   -0.00488
AFIX  43
H00I  2    0.742182    0.161392   -0.009394    11.00000   -1.20000
AFIX   0
C00J  1    0.694579    0.030398    0.211522    11.00000    0.03182    0.03017 =
         0.04577   -0.01750   -0.00566    0.00026
AFIX  43
H00J  2    0.716266   -0.069601    0.210287    11.00000   -1.20000
AFIX   0
C00K  1    0.762826    0.852945   -0.048776    11.00000    0.04242    0.03268 =
         0.03426   -0.01583    0.00286   -0.00880
AFIX  43
H00K  2    0.735583    0.958061   -0.117910    11.00000   -1.20000
AFIX   0
C00L  1    0.842282    0.545097    0.151117    11.00000    0.03167    0.03642 =
         0.03262   -0.01410   -0.00261   -0.00222
AFIX  43
H00L  2    0.870472    0.439179    0.217775    11.00000   -1.20000
AFIX   0
C00M  1    0.944893    0.648983    0.073817    11.00000    0.02920    0.04997 =
         0.04430   -0.02545    0.00080   -0.00730
AFIX  43
H00M  2    1.042991    0.614618    0.089638    11.00000   -1.20000
AFIX   0
C00N  1    0.905750    0.802928   -0.026615    11.00000    0.03936    0.04343 =
         0.04209   -0.02260    0.00999   -0.01730
AFIX  43
H00N  2    0.976738    0.873572   -0.079855    11.00000   -1.20000
AFIX   0
HKLF 4




REM  mo_0109_7_0m_a.res in P-1
REM wR2 = 0.0970, GooF = S = 1.045, Restrained GooF = 1.045 for all data
REM R1 = 0.0402 for 2619 Fo > 4sig(Fo) and 0.0589 for all 3303 data
REM 208 parameters refined using 0 restraints

END

WGHT      0.0299      0.8808

REM Highest difference peak  0.340,  deepest hole -0.342,  1-sigma level  0.078
Q1    1   0.6930  0.2989  0.1614  11.00000  0.05    0.34
Q2    1   0.2343  0.4833  0.3090  11.00000  0.05    0.33
Q3    1   0.7069  0.7994 -0.0582  11.00000  0.05    0.32
Q4    1   0.6796  0.6951  0.1201  11.00000  0.05    0.30
Q5    1   0.6481  0.5292  0.1801  11.00000  0.05    0.30
Q6    1   0.6110  0.3934  0.2156  11.00000  0.05    0.30
Q7    1   0.5251  0.6379 -0.0359  11.00000  0.05    0.29
Q8    1   0.5479  0.4848  0.2830  11.00000  0.05    0.28
Q9    1   0.4425  0.6765  0.3595  11.00000  0.05    0.28
Q10   1   0.7121  0.9161 -0.1560  11.00000  0.05    0.28
Q11   1   0.6802  0.1241  0.3462  11.00000  0.05    0.28
Q12   1   0.3645  0.7360  0.2738  11.00000  0.05    0.27
Q13   1  -0.0756  0.0490  0.6571  11.00000  0.05    0.27
Q14   1   0.4379  0.4385  0.3559  11.00000  0.05    0.27
Q15   1   0.5858  0.1203  0.3423  11.00000  0.05    0.26
Q16   1  -0.0554  0.0797  0.5423  11.00000  0.05    0.26
Q17   1   0.0078  0.2414  0.5010  11.00000  0.05    0.26
Q18   1   0.1458  0.4004  0.2011  11.00000  0.05    0.25
Q19   1   0.7235  0.7854  0.0387  11.00000  0.05    0.25
Q20   1   0.6468  0.5935  0.0206  11.00000  0.05    0.24
;
_shelx_res_checksum              90182
_shelx_hkl_file
;
   1   0   0    1.60    3.10
  -2   0   0   10.30    3.70
  -2   0   0   10.90    3.20
  -2   0   0    8.40    3.40
   2   0   0    5.00    3.50
   2   0   0    3.30    4.10
   2   0   0   10.30    3.40
  -3   0   0  713.93   35.80
  -3   0   0  737.63   36.60
  -3   0   0  701.33   36.50
   3   0   0  749.53   35.90
   3   0   0  681.23   36.30
   3   0   0  715.63   36.90
  -4   0   0  895.21   45.90
  -4   0   0  904.51   44.70
  -4   0   0  905.31   45.70
   4   0   0  880.31   45.50
   4   0   0  909.51   46.10
  -5   0   0 1235.68   60.59
  -5   0   0 1247.28   59.39
  -5   0   0 1198.58   61.09
   5   0   0 1176.38   60.19
   5   0   0 1171.38   60.69
  -6   0   0  480.45   27.10
  -6   0   0  476.85   28.30
  -6   0   0  500.15   29.70
   6   0   0  507.35   29.30
   6   0   0  471.65   28.60
  -7   0   0  125.99   12.40
  -7   0   0  147.29   14.50
  -7   0   0  161.58   16.80
   7   0   0  137.19   13.40
   7   0   0  140.59   14.80
  -8   0   0  248.18   17.60
   8   0   0  248.78   19.20
   8   0   0  244.28   18.60
  -9   0   0   21.90    7.90
  -9   0   0    0.30    6.30
   9   0   0    7.80    7.90
 -10   0   0    7.00    7.10
 -10   0   0    5.80    6.20
 -10   0   0    6.30    8.30
  10   0   0   -3.20    7.80
  10   0   0   -1.80    7.90
 -11   0   0   35.60    9.70
 -11   0   0   41.00   11.60
  11   0   0   43.60   10.90
  11   0   0   44.30    9.70
  11  -1   0   13.00    8.90
  11  -1   0   28.40   10.40
 -11   1   0   13.50    9.10
  10  -1   0  138.29   15.20
 -10   1   0  119.99   14.80
   9  -1   0  129.89   14.60
   9  -1   0  138.39   16.80
  -9   1   0  123.19   15.00
   8  -1   0   12.30    7.50
   8  -1   0   31.80    9.70
  -8   1   0   34.60    9.80
   7  -1   0   34.90    8.00
   7  -1   0   43.90    9.80
   7  -1   0   40.90    7.60
  -7   1   0   44.50    8.70
  -7   1   0   37.50    9.70
  -7   1   0   44.10    7.70
   6  -1   0  221.18   17.20
   6  -1   0  249.68   17.00
   6  -1   0  256.77   19.10
  -6   1   0  243.08   18.80
  -6   1   0  267.27   17.40
  -6   1   0  271.27   20.00
   5  -1   0  496.55   26.80
   5  -1   0  446.56   26.00
   5  -1   0  426.26   25.90
  -5   1   0  457.25   27.10
  -5   1   0  500.95   27.20
  -5   1   0  464.95   26.10
   4  -1   0  123.09   11.30
   4  -1   0  111.09   12.50
   4  -1   0  122.19   10.90
  -4   1   0  142.19   12.90
  -4   1   0  131.49   11.20
  -4   1   0  139.99   11.80
   3  -1   0  790.82   39.00
   3  -1   0  738.43   39.40
   3  -1   0  764.92   38.90
  -3   1   0  849.81   39.40
  -3   1   0  756.72   39.80
  -3   1   0  798.82   39.30
   2  -1   0  353.46   20.30
   2  -1   0  378.56   20.00
   2  -1   0  402.36   19.80
  -2   1   0  357.76   20.30
  -2   1   0  403.56   20.30
   1  -1   0  494.85   24.90
  -1   1   0  528.35   25.00
   0  -1   0  238.18   10.40
   0   1   0  205.38   12.50
   0   1   0  200.78   10.60
  -1  -1   0  373.56   19.30
  -1  -1   0  396.56   18.70
  -1  -1   0  387.96   19.70
  -1  -1   0  385.46   19.30
   1   1   0  383.36   19.70
   1   1   0  436.26   19.50
   1   1   0  393.26   19.40
  -2  -1   0  148.89   10.50
  -2  -1   0  147.39    9.70
  -2  -1   0  160.18   10.20
   2   1   0  142.69   10.30
   2   1   0  156.78   10.40
   2   1   0  147.29    9.90
  -3  -1   0 2379.06  106.39
  -3  -1   0 2132.99  106.49
   3   1   0 2259.87  106.49
   3   1   0 2296.97  106.29
   3   1   0 2143.19  106.39
  -4  -1   0   46.40    7.80
  -4  -1   0   54.29    7.20
  -4  -1   0   43.40    6.90
   4   1   0   49.70    7.50
   4   1   0   33.30    7.20
   4   1   0   45.00    7.00
  -5  -1   0  123.79   10.90
  -5  -1   0  119.09   12.20
  -5  -1   0  142.29   12.40
   5   1   0  103.99   13.30
   5   1   0  145.89   12.30
   5   1   0  128.29   13.00
  -6  -1   0   22.10    8.30
  -6  -1   0   34.30    7.10
  -6  -1   0   42.60    6.30
   6   1   0   29.70    7.40
   6   1   0   30.20    8.20
   6   1   0   25.00    8.10
  -7  -1   0  363.06   24.70
  -7  -1   0  365.56   23.00
  -7  -1   0  364.26   21.10
   7   1   0  333.57   24.00
   7   1   0  329.57   24.00
  -8  -1   0  146.39   18.30
  -8  -1   0  107.19   11.50
   8   1   0  175.88   16.80
   8   1   0  109.59   15.10
   8   1   0  152.18   15.90
  -9  -1   0  159.38   15.30
  -9  -1   0  135.99   13.40
   9   1   0  139.49   19.00
 -10  -1   0   13.50    8.30
 -10  -1   0   16.70    9.90
  10   1   0   27.70    9.20
  10   1   0   16.80    8.80
 -11  -1   0   -2.20    8.90
 -11  -1   0    1.00    6.00
 -11  -1   0  -14.80   10.50
  11   1   0   -6.10    9.10
  11   1   0   -2.00    8.70
  11  -2   0   -4.40    9.10
 -11   2   0    8.90    4.60
 -11   2   0  -13.70   10.20
 -11   2   0   -1.10    4.90
  10  -2   0   19.50    8.50
 -10   2   0   24.90    5.10
 -10   2   0   52.29   11.00
 -10   2   0   25.70    5.40
   9  -2   0   85.49   12.90
   9  -2   0   83.49   11.00
  -9   2   0  104.89   10.00
   8  -2   0   30.90    8.30
   8  -2   0   53.19    8.60
   8  -2   0   60.69   12.40
  -8   2   0   55.39   10.70
   7  -2   0  182.58   16.60
   7  -2   0  133.39   13.50
   7  -2   0  124.89   13.20
  -7   2   0  153.78   16.90
   6  -2   0  293.57   19.20
   6  -2   0  286.47   19.30
   6  -2   0  315.67   19.60
  -6   2   0  300.57   21.60
   5  -2   0    7.30    5.30
   5  -2   0   12.30    5.70
   5  -2   0   13.20    7.00
  -5   2   0    6.90    5.40
   4  -2   0  236.88   16.30
   4  -2   0  264.07   16.00
   4  -2   0  257.77   17.30
  -4   2   0  260.87   12.80
  -4   2   0  228.68   17.30
   3  -2   0  401.96   21.40
   3  -2   0  330.77   21.20
   3  -2   0  392.96   20.80
  -3   2   0  378.96   21.40
   2  -2   0 1564.84   73.99
   2  -2   0 1448.76   73.49
  -2   2   0 1628.04   73.59
   1  -2   0 3987.50  189.88
  -1   2   0 4210.28  189.78
   0  -2   0 1595.54   71.39
   0  -2   0 1493.75   70.99
   0  -2   0 1477.95   70.69
   0  -2   0 1536.05   72.19
   0   2   0 1530.15   72.09
   0   2   0 1557.54   70.99
   0   2   0 1507.55   71.39
  -1  -2   0  135.09    7.50
  -1  -2   0  121.19    7.40
  -1  -2   0  124.59    8.90
   1   2   0  127.99    7.20
   1   2   0  130.59    8.30
   1   2   0  125.19    7.50
  -2  -2   0   14.40    3.80
  -2  -2   0   12.80    3.70
  -2  -2   0   17.70    4.00
  -2  -2   0   24.20    2.80
   2   2   0   19.90    4.00
   2   2   0   20.90    4.00
  -3  -2   0  503.85   27.30
  -3  -2   0  495.95   26.70
  -3  -2   0  485.55   27.10
   3   2   0  510.55   26.70
   3   2   0  528.75   27.30
   3   2   0  543.55   27.30
  -4  -2   0 2954.10  137.99
  -4  -2   0 2885.01  137.69
  -4  -2   0 2813.72  137.19
   4   2   0 2902.51  137.49
   4   2   0 2838.92  137.89
   4   2   0 3064.59  138.39
  -5  -2   0  359.76   22.10
  -5  -2   0  359.36   22.90
   5   2   0  367.06   22.00
   5   2   0  368.86   22.40
   5   2   0  341.47   22.70
  -6  -2   0  230.78   17.70
  -6  -2   0  238.78   15.70
  -6  -2   0  259.67   19.00
   6   2   0  224.28   18.90
   6   2   0  255.67   17.60
   6   2   0  271.77   19.50
  -7  -2   0  101.29   12.00
  -7  -2   0  112.69   10.70
   7   2   0   90.39   11.70
   7   2   0   78.39   11.70
  -8  -2   0   26.90    6.00
  -8  -2   0   30.90   11.30
  -8  -2   0   18.10    7.40
   8   2   0   21.00    9.40
  -9  -2   0  108.89   13.50
  -9  -2   0  126.99   11.80
  -9  -2   0  112.29   14.90
   9   2   0  121.69   16.10
 -10  -2   0  157.18   16.40
 -10  -2   0  168.28   17.00
  10   2   0  178.78   20.00
  10   2   0  190.68   19.90
 -11  -2   0  107.59   12.50
 -11  -2   0  125.39   16.10
 -11  -2   0   91.39   13.60
  11   2   0   97.19   13.40
  11   2   0  104.39   13.80
  10  -3   0    6.90    8.50
  10  -3   0    6.80    7.90
 -10   3   0    9.10    2.40
 -10   3   0   -0.30   10.10
 -10   3   0    9.40    2.30
   9  -3   0   10.20    7.70
   9  -3   0    0.30    7.40
  -9   3   0   30.30    9.60
  -9   3   0    5.50    2.60
  -9   3   0    1.90    2.30
   8  -3   0   32.20    8.30
   8  -3   0   50.29   10.20
  -8   3   0   51.09    4.50
  -8   3   0   50.39   10.10
  -8   3   0   51.69    4.70
   7  -3   0   69.49    9.90
   7  -3   0   67.89    9.40
   7  -3   0   98.29   12.20
  -7   3   0   88.39    5.20
  -7   3   0   93.59   12.10
  -7   3   0   93.59    5.40
   6  -3   0  475.05   27.70
   6  -3   0  448.66   26.90
  -6   3   0  509.85   29.10
   5  -3   0  171.38   13.60
   5  -3   0  166.68   14.60
   5  -3   0  167.18   14.30
  -5   3   0  169.98   15.10
   4  -3   0   38.50    6.20
   4  -3   0   45.20    7.50
   4  -3   0   39.10    6.60
  -4   3   0   40.30    7.00
   3  -3   0   34.40    6.10
   3  -3   0   20.30    5.80
  -3   3   0   28.70    5.50
   2  -3   0  535.15   28.50
   2  -3   0  559.24   26.40
  -2   3   0  585.54   28.20
   1  -3   0  125.69   10.50
   1  -3   0  124.29    7.90
   1  -3   0  120.49    7.50
  -1   3   0  126.09    8.50
  -1   3   0  118.59    7.40
   0  -3   0  862.91   41.00
   0  -3   0  872.91   42.80
   0  -3   0  865.51   40.50
   0   3   0  858.31   41.70
   0   3   0  878.41   41.10
   0   3   0  875.51   42.80
  -1  -3   0 1191.68   52.59
  -1  -3   0 1133.39   53.09
  -1  -3   0 1107.89   54.29
   1   3   0 1089.49   53.09
   1   3   0 1081.09   54.29
   1   3   0 1122.49   52.69
  -2  -3   0  234.88   15.20
  -2  -3   0  238.78   13.70
  -2  -3   0  234.28   12.70
  -2  -3   0  235.68   14.50
   2   3   0  234.68   12.80
   2   3   0  238.18   14.80
  -3  -3   0  190.28   13.90
  -3  -3   0  208.08   11.60
  -3  -3   0  211.48   14.80
  -3  -3   0  225.88   14.30
   3   3   0  200.28   14.00
  -4  -3   0    3.70    3.20
  -4  -3   0   -0.10    5.60
  -4  -3   0    4.30    5.30
  -4  -3   0    5.90    4.70
   4   3   0   -2.00    4.90
   4   3   0    7.80    5.00
  -5  -3   0   19.10    4.20
  -5  -3   0   16.80    7.00
  -5  -3   0   25.40    6.50
  -5  -3   0   22.80    6.70
   5   3   0   15.20    7.00
   5   3   0   16.80    6.00
  -6  -3   0  858.41   46.60
  -6  -3   0  923.91   47.10
   6   3   0  905.31   46.80
   6   3   0  883.91   47.00
  -7  -3   0  277.17   19.10
   7   3   0  264.77   21.50
   7   3   0  266.97   20.90
  -8  -3   0   13.90    5.50
  -8  -3   0   13.60    7.50
  -8  -3   0   25.20   10.40
   8   3   0   13.80    9.50
   8   3   0   13.40    9.60
  -9  -3   0    9.10    9.20
  -9  -3   0   20.80    9.10
  -9  -3   0   18.00    6.10
   9   3   0    8.10    9.80
 -10  -3   0   28.50    8.80
 -10  -3   0   16.30   10.00
  10   3   0   21.90   10.70
  10   3   0    1.50    9.30
 -11  -3   0   19.80    6.40
 -11  -3   0   28.00    9.80
 -11  -3   0    9.20   10.10
  11   3   0   21.90   11.20
  11   3   0    7.20   11.00
  10  -4   0   31.60    9.40
  10  -4   0   46.00   11.00
 -10   4   0   28.60   11.40
   9  -4   0   25.40    8.90
   9  -4   0   38.30    9.10
  -9   4   0   49.00   10.80
   8  -4   0    0.40    7.10
   8  -4   0   -2.20    9.10
   8  -4   0   -1.70    7.30
  -8   4   0    3.80    7.70
   7  -4   0   23.00    7.90
   7  -4   0   25.00    9.20
  -7   4   0    8.80    8.10
   6  -4   0   46.60    8.00
   6  -4   0   39.40    8.50
  -6   4   0   37.30    8.50
   5  -4   0  466.75   25.90
   5  -4   0  455.35   26.60
   5  -4   0  443.36   26.00
  -5   4   0  416.06   25.80
   4  -4   0   41.30    6.60
   4  -4   0   29.40    6.90
  -4   4   0   36.70    6.40
   3  -4   0  452.55   25.60
   3  -4   0  407.96   24.10
  -3   4   0  452.95   23.60
   2  -4   0  698.23   32.90
   2  -4   0  647.84   34.30
  -2   4   0  668.33   34.20
  -2   4   0  735.23   33.90
   1  -4   0  163.88   12.80
   1  -4   0  145.99    9.20
   1  -4   0  152.38    9.40
  -1   4   0  140.39   10.50
  -1   4   0  160.28    8.70
   0  -4   0   13.20    3.40
   0  -4   0   12.30    5.50
   0  -4   0   11.40    1.70
   0   4   0   10.30    4.40
   0   4   0   11.70    3.40
  -1  -4   0  372.66   18.40
  -1  -4   0  370.06   17.80
  -1  -4   0  361.36   18.80
  -1  -4   0  340.07   20.80
   1   4   0  369.96   18.50
   1   4   0  350.86   19.30
   1   4   0  382.56   21.00
  -2  -4   0  600.24   29.20
  -2  -4   0  539.55   29.00
  -2  -4   0  576.74   30.90
  -2  -4   0  601.54   31.80
   2   4   0  606.54   31.20
   2   4   0  618.14   29.30
   2   4   0  580.24   28.60
  -3  -4   0 1253.17   62.59
  -3  -4   0 1314.67   61.59
  -3  -4   0 1304.77   63.49
  -3  -4   0 1326.37   63.99
   3   4   0 1289.37   63.39
  -4  -4   0  400.76   24.00
  -4  -4   0  404.36   22.80
  -4  -4   0  393.26   20.80
  -4  -4   0  397.46   23.10
   4   4   0  393.16   23.20
  -5  -4   0  127.29   13.20
  -5  -4   0  122.19   11.60
  -5  -4   0  113.99    9.40
  -5  -4   0  120.19   12.80
   5   4   0   95.89   12.50
  -6  -4   0   32.00    7.80
  -6  -4   0   13.70    5.60
   6   4   0   24.60    7.40
   6   4   0   22.30    7.70
  -7  -4   0  156.68   13.00
  -7  -4   0  170.88   16.30
  -7  -4   0  158.68   15.90
   7   4   0  167.58   18.00
   7   4   0  145.29   16.10
  -8  -4   0   46.90   11.40
  -8  -4   0   30.20   11.00
   8   4   0   51.39    9.70
   8   4   0   29.40   10.80
  -9  -4   0  230.78   21.00
  -9  -4   0  320.37   17.90
  -9  -4   0  320.37   22.90
   9   4   0  275.67   24.10
 -10  -4   0   86.29   12.60
 -10  -4   0   94.69   12.10
  10   4   0  104.09   14.40
  10   4   0   78.69   13.30
 -11  -4   0   13.40   10.70
 -11  -4   0   15.00    6.20
 -11  -4   0    3.90   10.50
  11   4   0   -7.80   11.30
  11   4   0    7.20   11.50
   9  -5   0   13.20    8.60
   9  -5   0   17.50    9.60
  -9   5   0   23.20   10.30
   8  -5   0   81.79   10.60
   8  -5   0   62.49   10.60
   7  -5   0   39.50    8.80
   7  -5   0   65.89   10.90
   6  -5   0   48.20    8.70
   6  -5   0   56.09    9.60
  -6   5   0   50.29    8.40
   5  -5   0   81.79   10.90
   5  -5   0   93.49   10.70
   5  -5   0   75.39    9.90
  -5   5   0   93.59   11.80
   4  -5   0   43.60    7.50
   4  -5   0   31.50    6.80
  -4   5   0   32.10    6.00
  -4   5   0   28.50    6.10
   3  -5   0  342.37   16.30
   3  -5   0  337.77   20.90
   3  -5   0  350.76   19.90
  -3   5   0  317.07   21.30
  -3   5   0  352.16   19.00
   2  -5   0  138.49    9.10
   2  -5   0  146.19   10.50
   2  -5   0  132.29   13.10
  -2   5   0  154.38    9.50
  -2   5   0  141.39   11.50
   1  -5   0  629.94   32.20
  -1   5   0  578.94   30.90
   0  -5   0  366.36   22.70
   0   5   0  390.36   20.90
   0   5   0  397.76   19.70
  -1  -5   0    6.40    1.30
  -1  -5   0   15.10    5.20
  -1  -5   0    6.30    1.40
  -1  -5   0    6.80    5.70
  -1  -5   0    6.70    4.00
   1   5   0    8.80    3.50
   1   5   0    7.80    4.80
   1   5   0   14.20    5.90
  -2  -5   0   69.69    7.00
  -2  -5   0   59.19    7.70
  -2  -5   0   55.69    5.80
   2   5   0   61.29    6.00
   2   5   0   57.99    6.60
   2   5   0   49.00    7.70
  -3  -5   0   49.20    7.70
  -3  -5   0   64.59    6.80
  -3  -5   0   49.00    5.90
  -3  -5   0   53.89    8.70
   3   5   0   50.19    7.30
   3   5   0   60.99    6.20
   3   5   0   63.19    6.50
  -4  -5   0  395.86   20.90
  -4  -5   0  381.06   22.30
  -4  -5   0  383.96   23.40
   4   5   0  407.96   23.50
  -5  -5   0  256.07   15.60
  -5  -5   0  263.37   17.40
  -5  -5   0  260.07   17.80
   5   5   0  230.48   17.80
  -6  -5   0  249.48   18.00
  -6  -5   0  252.87   18.90
  -6  -5   0  255.87   18.80
   6   5   0  247.38   18.70
  -7  -5   0   39.00    8.90
  -7  -5   0   23.50    7.70
  -7  -5   0   28.90    7.80
   7   5   0   28.10    8.90
  -8  -5   0   -4.30    8.70
  -8  -5   0   -2.70    7.70
  -9  -5   0   32.00    9.60
  -9  -5   0   39.10   10.20
   9   5   0   53.89   10.80
 -10  -5   0  176.18   13.90
 -10  -5   0  142.19   17.40
 -10  -5   0  190.58   18.90
  10   5   0  191.58   21.30
   8  -6   0   -0.60    8.60
   8  -6   0    6.10    8.80
  -8   6   0    7.50    7.30
   7  -6   0   26.00    9.40
   7  -6   0    8.40    7.80
  -7   6   0    9.50    7.10
  -7   6   0   16.80    9.00
  -6   6   0  195.78   15.10
  -6   6   0  199.98   16.10
   5  -6   0   60.79    9.30
   5  -6   0   38.20    9.40
  -5   6   0   36.60    8.30
  -5   6   0   57.69    7.70
   4  -6   0   34.60    7.20
   4  -6   0   31.60    8.90
  -4   6   0   41.90    6.20
  -4   6   0   41.60    7.90
   3  -6   0    4.50    6.60
   3  -6   0   -3.00    4.80
   3  -6   0   -2.90    7.00
   3  -6   0   -1.10    2.10
  -3   6   0    5.60    3.80
  -3   6   0    8.10    5.00
   2  -6   0   68.19    7.40
   2  -6   0   55.19    6.60
  -2   6   0   60.99    7.90
  -1   6   0   11.10    4.90
   0  -6   0  609.14   33.30
   0   6   0  619.44   31.70
   1   6   0  318.87   18.70
   1   6   0  315.07   17.10
   1   6   0  341.27   21.20
  -2  -6   0  309.07   17.90
  -2  -6   0  247.38   13.20
   2   6   0  272.57   18.70
   2   6   0  259.47   14.50
   2   6   0  248.08   15.80
  -3  -6   0   13.30    3.90
   3   6   0   20.40    7.20
   3   6   0   34.50    5.90
   3   6   0   20.80    4.60
  -4  -6   0   11.50    4.90
  -4  -6   0   14.00    7.60
   4   6   0   11.30    6.50
   4   6   0    9.40    4.40
  -5  -6   0  118.69   13.30
  -5  -6   0  102.19   11.40
  -5  -6   0  107.39   14.10
   5   6   0  106.29   13.30
   5   6   0   94.09    9.20
  -6  -6   0  240.28   18.50
  -6  -6   0  194.28   25.60
  -6  -6   0  249.38   16.80
   6   6   0  219.38   19.90
  -7  -6   0  146.69   14.70
  -7  -6   0  149.99   15.80
  -7  -6   0  166.38   16.90
   7   6   0  180.78   19.10
  -8  -6   0   92.29   11.80
  -8  -6   0  108.89   13.70
   8   6   0   59.89   10.40
  -9  -6   0   30.60   10.50
  -9  -6   0   24.50    9.20
   9   6   0   45.50   10.90
 -10  -6   0  -21.40    9.10
 -10  -6   0   -3.80    9.50
 -10  -6   0    9.20    7.00
  10   6   0   -7.50   10.70
   8  -7   0   15.10   11.00
   8  -7   0   10.20    9.90
  -8   7   0   20.10    7.80
  -8   7   0    8.10    8.70
   7  -7   0    2.60    8.30
   7  -7   0    8.00    9.90
  -7   7   0    7.10    7.40
  -7   7   0    5.50    7.10
   6  -7   0   -6.10    7.80
   6  -7   0   -2.10    8.80
  -6   7   0    1.90    6.20
  -6   7   0    1.60    6.60
   5  -7   0   33.20    7.60
   5  -7   0    9.40    8.90
  -5   7   0   25.80    6.00
  -5   7   0   19.90    7.60
   4  -7   0  101.69   12.10
  -4   7   0   93.99   10.40
  -4   7   0   94.89    9.30
   3  -7   0  130.19   15.10
   3  -7   0  138.29    8.30
  -3   7   0  139.39   10.90
   2  -7   0   36.40    8.50
   2  -7   0   37.50    5.00
  -2   7   0   38.80    7.30
   1  -7   0  102.39   11.40
  -1   7   0   89.09    9.50
   0  -7   0    7.90    7.40
   0   7   0    3.70    5.60
  -1  -7   0  420.46   26.20
   1   7   0  431.46   22.50
   1   7   0  452.55   23.90
  -2  -7   0   39.50    7.90
  -2  -7   0   46.60    8.80
   2   7   0   42.80    8.20
   2   7   0   47.40    5.90
   2   7   0   47.40    7.40
  -3  -7   0  436.26   26.10
  -3  -7   0  428.36   21.20
  -3  -7   0  443.46   25.90
   3   7   0  434.66   26.30
   3   7   0  409.36   22.10
   3   7   0  436.96   23.40
  -4  -7   0  259.97   19.50
  -4  -7   0  282.67   16.00
   4   7   0  282.77   15.90
  -5  -7   0   17.00    8.10
  -5  -7   0   -7.50    4.80
  -5  -7   0    0.40    8.00
   5   7   0    9.40    4.80
   5   7   0    3.70    7.10
  -6  -7   0   20.50    7.60
  -6  -7   0  -11.40    7.90
  -6  -7   0    8.70    6.10
   6   7   0   -0.30    5.00
  -7  -7   0   30.70    9.40
  -7  -7   0   19.00    8.60
  -7  -7   0   27.20    7.80
   7   7   0    8.70    6.10
   7   7   0   21.70    8.00
  -8  -7   0   68.99   12.10
  -8  -7   0   85.79   11.30
  -8  -7   0   82.29   11.30
   8   7   0   68.79   11.30
  -9  -7   0   53.89   12.30
  -9  -7   0   87.69   11.40
   9   7   0   58.79   11.90
   6  -8   0   26.10   10.60
   6  -8   0   14.50    9.80
   6  -8   0    4.90   10.20
  -6   8   0   10.00    6.50
  -6   8   0   18.50    7.70
   5  -8   0   22.10    8.20
   5  -8   0   30.10    9.20
  -5   8   0   18.40    5.50
  -5   8   0   24.50    7.40
   4  -8   0   26.80    8.80
   4  -8   0   15.40    9.00
  -4   8   0   16.20    7.20
   3  -8   0   32.90    3.80
   3  -8   0   25.70    9.20
  -3   8   0   35.90    6.60
   2  -8   0   72.09   10.10
   2  -8   0   76.49    8.40
  -2   8   0   75.49    9.30
   1  -8   0   80.99   10.60
   1  -8   0   51.19    6.90
  -1   8   0   71.29    8.80
   0  -8   0  166.98   16.40
   0   8   0  140.89   12.80
  -1  -8   0   12.50    9.90
   1   8   0   10.50    5.80
  -2  -8   0   16.50   13.60
  -2  -8   0   22.80    9.20
   2   8   0   22.50    8.20
   2   8   0   14.80    6.20
   2   8   0   36.00    5.70
  -3  -8   0    0.10    7.20
  -3  -8   0    2.60    7.80
   3   8   0    0.50    4.70
   3   8   0   -5.30    5.20
   3   8   0   13.70    7.80
  -4  -8   0  305.67   21.80
  -4  -8   0  342.17   16.80
  -4  -8   0  324.07   23.20
   4   8   0  325.07   18.20
  -5  -8   0   65.39    8.20
  -5  -8   0   42.40    9.50
  -5  -8   0   78.49   11.30
   5   8   0   43.50    6.60
  -6  -8   0   75.99   10.50
  -6  -8   0   84.69   10.90
  -6  -8   0   85.19   11.30
   6   8   0  113.49   14.40
  -7  -8   0   36.50   11.00
  -7  -8   0   41.40    7.90
  -7  -8   0   48.80    9.90
   7   8   0   56.89   10.00
   7   8   0   55.79    7.00
  -8  -8   0    6.00    8.70
  -8  -8   0    4.10    9.40
   8   8   0   -1.50    9.40
   8   8   0   16.20    6.00
   5  -9   0   13.30    9.80
   5  -9   0   26.80   11.60
  -5   9   0   13.00    7.20
   4  -9   0    8.20   10.00
   4  -9   0    9.50    8.70
  -4   9   0   11.80    7.30
   3  -9   0    2.50    9.20
   3  -9   0   22.00    8.70
   3  -9   0    7.20    3.00
   3  -9   0   10.10    3.20
  -3   9   0    8.80    6.60
   2  -9   0    7.10    8.80
   2  -9   0   -2.20    7.60
   2  -9   0    1.00    4.40
  -2   9   0   10.80    6.70
   1  -9   0   25.70    9.50
   1  -9   0   12.30    5.60
  -1   9   0   22.00    6.80
   0  -9   0   30.70    9.70
   0   9   0   49.30    7.90
  -1  -9   0  132.99   16.20
   1   9   0  117.79   11.80
  -2  -9   0  122.89   16.00
  -2  -9   0   94.69   12.00
   2   9   0  107.39   11.00
   2   9   0   82.29    8.30
  -3  -9   0    8.80    8.40
  -3  -9   0   25.60    9.70
   3   9   0   20.40    8.20
   3   9   0   27.50    5.70
   3   9   0   10.10    6.60
  -4  -9   0    6.40    8.10
  -4  -9   0    1.30    6.90
   4   9   0    4.20    5.30
   4   9   0   -8.70    7.50
  -5  -9   0   44.70    5.40
  -5  -9   0   45.20   10.90
  -5  -9   0   49.20    9.60
   5   9   0   37.70    6.50
   5   9   0   52.59    9.90
  -6  -9   0    0.50    9.40
  -6  -9   0   16.40    9.00
  -6  -9   0    8.50    4.90
   6   9   0    7.30    5.50
   6   9   0   19.70    9.20
  -7  -9   0   76.49   11.80
  -7  -9   0  111.49   11.60
  -7  -9   0   86.49   12.00
   7   9   0   93.19    9.00
   7   9   0  103.39   12.80
   2 -10   0   23.30    5.20
   2 -10   0   19.50    9.60
   2 -10   0   30.30   10.90
  -2  10   0   20.40    7.30
   1 -10   0   -8.40    8.60
   1 -10   0   -1.00    5.80
  -1  10   0    5.30    7.10
   0 -10   0   -1.20    9.00
   0  10   0    9.00    6.70
  -1 -10   0   12.60    9.70
  -1 -10   0   26.20   10.10
   1  10   0   25.00    7.40
  -2 -10   0   -4.00    8.60
  -2 -10   0    7.20    9.80
   2  10   0   -0.70    6.20
  -3 -10   0   15.20    9.30
  -3 -10   0   14.00    9.80
   3  10   0   20.80    6.80
   3  10   0   20.00    5.50
  -4 -10   0   59.69   10.90
  -4 -10   0   53.99   11.90
   4  10   0   31.40   10.30
   4  10   0   46.90    6.50
  -5 -10   0   49.50   10.80
  -5 -10   0   39.20   11.00
   5  10   0   14.50   10.20
   5  10   0   43.70    6.30
   3  10  -1   56.29    8.40
  -3 -10   1   86.99   12.10
  -3 -10   1   58.29   12.20
   2  10  -1   16.50    6.50
  -2 -10   1   -3.80    9.80
  -2 -10   1   11.30    8.60
  -2 -10   1   28.20   10.80
   1  10  -1   16.50    7.10
  -1 -10   1   16.50    7.80
  -1 -10   1   28.80   10.30
   0  10  -1   11.70    7.00
   0 -10   1    7.80    7.30
   0 -10   1   29.90   10.10
  -1  10  -1   11.50    6.90
   1 -10   1   -1.70    9.50
   6   9  -1  100.49   13.90
   6   9  -1  129.19   10.10
  -6  -9   1  143.79   17.90
  -6  -9   1  140.19   18.40
  -6  -9   1  121.39    8.40
   5   9  -1   19.90    9.20
   5   9  -1   20.00    6.60
  -5  -9   1   17.80   10.00
  -5  -9   1   21.50    9.40
   4   9  -1   23.00    5.40
   4   9  -1   21.20    9.40
  -4  -9   1   26.10    9.40
  -4  -9   1   37.40    8.40
   3   9  -1    5.30    8.90
   3   9  -1   15.00    6.20
   3   9  -1    3.10    4.60
  -3  -9   1   14.20    8.70
  -3  -9   1    2.30    9.00
   2   9  -1   11.00    6.30
  -2  -9   1   15.50    9.20
  -2  -9   1    7.40    9.10
   1   9  -1   69.29    8.90
  -1  -9   1   84.79   12.10
  -1  -9   1   68.69    9.70
   0   9  -1   47.50    7.70
   0  -9   1   46.70    8.20
   0  -9   1   47.30   10.30
  -1   9  -1   42.10    7.60
   1  -9   1   53.49    7.20
   1  -9   1   24.90    9.30
  -2   9  -1   27.80    7.80
   2  -9   1   17.40    5.40
   2  -9   1   22.50    9.70
  -3   9  -1   -5.30    6.10
   3  -9   1    6.30   10.00
   3  -9   1   15.70    9.50
   3  -9   1   -2.30    3.70
  -4   9  -1   30.40    6.60
   4  -9   1   18.00    9.60
   4  -9   1    8.60   10.70
   7   8  -1    7.20    9.80
   7   8  -1   15.10    5.70
  -7  -8   1    1.10    8.90
  -7  -8   1    7.60    7.10
  -7  -8   1    3.10    9.50
   6   8  -1   26.60    9.50
   6   8  -1   15.50    5.40
  -6  -8   1   17.20    5.10
  -6  -8   1   12.00    9.40
  -6  -8   1   25.60    9.10
   5   8  -1   63.89    6.60
   5   8  -1   50.69   10.10
  -5  -8   1   56.79   10.40
  -5  -8   1   61.09    6.40
  -5  -8   1   51.89   10.00
   4   8  -1   90.89    9.40
   4   8  -1   80.29   10.80
   4   8  -1   84.79    7.70
  -4  -8   1   61.89   10.50
  -4  -8   1   81.49   11.60
   3   8  -1   37.20    6.50
   3   8  -1   20.90    7.60
   3   8  -1   27.80    5.10
  -3  -8   1   24.70    7.90
  -3  -8   1   25.80    7.30
   2   8  -1   10.00    4.50
   2   8  -1   11.40    5.80
  -2  -8   1   -3.80    7.70
   1   8  -1   -2.00    5.10
  -1  -8   1    4.30    8.40
   0   8  -1  110.09   11.00
   0  -8   1  101.99   12.10
   0  -8   1   97.19   11.10
  -1   8  -1   -3.60    6.20
   1  -8   1   -2.60    8.20
   1  -8   1    3.30    5.50
  -2   8  -1   60.99    8.60
   2  -8   1   53.19    9.90
   2  -8   1   54.19    6.40
  -3   8  -1   30.60    7.20
   3  -8   1   14.60    8.90
   3  -8   1   21.10    4.10
  -4   8  -1   10.20    5.80
   4  -8   1   11.00    9.30
   4  -8   1   11.90    8.90
  -5   8  -1    2.90    6.50
  -5   8  -1    0.50    4.20
   5  -8   1   -4.20    8.50
   5  -8   1    7.00    8.20
  -6   8  -1    3.10    5.70
  -6   8  -1   -5.40    7.20
   6  -8   1   13.80    9.70
   6  -8   1   -2.40   10.40
   6  -8   1   -2.20    9.50
  -9  -7   1   60.89   11.40
   8   7  -1  115.29   14.00
  -8  -7   1  141.19   18.00
  -8  -7   1  102.29   13.00
  -8  -7   1  137.69   17.20
   7   7  -1  100.49   12.70
  -7  -7   1  125.69   16.20
  -7  -7   1  110.59   13.70
  -7  -7   1  114.99   14.50
   6   7  -1   63.29    7.00
   6   7  -1   64.79   10.20
  -6  -7   1   61.89    9.80
  -6  -7   1   57.09    7.60
  -6  -7   1   68.39   10.50
   5   7  -1   13.40    4.90
  -5  -7   1   27.00    8.40
  -5  -7   1   18.50    4.90
  -5  -7   1   21.60    8.80
   4   7  -1   27.00    5.90
   4   7  -1   22.30    8.60
   4   7  -1   30.20    5.10
  -4  -7   1   36.20    8.60
  -4  -7   1   24.40    3.60
  -4  -7   1   29.30    8.80
   3   7  -1   48.40    6.90
   3   7  -1   46.40    9.20
   3   7  -1   41.10    5.30
  -3  -7   1   38.80    9.80
   2   7  -1  521.35   26.60
   2   7  -1  534.15   28.10
   2   7  -1  505.35   31.10
  -2  -7   1  583.24   31.30
   1   7  -1  278.17   17.00
   1   7  -1  272.67   20.00
  -1  -7   1  278.87   20.40
   0   7  -1   -1.80    4.30
   0  -7   1    3.80    5.70
   0  -7   1   -8.30    7.00
  -1   7  -1   72.89    8.50
   1  -7   1   57.19    7.10
  -2   7  -1   12.00    6.60
   2  -7   1    3.30    6.00
   2  -7   1    1.20    4.20
  -3   7  -1  315.07   19.00
   3  -7   1  322.57   17.20
   3  -7   1  342.77   22.80
  -4   7  -1    6.50    3.90
  -4   7  -1   11.20    7.00
   4  -7   1   23.60    7.80
   4  -7   1    3.50    8.10
  -5   7  -1   85.49   10.30
  -5   7  -1   94.59    9.90
   5  -7   1   89.69   12.00
   5  -7   1   85.09   11.60
  -6   7  -1    3.50    5.90
  -6   7  -1   13.60    7.50
   6  -7   1   12.50    8.90
   6  -7   1   18.00    9.40
   6  -7   1   14.80    9.30
  -7   7  -1   -4.10    6.90
   7  -7   1    3.30    9.50
   7  -7   1   -0.90    7.70
   7  -7   1   10.60    9.90
   9   6  -1   14.80   10.00
  -9  -6   1    8.50    9.00
  -9  -6   1   -3.90    9.20
   8   6  -1   52.79   10.80
  -8  -6   1   33.10    9.50
  -8  -6   1   45.20   10.90
  -8  -6   1   38.90    9.60
  -7  -6   1  148.19   16.50
  -7  -6   1  150.78   14.50
  -7  -6   1  160.38   16.90
  -6  -6   1   66.69    9.90
  -6  -6   1   63.99   10.60
  -6  -6   1   88.19   11.10
   5   6  -1  149.59   15.30
   5   6  -1  161.28   10.40
  -5  -6   1  179.18   15.90
  -5  -6   1  156.68   12.70
  -5  -6   1  152.38   19.20
   4   6  -1   26.80    4.70
   4   6  -1   27.30    8.30
  -4  -6   1   30.30    8.10
  -4  -6   1   24.70    8.40
  -4  -6   1   31.10    4.80
   3   6  -1   48.50    6.40
   3   6  -1   40.60    5.20
   3   6  -1   45.70    8.60
  -3  -6   1   48.90    9.20
  -3  -6   1   36.90    8.20
  -3  -6   1   44.40    4.90
   2   6  -1   54.39    7.00
   2   6  -1   44.10    8.50
   2   6  -1   53.49    5.50
  -2  -6   1   58.29    8.40
   1   6  -1  349.17   22.60
   1   6  -1  315.97   21.10
   1   6  -1  349.27   18.30
  -1  -6   1  393.96   22.10
   0   6  -1  139.19   12.50
   0  -6   1  202.68   15.00
  -1   6  -1   26.30    6.50
   1  -6   1   23.60    5.20
   1  -6   1   24.20    8.00
  -2   6  -1  289.27   17.90
   2  -6   1  284.97   16.40
   2  -6   1  299.07   19.10
  -3   6  -1   32.80    7.40
  -3   6  -1   34.60    4.20
   3  -6   1   30.10    4.00
   3  -6   1   38.30    8.60
  -4   6  -1  110.89   11.80
  -4   6  -1  107.59    9.60
   4  -6   1   98.89   13.50
   4  -6   1  129.49   14.30
  -5   6  -1   -0.80    5.30
  -5   6  -1    2.30    6.80
  -6   6  -1  162.98   14.20
   6  -6   1  116.09   15.20
   6  -6   1  170.48   17.30
  -7   6  -1   16.40    8.80
   7  -6   1   11.80    8.30
   7  -6   1   23.30    9.10
   8  -6   1   24.40   10.00
   8  -6   1   19.40    9.70
  10   5  -1   38.70   12.60
 -10  -5   1   29.40   10.80
 -10  -5   1   45.80   11.00
   9   5  -1   64.39   12.30
  -9  -5   1   62.79   11.40
  -9  -5   1   69.99   11.60
   8   5  -1   88.19   11.90
  -8  -5   1   59.89   10.60
  -8  -5   1   74.29   10.80
   7   5  -1    3.00    9.70
  -7  -5   1   31.50    8.00
  -7  -5   1   18.70    8.10
  -7  -5   1   31.20    8.90
   6   5  -1  168.08   19.00
  -6  -5   1  198.18   15.50
  -6  -5   1  173.58   17.00
  -6  -5   1  192.48   15.20
  -6  -5   1  231.78   14.50
   5   5  -1  248.18   18.50
  -5  -5   1  239.58   14.60
  -5  -5   1  237.18   16.90
  -5  -5   1  249.78   18.70
  -5  -5   1  246.68   16.60
   4   5  -1  272.57   14.90
   4   5  -1  270.07   17.90
  -4  -5   1  280.27   16.10
  -4  -5   1  261.57   16.40
   3   5  -1  324.17   17.60
   3   5  -1  316.67   16.90
   3   5  -1  326.07   21.10
  -3  -5   1  329.37   17.20
  -3  -5   1  324.87   20.40
  -3  -5   1  312.87   17.80
   2   5  -1  279.37   19.20
   2   5  -1  282.97   14.80
   2   5  -1  300.07   16.00
  -2  -5   1  271.97   13.60
  -2  -5   1  265.77   18.70
   1   5  -1   60.69    8.50
   1   5  -1   57.19    5.60
   1   5  -1   48.60    6.40
  -1  -5   1   58.19    8.10
   0   5  -1   33.60    6.10
   0  -5   1   51.99    5.20
   0  -5   1   31.80    7.30
  -1   5  -1   28.40    6.20
   1  -5   1   32.40    5.40
  -2   5  -1  270.17   13.80
  -2   5  -1  254.67   15.80
   2  -5   1  258.57   14.80
  -3   5  -1  408.06   21.00
  -3   5  -1  393.66   21.70
   3  -5   1  387.26   19.80
  -4   5  -1   80.19    9.60
   4  -5   1   70.29    9.80
  -5   5  -1  122.79   11.50
   5  -5   1  125.99   16.70
  -6   5  -1   12.00    7.00
   6  -5   1   12.10    7.60
  -7   5  -1   85.79   10.60
   7  -5   1   95.49   11.80
  -8   5  -1    7.50    9.60
   8  -5   1   17.80    8.60
   8  -5   1   11.70    8.70
  -9   5  -1   67.49   11.20
   9  -5   1   50.69   11.00
   9  -5   1   49.70   11.10
  10   4  -1   25.60   10.80
 -10  -4   1   48.80    8.80
 -10  -4   1   47.10   11.00
 -10  -4   1   34.40   10.20
   9   4  -1  113.19   14.60
  -9  -4   1  152.78   14.10
  -9  -4   1  120.29   17.00
  -9  -4   1  139.89   16.70
  -8  -4   1  231.38   19.50
  -8  -4   1  251.77   16.90
   7   4  -1  122.39   15.90
  -7  -4   1  131.49   10.80
  -7  -4   1  147.79   14.90
  -7  -4   1  134.69   14.90
   6   4  -1   11.70    7.60
  -6  -4   1   26.70    6.90
  -6  -4   1   15.20    6.80
  -6  -4   1   19.80    7.20
  -6  -4   1   16.70    5.00
   5   4  -1   31.30    7.40
  -5  -4   1   28.30    7.10
  -5  -4   1   34.00    5.20
   4   4  -1    0.60    5.50
  -4  -4   1    5.20    4.50
  -4  -4   1   -0.20    6.20
  -4  -4   1    3.80    5.40
  -4  -4   1    5.90    4.10
   3   4  -1  968.00   46.30
   3   4  -1  942.71   48.80
  -3  -4   1  982.70   46.80
  -3  -4   1  989.10   46.30
  -3  -4   1  936.21   48.70
  -3  -4   1  962.90   49.20
   2   4  -1  895.41   41.50
   2   4  -1  864.11   44.50
   2   4  -1  865.41   42.20
  -2  -4   1  885.71   42.10
  -2  -4   1  857.81   44.40
  -2  -4   1  865.71   41.40
   1   4  -1  441.56   23.90
   1   4  -1  426.66   22.20
   1   4  -1  425.06   21.10
  -1  -4   1  425.36   23.70
   0   4  -1  301.57   18.70
   0   4  -1  296.57   16.50
   0  -4   1  293.77   15.10
   0  -4   1  289.37   18.90
  -1   4  -1    5.50    1.60
  -1   4  -1    8.60    3.60
   1  -4   1    1.80    4.60
   1  -4   1   13.30    3.40
   1  -4   1    8.00    3.90
  -2   4  -1  439.36   22.30
   2  -4   1  434.96   22.30
   2  -4   1  487.45   23.40
   2  -4   1  407.06   25.30
  -3   4  -1  478.45   24.50
   3  -4   1  445.26   22.40
  -4   4  -1  271.47   17.50
   4  -4   1  268.77   18.60
  -5   4  -1  174.98   14.70
   5  -4   1  184.78   15.70
   5  -4   1  191.18   15.80
  -6   4  -1    3.80    6.70
   6  -4   1   -6.70    6.70
   6  -4   1    3.60    6.80
  -7   4  -1    6.70    7.70
   7  -4   1   -4.30    7.50
   7  -4   1   10.60   11.90
  -8   4  -1    0.20    8.30
   8  -4   1   15.50    8.20
   8  -4   1    9.10    7.50
  -9   4  -1   15.00    8.80
   9  -4   1    7.20    7.70
   9  -4   1   23.90    9.20
 -10   4  -1   42.30   11.00
  10  -4   1   33.50    9.80
  10  -4   1   30.60   11.00
  11   3  -1    8.00   11.10
  11   3  -1   12.80   11.70
 -11  -3   1   21.50   10.30
 -11  -3   1   10.90   10.90
  10   3  -1    6.90   10.90
  10   3  -1   26.20   10.70
 -10  -3   1   25.20    9.70
 -10  -3   1   29.00    7.50
 -10  -3   1   17.80   10.10
   9   3  -1   23.30    9.20
   9   3  -1   -4.90    8.70
  -9  -3   1    7.00    7.80
  -9  -3   1    3.00    8.60
   8   3  -1   30.70    9.30
   8   3  -1   34.40   12.00
  -8  -3   1   21.60    7.60
  -8  -3   1   18.70    5.90
  -8  -3   1   29.20    7.90
   7   3  -1  561.54   30.20
   7   3  -1  480.05   30.70
   7   3  -1  472.75   30.70
  -7  -3   1  497.65   30.30
  -7  -3   1  536.85   29.20
  -7  -3   1  478.15   25.50
   6   3  -1  533.55   31.90
   6   3  -1  607.04   31.90
  -6  -3   1  504.55   27.30
  -6  -3   1  523.05   31.50
  -6  -3   1  609.64   31.00
   5   3  -1  220.38   16.70
   5   3  -1  202.08   15.80
  -5  -3   1  207.48   15.90
  -5  -3   1  206.48   11.80
  -5  -3   1  196.78   15.70
  -5  -3   1  204.88   16.10
   4   3  -1  363.26   21.00
   4   3  -1  350.36   21.40
  -4  -3   1  339.27   20.70
  -4  -3   1  363.36   18.10
  -4  -3   1  357.56   21.60
  -4  -3   1  343.37   21.60
   3   3  -1  153.48   11.40
   3   3  -1  138.69   12.50
  -3  -3   1  144.59   12.40
  -3  -3   1  154.68    8.90
  -3  -3   1  149.69   11.10
  -3  -3   1  137.29   12.40
   2   3  -1   71.59    9.60
   2   3  -1   68.19    5.90
   2   3  -1   74.39    7.00
  -2  -3   1   73.09    6.00
  -2  -3   1   72.49    6.40
  -2  -3   1   64.79    7.80
   1   3  -1   29.40    3.10
   1   3  -1   31.90    4.30
   1   3  -1   31.60    5.80
  -1  -3   1   34.20    5.10
  -1  -3   1   29.70    2.80
   0   3  -1  439.66   23.60
   0   3  -1  436.96   21.90
   0  -3   1  422.76   20.70
   0  -3   1  417.26   23.60
  -1   3  -1  107.19    6.30
   1  -3   1  102.59    6.80
   1  -3   1   98.79    7.80
   1  -3   1   97.39    9.10
  -2   3  -1  978.80   46.40
   2  -3   1  942.31   45.60
  -3   3  -1  543.25   29.80
   3  -3   1  595.24   27.40
  -4   3  -1   -0.30    5.30
   4  -3   1    3.20    5.30
   4  -3   1    4.10    5.40
  -5   3  -1  122.09   12.70
   5  -3   1  118.39   11.90
   5  -3   1  110.49   12.60
  -6   3  -1  152.18   15.20
   6  -3   1  169.28   14.10
   6  -3   1  132.39   14.30
  -7   3  -1  142.79   16.10
   7  -3   1  156.88   15.20
   7  -3   1  146.79   14.30
  -8   3  -1  243.88   19.60
   8  -3   1  194.08   17.80
  -9   3  -1   16.60    8.50
   9  -3   1   10.70    8.10
   9  -3   1    2.90    7.70
 -10   3  -1  -14.70    9.30
  10  -3   1    7.40    8.80
  11   2  -1   82.29   14.20
  11   2  -1  121.49   14.20
 -11  -2   1  118.29   15.00
 -11  -2   1  138.29   17.00
  10   2  -1   72.39   12.00
  10   2  -1   78.59   13.00
 -10  -2   1   97.49   13.30
 -10  -2   1   72.79    9.10
 -10  -2   1   66.19   10.50
   9   2  -1  111.19   13.40
   9   2  -1  109.09   13.70
  -9  -2   1   86.99   12.90
  -9  -2   1  125.79   15.40
  -9  -2   1  101.99   12.40
   8   2  -1   15.80    8.70
   8   2  -1   12.20    8.80
   8   2  -1    8.70    8.40
  -8  -2   1   32.30    6.50
  -8  -2   1    9.60    6.90
  -8  -2   1   21.00    9.00
   7   2  -1  141.49   16.80
   7   2  -1  129.99   16.60
   7   2  -1  170.58   16.20
  -7  -2   1  150.48   16.10
  -7  -2   1  186.58   13.80
  -7  -2   1  142.79   13.50
   6   2  -1   36.10    8.70
   6   2  -1   51.59    8.90
   6   2  -1   47.20    8.90
  -6  -2   1   37.50    7.80
  -6  -2   1   45.70    9.00
   5   2  -1  177.38   13.30
   5   2  -1  145.89   12.70
   5   2  -1  159.88   14.20
  -5  -2   1  174.48   14.30
  -5  -2   1  129.29   13.00
   4   2  -1  487.65   26.30
   4   2  -1  464.95   25.60
   4   2  -1  450.25   26.00
  -4  -2   1  453.25   25.90
  -4  -2   1  458.95   26.00
  -4  -2   1  465.95   25.80
  -4  -2   1  462.25   22.70
   3   2  -1 3042.70  142.09
   3   2  -1 2924.41  141.99
  -3  -2   1 3090.79  142.19
  -3  -2   1 3073.29  142.09
  -3  -2   1 3015.20  139.79
  -3  -2   1 2961.20  141.79
   2   2  -1  174.38   11.50
   2   2  -1  187.18    9.80
   2   2  -1  172.68   12.50
  -2  -2   1  182.18   11.10
  -2  -2   1  188.48   11.80
  -2  -2   1  189.98    9.70
  -2  -2   1  178.48   12.30
   1   2  -1  651.13   33.60
   1   2  -1  697.23   35.00
   1   2  -1  695.23   33.60
   1   2  -1  729.23   33.10
  -1  -2   1  710.73   35.20
  -1  -2   1  705.83   33.40
  -1  -2   1  752.12   33.70
   0   2  -1   77.09    5.70
   0   2  -1   70.09    7.80
   0  -2   1   76.49    8.00
   0  -2   1   76.19    4.50
  -1   2  -1 3373.26  168.18
   1  -2   1 3803.02  169.68
   1  -2   1 3721.53  168.38
  -2   2  -1 1856.31   85.29
  -2   2  -1 1714.63   86.39
   2  -2   1 1909.51   85.19
  -3   2  -1  191.38   13.30
  -3   2  -1  183.48    9.90
  -4   2  -1  167.08    9.00
  -4   2  -1  150.38   13.20
   4  -2   1  161.68   12.80
   4  -2   1  156.18   13.50
   4  -2   1  140.79   12.00
  -5   2  -1   48.00    8.30
  -5   2  -1   56.09    5.40
   5  -2   1   41.20    7.60
   5  -2   1   49.99    7.20
   5  -2   1   44.30    8.50
  -6   2  -1   59.99    6.50
  -6   2  -1   38.00    8.80
   6  -2   1   44.90    8.10
   6  -2   1   42.90    7.40
  -7   2  -1   27.50    4.50
  -7   2  -1   28.70    9.40
   7  -2   1   31.50    8.10
   7  -2   1   21.10    6.70
  -8   2  -1   79.29    8.40
  -8   2  -1   77.99   11.80
   8  -2   1  101.29   13.50
   8  -2   1   82.19    9.90
  -9   2  -1  153.88   11.40
   9  -2   1  147.19   16.00
   9  -2   1  170.48   15.90
 -10   2  -1   -0.30    9.10
 -10   2  -1    6.60    4.70
  10  -2   1    9.90    7.40
  10  -2   1   20.00    8.60
 -11   2  -1   47.90    6.00
 -11   2  -1   39.50    5.30
 -11   2  -1   50.89   12.50
  11  -2   1   38.70   11.00
  11   1  -1    9.30   10.30
  11   1  -1  -15.10    8.90
 -11  -1   1    1.20    8.60
 -11  -1   1   -5.40    8.00
 -11  -1   1    8.10    8.30
  10   1  -1   58.29    9.80
  10   1  -1   53.79   10.40
  10   1  -1   44.50   10.80
 -10  -1   1   46.40   10.00
 -10  -1   1   61.49    9.80
 -10  -1   1   52.89    7.90
   9   1  -1   28.00    9.60
   9   1  -1   36.90   10.50
  -9  -1   1   44.20    8.80
  -9  -1   1   45.10    9.20
   8   1  -1  894.81   47.60
   8   1  -1  901.91   47.50
   8   1  -1  923.01   48.40
  -8  -1   1  907.71   47.90
  -8  -1   1  850.51   45.70
   7   1  -1  141.79   16.60
   7   1  -1  172.98   16.30
   7   1  -1  153.28   13.80
  -7  -1   1  131.39   12.70
  -7  -1   1  123.89   13.40
  -7  -1   1  148.09   16.90
   6   1  -1  185.18   15.70
   6   1  -1  121.39   15.10
   6   1  -1  144.39   14.80
  -6  -1   1  113.39   11.60
  -6  -1   1  170.98   15.90
  -6  -1   1  127.99   12.40
   5   1  -1   59.59    8.70
   5   1  -1   60.59    8.50
   5   1  -1   55.39    7.90
  -5  -1   1   56.39    9.00
  -5  -1   1   56.99    7.20
  -5  -1   1   54.39    7.40
   4   1  -1   99.59   11.50
   4   1  -1  112.19   11.90
   4   1  -1  116.09   11.60
  -4  -1   1  122.19   10.90
  -4  -1   1  112.89   11.80
   3   1  -1  421.26   21.20
   3   1  -1  367.86   21.00
   3   1  -1  379.66   21.60
  -3  -1   1  358.56   21.50
  -3  -1   1  386.16   21.40
  -3  -1   1  384.06   20.90
   2   1  -1 1614.74   77.49
   2   1  -1 1661.03   77.49
  -2  -1   1 1600.24   77.29
  -2  -1   1 1660.63   77.49
  -2  -1   1 1617.44   75.69
  -2  -1   1 1652.13   77.39
   1   1  -1 1466.05   65.69
   1   1  -1 1407.26   66.29
   1   1  -1 1373.26   64.99
  -1  -1   1 1342.97   65.49
  -1  -1   1 1387.46   66.29
  -1  -1   1 1424.86   64.99
   0   1  -1   51.69    5.50
   0  -1   1   58.69    5.70
   0  -1   1   49.99    2.80
   0  -1   1   50.39    5.10
  -1   1  -1  102.59    6.40
   1  -1   1  106.59    6.50
  -2   1  -1 2371.66  107.19
  -2   1  -1 2239.38  105.79
   2  -1   1 2226.98  105.79
  -3   1  -1  820.02   39.50
  -3   1  -1  810.52   41.80
   3  -1   1  832.32   40.70
   3  -1   1  855.31   41.70
  -4   1  -1  825.52   44.60
  -4   1  -1  936.91   42.20
   4  -1   1  863.81   43.20
   4  -1   1  852.21   44.80
   4  -1   1  873.41   44.30
  -5   1  -1  607.84   29.80
  -5   1  -1  591.24   33.00
   5  -1   1  564.94   30.80
   5  -1   1  598.64   32.90
   5  -1   1  569.54   32.00
  -6   1  -1  322.57   22.10
  -6   1  -1  351.06   22.70
   6  -1   1  319.07   20.90
   6  -1   1  306.77   19.30
  -7   1  -1  151.08   16.20
   7  -1   1  140.39   12.80
   7  -1   1  114.79   13.70
  -8   1  -1    4.00    6.70
  -8   1  -1   -0.80    5.30
   8  -1   1    1.60    7.00
   8  -1   1   -3.40    5.80
  -9   1  -1   21.40    6.40
   9  -1   1   26.50    9.10
 -10   1  -1   29.00   10.50
 -10   1  -1   33.60    7.10
  10  -1   1   39.20    9.50
 -11   1  -1   16.60    8.50
  11  -1   1    6.40    9.20
  11   0  -1  120.79   14.90
  11   0  -1  181.18   18.60
 -11   0   1  179.28   15.50
 -11   0   1  171.18   16.80
 -11   0   1  182.78   16.20
 -11   0   1  165.18   20.80
  10   0  -1   24.70    9.30
  10   0  -1   14.80    8.60
  10   0  -1   13.30    9.70
 -10   0   1   32.50   11.00
 -10   0   1   20.60    9.30
 -10   0   1   11.30    7.20
   9   0  -1    6.90    7.60
   9   0  -1   -5.50    8.30
  -9   0   1   16.10    6.70
  -9   0   1   -4.80    6.30
   8   0  -1   15.40    9.00
   8   0  -1   20.10    8.50
   8   0  -1    7.10    7.10
   7   0  -1  244.88   18.10
   7   0  -1  233.78   17.60
   7   0  -1  257.67   20.20
  -7   0   1  239.68   18.00
  -7   0   1  223.18   16.80
  -7   0   1  231.98   18.30
   6   0  -1  261.57   20.10
   6   0  -1  247.28   17.90
   6   0  -1  264.87   19.00
  -6   0   1  259.67   17.30
  -6   0   1  243.58   19.80
  -6   0   1  255.57   18.00
   5   0  -1 1091.89   53.19
   5   0  -1 1037.90   54.29
   5   0  -1 1030.60   53.99
  -5   0   1 1077.09   52.99
  -5   0   1 1051.99   53.89
  -5   0   1 1056.69   52.99
   4   0  -1  214.98   14.40
   4   0  -1  208.38   14.90
   4   0  -1  207.68   15.50
  -4   0   1  215.68   14.70
  -4   0   1  200.68   13.90
  -4   0   1  215.28   14.30
   3   0  -1  607.14   30.20
   3   0  -1  558.34   31.30
   3   0  -1  571.04   31.10
  -3   0   1  638.54   30.90
  -3   0   1  609.34   31.30
  -3   0   1  580.24   30.20
   2   0  -1   23.90    4.50
   2   0  -1   19.90    4.40
   2   0  -1   26.00    3.70
  -2   0   1   19.80    3.30
  -2   0   1   19.50    3.70
   1   0  -1 1323.87   63.69
   1   0  -1 1353.56   63.59
  -1   0   1 1387.76   63.69
  -1   0   1 1357.16   63.69
  -1   0   1 1384.16   63.69
  -1   0   1 1328.67   63.19
   0   0  -1  534.75   26.20
  -1   0  -1  473.35   21.80
  -1   0  -1  435.76   21.10
   1   0   1  398.76   21.10
   1   0   1  439.16   21.60
  -2   0  -1 3011.70  135.79
  -2   0  -1 2731.43  134.39
  -2   0  -1 2958.80  135.19
   2   0   1 2827.72  134.19
   2   0   1 2936.21  135.49
  -3   0  -1    6.90    4.90
  -3   0  -1    6.20    4.80
   3   0   1    3.80    3.40
   3   0   1    7.70    3.00
  -4   0  -1  499.85   28.60
  -4   0  -1  575.24   26.80
  -4   0  -1  496.55   28.70
   4   0   1  503.95   26.40
   4   0   1  481.95   28.10
  -5   0  -1   50.09    8.60
  -5   0  -1   50.29    6.50
  -5   0  -1   69.29    9.00
   5   0   1   48.80    6.40
   5   0   1   49.10    8.10
  -6   0  -1  837.82   42.00
  -6   0  -1  771.22   39.20
  -6   0  -1  788.22   41.90
   6   0   1  668.23   40.60
   6   0   1  771.42   39.20
  -7   0  -1  127.39   15.80
  -7   0  -1  138.69   12.70
  -7   0  -1  187.18   15.20
   7   0   1  130.59   14.50
  -8   0  -1  186.98   17.10
  -8   0  -1  140.89   19.00
   8   0   1  178.08   17.50
  -9   0  -1   28.20    9.40
   9   0   1   18.70   10.00
 -10   0  -1   21.50    9.40
 -10   0  -1   -4.10    8.10
  10   0   1   -8.00    8.00
 -11   0  -1   35.90   10.00
 -11   0  -1   18.40    8.50
  11   0   1   10.70    9.50
  11   0   1   17.20    9.30
  11  -1  -1   51.09   10.50
  11  -1  -1   50.69   12.00
 -11   1   1   52.39    9.40
 -11   1   1   68.39   12.80
 -11   1   1   46.50    7.80
  10  -1  -1  106.89   14.00
  10  -1  -1  107.99   13.60
  10  -1  -1   86.69   12.50
 -10   1   1  111.39   14.70
 -10   1   1  117.29   14.30
 -10   1   1  105.89   17.30
 -10   1   1  104.29   12.20
   9  -1  -1   44.10    8.80
   9  -1  -1   71.19   11.80
  -9   1   1   48.70    8.60
  -9   1   1   63.19    9.20
   8  -1  -1   84.29   10.40
   8  -1  -1   63.89   12.40
   7  -1  -1   13.80    8.10
   7  -1  -1   28.30    7.10
  -7   1   1   18.10    7.20
  -7   1   1   16.60    7.20
  -7   1   1   20.50    7.10
   6  -1  -1   57.49    8.20
  -6   1   1   49.70    8.20
  -6   1   1   49.90    8.00
  -6   1   1   33.90    9.30
   5  -1  -1  287.87   20.60
   5  -1  -1  333.27   20.20
   5  -1  -1  316.07   19.50
  -5   1   1  297.37   19.00
  -5   1   1  330.47   20.00
  -5   1   1  276.97   20.80
   4  -1  -1  930.11   48.30
   4  -1  -1 1010.60   48.40
   4  -1  -1  910.41   47.30
  -4   1   1  893.41   47.30
  -4   1   1  964.40   48.80
  -4   1   1 1013.30   48.40
   3  -1  -1  844.02   41.10
   3  -1  -1  760.72   40.10
   3  -1  -1  792.22   41.40
  -3   1   1  805.62   41.40
  -3   1   1  848.72   40.40
  -3   1   1  858.71   41.60
   2  -1  -1 1865.11   97.39
   2  -1  -1 2136.19   97.19
   2  -1  -1 1897.61   96.09
  -2   1   1 2279.87   96.29
  -2   1   1 2135.99   95.89
  -2   1   1 2156.28   97.19
  -2   1   1 1930.81   97.49
   1  -1  -1   73.29    5.70
   1  -1  -1   62.29    6.80
   1  -1  -1   76.09    4.10
   1  -1  -1   67.49    4.60
  -1   1   1   68.39    6.00
  -1   1   1   70.99    4.20
  -1   1   1   70.69    5.20
  -1   1   1   70.29    4.60
   0  -1  -1  122.59    6.60
   0  -1  -1   97.69    5.60
   0  -1  -1   95.59    5.90
   0   1   1  109.59    6.20
   0   1   1   98.19    6.40
   0   1   1  103.79    6.90
   0   1   1  101.69    5.60
  -1  -1  -1   89.39    4.40
  -1  -1  -1   87.29    6.00
  -1  -1  -1   89.69    4.90
   1   1   1   80.69    6.50
   1   1   1   79.69    4.80
  -2  -1  -1  983.20   48.70
  -2  -1  -1  982.20   46.30
   2   1   1 1015.00   48.90
  -3  -1  -1 3766.02  195.68
  -3  -1  -1 4261.07  193.68
  -3  -1  -1 4632.64  195.58
   3   1   1 4062.99  196.08
  -4  -1  -1    9.00    6.10
  -4  -1  -1   13.30    6.10
  -4  -1  -1   13.20    3.50
   4   1   1    8.20    6.30
  -5  -1  -1  566.74   32.70
  -5  -1  -1  617.54   33.00
  -5  -1  -1  590.34   30.00
   5   1   1  581.64   33.20
  -6  -1  -1  469.75   24.60
  -6  -1  -1  417.86   27.50
  -6  -1  -1  458.85   27.60
   6   1   1  475.25   28.10
  -7  -1  -1  341.37   22.80
  -7  -1  -1  373.06   21.00
   7   1   1  386.96   24.50
   7   1   1  338.27   23.40
  -8  -1  -1   71.49   10.80
  -8  -1  -1   65.39    7.70
   8   1   1   62.39    9.90
   8   1   1   66.79   10.50
  -9  -1  -1  377.56   25.50
  -9  -1  -1  381.56   22.60
   9   1   1  391.66   25.80
   9   1   1  395.86   26.50
 -10  -1  -1   28.40    9.00
  10   1   1   37.50    8.90
  10   1   1   21.40    9.60
 -11  -1  -1   40.50   11.80
 -11  -1  -1   70.89   11.20
  11   1   1   78.99   11.90
  11   1   1   55.09   11.40
  11  -2  -1    1.90    9.40
  11  -2  -1    0.00    8.40
 -11   2   1    8.50   10.70
 -11   2   1    6.90    5.20
  10  -2  -1    2.90   10.00
  10  -2  -1    1.40    7.60
 -10   2   1    1.50    4.80
 -10   2   1    9.10   10.10
   9  -2  -1   17.40    7.70
   9  -2  -1    6.10    9.60
  -9   2   1   22.30    5.20
  -9   2   1    8.80    7.60
  -9   2   1   41.60   10.00
   8  -2  -1  338.67   23.50
  -8   2   1  406.06   24.20
  -8   2   1  397.76   26.50
  -8   2   1  370.36   20.90
   7  -2  -1  287.37   19.50
   7  -2  -1  350.96   20.90
   7  -2  -1  315.77   21.00
  -7   2   1  233.98   20.40
  -7   2   1  304.07   17.30
  -7   2   1  349.67   23.40
   6  -2  -1  107.39   12.80
   6  -2  -1   90.09   11.40
   6  -2  -1  101.79   12.90
  -6   2   1  121.79    9.30
  -6   2   1  124.69   13.30
  -6   2   1  128.19   12.70
   5  -2  -1   12.00    6.50
   5  -2  -1   13.80    5.10
   5  -2  -1   15.40    6.00
  -5   2   1   14.00    3.60
  -5   2   1    7.70    6.10
  -5   2   1   14.00    5.70
   4  -2  -1    2.90    5.70
   4  -2  -1    0.80    4.00
   4  -2  -1   -0.20    5.30
  -4   2   1    1.50    5.50
  -4   2   1    3.20    2.60
  -4   2   1    0.60    5.80
   3  -2  -1   40.80    6.60
   3  -2  -1   42.40    6.60
   3  -2  -1   57.29    6.70
  -3   2   1   49.50    6.70
  -3   2   1   50.59    4.20
  -3   2   1   49.80    6.80
   2  -2  -1 1128.59   53.59
   2  -2  -1 1119.29   54.29
  -2   2   1 1158.98   54.59
  -2   2   1 1054.79   51.59
  -2   2   1 1092.29   53.49
   1  -2  -1 1834.22   89.99
   1  -2  -1 1897.81   90.89
   1  -2  -1 1947.41   90.39
   1  -2  -1 1947.81   91.79
  -1   2   1 1983.50   90.49
  -1   2   1 2079.69   92.09
  -1   2   1 1910.11   90.89
   0  -2  -1  268.07   13.50
   0  -2  -1  271.17   14.70
   0  -2  -1  275.87   13.70
   0   2   1  269.47   13.70
   0   2   1  266.87   13.40
  -1  -2  -1  427.46   22.00
  -1  -2  -1  428.36   21.10
  -1  -2  -1  430.26   20.70
   1   2   1  423.36   20.90
   1   2   1  431.56   20.70
   1   2   1  424.96   21.00
   1   2   1  422.66   22.00
  -2  -2  -1   54.19    7.30
  -2  -2  -1   57.99    5.60
   2   2   1   57.19    7.60
   2   2   1   50.69    5.90
  -3  -2  -1  723.53   36.10
  -3  -2  -1  686.93   36.60
  -3  -2  -1  708.53   35.50
   3   2   1  752.02   37.30
   3   2   1  695.93   35.40
  -4  -2  -1 1333.87   69.59
  -4  -2  -1 1435.06   69.49
   4   2   1 1474.55   68.99
   4   2   1 1436.16   70.39
  -5  -2  -1  208.58   16.10
  -5  -2  -1  199.08   12.40
  -5  -2  -1  200.08   14.90
   5   2   1  219.48   17.30
   5   2   1  215.28   15.80
  -6  -2  -1  781.62   37.30
  -6  -2  -1  688.23   40.00
  -6  -2  -1  745.13   40.40
   6   2   1  770.42   41.20
   6   2   1  730.43   39.70
  -7  -2  -1   -4.40    4.00
  -7  -2  -1   -3.30    7.60
   7   2   1    2.40    6.20
   7   2   1    0.30    8.00
  -8  -2  -1   37.40   14.10
  -8  -2  -1   49.10    9.80
  -8  -2  -1   48.20    6.50
   8   2   1   47.00   10.30
   8   2   1   35.20    9.30
  -9  -2  -1   32.70    9.20
  -9  -2  -1   26.10    5.70
  -9  -2  -1   30.70   10.00
   9   2   1   16.00    9.90
   9   2   1   22.00    9.30
 -10  -2  -1  138.79   12.10
 -10  -2  -1  108.49   14.00
 -10  -2  -1  151.18   16.70
  10   2   1  136.19   16.70
  10   2   1  140.29   17.50
 -11  -2  -1   50.79   11.90
 -11  -2  -1   65.89   11.30
  11   2   1   52.29   11.60
  11   2   1   56.79   11.30
  10  -3  -1   23.50   10.30
  10  -3  -1    5.90    7.90
 -10   3   1   11.10    3.60
 -10   3   1   10.80    3.80
 -10   3   1   14.40   10.70
   9  -3  -1   16.40   10.20
   9  -3  -1   19.70    7.70
   9  -3  -1   20.40   10.30
  -9   3   1   26.80   10.10
  -9   3   1   19.30    3.80
  -9   3   1   23.00    4.00
   8  -3  -1    2.70    8.20
   8  -3  -1   -3.00    6.50
  -8   3   1   -4.20    8.60
  -8   3   1    4.90    3.00
   7  -3  -1   88.69   12.20
   7  -3  -1  116.29   13.40
   7  -3  -1  121.59   14.50
  -7   3   1  119.29    7.60
  -7   3   1  116.29   15.30
   6  -3  -1  164.08   13.50
   6  -3  -1  162.38   15.50
  -6   3   1  168.68   16.50
  -6   3   1  209.88   14.70
  -6   3   1  183.78    9.90
   5  -3  -1  242.38   15.80
   5  -3  -1  227.38   17.60
   5  -3  -1  230.98   16.40
  -5   3   1  240.68   16.90
  -5   3   1  262.37   12.20
  -5   3   1  256.17   18.60
   4  -3  -1  599.14   30.80
   4  -3  -1  558.14   31.80
   4  -3  -1  597.84   32.40
  -4   3   1  611.04   32.10
   3  -3  -1  152.48   13.00
   3  -3  -1  155.58   12.10
  -3   3   1  165.28   12.20
   2  -3  -1  406.76   22.10
   2  -3  -1  379.66   18.20
   2  -3  -1  386.56   20.60
  -2   3   1  394.46   20.50
  -2   3   1  357.26   19.90
   1  -3  -1  194.58   11.30
   1  -3  -1  191.38   10.90
   1  -3  -1  214.08   13.20
  -1   3   1  194.18   11.30
  -1   3   1  186.78   11.20
   0  -3  -1  342.87   18.60
   0  -3  -1  349.87   17.50
   0  -3  -1  359.56   17.90
   0  -3  -1  340.97   17.50
   0   3   1  357.06   18.00
   0   3   1  348.27   17.50
  -1  -3  -1 1742.13   79.39
  -1  -3  -1 1708.13   79.69
  -1  -3  -1 1679.73   80.89
  -1  -3  -1 1649.83   80.09
   1   3   1 1681.73   80.19
   1   3   1 1687.03   79.79
   1   3   1 1756.72   79.49
  -2  -3  -1  472.75   23.60
  -2  -3  -1  440.06   24.10
  -2  -3  -1  459.05   22.60
   2   3   1  446.06   23.30
   2   3   1  447.36   24.70
  -3  -3  -1  530.95   26.70
  -3  -3  -1  497.15   27.50
  -3  -3  -1  486.55   25.00
  -3  -3  -1  480.95   26.20
   3   3   1  530.25   27.50
   3   3   1  501.85   26.30
  -4  -3  -1  182.98   13.50
  -4  -3  -1  176.68   12.80
  -4  -3  -1  170.88   14.40
   4   3   1  182.48   15.40
   4   3   1  184.08   13.00
  -5  -3  -1   78.79    9.60
  -5  -3  -1   67.09    8.90
   5   3   1   88.09   10.80
   5   3   1   87.19   11.00
  -6  -3  -1   61.29    8.40
  -6  -3  -1   50.19    9.00
   6   3   1   63.09   10.80
   6   3   1   79.19    9.20
  -7  -3  -1  356.66   21.10
  -7  -3  -1  384.96   24.00
  -7  -3  -1  465.75   24.60
   7   3   1  377.86   25.00
   7   3   1  366.36   26.60
  -8  -3  -1  545.95   27.40
  -8  -3  -1  451.85   30.50
   8   3   1  536.85   33.20
   8   3   1  519.05   31.40
  -9  -3  -1   95.69   12.30
  -9  -3  -1   88.59    9.50
  -9  -3  -1   84.09   12.30
   9   3   1   92.29   12.30
   9   3   1   98.19   13.20
 -10  -3  -1   -8.50    4.60
 -10  -3  -1   -0.40    7.90
 -10  -3  -1   -4.00    6.80
  10   3   1   -2.10    9.50
  10   3   1   18.20    8.70
 -11  -3  -1    6.90    9.10
 -11  -3  -1    6.80   10.20
  11   3   1    3.50   10.20
  11   3   1    2.50   10.50
  10  -4  -1   -3.60    9.10
  10  -4  -1   16.90    7.90
  10  -4  -1    1.20   11.00
 -10   4   1    7.00    9.70
   9  -4  -1  198.48   18.80
   9  -4  -1  153.78   19.00
   9  -4  -1  155.48   17.60
  -9   4   1  182.48   19.30
   8  -4  -1  136.69   15.60
   8  -4  -1   92.89   12.10
   8  -4  -1  106.19   14.40
   7  -4  -1   38.90   10.90
   7  -4  -1   46.70    9.70
   7  -4  -1   39.10    7.90
   6  -4  -1   -2.60    6.70
   6  -4  -1   -1.60    5.70
  -6   4   1    3.00    6.50
   5  -4  -1    5.00    6.30
   5  -4  -1    2.20    4.80
   5  -4  -1    5.40    6.60
  -5   4   1    7.90    6.50
   4  -4  -1  460.15   27.40
   4  -4  -1  466.15   25.60
   4  -4  -1  487.55   26.60
  -4   4   1  460.75   26.20
   3  -4  -1  875.71   45.10
   3  -4  -1  902.31   46.50
  -3   4   1  899.21   44.30
  -3   4   1  939.91   45.10
   2  -4  -1  233.58   13.90
   2  -4  -1  219.88   16.00
   2  -4  -1  228.98   11.90
  -2   4   1  240.38   13.50
  -2   4   1  240.78   13.80
   1  -4  -1  536.95   26.30
   1  -4  -1  513.05   26.20
  -1   4   1  515.15   26.80
  -1   4   1  544.55   26.30
   0  -4  -1  299.87   15.80
   0  -4  -1  291.47   15.60
   0  -4  -1  294.67   17.60
   0  -4  -1  297.97   15.30
   0   4   1  299.67   15.60
   0   4   1  299.77   16.00
  -1  -4  -1  383.86   19.30
  -1  -4  -1  360.16   20.30
  -1  -4  -1  376.96   18.60
   1   4   1  364.86   18.80
   1   4   1  370.26   20.40
   1   4   1  361.96   19.40
  -2  -4  -1  807.82   38.90
  -2  -4  -1  801.92   39.90
  -2  -4  -1  785.92   40.90
   2   4   1  819.12   38.60
   2   4   1  796.82   40.00
   2   4   1  799.82   38.90
  -3  -4  -1  808.22   38.80
  -3  -4  -1  769.82   39.90
  -3  -4  -1  744.73   39.00
  -3  -4  -1  775.42   37.80
   3   4   1  785.32   39.10
  -4  -4  -1  378.46   20.10
  -4  -4  -1  395.86   22.30
  -4  -4  -1  365.36   22.40
  -4  -4  -1  380.36   21.80
   4   4   1  382.96   23.70
   4   4   1  383.76   21.80
  -5  -4  -1  126.49   10.30
  -5  -4  -1  127.09   13.70
  -5  -4  -1  116.79   12.20
  -5  -4  -1  137.49   12.30
   5   4   1  121.29   12.10
   5   4   1  130.19   12.70
  -6  -4  -1    1.50    6.40
   6   4   1   -2.60    6.20
   6   4   1    7.90    6.60
  -7  -4  -1   48.40    8.30
  -7  -4  -1   32.60    8.50
   7   4   1   69.69   11.70
   7   4   1   42.50    8.90
  -8  -4  -1   84.69    9.10
  -8  -4  -1   69.49   10.60
   8   4   1   57.09   12.30
  -9  -4  -1  118.49   11.50
  -9  -4  -1  147.89   16.50
  -9  -4  -1  143.39   16.80
   9   4   1  147.19   19.00
 -10  -4  -1  114.39   13.20
 -10  -4  -1   86.89   12.20
 -10  -4  -1   81.09    9.70
  10   4   1  100.49   14.60
  10   4   1   88.19   12.50
 -11  -4  -1   43.50   11.10
 -11  -4  -1   50.09   11.90
  11   4   1   34.30   12.40
  11   4   1   30.80   11.80
   9  -5  -1    3.80   10.80
   9  -5  -1    3.30    8.70
   9  -5  -1    2.50    8.20
  -9   5   1   10.00    9.70
   8  -5  -1   63.39   10.50
   8  -5  -1   55.79    9.30
   8  -5  -1   79.39   11.40
   7  -5  -1  115.09   15.00
   7  -5  -1  139.99   14.50
  -7   5   1  135.99   15.20
   6  -5  -1   47.80    9.50
   6  -5  -1   49.50    8.30
  -6   5   1   71.29    9.60
   5  -5  -1   31.80    6.70
   5  -5  -1   45.50    8.80
   5  -5  -1   28.70    8.10
  -5   5   1   32.70    7.30
  -5   5   1   30.80    7.20
   4  -5  -1   -3.70    6.50
   4  -5  -1    6.10    6.20
  -4   5   1    1.90    5.30
   3  -5  -1   63.19    7.60
   3  -5  -1   61.89    8.10
  -3   5   1   76.29    8.90
  -3   5   1   55.49    7.60
   2  -5  -1  541.45   30.90
   2  -5  -1  582.84   29.20
  -2   5   1  602.04   29.00
  -2   5   1  561.54   29.50
   1  -5  -1  378.96   19.30
   1  -5  -1  360.36   21.70
  -1   5   1  367.26   20.30
   0  -5  -1  389.46   21.00
   0  -5  -1  388.76   22.90
   0  -5  -1  415.36   20.10
   0   5   1  402.16   20.60
   0   5   1  409.06   21.60
  -1  -5  -1  103.19    8.00
  -1  -5  -1  107.89   10.60
   1   5   1   96.29    9.10
   1   5   1  106.79   10.50
   1   5   1  101.69    7.80
  -2  -5  -1   -4.00    4.70
  -2  -5  -1    0.30    5.20
  -2  -5  -1    0.70    4.60
   2   5   1    3.30    4.20
   2   5   1    4.00    3.80
   2   5   1   -5.00    4.70
  -3  -5  -1   -8.80    4.70
  -3  -5  -1    9.20    4.70
  -3  -5  -1    0.10    3.80
  -3  -5  -1   -0.80    5.90
   3   5   1   -1.20    3.80
   3   5   1    5.80    5.30
  -4  -5  -1  436.76   24.80
  -4  -5  -1  449.56   24.50
  -4  -5  -1  426.36   26.30
  -4  -5  -1  445.06   23.20
   4   5   1  436.26   24.80
  -5  -5  -1  467.05   27.70
  -5  -5  -1  522.55   28.50
   5   5   1  510.65   27.90
  -6  -5  -1  178.58   15.80
  -6  -5  -1  195.78   17.30
   6   5   1  192.78   16.30
   6   5   1  232.68   17.40
  -7  -5  -1  165.38   16.80
  -7  -5  -1  166.28   16.30
   7   5   1  196.28   16.60
   7   5   1  188.58   18.90
  -8  -5  -1    7.80    9.10
  -8  -5  -1    5.60    7.70
   8   5   1   -4.60    9.80
   8   5   1    5.40    8.30
  -9  -5  -1   21.80    5.60
  -9  -5  -1   15.90    9.00
  -9  -5  -1   13.10    8.80
   9   5   1   20.70   11.40
 -10  -5  -1   34.60    6.30
 -10  -5  -1   23.70   10.00
 -10  -5  -1   25.50    9.90
  10   5   1   15.20   12.20
  10   5   1   16.20   10.50
 -11  -5  -1    4.60   10.20
 -11  -5  -1    7.40    9.90
  11   5   1    1.70   11.20
  11   5   1   16.00   11.70
   9  -6  -1   19.20   10.40
   9  -6  -1   12.70   12.00
   9  -6  -1   14.90    9.10
  -9   6   1   14.40    6.90
  -9   6   1   -2.40    9.90
   8  -6  -1   27.60   10.60
   8  -6  -1   17.60    9.80
   8  -6  -1   13.80    8.20
  -8   6   1   29.10    8.80
  -8   6   1   11.30    7.10
   7  -6  -1   23.40    7.80
   7  -6  -1   36.60    9.10
   7  -6  -1   38.40   10.10
  -7   6   1   13.90    8.00
  -7   6   1   18.60    7.10
   6  -6  -1   -2.80    7.70
   6  -6  -1    0.60    6.50
  -6   6   1    9.40    6.60
  -6   6   1   -5.20    6.40
   5  -6  -1  329.37   21.10
   5  -6  -1  346.97   23.30
  -5   6   1  347.07   20.80
  -5   6   1  334.37   19.60
   4  -6  -1  268.07   18.50
  -4   6   1  281.37   17.90
  -4   6   1  304.37   17.90
   3  -6  -1   85.09    4.50
   3  -6  -1   86.39   10.30
   3  -6  -1   93.39   10.70
  -3   6   1  104.39   10.60
  -3   6   1   81.39    8.80
   2  -6  -1   -0.60    4.10
   2  -6  -1    7.10    6.90
  -2   6   1   -4.90    6.80
   1  -6  -1   11.30    6.60
   1  -6  -1    9.90    3.40
  -1   6   1    8.50    4.60
   0  -6  -1   75.39    9.00
   0  -6  -1   78.09    5.80
   0   6   1   81.19    7.50
   0   6   1   63.19    7.10
  -1  -6  -1  283.67   14.20
  -1  -6  -1  261.07   17.90
   1   6   1  274.27   16.70
   1   6   1  278.87   15.40
  -2  -6  -1  367.86   22.20
  -2  -6  -1  358.76   23.10
   2   6   1  385.26   20.00
   2   6   1  377.76   20.80
   2   6   1  384.46   22.50
  -3  -6  -1  189.48   12.20
  -3  -6  -1  167.98   14.10
   3   6   1  178.28   11.80
   3   6   1  188.48   14.70
   3   6   1  181.18   12.60
  -4  -6  -1   51.49    6.80
   4   6   1   44.70    7.40
   4   6   1   53.69    6.20
  -5  -6  -1    4.00    5.90
  -5  -6  -1  -14.80    6.40
   5   6   1    0.50    4.80
   5   6   1    7.10    6.10
  -6  -6  -1   68.39   10.60
  -6  -6  -1   64.69    9.20
  -6  -6  -1   66.79    9.20
   6   6   1   71.49    9.10
  -7  -6  -1  105.09   14.00
  -7  -6  -1  132.99   15.90
  -7  -6  -1  130.49   13.80
   7   6   1  110.69   13.60
  -8  -6  -1  242.88   20.10
  -8  -6  -1  250.17   20.20
  -9  -6  -1  126.99   17.10
  -9  -6  -1  118.39   15.80
   9   6   1  150.78   16.80
 -10  -6  -1   29.50   10.20
 -10  -6  -1   12.40   10.30
  10   6   1   25.10   10.90
   8  -7  -1   19.90    8.90
   8  -7  -1   14.70   11.20
  -8   7   1   31.60    9.00
  -8   7   1   25.60    7.70
   7  -7  -1   17.30   11.40
   7  -7  -1   18.90    9.40
   7  -7  -1   12.60    8.30
  -7   7   1    8.40    5.90
  -7   7   1   20.10    8.40
   6  -7  -1   52.09   10.10
   6  -7  -1   48.20   10.30
   6  -7  -1   38.50   10.30
  -6   7   1   53.29    8.50
  -6   7   1   39.60    8.30
   5  -7  -1   18.70    7.60
  -5   7   1    1.80    5.60
  -5   7   1   15.00    6.70
   4  -7  -1   80.29    9.30
  -4   7   1   73.39    9.00
  -4   7   1   83.39    9.60
   3  -7  -1   40.90    6.60
   3  -7  -1   25.20    7.90
   3  -7  -1   28.70    3.40
   3  -7  -1   28.50    3.30
  -3   7   1   28.00    7.30
   2  -7  -1  484.45   27.70
   2  -7  -1  445.96   24.30
  -2   7   1  468.85   25.60
   1  -7  -1   85.99    7.20
  -1   7   1   74.79    8.80
   0  -7  -1    8.40    2.50
   0   7   1    6.90    5.70
  -1  -7  -1   -0.20    1.80
   1   7   1    3.90    5.80
   1   7   1   -0.80    4.30
  -2  -7  -1  291.07   19.40
  -2  -7  -1  291.37   15.50
   2   7   1  304.77   16.50
   2   7   1  302.97   19.80
   2   7   1  278.17   16.90
  -3  -7  -1  957.20   52.59
  -3  -7  -1 1044.20   50.89
  -3  -7  -1 1069.09   53.89
   3   7   1 1052.59   51.79
   3   7   1 1062.79   50.79
   3   7   1 1143.79   53.79
  -4  -7  -1   47.70    6.40
  -4  -7  -1   36.80    8.80
   4   7   1   42.70    8.20
   4   7   1   52.59    6.50
  -5  -7  -1   34.10    6.90
  -5  -7  -1   51.49    8.10
   5   7   1   38.40    6.30
   5   7   1   48.10    8.40
  -6  -7  -1   65.69    8.70
  -6  -7  -1   79.89    9.90
  -6  -7  -1   86.89   11.50
   6   7   1   63.19    9.70
   6   7   1   74.39    8.00
  -7  -7  -1   76.79   10.60
  -7  -7  -1   86.89   10.60
  -7  -7  -1   79.39   10.50
   7   7   1   82.59   15.60
  -8  -7  -1   54.19   11.40
  -8  -7  -1   56.09    9.70
  -8  -7  -1   54.79    9.50
   8   7   1   40.50    9.00
  -9  -7  -1   75.19   10.90
  -9  -7  -1   61.09   12.10
   9   7   1   59.29   11.20
 -10  -7  -1   28.50   10.60
 -10  -7  -1   12.50   10.30
  10   7   1   25.70   11.70
   7  -8  -1   44.00   12.30
   7  -8  -1   75.09   10.40
  -7   8   1   53.49    7.90
  -7   8   1   45.90   11.10
   6  -8  -1   35.20   11.00
   6  -8  -1   54.39   10.10
   6  -8  -1   59.09    9.90
  -6   8   1   39.20    8.60
  -6   8   1   45.50    8.00
   5  -8  -1   27.30    9.90
   5  -8  -1   31.80    9.50
  -5   8   1   13.50    6.20
  -5   8   1   26.10    6.30
   4  -8  -1   -6.80    8.40
   4  -8  -1    7.60    6.20
  -4   8   1    5.60    5.40
   3  -8  -1   28.20    3.00
   3  -8  -1   26.50    9.00
   3  -8  -1   32.00    3.80
   3  -8  -1   14.20    5.40
  -3   8   1   34.20    7.70
   2  -8  -1   14.30    7.50
   2  -8  -1   18.90    4.30
   2  -8  -1   16.60    4.00
   2  -8  -1    0.90    7.80
  -2   8   1    9.00    6.50
   1  -8  -1  104.39    7.30
   1  -8  -1  118.89   13.90
  -1   8   1  119.39   11.50
   0  -8  -1   46.30    9.10
   0   8   1   33.40    7.00
  -1  -8  -1   37.20    7.90
   1   8   1   46.30    7.70
   1   8   1   32.20    5.80
  -2  -8  -1   13.60    7.50
  -2  -8  -1   16.70    2.40
  -2  -8  -1   16.60    8.60
  -2  -8  -1   13.20    1.80
   2   8   1   20.10    5.70
   2   8   1    7.90    6.20
  -3  -8  -1   34.30    8.20
  -3  -8  -1   52.79   11.10
  -3  -8  -1   31.20    4.30
   3   8   1   37.50    7.30
   3   8   1   31.10    6.20
  -4  -8  -1   24.00    8.80
  -4  -8  -1    8.90    4.70
  -4  -8  -1   14.00    7.10
   4   8   1   20.10    5.60
   4   8   1   20.50    7.60
  -5  -8  -1   23.80    7.70
  -5  -8  -1   22.80    6.20
   5   8   1   24.20    7.60
   5   8   1   21.10    5.90
  -6  -8  -1  259.17   17.80
  -6  -8  -1  263.07   19.70
  -6  -8  -1  246.28   21.10
   6   8   1  270.07   15.80
  -7  -8  -1   73.99   10.70
  -7  -8  -1   89.99   11.00
  -7  -8  -1   75.49    9.80
   7   8   1   62.69    8.00
   7   8   1   80.59   10.20
  -8  -8  -1   11.60    8.20
  -8  -8  -1   14.40    8.80
  -8  -8  -1    4.50   10.10
   8   8   1   10.00    6.20
   8   8   1    9.20    9.00
  -9  -8  -1   16.60   11.20
  -9  -8  -1   29.30    9.50
   9   8   1   29.50    7.30
   9   8   1    6.10    9.90
   5  -9  -1   -8.70    9.80
   5  -9  -1  -12.50    9.20
  -5   9   1    7.20    7.00
   4  -9  -1   35.00    9.40
   4  -9  -1   57.39   11.10
  -4   9   1   53.29    8.70
   3  -9  -1   65.29    5.10
   3  -9  -1   54.19   11.00
   3  -9  -1   72.29    5.20
   3  -9  -1   90.39   10.90
  -3   9   1   72.79    9.30
   2  -9  -1   19.70    4.60
   2  -9  -1   21.70    8.90
   2  -9  -1   32.50    9.50
  -2   9   1   25.00    7.50
   1  -9  -1   43.50   10.10
   1  -9  -1   46.90    9.60
  -1   9   1   45.80    7.00
   0  -9  -1   46.50    9.50
   0   9   1   29.60    6.40
  -1  -9  -1   79.39   10.50
  -1  -9  -1   71.29   11.30
   1   9   1   67.29    8.80
  -2  -9  -1  538.05   31.30
  -2  -9  -1  542.75   32.10
   2   9   1  513.35   28.70
   2   9   1  534.45   27.70
  -3  -9  -1   55.19    9.20
  -3  -9  -1   76.99   10.90
   3   9   1   80.19    7.80
   3   9   1   59.49    8.60
  -4  -9  -1   17.00    9.20
  -4  -9  -1    4.50    3.40
  -4  -9  -1    1.70    7.60
  -5  -9  -1   12.90    9.30
  -5  -9  -1   12.60    8.20
  -5  -9  -1   -0.50    4.50
   5   9   1   10.90    5.80
   5   9   1   10.60    6.90
  -6  -9  -1    8.30    5.80
  -6  -9  -1    1.50    7.10
  -6  -9  -1   10.50    8.30
   6   9   1   14.50    8.30
   6   9   1    6.00    5.40
  -7  -9  -1  195.08   20.40
  -7  -9  -1  221.18   16.90
  -7  -9  -1  190.88   19.10
   7   9   1  209.78   14.40
   7   9   1  228.18   19.50
   3 -10  -1   27.10   10.10
   3 -10  -1   43.90   11.10
  -3  10   1   24.00    8.10
   2 -10  -1   -4.30    8.90
   2 -10  -1    2.70    7.40
   2 -10  -1    0.70    4.90
   2 -10  -1    0.00    4.30
  -2  10   1    0.90    7.00
   1 -10  -1   21.70    9.50
   1 -10  -1   27.60    6.00
   1 -10  -1   33.00   10.40
  -1  10   1   26.90    7.70
   0 -10  -1  -10.10    8.90
   0  10   1   16.10    6.70
  -1 -10  -1    0.40    9.20
  -1 -10  -1   -2.70    8.70
   1  10   1    8.30    6.40
  -2 -10  -1   -3.30    9.00
  -2 -10  -1   -3.10    9.00
   2  10   1    7.50    5.40
   2  10   1    2.00    6.40
  -3 -10  -1    4.70    9.10
  -3 -10  -1    0.60    8.90
   3  10   1    1.80    5.40
   3  10   1    8.40    6.40
  -4 -10  -1   53.29   10.00
  -4 -10  -1   44.20   11.00
   4  10   1   46.30    7.00
   4  10   1   50.39    9.70
  -5 -10  -1   56.69    5.40
  -5 -10  -1   42.60   11.40
  -5 -10  -1   45.70    9.90
   5  10   1   35.30    6.40
   5  10   1   41.90    9.90
  -6 -10  -1   -1.60    9.40
  -6 -10  -1  -10.40    9.40
  -6 -10  -1   -5.50    4.60
   6  10   1   -9.50    8.80
  -1 -11  -1   60.99   12.70
  -1 -11  -1   69.79   12.90
   1  11   1   56.99    8.70
  -2 -11  -1   18.20   10.30
  -2 -11  -1  -10.00    9.70
   2  11   1   11.30    6.80
   4   9  -2   34.70   10.90
   4   9  -2   43.30    7.00
   4   9  -2   25.20    5.00
  -4  -9   2   23.10   10.30
  -4  -9   2   21.80   10.20
  -4  -9   2   44.90    9.90
   3   9  -2   -3.20    9.60
   3   9  -2   -4.80    5.30
  -3  -9   2    7.70    8.70
  -3  -9   2    5.20    8.90
  -3  -9   2    4.10    9.50
   2   9  -2   10.10    6.30
  -2  -9   2    2.90    8.20
  -2  -9   2   13.50    9.60
   1   9  -2   83.29    9.20
  -1  -9   2   75.09   10.50
  -1  -9   2   98.29   12.70
   0   9  -2   49.60    8.30
   0  -9   2   71.09   11.10
   0  -9   2   49.80    8.60
  -1   9  -2   14.60    7.00
   1  -9   2    0.60    9.00
   1  -9   2   23.00    7.00
  -2   9  -2   62.49    7.80
   2  -9   2   55.19    7.90
   2  -9   2   63.69   11.60
  -3   9  -2    3.90    7.00
   3  -9   2   -9.20    4.50
   3  -9   2  -15.00    9.10
   6   8  -2  -15.30    8.80
   6   8  -2    3.20    4.80
  -6  -8   2   -2.20    8.00
  -6  -8   2    2.40    9.20
  -6  -8   2    3.50    4.00
   5   8  -2   58.79   10.60
   5   8  -2   57.79    6.00
  -5  -8   2   48.10    9.80
  -5  -8   2   63.79   10.80
   4   8  -2   50.99    9.80
   4   8  -2   49.30    7.20
   4   8  -2   50.69    5.40
  -4  -8   2   30.40    9.10
  -4  -8   2   27.20   10.00
   3   8  -2  162.18   12.00
   3   8  -2  153.18   17.40
   3   8  -2  166.08   10.00
  -3  -8   2  138.69   14.70
  -3  -8   2  145.39   17.00
  -3  -8   2  170.38   17.10
   2   8  -2   17.70    6.30
   2   8  -2   28.30    9.10
  -2  -8   2   17.40    8.90
  -2  -8   2   21.40    8.30
   1   8  -2   28.80    6.90
  -1  -8   2   35.60    8.30
  -1  -8   2   46.70    9.40
   0   8  -2    4.10    5.90
   0  -8   2    9.70    6.80
   0  -8   2   12.50    8.00
  -1   8  -2   19.20    6.90
   1  -8   2    7.60    6.00
   1  -8   2    7.40    8.40
  -2   8  -2   29.80    6.20
   2  -8   2   36.30    6.20
   2  -8   2   41.80    9.60
  -3   8  -2   57.29    8.90
   3  -8   2   54.69   10.50
   3  -8   2   54.69    6.10
  -4   8  -2   -4.50    6.90
   4  -8   2   -2.40    8.60
   4  -8   2    1.60    8.70
   4  -8   2    5.80    2.90
  -5   8  -2   12.50    7.80
   5  -8   2    2.50    7.20
   5  -8   2   -2.00   10.10
   8   7  -2   99.79    9.80
   8   7  -2  103.79   14.60
  -8  -7   2   95.39   11.00
  -8  -7   2   89.09   12.70
  -8  -7   2  116.29   14.30
   7   7  -2   28.80   10.70
   7   7  -2   51.99    6.40
  -7  -7   2   34.40   10.00
  -7  -7   2   33.40   10.40
  -7  -7   2   41.10    7.50
   6   7  -2   92.19    8.00
   6   7  -2   65.79   11.20
  -6  -7   2   70.39   11.10
  -6  -7   2   79.09    9.60
  -6  -7   2   77.59   11.10
   5   7  -2    7.30    7.60
   5   7  -2    8.10    4.20
  -5  -7   2    9.60    8.10
  -5  -7   2   14.60    7.00
  -5  -7   2    4.00    3.70
   4   7  -2   40.40    6.80
   4   7  -2   45.40    8.80
   4   7  -2   50.89    5.30
  -4  -7   2   50.99    9.90
  -4  -7   2   52.19    9.70
   3   7  -2   46.80    6.70
   3   7  -2   47.60    5.10
  -3  -7   2   59.59    9.60
  -3  -7   2   35.60    9.80
   2   7  -2   88.49    9.40
  -2  -7   2   91.99   11.60
  -2  -7   2   77.69   16.40
   1   7  -2    6.70    5.60
  -1  -7   2    8.60    7.60
  -1  -7   2    5.80    6.70
   0   7  -2  276.57   17.20
   0  -7   2  276.27   18.90
   0  -7   2  293.17   20.90
  -1   7  -2   12.30    6.30
   1  -7   2    9.40    5.40
   1  -7   2   27.80    8.20
  -2   7  -2   22.90    6.80
   2  -7   2   14.80    8.10
   2  -7   2   20.70    5.40
  -3   7  -2   -5.80    6.20
   3  -7   2    2.60    4.00
   3  -7   2   -9.10    7.40
  -4   7  -2    7.60    5.50
  -4   7  -2    9.00    3.40
   4  -7   2    5.60    3.10
   4  -7   2   19.20    8.90
  -5   7  -2  154.78   11.00
  -5   7  -2  136.09   13.50
   5  -7   2  138.09   17.00
   5  -7   2  158.58   17.30
  -6   7  -2   45.50    9.20
  -6   7  -2   54.49    7.60
   6  -7   2   63.49   11.30
   6  -7   2   52.79   11.20
   6  -7   2   54.59   11.40
  -7   7  -2   -8.10    7.00
  -7   7  -2    3.70    7.40
   7  -7   2   14.20   10.10
   7  -7   2   -8.00    9.00
   7  -7   2   -3.00    9.90
   9   6  -2    7.60   11.60
  -9  -6   2    9.80    9.00
  -9  -6   2   13.70    9.30
   8   6  -2   26.40   10.60
  -8  -6   2   27.50   10.10
  -8  -6   2   14.20    8.30
  -8  -6   2   13.20    9.30
   7   6  -2   52.89   10.90
  -7  -6   2   71.59   10.90
  -7  -6   2   69.49   11.20
  -7  -6   2   66.79    9.10
   6   6  -2   82.99    7.90
   6   6  -2   73.09    9.80
  -6  -6   2   67.99   10.50
  -6  -6   2   72.59    8.00
  -6  -6   2   63.19   10.60
   5   6  -2  191.78   11.30
  -5  -6   2  177.78   12.70
  -5  -6   2  182.28   17.00
  -5  -6   2  194.28   17.40
   4   6  -2  173.58   12.10
   4   6  -2  193.18   16.90
   4   6  -2  175.68   10.50
  -4  -6   2  171.68   10.70
  -4  -6   2  156.48   21.80
   3   6  -2  227.18   17.90
   3   6  -2  243.28   12.80
   3   6  -2  223.48   14.20
  -3  -6   2  216.88   16.80
  -3  -6   2  243.98   18.30
   2   6  -2    7.00    3.40
  -2  -6   2    5.70    7.50
   1   6  -2  335.07   26.20
   1   6  -2  365.96   20.30
  -1  -6   2  356.76   22.20
  -1  -6   2  375.26   23.70
   0   6  -2   43.40    7.00
   0  -6   2   63.59    8.50
   0  -6   2   47.60    7.80
  -1   6  -2  381.96   22.30
   1  -6   2  411.76   25.60
   1  -6   2  409.36   22.70
  -2   6  -2   61.39    8.10
   2  -6   2   64.29    9.90
   2  -6   2   51.29    6.50
  -3   6  -2    4.30    2.70
  -3   6  -2   -4.00    6.00
   3  -6   2    0.10    3.70
   3  -6   2    0.70    8.70
  -4   6  -2    7.10    6.90
  -4   6  -2    2.80    3.80
   4  -6   2    3.80    3.00
   4  -6   2    7.50    7.80
  -5   6  -2   11.00    5.30
   5  -6   2   17.20    8.90
  -6   6  -2   15.20    6.70
   6  -6   2   34.70    9.00
   6  -6   2   24.70    9.40
   6  -6   2   32.80    9.10
  -7   6  -2    2.30    7.10
   7  -6   2   -0.90    8.00
   7  -6   2    2.80    9.00
   8  -6   2   26.40   10.50
   8  -6   2   22.70   10.60
   9   5  -2  115.39   15.20
  -9  -5   2  144.39   17.40
  -9  -5   2  162.28   18.50
   8   5  -2   68.59   10.20
  -8  -5   2   47.60   10.80
  -8  -5   2   52.89    9.70
   7   5  -2   13.10    7.20
  -7  -5   2   23.00    9.00
  -7  -5   2   12.20    7.60
  -7  -5   2   22.50    6.40
  -7  -5   2   17.50    8.40
  -6  -5   2    5.60    7.30
  -6  -5   2    7.90    5.80
  -6  -5   2    8.50    6.30
   5   5  -2  119.69   14.50
  -5  -5   2  123.39   10.50
  -5  -5   2  135.39   11.70
  -5  -5   2  122.79   14.80
  -5  -5   2  134.39   14.20
   4   5  -2  362.06   18.40
   4   5  -2  348.37   22.10
  -4  -5   2  336.67   21.70
  -4  -5   2  369.86   23.40
  -4  -5   2  368.66   19.50
   3   5  -2  154.58    9.10
   3   5  -2  145.29   13.30
   3   5  -2  146.49   10.30
  -3  -5   2  154.28    9.30
  -3  -5   2  160.58   13.10
   2   5  -2    5.50    4.50
   2   5  -2    5.20    3.00
   2   5  -2    1.10    6.80
   1   5  -2  191.88   12.40
   1   5  -2  207.38   16.40
  -1  -5   2  176.38   14.70
   0   5  -2   20.90    5.40
   0   5  -2   11.70    7.00
   0  -5   2   13.80    5.60
   0  -5   2   14.90    3.80
  -1   5  -2   69.09    8.90
   1  -5   2   80.89    8.60
   1  -5   2   68.39    6.20
  -2   5  -2  187.38   10.00
  -2   5  -2  168.28   13.30
   2  -5   2  192.18   12.70
   2  -5   2  216.38   16.30
  -3   5  -2   31.10    4.50
   3  -5   2   33.30    4.60
   3  -5   2   39.10    8.40
  -4   5  -2  534.05   28.00
   4  -5   2  521.65   30.00
   4  -5   2  539.65   26.10
  -5   5  -2  114.19   11.80
   5  -5   2  112.79   14.20
  -6   5  -2   86.09   10.00
   6  -5   2  115.89   14.90
   6  -5   2   73.39   11.20
  -7   5  -2   -3.90    6.70
   7  -5   2   -1.90    7.80
  -8   5  -2   -3.50    8.10
   8  -5   2   27.40   10.00
   8  -5   2   25.50    9.10
  -9   5  -2  107.89   13.10
   9  -5   2  136.29   14.40
   9  -5   2   93.09   14.10
  10   4  -2    0.00   11.80
 -10  -4   2    6.20    9.40
 -10  -4   2   16.30    8.50
 -10  -4   2    1.00   10.00
   9   4  -2   38.00   11.00
  -9  -4   2   34.10   10.30
  -9  -4   2   58.39   10.50
  -8  -4   2  128.49   10.70
  -8  -4   2  136.99   15.60
  -8  -4   2  124.59   16.10
   7   4  -2   91.69   11.20
  -7  -4   2  107.99    9.10
  -7  -4   2   94.59   11.60
  -7  -4   2  101.99   11.80
  -7  -4   2   89.49   11.10
   6   4  -2  279.97   22.50
   6   4  -2  307.07   19.60
  -6  -4   2  275.97   20.50
  -6  -4   2  304.67   19.70
  -6  -4   2  292.37   20.90
  -6  -4   2  300.27   16.10
   5   4  -2  106.69   12.10
   5   4  -2  123.89   13.90
  -5  -4   2  109.19   13.70
  -5  -4   2  106.09   10.80
  -5  -4   2  106.49    8.50
   4   4  -2   -3.80    6.20
   4   4  -2    3.10    4.90
  -4  -4   2    8.80    5.80
  -4  -4   2   -2.80    4.10
  -4  -4   2   -1.70    4.20
   3   4  -2   71.09    9.40
   3   4  -2   91.39    7.30
   3   4  -2   80.09    8.40
   3   4  -2   79.69    6.10
  -3  -4   2   84.39    7.40
  -3  -4   2   72.29    9.50
   2   4  -2  754.92   34.90
   2   4  -2  776.82   39.10
   2   4  -2  721.33   35.90
  -2  -4   2  687.13   35.00
  -2  -4   2  746.73   38.80
   1   4  -2  646.94   31.70
   1   4  -2  624.84   34.30
   1   4  -2  648.74   30.40
  -1  -4   2  633.44   33.80
  -1  -4   2  634.54   34.30
   0   4  -2  402.86   21.50
   0   4  -2  410.86   24.10
   0  -4   2  402.26   22.80
   0  -4   2  422.16   24.30
   0  -4   2  400.46   19.90
  -1   4  -2  151.68    8.70
  -1   4  -2  166.48   11.50
   1  -4   2  180.68   12.20
   1  -4   2  160.48    9.40
   1  -4   2  179.18   13.10
  -2   4  -2    1.80    3.00
   2  -4   2    3.90    3.70
   2  -4   2    0.30    6.20
   2  -4   2    0.40    3.80
  -3   4  -2  342.57   20.00
   3  -4   2  382.16   19.20
  -4   4  -2    2.90    5.10
   4  -4   2    0.00    2.80
  -5   4  -2   21.70    6.60
   5  -4   2   22.90    7.50
   5  -4   2   31.20    8.50
  -6   4  -2  228.18   17.40
   6  -4   2  241.58   18.20
  -7   4  -2   17.50    7.70
   7  -4   2   33.40    9.40
   7  -4   2   29.40    7.80
  -8   4  -2    8.90    7.90
   8  -4   2    3.90    8.70
  -9   4  -2    4.30    8.20
   9  -4   2    4.40    7.90
   9  -4   2   -2.20    9.40
  10   3  -2   48.40   12.60
 -10  -3   2   45.70    9.70
 -10  -3   2   66.39   11.70
 -10  -3   2   32.70   10.90
   9   3  -2   30.60   10.10
   9   3  -2   28.70   11.00
  -9  -3   2   45.40    9.70
  -9  -3   2   49.70    8.90
  -9  -3   2   45.80   10.60
  -9  -3   2   46.20    7.30
   8   3  -2   18.00   13.90
  -8  -3   2   -3.60    7.10
  -8  -3   2    3.00    4.70
  -8  -3   2   -1.10    8.40
   7   3  -2  103.09   11.40
   7   3  -2   74.59   11.20
  -7  -3   2   80.09   10.50
  -7  -3   2   82.69   11.20
  -7  -3   2   85.39    7.60
   6   3  -2  257.87   16.40
   6   3  -2  212.48   18.10
  -6  -3   2  205.98   11.90
  -6  -3   2  188.08   17.30
  -6  -3   2  174.18   16.40
   5   3  -2  512.65   30.10
   5   3  -2  508.15   29.10
  -5  -3   2  538.85   25.60
  -5  -3   2  527.05   29.30
  -5  -3   2  514.65   29.20
   4   3  -2  185.38   14.10
   4   3  -2  158.28   13.40
  -4  -3   2  174.48   14.90
  -4  -3   2  186.78   12.90
  -4  -3   2  164.78   14.30
  -4  -3   2  186.78   10.30
   3   3  -2   17.60    4.90
   3   3  -2   20.90    3.40
   3   3  -2   29.20    6.70
  -3  -3   2   31.70    6.80
  -3  -3   2   10.50    6.00
  -3  -3   2   20.50    4.50
  -3  -3   2   32.10    4.00
   2   3  -2  276.57   14.60
   2   3  -2  268.47   15.40
   2   3  -2  284.17   13.80
   2   3  -2  281.57   18.10
  -2  -3   2  272.67   14.70
  -2  -3   2  255.97   17.80
   1   3  -2   60.79    5.00
   1   3  -2   61.29    7.60
   1   3  -2   49.10    5.20
   1   3  -2   63.19    4.20
  -1  -3   2   43.80    7.20
  -1  -3   2   69.19    9.30
   0   3  -2 1124.19   54.89
   0   3  -2 1110.39   51.39
   0   3  -2 1075.79   52.89
   0  -3   2 1105.89   54.09
   0  -3   2 1132.39   51.69
   0  -3   2 1094.69   54.89
  -1   3  -2  213.58   11.80
   1  -3   2  217.78   15.70
   1  -3   2  215.28   11.40
   1  -3   2  235.68   13.60
  -2   3  -2   71.59    7.40
   2  -3   2   83.29    7.50
   2  -3   2   61.99    8.30
  -3   3  -2 1092.59   54.39
   3  -3   2 1129.39   52.99
  -4   3  -2   47.20    5.80
  -4   3  -2   37.90    6.70
   4  -3   2   47.50    5.40
  -5   3  -2  213.18   16.10
  -5   3  -2  210.58   11.70
   5  -3   2  202.68   15.60
   5  -3   2  225.48   15.80
  -6   3  -2  123.99   14.20
  -6   3  -2   90.59    7.20
   6  -3   2  120.39   12.30
   6  -3   2  106.79   14.00
  -7   3  -2  103.49    6.70
  -7   3  -2  128.39   14.50
   7  -3   2  116.59   13.10
   7  -3   2  103.89   14.40
  -8   3  -2  144.99   16.10
  -8   3  -2  125.69    7.20
   8  -3   2  127.99   16.10
   8  -3   2  171.18   17.70
  -9   3  -2   21.10    8.50
   9  -3   2    7.90    8.90
   9  -3   2   12.00    7.90
 -10   3  -2    6.90    9.20
  10  -3   2   -4.40    9.10
  11   2  -2   38.10   13.00
 -11  -2   2   42.00    9.70
 -11  -2   2   45.20   13.00
 -11  -2   2   42.70    9.20
 -11  -2   2   22.40   10.10
  10   2  -2  157.08   18.10
  10   2  -2  123.99   15.50
 -10  -2   2  140.19   18.20
 -10  -2   2  147.99   19.40
 -10  -2   2  119.39   13.60
   9   2  -2  217.28   18.80
   9   2  -2  185.58   19.30
  -9  -2   2  177.98   16.50
  -9  -2   2  218.28   19.60
  -9  -2   2  192.78   16.90
  -9  -2   2  172.38   12.30
  -8  -2   2  176.68   11.40
  -8  -2   2  201.88   15.30
  -8  -2   2  208.48   18.80
  -8  -2   2  158.38   15.10
   7   2  -2   -1.20    5.50
  -7  -2   2    9.60    7.60
  -7  -2   2    1.60    3.50
   6   2  -2    7.40    8.00
  -6  -2   2    5.60    3.00
  -6  -2   2   -0.10    6.00
  -6  -2   2    2.20    6.20
   5   2  -2  233.88   17.40
   5   2  -2  194.58   16.30
  -5  -2   2  212.88   16.50
  -5  -2   2  230.78   15.90
  -5  -2   2  238.78   16.70
  -5  -2   2  214.18   11.70
   4   2  -2 1017.10   50.39
   4   2  -2  965.90   49.90
  -4  -2   2  950.90   49.60
  -4  -2   2 1044.70   49.99
  -4  -2   2  997.80   46.70
  -4  -2   2  988.80   49.90
   3   2  -2 1401.06   68.49
   3   2  -2 1436.66   68.99
  -3  -2   2 1434.46   66.19
  -3  -2   2 1433.86   69.19
  -3  -2   2 1402.46   68.79
  -3  -2   2 1400.96   68.09
   2   2  -2  309.57   18.90
   2   2  -2  325.67   17.40
   2   2  -2  311.77   15.80
  -2  -2   2  317.57   19.00
  -2  -2   2  317.77   17.00
   1   2  -2  658.83   33.90
   1   2  -2  668.73   31.80
   1   2  -2  675.43   30.80
   1   2  -2  652.13   31.70
  -1  -2   2  682.33   33.90
  -1  -2   2  624.24   31.60
  -1  -2   2  657.63   33.90
   0   2  -2    2.40    1.90
   0   2  -2    2.50    4.30
   0  -2   2    1.70    4.20
   0  -2   2    0.70    1.20
   0  -2   2    1.40    3.70
  -1   2  -2   34.10    4.80
   1  -2   2   27.70    4.40
   1  -2   2   37.60    6.00
  -2   2  -2 1072.09   48.50
  -2   2  -2  987.30   48.20
   2  -2   2  965.40   48.00
   2  -2   2  987.00   49.50
  -3   2  -2  888.31   43.50
  -3   2  -2  875.81   42.10
   3  -2   2  853.81   42.00
  -4   2  -2   54.59    6.30
  -4   2  -2   45.90    7.20
   4  -2   2   41.10    7.70
  -5   2  -2  164.68   14.80
  -5   2  -2  185.68   10.90
   5  -2   2  165.58   13.20
   5  -2   2  170.18   14.90
  -6   2  -2   27.00    8.10
  -6   2  -2   40.00    4.90
   6  -2   2   41.60    7.20
   6  -2   2   30.90    8.30
  -7   2  -2   39.70    5.20
  -7   2  -2   32.40    8.70
   7  -2   2   38.30    7.30
   7  -2   2   18.40    8.40
  -8   2  -2   28.60    9.20
  -8   2  -2   31.20    5.20
   8  -2   2   27.20    9.30
   8  -2   2   26.10    7.00
  -9   2  -2   -2.50    4.30
   9  -2   2    3.50    8.30
   9  -2   2    4.20    7.00
 -10   2  -2   55.19    6.30
 -10   2  -2   40.40   11.10
  10  -2   2   54.49   10.90
  10  -2   2   56.49    9.60
 -11   2  -2   31.80   11.40
 -11   2  -2   34.20    5.40
  11  -2   2   15.20   10.60
  11   1  -2   12.00   11.60
  11   1  -2    3.80    9.20
  11   1  -2   12.10   10.80
 -11  -1   2   24.90    8.50
 -11  -1   2   17.70    8.60
 -11  -1   2    2.30   11.50
 -11  -1   2   24.80    8.80
  10   1  -2   -2.50    9.70
  10   1  -2   -6.70    7.90
  10   1  -2   11.10    9.20
 -10  -1   2   -5.30   10.10
 -10  -1   2   -2.30    7.50
   9   1  -2    9.00    9.00
   9   1  -2    5.00    8.30
  -9  -1   2   -1.80    7.20
  -9  -1   2    5.40    7.00
  -9  -1   2   11.30    6.80
   8   1  -2  105.99   12.20
  -8  -1   2  102.99   13.10
   7   1  -2   68.99    9.90
   7   1  -2   68.19   10.50
   7   1  -2   45.70   10.50
  -7  -1   2   63.59    9.50
  -7  -1   2   51.09    8.10
   6   1  -2  512.05   32.30
   6   1  -2  574.24   31.40
   6   1  -2  650.23   31.70
  -6  -1   2  491.45   30.10
  -6  -1   2  546.25   30.90
  -6  -1   2  560.84   31.30
   5   1  -2  298.97   20.80
   5   1  -2  300.57   21.50
   5   1  -2  341.97   20.00
  -5  -1   2  305.67   20.90
  -5  -1   2  339.97   19.80
   4   1  -2   37.50    6.70
   4   1  -2   33.90    6.00
  -4  -1   2   29.30    6.70
  -4  -1   2   25.10    6.50
  -4  -1   2   28.00    5.80
   3   1  -2  154.88   11.90
   3   1  -2  151.98   12.50
  -3  -1   2  155.28    8.00
  -3  -1   2  147.99   12.40
  -3  -1   2  172.98   11.40
  -3  -1   2  164.58   11.80
   2   1  -2  718.53   33.90
   2   1  -2  665.23   34.10
   2   1  -2  689.93   31.80
  -2  -1   2  676.13   34.90
  -2  -1   2  649.34   33.60
  -2  -1   2  678.33   34.50
   1   1  -2  526.05   27.40
   1   1  -2  558.84   26.80
  -1  -1   2  521.95   26.60
  -1  -1   2  557.14   27.90
  -1  -1   2  553.64   27.80
   0   1  -2 1405.26   67.29
   0   1  -2 1419.16   67.39
   0  -1   2 1438.46   67.39
   0  -1   2 1400.06   67.39
  -1   1  -2    4.70    3.20
   1  -1   2    7.70    3.60
   1  -1   2    2.50    3.00
  -2   1  -2  937.21   44.50
   2  -1   2  912.11   44.40
  -3   1  -2   -0.30    4.10
  -3   1  -2   -3.80    2.80
   3  -1   2    3.90    4.90
   3  -1   2    1.00    3.00
  -4   1  -2  310.47   19.50
  -4   1  -2  334.07   17.50
   4  -1   2  321.37   20.30
   4  -1   2  316.57   18.40
  -5   1  -2   99.79    8.80
  -5   1  -2   87.19   11.70
   5  -1   2   93.89    9.10
   5  -1   2   96.09   11.80
  -6   1  -2  540.75   27.30
  -6   1  -2  509.85   30.20
   6  -1   2  522.15   30.20
   6  -1   2  508.45   28.00
  -7   1  -2  268.57   19.70
  -7   1  -2  257.77   15.80
   7  -1   2  228.78   17.30
   7  -1   2  231.28   16.00
  -8   1  -2   56.09    7.10
  -8   1  -2   47.70   10.50
   8  -1   2   40.50    9.80
   8  -1   2   44.10    7.50
  -9   1  -2   21.10    6.00
   9  -1   2   15.80    6.50
   9  -1   2    4.90    8.30
 -10   1  -2   14.40   10.00
 -10   1  -2   30.40    6.40
  10  -1   2   14.00    8.70
 -11   1  -2   34.10   11.20
  11  -1   2   43.30   11.30
  11   0  -2   96.19   12.20
  11   0  -2   74.49   12.60
  11   0  -2   80.69   12.00
 -11   0   2  107.89   11.70
 -11   0   2   70.29   10.90
 -11   0   2  107.79   14.80
  10   0  -2   66.49   12.10
  10   0  -2   66.59   11.70
  10   0  -2   60.49   11.80
 -10   0   2   69.59    9.70
 -10   0   2   77.59   11.50
 -10   0   2   61.29    9.40
 -10   0   2   46.20    9.50
   9   0  -2  164.58   17.50
   9   0  -2  152.08   16.90
  -9   0   2  153.68   15.80
  -9   0   2  159.98   19.10
  -9   0   2  163.48   14.90
  -9   0   2  163.08   14.90
   8   0  -2   -5.40    6.90
   8   0  -2   -6.10    6.30
  -8   0   2   10.60    8.80
   7   0  -2  552.94   33.30
   7   0  -2  563.24   34.30
   7   0  -2  572.44   32.20
  -7   0   2  542.55   34.00
  -7   0   2  565.64   31.70
  -7   0   2  637.74   31.90
   6   0  -2  101.49   12.30
   6   0  -2  123.89   12.60
  -6   0   2  100.09   11.90
  -6   0   2  111.89   14.40
  -6   0   2   95.29   11.20
   5   0  -2 1044.80   55.59
   5   0  -2 1107.49   54.99
   5   0  -2 1218.78   54.39
  -5   0   2 1011.70   53.59
  -5   0   2 1094.59   55.59
  -5   0   2 1054.29   54.59
   4   0  -2  738.93   40.00
   4   0  -2  764.02   39.10
   4   0  -2  806.12   38.40
  -4   0   2  797.62   39.60
  -4   0   2  708.83   39.50
  -4   0   2  739.93   37.90
   3   0  -2  363.96   21.00
   3   0  -2  347.57   20.40
  -3   0   2  360.06   20.60
  -3   0   2  370.76   20.40
  -3   0   2  348.37   19.10
   2   0  -2   74.69    7.50
   2   0  -2   67.49    7.90
  -2   0   2   63.89    7.40
  -2   0   2   77.79    6.20
  -2   0   2   65.69    7.80
  -2   0   2   77.59    7.90
   1   0  -2  352.36   17.10
   1   0  -2  307.67   17.40
   1   0  -2  314.07   17.00
  -1   0   2  308.57   17.50
  -1   0   2  318.77   16.90
  -1   0   2  319.47   17.00
   0   0  -2  649.43   31.60
   0   0  -2  622.74   31.00
   0   0   2  646.34   31.40
   0   0   2  647.94   29.80
   0   0   2  644.04   31.00
  -1   0  -2 9559.74  448.56
   1   0   2 9586.34  448.56
   1   0   2 9999.00  448.36
  -2   0  -2  134.49    8.80
   2   0   2  134.69    9.10
   2   0   2  128.59   10.30
  -3   0  -2  779.42   38.40
  -3   0  -2  717.83   36.10
   3   0   2  709.43   37.40
  -4   0  -2  359.46   21.20
  -4   0  -2  374.46   22.80
  -4   0  -2  367.46   19.90
   4   0   2  333.67   21.70
   4   0   2  351.46   18.90
  -5   0  -2  208.68   13.40
  -5   0  -2  208.68   15.90
  -5   0  -2  181.28   16.60
   5   0   2  170.48   15.40
   5   0   2  194.48   12.50
  -6   0  -2  599.04   34.70
  -6   0  -2  603.34   33.10
  -6   0  -2  625.84   31.80
   6   0   2  566.54   33.70
   6   0   2  595.54   30.90
  -7   0  -2  105.09   11.60
  -7   0  -2   95.39   11.60
   7   0   2   76.59    9.70
   7   0   2   77.39   10.70
  -8   0  -2   31.10    7.70
  -8   0  -2   36.40    8.50
  -8   0  -2   56.79   10.50
   8   0   2   49.20    7.00
   8   0   2   42.80    9.30
  -9   0  -2  149.19   13.80
   9   0   2  110.99   13.30
 -10   0  -2    8.90    9.70
 -10   0  -2   31.80   10.30
  10   0   2   29.50    9.60
 -11   0  -2   -7.10    7.10
 -11   0  -2    6.40    8.00
  11   0   2   -5.00    9.60
  11  -1  -2   -5.10   10.90
  11  -1  -2   13.10    8.90
  11  -1  -2    4.30   11.20
 -11   1   2  -15.70   11.60
 -11   1   2    6.00    8.60
  10  -1  -2   84.79   12.40
  10  -1  -2   44.90   11.50
  10  -1  -2   53.39   10.10
 -10   1   2   57.29   12.50
 -10   1   2   73.99   10.30
 -10   1   2   78.59    9.80
 -10   1   2   63.89    8.70
   9  -1  -2  165.58   17.50
   9  -1  -2  149.19   14.30
  -9   1   2  126.69   15.50
  -9   1   2  131.29   13.50
  -9   1   2  150.68   14.40
   8  -1  -2   30.30    9.60
   8  -1  -2   47.80    8.50
  -8   1   2   53.59    7.70
  -8   1   2   50.49    8.40
  -8   1   2   44.70    7.70
   7  -1  -2   36.80    9.40
   7  -1  -2   28.30    7.10
   7  -1  -2   21.20    8.60
  -7   1   2   28.80    9.20
  -7   1   2   34.70    7.10
  -7   1   2   24.00    6.40
   6  -1  -2   57.49    8.00
  -6   1   2   72.59    9.30
  -6   1   2   69.79    9.30
  -6   1   2   68.89    8.50
  -6   1   2   56.99    9.00
   5  -1  -2    0.30    4.90
   5  -1  -2    4.80    5.20
  -5   1   2    4.10    4.80
  -5   1   2   10.70    6.50
  -5   1   2    8.20    7.10
  -5   1   2    2.90    4.90
   4  -1  -2  696.93   36.50
   4  -1  -2  728.23   38.20
  -4   1   2  736.83   38.60
  -4   1   2  784.52   36.90
  -4   1   2  702.33   38.50
  -4   1   2  727.63   36.90
   3  -1  -2   60.39    7.30
   3  -1  -2   55.19    6.20
  -3   1   2   59.79    6.80
  -3   1   2   53.09    7.20
  -3   1   2   61.19    8.00
  -3   1   2   60.69    6.60
   2  -1  -2 1515.55   68.19
   2  -1  -2 1534.15   70.09
   2  -1  -2 1465.15   69.19
  -2   1   2 1450.75   69.99
  -2   1   2 1459.55   69.29
  -2   1   2 1492.75   70.89
  -2   1   2 1454.85   67.79
  -2   1   2 1332.27   68.29
   1  -1  -2  147.19    9.90
   1  -1  -2  149.88    7.50
   1  -1  -2  158.88    9.70
   1  -1  -2  153.48    9.40
  -1   1   2  150.58   11.20
  -1   1   2  141.59    9.90
  -1   1   2  146.29    9.40
   0  -1  -2    5.60    2.80
   0  -1  -2    3.30    1.50
   0  -1  -2    2.40    1.60
   0   1   2    2.70    2.80
   0   1   2    2.90    2.10
   0   1   2    2.80    1.60
   0   1   2    4.20    1.70
  -1  -1  -2 1762.92   81.69
  -1  -1  -2 1803.82   81.99
   1   1   2 1680.33   81.59
   1   1   2 1691.93   81.89
  -2  -1  -2 1921.91   90.49
  -2  -1  -2 1971.10   89.59
   2   1   2 1795.82   90.39
  -3  -1  -2   46.90    7.60
  -3  -1  -2   60.29    7.70
   3   1   2   64.29    4.40
   3   1   2   50.09    7.40
  -4  -1  -2  590.04   29.10
  -4  -1  -2  541.85   30.70
   4   1   2  538.65   26.60
   4   1   2  491.85   30.20
  -5  -1  -2  704.33   37.50
  -5  -1  -2  652.03   35.90
   5   1   2  668.23   33.20
   5   1   2  656.53   36.30
  -6  -1  -2   49.00    8.90
  -6  -1  -2   50.29    9.80
   6   1   2   41.40    9.40
  -7  -1  -2    4.50    7.10
   7   1   2   -2.20    7.00
  -8  -1  -2    3.60    9.00
  -8  -1  -2   11.10    8.50
   8   1   2   14.10    8.60
   9   1   2  285.57   22.40
  10   1   2   79.19   12.10
 -11  -1  -2   15.40    9.40
 -11  -1  -2   -3.90    9.00
 -11  -1  -2    2.30    9.20
  11   1   2    2.60    9.10
  11   1   2    8.00    9.30
  11  -2  -2   20.60    8.60
  11  -2  -2   13.60   11.10
 -11   2   2   12.60    6.30
 -11   2   2    7.40   17.00
 -11   2   2   12.40    8.20
  10  -2  -2   -4.20    9.80
  10  -2  -2    1.10    9.30
  10  -2  -2   -0.20    7.10
 -10   2   2   -1.80    7.80
 -10   2   2    2.70    5.60
 -10   2   2   -1.30   10.60
   9  -2  -2   -1.30    7.00
   9  -2  -2   -6.30    7.00
  -9   2   2   -1.00    8.50
  -9   2   2    5.90    8.80
  -9   2   2    8.20    5.40
   8  -2  -2  172.18   16.30
   8  -2  -2  202.88   16.00
  -8   2   2  195.28   14.10
  -8   2   2  227.08   18.40
   7  -2  -2  359.66   22.30
   7  -2  -2  363.46   23.10
  -7   2   2  352.66   20.70
  -7   2   2  405.86   25.90
   6  -2  -2  285.37   18.50
  -6   2   2  303.27   20.90
  -6   2   2  315.27   21.80
  -6   2   2  285.67   17.40
   5  -2  -2  735.63   38.70
   5  -2  -2  717.43   36.40
   5  -2  -2  673.63   38.10
  -5   2   2  715.23   38.60
  -5   2   2  686.13   35.50
  -5   2   2  750.32   38.90
   4  -2  -2   63.79    9.40
   4  -2  -2   80.69    8.20
   4  -2  -2   99.19   11.10
  -4   2   2   70.49    9.00
  -4   2   2   89.69    7.80
  -4   2   2   88.29   10.10
   3  -2  -2  461.75   27.00
   3  -2  -2  412.36   23.80
   3  -2  -2  502.45   26.10
  -3   2   2  495.45   25.70
  -3   2   2  479.95   27.30
  -3   2   2  484.55   23.30
  -3   2   2  498.15   24.00
   2  -2  -2  424.56   21.10
   2  -2  -2  428.66   20.40
   2  -2  -2  411.26   22.50
   2  -2  -2  391.06   23.70
  -2   2   2  378.36   23.20
  -2   2   2  431.36   21.10
  -2   2   2  439.36   22.70
  -2   2   2  439.96   20.70
   1  -2  -2 1540.35   81.79
   1  -2  -2 1747.13   80.99
   1  -2  -2 1784.42   79.79
   1  -2  -2 1739.53   80.29
   1  -2  -2 1801.62   79.99
  -1   2   2 1734.83   80.99
  -1   2   2 1740.03   79.79
  -1   2   2 1633.34   81.79
  -1   2   2 1685.83   80.29
   0  -2  -2 5412.46  244.68
   0  -2  -2 5555.94  244.08
   0  -2  -2 4442.06  244.98
   0  -2  -2 5675.23  243.98
   0  -2  -2 5284.67  244.18
   0   2   2 5289.47  244.68
   0   2   2 5316.87  244.08
   0   2   2 5238.78  245.18
   0   2   2 5162.78  243.98
   0   2   2 5439.26  243.98
  -1  -2  -2 2357.06  110.49
  -1  -2  -2 2430.36  112.39
  -1  -2  -2 2386.06  112.09
  -1  -2  -2 2118.69  111.39
   1   2   2 2474.05  111.09
   1   2   2 2331.87  110.49
   1   2   2 2533.25  112.29
   1   2   2 2500.65  111.29
  -2  -2  -2   13.30    5.10
  -2  -2  -2   18.70    2.50
   2   2   2   23.80    5.50
   2   2   2   19.20    2.60
  -3  -2  -2    6.50    5.40
   3   2   2   -2.50    5.40
   3   2   2   -0.70    3.10
  -4  -2  -2   10.40    6.40
  -4  -2  -2   16.40    2.20
   4   2   2   15.50    4.80
   4   2   2   12.50    7.10
  -5  -2  -2 1792.12   89.39
  -5  -2  -2 1879.51   88.49
  -5  -2  -2 1870.51   85.29
   5   2   2 1684.93   87.79
   5   2   2 1878.51   89.69
  -6  -2  -2  307.97   16.10
  -6  -2  -2  288.57   19.90
  -6  -2  -2  286.97   20.40
   6   2   2  265.57   20.10
   6   2   2  318.77   22.50
  -7  -2  -2  129.79   13.60
  -7  -2  -2  174.48   11.10
   7   2   2  159.68   15.70
   7   2   2  175.88   17.50
  -8  -2  -2  293.57   21.70
  -8  -2  -2  234.08   22.10
  -8  -2  -2  316.67   17.10
   8   2   2  309.57   23.50
   8   2   2  309.07   22.50
   9   2   2    1.20    8.20
   9   2   2   15.60    9.60
 -10  -2  -2   80.09   11.60
 -10  -2  -2   44.30   10.90
  10   2   2   66.99   12.10
 -11  -2  -2   16.90   10.70
 -11  -2  -2   25.00    9.80
  11   2   2    4.10    9.10
  11   2   2   16.20    9.40
  10  -3  -2   58.99   12.70
  10  -3  -2   67.99    9.70
 -10   3   2   73.49    8.20
 -10   3   2   71.09   13.50
   9  -3  -2   -1.60    7.20
   9  -3  -2   17.20    7.10
  -9   3   2   -8.50    7.20
  -9   3   2   -6.20    7.20
  -9   3   2    5.80    4.00
   8  -3  -2    3.20    8.10
   8  -3  -2   -1.00    5.90
  -8   3   2    7.00    7.40
  -8   3   2   -1.70    3.70
   7  -3  -2   32.60    8.80
   7  -3  -2   30.00    6.50
   7  -3  -2   18.80    8.60
  -7   3   2   14.30    8.10
  -7   3   2   15.20    4.10
   6  -3  -2  138.79   14.50
   6  -3  -2  106.89   11.00
  -6   3   2  119.09    8.70
  -6   3   2  115.89   15.00
   5  -3  -2  316.27   23.20
   5  -3  -2  377.46   23.30
   5  -3  -2  335.27   20.50
  -5   3   2  391.86   24.10
  -5   3   2  383.26   19.10
  -5   3   2  414.16   24.00
   4  -3  -2   38.50    8.20
   4  -3  -2   55.39    8.10
   4  -3  -2   65.49    7.40
  -4   3   2   66.39    9.30
  -4   3   2   64.09    5.70
  -4   3   2   46.90    7.90
   3  -3  -2  103.29   10.60
   3  -3  -2   98.89   12.00
   3  -3  -2  110.89    8.10
  -3   3   2  124.39    9.70
  -3   3   2  114.49    8.00
  -3   3   2  101.89   10.70
  -3   3   2  110.99    7.30
   2  -3  -2  705.43   35.80
   2  -3  -2  785.02   38.50
   2  -3  -2  723.73   36.90
   2  -3  -2  712.03   35.40
  -2   3   2  751.02   37.00
  -2   3   2  721.03   35.50
  -2   3   2  810.12   39.10
  -2   3   2  743.03   35.90
   1  -3  -2  132.49    8.30
   1  -3  -2  135.49    8.60
   1  -3  -2  115.99    8.40
   1  -3  -2  139.29   11.30
   1  -3  -2  127.59    9.40
  -1   3   2  142.49    9.50
  -1   3   2  148.99   11.20
  -1   3   2  130.19    8.40
   0  -3  -2  319.87   17.10
   0  -3  -2  329.27   16.20
   0  -3  -2  340.17   18.20
   0  -3  -2  326.87   16.60
   0  -3  -2  318.97   17.20
   0  -3  -2  316.17   17.10
   0   3   2  310.87   16.40
   0   3   2  309.67   16.70
  -1  -3  -2  929.71   43.70
  -1  -3  -2  912.71   43.90
  -1  -3  -2  928.11   45.00
  -1  -3  -2  904.01   43.70
  -1  -3  -2  952.20   44.50
   1   3   2  914.21   43.80
   1   3   2  908.41   43.70
   1   3   2  909.31   44.80
  -2  -3  -2  581.24   28.90
  -2  -3  -2  610.04   30.50
  -2  -3  -2  585.84   28.80
   2   3   2  601.14   30.80
   2   3   2  567.24   28.70
  -3  -3  -2  208.28   12.30
  -3  -3  -2  203.18   15.10
   3   3   2  208.38   12.60
   3   3   2  220.88   14.60
  -4  -3  -2  139.39   13.30
   4   3   2  135.09   14.20
   4   3   2  132.49   10.40
  -5  -3  -2    8.20    6.00
  -5  -3  -2    1.70    4.80
   5   3   2   -1.40    7.20
   5   3   2    1.70    5.10
  -6  -3  -2  299.57   21.20
  -6  -3  -2  318.27   21.00
  -6  -3  -2  313.57   16.40
   6   3   2  287.07   22.60
   6   3   2  318.77   20.30
  -7  -3  -2  223.38   13.10
  -7  -3  -2  200.68   17.90
  -7  -3  -2  278.27   18.00
   7   3   2  212.18   19.90
   7   3   2  199.48   17.60
  -8  -3  -2   40.10   11.40
  -8  -3  -2   54.99   10.10
  -8  -3  -2   46.80    5.50
   8   3   2   62.19   20.00
   8   3   2   39.80    9.10
  -9  -3  -2   88.89    8.30
  -9  -3  -2   65.79   11.30
  -9  -3  -2   87.39   11.60
   9   3   2  103.29   13.60
   9   3   2   63.79   11.10
 -10  -3  -2    7.20    8.30
 -10  -3  -2   18.20    9.70
  10   3   2   21.10   10.10
 -11  -3  -2   -9.00    9.00
 -11  -3  -2    7.30    7.90
  11   3   2   -3.80    9.50
  11   3   2   17.00   10.70
  10  -4  -2    9.90    8.60
 -10   4   2   16.10   11.40
   9  -4  -2   65.09   12.10
   9  -4  -2   55.79    8.60
   9  -4  -2   50.99   10.40
  -9   4   2   48.50   12.00
   8  -4  -2  130.49   16.50
   8  -4  -2  133.29   12.90
   7  -4  -2   73.19   11.10
   7  -4  -2   71.19   10.60
   7  -4  -2   53.59    7.70
  -7   4   2   65.89   10.80
   6  -4  -2   28.10    8.70
   6  -4  -2   36.50    6.40
   6  -4  -2   17.10    8.20
  -6   4   2   42.10    9.00
  -6   4   2   39.90    9.40
   5  -4  -2    4.20    4.60
   5  -4  -2    3.10    7.10
   5  -4  -2   20.90    7.10
  -5   4   2    8.70    5.10
  -5   4   2    4.60    6.90
   4  -4  -2  741.33   36.20
   4  -4  -2  721.33   37.70
   4  -4  -2  679.33   38.20
  -4   4   2  729.03   35.90
  -4   4   2  691.93   39.40
  -4   4   2  745.53   37.80
   3  -4  -2  476.15   23.70
   3  -4  -2  490.55   26.80
   3  -4  -2  492.25   28.60
  -3   4   2  491.05   26.90
  -3   4   2  494.75   25.60
  -3   4   2  554.34   28.90
   2  -4  -2  508.55   24.70
   2  -4  -2  518.15   26.80
   2  -4  -2  510.45   27.80
  -2   4   2  497.95   25.80
  -2   4   2  497.35   26.50
   1  -4  -2  658.33   33.40
   1  -4  -2  691.93   34.20
   1  -4  -2  721.43   36.00
   1  -4  -2  689.63   33.50
  -1   4   2  676.13   33.90
   0  -4  -2   24.70    4.10
   0  -4  -2   38.40    5.20
   0  -4  -2   31.70    4.70
   0  -4  -2   32.90    5.40
   0  -4  -2   33.70    4.70
   0   4   2   23.50    4.70
   0   4   2   40.80    4.70
  -1  -4  -2  159.88   10.80
  -1  -4  -2  148.09   11.40
  -1  -4  -2  161.08    9.60
  -1  -4  -2  156.78    9.90
   1   4   2  166.98   10.40
   1   4   2  164.48   10.50
   1   4   2  161.78   10.00
  -2  -4  -2   21.60    4.20
  -2  -4  -2   14.70    5.20
  -2  -4  -2   13.50    3.90
   2   4   2   13.60    5.20
   2   4   2   20.90    4.30
   2   4   2   18.00    4.30
  -3  -4  -2  430.26   25.20
  -3  -4  -2  431.76   22.70
  -3  -4  -2  461.95   23.40
   3   4   2  420.86   23.20
   3   4   2  459.45   25.70
  -4  -4  -2 1296.37   64.99
  -4  -4  -2 1337.17   62.59
  -4  -4  -2 1275.97   63.19
   4   4   2 1353.76   65.89
   4   4   2 1291.97   63.29
  -5  -4  -2  379.36   22.40
  -5  -4  -2  393.46   23.50
  -5  -4  -2  393.66   24.00
   5   4   2  404.66   23.00
   5   4   2  423.56   25.00
  -6  -4  -2  319.57   21.30
   6   4   2  336.37   20.70
   6   4   2  330.47   23.90
  -7  -4  -2  100.49   13.80
  -7  -4  -2  103.49    8.30
  -7  -4  -2  103.49   13.60
   7   4   2   83.99   11.80
   7   4   2  124.39   13.70
  -8  -4  -2   26.80    9.30
  -8  -4  -2   32.80    8.00
  -8  -4  -2   37.50    4.80
   8   4   2   31.80    9.20
   8   4   2   30.80    8.90
  -9  -4  -2   78.29   12.00
  -9  -4  -2  115.79    8.80
  -9  -4  -2   97.09   12.70
   9   4   2  100.89   14.50
   9   4   2   93.89   12.10
 -10  -4  -2  184.08   11.90
 -10  -4  -2  186.98   18.80
 -10  -4  -2  164.28   15.90
  10   4   2  208.98   21.00
 -11  -4  -2  101.19    8.60
 -11  -4  -2   70.69   12.10
 -11  -4  -2  108.99   13.10
  11   4   2   84.79   14.60
  11   4   2   75.89   13.10
   9  -5  -2   -0.50    9.70
   9  -5  -2    9.60    9.50
   9  -5  -2   18.70    7.40
  -9   5   2    7.00    9.70
  -9   5   2   11.20    6.30
   8  -5  -2   17.20    8.80
   8  -5  -2   31.50    9.60
   8  -5  -2   22.30    7.00
  -8   5   2   17.20    7.70
  -8   5   2   24.20    6.90
   7  -5  -2   84.99   11.80
  -7   5   2  113.69   14.80
  -7   5   2   99.19   10.60
   6  -5  -2  106.89   12.90
   6  -5  -2  104.29   11.30
   6  -5  -2   80.69   11.10
  -6   5   2  105.19   13.90
  -6   5   2   94.79   10.50
   5  -5  -2  156.18   12.60
   5  -5  -2  133.39   13.70
  -5   5   2  157.58   14.30
   4  -5  -2   37.40    7.20
   4  -5  -2   45.50    8.80
  -4   5   2   41.00    7.20
  -4   5   2   46.40    7.10
   3  -5  -2    1.30    1.40
   3  -5  -2    2.70    6.30
   3  -5  -2    1.90    4.80
  -3   5   2   -6.60    4.80
  -3   5   2    1.80    4.70
   2  -5  -2    3.20    6.10
   2  -5  -2    7.00    2.90
   2  -5  -2    4.40    4.30
  -2   5   2    7.80    4.90
  -2   5   2    9.20    4.60
   1  -5  -2  653.93   33.10
   1  -5  -2  693.23   33.50
   1  -5  -2  669.43   35.30
   1  -5  -2  678.23   33.60
  -1   5   2  665.83   33.50
   0  -5  -2 1928.31   90.89
   0  -5  -2 1913.51   91.49
   0  -5  -2 1927.21   90.59
   0  -5  -2 1994.40   92.59
   0   5   2 1901.11   90.49
   0   5   2 1887.71   90.99
  -1  -5  -2  123.99    8.80
  -1  -5  -2  126.29   10.90
  -1  -5  -2  127.79   11.40
   1   5   2  127.49    9.70
   1   5   2  116.89    8.90
  -2  -5  -2  215.58   14.70
  -2  -5  -2  229.28   13.20
  -2  -5  -2  233.88   15.10
   2   5   2  234.48   15.00
   2   5   2  234.88   14.10
   2   5   2  235.58   13.50
  -3  -5  -2   54.19    8.30
  -3  -5  -2   52.29    6.40
  -3  -5  -2   55.59    6.60
   3   5   2   45.80    6.20
   3   5   2   53.99    6.00
  -4  -5  -2  297.07   20.30
  -4  -5  -2  306.07   18.70
  -4  -5  -2  298.27   17.60
   4   5   2  303.37   18.10
   4   5   2  313.07   21.20
  -5  -5  -2  265.27   17.80
  -5  -5  -2  263.27   18.00
   5   5   2  267.47   20.70
   5   5   2  268.77   17.00
  -6  -5  -2  137.99   12.80
  -6  -5  -2  109.69   14.60
  -6  -5  -2  127.29   12.90
   6   5   2  128.79   12.60
   6   5   2  141.49   17.00
  -7  -5  -2  170.88   16.20
  -7  -5  -2  202.08   15.90
   7   5   2  198.28   16.20
  -8  -5  -2   15.60    4.40
  -8  -5  -2   23.10    8.60
  -8  -5  -2   20.60    8.60
   8   5   2    1.40   10.30
   8   5   2   18.30    8.00
  -9  -5  -2   -4.20    3.90
  -9  -5  -2   -3.60    8.40
  -9  -5  -2    2.70    8.50
   9   5   2   11.30   10.90
   9   5   2   -6.80    8.00
 -10  -5  -2    7.40   10.00
 -10  -5  -2   -0.80    3.80
 -10  -5  -2   18.40    9.80
  10   5   2   22.60    9.20
  10   5   2    9.60   10.80
 -11  -5  -2   37.50   11.90
 -11  -5  -2   63.59   11.60
 -11  -5  -2   62.79    7.50
  11   5   2   59.79   12.80
  11   5   2   52.69   14.10
   9  -6  -2   23.00   10.20
   9  -6  -2   18.20    8.60
   9  -6  -2   12.90   11.40
  -9   6   2   10.20    9.90
  -9   6   2   28.00    7.30
   8  -6  -2    3.80    8.70
   8  -6  -2   -2.70    8.90
   8  -6  -2   -2.00    6.80
  -8   6   2   11.50    8.50
  -8   6   2    3.10    6.70
   7  -6  -2   21.00    8.60
   7  -6  -2    4.30    6.40
   7  -6  -2   -4.30    8.30
  -7   6   2   -6.00    7.70
  -7   6   2    1.90    6.50
   6  -6  -2   17.60    8.10
   6  -6  -2   15.30    6.50
  -6   6   2   19.70    7.60
  -6   6   2   27.80    7.20
   5  -6  -2  344.17   24.10
   5  -6  -2  371.26   21.90
  -5   6   2  358.56   22.20
  -5   6   2  357.96   20.80
   4  -6  -2  132.89   12.70
   4  -6  -2  133.99   13.40
  -4   6   2  135.99   12.10
  -4   6   2  132.59   11.80
   3  -6  -2   61.89    4.00
   3  -6  -2   61.79    7.60
   3  -6  -2   53.49    9.30
  -3   6   2   56.89    8.00
  -3   6   2   57.09    7.00
   2  -6  -2   56.29    8.80
   2  -6  -2   51.19    6.30
   2  -6  -2   50.19    6.10
  -2   6   2   46.60    6.70
   1  -6  -2  105.59   10.50
   1  -6  -2   82.59    8.60
   1  -6  -2   95.69   11.30
   1  -6  -2  109.09    8.70
  -1   6   2  100.19   10.00
   0  -6  -2   13.50    5.60
   0  -6  -2    8.10    3.60
   0  -6  -2    5.80    5.90
   0   6   2   10.60    4.80
   0   6   2    6.30    5.50
  -1  -6  -2  266.87   17.70
  -1  -6  -2  258.87   17.20
  -1  -6  -2  261.07   14.70
   1   6   2  263.87   14.90
   1   6   2  252.27   15.10
  -2  -6  -2  275.67   18.10
  -2  -6  -2  284.27   19.10
   2   6   2  280.57   17.00
   2   6   2  286.57   16.00
   2   6   2  300.17   18.30
  -3  -6  -2  391.56   22.20
  -3  -6  -2  379.96   24.00
   3   6   2  399.86   21.00
   3   6   2  397.76   22.50
  -4  -6  -2  205.28   13.50
  -4  -6  -2  196.38   14.90
   4   6   2  190.88   14.90
   4   6   2  182.08   12.30
  -5  -6  -2  166.88   13.60
  -5  -6  -2  138.89   15.30
  -5  -6  -2  164.98   14.40
   5   6   2  148.59   10.20
   5   6   2  151.18   13.10
  -6  -6  -2   37.20    8.80
  -6  -6  -2   24.90    7.00
   6   6   2   38.70    7.20
  -7  -6  -2  247.88   19.20
  -7  -6  -2  253.37   20.70
   7   6   2  252.87   18.20
  -8  -6  -2  121.99   15.10
  -8  -6  -2  114.79   13.50
   8   6   2  136.79   14.80
   8   6   2  118.69   15.20
  -9  -6  -2   82.79   10.90
  -9  -6  -2  103.39    9.10
  -9  -6  -2   51.89   11.30
   9   6   2   70.29   13.80
 -10  -6  -2   77.59    9.00
 -10  -6  -2   54.39   11.90
 -10  -6  -2   77.09   11.50
  10   6   2   85.09   15.10
  10   6   2   56.89   11.60
   8  -7  -2  106.29   12.80
   8  -7  -2   55.09   10.00
   8  -7  -2   64.39   12.70
  -8   7   2   47.80    8.90
  -8   7   2   71.69   11.60
   7  -7  -2   12.20    7.90
   7  -7  -2    6.60    8.90
   7  -7  -2    4.90    9.80
  -7   7   2   21.90    7.50
   6  -7  -2   -6.10    8.00
   6  -7  -2   11.10    9.30
   6  -7  -2   -7.40    6.30
  -6   7   2    7.90    6.40
  -5   7   2  110.19   11.80
  -5   7   2  103.79   11.50
   4  -7  -2  104.49   12.20
  -4   7   2  101.29   11.00
  -4   7   2   94.99   11.10
   3  -7  -2   41.50    3.80
   3  -7  -2   42.30   10.60
   3  -7  -2   41.40    6.80
  -3   7   2   56.19    8.00
   2  -7  -2  273.77   16.90
   2  -7  -2  282.67   20.80
   2  -7  -2  271.27   15.60
   2  -7  -2  346.07   19.30
  -2   7   2  263.67   17.60
   1  -7  -2  394.76   21.20
   1  -7  -2  398.06   25.20
  -1   7   2  416.36   22.90
   0  -7  -2   48.90    6.30
   0  -7  -2   50.79    8.70
   0   7   2   54.49    6.80
   0   7   2   55.69    6.40
  -1  -7  -2    9.10    3.40
  -1  -7  -2    8.40    6.00
   1   7   2    7.50    5.80
   1   7   2   10.70    5.20
  -2  -7  -2  102.09   12.90
   2   7   2  117.29    9.50
   2   7   2  109.09    9.20
   2   7   2  121.79   12.00
  -3  -7  -2   38.10    7.50
  -3  -7  -2   56.69    8.60
   3   7   2   31.80    6.10
   3   7   2   34.80    7.30
  -4  -7  -2  637.44   37.00
  -4  -7  -2  621.64   33.90
  -4  -7  -2  765.72   35.10
   4   7   2  630.64   33.40
   4   7   2  667.73   35.60
  -5  -7  -2  100.89   11.90
  -5  -7  -2   91.79   10.30
   5   7   2   97.29   12.10
   5   7   2  106.99    9.50
  -6  -7  -2   11.70    6.60
  -6  -7  -2   -0.10    6.30
  -6  -7  -2   -3.30    8.00
   6   7   2    3.20    6.00
   6   7   2   -0.40    6.10
  -7  -7  -2   32.40    7.70
  -7  -7  -2   29.50    8.00
  -7  -7  -2   28.20    8.00
   7   7   2   27.40    8.70
  -8  -7  -2   -5.60    7.70
  -8  -7  -2    3.40    8.70
   8   7   2    3.80    8.20
  -9  -7  -2   54.09   10.20
  -9  -7  -2   48.70   11.90
   9   7   2   58.99    9.80
 -10  -7  -2   51.99   12.20
 -10  -7  -2   52.09   10.90
 -10  -7  -2   51.49    6.30
  10   7   2   39.20   11.20
   7  -8  -2   18.60    9.30
   7  -8  -2    9.40   11.10
   7  -8  -2   20.10    8.40
  -7   8   2    4.20    7.40
   6  -8  -2   37.50   11.20
   6  -8  -2   55.49    9.80
   6  -8  -2   59.09   10.20
  -6   8   2   66.99    9.10
  -6   8   2   51.99    8.80
   5  -8  -2   43.00   10.50
  -5   8   2   51.19    8.80
  -5   8   2   60.39    8.00
   4  -8  -2   14.10    7.00
   4  -8  -2   20.20    9.10
  -4   8   2   20.40    7.40
   3  -8  -2   29.90    6.50
   3  -8  -2   30.60    3.60
   3  -8  -2   29.10    3.60
   3  -8  -2   17.70    8.50
  -3   8   2   34.60    7.60
   2  -8  -2    3.00    7.80
   2  -8  -2    6.30    4.80
   2  -8  -2   10.30    7.00
   2  -8  -2   -0.70    3.80
  -2   8   2    8.40    6.70
   1  -8  -2  106.69   13.80
   1  -8  -2  133.09    9.80
   1  -8  -2  122.69   14.80
  -1   8   2  125.79   12.00
   0  -8  -2   61.49    6.50
   0  -8  -2   61.29    9.20
   0  -8  -2   58.39   11.60
   0   8   2   59.59    8.50
  -1  -8  -2  355.16   24.00
  -1  -8  -2  364.26   19.40
  -1  -8  -2  446.36   23.30
   1   8   2  380.46   20.90
   1   8   2  367.06   21.10
  -2  -8  -2   61.19    9.60
  -2  -8  -2   48.70    6.20
   2   8   2   49.60    7.70
   2   8   2   59.69    7.20
  -3  -8  -2   49.90    5.80
  -3  -8  -2   47.10    8.50
   3   8   2   78.09    8.00
   3   8   2   49.80    6.80
   3   8   2   47.90    8.30
  -4  -8  -2  112.69   13.60
  -4  -8  -2   77.79   18.70
  -4  -8  -2  102.39    9.80
   4   8   2  112.29   12.60
   4   8   2   91.69    9.80
  -5  -8  -2  195.78   15.80
  -5  -8  -2  214.38   16.50
  -5  -8  -2  172.28   14.60
   5   8   2  205.48   17.10
  -6  -8  -2  261.57   19.00
  -6  -8  -2  212.38   17.00
  -6  -8  -2  236.28   20.20
   6   8   2  234.58   15.00
   6   8   2  222.68   17.60
  -7  -8  -2   45.50   11.10
  -7  -8  -2   69.29    9.90
  -7  -8  -2   62.79    9.40
   7   8   2   68.59    8.20
  -8  -8  -2   68.19   11.10
  -8  -8  -2   90.69   11.10
  -8  -8  -2   75.89   10.20
   8   8   2   82.19   10.50
   8   8   2   79.59    9.20
  -9  -8  -2   30.70   10.70
  -9  -8  -2   38.80    9.90
   9   8   2   41.10    9.80
   6  -9  -2    5.50   10.90
   6  -9  -2    0.00    9.00
   6  -9  -2   24.50   13.60
   6  -9  -2   -1.30    8.10
  -6   9   2    3.40    7.30
  -6   9   2    1.20    7.30
   5  -9  -2   23.50   10.30
   5  -9  -2   23.80   11.10
  -5   9   2   31.90    8.00
   4  -9  -2   53.89   11.10
   4  -9  -2   41.90   10.40
   4  -9  -2   70.69    8.60
  -4   9   2   41.70    7.50
   3  -9  -2   28.60    6.50
   3  -9  -2   25.60    3.50
   3  -9  -2   24.70    3.40
   3  -9  -2   46.00    9.40
   3  -9  -2   30.80   10.00
  -3   9   2   29.10    7.80
   2  -9  -2   32.40    9.40
   2  -9  -2   27.80    5.70
   2  -9  -2   34.10    5.20
   2  -9  -2   43.40    9.80
  -2   9   2   20.80    7.50
   1  -9  -2   20.10    4.30
   1  -9  -2   22.20    8.40
   1  -9  -2   23.50    8.30
  -1   9   2   17.00    7.30
   0  -9  -2   27.00   14.30
   0  -9  -2   32.40    8.60
   0  -9  -2   28.50    3.80
   0   9   2   26.00    7.50
  -1  -9  -2   33.40   11.20
  -1  -9  -2   35.90    4.60
  -1  -9  -2   42.10    9.10
   1   9   2   28.80    7.50
  -2  -9  -2  132.19   14.20
  -2  -9  -2   97.89    7.10
  -2  -9  -2  107.99   14.60
   2   9   2  113.39    9.90
  -3  -9  -2  106.89    8.80
  -3  -9  -2   93.59    7.70
  -3  -9  -2  113.39   14.70
  -3  -9  -2   95.89   11.70
   3   9   2   92.39   10.00
  -4  -9  -2  100.49   12.20
  -4  -9  -2   86.59    9.80
   4   9   2   80.69    8.70
   4   9   2  109.69   14.40
  -5  -9  -2    1.10    8.40
  -5  -9  -2    3.00    7.20
  -5  -9  -2   -5.90    5.30
   5   9   2   -0.90    7.70
   5   9   2   -2.10    5.40
  -6  -9  -2   47.60    9.70
  -6  -9  -2   21.50    9.90
  -6  -9  -2   51.79    7.90
   6   9   2   58.09    7.30
  -7  -9  -2  -10.80    8.10
  -7  -9  -2   -0.70    7.40
  -7  -9  -2    2.00    8.70
   7   9   2   -5.50    5.40
   7   9   2    8.20    7.60
  -8  -9  -2   59.99    9.50
  -8  -9  -2   44.90    9.90
  -8  -9  -2   52.99   10.40
   8   9   2   61.99    8.10
   8   9   2   54.89   10.80
   4 -10  -2   -3.50    6.40
   4 -10  -2    5.70    9.20
   4 -10  -2    8.70   10.80
  -4  10   2   -9.00    7.20
   3 -10  -2   21.00    5.60
   3 -10  -2   23.20   10.30
   3 -10  -2   32.80    9.80
  -3  10   2   23.40    8.00
   2 -10  -2   32.90    4.70
   2 -10  -2   30.70    5.20
   2 -10  -2   27.30    9.30
   2 -10  -2   29.40   10.00
   2 -10  -2   23.40    4.70
  -2  10   2   35.30    7.60
   1 -10  -2   79.29   11.80
   1 -10  -2   70.59   11.20
   1 -10  -2   82.39    8.50
  -1  10   2   66.79    9.60
   0 -10  -2   -1.60    8.20
   0 -10  -2   15.10    9.10
   0 -10  -2   13.40    8.70
   0  10   2    2.00    6.60
  -1 -10  -2   -2.60    8.10
  -1 -10  -2   15.80    8.40
  -1 -10  -2   -0.60    8.00
   1  10   2   -6.90    6.10
  -2 -10  -2    5.70    6.60
  -2 -10  -2    0.20    8.70
   2  10   2    2.20    7.00
   2  10   2   -3.30    5.50
  -3 -10  -2    2.00    2.00
  -3 -10  -2    4.70    2.80
  -3 -10  -2    9.00    9.00
  -3 -10  -2   -4.10    6.30
   3  10   2    3.60    5.50
   3  10   2   -1.40    6.00
  -4 -10  -2   45.70    9.40
  -4 -10  -2   35.80   10.00
  -4 -10  -2   34.90    4.10
  -4 -10  -2   36.20    5.10
   4  10   2   34.70    6.60
   4  10   2   65.79    9.20
  -5 -10  -2  132.49   11.70
  -5 -10  -2  140.49   17.60
  -5 -10  -2  132.59   17.30
   5  10   2  151.68   17.20
   5  10   2  166.58   12.00
  -6 -10  -2   30.30    7.00
  -6 -10  -2   33.40    9.60
  -6 -10  -2   24.50   10.80
   6  10   2   30.60    9.10
   6  10   2   35.00    6.80
  -7 -10  -2   14.30    7.40
  -7 -10  -2   -4.60    9.00
   7  10   2   -4.80    9.20
   1 -11  -2   35.20   10.80
   1 -11  -2   34.70   10.80
   1 -11  -2   26.10   10.80
  -1  11   2   31.90    8.10
   0 -11  -2   48.30   11.20
   0 -11  -2   51.99   11.40
   0 -11  -2   55.59   11.00
   0  11   2   36.10    8.40
  -1 -11  -2   43.50   11.70
  -1 -11  -2   21.00   10.20
  -1 -11  -2   12.50    9.70
   1  11   2   36.90    6.60
  -2 -11  -2  140.89   17.50
  -2 -11  -2  121.79   14.50
   2  11   2  125.09   12.40
  -3 -11  -2   -7.90    9.80
  -3 -11  -2    1.80    9.50
   3  11   2    6.60    5.40
  -4 -11  -2   15.80    9.10
  -4 -11  -2    2.50    9.90
   4  11   2   14.90    5.80
   2   9  -3    1.60    5.80
  -2  -9   3   15.00    9.90
   1   9  -3   -1.80    5.90
  -1  -9   3   -4.50    8.50
  -1  -9   3    4.20    8.20
   0   9  -3   11.90    6.60
   0  -9   3    9.70    8.00
   0  -9   3    6.80    9.50
   5   8  -3    2.70   10.10
   5   8  -3    4.80    3.80
  -5  -8   3    1.60    9.60
  -5  -8   3   15.10    9.60
  -5  -8   3   -1.50   11.20
   4   8  -3   -2.00    3.30
   4   8  -3   -4.70    9.60
   4   8  -3    4.30    5.60
  -4  -8   3   18.50    9.20
  -4  -8   3    4.70    6.90
  -4  -8   3   -6.80    9.40
   3   8  -3   63.79   11.40
   3   8  -3   71.29    8.00
  -3  -8   3   75.99   11.20
  -3  -8   3   70.59   11.80
  -3  -8   3   77.39   12.10
   2   8  -3  153.28   15.80
   2   8  -3  185.88   12.70
  -2  -8   3  167.28   17.60
  -2  -8   3  168.88   16.90
   1   8  -3    6.40    6.20
  -1  -8   3    9.80    8.70
  -1  -8   3    1.70    7.90
   0   8  -3    3.70    6.00
   0  -8   3   -4.00    6.60
   0  -8   3    4.70    8.90
  -1   8  -3    7.70    6.40
   1  -8   3   10.50    7.10
   1  -8   3   17.70    7.10
  -2   8  -3   12.50    6.80
   2  -8   3   -0.70    8.80
   2  -8   3   10.50    6.30
  -3   8  -3   25.90    7.40
   3  -8   3   19.90    5.60
   3  -8   3   29.50    9.90
  -4   8  -3    9.30    6.80
   4  -8   3   12.60    9.50
   4  -8   3    3.10    4.20
   7   7  -3   66.69   13.20
   7   7  -3   98.09    8.40
  -7  -7   3   82.89    8.50
  -7  -7   3   98.09   12.40
  -7  -7   3   93.99   12.80
  -7  -7   3   66.69   12.40
   6   7  -3  174.18   10.50
   6   7  -3  150.88   18.90
  -6  -7   3  170.18   17.70
  -6  -7   3  151.48   11.80
  -6  -7   3  153.88   15.30
  -6  -7   3  169.68   18.10
   5   7  -3   19.10    4.00
   5   7  -3    8.10    8.80
  -5  -7   3   29.70    9.00
  -5  -7   3   28.20    9.40
  -5  -7   3   16.90   10.90
   4   7  -3    0.60    4.70
   4   7  -3   17.70    7.80
   4   7  -3    3.50    3.40
  -4  -7   3    1.50    7.90
  -4  -7   3   -6.40    8.10
  -4  -7   3  -15.10    8.00
   3   7  -3    4.10    5.20
   3   7  -3   -5.70    7.60
  -3  -7   3   -8.60    7.60
  -3  -7   3  -14.20    7.90
   2   7  -3   75.39    7.90
  -2  -7   3   55.79   10.60
  -2  -7   3   72.09   10.40
   1   7  -3   31.80    6.70
  -1  -7   3   30.70    9.30
  -1  -7   3   49.80    9.00
   0   7  -3   82.39    9.30
   0  -7   3   95.09   12.20
   0  -7   3  135.19   15.70
  -1   7  -3   99.79   11.00
   1  -7   3  132.79   16.10
   1  -7   3  116.79   12.40
  -2   7  -3   22.70    7.00
   2  -7   3   19.80    6.10
   2  -7   3    1.80    8.40
  -3   7  -3   -0.10    6.30
   3  -7   3    2.20    4.90
   3  -7   3   -4.30    7.40
  -4   7  -3   32.30    8.10
  -4   7  -3   40.10    4.10
   4  -7   3   34.30    4.90
   4  -7   3   35.60    9.30
  -5   7  -3   36.30    5.00
  -5   7  -3   24.10    8.00
   5  -7   3   41.80    9.80
   5  -7   3   29.30   10.20
  -6   7  -3   49.10    6.80
  -6   7  -3   44.70    8.90
   6  -7   3   43.40   11.80
   6  -7   3   45.90   11.50
   6  -7   3   38.10   10.90
   8   6  -3    3.90   10.90
  -8  -6   3   12.80   12.50
  -8  -6   3    5.20    9.60
  -8  -6   3   -3.90    8.20
  -8  -6   3   -9.70    9.00
   7   6  -3    8.30    9.60
  -7  -6   3   10.50    8.70
  -7  -6   3   -2.40    6.90
  -7  -6   3    3.70    8.70
  -7  -6   3   -2.40   10.70
   6   6  -3   61.79    6.00
   6   6  -3   74.29   11.00
  -6  -6   3   66.19   10.30
  -6  -6   3   74.69   11.00
  -6  -6   3   58.89   12.40
  -6  -6   3   60.39    7.40
   5   6  -3   63.69    6.50
  -5  -6   3   71.79   10.70
  -5  -6   3   51.09   11.70
  -5  -6   3   49.80   10.00
  -5  -6   3   72.09    8.20
   4   6  -3   99.29    8.60
   4   6  -3   91.59    7.10
  -4  -6   3  117.39   14.00
  -4  -6   3  115.39   14.80
  -4  -6   3   88.99   12.00
   3   6  -3   53.59    5.40
  -3  -6   3   61.09    8.90
  -3  -6   3   53.99    8.40
   2   6  -3   -0.70    5.00
  -2  -6   3    4.10    7.90
   1   6  -3   13.80    5.60
  -1  -6   3   11.20    9.20
  -1  -6   3   13.10    6.90
   0   6  -3  102.29   10.10
   0  -6   3  104.99   11.70
   0  -6   3   86.29   13.00
  -1   6  -3   90.69    9.80
   1  -6   3  117.59   15.00
   1  -6   3   99.99   11.80
  -2   6  -3   16.10    6.10
   2  -6   3    5.90    5.10
   2  -6   3    6.90    7.60
  -3   6  -3  106.99   11.10
  -3   6  -3   99.39    6.20
   3  -6   3  100.09    9.80
   3  -6   3  107.39   12.00
  -4   6  -3   -1.10    6.10
  -4   6  -3    6.60    3.70
   4  -6   3    6.20    7.70
   4  -6   3   -0.70    3.90
  -5   6  -3   17.10    5.40
   5  -6   3    5.70    7.00
   5  -6   3   22.60    3.40
  -6   6  -3   33.90    7.10
   6  -6   3   37.10   10.00
   6  -6   3   24.20   10.30
   6  -6   3   43.70   10.50
  -7   6  -3   40.80    8.20
   7  -6   3   82.49   11.50
   7  -6   3   49.30   11.60
   7  -6   3   41.20   11.30
   9   5  -3   84.99   14.30
  -9  -5   3   62.19   14.20
  -9  -5   3   85.99   12.20
  -9  -5   3  107.29   13.40
   8   5  -3   98.49   13.70
  -8  -5   3  109.89   13.00
  -8  -5   3  117.19   14.70
  -8  -5   3  124.09   16.20
  -8  -5   3  107.69   13.40
   7   5  -3  135.39   16.90
  -7  -5   3  113.09   13.20
  -7  -5   3  125.79   15.40
  -7  -5   3  142.69   16.00
  -6  -5   3   46.70    9.10
  -6  -5   3   45.00    8.90
  -6  -5   3   51.09    7.50
   5   5  -3   70.99    6.70
  -5  -5   3   78.19   10.60
  -5  -5   3   86.39   12.90
  -5  -5   3   78.79    9.20
   4   5  -3   33.90    4.10
   4   5  -3   27.10    4.90
  -4  -5   3   25.60    8.00
  -4  -5   3   31.30    4.80
  -4  -5   3   34.30    9.80
   3   5  -3  148.79    8.70
   3   5  -3  144.29   10.50
  -3  -5   3  160.88   15.40
  -3  -5   3  153.18   16.00
   2   5  -3  519.85   26.80
   2   5  -3  508.75   29.50
   2   5  -3  511.85   25.00
  -2  -5   3  539.25   30.20
  -2  -5   3  529.95   30.10
   1   5  -3  228.88   14.00
   1   5  -3  244.98   18.50
  -1  -5   3  201.88   16.70
  -1  -5   3  231.68   16.30
   0   5  -3   76.99   10.40
   0   5  -3   72.69   11.80
   0  -5   3  100.59   11.30
   0  -5   3  104.99   13.30
  -1   5  -3    5.30    5.50
   1  -5   3   -2.10    3.40
   1  -5   3   -2.60    7.10
   1  -5   3    2.70    5.50
  -2   5  -3   11.90    5.90
  -2   5  -3   16.10    2.30
   2  -5   3   14.40    5.40
   2  -5   3   11.80    7.80
  -3   5  -3   39.60    4.70
   3  -5   3   51.29    9.20
   3  -5   3   32.40    5.40
  -4   5  -3  357.06   20.60
   4  -5   3  379.36   19.60
   4  -5   3  357.86   26.80
  -5   5  -3   61.59    8.00
   5  -5   3   71.69    6.70
   5  -5   3   80.99   10.70
  -6   5  -3   12.30    6.50
   6  -5   3    2.70    8.70
   6  -5   3   37.20    9.00
  -7   5  -3   23.00    8.20
   7  -5   3   16.90    9.60
   7  -5   3   15.80    8.00
  -8   5  -3   52.69   11.00
   8  -5   3   54.29   10.30
   8  -5   3   36.00   10.80
   9   4  -3   18.70   11.50
  -9  -4   3   20.90    9.20
  -9  -4   3   12.70   11.00
  -9  -4   3   21.40   10.10
   8   4  -3  194.78   19.90
   8   4  -3  187.38   17.70
  -8  -4   3  145.99   16.80
  -8  -4   3  135.79   17.80
  -8  -4   3  182.28   17.00
   7   4  -3  162.38   14.80
  -7  -4   3  138.09   16.80
  -7  -4   3  146.59   16.00
   6   4  -3   97.29   10.40
  -6  -4   3  131.49   15.20
  -6  -4   3  119.59   13.10
  -6  -4   3  120.39   13.40
   5   4  -3  131.99   11.90
  -5  -4   3  115.09   11.50
  -5  -4   3  122.69   13.70
  -5  -4   3  128.69   14.70
   4   4  -3   10.00    7.10
   4   4  -3    9.50    5.40
  -4  -4   3   10.60    4.50
  -4  -4   3   16.90    8.30
  -4  -4   3   16.10    7.30
   3   4  -3   22.40    3.10
   3   4  -3   22.20    4.10
   3   4  -3   18.10    5.00
   3   4  -3   21.00    7.60
  -3  -4   3   21.60    4.10
  -3  -4   3   17.20    7.70
   2   4  -3  310.37   17.60
   2   4  -3  365.76   20.80
   2   4  -3  296.97   17.40
   2   4  -3  340.47   16.00
  -2  -4   3  332.47   21.60
   1   4  -3  240.78   15.90
   1   4  -3  197.08   11.20
   1   4  -3  256.47   13.20
  -1  -4   3  174.98   15.50
  -1  -4   3  237.18   16.50
   0   4  -3  217.08   13.20
   0   4  -3  211.28   16.70
   0  -4   3  196.98   15.00
   0  -4   3  221.48   16.10
  -1   4  -3  133.09    8.20
  -1   4  -3  153.08    7.80
   1  -4   3  150.08    8.40
   1  -4   3  155.08   11.90
  -2   4  -3   21.70    3.90
   2  -4   3   22.30    5.40
   2  -4   3   24.50    4.10
  -3   4  -3   64.49    8.30
   3  -4   3   64.99    8.00
  -4   4  -3  212.28   14.90
   4  -4   3  229.68   13.40
   4  -4   3  206.58   17.70
  -5   4  -3   58.99    8.10
   5  -4   3   65.19   10.00
   5  -4   3   45.80   10.30
   5  -4   3   50.29    6.40
  -6   4  -3    2.40    6.80
   6  -4   3    9.90    8.80
   6  -4   3   12.80    8.50
  -7   4  -3   67.39    9.50
   7  -4   3   65.09   11.40
   7  -4   3   63.19    9.90
  -8   4  -3    4.00    7.80
   8  -4   3   -2.40    9.10
  -9   4  -3   19.60    9.00
   9  -4   3   29.90    9.60
   9  -4   3   23.70   10.90
  10   3  -3    9.60   12.00
  10   3  -3    0.20    9.80
 -10  -3   3   -6.50    8.60
 -10  -3   3   -9.40   10.30
 -10  -3   3   -4.90    8.00
 -10  -3   3    8.60   10.80
   9   3  -3  125.69   13.50
   9   3  -3   88.39   14.20
  -9  -3   3  102.39   13.20
  -9  -3   3  106.79   13.90
  -9  -3   3  113.39   14.60
  -9  -3   3  115.69   14.70
   8   3  -3   24.50    9.00
  -8  -3   3   33.50    9.50
  -8  -3   3   28.50    8.90
  -8  -3   3   32.10    8.60
  -8  -3   3   27.40    4.00
   7   3  -3    2.40    6.70
  -7  -3   3    0.60    3.30
  -7  -3   3   -0.10    7.10
  -7  -3   3   -1.30    6.70
  -6  -3   3   84.59   11.30
  -6  -3   3   80.89    6.40
  -6  -3   3   83.29   10.20
   5   3  -3  395.76   25.20
   5   3  -3  379.46   23.80
  -5  -3   3  427.86   23.30
  -5  -3   3  337.57   23.20
  -5  -3   3  439.66   25.20
   4   3  -3  242.78   17.60
   4   3  -3  210.98   15.90
  -4  -3   3  241.58   15.40
  -4  -3   3  241.78   16.90
  -4  -3   3  222.98   18.60
   3   3  -3  521.65   25.10
   3   3  -3  516.15   28.90
   3   3  -3  484.35   27.00
  -3  -3   3  459.55   29.40
  -3  -3   3  609.84   29.20
  -3  -3   3  489.95   26.30
   2   3  -3  115.09   13.10
   2   3  -3  144.89    8.80
   2   3  -3  134.49    9.80
   2   3  -3  131.79    7.30
  -2  -3   3  145.39   13.50
  -2  -3   3  136.69   13.00
  -2  -3   3  137.39    9.20
   1   3  -3    3.40    3.40
   1   3  -3    5.10    5.90
   1   3  -3    9.20    2.90
  -1  -3   3    8.20    4.60
  -1  -3   3   -2.40    5.30
   0   3  -3    3.50    2.30
   0   3  -3    5.10    5.70
   0  -3   3    0.00    5.50
   0  -3   3    1.80    5.10
   1  -3   3  181.08   14.50
   1  -3   3  180.38    9.10
   1  -3   3  155.98   12.30
  -2   3  -3  334.67   17.80
   2  -3   3  321.57   18.70
   2  -3   3  328.97   20.80
  -3   3  -3  463.55   23.70
  -3   3  -3  438.86   23.80
   3  -3   3  421.96   25.70
   3  -3   3  436.86   23.30
  -4   3  -3  217.08   16.10
  -4   3  -3  243.18   14.70
   4  -3   3  252.97   14.30
  -5   3  -3   64.59    8.80
  -5   3  -3   78.39    7.90
   5  -3   3   67.99   10.40
  -6   3  -3    2.20    3.40
  -6   3  -3    9.20    6.70
   6  -3   3    6.20    6.30
  -7   3  -3   88.39    7.80
  -7   3  -3  128.49   13.70
   7  -3   3  111.09   13.00
   7  -3   3   89.19   12.20
  -8   3  -3   78.99   10.80
  -8   3  -3   80.19    6.40
   8  -3   3   80.09   15.10
   8  -3   3   69.59   11.70
  -9   3  -3   77.99   10.60
  -9   3  -3   67.89    5.10
   9  -3   3   57.99    9.70
   9  -3   3   55.89   11.00
 -10   3  -3    9.60    9.90
  10  -3   3   -3.60    9.50
  10  -3   3   -8.80   10.00
  10   2  -3  115.69   13.20
  10   2  -3   60.19   13.80
 -10  -2   3   86.29   12.00
 -10  -2   3   70.89   13.30
 -10  -2   3   90.19   11.50
 -10  -2   3  104.59   12.40
   9   2  -3   43.90   11.30
   9   2  -3   70.09   10.80
  -9  -2   3   65.19    9.30
  -9  -2   3   37.50    4.60
  -9  -2   3   31.50    8.40
  -9  -2   3   50.09   10.30
  -9  -2   3   33.30   10.60
   8   2  -3  406.56   26.10
  -8  -2   3  442.56   29.90
  -8  -2   3  395.06   24.60
  -8  -2   3  362.56   24.00
  -8  -2   3  400.66   19.50
  -8  -2   3  379.26   26.00
   7   2  -3   68.49    9.90
  -7  -2   3   57.49   10.90
  -7  -2   3   58.39    9.80
  -7  -2   3   66.99    5.30
   6   2  -3   96.09   12.00
  -6  -2   3  106.79   13.50
  -6  -2   3   88.29   11.50
  -6  -2   3   79.79   10.40
  -6  -2   3   99.49    6.10
   5   2  -3   64.49    9.70
   5   2  -3   68.09    9.00
  -5  -2   3   74.89   10.50
  -5  -2   3   90.49   11.20
  -5  -2   3   57.79    8.20
  -5  -2   3   96.39    9.20
   4   2  -3   55.49    7.70
   4   2  -3   56.29    8.40
  -4  -2   3   46.00    7.00
  -4  -2   3   55.79    7.50
  -4  -2   3   51.89    7.30
  -4  -2   3   50.49    9.10
   3   2  -3  194.68   13.30
   3   2  -3  174.38   14.70
   3   2  -3  190.88    9.70
  -3  -2   3  190.08   14.10
  -3  -2   3  162.18   14.50
  -3  -2   3  175.38   12.20
   2   2  -3 1922.91   90.99
   2   2  -3 1974.40   92.39
   2   2  -3 1990.90   93.79
  -2  -2   3 1992.00   93.89
  -2  -2   3 1868.41   92.09
  -2  -2   3 1985.90   94.19
   1   2  -3   87.79    7.30
   1   2  -3  103.59   10.70
   1   2  -3   94.39    6.70
  -1  -2   3   86.39   10.60
  -1  -2   3   92.29   10.50
   0   2  -3  236.78   13.00
   0   2  -3  241.68   15.70
   0  -2   3  241.58   15.30
   0  -2   3  233.88   15.90
  -1   2  -3    1.30    4.40
  -1   2  -3    5.20    5.10
   1  -2   3    0.60    4.30
   1  -2   3   -1.90    5.00
  -2   2  -3 1103.89   52.99
   2  -2   3 1085.39   53.89
   2  -2   3 1075.69   52.69
  -3   2  -3  420.36   22.40
  -3   2  -3  426.76   22.60
   3  -2   3  419.56   22.20
   3  -2   3  399.56   23.90
  -4   2  -3  177.88   11.60
  -4   2  -3  170.98   13.10
   4  -2   3  152.48   14.90
   4  -2   3  161.58   11.40
  -5   2  -3  225.68   17.20
  -5   2  -3  259.07   15.30
   5  -2   3  273.37   19.10
  -6   2  -3    7.40    4.40
  -6   2  -3    1.00    6.50
   6  -2   3   14.40    6.30
   6  -2   3   18.80    6.50
  -7   2  -3   16.20    8.00
  -7   2  -3   20.90    5.00
   7  -2   3   16.00    6.50
  -8   2  -3    4.80    4.50
  -8   2  -3    1.00    7.50
   8  -2   3   -2.30    8.30
   8  -2   3   -2.90    6.30
  -9   2  -3   -6.70    6.60
  -9   2  -3   11.90    4.80
   9  -2   3    3.50    8.50
   9  -2   3   17.20    7.00
 -10   2  -3   71.89   11.40
 -10   2  -3   37.40    5.90
  10  -2   3   58.69    9.20
  10  -2   3   51.89   11.80
  10   1  -3   -6.30   10.40
  10   1  -3    2.40    9.80
 -10  -1   3   17.30   11.10
 -10  -1   3   10.40    8.60
 -10  -1   3    2.00   11.70
 -10  -1   3   14.70    8.10
   9   1  -3    7.90    6.90
   9   1  -3    5.80    7.70
  -9  -1   3    6.30    7.60
  -9  -1   3  -21.10   11.60
  -9  -1   3   12.30    6.60
  -9  -1   3    3.50    3.70
  -9  -1   3   15.20    8.30
   8   1  -3  128.29   15.70
  -8  -1   3  121.59   15.90
  -8  -1   3  110.79   13.50
  -8  -1   3  131.99   16.80
  -8  -1   3  119.79    7.80
   7   1  -3  389.06   25.60
  -7  -1   3  373.26   23.70
  -7  -1   3  409.56   19.30
  -7  -1   3  411.26   25.70
  -7  -1   3  391.96   24.90
  -7  -1   3  405.76   26.50
   6   1  -3   31.70    8.90
   6   1  -3   25.80    7.70
  -6  -1   3   21.40    6.50
  -6  -1   3   27.10    8.20
  -6  -1   3    9.10    6.00
   5   1  -3  760.92   41.70
   5   1  -3  830.72   42.70
  -5  -1   3  780.22   40.50
  -5  -1   3  803.32   42.50
  -5  -1   3  824.52   37.10
  -5  -1   3  772.92   41.30
   4   1  -3   44.70    7.10
   4   1  -3   31.10    7.20
  -4  -1   3   29.10    6.30
  -4  -1   3   27.00    6.60
  -4  -1   3   37.90    5.90
  -4  -1   3   27.80    6.60
   3   1  -3    1.80    5.10
   3   1  -3   -2.90    4.30
  -3  -1   3   -3.00    5.30
  -3  -1   3   -2.40    4.30
  -3  -1   3   -1.60    4.90
  -3  -1   3    0.10    4.50
   2   1  -3  369.86   20.50
   2   1  -3  386.86   18.20
   2   1  -3  376.26   21.60
  -2  -1   3  357.86   21.50
  -2  -1   3  390.06   22.40
  -2  -1   3  396.06   20.50
   1   1  -3  528.95   26.40
   1   1  -3  545.85   27.60
  -1  -1   3  504.05   28.00
  -1  -1   3  518.15   27.50
   0   1  -3  131.69   10.20
   0   1  -3  130.89    9.60
   0  -1   3  124.59   10.30
   0  -1   3  119.59   10.30
  -1   1  -3 1060.59   52.29
  -1   1  -3 1072.69   52.49
   1  -1   3 1120.09   52.59
   1  -1   3 1064.89   52.49
  -2   1  -3  610.34   30.80
   2  -1   3  600.94   30.80
   2  -1   3  606.64   31.20
  -3   1  -3  113.49    9.70
   3  -1   3  109.09    9.70
   3  -1   3  130.69   10.80
  -4   1  -3   41.40    5.60
  -4   1  -3   46.00    6.70
   4  -1   3   36.40    5.30
   4  -1   3   27.30    7.20
  -5   1  -3   77.39    9.40
  -5   1  -3  107.99    9.50
   5  -1   3   91.39   10.00
   5  -1   3   96.99   12.30
  -6   1  -3  339.97   22.60
  -6   1  -3  374.86   20.50
   6  -1   3  360.56   20.80
   6  -1   3  345.07   23.40
  -7   1  -3  154.98   12.80
  -7   1  -3  162.48   15.70
   7  -1   3  147.79   16.20
   7  -1   3  145.19   12.80
  -8   1  -3   76.99   11.30
  -8   1  -3  104.79   11.20
   8  -1   3   63.49   11.20
   8  -1   3   95.79   11.30
  -9   1  -3   -1.80    5.70
   9  -1   3    5.40    6.10
   9  -1   3    5.90    8.90
 -10   1  -3   14.20    6.50
 -10   1  -3    5.10    8.90
  10  -1   3   11.70    9.20
  10  -1   3    3.80    6.40
 -11   1  -3   -7.60   10.20
  11  -1   3   18.70   10.80
  10   0  -3  140.99   18.80
  10   0  -3  179.68   21.10
 -10   0   3  177.38   21.40
 -10   0   3  181.38   16.60
 -10   0   3  185.88   15.50
   9   0  -3   32.60    8.40
   9   0  -3   34.20    9.20
  -9   0   3   33.00    8.90
  -9   0   3   43.90    9.00
  -9   0   3   23.00   10.40
   8   0  -3   97.29   11.60
   8   0  -3   73.49   10.00
  -8   0   3   74.79   11.40
  -8   0   3   75.69   10.50
  -8   0   3   63.39    8.70
  -8   0   3   80.19   10.50
   7   0  -3  138.09   13.70
   7   0  -3  137.19   13.60
   7   0  -3  112.19   15.70
  -7   0   3  121.99   12.50
  -7   0   3  137.89   14.50
  -7   0   3  174.78   13.70
   6   0  -3  428.26   22.90
   6   0  -3  304.87   23.90
  -6   0   3  341.87   23.50
  -6   0   3  319.77   20.30
  -6   0   3  346.27   22.20
   5   0  -3  505.95   27.70
   5   0  -3  471.05   29.10
  -5   0   3  496.15   27.90
  -5   0   3  510.25   28.50
  -5   0   3  486.65   26.30
  -5   0   3  472.05   27.80
   4   0  -3  364.46   22.00
   4   0  -3  322.77   21.10
  -4   0   3  346.97   19.40
  -4   0   3  379.96   21.80
  -4   0   3  341.37   21.30
   3   0  -3  625.74   32.30
   3   0  -3  589.14   31.90
  -3   0   3  607.04   32.00
  -3   0   3  619.44   30.60
  -3   0   3  606.74   32.30
  -3   0   3  604.34   32.30
   2   0  -3  976.40   49.30
   2   0  -3 1040.70   49.20
  -2   0   3  977.90   49.30
  -2   0   3 1028.30   49.30
  -2   0   3 1003.50   49.60
   1   0  -3  503.95   22.60
   1   0  -3  460.65   25.30
   1   0  -3  480.45   24.70
   1   0  -3  468.15   24.60
  -1   0   3  459.95   24.90
  -1   0   3  478.55   24.70
  -1   0   3  481.35   24.60
   0   0  -3   14.20    3.60
   0   0  -3   10.70    4.30
   0   0   3   14.60    1.50
   0   0   3   15.90    3.80
   0   0   3   10.80    4.20
  -1   0  -3 1120.49   54.99
  -1   0  -3 1133.49   54.29
   1   0   3 1151.38   54.39
   1   0   3 1148.99   54.99
  -2   0  -3  882.81   43.90
   2   0   3  849.81   43.80
   2   0   3  909.11   43.50
   2   0   3  940.31   44.70
  -3   0  -3  376.96   20.10
   3   0   3  326.17   20.00
   3   0   3  393.56   21.30
  -4   0  -3  233.68   14.70
   4   0   3  205.88   16.30
  -5   0  -3    5.90    4.70
  -5   0  -3    0.10    5.60
  -5   0  -3    1.90    5.60
   5   0   3    1.40    6.40
   5   0   3    0.50    3.40
  -6   0  -3    6.80    6.70
  -6   0  -3   -1.00    4.70
   6   0   3    3.50    4.10
   6   0   3    0.10    5.20
  -7   0  -3  202.68   17.30
  -7   0  -3  206.18   14.40
  -7   0  -3  196.18   19.20
   7   0   3  170.08   17.40
   7   0   3  180.98   13.20
  -8   0  -3   70.49   11.00
  -8   0  -3   91.39    9.60
   8   0   3   73.09    7.90
   8   0   3   53.89   12.40
  -9   0  -3  192.18   15.70
   9   0   3  151.28   18.30
   9   0   3  195.98   13.90
 -10   0  -3   14.50    9.60
  10   0   3    8.30    9.40
 -11   0  -3   14.90    7.40
 -11   0  -3   15.00   10.60
  11   0   3   -1.50    9.90
  10  -1  -3   57.69    9.30
  10  -1  -3   26.80   10.40
  10  -1  -3   22.90   10.60
 -10   1   3   42.40   10.20
 -10   1   3   44.50    9.60
 -10   1   3   36.90   10.60
 -10   1   3   29.10    7.80
   9  -1  -3  128.49   21.70
   9  -1  -3  226.08   17.10
   9  -1  -3  184.58   19.20
  -9   1   3  206.58   17.10
  -9   1   3  184.48   20.20
  -9   1   3  235.28   17.60
   8  -1  -3  126.89   13.00
   8  -1  -3  103.59   12.90
  -8   1   3  110.79   13.80
  -8   1   3  126.69   12.60
  -8   1   3  108.29   12.50
   7  -1  -3   47.60    9.30
   7  -1  -3   44.40    7.50
  -7   1   3   33.60   11.50
  -7   1   3   38.00    6.90
  -7   1   3   49.70    8.80
  -7   1   3   37.50    7.70
   6  -1  -3  131.59   11.70
   6  -1  -3  123.69   13.70
  -6   1   3  128.29   11.30
  -6   1   3  131.79   15.50
  -6   1   3  121.69   12.20
   5  -1  -3    2.20    4.30
   5  -1  -3    6.70    5.40
   5  -1  -3   -2.60    6.80
  -5   1   3    1.60    4.70
  -5   1   3    3.90    4.30
  -5   1   3    4.90    7.30
  -5   1   3    9.10    5.80
   4  -1  -3  111.09   11.20
   4  -1  -3  113.99   11.80
  -4   1   3   99.89   10.30
  -4   1   3  109.59    6.00
  -4   1   3   87.79    8.50
  -4   1   3  123.09   10.70
  -4   1   3  107.99   12.30
   3  -1  -3  208.18   15.50
   3  -1  -3  228.38   15.30
  -3   1   3  222.58   12.60
  -3   1   3  220.88   14.70
  -3   1   3  231.28   16.40
  -3   1   3  234.08   10.90
  -3   1   3  224.98   15.50
   2  -1  -3 1503.65   67.89
   2  -1  -3 1422.06   67.79
   2  -1  -3 1366.06   67.39
  -2   1   3 1406.36   67.79
  -2   1   3 1349.56   65.69
  -2   1   3 1389.96   67.49
   1  -1  -3 2622.74  118.79
   1  -1  -3 2603.64  120.39
   1  -1  -3 2512.65  120.39
   1  -1  -3 2487.05  119.69
  -1   1   3 2680.13  120.49
  -1   1   3 2504.95  120.39
  -1   1   3 2526.55  119.99
   0  -1  -3  991.80   45.40
   0  -1  -3  972.90   46.00
   0  -1  -3  970.30   47.30
   0   1   3  929.21   47.20
   0   1   3  970.00   46.00
   0   1   3 1016.60   46.50
   0   1   3  944.81   45.40
  -1  -1  -3   39.80    4.10
  -1  -1  -3   38.30    5.40
   1   1   3   36.70    5.30
   1   1   3   41.30    4.20
   1   1   3   41.80    3.60
   1   1   3   47.10    6.40
  -2  -1  -3  730.33   37.50
  -2  -1  -3  822.82   38.70
   2   1   3  703.03   37.40
   2   1   3  759.82   38.40
  -3  -1  -3   54.79    6.60
  -3  -1  -3   41.00    7.70
   3   1   3   58.89    8.00
   3   1   3   43.40    6.10
  -4  -1  -3 2150.38  105.09
  -4  -1  -3 2323.77  103.29
   4   1   3 2039.10  104.49
   4   1   3 2147.69  100.89
  -5  -1  -3  174.58   17.10
  -5  -1  -3  192.08   15.00
  -5  -1  -3  222.38   14.40
   5   1   3  188.38   11.00
   5   1   3  155.68   15.90
  -6  -1  -3  148.89   12.50
  -6  -1  -3  128.69   13.60
  -6  -1  -3  160.78   16.40
   6   1   3  134.19    9.60
   6   1   3  109.29   15.00
  -7  -1  -3  152.98   14.40
  -7  -1  -3  175.08   16.20
   7   1   3  162.88   16.60
  -8  -1  -3  101.29   12.70
  -8  -1  -3   87.09   11.50
  -8  -1  -3  135.19   16.50
  -9  -1  -3   20.80    9.80
   9   1   3   -7.20    8.50
 -10  -1  -3   63.29    9.60
 -10  -1  -3   54.39   11.20
 -10  -1  -3   58.29   11.70
  10   1   3   59.79   11.50
 -11  -1  -3   19.20   10.50
 -11  -1  -3   30.90   10.40
 -11  -1  -3   37.40    9.10
  11   1   3    0.80    9.90
  11   1   3   26.10    9.90
  10  -2  -3   37.00    8.30
  10  -2  -3   19.10   10.00
  10  -2  -3   32.50    9.00
 -10   2   3   35.20    7.20
 -10   2   3   29.10   12.20
 -10   2   3   26.70    9.10
   9  -2  -3    1.00    8.60
   9  -2  -3   14.60    7.00
   9  -2  -3   13.80    7.80
  -9   2   3   10.90    8.10
  -9   2   3   15.40    6.20
  -9   2   3    7.30    8.90
   8  -2  -3   -0.40    6.30
   8  -2  -3    3.30    5.90
  -8   2   3    0.60    6.70
  -8   2   3   10.10    5.80
   7  -2  -3  369.86   25.50
   7  -2  -3  382.66   22.50
  -7   2   3  418.46   25.30
  -7   2   3  415.46   22.70
  -7   2   3  353.16   22.30
   6  -2  -3  473.15   25.00
   6  -2  -3  452.65   28.00
  -6   2   3  448.36   28.60
  -6   2   3  443.36   25.20
  -6   2   3  465.95   25.10
   5  -2  -3  288.57   18.30
   5  -2  -3  230.98   14.80
  -5   2   3  250.07   13.40
  -5   2   3  262.27   19.00
  -5   2   3  222.68   14.80
  -5   2   3  250.07   15.70
  -5   2   3  242.88   18.60
   4  -2  -3   71.79    9.40
   4  -2  -3   94.29    7.70
  -4   2   3   99.69    6.70
  -4   2   3   89.99   11.50
  -4   2   3  105.59    7.90
  -4   2   3  110.49   13.00
  -4   2   3   97.29    9.30
   3  -2  -3   95.19    6.10
   3  -2  -3   92.39   10.40
   3  -2  -3   96.19    8.30
  -3   2   3  102.19    8.50
  -3   2   3   95.29   12.40
  -3   2   3   90.39   10.70
  -3   2   3  101.99    6.20
   2  -2  -3  566.84   28.20
   2  -2  -3  548.05   28.80
  -2   2   3  544.75   26.60
  -2   2   3  572.04   29.40
  -2   2   3  552.54   30.20
  -2   2   3  552.14   28.20
   1  -2  -3 1264.27   60.39
   1  -2  -3 1269.27   59.89
   1  -2  -3 1327.17   58.49
   1  -2  -3 1307.47   58.79
  -1   2   3 1267.37   59.89
  -1   2   3 1096.39   61.19
  -1   2   3 1210.58   60.29
   0  -2  -3  310.97   15.60
   0  -2  -3  334.47   16.10
   0  -2  -3  317.17   17.30
   0  -2  -3  318.77   15.70
   0   2   3  305.17   17.30
   0   2   3  268.27   17.80
   0   2   3  316.47   15.60
   0   2   3  301.77   16.20
  -1  -2  -3  144.39   10.00
  -1  -2  -3  149.79   10.30
   1   2   3  137.09    7.90
   1   2   3  112.89    9.70
   1   2   3  141.19    9.30
   1   2   3  109.79    9.20
  -2  -2  -3 1220.18   60.59
  -2  -2  -3 1317.87   59.89
   2   2   3 1376.56   59.89
   2   2   3 1159.78   57.99
   2   2   3 1097.19   60.39
  -3  -2  -3  201.18   13.40
  -3  -2  -3  156.38   14.30
   3   2   3  156.88   14.20
  -4  -2  -3   57.79    7.20
  -4  -2  -3   56.49    8.30
   4   2   3   47.20    8.00
  -5  -2  -3  514.85   29.00
  -5  -2  -3  503.15   30.70
   5   2   3  514.35   29.80
  -6  -2  -3   10.20    5.50
  -6  -2  -3   17.20    7.90
   6   2   3    3.50    6.10
  -7  -2  -3  817.82   47.70
  -7  -2  -3 1050.09   49.70
   7   2   3  873.81   49.30
  -8  -2  -3  175.48   17.60
   8   2   3  184.88   16.50
   8   2   3   97.19   23.50
  -9  -2  -3   18.70    7.60
  -9  -2  -3   35.30    9.40
   9   2   3   34.40   10.20
 -10  -2  -3   30.10   10.20
 -10  -2  -3   38.70    9.40
 -10  -2  -3  -18.50    8.60
  10   2   3   14.50    9.50
 -11  -2  -3   67.29   12.00
 -11  -2  -3   75.69   12.50
 -11  -2  -3   67.29   12.60
  11   2   3   72.09   12.90
  11   2   3   68.49   10.80
  10  -3  -3   18.40   10.70
  10  -3  -3   42.60    8.20
  10  -3  -3   33.70   11.40
 -10   3   3   35.50    9.80
 -10   3   3   35.90    6.30
 -10   3   3   54.89   13.20
 -10   3   3   31.80    6.30
   9  -3  -3   34.00   10.00
   9  -3  -3    5.10    6.30
  -9   3   3    7.60    5.10
  -9   3   3   14.60   10.50
  -9   3   3   19.30    8.70
   8  -3  -3    0.80    8.20
   8  -3  -3    2.60    5.80
  -8   3   3    1.10    7.80
  -8   3   3    1.60    4.80
  -8   3   3   -0.60    4.40
   7  -3  -3   18.60    5.50
   7  -3  -3   16.00    8.90
  -7   3   3   11.10    8.00
  -7   3   3   15.60    5.10
  -7   3   3   10.10    4.50
  -7   3   3   20.60    8.80
   6  -3  -3    9.10    5.00
   6  -3  -3   12.80    6.20
  -6   3   3   12.10    8.40
  -6   3   3   30.00    7.70
  -6   3   3   17.90    4.60
  -6   3   3   12.60    4.50
   5  -3  -3  190.48   17.30
   5  -3  -3  193.68   12.50
   5  -3  -3  192.08   15.20
  -5   3   3  184.28   11.70
  -5   3   3  203.18   16.90
  -5   3   3  185.18   12.50
   4  -3  -3  628.84   31.10
   4  -3  -3  642.64   34.10
   4  -3  -3  636.84   35.70
  -4   3   3  630.94   34.20
  -4   3   3  617.74   31.60
  -4   3   3  637.34   30.90
  -4   3   3  620.84   35.60
   3  -3  -3  436.96   22.20
   3  -3  -3  415.66   25.10
   3  -3  -3  393.66   21.10
   3  -3  -3  427.16   24.40
  -3   3   3  447.26   22.40
  -3   3   3  448.46   24.60
  -3   3   3  439.96   21.70
  -3   3   3  423.36   26.20
   2  -3  -3  814.32   38.60
   2  -3  -3  797.12   40.00
   2  -3  -3  721.13   41.30
   2  -3  -3  822.92   37.90
   2  -3  -3  815.22   37.10
  -2   3   3  718.43   41.40
  -2   3   3  800.12   38.00
  -2   3   3  798.72   38.70
  -2   3   3  809.22   40.10
   1  -3  -3  353.46   18.10
   1  -3  -3  386.56   17.80
   1  -3  -3  352.56   19.90
   1  -3  -3  316.07   21.20
   1  -3  -3  373.56   18.50
   1  -3  -3  365.56   19.30
  -1   3   3  345.07   21.30
  -1   3   3  368.26   19.30
  -1   3   3  341.47   18.10
   0  -3  -3   58.99    5.40
   0  -3  -3   49.30    6.80
   0  -3  -3   80.89    6.50
   0  -3  -3   67.19    5.10
   0  -3  -3   66.69    7.30
   0   3   3   67.09    7.20
   0   3   3   71.79    5.90
   0   3   3   60.29    5.80
   0   3   3   74.79    8.10
  -1  -3  -3 2124.09  101.79
  -1  -3  -3 2018.10   99.49
  -1  -3  -3 2175.58  100.49
  -1  -3  -3 2160.78  100.29
  -1  -3  -3 2080.49  101.59
   1   3   3 2138.39  100.39
   1   3   3 2245.38  101.39
   1   3   3 2254.17  101.19
  -2  -3  -3 1335.17   72.89
  -2  -3  -3 1597.04   74.69
  -2  -3  -3 1467.95   75.09
  -2  -3  -3 1526.65   72.19
   2   3   3 1580.74   72.19
   2   3   3 1745.23   75.39
   2   3   3 1617.74   72.99
  -3  -3  -3  342.27   21.90
  -3  -3  -3  376.86   22.50
   3   3   3  384.76   19.20
   3   3   3  415.56   23.60
  -4  -3  -3  480.75   29.70
   4   3   3  564.64   26.80
   4   3   3  494.55   30.30
  -5  -3  -3   13.60    7.70
   5   3   3    8.80    8.10
   5   3   3   24.80    5.60
  -6  -3  -3    0.10    4.90
   6   3   3    6.40    6.50
   6   3   3    5.10    5.80
  -7  -3  -3   -1.60    7.50
  -7  -3  -3    2.10    5.50
   7   3   3    5.90    6.40
   7   3   3   -4.50    8.80
  -8  -3  -3  261.17   21.60
  -8  -3  -3  316.17   21.00
   8   3   3  272.17   20.40
   8   3   3  313.67   24.30
  -9  -3  -3  105.69   13.70
  -9  -3  -3  129.29   16.10
   9   3   3  150.98   18.30
   9   3   3  134.29   20.30
 -10  -3  -3   49.30    9.40
 -10  -3  -3   37.60    8.80
  10   3   3   56.79   12.10
 -11  -3  -3   70.39   12.10
 -11  -3  -3   59.59   12.10
  11   3   3   89.69   12.10
  11   3   3   82.19   13.70
  10  -4  -3    1.00    8.30
  10  -4  -3    3.40    6.80
 -10   4   3    5.60   12.20
 -10   4   3   -5.20    5.40
 -10   4   3   -0.40    3.70
   9  -4  -3    6.90    6.00
   9  -4  -3   16.40    9.50
  -9   4   3   -2.70    5.40
  -9   4   3    8.80   10.90
  -9   4   3    2.20    3.70
  -9   4   3   13.60    8.50
   8  -4  -3  519.25   27.70
   8  -4  -3  502.75   29.80
  -8   4   3  577.74   31.80
  -8   4   3  512.55   26.60
  -8   4   3  473.85   25.50
  -8   4   3  465.35   31.40
   7  -4  -3  143.09   11.90
   7  -4  -3  124.59   16.20
  -7   4   3  123.09   11.10
  -7   4   3  126.29    9.30
  -7   4   3  168.98   17.60
   6  -4  -3   34.90    5.80
   6  -4  -3   45.70    9.50
   6  -4  -3   39.90    8.10
  -6   4   3   58.69   10.00
  -6   4   3   35.00    9.20
  -6   4   3   57.59    6.50
  -6   4   3   34.60    6.20
   5  -4  -3    7.70    4.10
   5  -4  -3   12.50    7.90
  -5   4   3    9.00    7.10
  -5   4   3   21.40    5.00
  -5   4   3   15.60    3.60
   4  -4  -3   47.50    9.20
   4  -4  -3   31.60    4.60
   4  -4  -3   53.99    7.80
  -4   4   3   53.59    7.90
  -4   4   3   39.90    5.60
  -4   4   3   45.40    6.10
  -4   4   3   41.80    8.50
   3  -4  -3  315.97   16.10
   3  -4  -3  320.77   18.90
   3  -4  -3  313.67   16.10
   3  -4  -3  279.87   20.50
  -3   4   3  271.57   20.80
  -3   4   3  296.87   16.30
  -3   4   3  312.17   16.70
  -3   4   3  289.77   18.90
   2  -4  -3  703.53   34.50
   2  -4  -3  693.83   35.70
   2  -4  -3  713.33   37.50
  -2   4   3  696.23   34.60
  -2   4   3  721.13   38.10
  -2   4   3  716.63   36.20
  -2   4   3  687.63   34.50
   1  -4  -3  373.46   19.40
   1  -4  -3  363.06   19.90
   1  -4  -3  378.06   20.80
   1  -4  -3  368.46   19.40
   1  -4  -3  378.96   22.60
  -1   4   3  406.86   21.90
  -1   4   3  354.06   19.50
   0  -4  -3   25.80    4.40
   0  -4  -3   17.70    4.80
   0  -4  -3   23.20    5.90
   0  -4  -3   32.70    4.60
   0  -4  -3   27.20    4.90
   0   4   3   33.80    5.80
   0   4   3   27.10    4.70
   0   4   3   25.00    4.60
  -1  -4  -3  745.83   37.40
  -1  -4  -3  749.82   39.10
  -1  -4  -3  816.62   39.30
  -1  -4  -3  814.52   39.20
  -1  -4  -3  768.12   37.80
   1   4   3  743.13   37.70
   1   4   3  810.72   38.80
  -2  -4  -3    6.30    5.40
  -2  -4  -3   17.80    4.10
  -2  -4  -3   21.80    3.80
  -2  -4  -3   15.70    3.20
   2   4   3   12.50    3.20
   2   4   3   16.30    5.40
   2   4   3   14.70    3.50
  -3  -4  -3  536.55   27.30
  -3  -4  -3  558.24   27.20
  -3  -4  -3  538.15   30.50
   3   4   3  570.64   30.60
   3   4   3  539.05   27.30
  -4  -4  -3  264.47   19.00
   4   4   3  259.67   15.40
   4   4   3  278.07   18.50
  -5  -4  -3  372.16   23.90
   5   4   3  387.76   21.70
   5   4   3  434.76   25.40
  -6  -4  -3  551.74   30.60
  -6  -4  -3  552.04   25.50
   6   4   3  543.45   29.60
   6   4   3  499.55   32.80
  -7  -4  -3   38.50    8.60
  -7  -4  -3   36.30    3.50
  -7  -4  -3   26.00    9.00
   7   4   3   42.30    7.70
   7   4   3   36.10   10.60
  -8  -4  -3  117.49   14.70
  -8  -4  -3  100.59   15.70
   8   4   3   93.19   12.60
   8   4   3  103.59   11.50
  -9  -4  -3   21.70    9.30
  -9  -4  -3   17.30    9.00
   9   4   3   13.50   10.40
 -10  -4  -3   27.00   10.00
 -10  -4  -3   36.10    9.90
  10   4   3   67.29   12.90
 -11  -4  -3   84.19   13.30
 -11  -4  -3   88.69   13.20
  11   4   3  105.29   14.40
  11   4   3   96.89   12.40
   9  -5  -3   22.70   11.10
   9  -5  -3   12.30    6.50
  -9   5   3    2.90    9.60
  -9   5   3   -4.90    5.80
   8  -5  -3   -0.30    5.50
   8  -5  -3   -9.50    9.50
   8  -5  -3    8.10    9.30
  -8   5   3    6.80    6.00
  -8   5   3   10.40    8.50
   7  -5  -3  149.29   16.20
   7  -5  -3  128.59   11.90
  -7   5   3  151.88   11.90
   6  -5  -3   43.20    6.20
   6  -5  -3   46.70    9.10
   6  -5  -3   37.80    9.80
  -6   5   3   43.40   10.70
  -6   5   3   55.29    7.90
  -6   5   3   51.69   10.80
   5  -5  -3  126.09   16.20
   5  -5  -3  166.28   11.60
  -5   5   3  170.28   15.10
  -5   5   3  147.49   16.80
  -5   5   3  160.98   12.00
   4  -5  -3   25.10    6.60
   4  -5  -3   27.70    8.30
   4  -5  -3   31.90    5.10
  -4   5   3   36.70    6.30
  -4   5   3   38.80    7.10
   3  -5  -3  122.39   13.90
   3  -5  -3  106.89   11.00
   3  -5  -3  113.89    7.90
  -3   5   3  110.59   11.30
  -3   5   3  124.29    9.80
  -3   5   3  137.49   12.50
   2  -5  -3   24.50    4.10
   2  -5  -3   27.50    7.40
   2  -5  -3   18.40    5.60
  -2   5   3   19.60    5.40
  -2   5   3   23.20    5.40
   1  -5  -3  689.83   36.70
   1  -5  -3  698.53   34.10
   1  -5  -3  713.73   34.10
   1  -5  -3  642.94   34.50
  -1   5   3  675.13   34.20
   0  -5  -3  245.58   14.20
   0  -5  -3  233.28   14.80
   0  -5  -3  243.58   16.50
   0  -5  -3  240.38   14.70
   0  -5  -3  235.28   14.80
   0  -5  -3  231.18   14.90
   0   5   3  233.38   14.30
   0   5   3  235.98   13.30
  -1  -5  -3  726.63   36.30
  -1  -5  -3  752.02   37.80
  -1  -5  -3  738.93   37.60
  -1  -5  -3  744.63   36.40
  -1  -5  -3  722.53   37.50
   1   5   3  743.93   36.10
   1   5   3  717.53   36.50
  -2  -5  -3  332.47   18.20
  -2  -5  -3  318.77   20.10
  -2  -5  -3  341.47   19.20
  -2  -5  -3  323.27   18.30
   2   5   3  343.57   18.20
   2   5   3  331.37   18.30
  -3  -5  -3   17.10    6.30
  -3  -5  -3    9.00    4.00
  -3  -5  -3   15.00    4.40
   3   5   3   16.20    4.30
   3   5   3   13.60    6.60
   3   5   3   11.20    4.90
  -4  -5  -3   81.89   10.10
  -4  -5  -3   80.79    9.00
   4   5   3   84.89   10.60
   4   5   3   75.99    8.50
  -5  -5  -3  376.26   22.00
  -5  -5  -3  374.96   24.60
   5   5   3  398.56   22.20
   5   5   3  449.56   25.50
  -6  -5  -3  195.48   15.90
  -6  -5  -3  181.98   17.60
   6   5   3  215.28   19.30
   6   5   3  198.78   14.30
  -7  -5  -3   30.90    3.50
  -7  -5  -3   26.90    8.10
  -7  -5  -3   28.60    8.80
   7   5   3   32.20    7.00
  -8  -5  -3  249.97   21.10
  -8  -5  -3  251.27   20.20
  -8  -5  -3  276.07   13.80
   8   5   3  255.57   23.80
   8   5   3  284.87   20.30
  -9  -5  -3   87.59    5.80
  -9  -5  -3   75.79   12.20
  -9  -5  -3   68.19   11.10
   9   5   3   77.09   13.40
   9   5   3   76.89   12.40
 -10  -5  -3   -3.00    9.20
 -10  -5  -3   -0.10    9.50
  10   5   3    1.40   11.40
 -11  -5  -3    0.80    9.80
 -11  -5  -3   -4.30   10.20
  11   5   3  -22.90   11.10
  11   5   3    1.80   10.10
   9  -6  -3   48.50    8.10
   9  -6  -3   64.49   12.90
   9  -6  -3   53.29   12.70
  -9   6   3   24.70   11.80
  -9   6   3   60.19    8.40
   8  -6  -3   44.10   10.90
   8  -6  -3   36.60    7.20
   8  -6  -3   45.00   11.20
  -8   6   3   41.20   10.60
  -8   6   3   55.39    8.10
   7  -6  -3    5.00    8.80
   7  -6  -3    8.10    9.40
   7  -6  -3   12.20    5.80
  -7   6   3   16.00    6.70
   6  -6  -3   -1.40    7.20
   6  -6  -3   -2.10    5.10
  -6   6   3   10.70    6.10
  -6   6   3    1.20    7.60
   5  -6  -3  -12.20    6.50
   5  -6  -3    6.90    5.00
  -5   6   3   11.10    6.90
  -5   6   3    2.50    6.10
   4  -6  -3  540.15   33.80
   4  -6  -3  637.44   31.10
  -4   6   3  555.54   29.90
  -4   6   3  552.74   31.00
   3  -6  -3  219.58   14.70
   3  -6  -3  200.58   17.60
   3  -6  -3  198.08   11.20
  -3   6   3  178.98   15.20
  -3   6   3  216.48   14.60
   2  -6  -3  258.97   16.50
   2  -6  -3  265.57   14.80
   2  -6  -3  266.57   19.30
  -2   6   3  252.47   16.00
   1  -6  -3   24.00    4.80
   1  -6  -3   16.70    5.90
   1  -6  -3   29.90    5.50
   1  -6  -3   21.80    7.30
  -1   6   3   24.80    6.10
   0  -6  -3   48.30    6.80
   0  -6  -3   41.20    6.40
   0  -6  -3   48.50    7.90
   0  -6  -3   39.80    6.50
   0  -6  -3   43.30    5.90
   0   6   3   34.80    6.00
   0   6   3   50.99    7.00
  -1  -6  -3    4.20    5.30
  -1  -6  -3    8.40    5.30
  -1  -6  -3    3.60    4.50
   1   6   3    3.80    4.80
   1   6   3   -0.10    3.90
  -2  -6  -3  841.22   43.90
  -2  -6  -3  899.31   43.30
  -2  -6  -3  814.62   42.10
   2   6   3  849.61   41.70
  -3  -6  -3  313.57   20.60
  -3  -6  -3  304.87   18.20
   3   6   3  313.47   17.90
   3   6   3  302.77   16.90
  -4  -6  -3   36.70    6.00
   4   6   3   44.10    6.30
   4   6   3   36.20    7.60
   4   6   3   33.30    6.10
  -5  -6  -3  378.06   21.80
  -5  -6  -3  385.26   24.30
   5   6   3  340.07   19.90
   5   6   3  403.56   25.50
   5   6   3  361.76   21.20
  -6  -6  -3   25.30    6.20
  -6  -6  -3   22.00    7.00
  -6  -6  -3   17.60    7.10
   6   6   3   24.30   11.60
   6   6   3   26.80    6.40
  -7  -6  -3  128.69   13.80
  -7  -6  -3  102.79   14.90
   7   6   3  126.69   12.60
  -8  -6  -3  120.99   15.50
  -8  -6  -3   79.09   11.20
  -8  -6  -3  106.89    7.80
   8   6   3  109.89   14.10
  -9  -6  -3  139.99    8.30
  -9  -6  -3  102.19   14.00
  -9  -6  -3  129.09   15.40
   9   6   3  130.19   15.50
   9   6   3  105.59   15.40
 -10  -6  -3   79.99   13.40
 -10  -6  -3  140.29   16.40
 -10  -6  -3   98.19    6.30
  10   6   3  100.19   16.10
 -11  -6  -3   12.90   10.70
 -11  -6  -3    6.50   10.10
  11   6   3   23.50   10.40
  11   6   3   21.10   14.60
   8  -7  -3   -1.20    8.10
   8  -7  -3   11.70   11.00
   8  -7  -3   11.80    6.90
  -8   7   3    8.80    6.60
  -8   7   3    6.30   10.10
   7  -7  -3   74.79   10.90
   7  -7  -3   74.29   12.00
   7  -7  -3   76.79    9.00
  -7   7   3   95.29    9.90
   6  -7  -3    2.40   12.90
   6  -7  -3   32.50    9.50
   6  -7  -3   27.20    6.70
  -6   7   3   41.70    7.60
  -6   7   3   28.30    8.40
   5  -7  -3   51.09    7.30
   5  -7  -3   54.89    8.90
  -5   7   3   35.40    8.20
  -5   7   3   47.80    7.60
  -4   7   3   -6.80    5.60
  -4   7   3   -4.90    5.40
   3  -7  -3   40.00    6.80
   3  -7  -3   44.50    4.90
   3  -7  -3   27.20    9.40
  -3   7   3   32.50    7.20
   2  -7  -3  179.88   13.00
   2  -7  -3  193.98   17.40
   2  -7  -3  194.58   12.10
  -2   7   3  207.88   14.30
   1  -7  -3  464.35   25.30
   1  -7  -3  462.45   26.70
   1  -7  -3  501.75   28.80
   1  -7  -3  488.55   25.20
  -1   7   3  484.25   26.20
   0  -7  -3   39.70    7.00
   0  -7  -3   38.60    5.50
   0  -7  -3   40.30    7.60
   0  -7  -3   33.90    7.90
   0  -7  -3   46.60    6.60
   0   7   3   44.60    7.50
   0   7   3   36.70    5.60
  -1  -7  -3   57.49    7.70
  -1  -7  -3   69.69    8.80
  -1  -7  -3   60.69    8.60
  -1  -7  -3   71.59    7.80
   1   7   3   54.49    7.80
   1   7   3   69.89    7.50
  -2  -7  -3   26.30    6.60
  -2  -7  -3   44.10    7.00
  -2  -7  -3   22.80    6.00
   2   7   3   22.30    5.90
   2   7   3   25.50    6.90
  -3  -7  -3   90.49   10.20
   3   7   3   84.09   10.00
   3   7   3   86.29    8.40
  -4  -7  -3  454.85   25.80
  -4  -7  -3  459.35   27.90
   4   7   3  456.75   24.50
   4   7   3  474.65   26.00
  -5  -7  -3  175.68   17.30
  -5  -7  -3  214.68   15.60
   5   7   3  213.78   15.40
   5   7   3  180.98   13.30
  -6  -7  -3   46.90    7.50
   6   7   3   40.40    7.10
  -7  -7  -3   35.60    7.10
  -7  -7  -3   52.49   10.60
  -7  -7  -3   38.10    8.40
   7   7   3   47.10    7.90
  -8  -7  -3    0.10    9.20
  -8  -7  -3    3.90    7.60
   8   7   3   -4.10    8.00
  -9  -7  -3   10.80    9.60
  -9  -7  -3    4.50    3.80
  -9  -7  -3   11.90    8.40
   9   7   3   12.40   11.60
 -10  -7  -3   13.40    3.30
 -10  -7  -3   27.70   10.00
 -10  -7  -3   11.10   10.50
  10   7   3   13.10   12.80
  10   7   3   35.60   10.20
   7  -8  -3  -15.30    9.60
   7  -8  -3   -3.30    7.30
   7  -8  -3    4.90    8.20
  -7   8   3    7.80    8.70
  -7   8   3  -11.90    6.30
   6  -8  -3   47.60   10.30
   6  -8  -3   32.40   10.70
   6  -8  -3   33.90    7.70
  -6   8   3   30.20    8.50
  -6   8   3   34.60    8.10
   5  -8  -3   72.29   10.00
  -5   8   3   67.49    9.20
  -5   8   3   64.29    9.20
  -4   8   3  110.09   11.80
   3  -8  -3   37.90   10.30
   3  -8  -3   53.39    5.20
   3  -8  -3   62.89    8.10
   3  -8  -3   69.79   10.60
  -3   8   3   58.69    8.50
   2  -8  -3   -6.30    6.50
   2  -8  -3   -1.70    4.10
   2  -8  -3    2.70    7.80
   2  -8  -3    2.00    4.90
  -2   8   3   -4.10    6.10
   1  -8  -3   22.70    5.60
   1  -8  -3   19.80   12.50
   1  -8  -3   23.40    5.10
  -1   8   3   19.50    6.90
   0  -8  -3   43.50    5.80
   0  -8  -3   58.09    8.80
   0  -8  -3   63.09    8.00
   0   8   3   49.50    8.30
   0   8   3   40.70    7.20
  -1  -8  -3  102.89    9.40
  -1  -8  -3  130.69   10.70
  -1  -8  -3   97.19   13.00
   1   8   3  118.69   10.40
   1   8   3  112.99    9.60
  -2  -8  -3  139.39   14.20
  -2  -8  -3  138.89   13.80
   2   8   3  163.58   12.60
   2   8   3  144.39   11.40
  -3  -8  -3   31.00    8.50
   3   8   3   38.50    7.20
   3   8   3   44.30    6.80
  -4  -8  -3  208.88   15.70
   4   8   3  167.28   14.30
   4   8   3  183.38   13.10
  -5  -8  -3   30.70    9.30
  -5  -8  -3   26.20    6.40
   5   8   3   40.50    8.10
   5   8   3   26.40    6.90
  -6  -8  -3    2.70    8.50
  -6  -8  -3    8.80    6.60
  -6  -8  -3    3.20    6.00
   6   8   3   13.60    6.30
   6   8   3   14.10    6.80
  -7  -8  -3  195.38   18.90
  -7  -8  -3  211.18   15.80
  -7  -8  -3  173.48   15.20
   7   8   3  164.08   18.40
   7   8   3  172.28   13.40
  -8  -8  -3  121.29   15.10
  -8  -8  -3  155.78   18.30
   8   8   3  172.48   17.80
   8   8   3  152.48   12.70
  -9  -8  -3   13.20    9.80
  -9  -8  -3   29.10    9.00
   9   8   3   38.60    9.00
   6  -9  -3    4.40    9.30
   6  -9  -3    4.40    7.90
   6  -9  -3   -8.80   11.30
  -6   9   3    3.50    6.80
   5  -9  -3   34.00    9.30
   5  -9  -3   26.40   10.70
  -5   9   3   33.30    8.30
   4  -9  -3   31.20    8.40
   4  -9  -3   43.70   10.50
  -4   9   3   34.40    8.40
   3  -9  -3   59.29    5.00
   3  -9  -3   66.49   11.30
   3  -9  -3   63.89   10.50
   3  -9  -3   65.79    8.40
  -3   9   3   76.39    9.50
   2  -9  -3  108.89   10.40
   2  -9  -3  140.59   15.60
   2  -9  -3   93.79   12.60
   2  -9  -3  109.59    9.60
  -2   9   3  126.19   12.20
   1  -9  -3   11.50    4.80
   1  -9  -3   13.20    7.50
   1  -9  -3   19.20    7.80
   1  -9  -3   23.20    5.80
   1  -9  -3   28.80    8.90
  -1   9   3   19.50    6.00
   0  -9  -3    7.10    7.20
   0  -9  -3    9.80    7.70
   0  -9  -3    5.10    6.40
   0  -9  -3   18.60    4.30
   0  -9  -3   21.90    7.60
   0   9   3   18.60    5.70
  -1  -9  -3    2.00    7.10
  -1  -9  -3   -0.10    3.80
  -1  -9  -3   12.70    7.70
  -1  -9  -3    2.20    7.50
   1   9   3    3.70    6.20
   1   9   3   10.80    6.50
  -2  -9  -3  247.08   19.50
  -2  -9  -3  248.78   18.00
  -2  -9  -3  238.58   14.50
   2   9   3  266.87   16.10
   2   9   3  255.97   16.90
  -3  -9  -3  461.95   27.30
  -3  -9  -3  432.56   25.80
   3   9   3  432.16   24.00
  -4  -9  -3   38.70    8.00
  -4  -9  -3   44.20    9.70
  -4  -9  -3   31.90    5.90
   4   9   3   32.40    7.90
   4   9   3   40.70    7.10
  -5  -9  -3    3.30    5.30
  -5  -9  -3    6.20    8.70
  -5  -9  -3   -6.10    7.00
   5   9   3    2.70    5.90
   5   9   3   -6.20   12.10
  -6  -9  -3   -1.30    8.80
  -6  -9  -3   -0.40    6.10
  -6  -9  -3    6.10   13.20
   6   9   3    3.00    7.10
   6   9   3    8.50    6.10
  -7  -9  -3    6.30    9.70
  -7  -9  -3   -0.60    8.60
  -7  -9  -3   -4.10    7.20
   7   9   3   -1.00    6.20
  -8  -9  -3  217.68   19.60
  -8  -9  -3  188.68   18.00
  -8  -9  -3  167.88   20.50
   8   9   3  240.28   19.20
   8   9   3  204.18   14.40
   3 -10  -3    7.10    2.50
   3 -10  -3   10.80    6.30
   3 -10  -3   -4.90    8.20
   3 -10  -3   10.30    9.50
  -3  10   3   10.80    5.90
   2 -10  -3   19.70    5.60
   2 -10  -3   36.40    9.50
   2 -10  -3    4.40    9.70
   2 -10  -3   11.80    5.00
  -2  10   3   20.10    7.60
   1 -10  -3   21.80    6.30
   1 -10  -3    9.00    8.40
   1 -10  -3   27.70    5.10
   1 -10  -3   31.10    9.40
   1 -10  -3   27.10    8.90
  -1  10   3   28.00    7.90
   0 -10  -3   64.29   10.90
   0 -10  -3   84.79   11.00
   0 -10  -3   54.29    7.10
   0 -10  -3   70.99   10.90
   0  10   3   28.00    8.30
  -1 -10  -3   13.20    3.70
  -1 -10  -3    4.50    7.90
  -1 -10  -3    7.60    8.20
  -1 -10  -3   11.40    7.50
   1  10   3   18.30    7.50
   1  10   3    4.20    6.10
  -2 -10  -3    5.80    7.70
  -2 -10  -3   -4.50    7.50
  -2 -10  -3   -2.60    8.60
  -2 -10  -3    1.50    3.50
   2  10   3   -0.60    5.80
   2  10   3   -5.10    6.40
  -3 -10  -3   19.60    9.00
  -3 -10  -3   -0.10    3.80
  -3 -10  -3   -6.00    7.00
  -3 -10  -3    6.70    7.40
   3  10   3    0.10    5.90
  -4 -10  -3    5.10    4.90
  -4 -10  -3   -3.40    7.00
  -4 -10  -3   -1.00    6.30
   4  10   3   -1.70    5.80
  -5 -10  -3   71.99   10.60
  -5 -10  -3   83.19   10.30
  -5 -10  -3   68.59    8.00
   5  10   3   91.29    8.90
  -6 -10  -3   35.70    9.00
  -6 -10  -3   29.80    7.40
  -6 -10  -3   49.60    9.90
   6  10   3   19.60    7.80
   6  10   3   46.30    7.40
  -7 -10  -3   40.00   12.90
  -7 -10  -3   33.40    9.40
  -7 -10  -3   48.50    9.90
   7  10   3   35.10    7.40
   7  10   3   41.20    9.40
   2 -11  -3    8.30   10.40
   2 -11  -3   -5.00    9.70
   2 -11  -3    7.80    4.50
   2 -11  -3    7.50   10.30
   2 -11  -3   -2.70    4.90
  -2  11   3    5.20    7.40
   1 -11  -3   32.70   10.40
   1 -11  -3   35.60   11.10
   1 -11  -3   22.20    4.60
   1 -11  -3   34.50   11.00
  -1  11   3   24.00    8.10
   0 -11  -3   38.90   10.50
   0 -11  -3   16.80    3.60
   0 -11  -3   46.10    8.40
   0 -11  -3   23.20   10.30
   0 -11  -3   27.20    9.40
   0  11   3   23.70    7.80
  -1 -11  -3   27.50    3.40
  -1 -11  -3   43.40   10.40
  -1 -11  -3   18.20    9.70
  -1 -11  -3   41.60   10.90
  -1 -11  -3   26.80    9.90
   1  11   3   26.60    7.80
  -2 -11  -3  143.19   14.60
  -2 -11  -3   98.19   13.10
  -2 -11  -3  123.79   13.40
  -2 -11  -3  118.79    7.90
  -2 -11  -3  101.19    7.10
   2  11   3  104.29   10.70
   2  11   3  124.09   12.70
  -3 -11  -3    6.70    9.60
  -3 -11  -3   -6.60    8.00
  -3 -11  -3    7.20    3.10
  -3 -11  -3   11.00    4.00
  -3 -11  -3    0.20    8.70
   3  11   3    8.10    6.20
  -4 -11  -3   -0.80    3.40
  -4 -11  -3   -9.80    7.10
  -4 -11  -3   13.40    8.40
  -4 -11  -3   -2.30    8.60
  -4 -11  -3   -3.60    4.60
   4  11   3    5.10    5.90
  -5 -11  -3    4.00    5.50
  -5 -11  -3    7.30    9.60
  -5 -11  -3  -10.40    8.50
   5  11   3   -0.60    6.00
   3   8  -4    7.90    5.90
   3   8  -4    6.70   10.80
  -3  -8   4   11.00    9.40
  -3  -8   4   15.40   10.50
  -3  -8   4    8.20    9.90
   2   8  -4   39.40   11.40
   2   8  -4   49.60    7.20
  -2  -8   4   53.29   10.80
  -2  -8   4   52.19   10.30
   1   8  -4    3.20    5.60
  -1  -8   4    9.30    8.90
  -1  -8   4    2.20    9.70
   0   8  -4   52.29    7.80
   0  -8   4   61.99    9.40
   0  -8   4   65.39   11.30
  -1   8  -4   16.20    6.80
   1  -8   4   29.00    7.90
   1  -8   4   21.30    9.80
  -2   8  -4   -5.50    6.40
   2  -8   4    1.00    9.40
   2  -8   4   -2.70    7.90
  -6  -7   4    8.10    9.40
  -6  -7   4   18.20   10.30
   5   7  -4   47.00   11.00
   5   7  -4   61.89    5.60
  -5  -7   4   46.60   12.90
  -5  -7   4   64.29   11.20
  -5  -7   4   69.19   11.70
   4   7  -4   27.10    9.90
   4   7  -4   27.60    5.50
  -4  -7   4   20.50    9.10
  -4  -7   4   22.00    7.80
  -4  -7   4   11.10    9.80
   3   7  -4    6.00    5.60
   3   7  -4    9.20    8.40
  -3  -7   4    5.00    8.60
  -3  -7   4    0.90    8.30
   2   7  -4    3.80    5.10
   2   7  -4   12.40    8.90
  -2  -7   4    4.70    7.70
  -2  -7   4   -1.20    8.30
   1   7  -4   54.19   10.10
   1   7  -4   45.50    7.20
  -1  -7   4   33.70    9.30
  -1  -7   4   63.99   10.40
   0   7  -4   35.60    6.90
   0  -7   4   24.80    7.90
   0  -7   4   42.10   10.10
  -1   7  -4  116.89   10.70
   1  -7   4   67.79   14.10
   1  -7   4  129.79   16.30
  -2   7  -4    8.50    6.20
   2  -7   4   14.60    8.90
   2  -7   4   -6.00    6.20
  -3   7  -4    1.30    6.70
   3  -7   4    2.10    8.30
   3  -7   4   10.00    5.80
  -4   7  -4    5.00    7.10
   4  -7   4    2.90    4.90
   4  -7   4    8.90    8.90
  -5   7  -4    3.10    7.40
  -5   7  -4    8.70    3.60
   5  -7   4   20.10   10.20
   5  -7   4    6.50    4.10
   7   6  -4    8.70    4.30
   7   6  -4   -8.20    9.50
  -7  -6   4    0.40    9.00
  -7  -6   4   -2.00    9.10
  -7  -6   4   -6.50   11.40
  -7  -6   4   -2.60    6.40
   6   6  -4   37.20    4.70
   6   6  -4   29.90   10.60
  -6  -6   4   32.40    9.70
  -6  -6   4   49.99   12.70
  -6  -6   4   43.40    9.50
  -6  -6   4   36.50    6.30
   5   6  -4   46.40    9.50
   5   6  -4   21.20    3.70
  -5  -6   4   15.40   10.60
  -5  -6   4   14.70    8.70
  -5  -6   4   19.60    7.30
   4   6  -4  129.79    7.60
  -4  -6   4  134.59   13.40
  -4  -6   4  126.29   17.30
  -4  -6   4  133.49   16.00
   3   6  -4  162.08   11.60
  -3  -6   4  147.19   14.50
  -3  -6   4  148.19   16.90
   2   6  -4   25.40    6.00
  -2  -6   4   38.00    9.10
  -2  -6   4   42.50    9.30
   1   6  -4   10.90    5.20
  -1  -6   4   14.90    8.50
  -1  -6   4    8.20    7.50
   0   6  -4   44.80    6.80
   0  -6   4   35.40    9.50
   0  -6   4   44.50    8.30
  -1   6  -4   23.10    6.30
   1  -6   4    4.60    6.70
   1  -6   4   19.30    8.70
  -2   6  -4   87.29    9.40
   2  -6   4   89.09   10.60
   2  -6   4   92.69   11.80
  -3   6  -4   61.09    8.30
   3  -6   4   72.29    9.70
   3  -6   4   45.50   10.30
  -4   6  -4   -6.80    4.90
  -4   6  -4    3.90    3.40
   4  -6   4    5.10    4.80
   4  -6   4   -8.30    8.40
  -5   6  -4   10.90    4.90
   5  -6   4    9.40    9.20
   5  -6   4    6.00    4.20
  -6   6  -4    6.90    5.80
   6  -6   4    3.00    8.60
   6  -6   4   -3.70    8.90
   6  -6   4   15.00   10.60
   8   5  -4   62.19   12.50
  -8  -5   4   97.89   12.70
  -8  -5   4  101.69   12.90
  -8  -5   4   93.49   12.60
  -8  -5   4   76.49   11.10
   7   5  -4   82.59   12.40
  -7  -5   4   78.09   13.30
  -7  -5   4   89.09   11.60
  -7  -5   4   88.09   11.60
  -7  -5   4   61.29   10.90
   6   5  -4   26.20    8.90
  -6  -5   4   28.50    7.40
  -6  -5   4   18.10    8.20
  -6  -5   4   21.10    9.90
  -6  -5   4   24.50    6.70
   5   5  -4    2.50    3.10
   5   5  -4   -1.30    5.40
  -5  -5   4    4.30    9.10
  -5  -5   4    7.80    4.80
  -5  -5   4    6.40    7.80
  -5  -5   4    0.40    5.70
   4   5  -4   17.40    4.40
   4   5  -4   15.10    3.00
   4   5  -4   21.00    5.20
  -4  -5   4   12.10    7.90
  -4  -5   4   18.50    8.10
  -4  -5   4   13.10    9.10
   3   5  -4  206.88   12.40
   3   5  -4  201.08   10.10
   3   5  -4  183.38   12.10
  -3  -5   4  219.38   18.00
  -3  -5   4  187.78   18.00
   2   5  -4   41.60    5.90
  -2  -5   4   56.79   11.20
   1   5  -4   29.50    8.40
  -1  -5   4   21.90    7.20
  -1  -5   4   20.70    9.70
   0   5  -4  256.77   16.30
   0   5  -4  282.17   20.50
   0  -5   4  256.17   18.70
   0  -5   4  320.87   21.30
  -1   5  -4   -9.50    4.50
   1  -5   4   -5.30    8.10
   1  -5   4    1.60    6.10
   1  -5   4    8.20    3.00
  -2   5  -4    5.20    2.20
  -2   5  -4    0.60    1.70
   2  -5   4   11.00    5.90
   2  -5   4    8.60   13.40
   2  -5   4    8.50    4.00
  -3   5  -4   18.80    4.10
   3  -5   4   28.00    7.40
   3  -5   4   22.40    5.80
  -4   5  -4   29.30    5.40
   4  -5   4   36.70    5.80
   4  -5   4   26.90    9.10
  -5   5  -4  150.48   12.50
   5  -5   4  131.59   16.80
   5  -5   4  141.09   10.70
  -6   5  -4   96.69   12.70
   6  -5   4   95.19   12.20
   6  -5   4  143.19   14.70
   6  -5   4  102.69   13.60
  -7   5  -4    7.10    7.10
   7  -5   4    8.30   10.00
   7  -5   4    6.20    8.50
   7  -5   4    0.80    7.70
   8  -5   4   11.50    9.30
   8  -5   4    3.40   11.30
   8  -5   4   15.60   11.30
   9   4  -4    6.90    9.80
   9   4  -4  -15.20   12.00
  -9  -4   4   15.20   12.00
  -9  -4   4  -10.20    9.80
  -9  -4   4   -7.00    9.40
   8   4  -4   41.90    9.30
   8   4  -4   23.20   10.20
  -8  -4   4   15.60   10.80
  -8  -4   4   63.99   10.50
  -8  -4   4   40.20    9.40
   7   4  -4   79.29   10.00
  -7  -4   4   68.29   10.60
  -7  -4   4   72.09   11.20
  -7  -4   4   71.99   12.60
  -6  -4   4  190.28   14.70
  -6  -4   4  182.38   17.60
   5   4  -4  249.28   17.40
  -5  -4   4  242.88   19.70
  -5  -4   4  258.77   18.60
  -5  -4   4  252.17   16.40
   4   4  -4   30.00    6.40
   4   4  -4   39.60    3.90
  -4  -4   4   34.20    5.60
  -4  -4   4   42.00   12.10
  -4  -4   4   47.40    8.60
  -4  -4   4   46.30   10.20
   3   4  -4   79.59    7.10
   3   4  -4   82.29    5.10
   3   4  -4   70.99    8.90
  -3  -4   4   87.69   11.80
  -3  -4   4   79.79   10.30
   2   4  -4    4.10    3.70
   2   4  -4    6.50    5.90
   2   4  -4    7.60    4.20
  -2  -4   4    1.10    6.80
  -2  -4   4   -0.70    5.50
   1   4  -4  283.07   20.90
   1   4  -4  308.07   17.00
   1   4  -4  302.47   15.70
  -1  -4   4  302.67   20.80
  -1  -4   4  307.07   20.20
   0   4  -4  186.78   12.50
   0   4  -4  189.58   10.00
   0   4  -4  179.98   16.40
   0  -4   4  179.78   14.50
   0  -4   4  186.18   14.90
  -1   4  -4  242.68   12.60
   1  -4   4  241.68   16.50
   1  -4   4  243.98   12.10
   1  -4   4  230.08   18.30
  -2   4  -4   63.89    7.00
   2  -4   4   71.09    5.80
   2  -4   4   73.19   10.00
   2  -4   4   58.09    7.60
  -3   4  -4    8.40    4.50
   3  -4   4    6.10    5.00
   3  -4   4   14.20    7.80
  -4   4  -4   42.70    6.50
   4  -4   4   36.30    5.80
   4  -4   4   40.10    8.90
  -5   4  -4    3.40    5.50
   5  -4   4   -3.20    8.30
   5  -4   4    9.40    8.10
   5  -4   4    3.40    4.30
  -6   4  -4   31.10    7.40
   6  -4   4   25.30    9.90
   6  -4   4   35.20    9.50
  -7   4  -4   74.99    9.90
   7  -4   4  105.49   12.50
   7  -4   4   77.99   12.00
  -8   4  -4   15.10    9.60
   8  -4   4    7.00    7.40
   8  -4   4   10.70    9.90
  -9   4  -4   22.90    9.10
   9  -4   4   14.90    9.50
   9  -4   4    6.30   11.50
   9   3  -4   87.39   14.80
   9   3  -4  104.79   13.00
  -9  -3   4   99.79   14.50
  -9  -3   4  104.39   13.60
  -9  -3   4  123.29   16.20
  -9  -3   4  117.19   14.60
   8   3  -4    4.80    9.20
   8   3  -4   17.20    8.40
  -8  -3   4   10.30    8.30
  -8  -3   4   14.50    8.60
  -8  -3   4   27.10    9.30
   7   3  -4   -1.00    7.50
  -7  -3   4   -2.30    7.20
  -7  -3   4    3.70    8.40
  -7  -3   4   -3.10    6.60
  -6  -3   4    4.50    6.80
  -6  -3   4    4.70    7.50
  -6  -3   4   13.60    6.90
   5   3  -4   52.99    9.60
   5   3  -4   59.69    8.20
  -5  -3   4   61.39    7.70
  -5  -3   4   58.69    9.70
   4   3  -4  284.47   18.40
   4   3  -4  294.47   20.30
  -4  -3   4  292.07   17.20
  -4  -3   4  293.67   21.70
  -4  -3   4  262.47   19.90
   3   3  -4  376.06   24.20
   3   3  -4  394.16   21.60
   3   3  -4  401.36   19.50
  -3  -3   4  374.46   21.00
  -3  -3   4  383.76   24.80
   2   3  -4   41.90    4.50
   2   3  -4   32.70    7.40
   2   3  -4   32.80    5.00
  -2  -3   4   46.60    8.60
   1   3  -4   67.59    6.70
   1   3  -4   69.79    6.90
   1   3  -4   64.09    8.70
  -1  -3   4   56.99    8.80
   0   3  -4    3.30    6.20
   0   3  -4    0.60    2.90
   0  -3   4    6.70    5.50
   0  -3   4    2.90    5.80
   1  -3   4  342.67   16.80
   1  -3   4  385.06   22.20
   1  -3   4  341.17   20.80
   2  -3   4  140.99   12.30
  -3   3  -4  136.89   11.50
  -3   3  -4  134.39   10.70
   3  -3   4  136.89   11.50
  -4   3  -4  474.95   25.60
  -4   3  -4  443.66   25.60
   4  -3   4  440.66   25.00
   4  -3   4  524.25   27.40
  -5   3  -4   -4.00    4.60
  -5   3  -4   -2.40    5.70
   5  -3   4   -4.60    6.00
   5  -3   4   -3.40    6.70
   5  -3   4   -0.80    4.20
  -6   3  -4   37.10    5.90
  -6   3  -4   44.30    7.90
   6  -3   4   46.50    9.70
  -7   3  -4   10.60    4.30
  -7   3  -4    6.20    6.90
   7  -3   4   13.00    8.70
   7  -3   4   13.20    9.10
  -8   3  -4   24.00    4.60
  -8   3  -4   35.70    9.30
   8  -3   4   28.20    8.10
   8  -3   4   31.10   10.80
  -9   3  -4   54.09   10.10
  -9   3  -4   58.29    6.50
   9  -3   4   47.00   10.90
  10   2  -4   -7.50   13.20
  10   2  -4    4.90   10.40
 -10  -2   4   11.20    9.50
 -10  -2   4    5.10   10.30
 -10  -2   4  -15.80   11.30
 -10  -2   4   33.00    9.10
   9   2  -4  136.29   16.30
   9   2  -4   95.69   15.00
  -9  -2   4  157.18   18.60
  -9  -2   4  142.59   17.20
  -9  -2   4  149.99   17.90
   8   2  -4  107.89   12.80
   8   2  -4   83.29   15.90
  -8  -2   4   82.29   12.40
  -8  -2   4  113.19   12.70
  -8  -2   4   72.29   12.00
  -8  -2   4  109.39   12.20
   7   2  -4  155.38   16.00
  -7  -2   4  160.68   16.10
   6   2  -4  338.57   23.40
   6   2  -4  370.76   25.40
  -6  -2   4  375.76   25.70
  -6  -2   4  374.76   23.70
  -6  -2   4  410.46   26.00
   5   2  -4   20.70    6.50
   5   2  -4    5.90    7.30
  -5  -2   4    7.90    8.30
  -5  -2   4   -4.00    5.80
  -5  -2   4    1.40    5.90
  -5  -2   4    0.20    5.70
   4   2  -4  256.77   18.90
   4   2  -4  289.07   18.20
  -4  -2   4  263.47   17.00
  -4  -2   4  289.37   20.60
  -4  -2   4  261.27   17.60
  -4  -2   4  261.27   18.90
   3   2  -4   52.19    8.20
   3   2  -4   52.49    6.80
   3   2  -4   61.69    4.50
  -3  -2   4   51.79    6.40
  -3  -2   4   39.60    8.80
   2   2  -4  601.44   29.70
   2   2  -4  618.44   33.40
   2   2  -4  625.14   31.40
  -2  -2   4  616.74   34.10
  -2  -2   4  638.94   33.40
   1   2  -4  205.38   13.20
   1   2  -4  222.28   15.90
  -1  -2   4  221.38   16.30
  -1  -2   4  228.98   15.90
   0   2  -4  465.15   22.40
   0   2  -4  417.96   24.30
   0  -2   4  425.86   24.50
   0  -2   4  407.66   24.40
  -1   2  -4   41.70    6.90
  -1   2  -4   34.00    6.60
   1  -2   4   46.90    2.90
   1  -2   4   38.30    6.30
   1  -2   4   36.60    7.20
  -2   2  -4   -0.70    4.70
   2  -2   4    3.80    4.90
   2  -2   4    1.70    5.80
  -3   2  -4   43.30    6.50
   3  -2   4   26.60    6.50
   3  -2   4   27.40    5.80
  -4   2  -4  148.29   12.10
  -4   2  -4  151.78   12.60
   4  -2   4  142.19   13.80
   4  -2   4  145.19   11.70
   4  -2   4  157.38   15.20
  -5   2  -4   57.39    8.40
  -5   2  -4   87.39    9.90
   5  -2   4   83.29    9.00
   5  -2   4   67.79    9.40
  -6   2  -4  179.58   16.70
  -6   2  -4  219.68   14.50
   6  -2   4  200.48   15.10
  -7   2  -4   30.70    6.30
  -7   2  -4   30.90    8.20
   7  -2   4   41.50    7.70
   7  -2   4   34.30    9.60
  -8   2  -4   -2.20    7.60
  -8   2  -4    6.00    5.40
   8  -2   4   -4.70    6.40
   8  -2   4   -7.30    8.80
  -9   2  -4   12.30    8.20
   9  -2   4   -0.90    9.40
   9  -2   4   19.60    7.70
 -10   2  -4    6.70    5.20
 -10   2  -4   15.20    8.80
  10  -2   4  -10.40   10.20
  10  -2   4    8.90    7.60
  10   1  -4   92.69   14.70
  10   1  -4   82.09   12.90
 -10  -1   4   66.39   11.90
 -10  -1   4   83.89   12.20
 -10  -1   4   66.69   14.00
 -10  -1   4   53.39   15.50
   9   1  -4   -3.80   10.20
   9   1  -4  -11.30    8.80
  -9  -1   4    1.10    6.90
  -9  -1   4   13.50    8.60
  -9  -1   4   -0.40    7.90
  -9  -1   4    3.20    8.10
   8   1  -4    1.10    8.80
  -8  -1   4   11.90    8.70
  -8  -1   4   23.90    8.00
   7   1  -4   22.50   12.80
   7   1  -4   35.40    8.90
  -7  -1   4   45.50    9.90
  -7  -1   4   32.10    9.70
  -7  -1   4   45.40    9.10
   6   1  -4   25.60    8.20
  -6  -1   4   20.20    8.70
  -6  -1   4   20.20    7.80
  -6  -1   4   11.30    6.00
   5   1  -4  532.75   27.50
   5   1  -4  467.15   28.60
  -5  -1   4  458.25   26.30
  -5  -1   4  485.15   27.80
  -5  -1   4  449.76   28.80
   4   1  -4  282.77   19.60
   4   1  -4  270.87   18.40
  -4  -1   4  302.97   20.60
  -4  -1   4  290.07   17.50
  -4  -1   4  285.57   18.40
   3   1  -4  175.28   14.60
   3   1  -4  196.98   13.70
  -3  -1   4  189.88   13.40
  -3  -1   4  177.38   13.10
  -3  -1   4  178.88   15.40
   2   1  -4   68.29    8.20
   2   1  -4   75.89    4.70
   2   1  -4   69.39    8.80
  -2  -1   4   62.69    8.10
  -2  -1   4   79.89    8.30
  -2  -1   4   61.39    8.70
   1   1  -4  295.57   18.10
   1   1  -4  312.77   17.00
   1   1  -4  290.37   18.80
  -1  -1   4  285.57   19.10
  -1  -1   4  304.47   18.20
   0   1  -4  494.05   26.60
   0   1  -4  477.55   25.60
   0   1  -4  497.75   27.20
   0  -1   4  493.35   26.70
   0  -1   4  523.85   26.80
  -1   1  -4 1982.70   99.59
  -1   1  -4 2170.38  100.19
   1  -1   4 2146.39   99.99
   1  -1   4 2112.79  100.09
  -2   1  -4   10.30    5.20
   2  -1   4   16.70    5.40
   2  -1   4   20.20    5.20
  -3   1  -4  405.96   21.80
   3  -1   4  367.76   23.20
   3  -1   4  385.96   22.20
   3  -1   4  356.66   21.10
  -4   1  -4    0.60    5.00
   4  -1   4    6.70    4.90
   4  -1   4   -5.90    6.10
  -5   1  -4  325.17   19.60
  -5   1  -4  296.17   18.60
   5  -1   4  303.07   18.10
   5  -1   4  294.57   21.10
  -6   1  -4   13.50    7.10
  -6   1  -4   33.40    6.40
   6  -1   4   21.40    8.50
   6  -1   4   29.90    6.00
  -7   1  -4  135.79   12.60
  -7   1  -4  108.99   14.00
   7  -1   4  162.08   12.60
   7  -1   4  133.19   16.00
  -8   1  -4  135.39   12.60
  -8   1  -4  100.89   12.50
   8  -1   4  126.59   12.20
   8  -1   4  152.08   17.00
  -9   1  -4   24.40    8.70
  -9   1  -4   32.30    7.30
   9  -1   4   23.70    6.40
   9  -1   4   15.10    7.70
 -10   1  -4    6.70    9.30
  10  -1   4    3.80    6.30
  10  -1   4   18.00   10.20
  10   0  -4   93.09   14.60
  10   0  -4   98.39   13.90
 -10   0   4  114.29   13.30
 -10   0   4  135.59   15.60
 -10   0   4   91.99   11.80
 -10   0   4  109.49   15.20
   9   0  -4  109.39   14.80
   9   0  -4  119.39   14.50
  -9   0   4  142.59   16.90
  -9   0   4  154.18   15.80
   8   0  -4  179.08   18.20
   8   0  -4  172.08   17.00
  -8   0   4  173.48   14.60
  -8   0   4  186.78   18.10
  -8   0   4  175.98   17.20
  -8   0   4  189.18   16.60
   7   0  -4   23.90    9.00
   7   0  -4    9.40    8.40
  -7   0   4   23.30    8.30
  -7   0   4   16.00    7.30
  -7   0   4    8.10    8.90
  -7   0   4    9.70    5.40
   6   0  -4  354.06   23.00
   6   0  -4  365.06   24.70
  -6   0   4  344.47   22.90
  -6   0   4  302.27   22.30
  -6   0   4  372.36   22.40
  -6   0   4  336.27   20.00
   5   0  -4  145.19   15.60
   5   0  -4  168.38   13.60
  -5   0   4  140.29   15.00
  -5   0   4  151.98   12.00
  -5   0   4  169.78   15.00
   4   0  -4 1020.30   51.19
   4   0  -4  999.50   51.49
  -4   0   4 1038.40   49.50
  -4   0   4  987.60   50.69
  -4   0   4 1010.20   51.69
   3   0  -4  500.15   27.10
   3   0  -4  434.76   26.90
  -3   0   4  490.55   26.90
  -3   0   4  527.85   27.60
  -3   0   4  514.45   25.80
  -3   0   4  492.85   27.50
   2   0  -4  269.87   16.40
   2   0  -4  266.77   17.20
   2   0  -4  255.77   16.00
  -2   0   4  234.08   15.90
  -2   0   4  263.97   16.40
  -2   0   4  259.37   17.30
   1   0  -4    7.90    4.50
   1   0  -4    7.00    4.50
   1   0  -4    8.00    1.80
   1   0  -4    4.40    5.00
  -1   0   4    4.90    5.20
  -1   0   4   -1.10    4.00
   0   0  -4   47.70    6.60
   0   0  -4   41.20    5.30
   0   0   4   46.10    5.50
   0   0   4   50.19    6.90
  -1   0  -4    3.50    3.50
  -1   0  -4    3.90    4.90
   1   0   4    5.50    3.80
   1   0   4    4.20    4.80
  -2   0  -4  758.02   37.70
   2   0   4  729.83   36.90
   2   0   4  715.23   37.20
   2   0   4  759.72   38.40
  -3   0  -4  138.99   11.30
   3   0   4  133.79   12.90
   3   0   4  139.09   10.50
   3   0   4  137.89   11.70
  -4   0  -4 1571.14   72.29
   4   0   4 1477.55   73.69
   4   0   4 1418.36   71.69
  -5   0  -4   10.20    5.70
   5   0   4   12.20    7.20
  -6   0  -4    9.20    5.70
  -6   0  -4    4.00    5.80
   6   0   4   -1.00    5.30
   6   0   4    4.50    4.20
  -7   0  -4   25.10    7.60
  -7   0  -4   13.70    7.00
   7   0   4   15.60    4.90
   7   0   4   24.90    9.10
  -8   0  -4   57.29   10.10
  -8   0  -4   66.09    9.10
   8   0   4   76.09    9.30
   8   0   4   62.69   11.30
 -11   0  -4   13.80   11.00
 -11   0  -4   -6.80    7.70
  11   0   4  -12.50   10.70
  10  -1  -4   -4.20   10.10
  10  -1  -4    2.00   10.10
 -10   1   4    2.70    8.00
 -10   1   4    4.90    2.90
 -10   1   4    1.00   11.80
   9  -1  -4   24.90   10.40
   9  -1  -4   51.89   11.40
  -9   1   4   44.10    8.90
  -9   1   4   27.10   11.50
  -9   1   4   43.40    8.80
  -9   1   4   38.60    3.80
   8  -1  -4  -12.50    8.70
   8  -1  -4    8.80    9.10
  -8   1   4    3.40    5.50
  -8   1   4    8.80    2.60
  -8   1   4   24.60    8.00
  -8   1   4    7.10    7.50
  -8   1   4    6.10    9.60
   7  -1  -4   24.50   10.00
  -7   1   4   37.00   10.30
  -7   1   4   50.59    8.70
  -7   1   4   43.60    6.60
  -7   1   4   46.90    4.00
  -7   1   4   64.99    9.60
   6  -1  -4  214.58   19.10
   6  -1  -4  227.88   17.80
  -6   1   4  218.68   10.30
  -6   1   4  189.78   14.10
  -6   1   4  218.58   16.60
  -6   1   4  195.18   17.40
  -6   1   4  201.28   16.30
   5  -1  -4  188.98   17.40
  -5   1   4  186.38   12.70
  -5   1   4  215.28   15.50
  -5   1   4  187.18   16.70
  -5   1   4  197.38   16.20
   4  -1  -4   89.29   11.30
   4  -1  -4   51.19    9.00
  -4   1   4   79.59    9.90
  -4   1   4   80.79    9.60
  -4   1   4   70.19    8.70
  -4   1   4   78.69    7.40
   3  -1  -4  323.47   19.40
   3  -1  -4  357.96   20.90
  -3   1   4  327.27   17.40
  -3   1   4  311.37   20.10
  -3   1   4  344.77   20.20
   2  -1  -4   27.40    5.10
   2  -1  -4   27.40    2.30
   2  -1  -4   24.30    5.70
   2  -1  -4   23.80    3.60
   2  -1  -4   17.80    5.90
  -2   1   4   37.00    6.10
  -2   1   4   32.20    5.90
   1  -1  -4  799.92   36.70
   1  -1  -4  765.32   38.30
   1  -1  -4  792.42   39.40
   1  -1  -4  775.42   38.80
  -1   1   4  752.42   39.40
  -1   1   4  767.12   38.30
   0  -1  -4 1066.99   51.39
   0  -1  -4 1083.69   52.89
   0  -1  -4 1121.69   50.39
   0   1   4 1053.89   51.39
   0   1   4 1060.29   52.59
   0   1   4 1067.09   50.29
  -1  -1  -4  204.38   12.10
  -1  -1  -4  220.68   14.70
   1   1   4  218.78   13.80
   1   1   4  233.58   14.20
   1   1   4  231.58   12.40
   1   1   4  221.68   11.40
  -2  -1  -4   22.30    5.60
   2   1   4   10.70    5.10
   2   1   4   22.10    5.40
   2   1   4   17.60    3.50
  -3  -1  -4  353.16   20.60
   3   1   4  347.47   20.50
   3   1   4  359.46   21.10
  -4  -1  -4   -3.70    6.50
  -4  -1  -4   -1.20    5.10
   4   1   4   -0.70    4.80
   4   1   4    8.50    6.60
  -5  -1  -4  233.48   17.10
  -5  -1  -4  200.48   15.50
   5   1   4  184.88   17.00
   5   1   4  218.98   12.20
  -6  -1  -4  210.28   16.60
  -6  -1  -4  222.68   16.60
   6   1   4  206.18   12.10
   6   1   4  185.18   15.80
  -7  -1  -4  143.59   15.20
  -7  -1  -4  160.48   15.50
  -7  -1  -4  157.88   14.90
   7   1   4  139.09   10.20
   7   1   4  137.09   16.50
  -8  -1  -4   -6.50    5.70
  -8  -1  -4    1.30   10.60
   8   1   4    3.20    3.90
   8   1   4   -7.80    8.00
  -9  -1  -4    9.20    8.50
  -9  -1  -4   14.70    7.80
   9   1   4    4.60    9.10
 -10  -1  -4   80.29   10.80
 -10  -1  -4   77.59   13.00
 -10  -1  -4   49.10   11.30
  10   1   4   73.99   12.20
 -11  -1  -4   16.10   11.20
 -11  -1  -4   40.90   10.60
  11   1   4   36.40   11.40
  10  -2  -4    3.30   10.40
  10  -2  -4   25.00   11.10
 -10   2   4   15.60    9.70
 -10   2   4   20.50    4.50
 -10   2   4   26.40    9.80
   9  -2  -4   36.00   11.10
   9  -2  -4   44.60   11.20
  -9   2   4   44.50    4.80
  -9   2   4   54.19   10.10
  -9   2   4   19.20   10.70
  -9   2   4   48.70    8.40
   8  -2  -4    4.20    9.20
   8  -2  -4   -0.40    7.70
   8  -2  -4    1.90    5.40
  -8   2   4    8.50    7.90
  -8   2   4   -1.60    6.00
  -8   2   4    2.70    3.30
  -8   2   4    1.20    4.90
   7  -2  -4  392.76   29.60
   7  -2  -4  448.76   27.30
  -7   2   4  451.15   27.40
  -7   2   4  431.06   21.50
  -7   2   4  456.65   23.80
  -7   2   4  402.76   25.10
   6  -2  -4  444.16   26.30
   6  -2  -4  471.35   29.00
  -6   2   4  447.36   28.20
  -6   2   4  428.56   21.70
  -6   2   4  455.55   23.60
  -6   2   4  432.96   26.50
  -6   2   4  427.36   25.00
   5  -2  -4  200.48   17.70
  -5   2   4  211.98   14.80
  -5   2   4  207.48   10.90
  -5   2   4  205.28   12.60
  -5   2   4  195.18   17.20
   4  -2  -4  845.92   43.50
   4  -2  -4  797.12   43.80
  -4   2   4  791.02   44.40
  -4   2   4  858.91   43.80
  -4   2   4  839.42   40.00
  -4   2   4  852.31   39.30
  -4   2   4  848.12   42.30
   3  -2  -4  136.19   12.30
   3  -2  -4  120.89   12.50
   3  -2  -4  136.99   11.00
  -3   2   4  129.39   11.10
  -3   2   4  133.69    7.20
  -3   2   4  133.99   11.00
  -3   2   4  119.19   13.60
   2  -2  -4  286.97   14.40
   2  -2  -4  303.57   17.40
   2  -2  -4  275.17   17.40
   2  -2  -4  294.87   15.60
   2  -2  -4  304.57   18.10
  -2   2   4  299.57   17.60
  -2   2   4  285.37   18.80
  -2   2   4  294.97   17.60
   1  -2  -4   13.10    2.50
   1  -2  -4   14.10    3.60
   1  -2  -4   12.00    3.70
   1  -2  -4   11.40    4.00
   1  -2  -4    3.50    5.00
  -1   2   4    9.90    4.90
  -1   2   4   10.90    4.60
  -1   2   4   12.20    2.60
   0  -2  -4 1604.14   74.49
   0  -2  -4 1610.94   74.39
   0  -2  -4 1657.33   76.29
   0   2   4 1582.24   74.39
   0   2   4 1547.75   75.39
   0   2   4 1538.55   76.19
  -1  -2  -4 2203.08  106.69
  -1  -2  -4 2343.17  109.29
  -1  -2  -4 2523.65  108.89
   1   2   4 2310.37  109.29
   1   2   4 2150.68  109.09
   1   2   4 2319.47  107.29
   1   2   4 2289.97  106.79
  -2  -2  -4  394.66   21.20
  -2  -2  -4  349.47   19.90
   2   2   4  326.17   21.20
   2   2   4  361.96   17.10
   2   2   4  330.17   20.30
  -3  -2  -4  996.10   48.10
  -3  -2  -4  979.60   46.80
   3   2   4  830.12   47.00
   3   2   4  892.51   46.30
  -4  -2  -4   85.69   10.80
  -4  -2  -4   70.99   10.30
   4   2   4   51.39    9.40
  -5  -2  -4  163.88   16.50
  -5  -2  -4  189.08   14.90
   5   2   4  158.98    8.60
   5   2   4  164.18   16.10
  -6  -2  -4  343.97   21.10
  -6  -2  -4  352.86   22.20
   6   2   4  319.37   23.80
  -7  -2  -4  391.46   22.80
  -7  -2  -4  307.97   21.90
  -7  -2  -4  388.86   26.10
   7   2   4  344.77   25.40
  -8  -2  -4  159.48   18.40
   8   2   4  130.09   15.10
  -9  -2  -4   50.79   10.20
  -9  -2  -4   59.59   11.90
   9   2   4   48.00   11.20
 -10  -2  -4   25.90    9.80
 -10  -2  -4   16.50   10.30
 -10  -2  -4    6.10    8.70
  10   2   4   11.20    8.00
 -11  -2  -4   13.20   10.60
 -11  -2  -4   22.20   10.10
 -11  -2  -4   44.60   11.80
  11   2   4   24.30    9.30
  11   2   4   17.20   11.20
  10  -3  -4   69.99   12.50
  10  -3  -4   55.79    8.00
  10  -3  -4   47.60   12.10
 -10   3   4   52.49    7.90
 -10   3   4   56.29   14.10
 -10   3   4   68.09    6.90
 -10   3   4   54.69   10.50
   9  -3  -4  102.29   11.20
   9  -3  -4   92.89   12.80
   9  -3  -4  112.19   13.50
  -9   3   4  105.59   12.70
  -9   3   4   72.79    8.80
  -9   3   4   87.79    8.90
  -9   3   4   84.89   14.20
   8  -3  -4    2.20    5.10
   8  -3  -4    0.20    6.80
   8  -3  -4    3.50    8.90
  -8   3   4    6.20    4.20
  -8   3   4  -14.40    7.20
  -8   3   4    2.30    5.40
   7  -3  -4   31.90    5.50
   7  -3  -4   42.00   10.00
  -7   3   4   34.70    6.50
  -7   3   4   29.70    4.90
   6  -3  -4    4.80    7.30
   6  -3  -4    2.90    3.70
  -6   3   4   -1.50    3.50
  -6   3   4   -5.60    6.60
  -6   3   4   -0.20    4.80
   5  -3  -4   60.79    5.90
  -5   3   4   61.39    6.20
  -5   3   4   73.59   10.40
  -5   3   4   70.79    9.40
   4  -3  -4  153.18   14.10
  -4   3   4  134.89   15.60
  -4   3   4  154.38   12.00
  -4   3   4  152.48    9.20
  -4   3   4  150.68   14.60
   3  -3  -4   99.19    9.90
   3  -3  -4  114.39   10.00
  -3   3   4  116.49   14.00
  -3   3   4  112.29    7.40
  -3   3   4  116.79   10.10
  -3   3   4   91.89   10.00
   2  -3  -4  435.46   21.70
   2  -3  -4  431.76   24.20
   2  -3  -4  437.86   23.80
  -2   3   4  459.85   25.10
  -2   3   4  429.76   26.60
  -2   3   4  439.16   23.70
  -2   3   4  447.16   21.90
   1  -3  -4  173.28   10.00
   1  -3  -4  151.08   12.00
   1  -3  -4  168.18   11.50
   1  -3  -4  148.49    8.90
  -1   3   4  150.58   11.40
  -1   3   4  122.29   13.30
   0  -3  -4   13.70    3.40
   0  -3  -4   12.90    3.40
   0  -3  -4   11.10    4.90
   0  -3  -4    8.10    3.80
   0   3   4   21.10    3.70
   0   3   4   19.60    4.70
   0   3   4   11.10    3.20
   0   3   4   13.20    5.70
  -1  -3  -4    9.30    3.80
  -1  -3  -4    1.30    4.30
  -1  -3  -4    5.30    4.90
   1   3   4    4.80    4.20
   1   3   4    1.70    4.20
   1   3   4    3.30    2.70
   1   3   4    1.90    4.60
  -2  -3  -4  557.14   28.80
  -2  -3  -4  456.55   29.20
   2   3   4  529.35   28.60
   2   3   4  542.45   29.70
   2   3   4  561.84   27.00
   2   3   4  601.94   27.50
  -3  -3  -4   98.99   12.60
  -3  -3  -4  104.59   10.20
   3   3   4  103.69   12.90
   3   3   4  122.39    6.60
   3   3   4  106.59    6.70
  -4  -3  -4  191.08   15.60
  -4  -3  -4  190.48   15.40
   4   3   4  181.08   17.00
   4   3   4  201.78   11.90
  -5  -3  -4  195.58   17.70
  -5  -3  -4  186.58   16.10
   5   3   4  180.78   13.40
   5   3   4  214.38   18.30
  -6  -3  -4    3.80    7.40
   6   3   4   12.40    7.00
   6   3   4    4.80    5.60
  -7  -3  -4  115.99   15.90
  -7  -3  -4   85.49   10.90
   7   3   4  103.59   13.60
   7   3   4  101.89   12.70
  -8  -3  -4    1.30    8.00
  -8  -3  -4   10.60   11.00
   8   3   4    0.10    6.60
   8   3   4    2.30    9.40
  -9  -3  -4  -10.50    6.20
  -9  -3  -4    3.30    8.60
   9   3   4    5.80    7.10
   9   3   4   12.10    9.90
 -10  -3  -4  230.58   20.00
 -10  -3  -4  210.28   20.90
 -10  -3  -4  197.18   19.90
  10   3   4  248.88   19.10
  10   3   4  242.48   22.00
 -11  -3  -4   13.10   10.30
 -11  -3  -4    6.50    9.90
 -11  -3  -4    1.10   10.40
  11   3   4   11.30    8.30
  11   3   4  -20.50    9.10
   9  -4  -4   51.89    6.80
   9  -4  -4   26.20   11.00
  -9   4   4   44.70    6.10
  -9   4   4   55.09   10.80
  -9   4   4   41.70    6.60
  -9   4   4   28.40   12.00
   8  -4  -4   80.29   11.10
   8  -4  -4   80.39    9.30
  -8   4   4   82.79    9.00
  -8   4   4   96.39   12.00
  -8   4   4   70.79    9.00
  -8   4   4   49.10   11.90
   7  -4  -4   64.89   11.60
   7  -4  -4   84.09    8.80
  -7   4   4   78.99    8.70
  -7   4   4   88.19    9.50
  -7   4   4   91.19   11.20
   6  -4  -4  311.67   20.00
   6  -4  -4  291.77   16.60
  -6   4   4  327.57   21.50
  -6   4   4  289.77   17.40
  -6   4   4  288.07   22.30
  -6   4   4  293.07   16.80
   5  -4  -4  232.48   12.60
   5  -4  -4  225.08   16.10
   5  -4  -4  233.38   19.90
  -5   4   4  218.68   18.10
  -5   4   4  223.38   14.30
  -5   4   4  224.38   19.30
  -5   4   4  214.48   13.40
   4  -4  -4   15.90    6.80
   4  -4  -4   12.50    2.60
  -4   4   4   13.00    4.50
  -4   4   4   14.50    4.40
  -4   4   4    8.40    6.90
   3  -4  -4  439.66   22.70
   3  -4  -4  426.36   26.80
   3  -4  -4  415.26   20.10
   3  -4  -4  410.76   24.70
  -3   4   4  420.66   24.90
  -3   4   4  444.56   23.00
  -3   4   4  402.96   26.50
  -3   4   4  443.46   22.00
   2  -4  -4  427.86   21.40
   2  -4  -4  433.06   24.10
   2  -4  -4  438.96   20.20
   2  -4  -4  434.26   22.70
   2  -4  -4  382.76   25.80
  -2   4   4  444.96   24.20
  -2   4   4  403.26   22.50
  -2   4   4  390.26   24.80
  -2   4   4  411.26   21.50
   1  -4  -4  573.54   28.40
   1  -4  -4  524.75   31.50
   1  -4  -4  590.84   30.00
   1  -4  -4  614.04   30.90
   1  -4  -4  578.94   28.60
  -1   4   4  587.84   28.80
  -1   4   4  572.64   30.00
  -1   4   4  593.64   32.30
   0  -4  -4 1050.89   60.99
   0  -4  -4 1237.28   60.29
   0  -4  -4 1274.77   58.99
   0  -4  -4 1220.08   59.59
   0  -4  -4 1263.57   60.29
   0   4   4 1248.78   58.99
   0   4   4 1367.66   61.49
   0   4   4 1255.87   60.29
  -1  -4  -4  299.57   15.50
  -1  -4  -4  313.67   16.30
  -1  -4  -4  298.47   18.60
  -1  -4  -4  304.37   18.60
  -1  -4  -4  265.67   18.10
   1   4   4  327.37   17.90
   1   4   4  345.07   18.10
   1   4   4  319.07   16.70
  -2  -4  -4  206.28   15.30
  -2  -4  -4  187.88   13.20
  -2  -4  -4  205.98   15.20
  -2  -4  -4  216.38   10.80
   2   4   4  236.78   15.50
   2   4   4  228.48   12.70
   2   4   4  196.88   11.90
  -3  -4  -4   11.50    6.60
  -3  -4  -4    6.90    2.90
  -3  -4  -4    4.10    6.00
   3   4   4    5.80    2.40
   3   4   4    6.10    4.90
   3   4   4   11.10    4.40
  -4  -4  -4  218.68   18.40
  -4  -4  -4  264.57   18.50
   4   4   4  250.67   13.70
   4   4   4  233.98   17.60
  -5  -4  -4  475.05   30.10
  -5  -4  -4  564.64   31.40
   5   4   4  529.75   32.20
   5   4   4  541.85   27.30
  -6  -4  -4  285.67   21.50
   6   4   4  272.67   23.00
   6   4   4  316.77   18.50
  -7  -4  -4  567.64   33.10
  -7  -4  -4  548.75   33.30
   7   4   4  575.24   31.60
   7   4   4  636.54   36.00
  -8  -4  -4   85.49   14.40
  -8  -4  -4   66.89   10.70
   8   4   4   67.59    9.20
  -9  -4  -4   26.70    9.80
  -9  -4  -4   34.40    9.50
  -9  -4  -4   29.50    7.40
   9   4   4   18.00   10.10
   9   4   4   27.40    8.30
 -10  -4  -4   17.90   10.10
 -10  -4  -4   33.60   11.20
 -10  -4  -4   45.30   11.30
  10   4   4   21.00    9.40
  10   4   4   34.70    9.20
 -11  -4  -4   28.70   11.50
 -11  -4  -4   86.79   12.90
 -11  -4  -4   53.29   12.70
  11   4   4   57.89   10.90
  11   4   4   73.99   13.50
   9  -5  -4   10.80   11.20
   9  -5  -4    3.70    5.30
  -9   5   4    7.50    9.40
  -9   5   4   11.90    5.80
  -9   5   4    7.50   11.20
  -9   5   4   11.60    3.10
   8  -5  -4   14.40    5.10
   8  -5  -4    5.70    9.60
  -8   5   4   17.20    3.70
  -8   5   4   13.00    5.80
  -8   5   4   -1.60    8.90
  -8   5   4    0.60    9.10
   7  -5  -4   16.00    8.80
   7  -5  -4   -3.00    6.40
   7  -5  -4    2.40    4.50
  -7   5   4    7.40    5.90
  -7   5   4    0.30    3.50
  -7   5   4   -4.50    8.90
   6  -5  -4  128.29   15.90
   6  -5  -4  120.09    9.40
   6  -5  -4  116.39   15.00
  -6   5   4  118.19   15.40
  -6   5   4  124.89   10.90
  -6   5   4  108.09    9.10
  -6   5   4  117.99   14.20
   5  -5  -4  298.17   21.00
  -5   5   4  291.27   16.80
  -5   5   4  332.37   21.60
  -5   5   4  297.67   17.70
  -5   5   4  307.47   22.90
   4  -5  -4   10.90    7.80
   4  -5  -4    8.40    3.60
   4  -5  -4   10.30    3.20
  -4   5   4    3.20    6.60
  -4   5   4   12.80    5.30
  -4   5   4   13.80    4.10
  -4   5   4   11.80    6.70
   3  -5  -4  118.59   14.80
   3  -5  -4  129.79   12.20
   3  -5  -4  124.39    9.40
  -3   5   4  117.09   10.00
  -3   5   4  131.19   12.30
  -3   5   4   94.39   11.60
  -3   5   4  134.09   10.00
   2  -5  -4   89.69   11.40
   2  -5  -4  100.09    9.20
   2  -5  -4  106.39    8.60
   2  -5  -4  109.49    7.90
   2  -5  -4   90.39   11.10
  -2   5   4  114.79    8.70
  -2   5   4  108.19   13.80
  -2   5   4  105.29    9.50
   1  -5  -4   25.70    5.10
   1  -5  -4   22.90    5.00
   1  -5  -4   20.20    5.50
   1  -5  -4   28.70    4.50
   1  -5  -4   15.90    7.10
  -1   5   4   23.90    7.00
  -1   5   4   21.30    5.00
   0  -5  -4  355.36   19.60
   0  -5  -4  369.76   20.20
   0  -5  -4  341.87   20.60
   0  -5  -4  352.76   20.60
   0  -5  -4  374.46   22.50
   0   5   4  421.76   22.10
   0   5   4  336.57   19.50
   0   5   4  361.36   19.40
  -1  -5  -4 1073.89   53.29
  -1  -5  -4 1069.99   52.89
  -1  -5  -4 1117.89   52.99
  -1  -5  -4 1045.90   50.89
  -1  -5  -4 1058.49   51.39
   1   5   4 1048.10   51.39
  -2  -5  -4   93.89   10.90
  -2  -5  -4   93.09    9.60
  -2  -5  -4   77.49    9.30
  -2  -5  -4   99.59    7.70
  -2  -5  -4   96.29    7.30
   2   5   4   86.69   10.10
   2   5   4   85.59    7.30
  -3  -5  -4   81.79   10.40
  -3  -5  -4  104.69   12.20
  -3  -5  -4  103.29    7.60
  -3  -5  -4   88.29    8.30
   3   5   4  110.19   12.00
   3   5   4   82.09    7.50
   3   5   4   92.19    8.30
  -4  -5  -4    9.20    3.20
  -4  -5  -4    9.70    3.60
  -4  -5  -4   16.70    7.60
   4   5   4    5.50    7.40
   4   5   4   13.70    5.30
   4   5   4    7.20    3.50
  -5  -5  -4  107.29    6.20
  -5  -5  -4  110.69   11.60
   5   5   4  102.29   13.00
   5   5   4  110.89    9.50
  -6  -5  -4  178.08   16.50
   6   5   4  226.28   18.30
   6   5   4  243.58   14.90
  -7  -5  -4   30.50    8.40
  -7  -5  -4   42.20    9.80
   7   5   4   29.40    6.60
  -8  -5  -4   16.30    8.50
  -8  -5  -4   23.40    9.40
   8   5   4   20.10    7.20
  -9  -5  -4   11.80    8.10
  -9  -5  -4   18.40    8.00
   9   5   4   26.70   12.10
   9   5   4   23.50    8.40
 -10  -5  -4    8.80    9.10
 -10  -5  -4    6.30    9.60
  10   5   4   15.40    9.60
  10   5   4   13.00    8.80
 -11  -5  -4    2.50   10.10
 -11  -5  -4   -6.40   10.40
  11   5   4    9.50   12.70
  11   5   4   11.20    9.70
   8  -6  -4   -1.50    7.90
   8  -6  -4    7.80    5.20
   8  -6  -4   16.10    9.60
  -8   6   4   -0.20    5.90
  -8   6   4    1.70   10.20
   7  -6  -4   35.60    5.70
   7  -6  -4   48.10   10.70
   7  -6  -4   29.90   10.40
  -7   6   4   47.40    9.20
  -7   6   4   43.10    7.50
   6  -6  -4   -1.40    8.10
   6  -6  -4    2.00    8.20
   6  -6  -4    8.70    4.30
  -6   6   4   11.40    5.90
  -6   6   4   16.60    8.10
   5  -6  -4   21.00    4.60
   5  -6  -4   25.10    8.30
  -5   6   4   24.70    6.30
  -5   6   4   16.00    7.80
  -5   6   4   15.10    7.90
   4  -6  -4  244.18   14.40
  -4   6   4  228.68   18.60
  -4   6   4  266.17   18.10
   3  -6  -4  126.49   15.10
   3  -6  -4  103.89    8.60
   3  -6  -4  121.19   11.90
  -3   6   4  106.39   10.00
  -3   6   4  119.69   12.00
   2  -6  -4  389.36   24.80
   2  -6  -4  364.06   22.40
   2  -6  -4  385.26   20.60
   2  -6  -4  366.96   20.50
  -2   6   4  385.26   21.00
   1  -6  -4   91.49    9.50
   1  -6  -4   90.79   10.80
   1  -6  -4   91.89    9.00
   1  -6  -4   85.79   10.70
  -1   6   4  100.99    8.20
   0  -6  -4    4.90    5.00
   0  -6  -4   -8.70    4.00
   0  -6  -4    0.70    5.70
   0  -6  -4   -3.60    4.90
   0  -6  -4   -4.30    4.30
   0   6   4    2.00    3.90
   0   6   4   -0.60    3.80
  -1  -6  -4   16.30    5.60
  -1  -6  -4    9.30    5.60
  -1  -6  -4   11.90    5.90
  -1  -6  -4   16.10    4.40
   1   6   4   10.40    5.10
  -2  -6  -4  125.99   12.70
  -2  -6  -4  146.99   11.70
  -2  -6  -4  129.59   13.10
  -2  -6  -4  135.89   10.30
   2   6   4  127.39   10.40
  -3  -6  -4   68.39    9.60
  -3  -6  -4   77.79    9.20
  -3  -6  -4   90.19    8.50
   3   6   4   82.29    8.10
   3   6   4   69.09    7.70
   3   6   4   73.09    9.40
  -4  -6  -4  898.81   45.10
  -4  -6  -4  931.01   45.20
  -4  -6  -4  956.60   47.90
   4   6   4  891.21   45.30
   4   6   4  906.91   45.10
   4   6   4  960.90   48.80
  -5  -6  -4  341.77   20.70
  -5  -6  -4  280.07   17.20
  -5  -6  -4  259.87   15.60
   5   6   4  278.27   16.90
   5   6   4  330.47   22.40
   5   6   4  257.27   17.00
  -6  -6  -4  112.29   13.00
  -6  -6  -4  116.99    7.80
   6   6   4  127.69   17.30
   6   6   4  142.29   11.40
  -7  -6  -4   19.90    9.20
  -7  -6  -4   15.50    8.40
   7   6   4   32.80    6.70
  -8  -6  -4   89.29   11.40
  -8  -6  -4   72.79   12.10
   8   6   4  119.09   13.10
  -9  -6  -4  121.69   15.40
  -9  -6  -4  123.99   17.30
   9   6   4  165.28   21.30
   9   6   4  146.29   18.50
 -10  -6  -4   43.70   10.70
 -10  -6  -4   44.70   11.60
  10   6   4   79.59   12.80
 -11  -6  -4  104.49   14.10
 -11  -6  -4   65.69   13.20
  11   6   4   86.49   12.70
  11   6   4   82.99   17.30
   8  -7  -4   28.00    6.30
   8  -7  -4   29.30   11.00
   8  -7  -4   21.90   12.00
  -8   7   4   43.40    7.90
  -8   7   4   42.60   11.60
   7  -7  -4   31.30    5.90
   7  -7  -4   26.00   10.50
   7  -7  -4   19.50   10.60
  -7   7   4   45.40    7.40
  -7   7   4   53.69   10.70
   6  -7  -4   42.60    9.20
   6  -7  -4   67.89    9.20
   6  -7  -4   66.59   10.90
  -6   7   4   63.49    8.40
   5  -7  -4   40.50    6.10
   5  -7  -4   35.90    8.40
  -5   7   4   40.10    7.50
  -5   7   4   52.29   10.20
   4  -7  -4   91.69   10.70
  -4   7   4  115.39   12.90
  -4   7   4  138.59   11.20
   3  -7  -4  143.79   14.00
   3  -7  -4  146.69    9.70
  -3   7   4  133.79   12.00
   2  -7  -4   14.10    6.10
   2  -7  -4    9.20    8.20
   2  -7  -4   13.10    4.90
   2  -7  -4   17.70    5.40
  -2   7   4   15.40    6.30
   1  -7  -4  208.68   14.80
   1  -7  -4  230.78   18.10
   1  -7  -4  224.38   15.40
   1  -7  -4  217.18   15.00
   1  -7  -4  222.68   15.50
  -1   7   4  234.78   15.20
   0  -7  -4  529.55   29.10
   0  -7  -4  561.54   31.40
   0  -7  -4  548.35   28.90
   0  -7  -4  570.44   28.90
   0  -7  -4  553.04   29.40
   0   7   4  532.15   28.30
   0   7   4  530.65   28.80
  -1  -7  -4  107.39   10.10
  -1  -7  -4  117.69   12.20
  -1  -7  -4  114.99   12.50
  -1  -7  -4  116.19   11.60
  -1  -7  -4  123.09   11.00
   1   7   4  113.29    9.50
   1   7   4  117.89    9.10
  -2  -7  -4    7.60    7.00
  -2  -7  -4   14.60    5.00
  -2  -7  -4   15.20    6.80
  -2  -7  -4   12.30    6.20
   2   7   4    9.80    4.50
  -3  -7  -4   29.10    6.40
  -3  -7  -4   36.50    5.60
   3   7   4   36.00    5.60
  -4  -7  -4   69.49    9.00
  -4  -7  -4   61.89    7.10
   4   7   4   62.29    7.10
   4   7   4   59.29    7.80
  -5  -7  -4  383.96   21.60
  -5  -7  -4  415.26   22.70
  -5  -7  -4  386.16   26.00
   5   7   4  396.26   22.20
   5   7   4  435.86   27.10
   5   7   4  393.26   22.50
  -6  -7  -4   -1.50    3.50
  -6  -7  -4    2.50    5.10
   6   7   4    3.00    5.10
   6   7   4    8.50    6.20
   6   7   4    5.40    8.70
  -7  -7  -4   56.19    6.10
  -7  -7  -4   36.70   10.10
   7   7   4   52.59    7.50
  -8  -7  -4   37.40    3.90
  -8  -7  -4   39.50   10.40
  -8  -7  -4   44.50    4.10
  -8  -7  -4   40.90    8.60
   8   7   4   46.60    8.20
  -9  -7  -4    7.00   10.00
  -9  -7  -4    9.10    8.50
   9   7   4    9.50   11.00
   9   7   4    9.40    7.30
 -10  -7  -4    8.90    9.40
 -10  -7  -4   15.70   10.80
  10   7   4    0.00   11.90
   7  -8  -4   11.50   11.50
   7  -8  -4    4.70    6.00
   7  -8  -4    2.80    9.70
  -7   8   4   -7.00    6.40
  -7   8   4   15.70    8.70
   6  -8  -4   84.99   11.00
   6  -8  -4   47.70   12.00
   6  -8  -4   82.69   12.20
  -6   8   4   82.39    9.60
   5  -8  -4   39.60    6.80
   5  -8  -4   42.00    9.30
  -5   8   4   47.60    8.80
  -5   8   4   49.30    8.30
   4  -8  -4    8.80    6.90
  -4   8   4    4.80    6.70
   3  -8  -4  102.49   12.90
   3  -8  -4  105.29    8.10
  -3   8   4  120.39   10.00
   2  -8  -4    0.30    5.80
   2  -8  -4    4.60    7.50
   2  -8  -4   -0.60    4.40
   2  -8  -4    5.00    5.30
   2  -8  -4    9.60    7.10
  -2   8   4   -0.10    6.10
   1  -8  -4    1.90    6.00
   1  -8  -4   -1.10    5.10
   1  -8  -4   -5.20    5.10
  -1   8   4   -0.10    6.30
   0  -8  -4   94.09   12.40
   0  -8  -4  107.39   13.20
   0  -8  -4  120.29   11.50
   0  -8  -4  105.09   11.50
   0  -8  -4  102.79   10.60
   0   8   4  103.99   10.60
   0   8   4  123.49   11.10
  -1  -8  -4  101.29   12.30
  -1  -8  -4  112.39   12.20
  -1  -8  -4  112.09   13.30
  -1  -8  -4  115.29   10.40
   1   8   4  114.19   11.40
   1   8   4  106.99    9.20
  -2  -8  -4  265.37   17.30
  -2  -8  -4  280.27   19.10
   2   8   4  250.37   16.30
  -3  -8  -4  108.99   13.40
  -3  -8  -4  108.09   12.50
  -3  -8  -4  108.09   11.70
   3   8   4  100.89   10.50
  -4  -8  -4   25.80    6.30
  -4  -8  -4   23.50    6.30
  -4  -8  -4   29.90    8.10
   4   8   4   24.60    6.10
  -5  -8  -4   59.79    7.80
  -5  -8  -4   54.79    7.00
  -5  -8  -4   45.90   13.20
   5   8   4   41.30    7.50
   5   8   4   55.29    7.60
  -6  -8  -4  101.69    9.80
  -6  -8  -4   99.29   11.90
  -6  -8  -4   95.19   12.70
   6   8   4   92.59   11.60
   6   8   4  105.19   10.40
  -7  -8  -4  103.39   13.70
  -7  -8  -4  109.19   12.90
   7   8   4  119.79   11.40
   7   8   4  122.59   13.10
  -8  -8  -4   83.19   10.60
  -8  -8  -4   82.29   11.20
   8   8   4   78.09    9.50
  -9  -8  -4   30.40   10.80
  -9  -8  -4   14.90    9.00
  -9  -8  -4   33.20    4.50
  -9  -8  -4   36.10    4.00
   9   8   4   39.20   13.50
   6  -9  -4   -1.60    6.50
   6  -9  -4   -9.20    9.30
   6  -9  -4   18.70   11.00
  -6   9   4    2.80    7.10
   5  -9  -4   -7.20   10.00
   5  -9  -4   -2.90    6.20
   5  -9  -4   -6.30    8.60
  -5   9   4    0.20    7.10
   4  -9  -4   28.70   10.80
   4  -9  -4   37.80    8.10
  -4   9   4   54.99    8.70
   3  -9  -4  178.58   16.60
   3  -9  -4  167.58   10.20
   3  -9  -4  175.08   16.70
  -3   9   4  179.78   14.20
   2  -9  -4   16.80    9.30
   2  -9  -4   29.20    5.30
   2  -9  -4   39.90    8.70
  -2   9   4   16.60    7.20
   1  -9  -4   56.19    6.90
   1  -9  -4   49.00    7.20
   1  -9  -4   55.99    8.80
   1  -9  -4   45.60    9.40
  -1   9   4   53.69    7.40
   0  -9  -4   69.09    8.90
   0  -9  -4   83.09    9.60
   0  -9  -4   61.99    8.70
   0  -9  -4   52.59   10.00
   0  -9  -4   93.09   10.90
   0   9   4   60.29    7.70
  -1  -9  -4   51.39    6.50
  -1  -9  -4   53.79    8.80
   1   9   4   48.10    7.10
   1   9   4   53.19    7.80
  -2  -9  -4    0.50    6.80
  -2  -9  -4   -0.90    6.50
  -2  -9  -4    4.40    7.70
  -2  -9  -4    4.20    4.90
   2   9   4    6.10    6.40
  -3  -9  -4   35.70    9.10
  -3  -9  -4   25.80    7.20
   3   9   4   38.20    7.20
  -4  -9  -4  190.18   17.30
  -4  -9  -4  182.18   15.10
   4   9   4  170.28   13.30
  -5  -9  -4   58.89   10.70
  -5  -9  -4   84.39   11.00
   5   9   4   65.29    8.30
   5   9   4   60.89    8.30
  -6  -9  -4    7.60    9.00
  -6  -9  -4   15.30    6.90
  -6  -9  -4   14.80    5.70
  -6  -9  -4   12.50    6.80
   6   9   4    8.20    6.30
   6   9   4    6.40    6.40
  -7  -9  -4    3.00    4.90
  -7  -9  -4   -7.40    6.10
  -7  -9  -4   15.20    7.70
  -7  -9  -4    2.20    9.40
   7   9   4    0.20    6.30
   7   9   4    0.00    6.20
  -8  -9  -4    9.60   10.30
  -8  -9  -4    8.10    4.60
  -8  -9  -4   -3.00    7.20
   8   9   4   10.60    8.50
   8   9   4    7.90    6.90
  -9  -9  -4   15.50    4.10
  -9  -9  -4   24.40   11.60
  -9  -9  -4   23.50    9.60
   9   9   4   36.30    8.50
   9   9   4   17.10    7.50
   4 -10  -4   12.00   10.70
   4 -10  -4   10.80    9.70
   4 -10  -4   21.70    8.00
  -4  10   4   17.60    7.80
   3 -10  -4   13.20   10.30
   3 -10  -4  -13.30    8.20
   3 -10  -4    0.90    7.40
   3 -10  -4   -2.90    2.50
  -3  10   4    0.80    6.90
   2 -10  -4   26.30    5.30
   2 -10  -4   28.60    9.50
   2 -10  -4   28.50    8.60
   2 -10  -4   31.00   10.10
  -2  10   4   16.70    6.20
   1 -10  -4   44.90    9.60
   1 -10  -4   31.50    5.90
   1 -10  -4   45.50    9.00
   1 -10  -4   38.20    7.10
   1 -10  -4   33.10   10.00
  -1  10   4   37.60    8.40
   0 -10  -4  105.69   13.00
   0 -10  -4   67.29    8.80
   0 -10  -4   69.09   11.30
   0  10   4   79.09    9.70
  -1 -10  -4  107.79   11.50
  -1 -10  -4  105.29   14.00
  -1 -10  -4   98.99    9.70
  -1 -10  -4  105.79   11.60
  -1 -10  -4  108.19   14.30
   1  10   4   93.89   10.30
   1  10   4  105.39   10.90
  -2 -10  -4   45.20    9.90
  -2 -10  -4   39.00    5.80
  -2 -10  -4   43.50    9.50
  -2 -10  -4   34.40    8.80
  -2 -10  -4   38.00    9.30
   2  10   4   46.10    7.50
  -3 -10  -4    8.40    7.80
  -3 -10  -4   11.90    5.00
  -3 -10  -4   17.20    8.30
  -3 -10  -4   17.30    8.60
   3  10   4   17.70    6.80
  -4 -10  -4   27.80    7.60
  -4 -10  -4    3.60    8.70
   4  10   4   28.40    6.60
  -5 -10  -4   35.80    9.90
  -5 -10  -4   52.29    8.40
  -5 -10  -4   28.10    8.00
  -5 -10  -4   41.10    7.40
   5  10   4   41.10    8.20
   5  10   4   37.00    7.40
  -6 -10  -4   83.09    9.30
  -6 -10  -4   66.39    9.20
  -6 -10  -4   54.99   16.30
  -6 -10  -4  103.39   13.40
   6  10   4  102.89   10.50
   6  10   4   91.29    9.20
  -7 -10  -4   52.09   11.40
  -7 -10  -4   34.50    7.40
  -7 -10  -4   37.80    8.60
  -7 -10  -4   48.70    9.40
   7  10   4   55.19    7.90
   2 -11  -4    9.30    4.90
   2 -11  -4   11.10   10.40
   2 -11  -4  -12.40    9.30
   2 -11  -4    0.20    8.80
  -2  11   4   -2.90    6.90
   1 -11  -4   -1.80    9.60
   1 -11  -4   25.80   10.10
   1 -11  -4   -3.50    8.00
   1 -11  -4   10.10    5.10
  -1  11   4    2.20    6.90
   0 -11  -4   20.60    8.90
   0 -11  -4   14.30    4.70
   0 -11  -4   30.30   10.40
   0 -11  -4   32.00   10.40
   0 -11  -4    8.60    7.30
   0  11   4   14.10    7.50
  -1 -11  -4   64.69   10.50
  -1 -11  -4   49.10   10.70
  -1 -11  -4   61.19   10.50
  -1 -11  -4   49.60    5.70
  -1 -11  -4   73.49   10.50
   1  11   4   46.70    9.10
  -2 -11  -4   -4.90    9.00
  -2 -11  -4   -8.80    8.60
  -2 -11  -4    3.60    4.10
  -2 -11  -4  -16.10    8.20
  -2 -11  -4   -3.50    8.30
   2  11   4   -1.40    6.30
  -3 -11  -4   38.00   10.10
  -3 -11  -4   41.50    5.70
  -3 -11  -4   69.99   10.30
  -3 -11  -4   52.09    9.90
   3  11   4   45.50    7.70
  -4 -11  -4   10.90    8.10
  -4 -11  -4   22.00    5.80
  -4 -11  -4    9.80    8.50
  -4 -11  -4   26.20    9.70
  -4 -11  -4   26.70    5.30
   4  11   4   23.10    7.00
  -5 -11  -4    8.20    6.30
  -5 -11  -4    8.00    8.30
  -5 -11  -4   -1.00    8.20
  -5 -11  -4    7.10   10.00
   5  11   4    0.10    5.70
   4   7  -5   21.90    5.50
  -4  -7   5    5.80    9.90
  -4  -7   5   20.90    9.90
  -4  -7   5   23.20   12.10
   3   7  -5   -3.00   10.10
   3   7  -5    2.10    5.30
  -3  -7   5    5.30    8.70
  -3  -7   5   -1.00    9.90
   2   7  -5   12.20    5.40
   2   7  -5  -14.50    9.20
  -2  -7   5    5.90    8.70
  -2  -7   5  -15.80    8.30
   1   7  -5   -4.50    5.50
  -1  -7   5    9.40    9.20
  -1  -7   5   -7.20    8.20
   0   7  -5    5.20    5.80
   0  -7   5    5.30    8.30
   0  -7   5    6.40    8.60
  -1   7  -5   45.20    7.30
   1  -7   5   46.60    9.20
   1  -7   5   40.90   10.60
  -2   7  -5   30.90    7.30
   2  -7   5   30.20    8.00
   2  -7   5   39.10   10.60
  -3   7  -5   26.00    7.30
   3  -7   5   20.10   10.00
   3  -7   5    6.10    8.00
   6   6  -5    5.40    2.90
   6   6  -5   -5.60   12.10
  -6  -6   5   10.70    9.40
  -6  -6   5   -4.70    8.50
  -6  -6   5  -15.90    8.80
   5   6  -5    8.00   10.10
  -5  -6   5   15.70    9.00
  -5  -6   5    6.40   11.50
  -5  -6   5    6.20    8.80
   4   6  -5   58.69   11.30
   4   6  -5   48.00    6.30
  -4  -6   5   46.00   11.00
  -4  -6   5   46.70    9.80
  -4  -6   5   43.70   10.00
   3   6  -5   26.10    5.70
   3   6  -5   13.40    9.50
  -3  -6   5   39.50    8.10
  -3  -6   5   16.70    9.20
   2   6  -5   26.90    9.90
   2   6  -5   37.80    6.10
  -2  -6   5   23.50    8.80
  -2  -6   5   44.40   10.00
   1   6  -5   33.00    6.30
   1   6  -5    0.00    9.20
  -1  -6   5   26.20    8.40
  -1  -6   5   15.60    9.00
   0   6  -5    7.00    5.70
   0  -6   5    9.10    7.70
   0  -6   5    8.60    8.80
  -1   6  -5    8.90    5.70
   1  -6   5   10.10    7.00
   1  -6   5   14.30    8.70
  -2   6  -5    1.50    6.20
   2  -6   5   19.20    7.80
   2  -6   5   13.60    9.00
  -3   6  -5   21.10    7.30
   3  -6   5   34.10    9.30
   3  -6   5   27.00    6.90
  -4   6  -5   12.10    3.30
  -4   6  -5    9.20    6.50
   4  -6   5   25.10    6.20
   4  -6   5   18.50    9.30
  -5   6  -5   -3.60    4.50
   5  -6   5    2.90    5.20
   5  -6   5   10.30    9.00
   7   5  -5   62.09   12.80
   7   5  -5   87.59   10.80
  -7  -5   5   80.19    9.70
  -7  -5   5   69.19   11.10
  -7  -5   5   67.09   10.10
  -7  -5   5   57.39   14.30
   6   5  -5   68.29   10.50
   6   5  -5   73.39    6.40
  -6  -5   5   83.39   13.80
  -6  -5   5   97.19   12.00
  -6  -5   5   85.29   11.60
  -6  -5   5   94.29   11.10
   5   5  -5   66.19    7.80
   5   5  -5   43.40   10.50
   5   5  -5   56.69    4.60
  -5  -5   5   66.59   10.70
  -5  -5   5   48.80   10.00
  -5  -5   5   47.10    9.30
   4   5  -5    1.00    8.40
   4   5  -5   -3.10    3.80
   4   5  -5    1.10    4.80
  -4  -5   5   12.60    8.20
  -4  -5   5    0.70    9.40
  -4  -5   5   -1.10    7.80
   3   5  -5   -1.00    3.90
   3   5  -5    3.00    4.30
   3   5  -5    0.60    7.70
  -3  -5   5   -7.20    7.80
  -3  -5   5   -6.80    8.50
   2   5  -5  146.69   16.10
   2   5  -5  118.09    8.30
  -2  -5   5  114.69   15.20
  -2  -5   5  143.49   15.80
   1   5  -5  293.77   17.30
   1   5  -5  289.37   21.80
  -1  -5   5  298.37   20.80
  -1  -5   5  298.77   21.70
   0   5  -5   57.19    7.20
   0   5  -5   61.39   10.20
   0  -5   5   60.79   10.00
  -1   5  -5   63.79    7.70
   1  -5   5   47.90    8.30
   1  -5   5   66.39    9.90
  -2   5  -5   27.70    3.40
  -2   5  -5   23.80    3.10
   2  -5   5   21.50    7.30
   2  -5   5   25.60    3.50
   2  -5   5   20.30    8.80
  -3   5  -5   26.60    4.50
   3  -5   5   32.30    6.80
   3  -5   5   42.10    9.80
  -4   5  -5   23.90    5.20
   4  -5   5   27.30    6.20
   4  -5   5   27.30    9.60
  -5   5  -5   81.19   10.50
   5  -5   5   73.09   11.60
   5  -5   5   83.99    9.60
  -6   5  -5   17.50    7.00
   6  -5   5   24.00    5.10
   6  -5   5   40.60   11.10
   6  -5   5   35.20   11.40
  -7   5  -5    7.70    8.70
   7  -5   5    2.50    9.60
   7  -5   5   -2.90    8.90
   7  -5   5    9.70    8.60
   8   4  -5   13.90    8.90
   8   4  -5   14.80   11.20
  -8  -4   5   16.60   12.50
  -8  -4   5   -3.60    8.20
  -8  -4   5    6.10    9.60
   7   4  -5   51.59   15.40
   7   4  -5   38.20   10.90
  -7  -4   5   33.40   10.10
  -7  -4   5   47.70   12.50
  -7  -4   5   34.70    8.40
  -7  -4   5   61.89   10.30
   6   4  -5   67.89    9.10
   6   4  -5   51.79   10.50
  -6  -4   5   64.99   10.50
  -6  -4   5   72.59   12.10
  -6  -4   5   68.99   10.10
  -6  -4   5   58.69    8.50
   5   4  -5  118.59   13.70
  -5  -4   5  160.28   16.50
  -5  -4   5  144.79   12.30
  -5  -4   5  170.18   15.20
   4   4  -5   75.19    4.60
   4   4  -5   57.49   10.10
   4   4  -5   67.59    7.90
  -4  -4   5   52.49   11.30
  -4  -4   5   66.59   10.30
   3   4  -5   17.40    8.00
   3   4  -5   19.70    4.30
   3   4  -5   24.70    5.40
  -3  -4   5   36.10    9.70
  -3  -4   5   14.20    8.00
   2   4  -5    0.80    3.80
   2   4  -5   -2.80    3.90
   2   4  -5    2.90    6.00
  -2  -4   5   -1.00    6.50
  -2  -4   5    3.50    7.30
   1   4  -5    0.30    3.10
   1   4  -5    4.70    4.30
   1   4  -5   -1.70    7.20
  -1  -4   5    4.70    5.60
  -1  -4   5    4.30    7.40
   0   4  -5   88.69    6.80
   0   4  -5   77.19    8.90
   0  -4   5   85.39   10.30
   0  -4   5   78.59   10.00
  -1   4  -5   61.99    6.00
   1  -4   5   46.70    8.30
   1  -4   5   60.09    9.90
  -2   4  -5   28.40    4.60
   2  -4   5   37.90    8.90
   2  -4   5   22.60    6.70
   2  -4   5   40.80    3.50
  -3   4  -5   77.89    8.70
   3  -4   5   65.39    5.90
   3  -4   5   67.99    8.40
  -4   4  -5    6.20    5.00
   4  -4   5   -7.50    5.00
   4  -4   5   11.70    8.10
  -5   4  -5    8.40    5.80
   5  -4   5    9.70    9.40
   5  -4   5    2.10    5.00
   5  -4   5   11.70    8.50
  -6   4  -5   13.30    6.80
   6  -4   5   10.60    5.00
   6  -4   5   16.40    9.80
   6  -4   5   24.60    9.10
  -7   4  -5   13.30   14.30
   7  -4   5   38.40   10.80
   7  -4   5   33.90    8.50
   7  -4   5   30.10    9.50
   8  -4   5   -5.50   11.30
   8  -4   5   28.90    9.80
   8  -4   5   25.10   11.00
   8   3  -5  123.99   13.30
   8   3  -5  124.19   14.70
  -8  -3   5  128.29   16.20
  -8  -3   5  135.59   17.80
  -8  -3   5  127.49   15.50
   7   3  -5   82.59   11.10
   7   3  -5   85.19   12.70
  -7  -3   5   97.59   16.60
  -7  -3   5   66.99   12.70
  -7  -3   5   92.09   11.10
   6   3  -5  -15.50    6.00
   6   3  -5    0.60    6.20
  -6  -3   5    3.30    6.90
  -6  -3   5  -10.00    7.90
  -6  -3   5   -6.70    6.10
  -6  -3   5    6.40    8.10
   5   3  -5   13.40    8.30
  -5  -3   5    2.00    6.10
  -5  -3   5   -5.50    7.60
  -5  -3   5    0.60    5.60
   4   3  -5   28.30    8.50
   4   3  -5   23.10    6.20
  -4  -3   5   20.10    7.40
  -4  -3   5   24.90   13.50
  -4  -3   5   26.70    5.80
   3   3  -5  347.97   16.80
   3   3  -5  361.36   18.10
   3   3  -5  352.96   20.60
  -3  -3   5  382.26   23.40
   2   3  -5  728.33   35.70
   2   3  -5  740.63   36.90
   2   3  -5  744.43   39.80
  -2  -3   5  738.33   39.50
  -2  -3   5  737.63   40.30
   1   3  -5   97.39   11.20
   1   3  -5  127.79    9.50
   1   3  -5  109.09    8.60
  -1  -3   5  123.69   14.10
   0   3  -5   16.30    4.10
   0   3  -5   16.20    7.00
   0  -3   5   19.20    6.60
  -1   3  -5    4.50    3.70
   1  -3   5   -0.90    6.00
   2  -3   5  128.79    7.20
   2  -3   5  120.99   12.20
  -3   3  -5  175.38   14.50
   3  -3   5  139.59   13.30
   3  -3   5  171.88   15.40
  -4   3  -5  107.99   10.90
  -4   3  -5  110.29   12.40
   4  -3   5  102.39   10.30
   4  -3   5  113.59   14.00
  -5   3  -5   50.59    7.90
  -5   3  -5   53.19    7.90
   5  -3   5   57.59    9.40
   5  -3   5   47.70    6.80
  -6   3  -5   46.20    6.90
  -6   3  -5   41.60    7.70
   6  -3   5   31.70   10.20
   6  -3   5   43.00    6.50
   6  -3   5   58.59   10.30
  -7   3  -5    1.70    5.10
   7  -3   5   -7.70    8.60
   7  -3   5   -6.30    6.70
   7  -3   5    9.60    9.60
  -8   3  -5    4.60    4.80
   8  -3   5    8.00   10.00
   8  -3   5    6.60    9.10
  -9   3  -5   21.20    4.70
  -9   3  -5   23.10    9.10
   9  -3   5   29.40   11.90
   9   2  -5   97.79   15.40
   9   2  -5  108.79   13.40
  -9  -2   5   92.29   14.40
  -9  -2   5  112.39   14.80
  -9  -2   5   96.99   13.60
  -9  -2   5   91.99   12.90
   8   2  -5   21.20   10.40
   8   2  -5   18.40    8.70
  -8  -2   5   31.10    8.10
  -8  -2   5    3.50   10.20
  -8  -2   5    7.80    9.30
   7   2  -5  466.45   29.50
   7   2  -5  537.75   31.90
  -7  -2   5  465.85   27.70
  -7  -2   5  472.95   30.60
  -7  -2   5  488.85   29.30
   6   2  -5   59.09    9.50
   6   2  -5   64.89   11.00
  -6  -2   5   67.59    9.40
  -6  -2   5   72.59   10.70
   5   2  -5  -16.50    6.40
   5   2  -5    9.90    7.80
  -5  -2   5    4.20    6.10
  -5  -2   5    3.70    8.20
  -5  -2   5   14.30    8.80
   4   2  -5   13.90    5.80
   4   2  -5   -2.80    6.80
  -4  -2   5    4.80    5.70
  -4  -2   5   14.40    7.50
  -4  -2   5   -5.50    9.10
   3   2  -5   64.59    4.90
   3   2  -5   59.59    7.30
   3   2  -5   51.19    8.60
  -3  -2   5   62.79   10.20
   2   2  -5  134.39    8.20
   2   2  -5  150.48   11.30
   2   2  -5  127.39   13.30
  -2  -2   5  121.79   14.50
   1   2  -5  252.67   18.10
   1   2  -5  261.97   15.80
  -1  -2   5  257.47   18.90
  -1  -2   5  286.87   18.30
   0   2  -5  115.39    9.70
   0   2  -5  123.89   12.60
   0  -2   5  119.99   12.70
   0  -2   5  132.89   12.60
  -1   2  -5   59.89    8.20
  -1   2  -5   42.30    7.40
   1  -2   5   42.80    8.00
   1  -2   5   53.29    8.10
  -2   2  -5   19.00    6.50
   2  -2   5   25.10    6.60
   2  -2   5    6.00    5.50
  -3   2  -5   12.70    5.80
   3  -2   5    0.80    5.10
  -4   2  -5  198.18   15.10
   4  -2   5  187.48   17.30
   4  -2   5  186.48   14.40
  -5   2  -5  184.08   13.90
  -5   2  -5  167.48   14.50
   5  -2   5  190.98   15.90
   5  -2   5  184.38   19.70
   5  -2   5  170.98   13.60
  -6   2  -5   80.69    9.00
  -6   2  -5   51.29    8.90
   6  -2   5   51.39   10.90
   6  -2   5   78.99   10.40
  -7   2  -5    6.50    6.00
   7  -2   5    1.40    6.70
   7  -2   5    9.10    7.30
  -8   2  -5    7.90    5.90
   8  -2   5   -0.70    6.60
   8  -2   5   -5.00    9.30
  -9   2  -5    5.90    8.60
  -9   2  -5   -6.70    5.50
   9  -2   5   -7.30    7.90
   9  -2   5   13.30   10.30
  10  -2   5   14.70    8.00
   9   1  -5   -0.60    9.50
   9   1  -5   30.40   12.20
  -9  -1   5   10.60    9.50
  -9  -1   5   10.50    7.00
  -9  -1   5    9.70   10.00
  -9  -1   5   -6.90    8.30
   8   1  -5   15.50   10.30
   8   1  -5    0.30    9.00
  -8  -1   5   19.90    9.70
  -8  -1   5   21.60    9.20
  -8  -1   5    4.30    8.30
   7   1  -5    6.80    8.00
   7   1  -5   12.30    9.30
  -7  -1   5   -1.20    5.60
  -7  -1   5   22.00    8.30
   6   1  -5  195.28   17.20
   6   1  -5  231.18   19.00
  -6  -1   5  197.98   17.40
  -6  -1   5  216.28   15.50
  -6  -1   5  203.28   19.10
   5   1  -5   10.10    7.90
  -5  -1   5    4.30    5.60
  -5  -1   5   17.50    7.30
  -5  -1   5    8.40    8.50
  -5  -1   5    3.50    7.20
   4   1  -5  937.11   49.40
   4   1  -5  948.41   48.60
  -4  -1   5 1085.69   49.40
  -4  -1   5  935.21   47.80
  -4  -1   5  924.51   48.40
  -4  -1   5  925.91   50.29
   3   1  -5  237.98   16.90
   3   1  -5  234.08   15.70
  -3  -1   5  214.98   15.90
  -3  -1   5  245.48   18.40
   2   1  -5   10.60    1.90
   2   1  -5    8.60    5.90
   2   1  -5    8.80    2.40
   2   1  -5    8.60    5.30
  -2  -1   5   12.10    7.10
  -2  -1   5    3.30    5.80
   1   1  -5    7.10    5.40
   1   1  -5    5.50    4.90
   1   1  -5    1.20    5.60
  -1  -1   5    8.70    5.50
  -1  -1   5    3.70    4.60
   0   1  -5   27.90    6.20
   0   1  -5   27.80    7.00
   0   1  -5   34.60    5.70
   0  -1   5   27.20    5.90
   0  -1   5   28.70    6.30
  -1   1  -5  338.27   20.40
  -1   1  -5  328.57   21.30
   1  -1   5  361.36   21.40
   1  -1   5  356.56   16.50
   1  -1   5  370.76   20.80
  -2   1  -5  626.24   33.50
   2  -1   5  635.74   33.10
   2  -1   5  625.54   33.20
  -3   1  -5  203.18   14.70
   3  -1   5  193.98   16.40
   3  -1   5  198.88   14.70
   3  -1   5  176.38   14.40
  -4   1  -5    5.70    5.40
   4  -1   5   -6.00    5.30
   4  -1   5   -2.10    5.10
   4  -1   5   -5.70    6.50
  -5   1  -5   39.20    7.70
   5  -1   5   32.90    7.60
   5  -1   5   32.60    6.60
  -6   1  -5   11.00    6.70
  -6   1  -5   29.00    7.10
   6  -1   5   30.30    9.50
  -7   1  -5  255.07   18.10
   7  -1   5  270.07   17.40
   7  -1   5  237.28   20.80
  -8   1  -5   39.20    7.80
   8  -1   5   28.00   10.30
   8  -1   5   39.90    7.20
  -9   1  -5   40.20    9.30
   9  -1   5    7.20    9.60
   9  -1   5   25.70    7.00
 -10   1  -5   34.40    9.90
  10  -1   5   16.40    9.20
  10  -1   5   25.30    7.40
  10   0  -5   49.50   12.70
 -10   0   5   61.89   13.80
   9   0  -5   77.29   13.70
   9   0  -5   92.79   13.30
  -9   0   5   70.79   12.30
  -9   0   5  138.19   17.40
  -9   0   5  104.69   14.30
   8   0  -5   63.09   12.30
   8   0  -5   79.19   11.60
  -8   0   5   74.99   11.00
  -8   0   5   54.29    9.80
   7   0  -5  296.77   21.30
   7   0  -5  297.57   22.70
  -7   0   5  332.07   22.70
  -7   0   5  250.07   20.60
  -7   0   5  279.57   21.60
  -7   0   5  246.18   17.50
   6   0  -5   11.70    8.70
   6   0  -5   -6.20    7.00
  -6   0   5    1.50    7.70
  -6   0   5    5.90    5.10
  -6   0   5  -11.70    6.80
   5   0  -5  246.58   19.70
   5   0  -5  286.07   18.30
  -5   0   5  249.38   19.70
  -5   0   5  259.87   18.70
  -5   0   5  242.58   16.10
   4   0  -5   24.30    6.90
   4   0  -5   39.80    6.90
  -4   0   5   26.80    5.40
  -4   0   5   28.20    6.70
  -4   0   5   25.50    7.90
   3   0  -5  331.87   20.50
   3   0  -5  309.47   19.90
  -3   0   5  330.97   19.90
  -3   0   5  309.37   20.40
  -3   0   5  357.76   21.90
   2   0  -5  550.54   25.50
   2   0  -5  522.45   28.90
   2   0  -5  548.35   28.70
   2   0  -5  494.65   28.70
  -2   0   5  542.65   28.80
  -2   0   5  523.55   29.90
   1   0  -5  389.26   21.50
   1   0  -5  391.56   22.90
   1   0  -5  362.76   21.40
   1   0  -5  396.66   18.10
  -1   0   5  356.66   21.20
  -1   0   5  371.76   22.70
   0   0  -5   25.50    5.60
   0   0  -5   26.50    5.60
   0   0  -5   19.10    5.00
   0   0   5   23.50    6.60
   0   0   5   27.40    5.50
  -1   0  -5   -1.20    5.60
  -1   0  -5    3.00    4.30
   1   0   5    1.50    4.40
   1   0   5    1.70    1.80
   1   0   5    1.40    5.50
  -2   0  -5  256.27   16.90
   2   0   5  243.38   15.80
   2   0   5  260.07   17.60
   2   0   5  256.07   16.00
  -3   0  -5  178.48   14.10
   3   0   5  189.58   15.60
   3   0   5  190.78   14.10
   3   0   5  191.98   13.20
  -4   0  -5  596.74   31.70
   4   0   5  580.74   30.70
   4   0   5  594.14   31.70
   4   0   5  577.04   33.20
  -5   0  -5  154.68   13.80
   5   0   5  132.29   12.20
   5   0   5  134.69   14.90
  -6   0  -5   13.30    6.60
  -6   0  -5   30.20    7.30
   6   0   5   13.00    8.30
  -7   0  -5   -0.10    6.80
  -7   0  -5    1.50    7.00
   7   0   5    2.00    4.60
   7   0   5   -4.50    6.00
  -8   0  -5   73.19   11.30
   8   0   5   96.29   12.80
   8   0   5   93.09   10.10
  -9   0  -5   26.00    8.20
   9   0   5   22.80    9.70
   9   0   5   22.50    5.60
 -10   0  -5   88.39   12.00
 -10   0  -5   87.09   11.30
  10   0   5   76.49    8.20
  10   0   5   72.99   12.60
  10  -1  -5   13.80   11.40
  10  -1  -5   -0.40   13.30
 -10   1   5   -5.60    9.00
 -10   1   5    1.20   11.90
 -10   1   5    2.90    8.30
   9  -1  -5  -10.90   10.10
   9  -1  -5   -0.90   10.00
  -9   1   5    9.90    5.50
  -9   1   5    8.30   10.70
  -9   1   5   -0.30    8.50
   8  -1  -5  213.88   21.40
   8  -1  -5  224.88   20.10
  -8   1   5  197.28   19.10
  -8   1   5  223.68   14.70
  -8   1   5  227.08   18.70
  -8   1   5  208.38   18.50
   7  -1  -5  114.89   13.00
   7  -1  -5   94.69   13.30
  -7   1   5  120.59   10.70
  -7   1   5  119.89   13.80
  -7   1   5  137.19   15.40
  -7   1   5  111.99   14.40
   6  -1  -5   42.40    8.70
  -6   1   5    9.70    8.80
  -6   1   5   32.20    5.20
  -6   1   5   31.80    7.30
  -6   1   5   29.60    8.20
   5  -1  -5  317.27   21.10
   5  -1  -5  341.27   22.60
  -5   1   5  310.47   21.90
  -5   1   5  302.47   17.50
  -5   1   5  313.77   21.30
  -5   1   5  308.27   21.60
   4  -1  -5   54.39    8.60
  -4   1   5   55.49    6.80
  -4   1   5   41.20    8.30
  -4   1   5   43.80    8.30
   3  -1  -5  135.09   12.60
   3  -1  -5  133.79   11.30
   3  -1  -5  136.29   13.10
  -3   1   5  143.69   13.30
  -3   1   5  140.79    9.50
  -3   1   5  121.39   12.60
   2  -1  -5   22.20    3.80
   2  -1  -5   23.00    2.10
   2  -1  -5   15.40    5.20
   2  -1  -5   22.70    5.40
   2  -1  -5   22.20    6.40
  -2   1   5   22.30    6.70
  -2   1   5   19.00    5.50
   1  -1  -5  563.34   31.20
   1  -1  -5  616.94   31.00
   1  -1  -5  599.54   27.90
   1  -1  -5  573.04   29.80
  -1   1   5  570.84   30.00
  -1   1   5  561.34   31.40
   0  -1  -5  969.60   50.69
   0  -1  -5 1024.90   49.10
   0  -1  -5 1058.89   50.39
   0   1   5  992.70   50.39
   0   1   5 1007.40   47.50
   0   1   5 1020.30   49.00
  -1  -1  -5  212.38   16.00
  -1  -1  -5  225.48   13.50
   1   1   5  233.78   13.70
   1   1   5  209.18   14.70
   1   1   5  239.78   12.00
   1   1   5  263.37   15.50
  -2  -1  -5  420.56   24.40
   2   1   5  445.66   24.90
   2   1   5  412.16   24.40
   2   1   5  438.06   22.40
  -3  -1  -5  137.49   12.50
   3   1   5  131.79   12.20
   3   1   5  131.49   10.20
   3   1   5  131.09   13.20
  -4  -1  -5   19.10    6.40
   4   1   5   25.30    7.80
   4   1   5   21.70    6.00
  -5  -1  -5  202.28   15.60
   5   1   5  187.78   15.70
  -6  -1  -5  120.29   13.90
   6   1   5  116.89   13.00
   6   1   5  112.89    8.90
  -7  -1  -5  141.79   16.50
   7   1   5  151.68    9.90
   7   1   5  109.79   13.40
  -8  -1  -5   -7.30    7.20
  -8  -1  -5    7.00    6.40
   8   1   5    3.60    6.70
   8   1   5   -0.90    3.70
  -9  -1  -5   -6.40    7.90
  -9  -1  -5   28.00    8.60
   9   1   5    5.50    4.30
   9   1   5   11.30    9.70
 -10  -1  -5   35.90   10.20
 -10  -1  -5   33.40    9.70
  10   1   5   24.20   11.00
 -11  -1  -5   42.80   11.40
 -11  -1  -5   75.39   11.80
  11   1   5   48.70   12.90
  10  -2  -5   58.29   15.10
  10  -2  -5   70.89   11.70
 -10   2   5   85.99   11.70
   9  -2  -5   31.90    8.90
   9  -2  -5   42.40    9.50
  -9   2   5   33.40   11.90
  -9   2   5   30.40    3.20
  -9   2   5   35.40    8.40
  -9   2   5   46.80   10.00
   8  -2  -5   16.80   10.00
   8  -2  -5   12.10    9.50
  -8   2   5   15.40    2.10
  -8   2   5   29.60   10.50
  -8   2   5    6.40    6.70
  -8   2   5   13.10    4.70
  -8   2   5   10.40    8.40
   7  -2  -5    7.30    8.40
   7  -2  -5    8.10    8.30
  -7   2   5    8.90    4.20
  -7   2   5    8.00    6.40
  -7   2   5    0.70    7.70
   6  -2  -5  148.99   16.30
  -6   2   5  153.38   16.50
  -6   2   5  155.58   14.40
  -6   2   5  191.68   11.10
  -6   2   5  141.99   17.10
   5  -2  -5  373.76   22.80
   5  -2  -5  294.27   22.60
  -5   2   5  364.46   18.00
  -5   2   5  337.37   21.20
  -5   2   5  345.57   21.60
  -5   2   5  310.97   21.80
   4  -2  -5  407.26   24.40
  -4   2   5  413.36   23.20
  -4   2   5  396.96   24.20
  -4   2   5  355.96   19.30
   3  -2  -5  166.08   13.50
   3  -2  -5  158.88   13.20
   3  -2  -5  159.68   14.10
  -3   2   5  170.98   15.60
  -3   2   5  156.68   14.10
  -3   2   5  158.48   13.10
  -3   2   5  150.68    8.60
   2  -2  -5  122.39   11.20
   2  -2  -5  130.69    7.30
   2  -2  -5  133.39   11.10
   2  -2  -5  140.99    9.50
   2  -2  -5  128.49   12.00
  -2   2   5  138.99   12.10
  -2   2   5  129.59   10.90
  -2   2   5  129.19   14.10
   1  -2  -5   85.49    8.00
   1  -2  -5   92.39   10.60
   1  -2  -5   89.19    6.90
   1  -2  -5   96.89   10.70
  -1   2   5   88.79   10.60
  -1   2   5  102.19    7.60
   0  -2  -5  351.66   19.50
   0  -2  -5  379.16   21.20
   0  -2  -5  395.76   22.30
   0  -2  -5  386.16   19.10
   0   2   5  366.46   21.90
   0   2   5  384.16   18.90
   0   2   5  384.56   20.70
   0   2   5  384.06   19.90
  -1  -2  -5   38.70    6.70
  -1  -2  -5   26.50    3.20
   1   2   5   29.20    5.70
   1   2   5   28.40    3.30
   1   2   5   14.30    6.00
   1   2   5   25.40    3.60
  -2  -2  -5  522.15   28.00
   2   2   5  488.55   28.30
   2   2   5  510.65   28.80
   2   2   5  534.35   25.60
   2   2   5  529.75   25.10
  -3  -2  -5  909.91   46.00
  -3  -2  -5  888.11   45.20
   3   2   5  865.51   44.50
   3   2   5  893.51   42.20
   3   2   5  855.91   46.00
  -4  -2  -5   -5.80    6.70
  -4  -2  -5   10.90    5.00
   4   2   5    4.90    5.80
   4   2   5    1.20    6.70
  -5  -2  -5   26.00    7.30
   5   2   5   15.80    8.20
  -6  -2  -5   47.80    9.10
   6   2   5   46.10    4.60
   6   2   5   32.30    8.30
  -7  -2  -5   32.70   10.80
  -7  -2  -5   43.50   10.30
  -8  -2  -5  460.65   28.10
  -8  -2  -5  380.06   25.90
  -9  -2  -5  147.99   15.30
  -9  -2  -5  131.59   15.90
   9   2   5  148.09   18.60
 -10  -2  -5   18.30    9.40
 -10  -2  -5   13.20   10.30
 -10  -2  -5   30.40   11.10
  10   2   5   20.20    9.80
 -11  -2  -5   -7.20    9.60
 -11  -2  -5    7.90   10.00
 -11  -2  -5  -16.70   10.20
  11   2   5   -8.70   10.90
  11   2   5    5.00    8.30
   9  -3  -5   58.79   12.30
   9  -3  -5   71.49   12.50
  -9   3   5   60.29    6.40
  -9   3   5   72.09   11.40
  -9   3   5   61.59   13.20
  -9   3   5   67.09    9.00
   8  -3  -5   80.09   12.20
   8  -3  -5   78.29   12.40
  -8   3   5   79.49   11.70
  -8   3   5   60.99    8.80
  -8   3   5   78.99    6.70
   7  -3  -5   42.60    9.90
   7  -3  -5   29.40    9.10
  -7   3   5   27.00    7.00
  -7   3   5   30.90    9.40
  -7   3   5   34.80    4.10
  -6   3   5   42.00    9.70
  -6   3   5   26.70    6.90
  -6   3   5   30.40    3.90
   5  -3  -5   10.60    5.90
   5  -3  -5   21.60    7.90
  -5   3   5   23.90    8.80
  -5   3   5   -1.20    7.60
  -5   3   5    4.80    5.90
  -5   3   5   12.20    3.00
   4  -3  -5  128.99   14.50
  -4   3   5  155.08    8.80
  -4   3   5  152.28   14.90
  -4   3   5  145.59   12.40
   3  -3  -5  258.57   18.40
   3  -3  -5  229.58   18.20
   3  -3  -5  282.77   16.90
  -3   3   5  269.87   20.40
  -3   3   5  262.97   16.90
  -3   3   5  254.57   17.10
   2  -3  -5  294.87   14.60
   2  -3  -5  279.17   18.70
   2  -3  -5  275.67   17.80
   2  -3  -5  282.57   18.00
  -2   3   5  287.07   17.80
  -2   3   5  281.97   20.60
   1  -3  -5 1878.01   83.69
   1  -3  -5 1797.32   84.69
   1  -3  -5 1775.92   86.29
   1  -3  -5 1847.42   85.89
  -1   3   5 1823.02   83.19
  -1   3   5 1776.62   85.89
  -1   3   5 1611.24   87.29
   0  -3  -5  341.27   20.00
   0  -3  -5  337.37   17.30
   0  -3  -5  340.47   19.20
   0  -3  -5  320.17   16.80
   0   3   5  339.07   17.10
   0   3   5  306.57   18.00
   0   3   5  325.17   19.70
   0   3   5  309.87   20.60
  -1  -3  -5  150.88    7.60
  -1  -3  -5  171.98   11.60
  -1  -3  -5  150.28   12.90
   1   3   5  149.39   11.50
   1   3   5  160.88    9.50
   1   3   5  129.09   12.00
   1   3   5  134.99   12.00
  -2  -3  -5  260.67   17.50
  -2  -3  -5  309.67   17.80
   2   3   5  281.57   14.30
   2   3   5  214.78   17.20
   2   3   5  224.78   15.60
   2   3   5  262.27   16.30
  -3  -3  -5  511.15   29.60
  -3  -3  -5  583.94   30.80
   3   3   5  499.15   26.70
   3   3   5  480.95   30.30
   3   3   5  563.04   25.00
   3   3   5  510.05   28.60
   3   3   5  552.04   25.10
  -4  -3  -5  336.67   20.00
  -4  -3  -5  303.37   22.10
   4   3   5  300.67   22.30
   4   3   5  320.77   15.80
  -5  -3  -5  215.68   19.80
  -5  -3  -5  262.87   18.90
   5   3   5  256.87   20.60
   6   3   5  102.39   13.30
  -7  -3  -5    1.50    8.90
   7   3   5   13.10    6.50
  -8  -3  -5   10.00    8.00
  -8  -3  -5    5.10    9.70
   8   3   5    9.70    7.00
  -9  -3  -5   20.70   10.70
  -9  -3  -5   12.90   13.60
   9   3   5   10.70   10.10
   9   3   5    2.40    7.20
 -10  -3  -5   40.80   11.10
 -10  -3  -5   51.39   12.10
 -10  -3  -5   31.60    9.60
  10   3   5   50.59    9.50
  10   3   5   40.40   10.20
 -11  -3  -5   17.10    8.50
 -11  -3  -5   26.90   11.40
 -11  -3  -5   27.20   11.80
  11   3   5   34.40    9.20
  11   3   5   15.00   11.40
   9  -4  -5    9.00   10.60
   9  -4  -5   -2.00    9.90
  -9   4   5   -8.90    9.10
  -9   4   5   -4.40    4.60
  -9   4   5    2.10   11.90
  -9   4   5   -0.90    5.70
   8  -4  -5   19.70    9.10
   8  -4  -5   -7.30    9.40
  -8   4   5    9.40   10.20
  -8   4   5    1.30    4.40
  -8   4   5   14.00    5.80
  -8   4   5   21.50    8.80
   7  -4  -5  242.78   20.40
  -7   4   5  228.78   16.80
  -7   4   5  268.07   14.80
  -7   4   5  318.67   22.50
   6  -4  -5  150.08   16.00
  -6   4   5  119.39   13.80
  -6   4   5  155.88   12.30
  -6   4   5  132.69   17.00
  -6   4   5  139.59    9.80
   5  -4  -5   60.89    8.70
  -5   4   5   66.19   11.10
  -5   4   5   50.49    5.50
  -5   4   5   45.00    9.80
  -5   4   5   50.99    7.00
   4  -4  -5   62.79    7.40
  -4   4   5   88.79   11.60
  -4   4   5   69.09    6.80
  -4   4   5   77.69    9.80
  -4   4   5   69.29    9.80
   3  -4  -5    3.90    5.00
  -3   4   5    5.90    6.40
  -3   4   5    0.30    4.50
  -3   4   5   -0.90    3.40
   2  -4  -5  188.78   14.20
   2  -4  -5  209.38   14.70
   2  -4  -5  208.28   11.90
  -2   4   5  220.08   18.00
  -2   4   5  217.98   14.40
   1  -4  -5  344.37   17.90
   1  -4  -5  341.67   20.10
   1  -4  -5  360.26   20.40
  -1   4   5  323.47   21.20
  -1   4   5  346.87   20.20
   0  -4  -5   70.89    7.20
   0  -4  -5   65.39    6.60
   0  -4  -5   58.49    7.40
   0  -4  -5   56.59    7.70
   0   4   5   40.80    7.90
   0   4   5   50.59    7.40
   0   4   5   54.49    6.10
   0   4   5   66.19    6.30
  -1  -4  -5   25.20    5.90
  -1  -4  -5   34.50    3.00
  -1  -4  -5   30.20    2.90
  -1  -4  -5   28.60    6.70
  -1  -4  -5   27.80    5.00
   1   4   5   30.10    5.60
   1   4   5   32.80    6.60
   1   4   5   27.30    4.90
   1   4   5   20.80    6.10
  -2  -4  -5  744.53   39.00
  -2  -4  -5  653.93   39.50
   2   4   5  809.92   39.60
   2   4   5  769.12   37.10
   2   4   5  814.42   38.00
   2   4   5  745.93   39.40
  -3  -4  -5   18.00    7.40
  -3  -4  -5   12.50    5.60
   3   4   5   20.10    7.00
   3   4   5   13.60    3.20
   3   4   5   19.90    5.00
  -4  -4  -5  148.89   12.70
  -4  -4  -5  135.39   15.50
   4   4   5  127.29   15.50
   4   4   5  143.49    8.40
   5   4   5  141.29    9.90
   5   4   5  132.19   16.70
  -6  -4  -5  234.58   20.30
   6   4   5  222.98   15.00
   6   4   5  249.48   21.60
  -7  -4  -5  375.46   25.70
  -7  -4  -5  341.87   24.10
   7   4   5  330.47   21.00
  -8  -4  -5   26.30    9.90
  -8  -4  -5   32.10   10.20
  -8  -4  -5   42.90   10.60
   8   4   5   31.40    7.20
  -9  -4  -5   25.20    8.90
  -9  -4  -5    8.20   10.10
  -9  -4  -5    1.50    9.30
   9   4   5   21.30    7.80
 -10  -4  -5   14.20    9.50
 -10  -4  -5    1.10    9.90
 -10  -4  -5   11.30   10.30
  10   4   5   21.60   10.90
  10   4   5    3.10    7.80
 -11  -4  -5   23.20   11.20
 -11  -4  -5   20.40   11.30
 -11  -4  -5   45.80   11.80
  11   4   5   10.30   11.20
  11   4   5    0.80   10.10
   9  -5  -5    5.80   10.20
  -9   5   5    3.50    5.40
  -9   5   5  -11.00    9.00
  -9   5   5    8.80   12.60
  -9   5   5    6.50    5.00
   8  -5  -5    1.30   10.10
  -8   5   5   14.50    5.10
  -8   5   5    9.20    7.30
  -8   5   5    9.20    6.60
  -8   5   5   -3.00    9.50
   7  -5  -5   20.60    9.70
  -7   5   5   41.70   10.40
  -7   5   5   29.80    5.80
  -7   5   5   35.30    8.70
  -7   5   5   13.90    5.30
   6  -5  -5  258.37   20.60
  -6   5   5  256.57   15.40
  -6   5   5  269.17   21.70
  -6   5   5  257.17   16.20
   5  -5  -5    5.70    7.80
  -5   5   5   12.80    9.30
  -5   5   5   13.50    5.10
  -5   5   5   16.20    5.20
  -5   5   5   14.50    9.30
   4  -5  -5  310.07   23.70
   4  -5  -5  304.77   19.50
   4  -5  -5  299.77   17.90
  -4   5   5  329.87   18.80
  -4   5   5  322.37   22.00
  -4   5   5  313.87   21.50
  -4   5   5  305.47   17.50
   3  -5  -5  471.85   25.30
   3  -5  -5  493.55   30.30
  -3   5   5  461.65   27.40
  -3   5   5  463.25   29.10
  -3   5   5  487.75   25.70
  -3   5   5  468.85   24.50
   2  -5  -5    6.40    4.40
   2  -5  -5   13.10    7.80
   2  -5  -5    8.50    5.20
   2  -5  -5    8.10    1.80
   2  -5  -5    8.10    6.10
  -2   5   5    2.10    7.50
  -2   5   5   14.60    4.70
  -2   5   5   11.00    5.30
   1  -5  -5    2.70    5.20
   1  -5  -5   -0.30    3.10
   1  -5  -5   -0.20    4.50
   1  -5  -5    8.80    7.00
   1  -5  -5    1.10    5.50
  -1   5   5    3.50    5.40
  -1   5   5    1.90    4.90
   0  -5  -5   24.60    6.60
   0  -5  -5   34.80    5.50
   0  -5  -5   21.20    5.00
   0  -5  -5   37.50    7.50
   0  -5  -5   27.60    6.30
   0   5   5   43.70    7.80
   0   5   5   35.60    5.40
   0   5   5   27.90    6.20
  -1  -5  -5  478.45   29.40
  -1  -5  -5  546.55   28.10
  -1  -5  -5  489.95   30.10
  -1  -5  -5  556.14   26.70
  -1  -5  -5  563.34   30.10
   1   5   5  538.55   27.90
   1   5   5  622.74   30.00
   1   5   5  601.54   28.90
  -2  -5  -5  498.65   25.80
  -2  -5  -5  449.95   25.40
  -2  -5  -5  401.36   26.20
  -2  -5  -5  415.16   24.70
  -2  -5  -5  450.85   21.80
   2   5   5  492.55   25.90
   2   5   5  482.65   24.30
   2   5   5  452.65   23.80
  -3  -5  -5  286.27   19.50
  -3  -5  -5  252.17   19.10
   3   5   5  267.77   15.90
   3   5   5  302.97   19.50
  -4  -5  -5   99.79   13.30
   4   5   5  101.89    7.10
   4   5   5  102.19   14.20
   4   5   5  105.09    9.50
   5   5   5   38.00   10.30
   5   5   5   36.70    4.50
  -6  -5  -5   21.90    9.40
  -6  -5  -5   30.60    9.70
   6   5   5   21.20    9.90
   6   5   5   24.40    4.90
  -7  -5  -5   15.60    7.40
  -7  -5  -5   16.00    9.10
   7   5   5   21.10   12.50
   7   5   5    1.80    5.00
  -8  -5  -5   49.40    9.20
  -8  -5  -5   67.19   11.10
  -8  -5  -5   52.29   10.90
   8   5   5   48.80    7.90
  -9  -5  -5  177.18   16.80
  -9  -5  -5  206.68   18.50
  -9  -5  -5  192.78   20.00
   9   5   5  177.98   16.60
 -10  -5  -5   44.20   11.20
 -10  -5  -5   36.00   11.70
 -10  -5  -5   32.90    8.60
  10   5   5   30.90    9.20
  10   5   5   54.79   12.70
 -11  -5  -5   19.30   10.90
 -11  -5  -5   23.50   11.30
 -11  -5  -5   15.30   11.90
  11   5   5   19.80   12.90
   8  -6  -5    9.70   10.80
   8  -6  -5   16.80    3.20
  -8   6   5   27.60    6.50
  -8   6   5   19.30    8.60
  -8   6   5   15.10   11.30
   7  -6  -5  140.19   17.30
   7  -6  -5  143.49    8.40
  -7   6   5  197.08   19.10
  -7   6   5  132.29   11.80
  -7   6   5  180.58   18.30
  -7   6   5  129.29    9.70
   6  -6  -5   11.80    2.80
   6  -6  -5   11.90    8.30
  -6   6   5   14.00    4.20
  -6   6   5   15.70    9.70
  -6   6   5   18.90    5.70
   5  -6  -5   27.50    9.60
   5  -6  -5   19.60    2.80
  -5   6   5   16.30    9.00
  -5   6   5    7.40    7.50
  -5   6   5   21.00    4.80
   4  -6  -5   27.30    4.80
   4  -6  -5   17.30    2.70
   4  -6  -5   34.10   10.10
   4  -6  -5   17.30    2.70
   4  -6  -5   20.10    7.00
  -4   6   5   17.50    4.90
  -4   6   5   24.80    7.70
  -4   6   5   24.80    6.60
  -4   6   5   15.90    6.00
   3  -6  -5  366.46   20.00
   3  -6  -5  305.77   17.70
   3  -6  -5  297.57   16.00
   3  -6  -5  282.57   22.80
  -3   6   5  298.87   18.20
  -3   6   5  301.67   21.30
  -3   6   5  316.67   18.40
   2  -6  -5  150.28   16.50
   2  -6  -5  140.09   11.30
   2  -6  -5  164.28   10.10
   2  -6  -5  161.48   12.00
  -2   6   5  159.38   11.50
  -2   6   5  118.39   15.60
   1  -6  -5  387.66   22.10
   1  -6  -5  379.26   20.70
   1  -6  -5  377.96   22.50
   1  -6  -5  361.46   24.70
  -1   6   5  408.96   24.50
  -1   6   5  368.36   20.70
   0  -6  -5  194.08   16.70
   0  -6  -5  224.78   14.30
   0  -6  -5  211.18   13.10
   0  -6  -5  195.28   14.80
   0  -6  -5  208.28   15.40
   0   6   5  203.68   16.00
   0   6   5  200.88   12.50
  -1  -6  -5   27.30    4.20
  -1  -6  -5   27.60    6.90
  -1  -6  -5   25.30    6.30
  -1  -6  -5   32.70    6.40
   1   6   5   22.10    6.00
  -2  -6  -5   33.70    7.70
  -2  -6  -5   25.80    3.80
  -2  -6  -5   32.70    7.30
  -2  -6  -5   24.00    6.40
   2   6   5   20.70    4.80
   2   6   5   24.10    6.30
  -3  -6  -5  402.86   24.70
  -3  -6  -5  395.46   19.90
  -3  -6  -5  357.76   21.80
   3   6   5  380.06   21.30
   3   6   5  423.36   24.10
  -4  -6  -5  198.58   17.20
  -4  -6  -5  200.98   13.10
  -4  -6  -5  213.98   12.60
   4   6   5  232.08   18.20
   4   6   5  226.68   12.70
   4   6   5  220.08   14.00
  -5  -6  -5   64.09   10.60
  -5  -6  -5   52.39    5.10
   5   6   5   55.09    7.40
   5   6   5   47.00    7.30
   5   6   5   37.40   10.30
  -6  -6  -5  331.97   25.30
  -6  -6  -5  393.26   24.60
   6   6   5  408.56   31.10
   6   6   5  385.46   20.70
  -7  -6  -5   -2.20    9.30
  -7  -6  -5   -6.90    6.00
   7   6   5    5.70   10.00
   7   6   5    1.70    4.90
  -8  -6  -5  112.19   14.50
  -8  -6  -5  175.88   15.50
  -8  -6  -5  117.39   14.70
   8   6   5  131.89   12.70
  -9  -6  -5   -2.70    7.10
  -9  -6  -5   -2.30   10.20
  -9  -6  -5   -4.80    8.30
   9   6   5  -17.50    9.90
   9   6   5    6.20    6.70
 -10  -6  -5   46.70    9.30
 -10  -6  -5   39.20   11.60
 -10  -6  -5   57.69   12.10
  10   6   5   45.30    9.10
  10   6   5   33.70   12.80
 -11  -6  -5   39.90   11.90
 -11  -6  -5   43.30   10.40
  11   6   5   25.00    9.40
   8  -7  -5   19.60    3.90
   8  -7  -5   18.60   10.50
  -8   7   5   10.50   10.60
  -8   7   5   24.30    6.90
   7  -7  -5   35.10   11.40
   7  -7  -5   42.70   12.00
   7  -7  -5   34.20    4.50
  -7   7   5   40.70    7.00
  -7   7   5   36.30   10.70
   6  -7  -5  135.99    9.30
   6  -7  -5  143.99   15.80
   6  -7  -5  125.89   14.70
  -6   7   5  150.58   12.60
   5  -7  -5    9.30    3.50
   5  -7  -5    9.50    8.10
  -5   7   5    1.10    5.90
  -5   7   5    2.90    7.20
   4  -7  -5   28.70    4.40
   4  -7  -5   34.10    4.60
   4  -7  -5   22.60    4.20
   4  -7  -5   18.90    7.30
  -4   7   5   40.10    7.10
  -4   7   5   13.90    8.50
   3  -7  -5   -0.10    4.10
   3  -7  -5   -5.50    8.10
   3  -7  -5   -5.60    6.00
   3  -7  -5    0.40    3.70
  -3   7   5    6.40    5.90
   2  -7  -5  260.17   16.30
   2  -7  -5  248.08   20.60
   2  -7  -5  255.37   15.40
  -2   7   5  236.48   16.00
   1  -7  -5   75.29    9.10
   1  -7  -5   63.89   10.30
   1  -7  -5   60.19    8.60
   1  -7  -5   66.89    8.00
  -1   7   5   57.19    7.70
   0  -7  -5  149.29   15.20
   0  -7  -5  161.28   13.20
   0  -7  -5  170.68   12.90
   0  -7  -5  149.59   13.70
   0  -7  -5  161.08   12.40
   0   7   5  170.48   12.10
   0   7   5  177.68   12.80
  -1  -7  -5   62.79    8.60
  -1  -7  -5   67.69    9.10
  -1  -7  -5   61.99    8.50
  -1  -7  -5   77.19    8.60
  -1  -7  -5   74.79    8.40
   1   7   5   58.09    6.90
  -2  -7  -5  133.59   12.70
  -2  -7  -5  139.79   10.60
  -2  -7  -5  147.89   13.40
   2   7   5  140.99   10.10
  -3  -7  -5    9.00    5.60
  -3  -7  -5   11.70    4.00
   3   7   5   17.10    6.10
  -4  -7  -5    0.20    3.80
  -4  -7  -5    0.00    4.40
  -4  -7  -5    4.00    8.00
   4   7   5    4.40    7.50
   4   7   5   -0.10    3.90
   4   7   5   -3.40    4.30
  -5  -7  -5  179.68   11.80
  -5  -7  -5  187.38   12.60
  -5  -7  -5  183.68   17.30
  -5  -7  -5  164.28   18.00
   5   7   5  189.08   12.50
   5   7   5  193.08   18.40
   5   7   5  144.69   13.10
  -6  -7  -5   73.09   10.90
  -6  -7  -5   67.09    6.00
  -6  -7  -5   69.69   13.10
   6   7   5   78.69    9.30
   6   7   5   55.39    8.40
   6   7   5   73.19   12.50
  -7  -7  -5   80.49   12.80
   7   7   5  100.89   10.50
  -8  -7  -5   39.40    9.10
  -8  -7  -5   31.40   10.40
   8   7   5   54.49    7.30
   8   7   5    4.80   10.20
  -9  -7  -5    9.30    8.10
  -9  -7  -5    8.80    9.80
   9   7   5   20.60   12.40
   9   7   5    6.10    6.90
 -10  -7  -5    8.50    9.80
 -10  -7  -5    6.00   10.30
 -10  -7  -5   -8.50   10.30
  10   7   5   -4.90    8.00
  10   7   5   -0.40   12.20
   7  -8  -5    6.80    9.40
   7  -8  -5   -8.80   10.20
   7  -8  -5    1.50    4.30
  -7   8   5    5.70    6.70
  -7   8   5   10.30    9.80
   6  -8  -5    8.50    9.30
   6  -8  -5   -1.00    4.00
   6  -8  -5    9.80   10.80
  -6   8   5   21.10    8.70
  -6   8   5    4.70    6.30
   5  -8  -5   17.30    4.70
   5  -8  -5   18.40    7.80
   5  -8  -5   20.20    8.50
  -5   8   5   12.20    6.60
   4  -8  -5   68.59   11.90
   4  -8  -5   70.49    8.50
   4  -8  -5   57.79    6.20
   4  -8  -5   63.19    9.30
  -4   8   5   75.59    8.80
   3  -8  -5  126.59   12.50
   3  -8  -5  118.19   15.80
   3  -8  -5  125.69   10.80
   3  -8  -5  131.89   10.00
  -3   8   5  124.09   11.90
   2  -8  -5  137.49   11.40
   2  -8  -5  104.49   11.00
   2  -8  -5  113.79   13.50
   2  -8  -5  120.59   11.60
  -2   8   5  138.79   11.80
   1  -8  -5   76.39   10.40
   1  -8  -5   98.29   10.80
  -1   8   5   71.69    8.80
   0  -8  -5   19.90    6.10
   0  -8  -5   12.80    5.60
   0  -8  -5   21.50    8.40
   0  -8  -5   18.80    6.00
   0  -8  -5   21.50    7.00
   0   8   5   12.40    6.50
  -1  -8  -5   65.79    8.70
  -1  -8  -5   74.49    9.80
  -1  -8  -5   74.19    9.40
  -1  -8  -5   57.59    7.20
   1   8   5   63.39    8.40
  -2  -8  -5  117.29   12.00
  -2  -8  -5  134.79   13.50
  -2  -8  -5  137.79   11.50
   2   8   5  143.19   10.40
  -3  -8  -5  424.36   23.80
  -3  -8  -5  330.27   22.10
  -3  -8  -5  357.56   20.60
  -3  -8  -5  361.96   24.10
  -4  -8  -5   13.30    4.90
  -4  -8  -5    9.80    5.50
  -4  -8  -5    2.30    7.60
  -4  -8  -5    1.00    6.30
   4   8   5    4.80    6.50
  -5  -8  -5   75.29    9.60
  -5  -8  -5   63.79    7.10
  -5  -8  -5   65.99   10.40
  -5  -8  -5   61.99   12.70
   5   8   5   61.09    7.00
   5   8   5   63.49    8.20
  -6  -8  -5   -2.90    8.00
  -6  -8  -5    4.10    4.00
  -6  -8  -5    2.00    5.00
   6   8   5    8.50    6.40
   6   8   5    2.60    5.00
  -7  -8  -5    9.60    3.10
  -7  -8  -5   25.90   10.00
  -7  -8  -5    5.70    7.20
   7   8   5   21.00   10.80
   7   8   5    9.00    6.80
   7   8   5    7.40    5.70
  -8  -8  -5   84.69   13.10
  -8  -8  -5   91.09   11.20
   8   8   5   94.09   13.20
   8   8   5   76.89    8.70
   8   8   5   98.39   12.30
  -9  -8  -5   54.49   10.20
  -9  -8  -5   51.89   10.30
   9   8   5   45.40   14.00
   9   8   5   46.70   10.20
   6  -9  -5   13.00   14.60
   6  -9  -5   25.40   11.50
   6  -9  -5   13.40    5.60
  -6   9   5   11.00    7.10
   5  -9  -5   -3.60    9.40
   5  -9  -5    6.30    8.10
   5  -9  -5   -3.80    5.10
   5  -9  -5    3.20    5.50
  -5   9   5   -4.80    6.60
   4  -9  -5   58.49    7.50
   4  -9  -5   51.09   11.90
   4  -9  -5    8.60   14.90
  -4   9   5   59.29    8.40
   3  -9  -5   86.59   10.90
   3  -9  -5   67.99    8.20
   3  -9  -5   55.39   10.00
   3  -9  -5   63.79    7.50
   3  -9  -5   73.09   13.00
  -3   9   5   69.89    9.00
   2  -9  -5   50.19    7.40
   2  -9  -5   31.70    9.80
   2  -9  -5   50.99    7.50
   2  -9  -5   48.60    6.90
   2  -9  -5   48.30    9.20
  -2   9   5   28.00    7.70
   1  -9  -5   73.59   11.70
   1  -9  -5   75.69    8.70
   1  -9  -5   97.29   12.30
   1  -9  -5  109.49   11.00
  -1   9   5   76.89    9.30
  -1  -9  -5    2.00    7.20
   1   9   5    0.60    6.20
  -2  -9  -5    3.20    6.20
  -2  -9  -5   -3.10    6.50
  -2  -9  -5    1.60    6.50
  -2  -9  -5   -1.30    7.20
   2   9   5   -4.10    5.70
  -3  -9  -5  156.08   16.50
  -3  -9  -5  159.08   12.80
  -3  -9  -5  140.89   13.80
  -3  -9  -5  128.09   16.00
   3   9   5  150.28   10.80
  -4  -9  -5  104.49   11.30
  -4  -9  -5  103.69   12.40
  -4  -9  -5  114.89   19.20
  -4  -9  -5  122.79   16.40
   4   9   5  109.29   10.70
  -5  -9  -5   44.80   10.30
  -5  -9  -5   20.40    6.20
   5   9   5   47.80    7.70
   5   9   5   24.40    6.10
  -6  -9  -5  137.39   11.80
  -6  -9  -5  151.68   17.90
   6   9   5  152.38   12.40
   6   9   5  152.38   13.30
  -7  -9  -5  -10.20    6.50
  -7  -9  -5    4.50    4.20
  -7  -9  -5   -4.20    8.70
   7   9   5    0.50    6.30
   7   9   5   -1.00    5.90
  -8  -9  -5    5.50    9.70
  -8  -9  -5    1.50    8.00
  -8  -9  -5    3.40    3.00
   8   9   5   -4.70    6.50
  -9  -9  -5   42.50   10.00
  -9  -9  -5   50.29   12.50
   9   9   5   33.60    8.50
   9   9   5   51.99   10.50
   4 -10  -5    6.60    8.00
   4 -10  -5   18.50   11.20
   4 -10  -5  -15.00   10.00
  -4  10   5    7.50    7.40
   3 -10  -5   51.99    8.70
   3 -10  -5   72.19   11.30
   3 -10  -5   47.60    5.00
   3 -10  -5   54.69   11.90
  -3  10   5   46.70    8.70
   2 -10  -5   -3.50    5.50
   2 -10  -5   13.10    8.00
   2 -10  -5    5.10    5.50
   2 -10  -5  -10.80    6.60
  -2  10   5    1.10    6.20
   1 -10  -5   -3.60    8.90
   1 -10  -5   14.40    9.70
   1 -10  -5   20.30    6.70
  -1  10   5   10.70    7.00
   0 -10  -5   68.59    9.90
   0 -10  -5   68.69    9.90
   0 -10  -5   80.29   11.60
   0  10   5   73.79    9.20
  -1 -10  -5   26.60    7.80
  -1 -10  -5   13.80    8.70
  -1 -10  -5   37.80    8.40
  -1 -10  -5   34.40    8.00
   1  10   5   24.20    6.40
   1  10   5   23.60    6.80
  -2 -10  -5   60.79    9.60
  -2 -10  -5   37.20    9.00
   2  10   5   45.40    7.40
  -3 -10  -5   88.59   12.20
  -3 -10  -5   78.39   11.10
   3  10   5   75.99    9.00
  -4 -10  -5   -6.70    6.60
  -4 -10  -5   -5.70    8.80
  -4 -10  -5    3.20    8.30
   4  10   5   -8.00    6.20
  -5 -10  -5    8.00    9.60
  -5 -10  -5    5.90    8.30
  -5 -10  -5   10.40    6.70
   5  10   5    7.60    6.10
  -6 -10  -5   13.60    6.20
  -6 -10  -5   31.20    7.20
  -6 -10  -5   33.70   10.40
   6  10   5   18.50    7.20
   6  10   5   18.20    6.50
  -7 -10  -5   39.30    9.30
  -7 -10  -5   27.60    8.30
  -7 -10  -5   22.40    5.80
  -7 -10  -5   31.70    7.70
   7  10   5   21.80    7.80
   7  10   5   29.30    6.30
  -8 -10  -5   32.70    8.80
   2 -11  -5   41.30   10.20
   2 -11  -5   23.10    6.90
   2 -11  -5   24.00    5.90
   2 -11  -5   15.80   11.40
  -2  11   5   15.40    7.80
   1 -11  -5   -0.10   10.00
   1 -11  -5    0.00    9.40
   1 -11  -5   25.10    9.40
  -1  11   5    3.10    6.70
   0 -11  -5    9.80    9.60
   0 -11  -5    3.70    7.70
   0 -11  -5   17.30    8.90
   0 -11  -5   -2.60    8.10
   0  11   5   -1.50    7.10
  -1 -11  -5   30.90   10.20
  -1 -11  -5   34.20    9.20
  -1 -11  -5   15.30    9.60
  -1 -11  -5   25.00    8.50
   1  11   5   23.90    7.30
  -2 -11  -5   35.40    9.90
  -2 -11  -5   74.49   16.80
  -2 -11  -5   62.09   10.70
  -2 -11  -5   49.80   10.10
   2  11   5   56.99    7.90
  -3 -11  -5  123.99   14.70
  -3 -11  -5  141.89   14.80
  -3 -11  -5  105.89   12.50
  -3 -11  -5  123.89   16.20
   3  11   5  117.49   11.70
  -4 -11  -5    1.00    9.10
  -4 -11  -5   -3.40    7.60
  -4 -11  -5   -1.60    7.40
  -4 -11  -5   -6.80   11.00
   4  11   5   -0.80    6.00
  -5 -11  -5    5.30   11.90
  -5 -11  -5   19.00    8.00
  -5 -11  -5   14.90    9.40
  -5 -11  -5    3.60   12.30
   5  11   5    6.50    6.70
  -6 -11  -5   11.60    9.00
  -6 -11  -5   -4.20   10.40
  -6 -11  -5   -3.20    7.60
  -6 -11  -5    9.30    6.90
   6  11   5    6.70    6.60
   4   6  -6   10.40   11.00
   4   6  -6   24.20    5.40
  -4  -6   6   34.30   12.00
  -4  -6   6   37.60   10.30
  -4  -6   6   24.20    9.90
   3   6  -6   44.40    6.20
   3   6  -6   25.30   10.80
  -3  -6   6   41.20   10.20
  -3  -6   6   64.99   12.00
   2   6  -6    4.50    5.10
   2   6  -6    9.80    9.90
  -2  -6   6   17.10    8.90
  -2  -6   6    3.60    9.20
   1   6  -6   12.50    5.30
   1   6  -6   13.10    9.20
  -1  -6   6    6.20    8.60
  -1  -6   6    1.90    8.60
   0   6  -6   38.40    6.70
   0  -6   6   47.40    9.70
   0  -6   6   44.00   10.70
  -1   6  -6    1.00    5.70
   1  -6   6   -0.50    7.80
   1  -6   6   -7.60    8.50
  -2   6  -6    2.30    6.10
   2  -6   6    2.30    7.60
   2  -6   6    5.10    9.40
  -3   6  -6    8.60    6.70
   3  -6   6    8.20    7.30
   3  -6   6   12.30   10.00
  -4   6  -6   -3.00    6.90
   4  -6   6    9.40   10.10
   6   5  -6   55.89    8.60
   6   5  -6   40.90   14.30
  -6  -5   6   38.70   10.80
  -6  -5   6   42.70   10.60
   5   5  -6   39.40   10.70
  -5  -5   6   24.30   12.20
  -5  -5   6   31.50    9.40
  -5  -5   6   55.29   10.40
   4   5  -6   14.30    5.40
   4   5  -6    3.00    8.50
   4   5  -6    4.60    4.10
  -4  -5   6   10.00   10.40
  -4  -5   6    7.70    8.70
  -4  -5   6   21.20    9.20
   3   5  -6   15.00    4.90
   3   5  -6    9.10    4.30
   3   5  -6   19.80    8.70
  -3  -5   6   15.60    8.50
  -3  -5   6    0.30    9.40
   2   5  -6   51.29    6.50
   2   5  -6   48.00   10.60
   2   5  -6   61.79    6.60
  -2  -5   6   37.80    9.70
  -2  -5   6   56.89   10.50
   1   5  -6  100.89    9.80
   1   5  -6  141.99   16.10
   1   5  -6   95.59    6.70
  -1  -5   6  128.69   15.50
  -1  -5   6  111.99   12.40
   0   5  -6   14.40    7.00
   0   5  -6   27.30    6.10
   0  -5   6   37.90    9.10
   0  -5   6   20.40    8.30
  -1   5  -6   85.49    9.30
   1  -5   6   94.69   11.80
   1  -5   6   62.09    9.90
  -2   5  -6    0.70    2.90
  -2   5  -6   -0.30    2.20
  -2   5  -6   -5.40    5.40
   2  -5   6   -5.60    6.70
   2  -5   6   -6.50    8.60
  -3   5  -6    4.70    3.90
  -3   5  -6    2.10    3.10
   3  -5   6   -2.70    8.40
   3  -5   6   -0.40    7.70
  -4   5  -6    0.90    4.80
   4  -5   6    1.70    6.60
   4  -5   6   -1.50    8.80
  -5   5  -6   -0.30    5.80
   5  -5   6   10.20    6.10
   5  -5   6    3.60   11.10
   5  -5   6   26.50    9.60
  -6   5  -6   36.90    7.60
   6  -5   6   37.40   11.50
   6  -5   6   45.50    6.90
   6  -5   6   55.69   13.60
   7   4  -6   -7.00   11.00
   7   4  -6   -2.90    7.60
  -7  -4   6   10.00   10.20
  -7  -4   6    4.80    7.20
  -7  -4   6   -7.40    9.80
  -7  -4   6    3.20    8.90
   6   4  -6   52.89    8.80
   6   4  -6   40.70   11.00
  -6  -4   6   34.50    9.40
  -6  -4   6   49.20    9.90
  -6  -4   6   24.40   11.60
   5   4  -6   98.09   12.40
   5   4  -6   93.99    5.30
  -5  -4   6   98.79   12.10
  -5  -4   6   98.89   11.60
  -5  -4   6   97.09   13.80
   4   4  -6   89.09   10.60
   4   4  -6   79.59   11.10
  -4  -4   6   67.69   11.00
  -4  -4   6   80.29   12.80
  -4  -4   6   86.29   11.00
   3   4  -6   21.80    9.10
   3   4  -6   23.90    5.70
   3   4  -6   24.40    4.30
  -3  -4   6   18.30    8.40
  -3  -4   6   21.60    9.80
   2   4  -6   50.69    9.70
   2   4  -6   68.49    8.10
   2   4  -6   55.19    6.00
  -2  -4   6   50.49   10.10
  -2  -4   6   55.09    9.90
   1   4  -6    8.40    7.30
   1   4  -6   -4.70    4.90
   1   4  -6    2.20    3.60
  -1  -4   6   -0.40    7.90
  -1  -4   6   -7.70    6.70
   0   4  -6   16.40    3.90
   0   4  -6   25.00    5.70
   0   4  -6   13.30    8.10
   0  -4   6   24.20    8.30
   0  -4   6    7.40    7.70
  -1   4  -6   21.50    4.00
   1  -4   6   -3.60   11.90
   1  -4   6   41.10    9.00
  -2   4  -6  141.69   10.10
   2  -4   6  145.19   15.00
   2  -4   6  181.98   16.80
  -3   4  -6   25.50    5.10
   3  -4   6   16.40    7.10
   3  -4   6   36.80    9.00
   3  -4   6   29.10    3.70
  -4   4  -6   27.10    6.00
   4  -4   6   32.20    7.10
   4  -4   6   41.40   10.20
  -5   4  -6    9.30    5.90
   5  -4   6   -8.30    7.10
   5  -4   6   -0.70    8.90
   5  -4   6   26.40    9.70
  -6   4  -6    2.60    6.80
   6  -4   6   -8.90   10.30
   6  -4   6   15.10    6.00
   6  -4   6   -0.30    9.60
  -7   4  -6   -2.50    7.70
   7  -4   6   -9.40    9.80
   7  -4   6   16.90    9.50
   8   3  -6   78.19   11.50
   8   3  -6   30.80   15.10
  -8  -3   6   53.69   11.00
  -8  -3   6   88.99   11.60
   7   3  -6   49.00   11.30
   7   3  -6   49.20    9.70
  -7  -3   6   32.50    8.70
  -7  -3   6   43.50    9.20
  -7  -3   6   35.40   11.90
   6   3  -6  -12.20    6.60
   6   3  -6    9.30    8.40
  -6  -3   6   -4.00    6.70
  -6  -3   6   -1.60    6.80
  -6  -3   6    2.60    8.50
  -6  -3   6  -18.00    9.80
   5   3  -6   21.90    9.10
   5   3  -6   13.80    7.20
  -5  -3   6   17.20    6.20
  -5  -3   6   20.50    8.40
  -5  -3   6   27.90    9.30
   4   3  -6    4.60    8.10
   4   3  -6   17.90    2.10
   4   3  -6   18.30    2.00
  -4  -3   6   12.10    8.00
  -4  -3   6   20.40    7.40
   3   3  -6  215.68   12.30
   3   3  -6  230.58   18.40
   3   3  -6  231.18   15.40
  -3  -3   6  260.77   20.50
  -3  -3   6  218.28   18.30
   2   3  -6  132.19   15.30
   2   3  -6  132.19    9.20
   2   3  -6  136.79   11.50
  -2  -3   6  159.48   14.00
  -2  -3   6  137.89   15.10
   1   3  -6   35.20    5.60
   1   3  -6   31.60    4.90
  -1  -3   6   38.70    8.40
  -1  -3   6   19.90    7.00
   0   3  -6   57.69   11.00
   0   3  -6   67.29    8.20
   0  -3   6   75.79   10.10
   0  -3   6   60.59    9.80
  -1   3  -6    1.60    4.10
   1  -3   6    4.20    7.10
   1  -3   6    0.50    6.40
   2  -3   6   79.89   10.50
   2  -3   6   66.09    9.20
  -3   3  -6  117.69   12.60
   3  -3   6   96.89   11.30
   3  -3   6   93.59   11.70
  -4   3  -6   17.80    5.60
   4  -3   6   22.40    6.90
   4  -3   6   33.90   15.10
  -5   3  -6   25.50    9.50
  -5   3  -6   55.89    7.70
   5  -3   6   58.49    7.90
   5  -3   6   91.59   10.90
  -6   3  -6   10.10    6.90
   6  -3   6    9.20    8.50
   6  -3   6    9.60    5.80
   6  -3   6    1.40    9.30
  -7   3  -6   -3.30    6.70
   7  -3   6   14.00    9.60
   7  -3   6   19.70   10.10
  -8   3  -6   11.10    5.80
  -8   3  -6  -19.60    7.90
   8  -3   6    8.10   11.20
   8  -3   6  -21.70   10.10
   8  -3   6    5.60    7.40
   8   2  -6   34.70   10.00
   8   2  -6   26.30    9.70
  -8  -2   6   26.70   12.00
  -8  -2   6   45.30   10.50
  -8  -2   6   24.50   10.10
   7   2  -6  108.19   13.90
   7   2  -6  118.09   15.00
  -7  -2   6  101.99   14.40
  -7  -2   6  126.49   15.10
  -7  -2   6  124.59   14.00
   6   2  -6  104.29   12.50
   6   2  -6  112.69   14.10
  -6  -2   6  113.49   13.00
  -6  -2   6   88.59   12.70
  -6  -2   6   99.69   12.30
  -6  -2   6   89.99   10.90
   5   2  -6  263.47   21.20
   5   2  -6  297.77   19.30
  -5  -2   6  280.17   21.30
  -5  -2   6  302.27   19.10
  -5  -2   6  280.67   18.80
   4   2  -6   -9.40    6.90
   3   2  -6   32.70    3.30
   3   2  -6   46.70    7.30
  -3  -2   6   29.40    8.10
   2   2  -6   37.30    6.10
   2   2  -6   33.70    4.00
   2   2  -6   36.60    8.00
  -2  -2   6   34.50   10.50
  -2  -2   6   37.10    7.90
   1   2  -6  335.17   19.00
   1   2  -6  298.57   21.20
  -1  -2   6  336.07   22.20
   0   2  -6  154.58   12.00
   0   2  -6  170.98   14.70
   0  -2   6  154.48   15.40
  -1   2  -6   94.99   11.90
  -1   2  -6   77.59    9.40
  -1   2  -6   78.39    9.20
   1  -2   6   77.09    9.70
   2  -2   6   51.39    8.10
   4  -2   6   -6.20    5.40
   4  -2   6    0.00    7.20
  -6   2  -6  112.69   12.60
   6  -2   6   92.59   11.60
   6  -2   6  137.59   18.30
  -7   2  -6   42.50    8.40
   7  -2   6   68.39   11.60
   7  -2   6   46.70   11.30
   8  -2   6   -7.80    7.10
   8  -2   6    7.20    8.20
   8  -2   6   14.10   10.60
  -9   2  -6   19.60    8.90
   9  -2   6    5.90   11.40
   9  -2   6   18.40    7.90
   9   1  -6   69.89   12.50
   9   1  -6   49.99   14.50
  -9  -1   6   90.19   13.70
  -9  -1   6   79.69   11.70
  -9  -1   6   62.99    9.20
   8   1  -6   36.20   11.10
   8   1  -6   35.50   10.60
  -8  -1   6   18.40    6.80
  -8  -1   6   20.40   11.20
  -8  -1   6    5.60   10.00
  -8  -1   6   12.80    9.60
   7   1  -6   39.80    9.90
   7   1  -6   16.50   10.10
  -7  -1   6   26.60   10.70
  -7  -1   6   23.60    9.10
   6   1  -6   10.90    9.00
  -6  -1   6    9.30    7.90
   5   1  -6   25.30    7.80
   5   1  -6    8.10    7.20
  -5  -1   6   -1.20    8.50
  -5  -1   6    7.30    6.70
  -5  -1   6   15.00    5.70
   4   1  -6  726.23   40.60
  -4  -1   6  765.92   39.10
  -4  -1   6  756.12   41.10
  -4  -1   6  763.42   39.60
  -4  -1   6  771.62   40.60
   3   1  -6  128.39   13.70
   3   1  -6  125.99    6.40
   3   1  -6  128.89   13.10
   3   1  -6  127.89    7.30
  -3  -1   6  114.09   15.40
   2   1  -6   41.90    4.30
   2   1  -6   38.20    6.70
   2   1  -6   23.60    7.20
  -2  -1   6   41.70    7.40
   1   1  -6  175.88   14.30
   1   1  -6  178.98   13.10
  -1  -1   6  180.78   14.50
  -1  -1   6  164.68   14.00
   0   1  -6  180.08   13.40
   0   1  -6  158.08   13.80
   0  -1   6  168.08   15.60
   0  -1   6  187.08   14.20
  -1   1  -6  157.78   13.60
   1  -1   6  204.38   15.10
   1  -1   6  182.48   15.20
  -2   1  -6  531.45   28.70
   2  -1   6  500.35   28.60
   2  -1   6  492.75   28.00
  -3   1  -6   40.30    7.90
   3  -1   6   28.00    8.50
   3  -1   6   29.00    7.30
   3  -1   6   37.80    7.20
  -4   1  -6  145.59   13.80
   4  -1   6  132.19   13.50
   4  -1   6  127.89   15.30
   5  -1   6    4.90    6.20
  -7   1  -6    6.60    7.30
   8  -1   6   32.20    7.30
   8  -1   6   26.00   10.40
  -9   1  -6   39.60   10.10
   9  -1   6   32.60    9.60
   9  -1   6   32.60    7.40
  10  -1   6    0.70    7.00
   9   0  -6   48.50   12.50
   9   0  -6   62.19   12.60
  -9   0   6   66.99   12.20
  -9   0   6   72.39   12.20
  -9   0   6   53.99   13.00
   8   0  -6  141.59   17.10
   8   0  -6  128.79   15.00
  -8   0   6   95.19   12.40
  -8   0   6  100.59   13.00
  -8   0   6  115.39   13.40
   7   0  -6   84.99   11.90
   7   0  -6   71.89   12.50
  -7   0   6  104.79   10.80
  -7   0   6   87.89   10.90
  -7   0   6   80.29   11.90
   6   0  -6   39.80   10.70
   6   0  -6   38.80   10.10
  -6   0   6   63.59    7.50
  -6   0   6   58.69   10.40
  -6   0   6   56.69   10.00
   5   0  -6   17.60    7.40
  -5   0   6    6.60    5.00
  -5   0   6    7.20    8.50
  -5   0   6   -0.70    7.30
   4   0  -6  138.79   14.30
  -4   0   6  138.39   14.30
  -4   0   6  130.49   15.60
  -4   0   6  114.89   13.30
  -4   0   6  123.39   11.10
   3   0  -6  481.35   28.80
   3   0  -6  589.54   28.70
   3   0  -6  515.85   25.00
  -3   0   6  462.55   28.40
  -3   0   6  514.95   29.30
   2   0  -6   32.20    3.30
   2   0  -6   34.20    7.10
   2   0  -6   27.30    6.60
  -2   0   6   24.70    6.40
  -2   0   6   24.10    7.80
   1   0  -6  484.65   27.50
   1   0  -6  521.05   27.00
   1   0  -6  471.45   26.40
  -1   0   6  477.15   26.40
  -1   0   6  466.75   27.30
   0   0  -6   24.30    6.60
   0   0  -6   13.60    5.40
   0   0  -6   15.20    5.60
   0   0   6   13.90    7.00
   0   0   6   18.10    5.50
  -1   0  -6   -0.80    6.10
  -1   0  -6   -0.70    4.40
   1   0   6    2.60    5.10
   1   0   6    1.60    4.70
   1   0   6   -1.60    1.70
  -2   0  -6  172.98   14.30
   2   0   6  146.09    8.20
   2   0   6  139.99   13.70
   2   0   6  133.09   12.50
   2   0   6  143.89   13.40
  -3   0  -6  253.67   17.30
   3   0   6  222.18   16.80
   3   0   6  253.17   15.80
   3   0   6  235.38   18.30
  -4   0  -6   40.10    8.00
   4   0   6   33.20    7.20
   4   0   6   28.90    6.60
   4   0   6   34.20    7.50
  -5   0  -6  455.85   25.20
   5   0   6  385.76   26.80
   5   0   6  404.96   24.30
   5   0   6  421.96   24.40
  -6   0  -6  204.18   15.30
  -7   0  -6    3.80    7.10
   7   0   6   -2.90    4.80
   8   0   6   -1.30    6.90
   8   0   6    2.00    5.00
  -9   0  -6   18.20    9.10
  -9   0  -6    7.50    8.50
   9   0   6   16.40    5.90
   9   0   6    5.20    7.80
 -10   0  -6   34.90   10.60
 -10   0  -6   57.29   10.10
  10   0   6   14.30    9.90
  10   0   6   49.40    6.90
   9  -1  -6  -25.50    9.80
   9  -1  -6  -24.40   10.70
  -9   1   6    0.20    9.00
  -9   1   6    9.10    9.50
  -9   1   6  -19.20   11.40
  -9   1   6   -9.10    4.70
   8  -1  -6    3.60   10.00
   8  -1  -6    3.40    9.30
  -8   1   6   10.00    4.80
  -8   1   6   -1.40    9.50
  -8   1   6    5.70    8.00
   7  -1  -6    7.50    8.60
   7  -1  -6   -0.20    9.00
  -7   1   6   13.80    4.80
  -7   1   6   19.40    9.60
  -7   1   6    1.00    8.00
  -7   1   6   10.80    6.90
   6  -1  -6  102.99   12.20
   6  -1  -6  113.39   11.80
  -6   1   6   87.39   11.90
  -6   1   6   75.39   12.50
  -6   1   6   96.69    9.00
  -6   1   6   88.79   11.80
   5  -1  -6  239.98   19.80
   5  -1  -6  269.37   17.70
  -5   1   6  263.97   20.00
  -5   1   6  258.87   19.80
  -5   1   6  228.48   21.50
  -5   1   6  263.97   15.30
   4  -1  -6  138.99   13.30
   4  -1  -6  112.39   13.30
  -4   1   6  114.09   11.60
  -4   1   6  124.99    9.50
  -4   1   6  103.59   13.90
   3  -1  -6   85.59   11.50
   3  -1  -6  134.29   11.50
   3  -1  -6   99.99    9.30
  -3   1   6   84.29   10.50
  -3   1   6  110.59   12.30
   2  -1  -6    4.10    6.10
   2  -1  -6   -5.80    3.30
   2  -1  -6    1.60    4.90
  -2   1   6    1.70    5.10
  -2   1   6    1.40    5.00
   1  -1  -6   24.20    6.10
   1  -1  -6   36.20    5.90
   1  -1  -6   41.40    3.80
   1  -1  -6   33.80    7.20
  -1   1   6   24.40    7.40
  -1   1   6   28.60    5.70
   0  -1  -6  935.61   45.30
   0  -1  -6  923.61   47.30
   0  -1  -6  930.21   46.60
   0   1   6  877.11   47.00
   0   1   6  935.91   45.40
  -1  -1  -6  452.15   25.50
  -1  -1  -6  445.06   23.70
   1   1   6  431.06   23.70
   1   1   6  482.05   25.90
   1   1   6  469.55   26.30
   1   1   6  444.66   21.90
  -2  -1  -6   82.49    9.60
   2   1   6   78.29    8.80
   2   1   6   82.59   11.10
   2   1   6  100.29   11.80
   2   1   6   86.59    6.40
  -3  -1  -6    9.90    6.60
   3   1   6    4.60    4.40
   3   1   6   -0.70    5.80
   3   1   6    2.90    6.30
  -4  -1  -6   33.30    7.30
   4   1   6   18.10    5.10
   4   1   6   16.00    7.70
   4   1   6   25.20    7.20
   5   1   6    0.10    5.10
   5   1   6   -1.30    5.60
   5   1   6    7.60    7.70
  -6  -1  -6    2.50    9.80
  -8  -1  -6   68.79   10.90
   8   1   6   67.79    8.10
  -9  -1  -6    8.70    7.90
  -9  -1  -6    5.10    9.40
   9   1   6    0.50    4.00
   9   1   6   12.60   10.40
 -10  -1  -6    2.50    9.70
 -10  -1  -6    7.60   16.50
  10   1   6  -11.10   10.40
   9  -2  -6   18.80   12.00
   9  -2  -6   44.10   11.30
  -9   2   6    9.10    9.30
  -9   2   6   34.90   12.90
  -9   2   6   58.19   10.70
   8  -2  -6   20.90   10.20
   8  -2  -6   17.80   10.40
  -8   2   6    5.70    8.20
  -8   2   6   28.70    8.00
  -8   2   6   30.40    9.30
  -8   2   6   23.60    4.60
   7  -2  -6   -5.40    6.40
   7  -2  -6    0.10    8.60
  -7   2   6   11.20    8.90
  -7   2   6   -1.10    9.20
  -7   2   6   -0.80    3.30
  -7   2   6    1.80    8.50
   6  -2  -6  172.68   17.00
   6  -2  -6  178.78   18.20
  -6   2   6  173.78   10.60
  -6   2   6  163.08   15.80
  -6   2   6  160.88   17.50
  -6   2   6  175.48   17.70
   5  -2  -6  122.99   14.80
   5  -2  -6  154.48   15.90
  -5   2   6  118.19    8.40
  -5   2   6  126.19   14.70
  -5   2   6  144.29   15.70
  -5   2   6  127.49   14.20
   4  -2  -6  280.97   19.60
   4  -2  -6  284.17   19.70
  -4   2   6  291.07   19.70
  -4   2   6  270.97   14.40
  -4   2   6  265.67   20.80
  -4   2   6  284.77   19.90
   3  -2  -6  471.05   27.10
   3  -2  -6  520.85   27.90
  -3   2   6  518.75   24.00
  -3   2   6  444.46   27.90
  -3   2   6  468.85   27.90
   2  -2  -6  146.29    7.90
   2  -2  -6  154.88   11.70
   2  -2  -6  138.09   13.50
   2  -2  -6  142.99   13.80
  -2   2   6  122.69   13.00
   1  -2  -6   15.60    6.80
   1  -2  -6   17.00    4.70
   1  -2  -6   17.20    4.30
   1  -2  -6   36.30    7.50
  -1   2   6   24.20    4.40
  -1   2   6   11.80    6.40
   0  -2  -6    7.10    3.70
   0  -2  -6    3.60    5.80
   0  -2  -6   -1.00    3.50
   0  -2  -6    3.90    6.10
   0   2   6    6.10    3.20
   0   2   6   -2.50    5.60
   0   2   6    8.10    4.80
   0   2   6    0.60    3.50
  -1  -2  -6  104.99    8.10
  -1  -2  -6  103.99   10.60
   1   2   6  128.39   11.00
   1   2   6  112.89   10.60
   1   2   6  114.39    7.60
   1   2   6  118.69    8.40
  -2  -2  -6  547.25   30.20
   2   2   6  527.85   26.60
   2   2   6  543.25   30.10
   2   2   6  536.05   26.70
   2   2   6  558.34   30.20
  -3  -2  -6  314.37   19.10
   3   2   6  301.57   16.20
   3   2   6  285.37   20.50
   3   2   6  299.17   19.80
  -4  -2  -6  457.45   26.90
   4   2   6  426.16   26.70
   4   2   6  475.95   23.40
   4   2   6  436.86   26.30
  -6  -2  -6   81.09   12.50
   6   2   6   72.59   11.50
  -7  -2  -6   40.00    9.30
   7   2   6   27.00    3.50
  -8  -2  -6   44.00   11.80
  -8  -2  -6   46.90   10.40
  -9  -2  -6   82.09   11.70
  -9  -2  -6  110.59   14.90
  -9  -2  -6   93.29   13.20
   9   2   6   75.59   12.60
 -10  -2  -6   14.30    9.60
 -10  -2  -6   -5.00    8.50
  10   2   6   -0.20   10.70
 -11  -2  -6    0.80   11.20
 -11  -2  -6   -4.10   10.70
  11   2   6    6.10   12.10
   9  -3  -6   18.60   10.80
   9  -3  -6   38.50   11.60
  -9   3   6   17.20    9.60
  -9   3   6   24.80    8.20
  -9   3   6   31.00   10.50
   8  -3  -6   17.60   10.50
   8  -3  -6    2.00    9.60
  -8   3   6   20.40    8.60
  -8   3   6    1.80   10.40
   7  -3  -6   69.19   11.50
   7  -3  -6   59.69   10.80
  -7   3   6   76.69   11.80
  -7   3   6   64.29    9.00
   6  -3  -6  206.08   17.60
   6  -3  -6  193.28   18.70
  -6   3   6  176.48   16.40
  -6   3   6  199.08   16.80
   5  -3  -6   -2.60    7.00
   5  -3  -6   -2.80    7.30
  -5   3   6    0.50    5.90
  -5   3   6    5.60    8.20
  -5   3   6    5.80   11.60
   4  -3  -6   -1.40    6.70
   4  -3  -6   -2.10    6.40
   4  -3  -6   -7.70    5.50
  -4   3   6    3.40    5.70
  -4   3   6    6.80    5.80
  -4   3   6    2.40    6.00
   3  -3  -6   49.20    7.70
   3  -3  -6   56.49    7.70
  -3   3   6   43.50    8.50
  -3   3   6   36.90    9.80
  -3   3   6   50.39    7.80
   2  -3  -6  280.67   16.90
   2  -3  -6  263.87   13.10
   2  -3  -6  250.17   16.10
   2  -3  -6  221.78   17.30
  -2   3   6  232.98   16.00
  -2   3   6  248.08   18.30
   1  -3  -6  200.68   12.30
   1  -3  -6  200.48   15.10
   1  -3  -6  196.28   10.90
   1  -3  -6  202.08   15.40
  -1   3   6  170.88   11.30
  -1   3   6  202.28   16.80
  -1   3   6  176.38   14.70
   0  -3  -6    9.20    3.30
   0  -3  -6    9.50    5.00
   0  -3  -6   12.80    6.20
   0   3   6    9.60    3.70
   0   3   6    3.20    4.30
   0   3   6   14.20    6.90
   0   3   6    7.30    6.00
  -1  -3  -6  231.68   11.80
  -1  -3  -6  233.08   16.80
   1   3   6  183.58   15.50
   1   3   6  223.78   12.70
   1   3   6  233.58   15.40
   1   3   6  253.17   16.80
  -2  -3  -6   -1.50    4.50
  -2  -3  -6    3.10    5.20
   2   3   6   -2.30    5.90
   2   3   6    2.30    3.60
   2   3   6    9.40    6.10
  -3  -3  -6  350.16   21.10
  -3  -3  -6  403.46   22.90
   3   3   6  358.46   16.60
   3   3   6  286.77   22.10
   3   3   6  323.07   20.60
   3   3   6  340.97   18.30
  -4  -3  -6   22.90    8.40
  -4  -3  -6   27.10    7.20
   4   3   6    2.20    7.10
   4   3   6   16.50    7.20
   4   3   6   10.50    2.90
   5   3   6  146.89   16.60
   5   3   6  152.18    8.80
  -6  -3  -6  189.28   19.50
   6   3   6  162.58   18.30
  -7  -3  -6   18.40    9.80
  -7  -3  -6   14.00    8.70
  -8  -3  -6   -4.50    8.10
  -8  -3  -6   24.70   10.60
  -9  -3  -6    8.80    9.30
  -9  -3  -6    4.70    9.60
  -9  -3  -6    3.50    7.90
   9   3   6   -6.90    8.60
   9   3   6   -6.00    6.60
 -10  -3  -6   40.90   12.10
 -10  -3  -6   20.30    9.90
 -10  -3  -6    8.20    9.20
  10   3   6   31.70    8.20
  10   3   6   10.40   10.90
 -11  -3  -6   76.59   13.60
 -11  -3  -6   24.50   12.00
 -11  -3  -6   70.99   13.80
  11   3   6   53.49   13.90
   9  -4  -6   -6.30   10.90
   9  -4  -6   -4.90   10.80
  -9   4   6    1.40   12.70
  -9   4   6   -1.20    7.20
  -9   4   6    3.00    3.40
  -9   4   6   -2.50    9.40
   8  -4  -6   22.10    8.10
   8  -4  -6    6.50    9.90
  -8   4   6   14.90    8.90
  -8   4   6   23.30    9.10
  -8   4   6    9.30    3.60
  -8   4   6    0.80    6.50
   7  -4  -6   58.39   11.40
   7  -4  -6   72.39   11.40
  -7   4   6   84.79   12.30
  -7   4   6   65.29    6.40
  -7   4   6   67.19    8.70
   6  -4  -6   75.49   11.40
   6  -4  -6   93.09   12.20
  -6   4   6   93.09   12.90
  -6   4   6   86.39    7.00
  -6   4   6   76.39    9.10
   5  -4  -6  267.87   20.40
  -5   4   6  241.68   17.50
   4  -4  -6  263.27   19.20
   4  -4  -6  261.57   17.60
   4  -4  -6  225.88   20.00
  -4   4   6  272.47   17.50
  -4   4   6  235.38   19.80
  -4   4   6  310.37   21.70
   3  -4  -6   26.20    7.20
   3  -4  -6   12.70    6.10
  -3   4   6   13.00    6.00
  -3   4   6   21.20    6.20
   2  -4  -6   35.00    6.50
   2  -4  -6   35.70    6.60
   2  -4  -6   10.50    7.10
   2  -4  -6   25.60    4.20
  -2   4   6   31.20    6.60
   1  -4  -6   41.80    5.00
   1  -4  -6   20.40    7.10
   1  -4  -6   22.00    6.40
   1  -4  -6   21.10    4.70
  -1   4   6   29.90    6.70
  -1   4   6   23.00    8.40
  -1   4   6   31.70    3.60
   0  -4  -6 1010.70   49.00
   0  -4  -6 1045.50   52.19
   0  -4  -6 1093.99   49.60
   0  -4  -6 1036.90   51.99
   0   4   6 1027.50   51.89
   0   4   6  865.71   52.49
   0   4   6 1028.80   49.60
   0   4   6 1132.39   49.80
  -1  -4  -6 1464.25   64.59
  -1  -4  -6 1287.47   61.49
  -1  -4  -6 1332.47   65.39
   1   4   6 1211.88   65.59
   1   4   6 1305.27   63.19
   1   4   6 1427.66   64.99
   1   4   6 1281.27   65.69
  -2  -4  -6  165.18   14.40
  -2  -4  -6  157.88   14.10
   2   4   6  141.59   13.80
   2   4   6  144.19    9.70
   2   4   6  164.78   12.90
   2   4   6  152.78   13.70
  -3  -4  -6  116.99   13.40
  -3  -4  -6  100.79   12.60
   3   4   6  111.49    8.60
   3   4   6   84.79   10.30
   3   4   6  103.89   13.10
   3   4   6  104.69    9.30
  -4  -4  -6   -1.90    7.60
   4   4   6    1.20    2.30
   4   4   6    7.20    8.10
   4   4   6   -2.70    3.60
   5   4   6   79.29   10.90
   5   4   6   86.59    7.00
  -6  -4  -6  336.87   24.80
  -6  -4  -6  333.87   23.20
   6   4   6  299.87   18.10
   6   4   6  345.27   25.40
  -7  -4  -6  111.49   13.00
  -7  -4  -6  117.69   17.20
   7   4   6   92.69   13.80
   7   4   6  115.59   11.30
  -8  -4  -6  160.08   19.50
  -8  -4  -6  216.98   18.60
   8   4   6  180.18   15.00
  -9  -4  -6   19.20    9.30
  -9  -4  -6   22.80   10.50
  -9  -4  -6   21.10   10.50
   9   4   6    7.60    6.50
 -10  -4  -6  -10.40    9.80
 -10  -4  -6   12.90   10.60
 -10  -4  -6   -0.50    9.80
  10   4   6    5.60   10.40
 -11  -4  -6   -2.40   10.60
 -11  -4  -6   20.30   12.10
 -11  -4  -6   -7.80    9.70
  11   4   6    9.80   12.60
   8  -5  -6   70.39   12.10
   8  -5  -6   70.59   12.80
  -8   5   6   52.89    6.30
  -8   5   6   41.10   11.80
  -8   5   6   61.99   11.40
  -8   5   6   45.40    7.40
   7  -5  -6   -8.60    8.90
   7  -5  -6    1.40    8.90
  -7   5   6  -11.50    6.40
  -7   5   6    3.60    5.70
  -7   5   6   -2.80    4.40
  -7   5   6  -19.00    9.00
   6  -5  -6   28.60    7.70
  -6   5   6   23.60    8.50
  -6   5   6   24.80    8.00
  -6   5   6   21.60    6.40
  -6   5   6   25.30    5.00
   5  -5  -6   35.30    7.60
  -5   5   6   20.50    6.50
  -5   5   6   29.40    9.20
  -5   5   6   27.30    5.00
  -5   5   6   24.20    8.30
   4  -5  -6  225.58   17.80
   4  -5  -6  220.28   15.40
  -4   5   6  242.08   20.80
  -4   5   6  219.48   15.80
  -4   5   6  220.88   13.40
   3  -5  -6   41.60    7.20
   3  -5  -6   39.70    7.30
  -3   5   6   51.99   10.60
  -3   5   6   48.40    7.50
   2  -5  -6   96.79    8.20
   2  -5  -6   98.49   10.90
  -2   5   6  105.69   10.90
  -1   5   6   20.00    8.30
   0  -5  -6   60.09    8.40
   0  -5  -6   82.49    8.10
   0  -5  -6   55.29    8.60
   0  -5  -6   58.09    7.80
   0   5   6   53.49    9.30
   0   5   6   58.19    7.80
   0   5   6   63.29    6.80
   0   5   6   66.49    6.80
  -1  -5  -6    8.50    5.40
  -1  -5  -6    5.40    5.20
  -1  -5  -6    3.00    1.80
  -1  -5  -6    9.80    2.00
  -1  -5  -6    9.40    5.00
   1   5   6   10.20    6.20
   1   5   6    5.80    4.40
   1   5   6    5.40    4.90
   1   5   6    2.30    5.80
  -2  -5  -6  122.49   13.30
  -2  -5  -6  108.69   13.00
   2   5   6  139.59   11.20
   2   5   6  117.39   12.40
   2   5   6  118.99    9.70
  -3  -5  -6  220.88   14.00
  -3  -5  -6  151.68   15.80
   3   5   6  178.58   12.40
   3   5   6  181.48   11.90
   3   5   6  194.98   15.90
  -4  -5  -6   97.89   10.40
  -4  -5  -6   96.29   12.30
   4   5   6   94.99   12.00
   4   5   6   94.09    9.40
  -5  -5  -6   76.99   11.10
   5   5   6   65.39   11.20
   5   5   6   67.09    5.80
  -6  -5  -6    8.80    9.00
  -6  -5  -6   -5.20    8.10
   6   5   6    2.90    3.50
   6   5   6    6.60    8.90
  -7  -5  -6   48.10   16.10
  -7  -5  -6   92.39   14.50
   7   5   6   82.99   13.30
   7   5   6  106.49    9.70
  -8  -5  -6   -3.30    9.10
  -8  -5  -6   -7.20    7.30
   8   5   6    4.50    5.40
  -9  -5  -6   22.90    9.50
  -9  -5  -6   14.10    8.30
  -9  -5  -6  -10.40    9.70
   9   5   6    5.70    9.60
   9   5   6   23.20    6.90
 -10  -5  -6   46.20   12.10
 -10  -5  -6   52.49   11.60
 -10  -5  -6   50.49   10.90
  10   5   6   39.90   10.60
  10   5   6   38.50    8.50
 -11  -5  -6    8.50   11.70
 -11  -5  -6    1.50   11.00
 -11  -5  -6   31.10   12.00
  11   5   6    1.90   12.10
   8  -6  -6   19.10   11.60
  -8   6   6   35.30    6.30
  -8   6   6   34.00   10.00
  -8   6   6   42.20    9.90
  -8   6   6   30.90    5.90
   7  -6  -6    3.20    8.90
  -7   6   6   -1.10    5.40
  -7   6   6   12.90    9.20
  -7   6   6    8.70   10.40
  -7   6   6   11.80    5.40
   6  -6  -6   53.89   10.70
  -6   6   6   55.59   11.60
  -6   6   6   46.00    6.80
  -6   6   6   64.19   11.10
   5  -6  -6  119.89   15.70
  -5   6   6  122.49   10.50
  -5   6   6  126.99   11.50
  -5   6   6  129.79   15.00
   4  -6  -6    5.70    7.30
   4  -6  -6   -3.50    9.40
   4  -6  -6    3.20    5.00
  -4   6   6    5.10    5.20
  -4   6   6   -5.00    7.20
  -4   6   6  -16.70    8.30
  -4   6   6    0.50    5.30
   3  -6  -6  323.17   19.60
   3  -6  -6  346.97   21.80
  -3   6   6  325.57   18.40
  -3   6   6  341.77   19.70
  -3   6   6  301.27   22.30
   2  -6  -6   -4.60    7.60
   2  -6  -6    9.00    5.80
  -2   6   6   13.50    8.00
  -2   6   6    9.00    5.80
   1  -6  -6  596.44   35.40
   1  -6  -6  700.33   33.10
   1  -6  -6  570.74   30.00
  -1   6   6  664.03   33.10
  -1   6   6  491.25   34.00
   0  -6  -6  563.64   35.80
   0  -6  -6  670.13   34.70
   0   6   6  734.93   36.10
   0   6   6  630.94   32.80
  -1  -6  -6    4.60    6.20
  -1  -6  -6    4.20    2.70
  -1  -6  -6    3.70    5.70
  -1  -6  -6   -1.50    6.10
   1   6   6   -0.50    5.60
   1   6   6    0.30    4.00
   1   6   6    3.90    4.50
  -2  -6  -6   30.60    7.50
  -2  -6  -6   49.10    3.90
  -2  -6  -6   42.80    7.10
   2   6   6   54.39    7.60
   2   6   6   45.60    6.80
  -3  -6  -6   48.30    9.40
   3   6   6   42.80    6.90
   3   6   6   43.00    8.00
  -4  -6  -6  136.89   13.50
   4   6   6  173.88   16.00
   4   6   6  135.69   11.30
  -5  -6  -6  369.76   24.40
  -5  -6  -6  321.57   24.10
   5   6   6  331.17   19.90
   5   6   6  358.06   17.90
   5   6   6  364.06   25.50
  -6  -6  -6   87.49   12.50
  -6  -6  -6  100.29   12.90
   6   6   6   93.09    8.20
  -7  -6  -6  122.79   14.20
  -7  -6  -6  139.89   14.90
   7   6   6  110.99   16.50
   7   6   6  121.69   10.30
  -8  -6  -6   84.59   12.80
  -8  -6  -6   57.09   10.10
   8   6   6   60.99    7.20
   8   6   6   49.20   11.50
  -9  -6  -6   14.30   10.50
  -9  -6  -6    7.60    7.90
  -9  -6  -6    8.00    9.20
   9   6   6   -1.20    6.10
   9   6   6   38.90   12.60
 -10  -6  -6   66.79   13.10
 -10  -6  -6   56.99   10.00
 -10  -6  -6   63.49   12.70
  10   6   6   60.89   12.20
  10   6   6   47.70    8.90
   7  -7  -6   29.90   10.30
  -7   7   6   63.59   12.30
  -7   7   6   60.89   11.40
  -7   7   6   57.09    7.70
   6  -7  -6   31.10   10.10
   6  -7  -6   36.00   11.50
  -6   7   6   25.00   10.80
  -6   7   6   31.90    9.30
  -6   7   6   25.90    6.40
   5  -7  -6   84.49   11.80
  -5   7   6  104.49    9.90
  -5   7   6   94.39   13.40
   4  -7  -6   91.09    9.80
   4  -7  -6  105.29   13.20
   4  -7  -6   92.99   13.70
  -4   7   6  115.49   10.70
  -4   7   6   85.79   11.90
   3  -7  -6   16.20    5.50
   3  -7  -6    6.50    2.20
   3  -7  -6    7.30    2.00
   3  -7  -6    6.10    6.80
   3  -7  -6   11.60    9.80
  -3   7   6   14.10    5.80
   2  -7  -6   61.69    8.70
   2  -7  -6   79.99   10.20
   2  -7  -6   68.19    7.40
  -2   7   6   70.89   11.80
  -2   7   6   72.99    8.10
   1  -7  -6   25.20    9.20
   1  -7  -6   22.70    5.50
   1  -7  -6   26.70    7.40
  -1   7   6   22.10    8.50
   0  -7  -6  281.67   21.40
   0  -7  -6  311.17   19.10
   0  -7  -6  322.87   19.50
   0  -7  -6  293.77   17.40
   0   7   6  296.87   17.90
  -1  -7  -6  124.09    9.60
  -1  -7  -6  130.39   13.20
  -1  -7  -6  132.19   14.80
   1   7   6  129.19   11.10
  -2  -7  -6  108.79   12.30
  -2  -7  -6   77.69    9.70
  -2  -7  -6   97.69    7.60
   2   7   6   75.89    8.70
  -3  -7  -6   58.09    9.20
  -3  -7  -6   72.89    6.10
  -3  -7  -6   56.09    7.60
  -3  -7  -6   70.69   10.20
   3   7   6   63.19    7.80
   3   7   6   56.69    8.80
  -4  -7  -6   17.50    8.80
  -4  -7  -6   22.50    5.00
   4   7   6   33.50    8.70
   4   7   6   14.90    6.70
  -5  -7  -6    8.40    7.80
  -5  -7  -6   -1.70    8.30
   5   7   6    0.00    3.20
   5   7   6    6.70    8.70
   5   7   6   -6.60    5.90
  -6  -7  -6  193.68   19.20
   6   7   6  195.78   20.00
   6   7   6  183.18   11.90
   6   7   6  152.28   13.40
  -7  -7  -6   55.79    9.80
  -7  -7  -6   44.20   11.30
   7   7   6   26.80    5.20
   7   7   6   40.40    8.00
  -8  -7  -6   19.20   10.10
  -8  -7  -6   11.20   10.10
   8   7   6   22.90   12.20
   8   7   6   26.50    5.80
  -9  -7  -6   13.60    9.30
  -9  -7  -6    3.80    9.90
  -9  -7  -6   14.90   10.10
   9   7   6    8.90    6.20
   9   7   6   12.50   12.60
 -10  -7  -6    2.60   11.00
 -10  -7  -6  -21.20    9.20
 -10  -7  -6    1.40   10.10
  10   7   6   -2.30   10.40
   6  -8  -6    3.50    9.60
   6  -8  -6   -6.50   10.30
  -6   8   6   -7.90    5.60
  -6   8   6    3.00    8.80
   5  -8  -6   83.59   10.90
   5  -8  -6   50.49   11.80
  -5   8   6   55.59    8.10
   4  -8  -6   15.60    4.50
   4  -8  -6   21.60   10.40
   4  -8  -6   26.30    8.30
   4  -8  -6   15.10    3.10
   4  -8  -6   13.90    3.20
  -4   8   6   15.30    6.30
   3  -8  -6    6.00    4.00
   3  -8  -6    1.40    5.00
   3  -8  -6   -7.50    9.30
   3  -8  -6   19.60    7.30
  -3   8   6    7.50    5.90
   2  -8  -6  233.88   21.50
   2  -8  -6  258.57   15.50
   2  -8  -6  259.07   18.00
   2  -8  -6  234.08   16.40
  -2   8   6  248.58   16.40
   1  -8  -6   39.20    6.70
   1  -8  -6   57.29    7.90
   1  -8  -6   47.00    7.40
   1  -8  -6   44.40    8.20
  -1   8   6   43.10    7.50
   0  -8  -6   -3.60    4.90
   0  -8  -6   -1.40    5.50
   0  -8  -6   -3.80    7.50
   0   8   6   -1.20    6.20
  -1  -8  -6   61.69    9.70
  -1  -8  -6   74.99    9.80
  -1  -8  -6   73.19    9.00
   1   8   6   67.69   10.00
  -2  -8  -6   20.80    7.50
  -2  -8  -6   19.20    8.00
  -2  -8  -6   19.40    4.70
   2   8   6    5.50    7.60
  -3  -8  -6  194.98   16.10
  -3  -8  -6  221.78   18.20
  -3  -8  -6  207.98   13.20
  -3  -8  -6  260.47   17.70
   3   8   6  205.68   13.70
  -4  -8  -6  242.28   19.20
  -4  -8  -6  207.28   12.50
  -4  -8  -6  188.38   17.50
  -4  -8  -6  170.78   14.20
   4   8   6  192.58   13.00
  -5  -8  -6   61.19   11.30
  -5  -8  -6   78.39   12.00
  -5  -8  -6   69.49    8.50
   5   8   6   57.19    8.30
   5   8   6   72.09   11.60
  -6  -8  -6    6.30    6.80
  -6  -8  -6    4.80    9.50
  -6  -8  -6    4.90    3.10
   6   8   6    5.00    4.30
   6   8   6   11.20    5.10
  -7  -8  -6    6.70   10.00
  -7  -8  -6   18.10   10.00
   7   8   6   18.80   11.10
   7   8   6    8.20    5.60
   7   8   6   10.40    5.00
  -8  -8  -6   -2.50    7.70
  -8  -8  -6   -3.40    7.60
  -8  -8  -6    0.50    9.60
   8   8   6  -16.80    6.50
   8   8   6    0.10    5.40
   8   8   6    7.00    9.10
  -9  -8  -6   72.99   11.50
  -9  -8  -6   76.49   11.10
  -9  -8  -6   63.59   13.20
   9   8   6   59.89   14.90
   9   8   6   91.79   10.30
   9   8   6   98.19   12.70
   5  -9  -6   27.80    4.40
   5  -9  -6   41.90   12.50
   5  -9  -6   34.30    4.40
   5  -9  -6   56.49   11.30
  -5   9   6   49.80    7.90
   4  -9  -6    8.10    4.20
   4  -9  -6    6.50    3.80
   4  -9  -6   20.00   11.10
   4  -9  -6    6.50    7.90
   4  -9  -6    3.60    4.10
  -4   9   6    9.20    6.50
   3  -9  -6   76.69    9.30
   3  -9  -6   65.89   12.20
   3  -9  -6   68.59    9.20
   3  -9  -6   62.29   11.70
  -3   9   6   79.79    9.10
   2  -9  -6  100.69   10.70
   2  -9  -6   72.29   10.70
   2  -9  -6   78.09   10.40
   2  -9  -6   81.19   10.40
   2  -9  -6   75.09    9.50
  -2   9   6  105.99   10.90
   1  -9  -6   24.90    6.40
   1  -9  -6    2.10    7.90
   1  -9  -6   23.50    7.00
  -1   9   6   17.20    6.90
   0  -9  -6   93.19   11.00
   0  -9  -6   76.59    9.20
   0  -9  -6   64.39   10.80
   0  -9  -6   81.49   10.80
   0   9   6   87.09    9.30
  -1  -9  -6   87.49   10.20
  -1  -9  -6   71.39    8.20
  -1  -9  -6   87.49   11.20
   1   9   6   66.19    8.80
  -2  -9  -6    5.60    5.20
  -2  -9  -6   -1.00    7.20
  -2  -9  -6   -3.40    6.80
   2   9   6   -3.50    4.80
  -3  -9  -6    1.70    6.40
  -3  -9  -6   13.30    9.70
  -3  -9  -6    6.70    7.70
  -3  -9  -6   -3.20    4.30
   3   9   6    8.80    5.20
  -4  -9  -6   15.30    4.70
  -4  -9  -6   12.50    6.20
  -4  -9  -6   21.10   10.60
  -4  -9  -6   23.40    9.30
   4   9   6   11.20    6.50
  -5  -9  -6   42.50    6.70
  -5  -9  -6   63.69   11.30
  -5  -9  -6   60.79    6.70
  -5  -9  -6   71.69   11.50
   5   9   6   52.59    8.30
  -6  -9  -6   85.09   12.70
  -6  -9  -6   83.79    8.80
  -6  -9  -6   73.29   13.10
   6   9   6   81.09    9.50
   6   9   6   91.49   10.30
  -7  -9  -6   23.30   10.60
  -7  -9  -6   20.40   10.20
  -7  -9  -6   19.20    3.20
   7   9   6   15.70    5.90
   7   9   6   16.10   10.70
   7   9   6   22.60    7.50
  -8  -9  -6    7.30    8.30
  -8  -9  -6   -6.10    9.80
  -8  -9  -6   12.10   11.00
   8   9   6   19.00   12.90
   8   9   6   11.50    6.20
   8   9   6   13.90    5.60
  -9  -9  -6   17.60   11.40
  -9  -9  -6   12.30   11.80
  -9  -9  -6   -8.00    9.00
   9   9   6  -10.60    7.80
   9   9   6    5.20    7.20
   9   9   6    1.40   13.30
   4 -10  -6   11.90    5.50
   4 -10  -6   -2.00   11.50
   4 -10  -6   -1.60    8.70
  -4  10   6   -3.40    6.20
   3 -10  -6   74.49    8.60
   3 -10  -6   49.99    7.50
   3 -10  -6   63.89   12.60
   3 -10  -6   81.69   12.20
   3 -10  -6   58.49    9.60
  -3  10   6   59.39    8.70
   2 -10  -6   20.10    9.60
   2 -10  -6   20.50    6.10
   2 -10  -6   13.50    8.00
   2 -10  -6   -0.60   11.60
  -2  10   6   12.10    7.10
   1 -10  -6   21.70    7.90
   1 -10  -6   18.20    9.20
   1 -10  -6   35.70    7.90
  -1  10   6   16.90    7.40
   0 -10  -6   26.30    7.70
  -1 -10  -6   81.89   10.20
  -1 -10  -6   86.49    9.30
  -1 -10  -6   74.99   10.50
  -1 -10  -6   82.19   11.30
   1  10   6   72.59    9.10
  -2 -10  -6  188.28   17.70
  -2 -10  -6  197.28   15.00
  -2 -10  -6  168.18   16.50
   2  10   6  172.28   13.80
  -3 -10  -6   27.30    8.20
  -3 -10  -6   25.60    9.10
  -3 -10  -6   25.80    9.40
   3  10   6   25.00    6.10
  -4 -10  -6   12.90    8.90
  -4 -10  -6   15.90    8.90
  -4 -10  -6    8.40    7.10
  -4 -10  -6   14.30    5.40
   4  10   6   -4.90    6.30
  -5 -10  -6  -10.00    8.80
  -5 -10  -6   -5.40    5.80
  -5 -10  -6  -12.10    9.00
   5  10   6    3.80    5.20
  -6 -10  -6   71.09   13.00
  -6 -10  -6   42.60   11.30
  -6 -10  -6   55.99    7.00
   6  10   6   58.79    8.20
  -7 -10  -6   32.40   12.40
  -7 -10  -6   28.70   11.30
  -7 -10  -6   27.50    5.00
   7  10   6   30.10    6.90
   7  10   6   34.50    6.40
   2 -11  -6   21.60    7.20
   2 -11  -6   11.60    9.10
   2 -11  -6    7.60   11.20
   2 -11  -6    5.00    7.00
  -2  11   6    4.50    7.60
   1 -11  -6   20.50   10.90
   1 -11  -6    8.80    6.60
   1 -11  -6    2.90    8.00
   1 -11  -6    7.50    7.10
  -1  11   6   -4.60    6.80
   0 -11  -6   14.00    8.20
   0 -11  -6    9.50    7.90
   0 -11  -6   13.90    6.80
   0 -11  -6   -5.90   12.30
   0 -11  -6   -0.70    9.60
  -1 -11  -6   20.30    6.60
  -1 -11  -6   28.40    9.70
  -1 -11  -6   23.60    7.70
  -1 -11  -6   29.70    9.20
  -1 -11  -6    9.60   10.20
   1  11   6   16.10    7.40
  -2 -11  -6   18.10    7.70
  -2 -11  -6    8.30    6.00
  -2 -11  -6   -3.40    8.60
  -2 -11  -6    6.20    8.90
  -2 -11  -6    2.00    8.50
   2  11   6    5.70    7.00
  -3 -11  -6    5.00    6.50
  -3 -11  -6    0.80    9.10
  -3 -11  -6   15.20    8.00
  -3 -11  -6   -1.10    9.30
  -3 -11  -6    5.70    6.20
   3  11   6   12.80    6.30
  -4 -11  -6   28.00    8.60
  -4 -11  -6   58.59   11.70
  -4 -11  -6   63.89   11.90
   4  11   6   59.39    8.60
  -5 -11  -6   72.09    8.60
  -5 -11  -6   59.39   12.30
  -5 -11  -6   52.49    9.00
  -5 -11  -6   71.39   13.20
   5  11   6   58.09    8.60
  -6 -11  -6   20.00    6.80
  -6 -11  -6   12.20   10.40
  -6 -11  -6    4.60   12.40
  -6 -11  -6   14.10    6.60
   6  11   6    1.40    6.70
   4   5  -7   39.80    6.70
   4   5  -7   33.90   11.80
  -4  -5   7   11.30   11.30
  -4  -5   7   23.80   10.20
  -4  -5   7   22.60   10.20
   3   5  -7    4.00   10.00
   3   5  -7    5.80    4.90
  -3  -5   7    1.80    9.90
  -3  -5   7    6.20    9.10
   2   5  -7  -10.20    4.60
   2   5  -7   -0.10    3.80
   2   5  -7    4.50    9.50
  -2  -5   7    0.70    8.50
  -2  -5   7    8.20    9.50
   1   5  -7   35.10    3.90
   1   5  -7   55.99   11.00
   1   5  -7   48.70    6.30
  -1  -5   7   59.39   11.10
  -1  -5   7   41.70   10.00
   0   5  -7   33.90    6.10
   0   5  -7   34.60    3.70
   0  -5   7   37.20    9.50
   0  -5   7   44.70   10.40
  -1   5  -7   25.30    3.10
  -1   5  -7   20.60    6.30
  -1   5  -7   23.30    2.70
   1  -5   7   26.00   10.00
   1  -5   7   35.60    9.10
  -2   5  -7   11.90    3.60
  -2   5  -7   22.50    6.30
  -2   5  -7   15.80    2.70
   2  -5   7   19.20    8.10
   2  -5   7   42.70   10.20
  -3   5  -7    6.30    3.40
  -3   5  -7    0.70    4.10
   3  -5   7   11.80   10.30
   3  -5   7    7.80    7.50
  -4   5  -7   12.90    5.20
   4  -5   7    7.00   10.70
   4  -5   7    9.40    7.40
   5   4  -7    0.90    6.80
   5   4  -7    5.90    9.00
  -5  -4   7   26.20   11.50
  -5  -4   7    6.90    8.40
  -5  -4   7    2.50    8.60
   4   4  -7  105.29   12.50
  -4  -4   7   89.69   12.10
  -4  -4   7   93.89   13.50
  -4  -4   7   91.99   11.90
   3   4  -7   21.10    4.30
   3   4  -7    2.40    7.80
   3   4  -7   19.70    5.90
  -3  -4   7   30.50    9.40
  -3  -4   7    7.00    9.30
   2   4  -7    9.80    4.70
   2   4  -7    9.30    4.40
   2   4  -7   10.50    8.80
  -2  -4   7    2.90    8.50
  -2  -4   7  -10.80    8.30
   1   4  -7   38.80    5.90
   1   4  -7   20.10    8.40
   1   4  -7   27.10    4.90
  -1  -4   7   25.90    9.20
  -1  -4   7   44.00    9.70
   0   4  -7   10.10    8.10
   0   4  -7    8.90    4.00
   0   4  -7    4.70    4.70
   0  -4   7   -1.70    7.40
   0  -4   7    1.30    8.20
  -1   4  -7   58.99    7.40
   1  -4   7   44.00    9.40
   1  -4   7   45.40   10.30
  -2   4  -7    0.40    4.10
   2  -4   7   -0.80    7.20
   2  -4   7    8.00    8.70
  -3   4  -7    4.80    4.70
   3  -4   7   -1.70    7.20
   3  -4   7   -7.00    9.00
  -4   4  -7   87.29   10.30
   4  -4   7   69.19    9.50
   4  -4   7   62.19   12.00
  -5   4  -7    6.00    6.20
   5  -4   7   -2.60   11.60
   5  -4   7   25.80   10.10
   5  -4   7    1.80   10.40
  -6   4  -7   -0.10    7.10
   6  -4   7    6.10    6.90
   6  -4   7   15.50   11.30
   6  -4   7    2.50    9.40
   6   3  -7   37.50   10.40
   6   3  -7   28.50    9.00
  -6  -3   7   21.00   11.60
  -6  -3   7   41.70    9.10
  -6  -3   7   31.50    9.90
   5   3  -7   19.30    7.30
   5   3  -7    6.70    9.30
  -5  -3   7   14.40    8.80
  -5  -3   7   20.20    8.20
  -5  -3   7   12.20   10.80
   4   3  -7    2.50    8.10
  -4  -3   7    9.20    7.80
  -4  -3   7    6.60    7.30
  -4  -3   7    1.50    8.30
   3   3  -7    6.20    3.20
   3   3  -7   -4.50    7.80
  -3  -3   7    3.20    6.80
  -3  -3   7   -0.10    8.00
   2   3  -7  257.17   14.30
   2   3  -7  253.87   16.60
   2   3  -7  253.27   19.80
  -2  -3   7  249.18   20.80
  -2  -3   7  283.27   20.40
   1   3  -7  302.37   21.10
   1   3  -7  294.07   16.50
   1   3  -7  289.97   17.60
  -1  -3   7  300.47   21.90
  -1  -3   7  301.77   21.70
   0   3  -7   39.40    6.10
   0   3  -7   46.20    8.90
   0  -3   7   36.40    9.40
   0  -3   7   50.99    9.70
  -1   3  -7   46.60    6.30
   1  -3   7   41.00   10.80
   1  -3   7   23.40    8.30
  -2   3  -7   -1.70    4.60
   2  -3   7    1.60    7.50
   2  -3   7   12.80    7.30
   3  -3   7   57.79   10.70
   3  -3   7   40.00    3.60
  -4   3  -7   66.49   10.50
  -4   3  -7   56.99    7.40
   4  -3   7   65.89   11.40
   4  -3   7   61.89   10.80
   4  -3   7   53.69   10.40
  -5   3  -7   22.80    6.80
  -5   3  -7   42.20    9.00
   5  -3   7   29.00   10.40
   5  -3   7   31.90   10.60
   5  -3   7   36.10    7.60
  -6   3  -7   10.10    7.50
  -6   3  -7   -6.90    7.90
   6  -3   7   -2.50    6.50
   6  -3   7   10.60   10.30
   6  -3   7    1.90    7.60
  -7   3  -7   13.40    7.70
  -7   3  -7   23.20    8.40
   7  -3   7   28.90   11.30
   7  -3   7   11.40   11.40
   7   2  -7   10.30    8.90
   7   2  -7    7.50    9.80
  -7  -2   7   15.80    7.90
  -7  -2   7   14.60    8.90
  -7  -2   7   -6.90   10.50
   6   2  -7  112.49   14.80
   6   2  -7  100.89   12.60
  -6  -2   7  111.59   13.30
  -6  -2   7  128.49   15.00
  -6  -2   7  111.99   13.10
  -6  -2   7  111.29   14.90
   5   2  -7   58.79   10.30
   5   2  -7   55.59    8.80
  -5  -2   7   57.19    8.80
  -5  -2   7   50.59   11.20
  -5  -2   7   66.59    9.80
   4   2  -7   21.00    6.80
   4   2  -7   13.10    8.20
  -4  -2   7   34.90    8.90
  -4  -2   7   32.60    7.40
   3   2  -7   26.60    8.10
   3   2  -7   24.40    3.00
  -3  -2   7   38.80    8.60
   2   2  -7   -1.70    5.10
   2   2  -7   -3.40    7.00
   2   2  -7    3.80    3.20
  -2  -2   7    6.30    7.50
  -2  -2   7    4.40    6.20
   1   2  -7   13.40    5.80
  -1  -2   7    8.10    7.30
  -1  -2   7   19.10    8.20
   0   2  -7   41.60    8.40
   0   2  -7   54.39    7.30
   0  -2   7   40.70    8.10
   0  -2   7   51.89    8.90
  -1   2  -7   41.20    8.30
  -1   2  -7   29.60    7.60
  -1   2  -7   35.30    6.40
   1  -2   7   45.60    8.40
  -2   2  -7   53.49    9.30
   2  -2   7   49.00    9.00
   2  -2   7   32.00    8.30
  -3   2  -7   20.50    8.10
   3  -2   7   30.70    8.30
   3  -2   7   30.30    7.70
  -4   2  -7    3.60    7.30
   4  -2   7   16.60    8.30
   4  -2   7   -0.30    6.40
  -5   2  -7   36.50    9.30
   5  -2   7   37.00    7.60
   5  -2   7   61.49   16.50
  -6   2  -7   58.89    9.90
   6  -2   7   40.40   10.70
   6  -2   7   50.99    8.50
   6  -2   7   53.49   10.80
  -7   2  -7   -0.20    7.80
  -7   2  -7   13.60    9.20
   7  -2   7   17.60   11.00
   7  -2   7   23.50    9.50
  -8   2  -7   15.40    8.20
  -8   2  -7   13.50    8.10
   8  -2   7    0.70    9.30
   8  -2   7    6.20   10.50
   8  -2   7   20.40   11.70
   8   1  -7   -0.80   12.20
   8   1  -7   14.20   10.40
  -8  -1   7   25.20   11.70
  -8  -1   7   34.20    7.60
  -8  -1   7   25.90   10.90
  -8  -1   7   25.20   10.80
   7   1  -7   47.50   10.50
   7   1  -7   38.40   11.00
  -7  -1   7   27.60   10.80
  -7  -1   7   38.80    9.90
  -7  -1   7   34.70    7.90
   6   1  -7    6.10    8.00
   6   1  -7   23.60    9.10
  -6  -1   7   18.00    8.00
  -6  -1   7   13.60    9.60
   5   1  -7  149.69   15.10
   5   1  -7  141.39   16.30
  -5  -1   7  155.78   17.30
  -5  -1   7  163.08   17.20
  -5  -1   7  131.09   14.30
   4   1  -7   19.90    7.40
   4   1  -7   17.60    3.70
   4   1  -7    8.70    7.50
  -4  -1   7   11.40    9.20
   3   1  -7  247.68   11.90
   3   1  -7  251.77   12.00
  -3  -1   7  235.08   18.50
   2   1  -7  443.86   21.30
   2   1  -7  419.66   25.80
  -2  -1   7  441.16   26.30
  -2  -1   7  427.46   33.80
   1   1  -7   48.90    8.30
   1   1  -7   45.70    7.90
   1   1  -7   61.99    7.90
   0   1  -7    3.10    7.40
   0   1  -7   10.10    6.30
   0   1  -7   14.60    5.90
   0  -1   7   -3.30    7.00
  -1   1  -7    9.20    6.00
  -1   1  -7   11.30    6.10
  -1   1  -7    3.90    7.40
   1  -1   7   13.80    6.00
  -2   1  -7  300.87   20.50
   2  -1   7  280.97   19.50
   2  -1   7  274.57   13.50
  -3   1  -7  148.39   15.10
   3  -1   7  140.59   14.40
  -4   1  -7    6.10    7.40
   4  -1   7   11.40    8.60
   4  -1   7    5.50    6.70
  -5   1  -7   48.20    9.10
   5  -1   7   28.10    7.50
   5  -1   7   34.30    8.30
  -6   1  -7   70.29   10.50
   6  -1   7   49.99    8.60
   6  -1   7   64.89    9.90
  -7   1  -7    4.50    8.30
  -7   1  -7    8.30    8.60
   7  -1   7    7.60    9.80
   7  -1   7  -13.60    8.20
  -8   1  -7   58.39    9.90
  -8   1  -7   50.89    9.40
   8  -1   7   54.19   12.00
   8  -1   7   34.00    7.70
  -9   1  -7    5.50    8.60
  -9   1  -7   -7.80    9.00
   9  -1   7   -7.80   11.90
   9  -1   7   -1.70   11.70
   9  -1   7    2.90    7.10
   8   0  -7   64.59   13.60
   8   0  -7   96.39   13.30
  -8   0   7   86.09   12.90
  -8   0   7  101.59   13.30
  -8   0   7   97.19   13.10
   7   0  -7   37.70   10.80
   7   0  -7   38.50   10.20
  -7   0   7   51.19   10.80
  -7   0   7   42.40   10.60
  -7   0   7   45.60   10.60
  -7   0   7   74.99    9.70
   6   0  -7  104.99   12.70
   6   0  -7  116.79   15.40
  -6   0   7  109.09   12.10
  -6   0   7   96.59   12.70
  -6   0   7  120.39   11.20
   5   0  -7   10.00    8.00
  -5   0   7    7.20    5.10
  -5   0   7    9.00    7.70
   4   0  -7   33.60    8.40
  -4   0   7   43.10    9.60
  -4   0   7   41.00    6.30
  -4   0   7   34.10    8.50
   3   0  -7   -0.30    6.30
   3   0  -7    7.60    3.50
  -3   0   7   14.60    6.50
  -3   0   7   10.20    6.40
   2   0  -7  261.87   20.00
   2   0  -7  256.37   18.30
   2   0  -7  286.27   13.60
  -2   0   7  293.17   23.50
   1   0  -7  326.67   20.20
   1   0  -7  328.57   20.80
   1   0  -7  336.67   20.50
  -1   0   7  294.67   22.10
  -1   0   7  340.37   20.20
   0   0  -7   18.80    6.60
   0   0  -7   18.70    7.60
   0   0  -7   18.70    5.90
   0   0   7   21.00    6.30
   0   0   7   25.70    6.60
  -1   0  -7   18.40    5.90
   1   0   7   17.30    7.50
   1   0   7    9.20    5.50
   2   0   7   27.90    3.00
   2   0   7   27.60    6.30
   2   0   7   35.80    7.60
   2   0   7   26.30    7.50
   3   0   7  153.18   13.60
   3   0   7  164.98   16.00
   3   0   7  160.38   14.90
   4   0   7   37.80    7.10
   4   0   7   14.80    7.10
   4   0   7   24.60    7.40
  -5   0  -7  369.66   24.30
   5   0   7  352.06   23.30
   5   0   7  447.86   22.40
   5   0   7  352.96   25.20
  -6   0  -7   37.50    8.70
   6   0   7   16.40    7.40
  -7   0  -7    5.10   11.10
  -7   0  -7   11.60    7.80
   7   0   7   19.30    8.60
  -8   0  -7   14.10    8.70
  -8   0  -7   25.00    7.90
   8   0   7   -8.60    9.30
   8   0   7    8.90    5.60
  -9   0  -7   31.50    9.70
  -9   0  -7   14.70   10.30
   9   0   7    2.60   10.70
   9   0   7   29.90    6.40
   8  -1  -7   16.00   11.20
   8  -1  -7   13.90   10.30
  -8   1   7   -3.80   10.70
  -8   1   7    6.00    9.30
  -8   1   7  -13.30    9.10
  -8   1   7   -0.10    4.50
   7  -1  -7   25.90    8.20
  -7   1   7   30.20   10.70
  -7   1   7   27.40   10.20
  -7   1   7   36.70    5.80
  -7   1   7   63.39   10.10
   6  -1  -7   80.69   11.60
   6  -1  -7   96.89   12.00
  -6   1   7   75.79   11.60
  -6   1   7   85.29   12.20
  -6   1   7   98.59    9.10
   5  -1  -7  152.88   16.10
   5  -1  -7  164.98   18.60
  -5   1   7  137.09   17.00
  -5   1   7  167.68   15.90
  -5   1   7  162.78   11.30
  -5   1   7  160.98   16.70
   4  -1  -7  173.38   15.50
   4  -1  -7  163.38   15.20
  -4   1   7  139.29   16.90
  -4   1   7  162.98   11.50
  -4   1   7  150.28   16.90
   3  -1  -7   44.10    7.40
   3  -1  -7   35.90    8.40
   3  -1  -7   38.80    7.40
  -3   1   7   40.10    8.90
   2  -1  -7    2.40    5.70
   2  -1  -7    0.90    5.00
   2  -1  -7   -0.70    3.60
  -2   1   7   -7.10    7.00
  -2   1   7   11.00    6.00
   1  -1  -7   34.20    6.60
   1  -1  -7   35.30    6.30
  -1   1   7   32.40    6.10
  -1   1   7   34.40    8.30
   0  -1  -7   76.39    9.40
   0  -1  -7   58.59    8.40
   0   1   7   49.60    7.80
   0   1   7   65.09    7.40
  -1  -1  -7   93.69    9.30
   1   1   7   86.39   10.40
   1   1   7   86.99   11.00
   1   1   7   77.09    9.50
   1   1   7  100.29    6.20
   2   1   7  356.56   18.50
   2   1   7  379.26   22.40
   2   1   7  365.46   20.80
   2   1   7  391.76   23.30
   3   1   7  142.79   14.90
   3   1   7  172.08   15.30
   3   1   7  160.48    9.70
   3   1   7  164.68   12.40
   4   1   7    9.30    6.20
   4   1   7   15.40    5.40
   4   1   7    7.60    6.90
  -5  -1  -7   94.99   12.40
   5   1   7   58.69    8.70
   5   1   7   49.99    7.30
  -6  -1  -7   40.40    9.40
   6   1   7   26.70    8.10
   6   1   7   49.10    7.40
  -7  -1  -7   40.80    9.80
  -8  -1  -7   66.59    9.20
  -8  -1  -7   93.49   12.10
   8   1   7   84.69    8.80
   8   1   7   27.40   15.40
  -9  -1  -7   14.60   11.70
  -9  -1  -7  -12.10    8.70
   9   1   7    2.60   10.30
   9   1   7    4.50    4.30
 -10  -1  -7   -0.20   10.70
 -10  -1  -7    2.10    9.70
  10   1   7   10.40    4.40
  10   1   7   19.10   12.10
   8  -2  -7   16.00   10.60
   8  -2  -7   30.50   11.40
  -8   2   7   40.40    9.80
  -8   2   7   13.50    9.10
  -8   2   7   13.70   11.50
   7  -2  -7   34.40   10.00
   7  -2  -7   38.50   10.70
  -7   2   7   27.50    3.70
  -7   2   7   32.30    9.70
  -7   2   7   32.30   10.30
   6  -2  -7   22.90    9.10
   6  -2  -7   16.70    8.80
  -6   2   7   16.60    8.50
  -6   2   7    5.30    8.50
  -6   2   7   18.40    3.00
  -6   2   7   25.60    9.40
   5  -2  -7   32.00    9.20
  -5   2   7   20.90    9.40
  -5   2   7   27.70    3.50
  -5   2   7   29.30    9.50
  -5   2   7   25.40    8.90
   4  -2  -7   48.70    9.00
   4  -2  -7   55.49    8.80
  -4   2   7   50.49    5.50
  -4   2   7   36.70    8.30
  -4   2   7   44.10   10.60
  -4   2   7   45.30   10.10
   3  -2  -7  239.88   16.60
   3  -2  -7  234.78   18.10
   3  -2  -7  229.08   17.90
  -3   2   7  226.08   18.40
  -3   2   7  240.28   13.30
  -3   2   7  233.18   17.90
   2  -2  -7  268.97   17.60
   2  -2  -7  300.77   14.60
  -2   2   7  295.97   18.90
   1  -2  -7  105.49    8.10
   1  -2  -7  118.49   10.30
   1  -2  -7   79.59    9.60
  -1   2   7  118.79   10.00
  -1   2   7  114.79   11.20
  -1   2   7   85.29   10.60
   0  -2  -7    9.40    4.30
   0   2   7   20.90    4.70
   0   2   7   10.70    6.90
   0   2   7   17.60    5.40
  -1  -2  -7  103.79    8.80
   1   2   7  121.89    9.20
   1   2   7  108.59   13.10
   1   2   7  113.49   11.40
   1   2   7  110.49    7.60
   2   2   7  179.98   15.20
   2   2   7  189.98   11.80
   2   2   7  186.28   15.80
   2   2   7  188.48   11.00
   3   2   7  151.18   10.40
   3   2   7  140.19    9.40
   3   2   7  155.08   14.40
   3   2   7  145.29   14.80
   4   2   7  183.98   15.90
   4   2   7  163.58   11.90
   4   2   7  193.58   17.10
  -5  -2  -7   55.49    9.60
   5   2   7   29.40    9.60
   5   2   7   38.80    5.70
   5   2   7   43.80    8.70
  -6  -2  -7    0.60    7.60
   6   2   7    8.70    5.40
   6   2   7    2.00    8.10
  -7  -2  -7    1.60    8.10
   7   2   7   10.30    3.60
  -8  -2  -7   28.70    8.60
  -8  -2  -7   35.90   12.20
   8   2   7   17.50    3.40
  -9  -2  -7  168.28   19.60
  -9  -2  -7  143.29   16.80
   9   2   7   90.09   12.60
 -10  -2  -7   22.50    9.80
 -10  -2  -7   12.60   12.20
  10   2   7    1.30   11.70
   8  -3  -7  100.99   14.30
   8  -3  -7  128.49   14.60
  -8   3   7  120.59   15.60
  -8   3   7  114.99   13.90
   7  -3  -7  240.48   20.50
   7  -3  -7  228.38   21.40
  -7   3   7  205.88   18.10
  -7   3   7  250.97   22.00
  -7   3   7  249.88   20.90
   6  -3  -7    8.70    6.70
   6  -3  -7   10.50    8.60
  -6   3   7    6.80    9.20
  -6   3   7   31.70   10.00
  -6   3   7   10.70    9.00
   5  -3  -7   23.20    7.10
   5  -3  -7   35.40   10.10
  -5   3   7   25.10    9.20
  -5   3   7   18.90    7.60
  -5   3   7   39.70    8.20
   4  -3  -7    1.10    6.40
   4  -3  -7    1.70    6.60
   4  -3  -7    9.60    7.50
  -4   3   7    5.40    6.30
  -4   3   7   -5.20    7.30
  -4   3   7   11.70    8.40
   3  -3  -7   63.69    8.50
   3  -3  -7   64.69    8.30
  -3   3   7   51.59    9.20
  -3   3   7   63.99    9.20
   2  -3  -7  138.89   12.50
   2  -3  -7  147.59   11.80
   2  -3  -7  140.49    8.30
  -2   3   7  127.29    8.50
  -2   3   7  125.19   13.60
   1  -3  -7  164.98   11.70
   1  -3  -7  172.58   10.00
  -1   3   7  151.78   11.40
  -1   3   7  170.38   15.10
   0  -3  -7  430.36   25.80
   0  -3  -7  486.65   26.40
   0  -3  -7  456.55   23.00
   0   3   7  472.05   22.70
   0   3   7  376.66   24.30
   0   3   7  472.15   25.80
  -1  -3  -7   53.39    5.70
  -1  -3  -7   85.39   10.80
   1   3   7   53.19    5.60
   1   3   7   53.59    7.70
   1   3   7   47.80    8.40
   2   3   7   23.00    2.90
   2   3   7   19.50    6.90
   2   3   7   14.20    4.10
   2   3   7   20.10    6.90
   3   3   7   19.50    2.50
   3   3   7    7.60    7.20
   3   3   7   19.50    6.10
   3   3   7    7.30    4.30
   4   3   7  122.29   14.70
   4   3   7  162.38    9.10
   4   3   7  123.39   15.80
  -5  -3  -7  275.87   18.30
  -5  -3  -7  252.97   21.00
   5   3   7  247.08   20.90
   5   3   7  243.88   14.40
  -6  -3  -7   47.80    9.70
  -6  -3  -7   63.59   10.40
   6   3   7   29.10   11.80
  -7  -3  -7   71.19   12.70
  -7  -3  -7   77.09   12.10
  -8  -3  -7    3.20    8.10
  -8  -3  -7   -4.30    8.60
  -9  -3  -7   14.00   11.00
  -9  -3  -7    1.20    8.50
  -9  -3  -7    8.20   10.90
   9   3   7   27.10   10.50
 -10  -3  -7   -3.10    9.40
 -10  -3  -7    9.40   11.50
 -10  -3  -7  -17.60    9.70
  10   3   7   14.80    7.70
  10   3   7   -2.00    8.70
   8  -4  -7   15.00   10.30
   8  -4  -7    4.30    7.70
  -8   4   7   -0.60   10.90
  -8   4   7   -8.00    7.30
  -8   4   7    8.20    9.70
   7  -4  -7    2.80    9.20
   7  -4  -7    3.80    9.30
  -7   4   7   -4.50    9.40
  -7   4   7   -5.60    8.70
  -7   4   7   11.20   13.20
   6  -4  -7   56.39   10.40
   6  -4  -7   40.80   10.20
  -6   4   7   45.50   10.20
  -6   4   7   38.40    8.30
   5  -4  -7   80.29   11.10
  -5   4   7   93.79   12.40
  -5   4   7   93.89   12.90
   4  -4  -7  169.38   15.70
   4  -4  -7  220.38   17.20
  -4   4   7  221.78   16.30
   3  -4  -7   88.59   10.60
   3  -4  -7   89.89   11.30
  -3   4   7   87.39   11.80
  -3   4   7   86.09   12.50
   2  -4  -7    4.50    3.60
   2  -4  -7   10.50    5.10
   2  -4  -7    9.70    5.70
  -2   4   7   13.40    6.10
   1  -4  -7   15.40    4.30
   1  -4  -7    5.30    3.90
  -1   4   7    7.00    6.30
  -1   4   7   10.20    2.80
   0  -4  -7   75.29    6.90
   0  -4  -7   76.59    7.90
   0   4   7   86.69    8.40
   0   4   7   59.09   10.10
   0   4   7   72.79    9.50
   0   4   7   75.99    7.00
  -1  -4  -7  166.58    8.60
  -1  -4  -7  213.48   15.00
   1   4   7  152.38   10.80
   1   4   7  119.89   14.10
   1   4   7  175.58   13.60
   1   4   7  167.38   15.10
  -2  -4  -7  140.19   12.50
   2   4   7  108.49   12.90
   2   4   7   89.99   11.80
   2   4   7   90.89   11.30
   2   4   7  123.09    9.30
  -3  -4  -7  158.58   15.80
  -3  -4  -7  131.89   14.20
   3   4   7  146.29   14.90
   3   4   7  144.69   10.40
   3   4   7  158.78   13.10
   3   4   7  151.28   12.30
  -4  -4  -7    7.90    7.70
   4   4   7   18.80    8.70
   4   4   7    9.80    5.80
   4   4   7   10.30    4.80
   4   4   7    9.70    4.10
  -5  -4  -7   24.30    6.90
  -5  -4  -7   27.80    9.20
   5   4   7   11.80    2.50
   5   4   7    3.50    6.90
   5   4   7   10.20    2.70
   5   4   7    7.50    2.30
  -6  -4  -7   18.50    9.10
  -6  -4  -7   38.70   10.90
   6   4   7   19.90    4.20
  -7  -4  -7   24.60   11.20
   7   4   7   15.70   12.40
   7   4   7   23.40    5.30
  -8  -4  -7  199.48   21.20
  -8  -4  -7  228.98   20.80
   8   4   7  178.98   14.60
  -9  -4  -7   33.90   11.00
  -9  -4  -7   32.00   12.40
  -9  -4  -7   46.20   10.20
   9   4   7   31.30    7.50
   9   4   7   48.00   12.30
 -10  -4  -7   10.20   10.50
 -10  -4  -7   -3.20    7.20
 -10  -4  -7   -8.30   10.30
  10   4   7    4.80   11.70
  10   4   7   -3.00    7.20
   8  -5  -7   20.90   11.20
   8  -5  -7   52.29   11.60
  -8   5   7   44.40   12.70
  -8   5   7   65.79   12.30
  -8   5   7   40.00    8.60
   7  -5  -7    5.50    9.90
   7  -5  -7   18.40    9.90
  -7   5   7   14.50    9.90
  -7   5   7   20.70   11.30
  -7   5   7   20.30    7.50
   6  -5  -7    7.70    8.40
   6  -5  -7   16.40    9.40
  -6   5   7    2.00    6.30
  -6   5   7    8.10    9.00
  -6   5   7   13.20    9.30
   5  -5  -7   77.69   10.10
  -5   5   7   85.19   12.80
  -5   5   7  103.29   12.60
   4  -5  -7   28.10    8.60
   4  -5  -7   35.90    8.40
  -4   5   7   31.50   10.70
  -4   5   7   27.60    7.30
   3  -5  -7  236.18   18.80
   3  -5  -7  252.17   18.40
  -3   5   7  270.67   22.10
  -3   5   7  252.27   17.70
   2  -5  -7  243.98   15.90
   2  -5  -7  213.08   13.60
   2  -5  -7  226.78   18.00
  -2   5   7  238.18   18.30
  -2   5   7  220.68   16.70
   1  -5  -7   81.79   10.50
   1  -5  -7   96.39    9.30
   1  -5  -7  104.99    9.30
  -1   5   7   97.79   12.20
   0  -5  -7   37.10    6.10
   0  -5  -7   32.20    3.90
   0   5   7   44.60    8.00
   0   5   7   45.70    9.10
   0   5   7   28.80    4.40
   0   5   7   31.80    5.80
  -1  -5  -7   -2.70    4.60
   1   5   7    5.00    4.70
   1   5   7   -0.40    6.90
   1   5   7   -2.00    6.10
   1   5   7   -4.40    4.20
  -2  -5  -7  163.58   14.40
   2   5   7  139.69   14.30
   2   5   7  146.59   10.90
   2   5   7  139.69   13.30
   2   5   7  159.18   13.90
  -3  -5  -7  175.08   17.70
  -3  -5  -7  227.78   16.50
   3   5   7  186.08   16.60
   3   5   7  188.88   13.20
   3   5   7  181.28   11.80
  -4  -5  -7  256.37   19.40
   4   5   7  250.47   13.80
   4   5   7  248.78   20.20
   4   5   7  232.18   15.10
  -5  -5  -7   86.79   13.70
  -5  -5  -7  103.39   12.80
   5   5   7   94.89    9.90
   5   5   7  136.99   16.90
  -6  -5  -7   39.10   10.70
  -6  -5  -7   41.60   12.00
   6   5   7   51.39    5.50
   6   5   7   32.90   17.40
  -7  -5  -7    6.40    9.60
  -7  -5  -7   20.80   11.10
   7   5   7    4.30    3.80
  -8  -5  -7    7.40   10.50
  -8  -5  -7   -3.10    8.90
   8   5   7   35.30    9.80
   8   5   7    6.40    4.90
  -9  -5  -7   79.79   12.10
  -9  -5  -7   41.70    8.90
  -9  -5  -7   29.40   12.30
   9   5   7   18.30   11.90
   9   5   7   32.70    7.00
 -10  -5  -7   19.00   10.30
 -10  -5  -7   18.70   10.60
 -10  -5  -7   12.00   11.70
  10   5   7   14.10   12.50
  10   5   7   25.00    7.60
   7  -6  -7   21.20    8.50
   7  -6  -7   11.80    9.40
  -7   6   7   12.50   10.30
  -7   6   7    8.90   11.20
  -7   6   7   13.20    6.70
  -7   6   7   14.20    5.20
   6  -6  -7   84.19   11.80
   6  -6  -7  111.39   13.00
  -6   6   7   86.39   11.90
  -6   6   7   78.19   12.60
  -6   6   7  104.29    9.20
  -6   6   7  105.79   14.10
   5  -6  -7   50.19   10.10
  -5   6   7   34.10   11.30
  -5   6   7   78.19   10.50
  -5   6   7   41.70    7.70
   4  -6  -7   17.90    8.20
  -4   6   7   20.60    6.40
  -4   6   7   15.50    7.90
   3  -6  -7   82.49   11.50
   3  -6  -7  130.89   11.90
  -3   6   7   98.29   16.10
  -3   6   7   89.29   12.20
   2  -6  -7   40.50    7.70
  -2   6   7   44.60    7.70
  -2   6   7   33.90   10.20
   1  -6  -7  468.65   24.00
   1  -6  -7  355.96   23.70
  -1   6   7  488.55   26.40
  -1   6   7  353.86   24.20
   0  -6  -7  134.49   12.30
   0  -6  -7  151.08   10.90
   0  -6  -7  136.69   12.50
   0   6   7  139.49   11.00
   0   6   7  144.69   14.00
  -1  -6  -7   53.99    4.40
  -1  -6  -7   54.09    7.80
  -1  -6  -7   62.99    4.50
   1   6   7   64.29    8.60
   1   6   7   66.49    8.80
   1   6   7   62.09    7.30
   1   6   7   37.10    8.50
  -2  -6  -7  113.29   13.80
   2   6   7  130.99   12.10
   2   6   7  113.29   10.40
   2   6   7  124.79   12.10
  -3  -6  -7   50.19    8.30
  -3  -6  -7   41.00    9.50
   3   6   7   53.59    7.30
   3   6   7   71.59    8.40
   3   6   7   62.29    9.00
  -4  -6  -7   35.80    7.90
   4   6   7   36.30    7.00
   4   6   7   47.30    9.40
  -5  -6  -7  100.79   12.90
  -5  -6  -7  101.39   13.40
   5   6   7   93.19   10.90
   5   6   7  102.79   13.40
  -6  -6  -7   99.29   13.20
  -6  -6  -7  105.39   14.40
   6   6   7  104.99    6.80
   6   6   7   95.09   13.50
   6   6   7   94.29    9.20
  -7  -6  -7   38.80   11.80
  -7  -6  -7   62.39   11.70
   7   6   7   53.39    6.60
  -8  -6  -7    0.00    9.90
  -8  -6  -7    6.40    9.80
   8   6   7   -0.50   11.10
   8   6   7    6.50    4.50
  -9  -6  -7   -1.10    9.30
  -9  -6  -7  -11.70    7.80
  -9  -6  -7    1.70    9.90
   9   6   7   -8.80   11.20
   9   6   7    7.40    5.60
 -10  -6  -7  -13.70    9.90
 -10  -6  -7   15.30   11.40
 -10  -6  -7    6.80   10.00
  10   6   7    7.30    6.80
  10   6   7    5.90   13.20
   7  -7  -7   -0.50   10.20
  -7   7   7    6.10   11.40
  -7   7   7   11.20    5.50
  -7   7   7    5.60   10.90
  -7   7   7   16.50    5.80
   6  -7  -7   25.50    9.30
  -6   7   7    3.20    9.60
  -6   7   7   14.10   10.70
  -6   7   7   13.40    5.80
  -6   7   7   12.30    6.20
   5  -7  -7  122.39   14.90
  -5   7   7  113.29   12.20
  -5   7   7  151.18   15.90
  -5   7   7  108.19   11.00
   4  -7  -7   23.00    7.30
   4  -7  -7   40.20    6.60
  -4   7   7   21.40   10.60
  -4   7   7   36.00    6.60
  -4   7   7   34.80    7.00
   3  -7  -7  137.59   15.50
   3  -7  -7  114.89   14.00
   3  -7  -7  108.49   12.20
  -3   7   7  105.89   14.00
  -3   7   7  113.59   12.60
   2  -7  -7    7.40    6.90
   2  -7  -7   10.00    9.90
  -2   7   7   16.60    9.00
  -2   7   7    6.80    6.40
   1  -7  -7  224.58   20.40
   1  -7  -7  243.78   18.10
   1  -7  -7  230.58   17.10
   1  -7  -7  220.88   13.60
  -1   7   7  275.57   20.10
   0  -7  -7   -8.40    7.70
   0  -7  -7    0.20    4.90
   0  -7  -7    6.70    6.80
   0  -7  -7    8.70    4.20
   0   7   7    0.40    6.00
  -1  -7  -7    8.10    3.00
  -1  -7  -7    8.40    7.20
  -1  -7  -7    8.00    6.80
  -1  -7  -7    8.10    6.10
   1   7   7   -2.30    6.10
   1   7   7    4.40    5.70
  -2  -7  -7  212.48   18.50
  -2  -7  -7  262.87   19.40
  -2  -7  -7  268.37   12.70
   2   7   7  275.37   17.70
   2   7   7  276.27   16.40
  -3  -7  -7  148.59   14.50
  -3  -7  -7  129.59   15.60
   3   7   7  138.49   14.50
   3   7   7  140.79   11.90
  -4  -7  -7    8.70    8.70
   4   7   7   -2.90    7.40
   4   7   7    6.20    7.60
  -5  -7  -7   90.99   12.80
  -5  -7  -7   79.49   10.80
   5   7   7   83.59    9.30
   5   7   7   98.79   14.60
  -6  -7  -7   33.70    8.70
  -6  -7  -7   33.90   12.90
   6   7   7   39.50    5.20
   6   7   7   41.30    7.50
   6   7   7   51.19   11.30
  -7  -7  -7   -3.30   10.40
  -7  -7  -7   11.40   10.30
   7   7   7   12.10    7.00
   7   7   7   11.40    3.70
   7   7   7    7.70   10.00
  -8  -7  -7  113.59   15.60
  -8  -7  -7  124.89   16.20
   8   7   7  137.99   17.00
   8   7   7  145.49   10.80
  -9  -7  -7   67.79   14.00
  -9  -7  -7   69.69   12.60
  -9  -7  -7   56.39   11.60
   9   7   7   90.89   13.30
   9   7   7   87.09   10.40
 -10  -7  -7   -2.40    8.60
 -10  -7  -7   10.90   10.50
 -10  -7  -7    1.00    8.60
  10   7   7   -6.20   14.20
  10   7   7  -15.60    6.30
   6  -8  -7   15.60   10.40
  -6   8   7   17.60   11.60
  -6   8   7    3.10    5.60
   5  -8  -7  -15.60   10.50
   5  -8  -7    6.30    8.20
  -5   8   7   -3.70    6.60
  -5   8   7  -10.10    9.60
   4  -8  -7   14.60   10.80
   4  -8  -7    9.40    5.40
   4  -8  -7   17.50    7.70
  -4   8   7   29.80   10.60
  -4   8   7   20.80    6.70
   3  -8  -7   10.80    7.90
   3  -8  -7    2.00    5.80
   3  -8  -7   14.40    7.70
  -3   8   7   -6.10    9.30
  -3   8   7   -0.20    5.60
   2  -8  -7  158.98   19.10
   2  -8  -7  168.18   10.50
  -2   8   7  200.98   19.60
   1  -8  -7  209.08   14.40
   1  -8  -7  240.58   17.80
   1  -8  -7  227.68   20.50
   0  -8  -7   48.00    5.90
   0  -8  -7   30.80    6.80
   0  -8  -7   49.20    8.50
   0  -8  -7   31.00    9.60
   0   8   7   49.60    7.70
  -1  -8  -7    2.00    6.20
  -1  -8  -7   -0.40    7.70
  -1  -8  -7    0.40    3.70
  -1  -8  -7   -6.00    6.10
  -1  -8  -7   -0.50    6.40
   1   8   7    1.90    4.70
  -2  -8  -7   42.00    4.40
  -2  -8  -7   55.19    9.60
  -2  -8  -7   32.60    7.80
  -2  -8  -7   28.30    8.00
   2   8   7   31.90    7.40
  -3  -8  -7  162.38   16.50
  -3  -8  -7  225.08   18.50
  -3  -8  -7  232.28   16.10
  -3  -8  -7  229.38   11.70
   3   8   7  216.48   14.90
  -4  -8  -7   97.79   12.60
  -4  -8  -7  118.79   15.30
   4   8   7  109.09   14.20
   4   8   7  105.89   11.10
  -5  -8  -7    5.20    6.80
  -5  -8  -7    7.00   10.10
   5   8   7   -6.90    8.10
   5   8   7    8.10    6.20
  -6  -8  -7   64.19   10.30
  -6  -8  -7   61.79   11.90
   6   8   7   67.99    8.70
  -7  -8  -7   52.99   11.60
  -7  -8  -7   34.20   11.20
   7   8   7   12.20    7.10
   7   8   7   25.20   11.70
   7   8   7   17.40    4.40
  -8  -8  -7    5.70   10.90
  -8  -8  -7    7.00    7.90
   8   8   7   11.00   12.00
   8   8   7    9.30    4.80
   8   8   7   -3.50    6.30
  -9  -8  -7   10.60   11.80
  -9  -8  -7   13.30    8.60
  -9  -8  -7   15.20    9.20
   9   8   7   24.30   12.80
   9   8   7    6.10    5.70
   9   8   7   13.50    7.40
   5  -9  -7   33.20   13.30
   5  -9  -7   15.90    9.80
  -5   9   7   12.70    6.60
   4  -9  -7   -3.10    4.60
   4  -9  -7   10.30   11.20
   4  -9  -7  -14.30    7.80
  -4   9   7    0.90    6.10
   3  -9  -7   11.30    8.00
   3  -9  -7   11.20   10.80
   3  -9  -7    4.70    3.10
   3  -9  -7    8.30    5.60
  -3   9   7    8.20    6.60
   2  -9  -7   57.79   12.10
   2  -9  -7   77.29   10.60
   2  -9  -7   73.69    9.20
   1  -9  -7   27.80    6.50
   1  -9  -7   31.10   10.20
   0  -9  -7   -1.40    7.00
   0  -9  -7   21.10    5.70
   0  -9  -7    5.60    8.60
   0  -9  -7    9.90    6.70
   0  -9  -7   17.90    7.60
   0   9   7   15.70    6.90
  -1  -9  -7   58.89    9.10
  -1  -9  -7   46.10   10.50
  -1  -9  -7   74.79    9.80
  -1  -9  -7   61.69    6.60
  -1  -9  -7   54.19    9.20
   1   9   7   52.39    8.40
  -2  -9  -7   -2.10    4.20
  -2  -9  -7    7.80    8.20
  -2  -9  -7    2.90    6.30
  -2  -9  -7    3.10    7.50
   2   9   7    8.20    6.40
  -3  -9  -7   -0.90    8.10
  -3  -9  -7    4.60    6.60
  -3  -9  -7   -0.20    8.20
  -3  -9  -7    4.80    3.70
   3   9   7    6.90    6.60
  -4  -9  -7   -3.40    8.70
  -4  -9  -7   -0.60    5.60
  -4  -9  -7   -3.20    3.30
  -4  -9  -7   10.50    8.80
   4   9   7  -12.60    6.30
  -5  -9  -7   24.40    9.50
  -5  -9  -7   36.60   11.10
  -5  -9  -7   34.00    5.80
   5   9   7   37.70    6.40
  -6  -9  -7   69.19   13.00
  -6  -9  -7   57.29   12.00
   6   9   7  121.99   15.80
   6   9   7   68.59    8.80
  -7  -9  -7  119.09   14.90
  -7  -9  -7   96.29   14.60
   7   9   7  117.09   10.20
   7   9   7  126.49   10.70
   7   9   7  127.79   15.50
  -8  -9  -7   -2.00   11.20
  -8  -9  -7    3.20   11.10
   8   9   7   -1.90    5.10
   8   9   7   -5.90    6.70
   8   9   7  -10.40   12.30
   4 -10  -7   61.39   11.20
   4 -10  -7   57.89    6.10
   4 -10  -7   59.89   14.30
   4 -10  -7   57.89    6.00
   4 -10  -7   55.99    5.60
  -4  10   7   62.29    9.00
   3 -10  -7   45.90    6.40
   3 -10  -7   46.80   11.30
   3 -10  -7   27.10    8.60
   3 -10  -7    5.60   10.90
   3 -10  -7   35.30    5.60
  -3  10   7   38.40    8.10
   2 -10  -7   46.30    8.60
   2 -10  -7   39.00    6.90
   2 -10  -7   23.30    8.60
   2 -10  -7   29.90   11.40
  -2  10   7   29.20    7.90
   1 -10  -7   -0.90    9.60
   1 -10  -7    7.90    7.00
   1 -10  -7    2.30    7.90
   1 -10  -7   -0.60    7.30
   1 -10  -7   -3.30    6.30
   0 -10  -7   -5.10    8.80
   0 -10  -7    8.40    7.80
  -1 -10  -7   64.69    7.60
  -1 -10  -7   64.89    9.20
  -1 -10  -7   49.10   10.50
  -1 -10  -7   75.19   12.30
   1  10   7   69.09    9.10
  -2 -10  -7   31.10    9.90
  -2 -10  -7   54.79   10.40
  -2 -10  -7   46.80    6.70
  -2 -10  -7   51.59   10.20
  -2 -10  -7   46.70    8.40
   2  10   7   44.50    7.90
  -3 -10  -7   79.89   12.00
  -3 -10  -7   77.39    9.40
  -3 -10  -7   66.89   10.10
   3  10   7   69.99    8.90
  -4 -10  -7   51.49    6.00
  -4 -10  -7   67.89   11.50
  -4 -10  -7   68.59   11.10
  -4 -10  -7   35.40   11.20
   4  10   7   48.10    8.40
  -5 -10  -7   11.80    4.50
  -5 -10  -7    2.80    5.80
  -5 -10  -7   18.00    9.70
  -5 -10  -7    7.00    9.20
   5  10   7    5.50    6.70
  -6 -10  -7    1.50    4.60
  -6 -10  -7   -4.30    7.70
  -6 -10  -7   -3.70   10.00
   6  10   7    1.00    6.20
  -7 -10  -7    4.30   11.50
  -7 -10  -7   -0.70    9.80
   7  10   7    5.90    6.80
   2 -11  -7    6.70   11.80
   2 -11  -7   -9.60    8.50
   2 -11  -7   15.10    8.30
  -2  11   7   10.50    7.50
   1 -11  -7    4.40    8.50
   1 -11  -7   10.10   11.20
   1 -11  -7   20.30    8.40
   0 -11  -7    4.60    7.70
   0 -11  -7    8.60    9.50
   0 -11  -7   -1.30    7.20
   0 -11  -7   -1.90    9.60
   0 -11  -7   11.40    7.20
  -1 -11  -7    5.50    8.50
  -1 -11  -7   -7.20    8.10
  -1 -11  -7   -7.90    8.30
  -1 -11  -7    8.90    9.10
   1  11   7   -5.70    6.50
  -2 -11  -7   21.40    8.70
  -2 -11  -7    7.00    9.30
  -2 -11  -7   35.80   10.10
  -2 -11  -7   22.30   10.10
   2  11   7   15.80    7.60
  -3 -11  -7   23.00    8.10
  -3 -11  -7   30.40   10.90
  -3 -11  -7   27.60   10.70
  -3 -11  -7   10.10    8.70
   3  11   7   23.20    6.30
  -4 -11  -7   54.99   11.20
  -4 -11  -7   65.29   12.30
   4  11   7   56.59    8.60
  -5 -11  -7   18.80   11.00
  -5 -11  -7   16.90   10.70
  -5 -11  -7    5.50    7.10
   5  11   7   14.90    7.10
  -6 -11  -7   26.40   12.00
  -6 -11  -7   16.60    6.10
  -6 -11  -7   44.60   10.40
   6  11   7   39.50    7.90
   3   4  -8   20.50   10.40
   3   4  -8   32.50    4.60
  -3  -4   8   24.90   11.20
  -3  -4   8   13.50    9.40
   2   4  -8  -11.20    8.80
   2   4  -8    4.40    5.10
  -2  -4   8    1.50   10.40
  -2  -4   8   29.70    9.80
   1   4  -8   14.70    5.30
   1   4  -8   17.60    9.70
   1   4  -8   17.30    4.80
  -1  -4   8    4.00    9.40
  -1  -4   8   13.30    9.10
   0   4  -8   23.70    5.20
   0   4  -8    6.60    4.60
   0  -4   8   24.80    9.70
   0  -4   8   24.60    9.40
  -1   4  -8   -5.40    4.80
  -1   4  -8    3.50    4.30
   1  -4   8   -3.60    8.30
   1  -4   8   19.50    9.70
  -2   4  -8    5.20    4.60
   2  -4   8    3.90    9.30
   2  -4   8    2.80    8.10
  -3   4  -8   29.00    5.80
  -3   4  -8   19.20    5.30
   3  -4   8   20.00    9.10
   3  -4   8   32.60   10.70
  -4   4  -8    6.20    6.10
   4  -4   8    5.90    7.90
   4  -4   8   -5.80   10.90
   4  -4   8  -11.40   11.60
   5   3  -8   35.10    8.40
   5   3  -8   27.60   10.80
  -5  -3   8    8.10   12.50
  -5  -3   8   18.20    9.50
  -5  -3   8   27.80    9.20
   4   3  -8    2.60    9.20
   4   3  -8   -5.60    6.60
  -4  -3   8   -9.10   10.40
  -4  -3   8   12.30    9.10
  -4  -3   8    0.00    7.90
   3   3  -8   -2.10    3.00
   3   3  -8    8.00    8.50
  -3  -3   8   -3.90   10.00
  -3  -3   8   15.90    8.80
   2   3  -8   37.20    9.50
   2   3  -8   31.40    4.70
  -2  -3   8   13.80   10.30
  -2  -3   8   48.80    9.90
   1   3  -8   77.39   10.80
   1   3  -8   91.69    9.80
  -1  -3   8   54.99   11.30
  -1  -3   8   84.59   11.50
   0   3  -8   19.50    5.80
   0   3  -8   20.10    8.50
   0  -3   8   40.80    9.60
   0  -3   8   29.10    9.30
  -1   3  -8   27.00    6.00
   1  -3   8   27.40    9.20
   1  -3   8   32.80    9.50
  -2   3  -8    8.70    5.50
   2  -3   8    4.70    7.60
   2  -3   8   24.60    9.20
   3  -3   8    1.10    8.90
   3  -3   8    8.70    7.60
   4  -3   8   11.50   10.40
   4  -3   8   21.00    7.80
   4  -3   8   23.30   10.20
  -5   3  -8    1.10    9.30
  -5   3  -8    1.90    6.30
   5  -3   8   -9.40    6.60
   5  -3   8    5.10   10.80
   5  -3   8  -13.80   10.60
  -6   3  -8   17.80    7.60
  -6   3  -8   11.30    9.80
   6  -3   8   35.10   15.10
   6  -3   8   16.50    8.30
   6  -3   8   19.30   12.20
   6   2  -8   27.80   10.10
   6   2  -8   19.50   10.50
  -6  -2   8   30.10    8.30
  -6  -2   8   19.90   12.70
   5   2  -8   37.70    8.80
   5   2  -8   38.50   10.30
  -5  -2   8   28.90    9.80
  -5  -2   8   67.19   11.00
  -5  -2   8   61.49    9.00
   4   2  -8   58.19   10.50
   4   2  -8   71.09    9.30
  -4  -2   8   47.00   14.30
  -4  -2   8   94.09   12.60
  -4  -2   8   65.39   10.30
   3   2  -8   29.80    7.00
   3   2  -8   32.10    3.10
   3   2  -8   27.10    8.70
  -3  -2   8   29.60   10.10
  -3  -2   8   26.30    8.50
   2   2  -8   36.30    8.60
   2   2  -8   39.30    4.40
  -2  -2   8   44.10    9.10
  -2  -2   8   31.40    9.60
   1   2  -8    9.00    7.30
  -1  -2   8  -10.50    6.80
  -1  -2   8    1.60    8.70
   0   2  -8   84.59   10.30
   0  -2   8   82.89   11.50
  -1   2  -8   11.80    8.30
   1  -2   8   23.60    7.80
  -2   2  -8   70.89   11.10
   2  -2   8   60.49    9.80
  -3   2  -8   31.80   10.10
   3  -2   8   13.90   14.00
   3  -2   8   42.00    9.80
   3  -2   8   13.60    7.80
  -4   2  -8   17.30    9.70
   4  -2   8   17.20    9.00
   4  -2   8    5.10    9.30
   4  -2   8   23.60    7.90
  -5   2  -8   -2.40   10.60
   5  -2   8    2.10    7.30
   5  -2   8    5.40    9.70
   5  -2   8   -0.80    9.60
  -6   2  -8    8.30    7.30
  -6   2  -8   -0.80   11.00
   6  -2   8   16.40    7.90
   6  -2   8   -4.60   10.40
   6  -2   8   -1.50   10.30
  -7   2  -8    2.00    7.00
  -7   2  -8   31.90   10.30
   7  -2   8   20.00   11.90
   7  -2   8   26.30   11.80
   7   1  -8   18.10   11.40
   7   1  -8    7.20   10.20
  -7  -1   8   18.70    9.70
   6   1  -8   -2.70    8.80
   6   1  -8   -5.10    9.30
  -6  -1   8  -12.30   10.40
  -6  -1   8   10.70    6.60
   5   1  -8   22.80    8.50
   5   1  -8   38.20    8.20
  -5  -1   8    4.20    9.60
  -5  -1   8    7.30    6.50
  -5  -1   8   15.00    9.40
   4   1  -8   10.40   11.90
   4   1  -8    0.30    7.50
   4   1  -8   -1.90    3.30
  -4  -1   8    7.40    9.00
  -4  -1   8   -1.90    7.40
  -4  -1   8  -12.90    5.70
   3   1  -8  307.47   15.10
   3   1  -8  333.07   21.40
   3   1  -8  306.17   22.30
  -3  -1   8  352.66   23.10
   2   1  -8    9.70    6.50
   2   1  -8    2.00    6.70
   2   1  -8    8.70    2.90
  -2  -1   8   12.40    7.50
   1   1  -8   -9.20    7.80
  -1  -1   8    4.60    8.40
  -1  -1   8   -1.30    6.50
   0   1  -8  152.68   15.40
   0   1  -8  162.28   16.80
   0  -1   8  154.68   16.50
   0  -1   8  168.78   14.80
  -1   1  -8    9.10   10.40
  -1   1  -8   20.20    7.30
   1  -1   8   19.80    7.90
   1  -1   8   19.00    7.40
  -2   1  -8   40.30   15.20
   2  -1   8   33.90    8.40
   2  -1   8   52.59    8.60
  -3   1  -8   64.69   11.90
   3  -1   8   46.50    4.10
   3  -1   8   49.90    8.80
   3  -1   8   58.99    8.80
  -4   1  -8   46.90   10.10
   4  -1   8   58.29    9.20
   4  -1   8   27.60    8.30
  -5   1  -8   99.29   13.90
   5  -1   8   68.09   10.60
   5  -1   8   70.09   10.00
   5  -1   8   63.69   11.20
  -6   1  -8    7.60   14.20
   6  -1   8   -2.60   14.80
   6  -1   8    8.90    9.30
   6  -1   8    0.60    7.40
  -7   1  -8    2.20   11.30
  -7   1  -8    3.90    7.00
   7  -1   8    0.90    8.90
   7  -1   8   27.60   11.10
  -8   1  -8    9.80    9.80
  -8   1  -8    2.50    8.30
   8  -1   8  -10.60   11.00
   8  -1   8    1.90   10.50
   8  -1   8   -4.30    6.70
   7   0  -8   14.60   10.80
   7   0  -8   10.30    9.80
  -7   0   8   -0.60    9.80
  -7   0   8   30.00   10.40
  -7   0   8   10.20   10.70
   6   0  -8   42.20   10.90
   6   0  -8   64.59   10.60
  -6   0   8   63.19   12.30
  -6   0   8   75.89   10.60
   5   0  -8   65.39   10.60
   5   0  -8   79.39   11.00
  -5   0   8   82.29   10.20
  -5   0   8   67.39   11.30
   4   0  -8    6.30    7.20
   4   0  -8   12.60    9.40
  -4   0   8    9.00    5.40
  -4   0   8    3.20    8.00
  -4   0   8   22.70    8.80
   3   0  -8    3.00    7.40
   3   0  -8    1.80    3.10
   3   0  -8   -0.70    7.90
  -3   0   8    9.30    6.80
   2   0  -8  220.98   16.80
   2   0  -8  218.98   17.30
  -2   0   8  204.78   16.50
   1   0  -8    6.40    9.40
   1   0  -8    8.60    6.00
   0   0  -8  206.18   17.90
   0   0  -8  184.28   15.10
   0   0  -8  170.48   14.50
   0   0   8  161.98   13.30
   0   0   8  188.58   15.20
  -1   0  -8  149.79   13.30
  -1   0  -8  144.89   15.80
   1   0   8  123.59   15.20
  -2   0  -8    8.30    7.80
   2   0   8    2.90    2.10
   2   0   8    6.70    7.90
   2   0   8   10.00    7.30
   2   0   8   26.60    5.80
  -3   0  -8   16.40    8.40
   3   0   8   14.00    3.10
   3   0   8   11.10    8.90
   3   0   8   14.20    6.70
  -4   0  -8   -1.30    7.70
   4   0   8    9.70    8.80
   4   0   8    2.20    7.60
  -5   0  -8    1.90    8.20
   5   0   8   -0.30    7.10
   5   0   8   19.10    7.20
   6   0   8   64.99    9.60
   6   0   8   52.99   10.80
   6   0   8   63.29    9.90
  -7   0  -8    7.30   11.10
  -7   0  -8   -0.30    6.70
   7   0   8   18.60    9.50
   7   0   8   12.80    8.10
  -8   0  -8   11.80    8.60
  -8   0  -8   20.90   10.80
   8   0   8   14.00    8.90
   8   0   8   -7.30    8.10
   8   0   8    9.20    6.10
  -9   0  -8    0.60    9.60
  -9   0  -8    9.40   10.40
   9   0   8   -2.00   10.90
   9   0   8    8.90    6.20
   7  -1  -8   -1.00    9.50
   7  -1  -8  -15.60    9.40
  -7   1   8    4.20    9.00
  -7   1   8    5.70    9.00
  -7   1   8   -6.10   10.20
  -7   1   8    4.10    4.40
   6  -1  -8   18.70    9.40
   6  -1  -8   43.90    9.50
  -6   1   8   32.40    9.70
  -6   1   8   33.80    9.80
  -6   1   8   42.80   10.30
  -6   1   8   34.10    5.40
   5  -1  -8   93.39   11.10
   5  -1  -8   65.59   10.10
  -5   1   8   98.19   12.40
  -5   1   8   55.59   11.00
  -5   1   8   75.39    8.90
   4  -1  -8   70.59    9.80
   4  -1  -8   71.19   10.00
  -4   1   8   85.19    8.90
   3  -1  -8   88.49   11.00
   3  -1  -8   84.19    9.90
  -3   1   8   80.29   13.50
   2  -1  -8   19.90    4.00
   2  -1  -8   26.40    8.20
   2  -1  -8   31.10   14.60
   2  -1  -8   22.40    6.80
   1  -1  -8   -4.00    5.60
   1  -1  -8   -7.10    6.80
   1  -1  -8   -2.30    5.20
  -1   1   8   -3.40    5.50
   0  -1  -8   -7.30    7.00
   0  -1  -8    3.00    5.40
   0   1   8   -7.70    4.90
   0   1   8    0.80    5.30
   0   1   8   -5.40    9.00
  -1  -1  -8  529.85   29.50
  -1  -1  -8  497.45   26.30
   1   1   8  486.45   23.60
   1   1   8  446.56   31.70
   1   1   8  488.65   26.50
   1   1   8  492.05   28.20
  -2  -1  -8   19.70    7.00
   2   1   8   28.90    5.90
   2   1   8   29.70    3.60
   2   1   8   27.30    7.50
   2   1   8   29.20    8.40
  -3  -1  -8   13.80    7.60
   3   1   8   26.00    5.70
   3   1   8   20.40    9.20
   3   1   8   25.80    7.90
   3   1   8   20.50    3.80
  -4  -1  -8  224.28   18.80
   4   1   8  249.97   16.20
  -5  -1  -8   30.80    9.30
   5   1   8   17.10    8.90
   5   1   8   23.90    9.30
   5   1   8   41.80    7.00
  -6  -1  -8   57.59   10.90
   6   1   8   53.79    9.50
  -7  -1  -8    4.10   11.20
   7   1   8    6.40    9.80
  -8  -1  -8   33.70    8.70
  -8  -1  -8   18.70   10.70
   8   1   8   20.20    9.80
   8   1   8   26.30    5.50
   8   1   8   42.90    8.90
  -9  -1  -8   29.60   10.30
  -9  -1  -8   41.10   12.40
   9   1   8   36.60    5.70
   9   1   8   47.40   10.80
   9   1   8   17.40   11.20
   7  -2  -8    0.10    9.70
   7  -2  -8   -3.90   10.00
  -7   2   8   10.20   10.30
  -7   2   8   13.70    9.70
  -7   2   8   14.00   10.00
   6  -2  -8   12.60    9.00
   6  -2  -8   -4.10    6.30
  -6   2   8   -4.30    8.50
  -6   2   8   -2.90    8.80
  -6   2   8   33.80    9.00
  -6   2   8    6.50    2.60
   5  -2  -8    5.20    7.70
   5  -2  -8   -0.60    7.70
  -5   2   8   -0.40    2.70
  -5   2   8    5.10    7.90
   4  -2  -8   57.09    8.40
   4  -2  -8   44.60    8.80
  -4   2   8   44.60    5.90
  -4   2   8   40.20    9.90
  -4   2   8   35.40    9.50
   3  -2  -8  291.07   20.30
   3  -2  -8  297.97   23.20
   3  -2  -8  276.07   18.50
  -3   2   8  260.67   20.80
   2  -2  -8  159.68   14.90
   2  -2  -8  156.78    8.50
   2  -2  -8  161.68   15.70
   2  -2  -8  154.38   12.50
  -2   2   8  105.79   13.30
  -2   2   8  151.68   11.70
   1  -2  -8   59.49    9.50
   1  -2  -8   45.90    6.60
   1  -2  -8   51.89    9.70
  -1   2   8   59.49    7.80
  -1   2   8   52.69    9.80
  -1   2   8   54.19    7.00
   0  -2  -8   44.10    6.10
   0  -2  -8   53.39    9.30
   0  -2  -8   45.20    8.90
   0   2   8   49.90    8.00
   0   2   8   50.39    6.40
   0   2   8   51.89    7.30
  -1  -2  -8   18.20    6.40
  -1  -2  -8    9.50    4.30
   1   2   8   10.80    6.00
   1   2   8    2.40    7.30
   1   2   8   13.80    3.50
   1   2   8   14.60    4.50
  -2  -2  -8   59.69    9.70
   2   2   8   55.59    6.00
   2   2   8   55.79    9.50
   2   2   8   58.39    6.10
   2   2   8   59.09    9.20
  -3  -2  -8   93.99   11.60
   3   2   8   88.19   11.20
   3   2   8  101.99    7.60
   3   2   8   85.49   11.20
   3   2   8  101.39    9.00
  -4  -2  -8   55.69   10.20
   4   2   8   49.80    6.00
   4   2   8   52.59    5.80
   4   2   8   54.39   10.30
   4   2   8   55.09   11.60
  -5  -2  -8  104.99   12.00
   5   2   8   92.99   13.10
   5   2   8   71.09   11.70
   5   2   8   92.79   10.20
  -6  -2  -8   38.30   10.40
   6   2   8   32.40    6.20
  -7  -2  -8   15.20    9.40
   7   2   8    5.30    5.90
   7   2   8    8.10    6.80
  -8  -2  -8   -2.20    9.80
   8   2   8    0.30    3.40
   8   2   8    3.00    7.20
   8   2   8   -5.40    9.70
  -9  -2  -8  -10.40   11.30
  -9  -2  -8  -10.30    9.00
   9   2   8    2.20    9.80
   9   2   8    3.90    2.80
   7  -3  -8   10.10    9.90
   7  -3  -8    0.70    9.10
  -7   3   8   23.80    8.90
  -7   3   8   14.80   10.90
  -7   3   8    1.70    9.30
   6  -3  -8  134.89   16.90
   6  -3  -8  143.89   16.90
  -6   3   8  113.69   13.90
  -6   3   8  126.59   14.90
   5  -3  -8  140.19   15.60
   5  -3  -8  174.28   16.70
  -5   3   8  111.99   15.20
  -5   3   8  138.59   15.30
   4  -3  -8  -13.50    6.80
   4  -3  -8   -7.80    7.80
   4  -3  -8   -0.30    6.50
  -4   3   8    0.70    7.20
  -4   3   8   12.10    8.90
   3  -3  -8   24.20    8.20
   3  -3  -8   20.40    6.30
  -3   3   8   17.20    2.00
  -3   3   8   19.80    2.50
  -3   3   8   24.40    9.20
   2  -3  -8   17.20    7.10
   2  -3  -8    0.60    4.70
   2  -3  -8   -3.40    7.30
   2  -3  -8    1.20    2.90
  -2   3   8    4.10    8.40
  -2   3   8    2.60    3.60
  -2   3   8   -4.60    7.00
   1  -3  -8  102.09    9.90
   1  -3  -8  116.49    8.00
   1  -3  -8   98.89   11.60
   1  -3  -8  134.19   14.40
  -1   3   8  100.99   12.60
  -1   3   8  103.99   13.90
  -1   3   8   95.09    9.80
   0  -3  -8  148.79   10.50
   0  -3  -8  170.58   15.10
   0  -3  -8  135.89   13.10
   0   3   8  127.19   12.60
   0   3   8  138.79   14.80
  -1  -3  -8   26.90    4.10
  -1  -3  -8   29.70    7.00
   1   3   8   43.50    7.70
   1   3   8   38.10    4.80
   1   3   8   32.30    8.20
  -2  -3  -8  103.29   13.60
   2   3   8   86.39    7.00
   2   3   8   72.89   10.20
   2   3   8   76.89    6.90
   2   3   8   66.99    9.10
  -3  -3  -8   54.39    9.50
   3   3   8   48.70    9.30
   3   3   8   52.69    7.00
   3   3   8   42.70    8.90
   3   3   8   42.10    5.60
  -4  -3  -8   30.40    9.10
   4   3   8   35.10   10.60
   4   3   8   37.00    5.70
   4   3   8   43.30    5.40
   4   3   8   21.70    9.10
  -5  -3  -8    2.50    8.30
   5   3   8   10.20    3.60
   5   3   8   11.50    8.20
   6   3   8   60.89   12.10
   6   3   8   89.79    9.00
  -7  -3  -8  134.89   16.90
   7   3   8   92.69    6.30
   7   3   8   88.09   10.40
  -8  -3  -8   37.60   11.50
   8   3   8    6.20   10.20
  -9  -3  -8   11.60    8.80
  -9  -3  -8   26.00   12.10
   9   3   8    8.30   11.00
 -10  -3  -8   22.70   10.80
 -10  -3  -8    6.30   13.10
  10   3   8   -1.90    8.60
  10   3   8   -8.90    9.10
   7  -4  -8   22.20   10.40
   7  -4  -8   17.20   10.00
  -7   4   8   24.70    9.60
  -7   4   8   30.10    8.40
   6  -4  -8   13.80    8.80
   6  -4  -8   10.00    7.10
  -6   4   8    4.40    9.30
  -6   4   8    2.90    7.50
  -6   4   8   11.10    7.60
   5  -4  -8   48.50   10.20
   5  -4  -8   65.99   10.60
  -5   4   8   73.69   12.10
  -5   4   8   50.29    9.40
   4  -4  -8  187.18   17.20
   4  -4  -8  220.58   16.70
   4  -4  -8  206.68   15.90
  -4   4   8  193.68   17.80
   3  -4  -8  112.59    7.60
   3  -4  -8  124.19   13.80
   3  -4  -8  106.69   14.10
   3  -4  -8  119.49   12.60
  -3   4   8  116.39   13.90
   2  -4  -8   82.99    6.80
   2  -4  -8   69.39    9.00
   2  -4  -8   66.99    7.40
   2  -4  -8   73.89    9.60
  -2   4   8   76.09   11.70
  -2   4   8   48.30    9.10
   1  -4  -8    5.90    7.80
   1  -4  -8   -0.70    7.20
   1  -4  -8   15.60    4.60
   1  -4  -8    8.10    4.10
  -1   4   8    6.50    3.40
  -1   4   8    2.60    6.90
  -1   4   8   -5.20    7.60
   0  -4  -8   15.20    7.70
   0  -4  -8   20.20    3.90
   0  -4  -8    6.50    7.80
   0  -4  -8   30.50    5.50
   0   4   8   24.90    4.90
   0   4   8   12.20    7.10
   0   4   8   22.90    5.50
  -1  -4  -8  503.95   28.10
  -1  -4  -8  464.65   22.30
   1   4   8  423.96   26.00
   1   4   8  425.36   27.60
   1   4   8  479.85   27.80
   1   4   8  457.05   23.50
  -2  -4  -8  319.77   21.00
   2   4   8  254.37   19.90
   2   4   8  306.47   16.40
   2   4   8  296.27   20.60
   2   4   8  267.57   20.10
  -3  -4  -8   82.59   11.00
   3   4   8   74.59    9.20
   3   4   8   56.59   10.20
   3   4   8   71.99   10.40
   3   4   8   92.79    8.10
  -4  -4  -8   63.99   10.60
   4   4   8   49.10    6.60
   4   4   8   54.29    7.10
   4   4   8   56.99   10.40
  -5  -4  -8    9.50    8.20
  -5  -4  -8    8.10    8.50
   5   4   8    2.20    2.90
   5   4   8    3.30    1.40
   5   4   8   -7.70    8.60
   5   4   8    1.00    5.00
   5   4   8    2.50    3.70
  -6  -4  -8    9.80    9.20
   6   4   8    5.80    9.70
   6   4   8    9.50    3.50
   6   4   8   11.40    1.70
   6   4   8   10.80    3.20
  -7  -4  -8   85.19   13.20
  -7  -4  -8   93.89   14.20
   7   4   8   99.49    9.30
  -8  -4  -8   11.80   11.00
  -8  -4  -8    9.70   10.30
   8   4   8    8.70    5.40
   8   4   8   -0.60   10.20
  -9  -4  -8   17.40   12.00
  -9  -4  -8    9.40    8.80
  -9  -4  -8   -4.90    8.70
   9   4   8   29.00   12.10
   9   4   8    1.50    6.10
 -10  -4  -8   33.80   13.10
 -10  -4  -8   15.70   12.90
 -10  -4  -8   12.20   10.60
  10   4   8   22.90    7.70
  10   4   8   19.50   13.30
   7  -5  -8   34.80   11.10
   7  -5  -8   19.10   10.30
  -7   5   8    2.20    7.90
  -7   5   8   20.90   11.80
  -7   5   8    7.70    8.10
   6  -5  -8   51.49    9.30
   6  -5  -8   51.39   10.40
  -6   5   8   47.80   11.90
  -6   5   8   56.59    9.40
  -6   5   8   59.19   12.00
   5  -5  -8    6.50    8.60
   5  -5  -8    7.30    8.00
  -5   5   8    3.70    9.90
   4  -5  -8   20.60    7.80
   4  -5  -8   14.80    6.80
   4  -5  -8   11.70    7.60
  -4   5   8   16.30   10.20
  -4   5   8    9.20    7.00
   3  -5  -8   42.90    8.20
   3  -5  -8   31.60    7.40
   3  -5  -8   32.70    8.90
   3  -5  -8   41.60    5.10
  -3   5   8   32.50   11.10
  -3   5   8   28.20    8.10
   2  -5  -8  114.49   11.00
   2  -5  -8  134.39   14.60
   2  -5  -8   88.59   13.70
   2  -5  -8   94.89    9.00
  -2   5   8  137.19   16.80
  -2   5   8  107.79   13.50
   1  -5  -8   29.40    4.90
   1  -5  -8   29.50    8.70
   1  -5  -8   40.40    5.90
   1  -5  -8   33.80    8.30
  -1   5   8   28.60    9.90
  -1   5   8   33.10    8.10
   0  -5  -8   33.90    8.60
   0  -5  -8   26.40    3.80
   0  -5  -8   32.80    7.70
   0   5   8   26.50    5.60
   0   5   8   30.80    8.00
   0   5   8   28.30    4.60
  -1  -5  -8   47.90    8.70
   1   5   8   37.20    6.20
   1   5   8   47.90    9.10
   1   5   8   45.40    7.00
   1   5   8   44.80    9.30
  -2  -5  -8  148.29   12.80
  -2  -5  -8  109.79   12.20
   2   5   8   99.69   11.80
   2   5   8  117.89    9.60
   2   5   8  131.79   13.60
   2   5   8  123.69   14.20
  -3  -5  -8   82.59   11.20
  -3  -5  -8  121.89   14.40
   3   5   8   82.39   10.90
   3   5   8   90.69    9.00
   3   5   8  103.19   10.90
   3   5   8   66.89   12.70
  -4  -5  -8   51.89   10.00
   4   5   8   54.79    6.90
   4   5   8   66.79    8.40
   4   5   8   50.89   10.00
  -5  -5  -8   43.20   11.10
   5   5   8   31.10    9.70
   5   5   8   31.20    6.30
   5   5   8   29.60    3.50
  -6  -5  -8  117.49   13.10
   6   5   8   83.89   13.80
   6   5   8   89.09    9.50
  -7  -5  -8   31.60   12.40
  -7  -5  -8   24.50   10.00
   7   5   8   25.80    3.90
  -8  -5  -8    6.90   10.70
  -8  -5  -8    6.60   11.70
   8   5   8   20.90   11.60
   8   5   8   12.50    4.60
  -9  -5  -8   14.60   11.70
  -9  -5  -8    4.10   11.00
   9   5   8    1.90    5.30
   9   5   8   -4.60   11.00
 -10  -5  -8    8.90   10.90
 -10  -5  -8   36.20   12.50
 -10  -5  -8   27.40   12.20
  10   5   8    9.90   12.60
  10   5   8   12.80    6.80
   7  -6  -8   18.20   10.70
   7  -6  -8    5.70    8.00
  -7   6   8    8.50   12.10
  -7   6   8   29.60   10.90
   6  -6  -8   17.90   10.20
   6  -6  -8   25.70   10.30
  -6   6   8    2.20    9.50
  -6   6   8   14.80    7.90
   5  -6  -8  151.68   16.80
   5  -6  -8  159.08   16.90
  -5   6   8  141.39   15.10
  -5   6   8  159.28   16.60
   4  -6  -8   49.90    9.00
   4  -6  -8   58.49    9.00
   4  -6  -8   48.10   10.40
  -4   6   8   73.79    9.50
  -4   6   8   49.90   12.00
   3  -6  -8   24.20    8.90
   3  -6  -8    6.20    6.90
   3  -6  -8   23.20    7.40
  -3   6   8    8.00    9.60
  -3   6   8   20.20    7.10
   2  -6  -8   94.89   12.20
   2  -6  -8   71.89    8.10
   2  -6  -8   61.89   10.60
  -2   6   8   69.39   12.70
  -2   6   8   73.59    9.80
   1  -6  -8    6.70    4.30
   1  -6  -8   12.20    7.10
   1  -6  -8    7.20    7.20
  -1   6   8    1.10    8.70
  -1   6   8   -0.40    6.70
   0  -6  -8  743.53   39.50
   0  -6  -8  731.53   39.00
   0  -6  -8  691.33   34.80
   0   6   8  702.03   36.10
   0   6   8  716.43   39.00
   0   6   8  766.32   40.30
  -1  -6  -8  686.13   39.30
  -1  -6  -8  779.92   37.30
  -1  -6  -8  715.93   39.40
   1   6   8  687.63   39.20
   1   6   8  684.43   36.00
   1   6   8  729.23   36.70
   1   6   8  803.72   40.10
  -2  -6  -8    3.60    6.70
  -2  -6  -8   14.20    6.50
   2   6   8    5.80    5.90
   2   6   8   -2.80    7.20
   2   6   8    3.90    6.00
   2   6   8    1.10    4.90
  -3  -6  -8   10.60    8.60
  -3  -6  -8   28.80    9.00
   3   6   8   25.10    6.20
   3   6   8   14.70    7.70
   3   6   8   26.70    5.70
  -4  -6  -8   -4.10    9.00
   4   6   8    0.80    8.20
   4   6   8    3.10    5.90
   4   6   8    0.10    3.80
  -5  -6  -8  103.29   12.80
  -5  -6  -8  116.59   14.40
   5   6   8   82.69    9.20
   5   6   8   91.89   13.30
  -6  -6  -8  119.99   13.90
  -6  -6  -8   95.89   17.60
   6   6   8   83.59    9.60
   6   6   8  104.39   14.20
  -7  -6  -8   16.50   12.30
  -7  -6  -8   15.40   10.10
   7   6   8   -5.80    9.30
   7   6   8   14.10    7.10
   7   6   8   17.00    2.40
  -8  -6  -8   60.89   13.00
  -8  -6  -8   80.79   12.80
   8   6   8   66.29    7.50
   8   6   8   55.49   13.30
  -9  -6  -8   11.70   12.40
  -9  -6  -8   22.70   11.40
   9   6   8   24.70   12.70
   9   6   8   14.60    5.10
 -10  -6  -8    1.00   11.40
 -10  -6  -8    0.00   12.30
 -10  -6  -8    6.00   11.60
  10   6   8   13.30   10.60
  10   6   8   -0.20    5.90
   6  -7  -8   22.60    9.80
   6  -7  -8    8.80    9.70
  -6   7   8    3.40    7.10
  -6   7   8   22.40    8.60
   5  -7  -8   42.70   10.30
   5  -7  -8   48.60   10.00
  -5   7   8   40.60    8.30
  -5   7   8   62.89   12.70
   4  -7  -8   19.90    8.60
  -4   7   8   25.10    7.70
  -4   7   8   37.90   11.50
   3  -7  -8   38.50    8.20
   3  -7  -8   57.59    8.70
  -3   7   8   47.40    8.70
  -3   7   8   41.60   11.80
   2  -7  -8   38.00    8.10
   2  -7  -8   39.80    9.50
  -2   7   8   40.00    8.20
  -2   7   8   48.00   11.30
   1  -7  -8  100.09   12.50
   1  -7  -8   67.89   11.20
  -1   7   8   82.49   12.40
  -1   7   8   86.69   10.40
   0  -7  -8   79.19    7.80
   0  -7  -8   79.69    8.60
   0  -7  -8   91.39   11.00
   0  -7  -8   77.49   11.10
   0   7   8  101.59   11.70
   0   7   8   74.89   10.50
  -1  -7  -8   67.39    4.30
  -1  -7  -8   96.79   10.80
  -1  -7  -8   81.39   10.40
  -1  -7  -8   63.19    4.40
  -1  -7  -8   57.59    9.60
  -2  -7  -8   29.40    8.10
  -2  -7  -8   45.60    9.00
   2   7   8   48.30    7.70
   2   7   8   31.70    6.50
  -3  -7  -8    9.90    9.10
   3   7   8   25.00    7.60
   3   7   8    8.30    6.60
  -4  -7  -8   97.69   13.30
  -4  -7  -8  112.79   13.00
   4   7   8   95.99    9.90
   4   7   8  112.09   15.40
  -5  -7  -8  -11.10    8.70
  -5  -7  -8    1.50    9.30
   5   7   8    1.00    6.10
   5   7   8   20.20   11.40
  -6  -7  -8   10.30   10.20
  -6  -7  -8   -6.20    9.20
   6   7   8    5.90    6.60
  -7  -7  -8   87.39   14.40
  -7  -7  -8   38.10   11.60
   7   7   8   54.09    8.70
   7   7   8   68.99   12.30
  -8  -7  -8   32.60   11.30
  -8  -7  -8   11.50   12.40
   8   7   8   31.30    6.70
   8   7   8   22.80   12.50
   8   7   8   24.10    3.90
  -9  -7  -8   16.60   10.90
  -9  -7  -8   27.10   12.90
   9   7   8   23.30   13.90
   9   7   8   11.30    4.50
   5  -8  -8    3.20    8.60
  -5   8   8   19.90   11.60
   4  -8  -8   -5.50    7.60
  -4   8   8  -12.10    9.50
   3  -8  -8   13.80    8.10
  -3   8   8   37.00   10.50
   2  -8  -8   51.79   10.00
   2  -8  -8   56.99    8.70
  -2   8   8   45.40   11.40
   1  -8  -8  124.39    8.80
   1  -8  -8  127.49   13.70
   1  -8  -8  152.08   15.50
  -1   8   8  147.49   17.50
   0  -8  -8   87.49   10.50
   0  -8  -8  101.39   11.80
   0  -8  -8   80.89   11.70
   0  -8  -8   89.79    8.80
   0   8   8  106.69   12.60
   0   8   8   94.09    9.40
  -1  -8  -8   15.00    8.20
  -1  -8  -8   23.90    3.50
  -1  -8  -8   31.00    7.30
   1   8   8   23.10    7.00
  -2  -8  -8   81.99   10.50
  -2  -8  -8  100.89   13.70
   2   8   8   70.89    8.90
  -3  -8  -8   -4.80    8.10
  -3  -8  -8   15.00    8.90
   3   8   8   10.60    6.60
   3   8   8   18.40    7.40
  -4  -8  -8  160.28   17.40
  -4  -8  -8  144.29   16.90
   4   8   8  129.69   12.30
   4   8   8  162.38   15.50
  -5  -8  -8  250.17   21.60
   5   8   8  235.28   16.30
   5   8   8  259.67   20.90
  -6  -8  -8   -1.60    9.70
  -6  -8  -8    1.50   10.90
   6   8   8    3.50    6.60
  -7  -8  -8   37.80   12.30
  -7  -8  -8   12.60   10.70
   7   8   8    9.80    7.20
   7   8   8   10.40   11.00
  -8  -8  -8   29.70   12.70
  -8  -8  -8   27.10    9.40
   8   8   8   36.10   13.70
   8   8   8   36.00    6.80
   8   8   8   30.00    4.00
  -9  -8  -8   -5.50   11.20
  -9  -8  -8   -3.10   11.90
   9   8   8    5.60    4.40
   9   8   8    4.50    7.30
   9   8   8    5.50   14.20
   4  -9  -8   34.40    9.50
   3  -9  -8    0.90    8.10
   3  -9  -8   13.50   12.00
   2  -9  -8    8.40    2.70
   2  -9  -8    6.00    8.00
   2  -9  -8    6.80    6.80
   2  -9  -8   11.50    9.80
   1  -9  -8   -1.00    6.70
   1  -9  -8   13.30   10.30
   1  -9  -8    3.00    4.50
   1  -9  -8    1.60    8.00
   1  -9  -8   10.00    5.90
   0  -9  -8   12.20    8.20
   0  -9  -8   22.00    5.10
   0  -9  -8    7.10    9.10
   0  -9  -8   34.50    9.40
   0  -9  -8   11.70    6.20
   0   9   8   24.70    6.90
  -1  -9  -8  130.99   14.00
  -1  -9  -8  123.79   14.10
  -1  -9  -8  101.49   14.90
  -1  -9  -8  155.08    9.90
  -1  -9  -8   93.49   19.10
   1   9   8  137.89   12.00
  -2  -9  -8   32.80    8.40
  -2  -9  -8   16.00    3.10
  -2  -9  -8   27.90    8.60
  -2  -9  -8   23.10    8.80
   2   9   8   34.90    7.50
  -3  -9  -8  -18.50    8.10
  -3  -9  -8   -9.00    7.60
   3   9   8    6.10    6.40
  -4  -9  -8   12.70    9.50
  -4  -9  -8   -5.80    9.00
   4   9   8    2.60    6.10
  -5  -9  -8   16.70   10.30
  -5  -9  -8    2.10    9.60
   5   9   8   14.80    7.00
  -6  -9  -8   17.80   10.60
  -6  -9  -8   -1.30   10.50
   6   9   8   11.40    7.10
   6   9   8   42.10   10.80
  -7  -9  -8   34.40   12.10
  -7  -9  -8   66.89   13.30
   7   9   8   56.99   13.50
   7   9   8   51.59    8.60
  -8  -9  -8   26.50   12.40
  -8  -9  -8    7.10   11.10
   8   9   8   10.40   12.40
   8   9   8   19.40    6.90
   3 -10  -8   -0.50    8.60
   3 -10  -8   14.10   12.00
   2 -10  -8   77.39    8.20
   2 -10  -8   94.69   10.60
   2 -10  -8   79.99   14.10
   2 -10  -8  109.19   12.20
   2 -10  -8   99.49   12.50
   1 -10  -8    0.60    7.60
   1 -10  -8    2.70    9.80
   1 -10  -8   -5.20    5.50
   1 -10  -8    0.30    8.30
   0 -10  -8   23.10    8.30
   0 -10  -8   11.70    5.60
   0 -10  -8    3.50   17.10
   0 -10  -8   14.90    9.80
   0 -10  -8   10.90    6.70
  -1 -10  -8   18.00    7.80
  -1 -10  -8    5.20    4.60
  -1 -10  -8    0.80    8.50
  -1 -10  -8   19.10    8.60
   1  10   8    3.30    5.30
  -2 -10  -8   30.00    4.80
  -2 -10  -8   30.40   10.10
  -2 -10  -8   37.00    9.00
  -2 -10  -8   27.30    8.60
  -2 -10  -8   35.80    9.30
   2  10   8   28.40    7.40
  -3 -10  -8   68.39    6.80
  -3 -10  -8   64.39    9.80
  -3 -10  -8   51.09   10.80
  -3 -10  -8   81.69   11.80
   3  10   8   66.69    9.20
  -4 -10  -8   74.99   12.30
  -4 -10  -8   56.49    8.40
  -4 -10  -8   49.00   11.30
   4  10   8   49.30    7.20
  -5 -10  -8    1.90   10.30
  -5 -10  -8    8.70    9.80
   5  10   8   -3.90    6.80
  -6 -10  -8    0.90   10.80
  -6 -10  -8   -2.80    9.70
   6  10   8   -0.60    6.70
  -7 -10  -8   -2.90   11.40
  -7 -10  -8   16.80   11.10
   7  10   8   -6.90   11.40
   7  10   8    1.50    6.80
   1 -11  -8   64.79   12.50
   1 -11  -8   75.09   10.90
   1 -11  -8   44.70    8.50
   1 -11  -8   42.10   12.60
   0 -11  -8    4.70    8.40
   0 -11  -8    4.30   10.20
   0 -11  -8   23.10    9.80
  -1 -11  -8    6.70    9.00
  -1 -11  -8    9.00    8.10
  -1 -11  -8   24.70    8.90
  -1 -11  -8    2.00   10.10
   1  11   8    7.00    7.20
  -2 -11  -8   -9.80    9.20
  -2 -11  -8   -5.00    5.10
  -2 -11  -8   19.90    8.10
  -2 -11  -8    1.20    9.30
   2  11   8    9.60    7.10
  -3 -11  -8   -5.70    9.40
  -3 -11  -8   17.40    8.40
  -3 -11  -8   -2.10    4.20
  -3 -11  -8   -3.10   10.40
  -3 -11  -8    7.40    8.30
   3  11   8    5.90    6.80
  -4 -11  -8   10.80    4.10
  -4 -11  -8   10.00    8.10
  -4 -11  -8   18.60   10.70
  -4 -11  -8   24.20   10.40
   4  11   8   15.00    7.20
  -5 -11  -8   29.20   12.40
  -5 -11  -8   18.50    6.90
  -5 -11  -8    5.40   10.90
   5  11   8   33.20    7.80
   2   3  -9   26.40    9.40
   2   3  -9   10.20    4.30
   2   3  -9   13.10    6.50
  -2  -3   9   16.20   11.90
  -2  -3   9   25.50    9.70
   1   3  -9   30.90    5.40
   1   3  -9   28.30    9.60
  -1  -3   9   31.10   10.10
  -1  -3   9   19.90   10.10
   0   3  -9   12.30    9.00
   0   3  -9   15.70    4.90
   0  -3   9   16.70    9.60
   0  -3   9   37.40   10.30
   1  -3   9   44.40   10.60
   1  -3   9   30.70   10.20
   2  -3   9   23.10    9.70
   2  -3   9   19.30   10.30
   3  -3   9   -6.20   10.60
   3  -3   9   14.40    8.90
   3  -3   9    2.00    9.60
   4  -3   9    4.60   11.30
   4   2  -9    5.90    9.50
   4   2  -9   -2.90    7.60
  -4  -2   9    9.30   10.80
  -4  -2   9    4.60    8.30
  -4  -2   9   10.40    9.10
   3   2  -9   39.50    9.80
   3   2  -9   70.99    4.60
  -3  -2   9   55.19   12.50
  -3  -2   9   72.99   11.20
   2   2  -9    4.90    8.50
   2   2  -9    5.00    6.90
   2   2  -9    4.50    3.40
  -2  -2   9   11.80    8.60
  -2  -2   9   -5.00    7.70
   1   2  -9    4.60    4.20
   1   2  -9    2.10    7.60
   1   2  -9   -4.60    6.30
  -1  -2   9   -0.90    8.00
  -1  -2   9    0.50    9.80
   0   2  -9    4.20    8.00
   0   2  -9   -8.30    6.40
   0  -2   9   17.10    8.70
   0  -2   9   -3.80    8.90
  -1   2  -9   46.40    7.50
   1  -2   9   20.50    9.70
   1  -2   9   17.60    9.40
  -2   2  -9    1.90    9.40
  -2   2  -9    7.60    6.80
   2  -2   9   -0.30    7.70
   2  -2   9    8.20    9.30
  -3   2  -9   -5.20    9.30
   3  -2   9    3.60    9.80
   3  -2   9    1.60    8.30
   3  -2   9    6.70    8.40
  -4   2  -9   13.60   10.80
   4  -2   9   15.10   10.60
   4  -2   9   13.40    9.70
   4  -2   9   31.50    8.80
  -5   2  -9   -1.90   10.20
   5  -2   9    0.90   11.00
   5  -2   9   22.20   10.50
   5  -2   9   14.20    8.70
   5   1  -9   -1.10    8.90
   5   1  -9   -1.80    7.80
  -5  -1   9   -3.40    7.10
  -5  -1   9   26.00   11.40
   4   1  -9   12.30    7.90
   4   1  -9   13.00    8.90
  -4  -1   9    4.70    8.90
  -4  -1   9    2.90    6.80
  -4  -1   9    0.70   10.80
   3   1  -9    3.50    7.40
   3   1  -9   15.00    7.80
  -3  -1   9   -2.30    8.20
  -3  -1   9   -7.70   10.10
   2   1  -9  127.19    8.20
   2   1  -9  132.89   15.00
   2   1  -9  139.09   14.60
  -2  -1   9  161.08   18.30
  -2  -1   9  128.79   15.00
   1   1  -9  108.19   12.30
   1   1  -9  115.59   14.70
  -1  -1   9   73.59   12.30
  -1  -1   9   96.59   11.20
   0   1  -9   47.10    8.40
   0   1  -9   57.29   10.50
   0   1  -9   55.89    8.70
   0  -1   9   50.59   10.30
   0  -1   9   52.49   16.40
  -1   1  -9   -0.70    6.40
  -1   1  -9   -0.30    8.20
   1  -1   9   -0.50    7.60
   1  -1   9  -14.30    7.90
  -2   1  -9    8.20    6.50
  -2   1  -9   14.60    9.30
   2  -1   9    8.20    7.50
   2  -1   9    9.90    8.30
  -3   1  -9   46.00   10.20
   3  -1   9   49.20   10.20
   3  -1   9   44.90    8.80
   3  -1   9   37.20    9.30
  -4   1  -9   16.10   10.10
   4  -1   9    5.60    9.60
   4  -1   9   47.20   15.80
   4  -1   9   26.50    3.20
   4  -1   9   21.80    8.60
  -5   1  -9   24.50   10.60
   5  -1   9   29.30   10.90
   5  -1   9   55.59   10.20
   5  -1   9    0.00    7.80
  -6   1  -9    7.30   10.50
   6  -1   9   11.40   10.00
   6  -1   9   16.20    8.40
   6  -1   9   17.20   11.30
  -7   1  -9    4.20    8.70
  -7   1  -9   -7.40   11.50
   7  -1   9    3.10    8.60
   7  -1   9   15.80   11.10
   7  -1   9    2.40   13.60
   6   0  -9    7.60    9.00
   6   0  -9    8.80    9.70
  -6   0   9   24.30   12.60
   5   0  -9   12.60    9.20
   5   0  -9    7.50    8.80
  -5   0   9   -0.30   10.30
   4   0  -9   47.80    9.30
   4   0  -9   49.99   10.10
  -4   0   9   42.80   11.60
   3   0  -9   -0.60    7.80
   3   0  -9   15.20    7.20
  -3   0   9   13.40    9.60
  -3   0   9   10.60    7.50
   2   0  -9   26.80    9.50
   2   0  -9   17.40    7.20
  -2   0   9   25.70    9.20
   1   0  -9   32.60    9.20
   1   0  -9   21.80    8.80
   1   0  -9   33.40    8.30
  -1   0   9   31.40    7.40
  -1   0   9   13.00    9.50
   0   0  -9   70.09    9.00
   0   0  -9   80.39   11.70
   0   0  -9  100.19   12.80
   0   0   9   66.79   11.30
   0   0   9   85.09    9.60
  -1   0  -9   13.90    7.40
  -1   0  -9    8.70    6.40
  -1   0  -9   23.00    8.60
   1   0   9    1.20    8.00
  -2   0  -9   -6.20    7.50
   2   0   9   -0.40    7.20
   2   0   9    5.00    7.90
  -3   0  -9   65.79   10.90
   3   0   9   43.80    9.50
   3   0   9   40.30    4.30
  -4   0  -9  135.09   14.10
   4   0   9   95.69   11.90
   4   0   9  111.39    7.60
  -5   0  -9    5.00    9.60
   5   0   9   -6.00    9.30
   5   0   9   10.60    7.40
   5   0   9   -7.40    7.00
  -6   0  -9   24.70   10.70
   6   0   9   27.00   10.80
   6   0   9   23.60    8.30
   6   0   9   25.80    8.80
  -7   0  -9   25.50   12.00
   7   0   9  -10.80    9.50
   7   0   9   -5.40   10.80
   6  -1  -9   10.60    9.10
   6  -1  -9    6.50    9.60
  -6   1   9    5.70    4.60
  -6   1   9  -12.70   10.80
  -6   1   9   11.80    9.80
   5  -1  -9  102.59   12.30
   5  -1  -9  114.89   15.10
  -5   1   9   91.99    9.80
  -5   1   9  102.39   13.60
  -5   1   9  100.19   13.40
   4  -1  -9   64.19   10.40
   4  -1  -9   60.39    9.40
  -4   1   9   60.49   11.10
  -4   1   9   54.79    6.70
   3  -1  -9   38.60    8.30
   3  -1  -9   39.80    9.20
  -3   1   9   43.20    8.60
   2  -1  -9   39.30    7.60
   2  -1  -9   27.40   14.20
   2  -1  -9   39.00    9.70
  -2   1   9   41.60    8.20
   1  -1  -9   49.70    7.50
   1  -1  -9   53.09    9.40
   1  -1  -9   52.49   10.00
   0  -1  -9   -2.40    7.50
   0  -1  -9    1.60    5.70
   0  -1  -9   10.60    6.60
   0   1   9    3.30    6.80
  -1  -1  -9   19.10    5.90
  -1  -1  -9   13.60    6.80
  -1  -1  -9   26.10    8.00
   1   1   9    8.70    7.20
   1   1   9   12.30    6.60
   1   1   9   12.60    5.90
  -2  -1  -9    6.70    6.20
   2   1   9    7.10    5.50
   2   1   9    5.40    7.60
   2   1   9    1.70    2.70
   2   1   9   -2.60    7.90
  -3  -1  -9  179.28   18.00
   3   1   9  191.58   17.50
   3   1   9  193.28   10.90
   3   1   9  199.78   17.60
   3   1   9  203.68   14.80
  -4  -1  -9  100.29   12.90
   4   1   9  107.09   14.40
   4   1   9  119.39   12.10
   4   1   9  110.69    8.10
  -5  -1  -9    2.10    8.60
   5   1   9   -5.90    7.70
   5   1   9   -4.00    7.40
  -6  -1  -9  146.09   19.20
   6   1   9   95.79   12.00
   6   1   9  105.79   14.10
  -7  -1  -9   27.90   11.10
   7   1   9   11.50    9.90
   7   1   9   25.70    8.50
  -8  -1  -9   25.80   11.80
  -8  -1  -9   23.70   10.00
   8   1   9   39.00    9.80
   8   1   9   25.60   11.80
   6  -2  -9    2.70    9.10
   6  -2  -9    6.90    9.40
  -6   2   9   18.70   10.10
  -6   2   9   28.50   10.40
  -6   2   9   15.00    2.30
   5  -2  -9    8.50    7.50
   5  -2  -9    3.60    8.30
  -5   2   9    8.80    8.90
  -5   2   9    6.10    9.20
  -5   2   9   15.80    3.40
   4  -2  -9   -1.10    6.20
   4  -2  -9    0.20    6.80
  -4   2   9   13.70    7.10
  -4   2   9    4.30    3.50
  -4   2   9    8.60    8.80
   3  -2  -9    7.60    7.90
   3  -2  -9    3.40    6.40
   3  -2  -9   10.50    7.60
  -3   2   9   10.10    4.80
  -3   2   9    1.40    7.20
   2  -2  -9  181.48   14.80
   2  -2  -9  184.48   17.80
   2  -2  -9  174.78    9.90
   2  -2  -9  182.48   17.50
  -2   2   9  186.58   13.60
   1  -2  -9  111.89   13.10
   1  -2  -9  153.28   15.20
   1  -2  -9  122.59   12.00
  -1   2   9  113.99   12.00
  -1   2   9  157.68   13.70
   0  -2  -9   78.79   10.00
   0  -2  -9  102.89   13.30
   0  -2  -9   86.99   11.50
   0   2   9   75.99    8.40
   0   2   9  110.99   12.40
  -1  -2  -9    6.50    4.60
  -1  -2  -9    3.40    7.40
  -1  -2  -9    3.00    6.00
   1   2   9   -5.70    5.80
   1   2   9    7.60    4.60
  -2  -2  -9   21.10    7.50
   2   2   9   38.60    5.60
   2   2   9   37.80    4.40
   2   2   9   36.10    9.10
   2   2   9   32.80    8.70
  -3  -2  -9   80.79    9.90
   3   2   9   67.39    8.90
   3   2   9   64.89    6.70
   3   2   9   57.89    8.80
   3   2   9   77.79   10.90
  -4  -2  -9  123.99   15.60
   4   2   9   87.49    8.10
   4   2   9   94.29    9.90
   4   2   9  123.99   14.90
   4   2   9   92.59   12.20
  -5  -2  -9    2.40    8.60
   5   2   9   19.00    5.20
   5   2   9    7.20    8.20
   5   2   9   16.90    5.40
  -6  -2  -9   -0.90    9.00
   6   2   9    0.80    7.10
   6   2   9  -15.30    7.50
   6   2   9    3.10    5.70
  -7  -2  -9   25.20   11.20
   7   2   9    4.60   10.50
  -8  -2  -9   25.60   12.20
   8   2   9   18.90    4.60
   8   2   9    6.00    8.50
  -9  -2  -9   10.00   12.30
  -9  -2  -9   -6.40    9.80
   9   2   9   -8.10   14.30
   9   2   9    5.90    8.10
   9   2   9   -5.20    3.30
   7  -3  -9   57.59   12.30
   6  -3  -9   76.79   12.20
   6  -3  -9   93.89   12.50
  -6   3   9   83.69   11.50
  -6   3   9   89.99   12.50
   5  -3  -9   43.20   10.10
   5  -3  -9   17.60    8.70
  -5   3   9   28.40    8.80
  -5   3   9   11.70    9.70
   4  -3  -9   20.30    9.00
   4  -3  -9   32.60    9.10
  -4   3   9    5.90    8.00
  -4   3   9   18.40    8.40
   3  -3  -9   -4.50    7.80
   3  -3  -9   -5.30    7.50
   3  -3  -9   -5.30    5.60
  -3   3   9    0.60    8.70
  -3   3   9    1.00    2.90
  -3   3   9    0.90    2.30
   2  -3  -9   19.80    8.50
   2  -3  -9   11.60    3.40
   2  -3  -9    9.70    5.60
   2  -3  -9   14.60    8.40
  -2   3   9    5.90    4.30
  -2   3   9   14.30    8.60
   1  -3  -9   19.50    8.90
   1  -3  -9   31.70    5.60
   1  -3  -9   22.80    4.70
  -1   3   9   15.40    5.60
  -1   3   9   25.00    7.30
   0  -3  -9   31.10    5.10
   0  -3  -9   28.20   11.80
   0  -3  -9   27.50    9.00
   0   3   9   22.30    6.90
  -1  -3  -9    5.30    7.40
  -1  -3  -9   12.00    4.00
   1   3   9   18.80    4.00
   1   3   9   10.70    6.80
   2   3   9   60.59    6.00
   2   3   9   54.19    9.40
   2   3   9   81.39    7.50
  -3  -3  -9  148.99   17.80
   3   3   9  225.68   12.20
   3   3   9  212.68   12.50
   3   3   9  226.28   16.30
   3   3   9  205.58   18.30
  -4  -3  -9    8.20    8.70
   4   3   9    9.60    8.10
   4   3   9    2.90    4.50
   4   3   9    2.10    3.10
   4   3   9   -5.50    9.40
  -5  -3  -9   10.00    9.00
   5   3   9   22.60    5.70
   5   3   9    3.30    8.90
   5   3   9   22.00    8.90
   5   3   9   15.00    3.80
  -6  -3  -9   12.90   10.00
   6   3   9    8.80    4.50
  -7  -3  -9   34.50   11.40
   7   3   9   24.10   11.00
   7   3   9   50.29    6.50
  -8  -3  -9   45.30   12.30
   8   3   9   37.40   12.20
   8   3   9   45.30    6.90
  -9  -3  -9    9.10   10.30
  -9  -3  -9   19.40   12.60
   9   3   9   -4.20   10.80
   6  -4  -9   12.70   10.10
   6  -4  -9   24.00    9.90
  -6   4   9   -0.20    8.30
  -6   4   9   -4.60    9.60
   5  -4  -9   19.00    7.70
   5  -4  -9   29.70    8.80
  -5   4   9    2.20    7.40
  -5   4   9   38.00   11.20
   4  -4  -9    0.40    7.50
   4  -4  -9   16.80    7.10
   4  -4  -9   13.50    8.60
  -4   4   9   27.70   10.00
   3  -4  -9  165.18   14.60
   3  -4  -9  176.18   17.00
   3  -4  -9  173.88   17.10
  -3   4   9  201.98   20.40
  -3   4   9  151.18   16.30
   2  -4  -9  102.39   12.30
   2  -4  -9  106.69    7.90
   2  -4  -9  109.59   15.00
   2  -4  -9   99.09   10.70
  -2   4   9  105.99   12.00
  -2   4   9   78.19   12.40
   1  -4  -9    5.80    6.40
   1  -4  -9   11.50    4.60
   1  -4  -9   15.50   14.70
   1  -4  -9    5.80    4.80
  -1   4   9    6.00    8.20
  -1   4   9    1.50    7.70
  -1   4   9   14.50    4.20
   0  -4  -9   15.90    4.00
   0  -4  -9   25.60   10.40
   0   4   9    9.60    5.60
   0   4   9   24.20    8.50
   0   4   9   11.20    8.00
  -1  -4  -9   69.09    6.10
  -1  -4  -9   76.09   10.90
  -1  -4  -9   66.79    9.60
   1   4   9   63.49    6.40
   1   4   9   51.59    8.50
   1   4   9   82.99   11.10
   1   4   9   45.80   11.50
   2   4   9  326.47   20.90
   2   4   9  276.07   15.30
   2   4   9  219.38   19.60
  -3  -4  -9   34.90   11.10
   3   4   9   25.60    8.20
   3   4   9   15.00    5.20
   3   4   9   14.10    7.70
  -4  -4  -9    1.80    8.30
   4   4   9    9.60    5.30
   4   4   9   10.60    6.50
   4   4   9   14.40    8.50
   4   4   9    5.30    6.20
  -5  -4  -9   24.60    7.90
   5   4   9   10.30    9.60
   5   4   9   13.50    8.60
   5   4   9   15.70    5.40
   5   4   9   19.70    5.80
  -6  -4  -9    3.70    9.60
   6   4   9    0.50    2.40
   6   4   9   -6.10    6.40
   6   4   9    3.60    3.40
   6   4   9    1.50    2.80
  -7  -4  -9    5.70   10.50
   7   4   9   14.90    4.00
   7   4   9   12.20   10.60
   7   4   9   14.50    4.30
  -8  -4  -9   -5.10   10.30
   8   4   9    3.50   11.00
   8   4   9    7.60    4.70
   8   4   9   11.60    5.10
  -9  -4  -9   51.19   13.90
   9   4   9   56.69    7.30
   9   4   9   33.50   13.20
   9   4   9   34.10    6.70
   6  -5  -9   -7.40    9.70
   6  -5  -9   18.20    9.20
  -6   5   9    6.90   10.80
  -6   5   9   23.50    8.00
   5  -5  -9    3.70    7.50
   5  -5  -9    2.40    8.40
  -5   5   9    0.10    9.50
   4  -5  -9    3.00    7.90
   4  -5  -9    0.90    6.90
   4  -5  -9    6.60    7.60
  -4   5   9   10.20   10.20
  -4   5   9    4.00    8.60
   3  -5  -9    7.90    4.10
   3  -5  -9   -5.50   12.10
   3  -5  -9    8.20    6.20
   3  -5  -9    3.30    8.00
  -3   5   9  -10.40    9.60
  -3   5   9   -3.30    7.10
   2  -5  -9  138.29   16.50
   2  -5  -9  133.79   10.70
   2  -5  -9  154.98   12.50
   2  -5  -9  176.28   19.30
  -2   5   9  168.38   15.80
  -2   5   9  162.78   18.90
   1  -5  -9   54.49    5.90
   1  -5  -9   46.50    8.50
   1  -5  -9   64.69   10.40
  -1   5   9   44.70   11.40
  -1   5   9   48.10    9.20
  -1   5   9   53.99    4.90
   0  -5  -9   72.39   11.40
   0  -5  -9   88.49    7.30
   0  -5  -9   88.09   11.20
   0   5   9   87.99   12.40
   0   5   9   78.39   10.50
   0   5   9   77.09    8.40
   0   5   9   81.49    8.50
  -1  -5  -9   48.70    9.90
   1   5   9   30.60    6.80
   1   5   9   34.70    5.90
   1   5   9   29.50    8.90
   2   5   9   12.80    8.00
   2   5   9   15.00    5.50
   2   5   9   15.20    9.00
   2   5   9    7.00    6.90
  -3  -5  -9    8.20    6.40
   3   5   9   -1.60    6.90
   3   5   9   -0.10    5.00
   3   5   9    4.60    6.60
  -4  -5  -9   64.89    9.50
   4   5   9   66.59    7.80
   4   5   9   56.49   10.80
   4   5   9   47.10    7.00
  -5  -5  -9  155.78   17.90
  -5  -5  -9  173.68   17.80
   5   5   9  132.79   17.80
   5   5   9  152.68   10.70
  -6  -5  -9   38.50   11.60
  -6  -5  -9   51.79   11.60
   6   5   9   42.00    7.30
  -7  -5  -9   33.40   11.20
  -7  -5  -9   32.40   11.90
   7   5   9   38.00   11.30
   7   5   9   18.00    6.90
  -8  -5  -9    5.80   10.90
  -8  -5  -9    3.30   11.40
   8   5   9   -8.00   11.20
   8   5   9    6.30    3.30
   8   5   9    4.10    3.40
  -9  -5  -9   -9.20   10.60
  -9  -5  -9   -7.20   11.90
   9   5   9   -7.50   11.90
   9   5   9    5.20    4.70
   6  -6  -9   10.70    9.60
   6  -6  -9   17.50   10.50
  -6   6   9   32.90   12.00
   5  -6  -9   51.69    9.30
   5  -6  -9   45.20    9.90
  -5   6   9   54.99   12.90
  -5   6   9   72.79   11.70
   4  -6  -9   40.10    9.90
   4  -6  -9   27.70    8.00
  -4   6   9   33.60    8.60
  -4   6   9   54.19   11.80
   3  -6  -9   28.10    9.90
   3  -6  -9   18.70    6.70
   3  -6  -9    8.40    7.00
  -3   6   9   17.50    7.90
  -3   6   9   32.00   11.50
   2  -6  -9   -0.10    4.80
   2  -6  -9   10.50    8.00
   2  -6  -9    5.10    8.30
  -2   6   9   12.50   10.20
  -2   6   9    6.90    7.40
   1  -6  -9   33.50    4.90
   1  -6  -9   51.79   10.20
   1  -6  -9   30.20    8.80
  -1   6   9   50.89   11.70
  -1   6   9   34.40    8.50
   0  -6  -9   38.30    7.90
   0  -6  -9   33.40    3.80
   0  -6  -9   30.80    9.00
   0   6   9   30.20    6.60
   0   6   9   32.40    8.60
   0   6   9   23.30    9.90
   0   6   9   27.50    4.30
  -1  -6  -9   72.69   11.10
  -1  -6  -9   81.89   12.90
   1   6   9   81.89    8.50
   1   6   9   71.09   10.60
   1   6   9  116.99   13.60
   1   6   9   92.59    9.70
  -2  -6  -9   34.90    9.50
   2   6   9   45.80    9.30
   2   6   9   37.20    7.40
   2   6   9   28.00    8.20
   2   6   9   32.10    6.70
  -3  -6  -9   58.49   10.10
   3   6   9   46.80    7.40
   3   6   9   54.29    9.60
   3   6   9   60.89    8.10
  -4  -6  -9   13.80    7.30
  -4  -6  -9   12.50    9.30
   4   6   9    5.80    4.70
   4   6   9   -3.50    7.00
   4   6   9   -2.00    8.00
  -5  -6  -9    4.10    9.60
  -5  -6  -9   13.50    9.80
   5   6   9    1.40    9.50
   5   6   9   15.70    6.40
  -6  -6  -9   42.40   12.80
  -6  -6  -9   41.50   11.20
   6   6   9   35.50    6.90
  -7  -6  -9   19.60   10.90
  -7  -6  -9   43.60   13.30
   7   6   9   23.90    6.50
   7   6   9    8.20   10.80
  -8  -6  -9   24.70   11.80
  -8  -6  -9   41.90   12.30
   8   6   9   17.40   12.50
   8   6   9   16.80    7.60
  -9  -6  -9   25.90   13.30
  -9  -6  -9   11.60   12.50
   9   6   9    6.20   12.20
   9   6   9   16.00    4.00
   5  -7  -9    4.50    9.40
   5  -7  -9   28.90   10.50
  -5   7   9   14.00   10.90
  -5   7   9    1.40    8.20
   4  -7  -9   32.80   10.20
   4  -7  -9   27.00   10.50
   4  -7  -9   33.90    8.50
  -4   7   9   45.60    9.40
  -4   7   9   33.10   11.50
   3  -7  -9   45.60   10.70
   3  -7  -9   60.09    9.70
   3  -7  -9   42.10    8.20
  -3   7   9   75.19   13.20
  -3   7   9   57.59    9.50
   2  -7  -9   51.19    7.20
   2  -7  -9   74.19   10.40
   2  -7  -9   53.09   10.60
  -2   7   9   60.99    9.50
  -2   7   9   46.20   12.20
   1  -7  -9   14.70    8.20
   1  -7  -9   11.70    4.40
   1  -7  -9    8.20    8.10
  -1   7   9   -0.40    9.50
  -1   7   9   24.40    8.40
   0  -7  -9    4.70    8.90
   0  -7  -9    5.90    8.30
   0  -7  -9    2.40    2.90
   0   7   9    6.80    6.30
   0   7   9   -4.50    7.40
   0   7   9    1.50    8.70
  -1  -7  -9   -6.40   13.50
  -1  -7  -9   34.10    9.20
  -1  -7  -9    6.20    5.10
   1   7   9    5.40    4.50
   1   7   9    3.70    6.00
   1   7   9    7.90    6.00
   1   7   9    9.30    7.90
  -2  -7  -9   29.50    7.90
  -2  -7  -9   34.50    9.30
   2   7   9   19.30    6.30
   2   7   9   33.50    7.00
  -3  -7  -9   79.19   11.40
   3   7   9   81.79    8.40
   3   7   9  105.89   13.20
   3   7   9   89.59   11.10
  -4  -7  -9  138.29   15.30
  -4  -7  -9  140.39   16.60
   4   7   9  116.79   14.90
   4   7   9  102.09   10.80
  -5  -7  -9    2.10   12.00
  -5  -7  -9   -9.20    8.40
   5   7   9    7.70    6.20
   5   7   9   -0.80    9.00
  -6  -7  -9   80.99   13.40
  -6  -7  -9  115.59   15.90
   6   7   9   92.49    9.60
  -7  -7  -9   14.70   11.30
  -7  -7  -9   13.30   10.30
   7   7   9  -14.50   10.20
   7   7   9    5.10    6.40
  -8  -7  -9   17.00   11.50
  -8  -7  -9   27.20   14.20
   8   7   9    8.10   12.10
   8   7   9   25.80    7.60
  -9  -7  -9   52.99   13.30
  -9  -7  -9   80.09   14.40
   9   7   9   57.09   15.10
   9   7   9   60.89    5.50
   9   7   9   58.59    8.80
   5  -8  -9    1.00    8.90
   5  -8  -9   19.90    9.80
  -5   8   9   13.40   10.70
  -5   8   9   -4.30    8.00
   4  -8  -9    7.60    8.40
   4  -8  -9    7.50    7.50
   4  -8  -9   -3.40    9.10
  -4   8   9   -3.40    7.50
  -4   8   9   16.00   11.80
   3  -8  -9  -14.70    9.00
   3  -8  -9   -0.80    7.30
   3  -8  -9   16.80    7.60
  -3   8   9    0.50   10.40
  -3   8   9    1.00    7.90
   2  -8  -9    5.90    6.10
   2  -8  -9    9.40    8.90
   2  -8  -9   14.30    8.30
  -2   8   9   -3.20    9.90
  -2   8   9    1.70    8.00
   1  -8  -9  115.99   15.40
   1  -8  -9   96.59   19.00
   1  -8  -9  124.19   10.90
  -1   8   9  161.08   18.30
   0  -8  -9   75.29    7.70
   0  -8  -9   65.59    7.00
   0  -8  -9   82.69   11.10
   0  -8  -9   56.59   12.60
   0  -8  -9   63.59    6.90
   0   8   9   67.59    8.40
   0   8   9   80.49   19.70
  -1  -8  -9   36.80    9.50
  -1  -8  -9    4.80    6.00
  -1  -8  -9   17.10    9.10
   1   8   9   10.90    6.60
   1   8   9    7.20    7.30
  -2  -8  -9    7.90    8.40
  -2  -8  -9   21.20    7.90
  -2  -8  -9   13.90    8.40
   2   8   9   -0.10    6.20
   2   8   9    6.90    5.70
  -3  -8  -9   -0.30    8.40
   3   8   9    4.00    6.10
   3   8   9   -7.60    6.40
  -4  -8  -9  146.59   19.60
  -4  -8  -9  160.88   15.10
   4   8   9  131.89   12.40
   4   8   9  156.88   19.60
  -5  -8  -9   35.10   12.60
  -5  -8  -9    9.80    9.90
   5   8   9   24.70    9.70
   5   8   9   13.10    6.40
  -6  -8  -9    3.20   11.80
  -6  -8  -9    7.00   10.20
   6   8   9   11.80    7.00
   6   8   9   24.50    9.60
  -7  -8  -9  109.29   16.70
  -7  -8  -9   67.49   13.30
   7   8   9   77.89   14.20
   7   8   9   71.49    9.40
  -8  -8  -9   88.79   16.00
  -8  -8  -9   79.69   12.10
   8   8   9   45.90   14.10
   8   8   9   50.69    8.60
   4  -9  -9   15.70    7.30
   4  -9  -9   -4.70    9.60
  -4   9   9    7.90   12.00
   3  -9  -9   19.60    8.40
   3  -9  -9    2.10    9.70
  -3   9   9    6.30   11.60
   2  -9  -9   -5.00    9.20
   2  -9  -9    1.30   11.20
  -2   9   9   -8.40    9.60
   1  -9  -9   24.80   10.00
   1  -9  -9   40.30   10.10
   1  -9  -9   20.00    5.80
  -1   9   9   38.10   11.50
   0  -9  -9   20.90    5.60
   0  -9  -9   28.10    9.10
   0  -9  -9   20.60    4.40
   0  -9  -9    9.70    8.90
  -1  -9  -9   24.50    9.60
  -1  -9  -9   16.90    8.10
  -1  -9  -9   17.50    2.90
  -1  -9  -9    9.50    7.00
  -1  -9  -9   12.20    2.70
   1   9   9   11.50    7.00
  -2  -9  -9   26.30    9.60
  -2  -9  -9   54.39    9.60
   2   9   9   25.20    7.40
  -3  -9  -9    7.30    9.40
  -3  -9  -9   40.20   10.50
   3   9   9   26.70    7.40
  -4  -9  -9   20.40   11.70
  -4  -9  -9   35.40   10.20
   4   9   9   20.00    8.10
   4   9   9   16.20    5.70
  -5  -9  -9   27.50   12.00
  -5  -9  -9   17.60   10.60
   5   9   9   -1.50    6.60
  -6  -9  -9  -10.00   11.70
  -6  -9  -9   11.40   10.90
   6   9   9   -4.00    6.60
   6   9   9    0.50   10.00
  -7  -9  -9    8.50   11.60
  -7  -9  -9    8.70   13.20
   7   9   9   13.90    7.50
   7   9   9    7.50   10.50
   2 -10  -9   23.60    9.70
   2 -10  -9   27.20   15.70
   2 -10  -9   20.00    7.90
   1 -10  -9   14.70    8.80
   1 -10  -9   17.00    4.20
   1 -10  -9   13.40    9.30
   0 -10  -9   -0.30    8.80
   0 -10  -9    7.50    8.80
   0 -10  -9   17.40    6.10
   0 -10  -9    4.20    4.70
  -1 -10  -9   -4.40    8.10
  -1 -10  -9   -0.30    3.70
  -1 -10  -9   11.30   10.00
   1  10   9    2.80    6.80
  -2 -10  -9   32.70    9.50
  -2 -10  -9   15.90   10.10
  -2 -10  -9   60.19    9.50
   2  10   9   33.90    7.70
  -3 -10  -9   44.10    9.80
  -3 -10  -9   53.29   11.20
  -3 -10  -9   48.90   10.50
   3  10   9   51.89    7.30
  -4 -10  -9   40.20   10.70
  -4 -10  -9   14.00   11.10
   4  10   9   20.00    7.50
  -5 -10  -9   22.10   11.50
  -5 -10  -9   -2.30   11.20
   5  10   9   14.20    7.10
  -6 -10  -9    4.60   12.40
  -6 -10  -9   24.90   12.20
   6  10   9   19.90   10.90
   6  10   9   12.50    7.10
   0 -11  -9   10.50   11.00
   0 -11  -9    4.80    9.30
   0 -11  -9    4.70   11.10
   0 -11  -9   19.90    6.90
  -1 -11  -9    9.70    9.20
  -1 -11  -9   24.50   10.30
  -1 -11  -9   34.50   11.20
  -1 -11  -9   18.20    5.20
   1  11   9    9.50    7.20
  -2 -11  -9  -12.20    9.70
  -2 -11  -9    2.60    9.00
  -2 -11  -9   -1.30    3.40
  -2 -11  -9    8.80    9.00
  -2 -11  -9   -0.30    9.60
   2  11   9   -3.80    5.00
  -3 -11  -9   -5.00   10.40
  -3 -11  -9    3.70    9.00
  -3 -11  -9   13.20   10.50
   3  11   9   -5.20    6.80
  -4 -11  -9   -6.20   10.90
  -4 -11  -9    5.50   10.90
   4  11   9   12.50    7.10
   1   2 -10   26.50    9.50
  -1  -2  10   28.60   10.20
  -1  -2  10    8.70   11.30
   0   2 -10   -1.50    8.20
   0   2 -10    4.60    8.00
   0  -2  10    3.50    7.70
  -1   2 -10    9.70    7.50
   1  -2  10   33.20   10.30
   1  -2  10   10.10   10.30
  -2   2 -10   12.10    8.20
   2  -2  10    0.60    9.10
   2  -2  10    8.10   10.40
   2  -2  10    3.40    9.60
   3  -2  10   31.50   11.70
   3   1 -10   10.40    8.80
   3   1 -10   10.60    9.40
  -3  -1  10   24.80   10.30
  -3  -1  10    1.90   12.00
   2   1 -10   16.30    3.10
   2   1 -10   14.00    8.70
   2   1 -10   -4.80    8.70
  -2  -1  10   -3.40   10.60
  -2  -1  10   21.60    9.40
   1   1 -10    6.00    7.70
   1   1 -10   12.00    7.80
  -1  -1  10   -5.70    7.60
  -1  -1  10  -13.20    8.00
   0   1 -10   42.90    9.10
   0   1 -10   73.29   17.20
   0  -1  10   63.99   11.70
   0  -1  10   65.39   10.70
  -1   1 -10    8.40    8.70
   1  -1  10   27.80    9.60
   1  -1  10   10.10    9.70
   1  -1  10   21.30    8.60
  -2   1 -10    2.50    9.80
   2  -1  10   10.50    9.00
   2  -1  10  -10.10    8.20
   2  -1  10   -8.40    9.10
  -3   1 -10   20.60   10.60
  -3   1 -10   -9.50    7.40
   3  -1  10  -15.10    7.90
   3  -1  10   -9.60    8.60
   3  -1  10   -0.80    9.40
  -4   1 -10    9.20   10.60
   4  -1  10   -8.00   10.50
   4  -1  10    8.80    9.30
   4  -1  10    7.30    9.10
  -5   1 -10   24.90   11.70
   5  -1  10    1.00   11.20
   5  -1  10   11.00    3.10
   5  -1  10   32.20   10.90
   5  -1  10    3.40    9.30
   4   0 -10   81.69   12.30
   4   0 -10   70.29   11.10
  -4   0  10   77.89    8.80
  -4   0  10   61.19   13.80
   3   0 -10   15.90    8.60
   3   0 -10    3.40    9.10
  -3   0  10   10.10   10.70
  -3   0  10   17.20    9.30
   2   0 -10   69.49   10.70
   2   0 -10   54.19    4.80
   2   0 -10   45.20    8.60
  -2   0  10   60.59    9.60
  -2   0  10   38.80   11.30
   1   0 -10   66.09   10.70
   1   0 -10   70.09   11.10
   1   0 -10   65.29    9.20
  -1   0  10   72.99   10.50
  -1   0  10   59.09   11.40
   0   0 -10   38.00    9.70
   0   0 -10   30.60    7.50
   0   0 -10   24.60    7.90
   0   0  10    9.60    9.40
   0   0  10   43.80   10.10
   0   0  10    9.60    8.30
  -1   0 -10   31.60   10.30
  -1   0 -10   22.80    9.10
   1   0  10   35.00   10.10
   1   0  10   24.30    8.10
  -2   0 -10   45.10    9.30
  -2   0 -10   35.00   10.30
   2   0  10   48.90    8.40
   2   0  10   36.50   10.40
   2   0  10   15.50    8.20
  -3   0 -10    4.00    9.20
   3   0  10   10.70    7.10
   3   0  10    7.50    8.70
   3   0  10   14.40    8.80
  -4   0 -10  -10.00    9.40
   4   0  10    2.20    2.70
   4   0  10    7.20    8.60
   4   0  10   17.70    9.80
   4   0  10   13.30    7.60
  -5   0 -10   -3.50   10.10
   5   0  10  -11.40    8.40
   5   0  10   -9.50    8.90
   5   0  10    2.90    3.50
   5   0  10   13.10    8.70
  -6   0 -10  -13.60   11.40
   6   0  10    0.00   11.30
   6   0  10  -16.60    8.70
   6   0  10    0.20    9.30
   5  -1 -10    4.60   10.30
   5  -1 -10   -0.60    8.90
  -5   1  10   -8.50    9.30
  -5   1  10    3.10    5.20
  -5   1  10    2.30   11.60
   4  -1 -10   28.50   10.40
   4  -1 -10   31.90    8.60
  -4   1  10   27.10   11.50
   3  -1 -10   49.20    8.70
   3  -1 -10   73.79   11.40
  -3   1  10   38.00   11.40
   2  -1 -10   -1.80    8.60
   2  -1 -10  -13.70    8.50
   2  -1 -10   -3.30    6.30
  -2   1  10    3.10    9.40
   1  -1 -10   25.00    9.70
   1  -1 -10   35.10    9.10
   1  -1 -10   24.00    9.70
  -1   1  10    2.30    6.70
  -1   1  10   37.20    7.70
  -1   1  10   22.60    8.00
   0  -1 -10    3.40    9.00
   0  -1 -10    5.20    6.40
   0  -1 -10   16.20    9.00
   0   1  10    5.10    6.30
   0   1  10    7.50    7.80
   0   1  10   14.20    9.00
  -1  -1 -10    8.80    8.60
  -1  -1 -10   11.10    7.90
   1   1  10    6.70    5.80
   1   1  10   10.90    9.60
   1   1  10   -5.90    8.50
  -2  -1 -10   27.40    9.50
   2   1  10   24.60    7.80
   2   1  10   58.09    9.90
  -3  -1 -10   14.30    9.10
   3   1  10   11.80    3.20
   3   1  10   11.70    8.80
  -4  -1 -10   42.00   10.60
   4   1  10   45.80    9.90
   4   1  10   35.90    4.60
   4   1  10   50.59    8.50
  -5  -1 -10  115.99   14.60
   5   1  10   93.59   12.00
   5   1  10  103.79    8.20
   5   1  10  101.59   13.10
  -6  -1 -10   -7.80   10.60
   6   1  10    2.00    7.10
   6   1  10   11.50    8.80
   6   1  10    6.70    4.90
   6   1  10    8.70   10.90
  -7  -1 -10   33.10   12.30
   7   1  10   30.30   12.10
   7   1  10   36.00    9.00
   5  -2 -10   45.80   10.10
   5  -2 -10   42.00   11.10
  -5   2  10   33.00    4.10
  -5   2  10   26.50   11.00
  -5   2  10   52.39    6.90
  -5   2  10    7.70   10.90
   4  -2 -10   18.70    9.60
   4  -2 -10    2.60    7.40
  -4   2  10    0.80    3.80
  -4   2  10    5.30    7.60
  -4   2  10    7.40    7.40
  -4   2  10    5.50    4.70
   3  -2 -10    2.80    7.10
   3  -2 -10   18.50    9.30
   3  -2 -10    9.40    6.80
  -3   2  10    2.80    7.00
  -3   2  10    8.50    5.40
   2  -2 -10   54.49    5.60
   2  -2 -10   44.50    8.10
   2  -2 -10   50.49   10.60
   2  -2 -10   74.69   11.40
  -2   2  10   53.59   10.60
  -2   2  10   69.19    8.10
   1  -2 -10   51.59   10.20
   1  -2 -10   37.70    9.90
   1  -2 -10   43.70    7.20
  -1   2  10   55.79    8.30
   0  -2 -10   44.60    9.90
   0  -2 -10   31.10    8.10
   0  -2 -10   30.40    6.20
   0   2  10   39.00    8.30
  -1  -2 -10   21.80    7.70
  -1  -2 -10   44.60    9.20
  -1  -2 -10   30.10    5.80
   1   2  10   36.20    8.80
   1   2  10   29.80    9.60
   1   2  10   39.80    6.40
  -2  -2 -10   24.10    7.70
   2   2  10   29.70    3.90
   2   2  10   23.70    5.50
   2   2  10   27.40    9.40
   2   2  10   10.70    9.00
  -3  -2 -10   84.29   12.00
   3   2  10   55.89   10.60
   3   2  10   80.59    9.90
   3   2  10   71.19   10.70
   3   2  10   80.49    6.70
  -4  -2 -10    9.00    9.10
   4   2  10   10.30    8.80
   4   2  10    4.40    4.90
   4   2  10    7.80    4.00
  -5  -2 -10   49.99   11.30
   5   2  10    7.40    9.60
   5   2  10   26.00    9.00
   5   2  10    6.00    5.40
   5   2  10    8.50    4.60
  -6  -2 -10   83.69   13.70
   6   2  10   72.39    7.50
   6   2  10   59.99   12.30
   6   2  10   93.79   11.40
   6   2  10   70.49   11.00
  -7  -2 -10   -2.60   11.00
   7   2  10   12.20   11.40
   5  -3 -10   27.20    9.10
   5  -3 -10   27.40   10.60
  -5   3  10   21.60   10.20
  -5   3  10   13.70   10.20
   4  -3 -10   56.69   10.70
   4  -3 -10   29.40    8.40
  -4   3  10   36.30   11.10
  -4   3  10   30.00    9.70
   3  -3 -10  -12.20    8.10
   3  -3 -10    3.80    9.10
  -3   3  10    0.40    3.10
  -3   3  10    1.40    9.40
  -3   3  10    5.00    8.40
  -3   3  10    3.70    3.70
   2  -3 -10   25.50    4.00
   2  -3 -10   25.20   10.00
   2  -3 -10   29.30    6.70
   2  -3 -10   30.00    9.90
  -2   3  10   30.30    5.80
  -2   3  10   38.20   10.20
  -2   3  10   39.70    9.30
   1  -3 -10    3.40    4.70
   1  -3 -10   -4.50    8.10
   1  -3 -10   -2.60    4.80
   1  -3 -10   -1.60    7.50
  -1   3  10    8.80    5.80
  -1   3  10   34.50    8.60
   0  -3 -10   27.30    5.40
   0  -3 -10   48.20   10.00
   0  -3 -10   34.90    9.90
   0   3  10   34.10    7.50
  -1  -3 -10   91.49   11.70
  -1  -3 -10   88.79    8.60
  -1  -3 -10   67.29   11.10
   1   3  10   65.09    9.70
  -2  -3 -10   -0.20    8.40
   2   3  10    8.40    4.00
   2   3  10   11.00    4.20
   2   3  10   10.10    7.70
  -3  -3 -10   29.50    9.90
   3   3  10   45.70    5.40
   3   3  10   54.29    6.80
   3   3  10   44.50   10.00
  -4  -3 -10   77.19   10.40
   4   3  10   57.19   11.10
   4   3  10   70.79    7.30
   4   3  10   50.69   10.30
   4   3  10   76.09    7.60
  -5  -3 -10   13.20   10.00
   5   3  10    4.80    3.80
   5   3  10    8.00    8.70
   5   3  10    2.80    4.60
  -6  -3 -10   10.20   11.00
   6   3  10   25.00    4.70
   6   3  10   17.10   10.60
   6   3  10   27.40   10.20
  -7  -3 -10   30.10   12.30
   7   3  10   22.20   11.30
   7   3  10   14.90    5.20
  -8  -3 -10    2.50   11.80
   8   3  10   13.50    3.50
   8   3  10    5.40   11.10
   5  -4 -10   -3.80    7.40
   5  -4 -10   14.80    8.30
  -5   4  10    7.20    9.80
  -5   4  10    2.90    9.50
   4  -4 -10   28.50    9.60
   4  -4 -10   27.90    9.40
   4  -4 -10   30.70    8.10
  -4   4  10   43.30   11.80
  -4   4  10   18.30    9.50
   3  -4 -10  158.08   16.80
   3  -4 -10  135.99   14.00
   3  -4 -10  150.98   17.10
  -3   4  10  161.58   17.00
  -3   4  10  114.59   15.40
   2  -4 -10   17.10    4.30
   2  -4 -10   19.20    9.10
   2  -4 -10   15.50    6.00
   2  -4 -10   20.70    7.70
  -2   4  10   22.90    3.20
  -2   4  10   38.10    9.00
  -2   4  10    7.50   10.00
   1  -4 -10   19.90    5.80
   1  -4 -10   26.70    5.40
   1  -4 -10   33.30    9.00
   1  -4 -10   18.40    9.50
  -1   4  10    7.50    7.40
  -1   4  10   26.20    5.30
  -1   4  10   27.00   10.40
   0  -4 -10   11.80    4.20
   0  -4 -10   20.80    9.20
   0  -4 -10    8.10    8.50
   0   4  10    5.20    5.80
   0   4  10    4.60   16.90
   0   4  10   -4.70    7.70
  -1  -4 -10    9.40    8.20
  -1  -4 -10   -0.70    8.10
   1   4  10    0.00    6.20
   1   4  10   -2.00    4.20
   1   4  10   15.00    9.10
  -2  -4 -10   56.29    9.20
   2   4  10   53.89    9.70
   2   4  10   40.70    9.70
   2   4  10   53.29    6.20
  -3  -4 -10   48.40    9.00
   3   4  10   67.29    6.70
   3   4  10   64.79   10.70
  -4  -4 -10   12.70    9.20
   4   4  10   37.50    8.20
   4   4  10   31.20    5.80
   4   4  10   22.40    7.40
   4   4  10    6.60    8.60
  -5  -4 -10   28.20    8.40
   5   4  10   23.00    6.10
   5   4  10    2.90    9.00
   5   4  10   15.20    6.60
  -6  -4 -10    3.80   10.00
   6   4  10    7.00    4.80
   6   4  10   11.60    5.70
   6   4  10    8.10    9.90
  -7  -4 -10   -8.50    9.70
   7   4  10    1.40    3.00
   7   4  10   -9.70   10.20
   7   4  10    0.10    3.30
   7   4  10   -2.20    2.70
   7   4  10   -2.30    6.00
  -8  -4 -10    8.00   11.50
   8   4  10  -11.90   11.40
   8   4  10    8.30    4.40
   8   4  10    1.80    4.40
   5  -5 -10   88.49   12.50
   5  -5 -10   89.69   10.90
  -5   5  10   56.79   11.10
  -5   5  10   62.59   13.20
   4  -5 -10    3.40    7.30
   4  -5 -10    2.70    8.40
   4  -5 -10   -1.20    8.40
  -4   5  10   -6.30    8.30
  -4   5  10  -10.40   10.30
   3  -5 -10   -1.60    5.90
   3  -5 -10    1.00    8.30
   3  -5 -10    2.90    7.00
  -3   5  10   20.20    7.70
  -3   5  10  -11.10   10.10
   2  -5 -10   -1.40    8.10
   2  -5 -10    9.00    5.10
   2  -5 -10    1.50    8.30
   2  -5 -10   10.40    5.20
  -2   5  10    5.10   10.20
  -2   5  10    8.30    7.10
   1  -5 -10   11.60    4.60
   1  -5 -10   22.70    9.80
   1  -5 -10   23.10    9.10
  -1   5  10   12.70    3.10
  -1   5  10   14.20   10.20
   0  -5 -10   68.49    7.00
   0  -5 -10   68.99   11.40
   0  -5 -10   60.59   11.10
   0   5  10   78.09    8.50
   0   5  10   60.29   12.70
  -1  -5 -10   15.50    8.70
  -1  -5 -10   -1.00    6.20
   1   5  10    7.40    4.90
   1   5  10    3.60    5.90
   1   5  10   19.40    8.90
  -2  -5 -10   17.40    8.80
   2   5  10    7.60    7.70
   2   5  10   36.90    6.20
  -3  -5 -10   44.30    9.80
   3   5  10   30.60    9.10
   3   5  10   32.90    6.20
  -4  -5 -10   13.90    7.50
   4   5  10   41.60    8.10
   4   5  10   25.40    7.10
  -5  -5 -10    3.00    9.30
   5   5  10    7.20    5.30
   5   5  10   17.40    6.00
   5   5  10   15.40    9.90
  -6  -5 -10   28.30   11.00
   6   5  10   32.10    9.70
   6   5  10    2.60    5.90
  -7  -5 -10   68.99   13.60
   7   5  10   44.10   12.40
   7   5  10   63.99    8.20
  -8  -5 -10   50.99   13.50
   8   5  10   20.70   12.60
   8   5  10   32.40    7.60
   5  -6 -10   16.20    9.10
   5  -6 -10   21.80   10.20
  -5   6  10   11.10    9.00
  -5   6  10   11.80   11.90
   4  -6 -10  112.29   14.30
   4  -6 -10  118.19   13.20
   4  -6 -10  123.29   13.60
  -4   6  10  146.59   15.70
  -4   6  10  114.59   15.50
   3  -6 -10   15.10    6.30
   3  -6 -10   17.60    7.60
   3  -6 -10    9.80    8.60
  -3   6  10   21.00   10.90
  -3   6  10   28.50    8.30
   2  -6 -10   23.50    9.40
   2  -6 -10   14.90    5.30
   2  -6 -10   10.80    7.40
  -2   6  10   -3.40   11.00
  -2   6  10    0.80    7.90
   1  -6 -10    0.00    3.90
   1  -6 -10   -2.10    6.40
   1  -6 -10   -9.50    8.20
  -1   6  10    9.00   10.10
   0  -6 -10    1.40    2.60
   0  -6 -10    5.60    8.80
   0  -6 -10   -7.50    8.20
   0   6  10    1.40   15.00
   0   6  10    4.40    3.70
  -1  -6 -10  398.06   25.70
  -1  -6 -10  364.06   25.70
   1   6  10  390.06   27.00
   1   6  10  400.76   22.10
  -3  -6 -10   12.40    9.00
   3   6  10    8.70    7.80
   3   6  10    1.50    5.80
  -4  -6 -10   63.09    9.90
   4   6  10   57.79    7.40
   4   6  10   35.60   12.10
   4   6  10   45.60    7.20
  -5  -6 -10    5.60    9.80
  -5  -6 -10    7.80    9.40
   5   6  10    5.20    4.00
   5   6  10   -0.70    5.90
   5   6  10   13.40    9.50
  -6  -6 -10   22.60   11.00
  -6  -6 -10   31.30   11.30
   6   6  10   20.10    6.70
   6   6  10   12.00    9.70
  -7  -6 -10   16.50   11.60
  -7  -6 -10   24.80   11.80
   7   6  10   14.10   11.40
   7   6  10   28.10    6.90
  -8  -6 -10    0.50   12.20
  -8  -6 -10   -4.00   11.40
   8   6  10   12.40   12.80
   8   6  10   10.50    6.90
   4  -7 -10   21.50    8.00
   4  -7 -10   10.00    9.00
   4  -7 -10    6.30   10.00
  -4   7  10   18.20    9.00
  -4   7  10   13.30   10.60
   3  -7 -10   13.10    8.40
   3  -7 -10   10.60    6.60
   3  -7 -10    8.30    9.80
  -3   7  10  -13.00    7.00
  -3   7  10    0.60   10.80
   2  -7 -10    0.00    9.20
   2  -7 -10    3.20    4.90
   2  -7 -10   -2.70    8.00
  -2   7  10   14.10   10.60
   1  -7 -10   66.69    8.10
   1  -7 -10   77.59   12.10
   1  -7 -10   70.09   10.80
  -1   7  10   87.29   12.70
   0  -7 -10   12.10    9.40
   0  -7 -10   17.60    8.50
   0  -7 -10   23.00    2.90
   0   7  10   34.70   10.70
  -1  -7 -10   35.90    9.40
  -1  -7 -10   46.60   10.30
   1   7  10    9.70    7.60
   1   7  10   38.70    7.00
   1   7  10   34.70    9.40
   1   7  10   38.00    5.70
  -2  -7 -10    6.70    8.50
  -2  -7 -10    6.70    8.70
   2   7  10   21.10    8.30
   2   7  10   -6.00    5.40
   2   7  10    4.10    6.00
  -3  -7 -10    8.50    7.10
   3   7  10   11.40    7.40
   3   7  10   12.60    6.20
  -4  -7 -10    9.60    9.40
  -4  -7 -10    1.40    8.60
   4   7  10   15.80    5.30
   4   7  10   22.40    6.50
  -5  -7 -10   14.50   11.60
  -5  -7 -10   27.50    9.90
   5   7  10   16.60    6.40
   5   7  10    7.20   11.30
  -6  -7 -10   25.20   12.70
  -6  -7 -10    4.40   10.50
   6   7  10   30.40   10.70
   6   7  10    0.40    6.50
  -7  -7 -10   -8.80   12.60
  -7  -7 -10   -9.90   10.30
   7   7  10    3.00    6.70
   7   7  10  -11.40   10.90
  -8  -7 -10   13.90   11.40
  -8  -7 -10   13.90   14.10
   8   7  10   -3.40   12.40
   8   7  10    7.40    7.10
   4  -8 -10   78.19   11.20
   4  -8 -10   63.29   10.00
   4  -8 -10   65.89   10.40
  -4   8  10   83.39   14.60
   3  -8 -10    9.60    9.60
   3  -8 -10   20.30    7.10
   3  -8 -10   29.60    9.70
  -3   8  10   23.10   11.60
   2  -8 -10   11.10    5.60
   2  -8 -10   28.90    9.40
   2  -8 -10   42.90   10.40
  -2   8  10   15.10   11.50
  -2   8  10  -11.30    8.10
   1  -8 -10   14.10    8.50
   1  -8 -10    7.60    4.20
   1  -8 -10    7.10    9.30
  -1   8  10    6.50    7.50
  -1   8  10   16.00   10.80
   0  -8 -10  102.29   12.60
   0  -8 -10   99.89    6.50
   0  -8 -10  101.29    6.60
   0  -8 -10  117.79   15.20
   0   8  10   61.19   10.80
   0   8  10  128.79   14.40
  -1  -8 -10   51.79   10.50
  -1  -8 -10   64.09   10.60
   1   8  10   69.69   11.70
   1   8  10   49.40    7.90
  -2  -8 -10   32.80    9.50
  -2  -8 -10   51.49    8.60
  -2  -8 -10   40.70   10.70
   2   8  10   30.10    8.00
   2   8  10   25.20    7.10
   2   8  10   39.90    6.90
  -3  -8 -10   19.00    9.80
   3   8  10   -2.50    6.30
   3   8  10    5.10    6.40
  -4  -8 -10    3.40    7.00
  -4  -8 -10    1.70    9.50
   4   8  10   -9.00    6.10
   4   8  10    2.60    7.90
  -5  -8 -10   55.29   11.70
  -5  -8 -10   51.49   13.60
   5   8  10   33.90    7.10
  -6  -8 -10   57.09   14.40
  -6  -8 -10   63.79   12.60
   6   8  10   49.30   12.10
   6   8  10   44.40    7.80
  -7  -8 -10   -6.20   11.20
  -7  -8 -10    6.70   12.70
   7   8  10   14.30   11.60
   7   8  10   18.00    6.60
   3  -9 -10   36.10   10.30
   3  -9 -10    1.40   11.40
  -3   9  10   14.80   11.60
   2  -9 -10    9.10   10.00
   2  -9 -10    6.30    7.00
   2  -9 -10   12.90    8.90
  -2   9  10    9.90   11.40
   1  -9 -10    3.20    9.60
   1  -9 -10    0.20    4.70
   1  -9 -10    0.70    4.40
   1  -9 -10   18.10    9.50
  -1   9  10    2.60   11.10
   0  -9 -10   10.80    9.50
   0  -9 -10    0.10    2.70
   0  -9 -10    8.10    8.70
   0  -9 -10    8.10    3.00
   0   9  10   20.40   10.50
  -1  -9 -10   30.90   10.70
  -1  -9 -10   48.30    7.00
  -1  -9 -10   51.09   10.40
   1   9  10   43.90   10.20
   1   9  10   29.40    7.60
  -2  -9 -10   42.70   11.10
  -2  -9 -10   41.20   10.30
   2   9  10   39.90    7.80
  -3  -9 -10  -13.50    9.40
  -3  -9 -10   23.50   10.10
   3   9  10   -1.20    6.40
  -4  -9 -10   10.20    9.70
   4   9  10   -5.80    4.70
   4   9  10   -2.90    7.90
  -5  -9 -10   27.80   10.90
  -5  -9 -10   34.50   12.60
   5   9  10    3.60    9.50
   5   9  10   19.00    7.20
  -6  -9 -10   -0.40   13.70
  -6  -9 -10    0.70   10.40
   6   9  10   13.40   10.70
   6   9  10   13.50    7.20
   7   9  10   26.50    7.70
   1 -10 -10   15.80    5.70
   1 -10 -10   34.30    9.40
   1 -10 -10   22.50    5.50
   1 -10 -10   33.50   11.10
   0 -10 -10   -2.70    3.40
   0 -10 -10    0.40    3.60
   0 -10 -10  -10.90    9.10
   0 -10 -10   -5.00    4.10
   0 -10 -10   -6.90    9.50
  -1 -10 -10    6.90    6.70
  -1 -10 -10    4.70    9.20
  -1 -10 -10   29.50   11.00
   1  10  10   12.30    6.60
  -2 -10 -10    3.30   10.60
  -2 -10 -10   11.80    8.60
   2  10  10   -2.60    6.70
  -3 -10 -10    0.80    8.20
  -3 -10 -10    4.80   10.20
  -3 -10 -10   -2.00   10.00
   3  10  10    8.40    6.90
  -4 -10 -10   15.70   11.70
  -4 -10 -10   18.20    8.50
   4  10  10   20.70    7.50
  -5 -10 -10   56.19   12.60
  -5 -10 -10   56.39   15.10
   5  10  10   48.60   10.60
   5  10  10   49.80    8.20
   1   0 -11    8.70    8.20
   1   0 -11   20.10   10.60
  -1   0  11   -0.10   11.00
  -1   0  11   -4.20    8.10
   0   0 -11   14.80    9.90
   0   0 -11    7.10    9.90
   0   0 -11    7.00    7.60
   0   0  11    4.20    8.20
   0   0  11   22.20    9.00
   0   0  11    5.20   10.30
  -1   0 -11    9.80   10.10
  -1   0 -11   -2.50    9.40
   1   0  11    9.90    8.40
   1   0  11   14.60   11.10
   1   0  11    3.90    9.20
  -2   0 -11   40.00    9.70
  -2   0 -11   10.40   10.60
   2   0  11   -5.60    9.10
   2   0  11    9.50    8.30
   2   0  11    6.30   10.40
  -3   0 -11    7.90    8.50
  -3   0 -11   14.10    8.90
   3   0  11   -6.70   10.00
   3   0  11   -0.90    9.70
   3   0  11   23.10    8.90
   3  -1 -11  -21.10    9.70
   3  -1 -11    4.30    8.20
   2  -1 -11   48.80   11.10
   2  -1 -11   36.60    3.70
   2  -1 -11   42.40    9.10
  -2   1  11   28.80    8.90
  -2   1  11   28.30    9.50
  -2   1  11   52.19   10.20
   1  -1 -11   72.49   12.10
   1  -1 -11   99.99   13.20
   1  -1 -11   80.99    9.80
  -1   1  11   72.29   12.90
  -1   1  11   75.79   11.20
  -1   1  11  106.79   11.20
   0  -1 -11    1.40    7.20
   0  -1 -11   -6.20    6.90
   0  -1 -11   12.00    9.40
   0   1  11    8.80    9.60
   0   1  11    1.20    7.00
   0   1  11   11.30    8.70
  -1  -1 -11   -1.30    9.70
  -1  -1 -11   -1.10    9.10
   1   1  11    7.30    6.60
   1   1  11    4.40   10.00
  -2  -1 -11   -2.20    9.50
  -2  -1 -11    1.60    9.00
   2   1  11   -0.90    9.40
   2   1  11   -3.90    6.50
   2   1  11    8.20    8.10
  -3  -1 -11  -24.60    8.90
   3   1  11    5.50    9.40
   3   1  11   13.10    6.50
   3   1  11    0.80    9.30
  -4  -1 -11   23.50   10.50
   4   1  11   15.90    7.20
   4   1  11   15.90    3.50
   4   1  11   17.00   10.70
   4   1  11   21.50   10.10
  -5  -1 -11   87.59   13.90
   5   1  11   80.59    9.50
   5   1  11   51.59   12.90
   5   1  11   74.29   11.90
   5   1  11   61.99    5.80
   3  -2 -11   -6.90    7.40
   3  -2 -11   -4.50    8.90
  -3   2  11   11.10   10.90
  -3   2  11   -9.90    5.90
   2  -2 -11   -0.20    9.10
   2  -2 -11    2.80    6.90
   2  -2 -11   -4.50    9.20
  -2   2  11   -9.80    6.50
  -2   2  11   -5.40    9.90
   1  -2 -11   68.79   11.10
   1  -2 -11   67.39   11.40
   1  -2 -11   48.20    8.00
  -1   2  11   45.90    8.70
  -1   2  11   35.50   11.50
   0  -2 -11    7.90    9.10
   0  -2 -11   37.40   10.10
   0  -2 -11    7.60    6.20
   0   2  11   20.00    8.30
   0   2  11   -2.90    9.10
  -1  -2 -11   23.70    9.70
  -1  -2 -11   31.70    9.60
   1   2  11   22.20    8.80
   1   2  11   10.80    7.60
  -2  -2 -11   21.00    7.60
  -2  -2 -11    9.80    9.10
   2   2  11   13.40    9.00
   2   2  11   14.90    9.30
  -3  -2 -11    5.20    9.60
   3   2  11   11.20    5.50
   3   2  11    4.00    3.40
   3   2  11   -4.30    9.00
   3   2  11   11.80    7.40
  -4  -2 -11    6.30    9.30
   4   2  11   25.20    5.80
   4   2  11   10.60    4.00
   4   2  11    4.30    9.70
   4   2  11   19.10   10.40
  -5  -2 -11   17.70   10.80
   5   2  11   14.50    9.40
   5   2  11   25.50    4.90
   5   2  11   28.40   11.40
  -6  -2 -11   -7.70   10.50
   6   2  11   10.60   10.10
   6   2  11  -10.90   10.00
   6   2  11    1.00    4.90
   4  -3 -11   40.80    9.20
   4  -3 -11   40.90    9.00
  -4   3  11   33.30   11.10
  -4   3  11   26.60   11.60
   3  -3 -11   44.40   10.60
   3  -3 -11   42.60   10.60
   3  -3 -11   18.60    7.20
  -3   3  11   25.40    4.20
  -3   3  11   30.30   10.50
  -3   3  11   16.00   11.10
  -3   3  11   24.40    4.70
   2  -3 -11    9.50    6.50
   2  -3 -11   14.60    9.00
   2  -3 -11   20.50    9.90
  -2   3  11    4.20    5.60
  -2   3  11   24.50    8.30
  -2   3  11   -9.90    9.50
   1  -3 -11    2.70    5.70
   1  -3 -11    0.10    9.00
   1  -3 -11    9.50    9.40
  -1   3  11   12.30    9.40
  -1   3  11    0.80    6.40
  -1   3  11    3.60    9.30
   0  -3 -11    6.80    9.30
   0  -3 -11   19.10    9.50
   0  -3 -11   -5.30    5.00
   0   3  11   -2.20    8.60
   0   3  11   -1.20    7.00
  -1  -3 -11    5.80    8.50
  -1  -3 -11   10.50    9.10
   1   3  11   -4.10    8.60
   1   3  11   10.60    8.20
  -2  -3 -11   23.90    9.60
  -2  -3 -11   22.50    8.80
   2   3  11    9.30    3.90
   2   3  11   -1.40    9.30
   2   3  11    1.30    9.60
  -3  -3 -11   42.00    9.00
   3   3  11   45.60   10.80
   3   3  11   24.60    9.80
   3   3  11   44.80    5.30
   3   3  11   43.30    5.20
  -4  -3 -11   36.80   10.90
   4   3  11   53.29   10.70
   4   3  11   46.40    5.60
   4   3  11   19.30    9.80
   4   3  11   36.70    4.80
  -5  -3 -11   13.90   10.30
   5   3  11    6.30    5.00
   5   3  11   -4.90    9.90
   5   3  11   -2.00    3.90
   5   3  11   14.10    9.80
  -6  -3 -11   19.50   10.60
   6   3  11   -2.00    9.30
   6   3  11  -12.10   10.70
   6   3  11    0.50    4.30
   6   3  11    6.60    5.40
   4  -4 -11    8.70    7.70
   4  -4 -11   12.50   10.40
  -4   4  11   -7.90   10.80
  -4   4  11   13.30    9.90
   3  -4 -11    6.80    9.80
   3  -4 -11    1.00    9.50
   3  -4 -11    5.60    7.80
  -3   4  11   12.40    9.10
  -3   4  11  -10.20    9.90
   2  -4 -11   58.19   10.90
   2  -4 -11   53.79    7.60
   2  -4 -11   66.79   12.00
  -2   4  11   59.29    6.10
  -2   4  11   42.70    9.20
  -2   4  11   46.70   11.40
   1  -4 -11   59.59   11.40
   1  -4 -11   48.70    6.40
   1  -4 -11   57.09   10.80
  -1   4  11   62.09   12.40
  -1   4  11   40.30   10.70
  -1   4  11   38.10    6.30
   0  -4 -11   13.20    9.80
   0  -4 -11    4.70    4.40
   0  -4 -11   16.10    9.50
   0   4  11   13.10   10.90
   0   4  11    3.20    6.40
   0   4  11    8.50    8.70
  -1  -4 -11    2.50    8.60
  -1  -4 -11    1.40    9.40
   1   4  11   17.80    8.90
   1   4  11   -5.50    7.00
   1   4  11    7.70   10.40
  -2  -4 -11   21.30    9.70
  -2  -4 -11   12.00    9.20
   2   4  11   17.00    4.90
   2   4  11   11.90    8.70
   2   4  11   37.30   10.70
  -3  -4 -11   56.19   11.10
   3   4  11   46.20   10.90
   3   4  11   29.70    9.70
   3   4  11   43.80   10.70
   3   4  11   48.70    6.10
  -4  -4 -11    3.20    7.40
   4   4  11    4.00    4.90
   4   4  11    1.40    9.20
  -5  -4 -11    2.80   10.10
   5   4  11   44.50   11.10
   5   4  11   26.20    6.90
   5   4  11   21.70    9.50
  -6  -4 -11   16.50   10.90
   6   4  11   11.10   10.90
   6   4  11    7.10    5.70
   6   4  11   -1.60    6.30
  -7  -4 -11  -19.40   11.70
   7   4  11   -6.10    5.80
   7   4  11    0.90    4.20
   7   4  11  -13.90   11.50
   4  -5 -11   53.69    8.90
   4  -5 -11   39.70   11.20
   4  -5 -11   34.30   10.20
  -4   5  11   28.60   11.00
  -4   5  11   31.50   12.10
   3  -5 -11  -12.50    9.10
   3  -5 -11    9.50   10.20
   3  -5 -11   -4.70    6.40
  -3   5  11   -0.30    9.40
  -3   5  11    5.70   11.40
   2  -5 -11   -6.20    5.10
   2  -5 -11   -8.30    9.10
   2  -5 -11    1.00    9.70
  -2   5  11   19.00   11.40
  -2   5  11   -0.10    9.30
   1  -5 -11   27.30    5.10
   1  -5 -11   14.30    7.60
   1  -5 -11   35.40   10.70
  -1   5  11   27.20    4.00
  -1   5  11   12.80   11.40
  -1   5  11   28.30    9.90
   0  -5 -11   30.80   10.60
   0  -5 -11   22.80    9.80
   0  -5 -11   19.60    4.00
   0   5  11   17.20    5.60
   0   5  11   23.40    7.50
   0   5  11   33.80   11.90
  -1  -5 -11   22.80    9.50
  -1  -5 -11   20.20   10.20
   1   5  11    5.20    9.80
   1   5  11   18.00    6.90
   1   5  11   14.80    9.30
  -2  -5 -11   42.10   10.20
  -2  -5 -11   33.30   10.40
   2   5  11   41.80    9.20
   2   5  11   44.60    6.20
   2   5  11   45.00   10.40
   2   5  11   52.29   10.20
  -3  -5 -11    7.80    9.40
   3   5  11    8.20    9.30
   3   5  11   26.00    6.60
   3   5  11   -2.40    8.30
   3   5  11   24.10    9.10
  -4  -5 -11    1.20    8.60
   4   5  11   -6.50    9.40
   4   5  11    8.70    5.80
   4   5  11    2.30    9.90
  -5  -5 -11   -1.40    9.70
   5   5  11    2.80    9.60
   5   5  11   -4.40    5.40
   5   5  11   13.50    9.80
   5   5  11   -1.90    6.50
  -6  -5 -11    3.90   10.60
   6   5  11   16.60    5.00
   6   5  11   16.50   11.20
   6   5  11   15.50    6.10
  -7  -5 -11   11.20   11.80
   7   5  11   -4.40   11.50
   7   5  11   35.60    6.80
   3  -6 -11   20.90    6.60
   3  -6 -11   23.50    9.40
   3  -6 -11   13.30   10.30
  -3   6  11   18.90    9.80
  -3   6  11   23.60   12.60
   2  -6 -11   26.90    5.90
   2  -6 -11   18.60    9.80
   2  -6 -11   28.90   10.60
  -2   6  11   25.50   12.30
  -2   6  11   20.00    8.50
   1  -6 -11   -2.50    9.10
   1  -6 -11    1.10    4.10
   1  -6 -11   -0.30    9.60
  -1   6  11   -4.20    8.40
  -1   6  11   25.20   12.00
   0  -6 -11   18.00    3.10
   0  -6 -11   10.90    8.80
   0  -6 -11    2.30    9.50
   0   6  11   -4.70    9.00
   0   6  11   12.50   11.80
   0   6  11   15.30    4.20
  -1  -6 -11    1.80    9.20
  -1  -6 -11    5.50    9.20
   1   6  11    1.70   12.30
   1   6  11   -1.90    5.10
   1   6  11   10.20    5.90
   1   6  11   -1.30    7.90
  -2  -6 -11   27.00    8.20
  -2  -6 -11   31.70   10.00
   2   6  11   28.30    6.30
   2   6  11   37.10    9.90
   2   6  11   35.20   11.00
   2   6  11   30.90    7.90
  -3  -6 -11    2.70    9.30
   3   6  11   35.00    6.40
   3   6  11   39.10    9.30
   3   6  11   25.80    9.60
  -4  -6 -11    8.80    8.80
   4   6  11   14.10    9.20
   4   6  11    5.10    9.40
   4   6  11   -2.90    5.30
  -5  -6 -11   -5.80    9.70
   5   6  11    4.40    4.70
   5   6  11   -2.40    5.30
  -6  -6 -11    9.90   10.70
   6   6  11   11.10    6.30
   6   6  11    9.00    3.10
   6   6  11    2.60   11.20
  -7  -6 -11    7.90   12.00
   7   6  11   12.90    6.30
   7   6  11    4.30   12.00
   3  -7 -11   12.30    6.70
   3  -7 -11   21.30   10.70
   3  -7 -11    6.10   10.20
  -3   7  11    7.70   12.30
  -3   7  11   24.10    9.70
   2  -7 -11    7.10    5.10
   2  -7 -11   26.80   10.60
   2  -7 -11   20.90    9.80
  -2   7  11   -0.70   11.40
  -2   7  11    3.40    9.30
   1  -7 -11   88.29   12.00
   1  -7 -11  102.09   11.80
   1  -7 -11   98.59    8.60
  -1   7  11  131.89   16.50
  -1   7  11   74.69   11.50
   0  -7 -11   38.40    8.60
   0  -7 -11   33.10   10.20
   0   7  11   54.79   13.80
   0   7  11   38.10   10.30
  -1  -7 -11    9.60    8.50
  -1  -7 -11   21.10    9.90
   1   7  11   36.20   11.70
   1   7  11   15.10    5.10
   1   7  11   19.90    6.00
   1   7  11    2.10    8.90
  -2  -7 -11   11.50    9.10
  -2  -7 -11    7.00    9.50
   2   7  11   30.90    9.70
   2   7  11   -1.90    9.00
   2   7  11    7.00    6.10
   2   7  11    9.90    6.00
  -3  -7 -11   19.40    9.40
   3   7  11   18.20    6.20
   3   7  11   16.60    7.60
   3   7  11   18.70    8.30
  -4  -7 -11   15.00    9.40
   4   7  11   10.40    6.10
   4   7  11   12.70    9.20
  -5  -7 -11   33.70   11.30
   5   7  11   31.20    5.10
   5   7  11   34.10    7.20
  -6  -7 -11   11.80   11.40
  -6  -7 -11   -2.10   10.80
   6   7  11   14.70    6.30
   6   7  11    2.20   10.80
  -7  -7 -11   23.00   13.50
  -7  -7 -11   38.10   13.00
   7   7  11   21.10    6.90
   7   7  11    9.70   11.90
   2  -8 -11   -4.40   10.00
   2  -8 -11    3.40    5.10
   2  -8 -11    1.70   10.30
  -2   8  11  -11.80    8.90
  -2   8  11   -1.00   11.70
   1  -8 -11   51.49   11.90
   1  -8 -11   42.60   10.70
   1  -8 -11   35.30    4.70
  -1   8  11   48.20   13.10
  -1   8  11   12.20    9.90
   0  -8 -11    7.30    9.80
   0  -8 -11    8.90    8.90
   0   8  11   11.60    9.30
   0   8  11    7.70   11.20
  -1  -8 -11   -1.10    7.30
  -1  -8 -11   -0.40    9.20
   1   8  11    8.50    9.50
   1   8  11    7.40    5.90
   1   8  11   20.00    9.60
  -2  -8 -11   72.59   11.70
  -2  -8 -11   49.00   11.10
   2   8  11   66.99    8.30
   2   8  11   56.79    7.70
   2   8  11   77.19   10.70
  -3  -8 -11   17.90   10.20
   3   8  11   17.90    7.50
   3   8  11    4.90    6.00
   3   8  11    8.10    7.00
  -4  -8 -11   24.40   10.30
  -4  -8 -11   -5.10   14.00
   4   8  11  -12.50    7.90
   4   8  11    2.80    5.80
  -5  -8 -11    9.50   11.70
  -5  -8 -11   21.60   11.00
   5   8  11    9.40    6.50
   5   8  11    5.30   10.30
  -6  -8 -11   18.10   11.00
  -6  -8 -11    5.10   14.10
   6   8  11    6.60    6.60
   6   8  11  -14.40   10.90
   1  -9 -11   44.60   11.30
   1  -9 -11   24.20    4.20
   1  -9 -11   24.40    4.50
   1  -9 -11   14.90   11.20
  -1   9  11   -7.30   12.00
   0  -9 -11   -6.10    9.60
   0  -9 -11   -1.00    8.90
   0   9  11   11.90   10.60
  -1  -9 -11    3.30    9.20
  -1  -9 -11   38.40   10.20
   1   9  11   31.40   10.40
   1   9  11    6.10    6.80
  -2  -9 -11   30.40   11.10
  -2  -9 -11   35.50   10.60
   2   9  11   29.10   10.10
   2   9  11   23.70    7.30
  -3  -9 -11   25.20    8.70
  -3  -9 -11   27.70   11.10
  -3  -9 -11   28.20   10.40
   3   9  11   22.30    7.10
   3   9  11   26.20    7.60
  -4  -9 -11   14.00   11.00
  -4  -9 -11    5.60   11.50
   4   9  11    8.50    6.70
   4   9  11   -5.50    8.40
  -5  -9 -11    9.00   12.60
  -5  -9 -11   22.00   11.10
   5   9  11   10.60    6.70
   5   9  11   35.40    9.70
  -2 -10 -11   32.00   12.00
  -2 -10 -11   19.10   10.80
   2  10  11   17.80    7.20
  -3 -10 -11   15.80    9.90
   0  -2 -12    5.10    9.50
   0  -2 -12    0.10   11.10
   0   2  12   14.30    8.90
  -1  -2 -12    7.80   11.10
  -1  -2 -12   12.40   10.40
   1   2  12   16.30    6.80
   1   2  12   20.50   11.60
  -2  -2 -12    3.20    9.40
  -2  -2 -12   23.60   10.50
   2   2  12   13.90   11.60
   2   2  12   21.20   10.30
  -3  -2 -12    7.60   10.60
  -3  -2 -12   -6.70    9.50
   3   2  12   14.40   10.90
   3   2  12  -14.40   11.00
   1  -3 -12   17.20    9.20
   1  -3 -12    1.60    6.40
   1  -3 -12   15.50   11.10
  -1   3  12  -12.20   10.50
  -1   3  12    2.20   11.50
  -1   3  12   -7.20    7.10
   0  -3 -12    6.50    9.10
   0  -3 -12    6.00    6.00
   0  -3 -12   -2.40   10.70
   0   3  12   -7.70   10.70
   0   3  12    9.40    8.30
  -1  -3 -12  -15.50    9.90
  -1  -3 -12    7.70    9.80
   1   3  12    4.50    7.80
   1   3  12    6.00    9.10
  -2  -3 -12   41.20   10.10
  -2  -3 -12   49.50   11.40
   2   3  12   19.20   10.30
  -3  -3 -12    8.30    9.10
  -3  -3 -12  -14.90    9.50
   3   3  12   18.70   10.70
   3   3  12   11.50   10.00
   3   3  12    1.40    3.90
   3   3  12   -0.10    4.60
  -4  -3 -12   10.70   10.60
   4   3  12   25.50   11.30
   4   3  12   20.50    4.70
   4   3  12   15.10    4.70
   4   3  12   28.30   10.90
   2  -4 -12   17.70   11.60
   2  -4 -12   20.80    7.80
   1  -4 -12   17.80   10.10
   1  -4 -12    4.70   10.80
   1  -4 -12   18.50    6.20
  -1   4  12   16.00    5.90
  -1   4  12    0.50   11.60
  -1   4  12    2.80   10.10
   0  -4 -12    1.50    4.80
   0  -4 -12  -13.10    7.90
   0  -4 -12   12.20    9.70
   0   4  12   -1.40    7.00
   0   4  12    2.30    9.80
   0   4  12   -3.70   11.70
  -1  -4 -12   -7.10    9.20
  -1  -4 -12   -9.00    9.90
   1   4  12    9.00   12.30
   1   4  12   -2.60    7.90
   1   4  12  -16.60    9.40
  -2  -4 -12   -8.50    9.90
  -2  -4 -12    0.80    9.40
   2   4  12    5.60   10.20
   2   4  12    6.70    8.90
   2   4  12    2.50   10.90
  -3  -4 -12   -7.10    8.90
   3   4  12   -3.20   10.00
   3   4  12   18.50   10.80
   3   4  12   12.40    4.70
  -4  -4 -12   13.50   10.50
   4   4  12   -1.50    5.00
   4   4  12   23.90   11.00
   4   4  12   19.70   10.70
   4   4  12    6.50   10.00
  -5  -4 -12   31.10   11.50
   5   4  12   -2.60   11.20
   5   4  12    3.30   11.00
   5   4  12   12.60    5.30
   5   4  12   -2.70    8.40
   2  -5 -12   19.20    6.10
   2  -5 -12   31.50   10.10
   2  -5 -12   22.10   11.50
  -2   5  12   25.90   11.20
  -2   5  12    9.80   12.30
   1  -5 -12   -0.10   10.70
   1  -5 -12    4.00   10.20
   1  -5 -12    8.40    4.90
  -1   5  12   -2.60    9.60
  -1   5  12    6.20    3.70
   0  -5 -12    2.60    3.90
   0  -5 -12   17.80   10.30
   0  -5 -12    6.90   10.90
   0   5  12    6.60    9.60
   0   5  12   -8.60   11.50
   0   5  12   -2.30    5.40
  -1  -5 -12   82.49   11.00
  -1  -5 -12   69.79   12.10
   1   5  12   67.79   13.80
   1   5  12   63.59    9.30
   1   5  12   51.39   11.70
  -2  -5 -12   -6.50    9.70
  -2  -5 -12    2.40   10.00
   2   5  12    0.60   10.20
   2   5  12   12.10   10.80
   2   5  12    3.20    8.80
  -3  -5 -12   -5.30    8.90
   3   5  12  -12.60    8.80
   3   5  12   10.20    5.30
   3   5  12   -5.60    8.80
  -4  -5 -12   19.60   10.50
   4   5  12    3.50    5.40
   4   5  12   13.50    8.80
   4   5  12   20.00    8.70
   4   5  12   -9.20   10.50
  -5  -5 -12   17.00    8.60
   5   5  12  -10.50    9.80
   5   5  12    2.40    4.90
   5   5  12    9.60   11.50
   1  -6 -12   17.50   10.50
   1  -6 -12   10.00   11.10
   1  -6 -12   19.50    4.50
  -1   6  12   15.00   13.40
  -1   6  12   22.60   10.30
   0  -6 -12  -18.30   10.10
   0  -6 -12    6.70    9.00
   0   6  12   -8.10   10.10
   0   6  12   18.10   12.70
   0   6  12    1.60    4.20
  -1  -6 -12   -4.20    7.40
  -1  -6 -12   -0.80    9.70
   1   6  12  -11.20   11.10
   1   6  12    8.90    5.90
   1   6  12   11.10    9.40
  -2  -6 -12   36.40   10.80
  -2  -6 -12   23.40   10.70
   2   6  12   21.90   11.00
   2   6  12   20.60    6.00
   2   6  12   38.40    8.40
   2   6  12   33.10   10.90
  -3  -6 -12   -4.00    7.10
   3   6  12   -2.60    8.50
   3   6  12    8.40    9.90
   3   6  12   -2.60    5.50
   3   6  12    1.10    9.00
  -4  -6 -12   20.40   11.00
   4   6  12   39.70    9.30
   4   6  12   34.40    6.60
   4   6  12   44.40    9.30
  -5  -6 -12   35.30   11.20
   5   6  12   39.30    7.00
   1  -7 -12   14.40    9.80
   1  -7 -12    3.60   10.70
   1  -7 -12    8.10    3.60
  -1   7  12    8.00   12.60
  -1   7  12   -1.10    9.90
   0  -7 -12   39.20    9.50
   0  -7 -12   29.00   11.10
   0   7  12   26.70   14.10
   0   7  12   33.70   10.30
  -1  -7 -12    0.50   10.10
  -1  -7 -12   -2.70    9.30
   1   7  12    0.40    9.70
   1   7  12    6.30    4.90
   1   7  12   -5.50   11.70
  -2  -7 -12   11.30    9.40
  -2  -7 -12   10.90   10.50
   2   7  12    2.30   10.00
   2   7  12   15.00    6.70
   2   7  12   20.20    6.00
   2   7  12   -2.30   10.80
  -3  -7 -12   14.10    9.90
  -3  -7 -12   29.70   10.70
   3   7  12   20.50    6.40
   3   7  12   22.90    9.10
   3   7  12    6.40   10.30
  -4  -7 -12    1.10   10.10
   4   7  12    2.20    5.60
  -5  -7 -12   10.20   11.00
   5   7  12   -3.50    5.60
   5   7  12    1.80    5.40
   5   7  12    1.10    9.90
   0  -8 -12    3.00   10.30
   0  -8 -12    5.60   11.00
   0   8  12   -4.60   10.30
   0   8  12   -2.80   11.50
  -1  -8 -12   71.89   12.40
  -1  -8 -12   70.79   11.80
   1   8  12   54.89   11.60
   1   8  12   74.99   13.10
  -2  -8 -12   32.70   11.10
  -2  -8 -12   21.90   10.60
   2   8  12    5.20    6.10
   2   8  12   19.20   10.10
   2   8  12    5.30    6.10
  -3  -8 -12   11.90    7.80
  -3  -8 -12   16.50   10.40
   3   8  12   24.90    8.50
   3   8  12    9.80    6.40
   3   8  12    7.70   11.70
  -4  -8 -12   14.40   11.10
   4   8  12    6.70    6.20
   0   0   0    0.00    0.00

_computing_structure_solution     'SHELXT 2018/2 (Sheldrick, 2018)'
;
_shelx_hkl_checksum              66842
_olex2_submission_special_instructions 'No special instructions were received'
loop_
_space_group_symop_operation_xyz
'x, y, z'
'-x, -y, -z'
loop_
_atom_site_label
_atom_site_type_symbol
_atom_site_fract_x
_atom_site_fract_y
_atom_site_fract_z
_atom_site_U_iso_or_equiv
_atom_site_adp_type
_atom_site_occupancy
_atom_site_site_symmetry_order
_atom_site_calc_flag
_atom_site_refinement_flags_posn
_atom_site_refinement_flags_adp
_atom_site_refinement_flags_occupancy
_atom_site_disorder_assembly
_atom_site_disorder_group
Br01 Br -0.07915(4) 0.17470(4) 0.56130(4) 0.04598(14) Uani 1 1 d . . . . .
N002 N 0.4273(3) 0.7815(3) 0.3094(3) 0.0405(7) Uani 1 1 d . . . . .
C003 C 0.6971(3) 0.5954(4) 0.1315(3) 0.0286(7) Uani 1 1 d . . . . .
C004 C 0.3390(3) 0.4272(3) 0.3540(3) 0.0282(6) Uani 1 1 d . . . . .
C005 C 0.4657(3) 0.5194(3) 0.2844(3) 0.0295(7) Uani 1 1 d . . . . .
C006 C 0.6241(3) 0.3231(4) 0.2160(3) 0.0286(7) Uani 1 1 d . . . . .
C007 C 0.2616(3) 0.4321(4) 0.4804(4) 0.0329(7) Uani 1 1 d . . . . .
H007 H 0.293341 0.489425 0.524080 0.039 Uiso 1 1 calc R . . . .
C008 C 0.5884(3) 0.4809(4) 0.2140(3) 0.0289(6) Uani 1 1 d . . . . .
C009 C 0.2890(3) 0.3436(4) 0.2912(3) 0.0309(7) Uani 1 1 d . . . . .
H009 H 0.340577 0.338387 0.205250 0.037 Uiso 1 1 calc R . . . .
C00A C 0.6594(4) 0.7503(4) 0.0295(3) 0.0331(7) Uani 1 1 d . . . . .
H00A H 0.561418 0.785762 0.013507 0.040 Uiso 1 1 calc R . . . .
C00B C 0.4481(3) 0.6681(4) 0.2949(4) 0.0327(7) Uani 1 1 d . . . . .
C00C C 0.6740(3) 0.3132(4) 0.0832(3) 0.0317(7) Uani 1 1 d . . . . .
H00C H 0.684291 0.407037 -0.006441 0.038 Uiso 1 1 calc R . . . .
C00D C 0.1391(3) 0.3547(4) 0.5437(4) 0.0340(7) Uani 1 1 d . . . . .
H00D H 0.088479 0.356826 0.631237 0.041 Uiso 1 1 calc R . . . .
C00E C 0.0916(3) 0.2748(4) 0.4780(4) 0.0330(7) Uani 1 1 d . . . . .
C00F C 0.1658(3) 0.2683(4) 0.3519(3) 0.0326(7) Uani 1 1 d . . . . .
H00F H 0.132287 0.212616 0.307616 0.039 Uiso 1 1 calc R . . . .
C00G C 0.6141(3) 0.1842(4) 0.3463(4) 0.0334(7) Uani 1 1 d . . . . .
H00G H 0.583297 0.188817 0.437883 0.040 Uiso 1 1 calc R . . . .
C00H C 0.6488(4) 0.0395(4) 0.3436(4) 0.0377(8) Uani 1 1 d . . . . .
H00H H 0.641016 -0.054719 0.433328 0.045 Uiso 1 1 calc R . . . .
C00I C 0.7088(4) 0.1672(4) 0.0813(4) 0.0351(7) Uani 1 1 d . . . . .
H00I H 0.742182 0.161392 -0.009394 0.042 Uiso 1 1 calc R . . . .
C00J C 0.6946(3) 0.0304(4) 0.2115(4) 0.0358(7) Uani 1 1 d . . . . .
H00J H 0.716266 -0.069601 0.210287 0.043 Uiso 1 1 calc R . . . .
C00K C 0.7628(4) 0.8529(4) -0.0488(4) 0.0362(8) Uani 1 1 d . . . . .
H00K H 0.735583 0.958061 -0.117910 0.043 Uiso 1 1 calc R . . . .
C00L C 0.8423(3) 0.5451(4) 0.1511(4) 0.0342(7) Uani 1 1 d . . . . .
H00L H 0.870472 0.439179 0.217775 0.041 Uiso 1 1 calc R . . . .
C00M C 0.9449(4) 0.6490(4) 0.0738(4) 0.0394(8) Uani 1 1 d . . . . .
H00M H 1.042991 0.614618 0.089638 0.047 Uiso 1 1 calc R . . . .
C00N C 0.9057(4) 0.8029(4) -0.0266(4) 0.0402(8) Uani 1 1 d . . . . .
H00N H 0.976738 0.873572 -0.079855 0.048 Uiso 1 1 calc R . . . .
loop_
_atom_site_aniso_label
_atom_site_aniso_U_11
_atom_site_aniso_U_22
_atom_site_aniso_U_33
_atom_site_aniso_U_23
_atom_site_aniso_U_13
_atom_site_aniso_U_12
Br01 0.0360(2) 0.0442(2) 0.0545(2) -0.01984(17) 0.00782(16) -0.01296(15)
N002 0.0370(16) 0.0392(16) 0.0493(18) -0.0247(14) 0.0056(14) -0.0080(13)
C003 0.0283(16) 0.0332(16) 0.0279(16) -0.0163(14) -0.0015(13) -0.0051(13)
C004 0.0253(15) 0.0279(15) 0.0278(16) -0.0096(13) -0.0039(12) 0.0003(12)
C005 0.0312(16) 0.0288(16) 0.0288(16) -0.0123(13) -0.0027(13) -0.0053(13)
C006 0.0220(15) 0.0311(16) 0.0328(16) -0.0135(14) -0.0029(13) -0.0041(12)
C007 0.0332(17) 0.0316(16) 0.0344(17) -0.0158(14) -0.0026(14) -0.0010(13)
C008 0.0270(16) 0.0306(16) 0.0265(15) -0.0100(13) -0.0041(12) -0.0029(12)
C009 0.0317(17) 0.0308(16) 0.0292(16) -0.0129(14) 0.0003(13) -0.0045(13)
C00A 0.0348(18) 0.0341(17) 0.0335(17) -0.0181(15) 0.0002(14) -0.0048(14)
C00B 0.0248(16) 0.0392(18) 0.0333(17) -0.0159(15) 0.0030(13) -0.0068(13)
C00C 0.0302(16) 0.0329(16) 0.0296(16) -0.0117(14) -0.0016(13) -0.0044(13)
C00D 0.0321(17) 0.0350(17) 0.0331(17) -0.0151(15) 0.0036(14) -0.0038(13)
C00E 0.0262(16) 0.0309(16) 0.0360(17) -0.0101(14) 0.0001(14) -0.0047(13)
C00F 0.0356(18) 0.0308(16) 0.0321(17) -0.0135(14) -0.0050(14) -0.0046(13)
C00G 0.0325(17) 0.0349(17) 0.0300(16) -0.0128(14) 0.0001(14) -0.0038(13)
C00H 0.0368(19) 0.0301(16) 0.0375(18) -0.0082(15) -0.0002(15) -0.0039(14)
C00I 0.0365(18) 0.0378(18) 0.0351(18) -0.0207(15) 0.0009(14) -0.0049(14)
C00J 0.0318(17) 0.0302(17) 0.046(2) -0.0175(15) -0.0057(15) 0.0003(13)
C00K 0.042(2) 0.0327(17) 0.0343(18) -0.0158(15) 0.0029(15) -0.0088(14)
C00L 0.0317(17) 0.0364(17) 0.0326(17) -0.0141(15) -0.0026(14) -0.0022(14)
C00M 0.0292(18) 0.050(2) 0.044(2) -0.0255(18) 0.0008(15) -0.0073(15)
C00N 0.039(2) 0.043(2) 0.042(2) -0.0226(17) 0.0100(16) -0.0173(16)
loop_
_atom_type_symbol
_atom_type_description
_atom_type_scat_dispersion_real
_atom_type_scat_dispersion_imag
_atom_type_scat_source
C C 0.0033 0.0016 'International Tables Vol C Tables 4.2.6.8 and 6.1.1.4'
H H 0.0000 0.0000 'International Tables Vol C Tables 4.2.6.8 and 6.1.1.4'
Br Br -0.2901 2.4595 'International Tables Vol C Tables 4.2.6.8 and 6.1.1.4'
N N 0.0061 0.0033 'International Tables Vol C Tables 4.2.6.8 and 6.1.1.4'
loop_
_geom_angle_atom_site_label_1
_geom_angle_atom_site_label_2
_geom_angle_atom_site_label_3
_geom_angle
_geom_angle_site_symmetry_1
_geom_angle_site_symmetry_3
_geom_angle_publ_flag
C00A C003 C008 122.0(3) . . ?
C00A C003 C00L 118.5(3) . . ?
C00L C003 C008 119.4(3) . . ?
C007 C004 C005 119.5(3) . . ?
C007 C004 C009 118.2(3) . . ?
C009 C004 C005 122.1(3) . . ?
C008 C005 C004 127.9(3) . . ?
C008 C005 C00B 119.1(3) . . ?
C00B C005 C004 113.0(3) . . ?
C00C C006 C008 119.1(3) . . ?
C00G C006 C008 122.2(3) . . ?
C00G C006 C00C 118.6(3) . . ?
C00D C007 C004 121.2(3) . . ?
C005 C008 C003 121.5(3) . . ?
C005 C008 C006 122.6(3) . . ?
C006 C008 C003 115.9(2) . . ?
C00F C009 C004 121.1(3) . . ?
C00K C00A C003 120.8(3) . . ?
N002 C00B C005 175.8(3) . . ?
C00I C00C C006 120.6(3) . . ?
C00E C00D C007 119.2(3) . . ?
C00D C00E Br01 119.1(2) . . ?
C00D C00E C00F 121.0(3) . . ?
C00F C00E Br01 119.9(2) . . ?
C009 C00F C00E 119.3(3) . . ?
C00H C00G C006 120.5(3) . . ?
C00G C00H C00J 120.6(3) . . ?
C00J C00I C00C 119.9(3) . . ?
C00I C00J C00H 119.8(3) . . ?
C00N C00K C00A 120.2(3) . . ?
C00M C00L C003 120.3(3) . . ?
C00L C00M C00N 120.6(3) . . ?
C00K C00N C00M 119.6(3) . . ?
loop_
_geom_bond_atom_site_label_1
_geom_bond_atom_site_label_2
_geom_bond_distance
_geom_bond_site_symmetry_2
_geom_bond_publ_flag
Br01 C00E 1.895(3) . ?
N002 C00B 1.141(4) . ?
C003 C008 1.491(4) . ?
C003 C00A 1.396(4) . ?
C003 C00L 1.400(4) . ?
C004 C005 1.493(4) . ?
C004 C007 1.393(4) . ?
C004 C009 1.397(4) . ?
C005 C008 1.359(4) . ?
C005 C00B 1.454(4) . ?
C006 C008 1.483(4) . ?
C006 C00C 1.399(4) . ?
C006 C00G 1.389(4) . ?
C007 C00D 1.387(4) . ?
C009 C00F 1.381(4) . ?
C00A C00K 1.384(4) . ?
C00C C00I 1.389(4) . ?
C00D C00E 1.378(5) . ?
C00E C00F 1.386(4) . ?
C00G C00H 1.381(4) . ?
C00H C00J 1.381(5) . ?
C00I C00J 1.381(5) . ?
C00K C00N 1.383(5) . ?
C00L C00M 1.383(4) . ?
C00M C00N 1.387(5) . ?
