#------------------------------------------------------------------------------
#$Date: 2023-11-30 15:23:27 +0200 (Thu, 30 Nov 2023) $
#$Revision: 287886 $
#$URL: file:///home/coder/svn-repositories/cod/cif/1/56/30/1563061.cif $
#------------------------------------------------------------------------------
#
# This file is available in the Crystallography Open Database (COD),
# http://www.crystallography.net/
#
# All data on this site have been placed in the public domain by the
# contributors.
#
data_1563061
loop_
_publ_author_name
'Magott, Michal'
'Gawe\/l, Bart\/lomiej A.'
'Sarewicz, Marcin'
'Reczy\'nski, Mateusz'
'Ogorza\/ly, Karolina'
'Makowski, Wac\/law'
'Pinkowicz, Dawid'
_publ_section_title
;
 Large breathing effect induced by water sorption in a remarkably stable
 nonporous cyanide-bridged coordination polymer
;
_journal_name_full               'Chemical Science'
_journal_paper_doi               10.1039/D1SC02060A
_journal_year                    2021
_chemical_formula_sum            'C14 H8 Mn2 Mo N12 O3'
_chemical_formula_weight         598.14
_space_group_IT_number           2
_space_group_name_Hall           '-P 1'
_space_group_name_H-M_alt        'P -1'
_symmetry_cell_setting           triclinic
_symmetry_Int_Tables_number      2
_symmetry_space_group_name_Hall  '-P 1'
_symmetry_space_group_name_H-M   'P -1'
_audit_update_record
;
2021-04-07 deposited with the CCDC.	2021-06-01 downloaded from the CCDC.
;
_cell_angle_alpha                74.301(4)
_cell_angle_beta                 67.315(3)
_cell_angle_gamma                75.015(4)
_cell_formula_units_Z            2
_cell_length_a                   10.4152(6)
_cell_length_b                   10.4382(6)
_cell_length_c                   12.0481(8)
_cell_measurement_temperature    293
_cell_volume                     1145.74(12)
_diffrn_ambient_temperature      293
_diffrn_measurement_device_type  'Bruker D8Advance'
_diffrn_radiation_probe          x-ray
_diffrn_radiation_type           CuKa
_diffrn_radiation_wavelength     1.5418
_exptl_absorpt_coefficient_mu    13.625
_exptl_crystal_density_diffrn    1.734
_exptl_crystal_description       block
_exptl_crystal_F_000             584.0
_pd_char_colour                  orange
_pd_instr_location               ' ?'
_pd_meas_2theta_range_inc        0.01
_pd_meas_2theta_range_max        50.000
_pd_meas_2theta_range_min        3.000
_pd_meas_number_of_points        6602
_pd_proc_2theta_range_inc        0.01
_pd_proc_2theta_range_max        34.993
_pd_proc_2theta_range_min        7.009
_pd_proc_ls_background_function  '9 Legendre polynoms'
_pd_proc_ls_pref_orient_corr     none
_pd_proc_ls_profile_function     Pseudo-Voigt
_pd_proc_ls_prof_R_factor        0.0309
_pd_proc_ls_prof_wR_expected     0.0744
_pd_proc_ls_prof_wR_factor       0.0421
_refine_ls_goodness_of_fit_all   0.57
_refine_ls_hydrogen_treatment    mixed
_refine_ls_number_constraints    0
_refine_ls_number_parameters     43
_refine_ls_R_factor_all          0.0937
_refine_ls_R_factor_gt           0.0769
_refine_ls_shift/su_max          0.0179041
_refine_ls_shift/su_mean         0.0122384
_refine_ls_weighting_scheme      sigma
_refine_ls_wR_factor_all         0.0837
_refine_ls_wR_factor_gt          0.0686
_cod_data_source_file            d1sc02060a2.cif
_cod_data_source_block           (I)_CCDC1
_cod_depositor_comments
;
The following automatic conversions were performed:

data item '_diffrn_radiation_probe' value 'X-ray' was changed to
'x-ray' in accordance with the
/home/data/users/saulius/crontab/automatic-downloads/rss-feeds/RSC/lib/dictionaries/cif_core.dic
dictionary named 'cif_core.dic' version 2.4.2 last updated on
2011-04-26.

Automatic conversion script
Id: cif_fix_values 7556 2019-12-06 15:28:31Z antanas 
;
_cod_database_code               1563061
loop_
_space_group_symop_id
_space_group_symop_operation_xyz
1 x,y,z
2 -x,-y,-z
loop_
_atom_site_label
_atom_site_type_symbol
_atom_site_fract_x
_atom_site_fract_y
_atom_site_fract_z
_atom_site_adp_type
_atom_site_U_iso_or_equiv
_atom_site_site_symmetry_multiplicity
_atom_site_occupancy
_atom_site_calc_flag
_atom_site_refinement_flags
_atom_site_disorder_assembly
_atom_site_disorder_group
C1 C -0.4007(11) 0.6271(13) 0.8068(13) Uiso 0.08(2) 2 1 d . . .
N2 N -0.4913(15) 0.5733(19) 0.8244(19) Uiso 0.08(2) 2 1 d . . .
Mo1 Mo -0.2313(6) 0.7324(6) 0.7752(5) Uiso 0.050(10) 2 1 d . . .
N3 N -0.341(2) 0.957(2) 0.5644(17) Uiso 0.08(2) 2 1 d . . .
C3 C -0.3106(17) 0.8843(13) 0.6423(12) Uiso 0.08(2) 2 1 d . . .
C2 C -0.0219(9) 0.7085(15) 0.7843(14) Uiso 0.08(2) 2 1 d . . .
N1 N 0.0916(11) 0.686(2) 0.781(2) Uiso 0.08(2) 2 1 d . . .
C4 C -0.2300(18) 0.5572(14) 0.9231(12) Uiso 0.08(2) 2 1 d . . .
N4 N -0.237(3) 0.477(2) 1.0087(18) Uiso 0.08(2) 2 1 d . . .
N5 N -0.069(2) 0.4414(15) 0.685(2) Uiso 0.08(2) 2 1 d . . .
C5 C -0.1268(16) 0.5394(10) 0.7205(15) Uiso 0.08(2) 2 1 d . . .
N6 N -0.474(2) 0.797(3) 1.0382(18) Uiso 0.08(2) 2 1 d . . .
C6 C -0.3927(16) 0.7770(18) 0.9461(13) Uiso 0.08(2) 2 1 d . . .
C7 C -0.0782(17) 0.7579(18) 0.5909(12) Uiso 0.08(2) 2 1 d . . .
N7 N -0.005(2) 0.774(3) 0.4910(18) Uiso 0.08(2) 2 1 d . . .
N8 N -0.149(2) 1.0226(10) 0.7608(19) Uiso 0.08(2) 2 1 d . . .
C8 C -0.1860(15) 0.9281(8) 0.7644(13) Uiso 0.08(2) 2 1 d . . .
N21 N -0.649(3) 0.4424(17) 0.688(2) Uiso 0.1 2 1 d . . .
N22 N -0.687(5) 0.342(2) 0.565(3) Uiso 0.08(2) 2 1 d . . .
H21 H -0.726(6) 0.326(3) 0.519(4) Uiso 0.1 2 1 d . . .
C23 C -0.554(4) 0.325(3) 0.674(3) Uiso 0.08(2) 2 1 d . . .
H22 H -0.493(4) 0.306(3) 0.717(4) Uiso 0.1 2 1 d . . .
C24 C -0.719(4) 0.4484(19) 0.619(2) Uiso 0.08(2) 2 1 d . . .
H23 H -0.786(4) 0.522(2) 0.604(2) Uiso 0.1 2 1 d . . .
C25 C -0.579(6) 0.264(3) 0.604(4) Uiso 0.08(2) 2 1 d . . .
H24 H -0.533(7) 0.180(4) 0.584(5) Uiso 0.1 2 1 d . . .
Mn2 Mn -0.6889(10) 0.6027(11) 0.7872(8) Uiso 0.080(10) 2 1 d . . .
O21 O -0.705(3) 0.7707(15) 0.8721(19) Uiso 0.056(9) 2 1 d . . .
O22 O -0.652(4) 0.7565(19) 0.619(2) Uiso 0.022(5) 2 1 d . . .
Mn1 Mn -0.0963(10) 0.2225(9) 0.7079(9) Uiso 0.060(15) 2 1 d . . .
O11 O -0.318(11) 0.290(12) 0.759(8) Uiso 0.023(4) 2 1 d . . .
N11 N 0.027(2) 0.140(3) 0.8086(18) Uiso 0.06(2) 2 1 d . . .
N12 N 0.136(4) 0.099(5) 0.944(3) Uiso 0.06(2) 2 1 d . . .
H11 H 0.152(4) 0.098(6) 1.009(3) Uiso 0.1 2 1 d . . .
C13 C 0.161(3) 0.071(4) 0.764(3) Uiso 0.06(2) 2 1 d . . .
H12 H 0.199(4) 0.043(5) 0.689(4) Uiso 0.1 2 1 d . . .
C14 C 0.017(3) 0.151(4) 0.9165(19) Uiso 0.1 2 1 d . . .
H13 H -0.065(3) 0.190(4) 0.9717(17) Uiso 0.1 2 1 d . . .
C15 C 0.228(4) 0.048(6) 0.842(4) Uiso 0.06(2) 2 1 d . . .
H14 H 0.321(5) 0.005(7) 0.832(5) Uiso 0.1 2 1 d . . .
loop_
_atom_type_symbol
_atom_type_scat_dispersion_real
_atom_type_scat_dispersion_imag
_atom_type_scat_source
C 0.0181 0.0091 'International Tables Vol C tables 4.2.6.8 and 6.1.1.1'
H 0.0000 0.0000 'International Tables Vol C tables 4.2.6.8 and 6.1.1.1'
Mn -0.5299 2.8052 'International Tables Vol C tables 4.2.6.8 and 6.1.1.1'
N 0.0311 0.0180 'International Tables Vol C tables 4.2.6.8 and 6.1.1.1'
W -5.4734 5.5774 'International Tables Vol C tables 4.2.6.8 and 6.1.1.1'
loop_
_exptl_crystal_face_index_h
_exptl_crystal_face_index_k
_exptl_crystal_face_index_l
_exptl_crystal_face_perp_dist
? ? ? ?
loop_
_geom_angle_atom_site_label_1
_geom_angle_atom_site_label_2
_geom_angle_atom_site_label_3
_geom_angle_site_symmetry_1
_geom_angle_site_symmetry_2
_geom_angle_site_symmetry_3
_geom_angle
_geom_angle_publ_flag
N2 C1 Mo1 . . . 178.9(13) ?
C1 N2 Mn2 . . . 141.9(15) ?
C1 Mo1 C3 . . . 87.3(6) ?
C1 Mo1 C2 . . . 144.6(6) ?
C1 Mo1 C4 . . . 70.7(7) ?
C1 Mo1 C5 . . . 74.6(6) ?
C1 Mo1 C6 . . . 74.1(7) ?
C1 Mo1 C7 . . . 116.3(8) ?
C1 Mo1 C8 . . . 143.3(5) ?
C3 Mo1 C2 . . . 124.1(6) ?
C3 Mo1 C4 . . . 157.6(8) ?
C3 Mo1 C5 . . . 115.5(7) ?
C3 Mo1 C6 . . . 100.9(6) ?
C3 Mo1 C7 . . . 66.1(6) ?
C3 Mo1 C8 . . . 69.9(7) ?
C2 Mo1 C4 . . . 78.1(7) ?
C2 Mo1 C5 . . . 76.8(7) ?
C2 Mo1 C6 . . . 110.4(7) ?
C2 Mo1 C7 . . . 70.5(7) ?
C2 Mo1 C8 . . . 70.1(6) ?
C4 Mo1 C5 . . . 63.6(6) ?
C4 Mo1 C6 . . . 69.6(6) ?
C4 Mo1 C7 . . . 127.2(6) ?
C4 Mo1 C8 . . . 126.3(8) ?
C5 Mo1 C6 . . . 130.0(6) ?
C5 Mo1 C7 . . . 68.4(6) ?
C5 Mo1 C8 . . . 140.8(6) ?
C6 Mo1 C7 . . . 161.6(7) ?
C6 Mo1 C8 . . . 82.2(7) ?
C7 Mo1 C8 . . . 81.0(7) ?
Mo1 C3 N3 . . . 173.0(13) ?
Mo1 C2 N1 . . . 172.5(19) ?
Mo1 C4 N4 . . . 171.9(16) ?
Mo1 C5 N5 . . . 176.2(14) ?
Mo1 C6 N6 . . . 177.3(17) ?
Mo1 C7 N7 . . . 175.4(18) ?
C7 N7 Mn1 . . 2_566 164(3) ?
C8 N8 Mn1 . . 1_565 164(2) ?
Mo1 C8 N8 . . . 172.5(15) ?
C23 N21 C24 . . . 103(3) ?
C23 N21 Mn2 . . . 135(3) ?
C24 N21 Mn2 . . . 121.7(16) ?
H21 N22 C24 . . . 129(5) ?
H21 N22 C25 . . . 129(4) ?
C24 N22 C25 . . . 101(4) ?
N21 C23 H22 . . . 115(4) ?
N21 C23 C25 . . . 109(4) ?
H22 C23 C25 . . . 136(4) ?
N21 C24 N22 . . . 116(3) ?
N21 C24 H23 . . . 123(3) ?
N22 C24 H23 . . . 121(5) ?
N22 C25 C23 . . . 110(3) ?
N22 C25 H24 . . . 124(8) ?
C23 C25 H24 . . . 126(8) ?
N2 Mn2 N21 . . . 102.9(11) ?
N2 Mn2 O21 . . . 72.8(10) ?
N2 Mn2 O22 . . . 101.6(13) ?
N21 Mn2 O21 . . . 173.2(10) ?
N21 Mn2 O22 . . . 92.4(9) ?
O21 Mn2 O22 . . . 83.5(9) ?
N7 Mn1 N8 2_566 . 1_545 97.6(11) ?
N7 Mn1 O11 2_566 . . 112(3) ?
N7 Mn1 N11 2_566 . . 116.2(9) ?
N8 Mn1 O11 1_545 . . 85(3) ?
N8 Mn1 N11 1_545 . . 83.0(12) ?
O11 Mn1 N11 . . . 131(3) ?
Mn1 N11 C13 . . . 123(2) ?
Mn1 N11 C14 . . . 132(2) ?
C13 N11 C14 . . . 104(3) ?
H11 N12 C14 . . . 129(4) ?
H11 N12 C15 . . . 128(5) ?
C14 N12 C15 . . . 103(4) ?
N11 C13 H12 . . . 124(5) ?
N11 C13 C15 . . . 111(3) ?
H12 C13 C15 . . . 125(4) ?
N11 C14 N12 . . . 114(3) ?
N11 C14 H13 . . . 124(4) ?
N12 C14 H13 . . . 122(4) ?
N12 C15 C13 . . . 108(4) ?
N12 C15 H14 . . . 125(7) ?
C13 C15 H14 . . . 127(6) ?
loop_
_geom_bond_atom_site_label_1
_geom_bond_atom_site_label_2
_geom_bond_site_symmetry_1
_geom_bond_site_symmetry_2
_geom_bond_distance
_geom_bond_publ_flag
C1 N2 . . 1.14(2) ?
C1 Mo1 . . 2.174(16) ?
N2 Mn2 . . 2.20(2) ?
Mo1 C3 . . 2.175(15) ?
Mo1 C2 . . 2.172(14) ?
Mo1 C4 . . 2.182(14) ?
Mo1 C5 . . 2.170(13) ?
Mo1 C6 . . 2.174(14) ?
Mo1 C7 . . 2.171(13) ?
Mo1 C8 . . 2.172(13) ?
N3 C3 . . 1.13(2) ?
C2 N1 . . 1.131(17) ?
C4 N4 . . 1.13(2) ?
N5 C5 . . 1.15(2) ?
N6 C6 . . 1.14(2) ?
C7 N7 . . 1.14(2) ?
N7 Mn1 . 2_566 2.21(2) ?
N8 C8 . . 1.13(2) ?
N8 Mn1 . 1_565 2.160(16) ?
N21 C23 . . 1.37(4) ?
N21 C24 . . 1.28(5) ?
N21 Mn2 . . 2.18(3) ?
N22 H21 . . 0.87(8) ?
N22 C24 . . 1.34(4) ?
N22 C25 . . 1.37(7) ?
C23 H22 . . 0.92(7) ?
C23 C25 . . 1.32(7) ?
C24 H23 . . 0.92(4) ?
C25 H24 . . 0.93(5) ?
Mn2 O21 . . 2.20(3) ?
Mn2 O22 . . 2.19(2) ?
Mn1 O11 . . 2.12(10) ?
Mn1 N11 . . 1.98(3) ?
N11 C13 . . 1.37(3) ?
N11 C14 . . 1.30(4) ?
N12 H11 . . 0.86(6) ?
N12 C14 . . 1.35(5) ?
N12 C15 . . 1.38(6) ?
C13 H12 . . 0.93(6) ?
C13 C15 . . 1.31(7) ?
C14 H13 . . 0.93(4) ?
C15 H14 . . 0.93(6) ?
loop_
_pd_proc_point_id
_pd_proc_2theta_corrected
_pd_proc_intensity_net
_pd_calc_intensity_net
_pd_proc_ls_weight
1 7.0113 189.80 186.24 13.78
2 7.0214 185.34 186.15 13.61
3 7.0316 185.66 186.06 13.63
4 7.0417 183.64 185.98 13.55
5 7.0519 187.67 185.89 13.70
6 7.0620 182.70 185.81 13.52
7 7.0722 186.06 185.72 13.64
8 7.0823 186.77 185.64 13.67
9 7.0925 185.30 185.55 13.61
10 7.1026 189.92 185.47 13.78
11 7.1128 189.88 185.39 13.78
12 7.1229 187.89 185.31 13.71
13 7.1331 185.45 185.22 13.62
14 7.1432 185.53 185.14 13.62
15 7.1534 185.86 185.06 13.63
16 7.1635 184.95 184.98 13.60
17 7.1737 184.98 184.90 13.60
18 7.1838 188.03 184.82 13.71
19 7.1940 185.70 184.74 13.63
20 7.2041 187.28 184.66 13.69
21 7.2143 185.97 184.58 13.64
22 7.2244 185.67 184.50 13.63
23 7.2346 184.06 184.42 13.57
24 7.2447 182.86 184.34 13.52
25 7.2549 185.27 184.27 13.61
26 7.2650 185.17 184.19 13.61
27 7.2752 183.95 184.11 13.56
28 7.2853 184.30 184.03 13.58
29 7.2955 187.30 183.96 13.69
30 7.3056 187.52 183.88 13.69
31 7.3158 186.02 183.80 13.64
32 7.3259 185.48 183.73 13.62
33 7.3361 185.12 183.65 13.61
34 7.3462 184.31 183.58 13.58
35 7.3564 182.70 183.50 13.52
36 7.3665 184.31 183.43 13.58
37 7.3767 183.00 183.36 13.53
38 7.3868 184.84 183.28 13.60
39 7.3970 183.33 183.21 13.54
40 7.4071 181.78 183.13 13.48
41 7.4173 182.66 183.06 13.52
42 7.4274 186.95 182.99 13.67
43 7.4376 184.59 182.92 13.59
44 7.4477 183.23 182.85 13.54
45 7.4579 183.70 182.77 13.55
46 7.4680 183.78 182.70 13.56
47 7.4782 186.02 182.63 13.64
48 7.4883 183.27 182.56 13.54
49 7.4985 186.84 182.49 13.67
50 7.5086 186.56 182.42 13.66
51 7.5188 181.83 182.35 13.48
52 7.5289 182.89 182.28 13.52
53 7.5391 182.53 182.21 13.51
54 7.5492 182.69 182.14 13.52
55 7.5594 180.23 182.07 13.43
56 7.5695 187.89 182.01 13.71
57 7.5797 183.11 181.94 13.53
58 7.5898 185.23 181.87 13.61
59 7.6000 184.69 181.80 13.59
60 7.6101 185.22 181.74 13.61
61 7.6203 182.48 181.67 13.51
62 7.6304 183.89 181.60 13.56
63 7.6406 181.45 181.54 13.47
64 7.6507 182.70 181.47 13.52
65 7.6609 182.73 181.42 13.52
66 7.6710 182.36 181.36 13.50
67 7.6812 181.86 181.30 13.49
68 7.6913 179.50 181.24 13.40
69 7.7015 182.67 181.18 13.52
70 7.7116 181.53 181.13 13.47
71 7.7218 185.88 181.09 13.63
72 7.7319 180.41 181.06 13.43
73 7.7421 182.50 181.05 13.51
74 7.7522 183.03 181.06 13.53
75 7.7624 183.06 181.09 13.53
76 7.7725 181.23 181.13 13.46
77 7.7827 185.77 181.18 13.63
78 7.7928 178.80 181.25 13.37
79 7.8030 180.55 181.33 13.44
80 7.8131 182.31 181.41 13.50
81 7.8233 180.28 181.51 13.43
82 7.8334 183.52 181.61 13.55
83 7.8436 183.42 181.73 13.54
84 7.8537 179.94 181.85 13.41
85 7.8639 181.02 181.99 13.45
86 7.8740 182.48 182.15 13.51
87 7.8842 183.05 182.31 13.53
88 7.8943 181.23 182.50 13.46
89 7.9045 182.53 182.71 13.51
90 7.9146 182.58 182.94 13.51
91 7.9248 180.45 183.20 13.43
92 7.9349 183.77 183.48 13.56
93 7.9451 181.36 183.81 13.47
94 7.9552 183.39 184.17 13.54
95 7.9654 183.53 184.59 13.55
96 7.9755 183.72 185.08 13.55
97 7.9857 180.58 185.64 13.44
98 7.9959 183.78 186.31 13.56
99 8.0060 181.58 187.13 13.48
100 8.0162 181.66 188.16 13.48
101 8.0263 182.52 189.50 13.51
102 8.0365 182.53 191.28 13.51
103 8.0466 184.30 193.60 13.58
104 8.0568 184.19 196.36 13.57
105 8.0669 184.56 199.10 13.59
106 8.0771 182.97 200.96 13.53
107 8.0872 183.59 201.01 13.55
108 8.0974 182.53 198.79 13.51
109 8.1075 183.75 194.78 13.56
110 8.1177 178.94 190.07 13.38
111 8.1278 180.95 185.78 13.45
112 8.1379 181.56 182.57 13.47
113 8.1481 180.64 180.55 13.44
114 8.1583 181.34 179.46 13.47
115 8.1684 177.62 178.92 13.33
116 8.1786 177.94 178.66 13.34
117 8.1887 180.47 178.52 13.43
118 8.1989 178.83 178.42 13.37
119 8.2090 181.66 178.34 13.48
120 8.2192 179.72 178.26 13.41
121 8.2293 178.95 178.19 13.38
122 8.2395 180.38 178.12 13.43
123 8.2496 178.28 178.06 13.35
124 8.2598 179.25 178.00 13.39
125 8.2699 179.33 177.93 13.39
126 8.2801 179.34 177.88 13.39
127 8.2902 178.66 177.82 13.37
128 8.3004 176.83 177.76 13.30
129 8.3105 181.48 177.70 13.47
130 8.3207 177.19 177.65 13.31
131 8.3308 176.83 177.59 13.30
132 8.3410 179.30 177.53 13.39
133 8.3511 179.53 177.48 13.40
134 8.3613 180.48 177.43 13.43
135 8.3714 181.08 177.37 13.46
136 8.3816 178.58 177.32 13.36
137 8.3917 177.81 177.27 13.33
138 8.4019 179.42 177.21 13.39
139 8.4120 177.72 177.16 13.33
140 8.4222 179.00 177.11 13.38
141 8.4323 177.72 177.06 13.33
142 8.4425 179.23 177.01 13.39
143 8.4526 180.73 176.95 13.44
144 8.4628 177.98 176.90 13.34
145 8.4729 178.27 176.85 13.35
146 8.4831 178.59 176.90 13.36
147 8.4932 177.47 176.86 13.32
148 8.5034 179.41 176.86 13.39
149 8.5135 176.20 176.82 13.27
150 8.5237 180.36 176.79 13.43
151 8.5338 175.53 176.74 13.25
152 8.5440 177.62 176.71 13.33
153 8.5541 179.83 176.69 13.41
154 8.5643 178.56 176.68 13.36
155 8.5744 177.55 176.71 13.32
156 8.5846 180.20 176.78 13.42
157 8.5947 180.36 176.93 13.43
158 8.6049 179.62 177.18 13.40
159 8.6150 178.69 177.55 13.37
160 8.6252 179.66 178.03 13.40
161 8.6353 181.62 178.62 13.48
162 8.6455 182.56 179.29 13.51
163 8.6556 181.80 180.05 13.48
164 8.6658 179.23 180.88 13.39
165 8.6759 184.78 181.76 13.59
166 8.6861 184.05 182.72 13.57
167 8.6962 183.30 183.74 13.54
168 8.7064 187.33 184.84 13.69
169 8.7165 186.84 186.02 13.67
170 8.7267 185.00 187.30 13.60
171 8.7368 187.11 188.69 13.68
172 8.7470 188.58 190.20 13.73
173 8.7571 187.59 191.86 13.70
174 8.7673 187.52 193.68 13.69
175 8.7774 188.83 195.70 13.74
176 8.7876 188.06 197.96 13.71
177 8.7977 193.19 200.49 13.90
178 8.8079 198.48 203.38 14.09
179 8.8180 197.53 206.72 14.05
180 8.8282 200.09 210.64 14.15
181 8.8383 203.83 215.38 14.28
182 8.8485 210.20 221.32 14.50
183 8.8586 218.73 229.00 14.79
184 8.8688 224.95 239.09 15.00
185 8.8789 237.52 251.91 15.41
186 8.8891 248.58 266.73 15.77
187 8.8992 258.00 280.70 16.06
188 8.9094 258.27 289.45 16.07
189 8.9195 259.80 288.44 16.12
190 8.9297 246.16 276.24 15.69
191 8.9398 233.80 255.79 15.29
192 8.9500 218.20 232.45 14.77
193 8.9601 200.70 211.38 14.17
194 8.9703 194.64 195.66 13.95
195 8.9804 186.47 185.72 13.66
196 8.9906 181.31 180.30 13.47
197 9.0007 179.28 177.72 13.39
198 9.0109 177.67 176.63 13.33
199 9.0210 179.28 176.23 13.39
200 9.0312 177.72 176.15 13.33
201 9.0413 177.97 176.24 13.34
202 9.0515 176.12 176.45 13.27
203 9.0616 182.64 176.75 13.51
204 9.0718 180.05 177.13 13.42
205 9.0819 177.95 177.57 13.34
206 9.0921 179.62 178.08 13.40
207 9.1022 178.69 178.63 13.37
208 9.1124 182.44 179.24 13.51
209 9.1225 178.75 179.91 13.37
210 9.1327 181.33 180.65 13.47
211 9.1428 181.64 181.45 13.48
212 9.1530 182.33 182.33 13.50
213 9.1631 183.78 183.30 13.56
214 9.1733 185.92 184.37 13.64
215 9.1834 186.41 185.56 13.65
216 9.1936 188.25 186.90 13.72
217 9.2037 190.41 188.40 13.80
218 9.2139 195.34 190.11 13.98
219 9.2240 192.86 192.09 13.89
220 9.2342 197.94 194.42 14.07
221 9.2443 205.52 197.23 14.34
222 9.2545 207.19 200.72 14.39
223 9.2646 213.97 205.22 14.63
224 9.2748 222.56 211.12 14.92
225 9.2849 228.61 218.64 15.12
226 9.2951 233.33 227.43 15.28
227 9.3052 243.03 236.01 15.59
228 9.3154 243.47 241.87 15.60
229 9.3255 243.20 242.29 15.60
230 9.3357 240.41 236.06 15.51
231 9.3458 227.11 224.57 15.07
232 9.3560 211.28 210.78 14.54
233 9.3661 202.56 197.77 14.23
234 9.3763 195.12 187.55 13.97
235 9.3864 185.03 180.82 13.60
236 9.3966 176.41 176.93 13.28
237 9.4067 175.45 174.97 13.25
238 9.4169 177.16 174.05 13.31
239 9.4270 175.28 173.62 13.24
240 9.4372 176.20 173.38 13.27
241 9.4473 173.20 173.22 13.16
242 9.4575 174.61 173.09 13.21
243 9.4676 169.86 172.98 13.03
244 9.4778 173.98 172.89 13.19
245 9.4879 172.77 172.80 13.14
246 9.4981 170.23 172.72 13.05
247 9.5082 170.78 172.65 13.07
248 9.5184 172.75 172.58 13.14
249 9.5285 171.33 172.52 13.09
250 9.5387 173.92 172.46 13.19
251 9.5488 173.84 172.40 13.19
252 9.5590 173.48 172.35 13.17
253 9.5691 172.67 172.29 13.14
254 9.5793 174.25 172.24 13.20
255 9.5894 172.86 172.19 13.15
256 9.5996 172.75 172.14 13.14
257 9.6097 169.34 172.10 13.01
258 9.6199 170.38 172.18 13.05
259 9.6300 169.84 172.14 13.03
260 9.6402 171.09 172.16 13.08
261 9.6503 172.70 172.13 13.14
262 9.6605 173.44 172.10 13.17
263 9.6706 171.86 172.07 13.11
264 9.6808 174.50 172.04 13.21
265 9.6909 172.83 172.02 13.15
266 9.7011 175.88 172.00 13.26
267 9.7112 172.08 171.99 13.12
268 9.7214 172.69 171.98 13.14
269 9.7315 175.28 171.97 13.24
270 9.7417 175.05 171.99 13.23
271 9.7518 175.42 172.05 13.24
272 9.7620 174.78 172.16 13.22
273 9.7721 174.98 172.38 13.23
274 9.7823 175.11 172.70 13.23
275 9.7924 174.70 173.21 13.22
276 9.8026 175.91 173.89 13.26
277 9.8127 172.78 174.76 13.14
278 9.8229 173.69 175.78 13.18
279 9.8330 177.80 176.95 13.33
280 9.8432 180.88 178.25 13.45
281 9.8533 180.50 179.66 13.44
282 9.8635 183.23 181.20 13.54
283 9.8736 183.06 182.87 13.53
284 9.8838 184.05 184.68 13.57
285 9.8939 187.50 186.66 13.69
286 9.9041 191.55 188.83 13.84
287 9.9142 194.47 191.21 13.95
288 9.9244 196.36 193.86 14.01
289 9.9345 196.77 196.82 14.03
290 9.9447 203.31 200.17 14.26
291 9.9548 209.19 203.99 14.46
292 9.9650 213.80 208.41 14.62
293 9.9751 223.52 213.66 14.95
294 9.9853 233.27 220.07 15.27
295 9.9954 243.95 228.15 15.62
296 10.0056 261.00 238.63 16.16
297 10.0157 278.16 252.16 16.68
298 10.0259 293.45 268.68 17.13
299 10.0360 319.16 286.46 17.86
300 10.0462 328.78 301.58 18.13
301 10.0563 337.16 308.75 18.36
302 10.0665 328.39 303.81 18.12
303 10.0766 304.95 286.88 17.46
304 10.0868 273.56 262.34 16.54
305 10.0969 240.17 235.83 15.50
306 10.1071 217.36 212.39 14.74
307 10.1172 201.47 194.89 14.19
308 10.1274 185.78 183.63 13.63
309 10.1375 179.61 177.29 13.40
310 10.1477 177.30 174.10 13.32
311 10.1578 177.52 172.60 13.32
312 10.1680 173.88 171.87 13.19
313 10.1781 172.75 171.46 13.14
314 10.1883 173.12 171.18 13.16
315 10.1984 174.61 170.96 13.21
316 10.2086 171.17 170.78 13.08
317 10.2187 171.59 170.63 13.10
318 10.2289 172.30 170.50 13.13
319 10.2390 170.73 170.38 13.07
320 10.2492 172.69 170.27 13.14
321 10.2593 170.38 170.18 13.05
322 10.2695 170.02 170.09 13.04
323 10.2796 171.67 170.01 13.10
324 10.2898 169.39 169.93 13.02
325 10.2999 170.48 169.87 13.06
326 10.3101 169.80 169.80 13.03
327 10.3202 165.92 169.74 12.88
328 10.3304 170.02 169.68 13.04
329 10.3405 169.77 169.62 13.03
330 10.3507 169.89 169.56 13.03
331 10.3608 167.53 169.51 12.94
332 10.3710 167.55 169.46 12.94
333 10.3811 171.62 169.56 13.10
334 10.3913 169.53 169.52 13.02
335 10.4014 171.34 169.48 13.09
336 10.4116 169.34 169.52 13.01
337 10.4217 171.17 169.49 13.08
338 10.4319 169.42 169.46 13.02
339 10.4420 171.80 169.43 13.11
340 10.4522 168.62 169.41 12.99
341 10.4623 168.84 169.39 12.99
342 10.4725 171.78 169.37 13.11
343 10.4826 168.45 169.35 12.98
344 10.4928 168.28 169.35 12.97
345 10.5029 171.00 169.34 13.08
346 10.5131 172.02 169.34 13.12
347 10.5232 171.58 169.29 13.10
348 10.5334 169.17 169.33 13.01
349 10.5435 166.81 169.41 12.92
350 10.5537 166.89 169.53 12.92
351 10.5638 169.42 169.81 13.02
352 10.5740 171.00 170.25 13.08
353 10.5841 171.47 170.90 13.09
354 10.5943 171.14 171.79 13.08
355 10.6044 171.59 172.91 13.10
356 10.6146 174.53 174.26 13.21
357 10.6247 175.83 175.82 13.26
358 10.6349 174.48 177.57 13.21
359 10.6450 175.31 179.50 13.24
360 10.6552 176.52 181.62 13.29
361 10.6653 178.78 183.93 13.37
362 10.6755 180.81 186.48 13.45
363 10.6856 181.94 189.28 13.49
364 10.6958 186.59 192.39 13.66
365 10.7059 192.00 195.85 13.86
366 10.7161 196.91 199.75 14.03
367 10.7262 197.66 204.20 14.06
368 10.7364 203.83 209.34 14.28
369 10.7465 212.08 215.41 14.56
370 10.7567 221.36 222.77 14.88
371 10.7668 233.64 232.00 15.29
372 10.7770 246.55 243.89 15.70
373 10.7871 267.09 259.20 16.34
374 10.7973 281.80 277.97 16.79
375 10.8074 305.36 298.56 17.47
376 10.8176 314.67 316.89 17.74
377 10.8277 327.98 327.20 18.11
378 10.8379 320.42 324.46 17.90
379 10.8480 305.44 307.95 17.48
380 10.8582 282.34 281.92 16.80
381 10.8683 254.50 252.31 15.95
382 10.8785 226.48 224.61 15.05
383 10.8886 203.94 202.65 14.28
384 10.8988 190.83 187.61 13.81
385 10.9089 179.64 178.59 13.40
386 10.9191 174.02 173.79 13.19
387 10.9292 168.62 171.46 12.99
388 10.9394 167.97 170.38 12.96
389 10.9495 169.06 169.85 13.00
390 10.9597 168.69 169.56 12.99
391 10.9698 169.62 169.37 13.02
392 10.9800 168.38 169.25 12.98
393 10.9901 169.28 169.19 13.01
394 11.0003 170.88 169.16 13.07
395 11.0104 165.53 169.17 12.87
396 11.0206 171.44 169.21 13.09
397 11.0307 167.17 169.30 12.93
398 11.0409 165.80 169.42 12.88
399 11.0510 167.14 169.58 12.93
400 11.0612 166.86 169.80 12.92
401 11.0713 166.84 170.09 12.92
402 11.0815 164.77 170.47 12.84
403 11.0916 166.30 171.00 12.90
404 11.1018 165.38 171.69 12.86
405 11.1119 166.11 172.55 12.89
406 11.1221 163.47 173.51 12.79
407 11.1322 168.98 174.34 13.00
408 11.1424 167.78 174.78 12.95
409 11.1525 163.84 174.59 12.80
410 11.1627 166.62 173.74 12.91
411 11.1728 164.53 172.43 12.83
412 11.1830 165.52 170.96 12.87
413 11.1931 166.41 169.57 12.90
414 11.2033 166.58 168.45 12.91
415 11.2134 163.03 167.65 12.77
416 11.2236 165.30 167.16 12.86
417 11.2337 165.00 166.87 12.85
418 11.2439 165.53 166.70 12.87
419 11.2540 162.77 166.60 12.76
420 11.2642 165.17 166.53 12.85
421 11.2743 167.00 166.47 12.92
422 11.2845 166.92 166.42 12.92
423 11.2946 165.03 166.37 12.85
424 11.3048 162.81 166.23 12.76
425 11.3149 167.97 166.19 12.96
426 11.3251 166.72 166.15 12.91
427 11.3352 164.94 166.06 12.84
428 11.3454 165.61 166.02 12.87
429 11.3555 166.20 165.99 12.89
430 11.3657 162.34 165.95 12.74
431 11.3758 165.56 165.92 12.87
432 11.3860 166.30 165.88 12.90
433 11.3961 163.97 165.85 12.81
434 11.4063 164.47 165.82 12.82
435 11.4164 165.19 165.78 12.85
436 11.4266 163.06 165.75 12.77
437 11.4367 166.33 165.72 12.90
438 11.4469 162.42 165.68 12.74
439 11.4570 165.59 165.65 12.87
440 11.4672 164.44 165.62 12.82
441 11.4773 164.23 165.59 12.82
442 11.4875 164.00 165.56 12.81
443 11.4976 165.39 165.53 12.86
444 11.5078 164.06 165.50 12.81
445 11.5179 161.98 165.47 12.73
446 11.5281 166.09 165.44 12.89
447 11.5382 168.39 165.42 12.98
448 11.5484 166.11 165.40 12.89
449 11.5585 167.28 165.38 12.93
450 11.5687 166.67 165.36 12.91
451 11.5788 166.66 165.34 12.91
452 11.5890 169.16 165.32 13.01
453 11.5991 168.16 165.30 12.97
454 11.6093 169.56 165.29 13.02
455 11.6194 168.52 165.27 12.98
456 11.6296 169.55 165.27 13.02
457 11.6397 170.42 165.26 13.05
458 11.6499 172.95 165.26 13.15
459 11.6600 178.61 165.27 13.36
460 11.6702 178.58 165.28 13.36
461 11.6803 179.84 165.31 13.41
462 11.6905 185.72 165.36 13.63
463 11.7006 192.38 165.42 13.87
464 11.7108 197.81 165.50 14.06
465 11.7209 199.44 165.57 14.12
466 11.7311 198.12 165.61 14.08
467 11.7412 197.11 165.59 14.04
468 11.7514 196.58 165.50 14.02
469 11.7615 190.95 165.35 13.82
470 11.7717 185.12 165.18 13.61
471 11.7818 179.31 165.00 13.39
472 11.7920 174.12 164.84 13.20
473 11.8021 169.56 164.71 13.02
474 11.8123 168.62 164.61 12.99
475 11.8224 165.12 164.54 12.85
476 11.8326 164.69 164.49 12.83
477 11.8427 163.75 164.45 12.80
478 11.8529 160.45 164.42 12.67
479 11.8630 165.58 164.38 12.87
480 11.8732 159.11 164.35 12.61
481 11.8833 163.30 164.32 12.78
482 11.8935 162.47 164.29 12.75
483 11.9036 162.95 164.25 12.77
484 11.9138 163.52 164.22 12.79
485 11.9239 164.70 164.19 12.83
486 11.9341 165.72 164.16 12.87
487 11.9442 163.11 164.13 12.77
488 11.9544 163.03 164.10 12.77
489 11.9645 163.02 164.07 12.77
490 11.9747 164.33 164.04 12.82
491 11.9848 161.66 164.00 12.71
492 11.9950 162.42 163.97 12.74
493 12.0051 162.25 163.94 12.74
494 12.0153 160.08 163.91 12.65
495 12.0254 161.36 163.88 12.70
496 12.0356 163.73 163.85 12.80
497 12.0457 159.78 163.82 12.64
498 12.0559 161.28 163.79 12.70
499 12.0660 161.75 163.76 12.72
500 12.0762 162.22 163.73 12.74
501 12.0863 163.38 163.70 12.78
502 12.0965 162.19 163.67 12.74
503 12.1066 163.73 163.64 12.80
504 12.1168 161.50 163.61 12.71
505 12.1269 161.16 163.58 12.69
506 12.1371 160.48 163.55 12.67
507 12.1472 162.95 163.51 12.77
508 12.1574 160.52 163.49 12.67
509 12.1675 160.47 163.46 12.67
510 12.1777 162.31 163.43 12.74
511 12.1878 161.98 163.40 12.73
512 12.1980 160.48 163.36 12.67
513 12.2081 159.20 163.33 12.62
514 12.2183 161.03 163.30 12.69
515 12.2284 162.91 163.27 12.76
516 12.2386 161.28 163.24 12.70
517 12.2487 163.25 163.21 12.78
518 12.2589 159.88 163.18 12.64
519 12.2690 159.22 163.15 12.62
520 12.2792 161.97 163.12 12.73
521 12.2893 160.33 163.09 12.66
522 12.2995 161.52 163.06 12.71
523 12.3096 159.12 163.03 12.61
524 12.3198 160.86 163.01 12.68
525 12.3299 164.20 162.98 12.81
526 12.3401 159.19 162.95 12.62
527 12.3502 159.45 162.92 12.63
528 12.3604 163.56 162.89 12.79
529 12.3705 159.59 162.86 12.63
530 12.3807 161.00 162.83 12.69
531 12.3908 161.97 162.80 12.73
532 12.4010 160.20 162.77 12.66
533 12.4111 160.52 162.74 12.67
534 12.4213 159.52 162.71 12.63
535 12.4314 159.89 162.68 12.64
536 12.4416 161.64 162.65 12.71
537 12.4517 163.19 162.62 12.77
538 12.4619 157.34 162.59 12.54
539 12.4720 159.53 162.56 12.63
540 12.4822 161.53 162.53 12.71
541 12.4923 162.62 162.50 12.75
542 12.5025 163.39 162.47 12.78
543 12.5126 162.16 162.45 12.73
544 12.5228 161.38 162.42 12.70
545 12.5329 159.73 162.39 12.64
546 12.5431 158.31 162.36 12.58
547 12.5532 162.42 162.33 12.74
548 12.5634 164.08 162.30 12.81
549 12.5735 160.66 162.27 12.68
550 12.5837 163.73 162.24 12.80
551 12.5938 161.95 162.21 12.73
552 12.6040 161.42 162.18 12.71
553 12.6141 163.72 162.15 12.80
554 12.6243 163.53 162.13 12.79
555 12.6344 162.41 162.10 12.74
556 12.6446 157.33 162.07 12.54
557 12.6547 163.06 162.04 12.77
558 12.6649 162.86 162.01 12.76
559 12.6750 159.83 161.98 12.64
560 12.6852 161.48 162.06 12.71
561 12.6953 159.80 162.04 12.64
562 12.7055 162.12 162.02 12.73
563 12.7156 160.73 162.05 12.68
564 12.7258 159.70 162.03 12.64
565 12.7359 161.42 162.01 12.71
566 12.7461 159.95 161.99 12.65
567 12.7562 158.66 161.98 12.60
568 12.7664 158.77 161.96 12.60
569 12.7765 160.59 161.95 12.67
570 12.7867 160.41 161.94 12.67
571 12.7968 158.77 161.93 12.60
572 12.8070 159.05 161.92 12.61
573 12.8171 164.55 161.91 12.83
574 12.8273 160.89 161.90 12.68
575 12.8374 162.20 161.90 12.74
576 12.8476 162.61 161.91 12.75
577 12.8577 160.31 161.91 12.66
578 12.8679 162.02 161.92 12.73
579 12.8780 161.97 161.94 12.73
580 12.8882 161.81 161.97 12.72
581 12.8983 159.27 162.02 12.62
582 12.9085 160.88 162.09 12.68
583 12.9186 159.48 162.22 12.63
584 12.9288 161.38 162.44 12.70
585 12.9389 166.55 162.79 12.91
586 12.9491 163.23 163.32 12.78
587 12.9592 163.72 164.06 12.80
588 12.9694 162.59 165.03 12.75
589 12.9795 165.36 166.25 12.86
590 12.9897 164.41 167.72 12.82
591 12.9998 166.69 169.44 12.91
592 13.0100 165.47 171.41 12.86
593 13.0201 168.06 173.65 12.96
594 13.0303 170.14 176.17 13.04
595 13.0404 171.77 179.03 13.11
596 13.0506 175.20 182.30 13.24
597 13.0607 182.66 186.10 13.52
598 13.0709 182.50 190.58 13.51
599 13.0810 190.14 196.04 13.79
600 13.0912 198.08 202.86 14.07
601 13.1013 206.70 211.53 14.38
602 13.1115 213.52 222.43 14.61
603 13.1216 231.25 235.36 15.21
604 13.1318 235.42 249.04 15.34
605 13.1419 241.17 260.87 15.53
606 13.1521 247.92 267.44 15.75
607 13.1622 242.80 266.00 15.58
608 13.1724 233.02 256.48 15.26
609 13.1825 225.05 241.54 15.00
610 13.1927 211.53 224.20 14.54
611 13.2028 198.14 206.89 14.08
612 13.2130 186.97 191.77 13.67
613 13.2231 174.59 180.17 13.21
614 13.2333 170.94 172.24 13.07
615 13.2434 166.16 167.39 12.89
616 13.2536 164.77 164.69 12.84
617 13.2637 160.39 163.28 12.66
618 13.2739 161.80 162.53 12.72
619 13.2840 158.59 162.09 12.59
620 13.2942 160.91 161.79 12.68
621 13.3043 157.45 161.56 12.55
622 13.3145 158.31 161.37 12.58
623 13.3246 159.59 161.22 12.63
624 13.3348 161.30 161.08 12.70
625 13.3449 159.42 160.96 12.63
626 13.3551 159.02 160.86 12.61
627 13.3652 160.00 160.77 12.65
628 13.3754 157.47 160.68 12.55
629 13.3855 158.88 160.60 12.60
630 13.3957 160.91 160.53 12.68
631 13.4058 159.50 160.47 12.63
632 13.4160 157.56 160.41 12.55
633 13.4261 160.33 160.35 12.66
634 13.4363 155.45 160.30 12.47
635 13.4464 160.73 160.25 12.68
636 13.4566 160.17 160.20 12.66
637 13.4667 158.16 160.15 12.58
638 13.4769 155.59 160.11 12.47
639 13.4870 154.72 160.07 12.44
640 13.4972 156.95 160.02 12.53
641 13.5073 158.38 159.99 12.58
642 13.5175 158.66 160.22 12.60
643 13.5276 160.41 160.20 12.67
644 13.5378 159.58 160.18 12.63
645 13.5479 156.75 160.29 12.52
646 13.5581 159.30 160.28 12.62
647 13.5682 157.89 160.27 12.57
648 13.5784 157.30 160.26 12.54
649 13.5885 159.25 160.26 12.62
650 13.5987 157.19 160.26 12.54
651 13.6088 156.41 160.26 12.51
652 13.6190 157.47 160.26 12.55
653 13.6291 157.92 160.27 12.57
654 13.6393 160.91 160.29 12.68
655 13.6494 152.89 160.23 12.36
656 13.6596 158.78 160.26 12.60
657 13.6697 159.22 160.29 12.62
658 13.6799 158.17 160.29 12.58
659 13.6900 161.56 160.35 12.71
660 13.7002 161.11 160.41 12.69
661 13.7103 156.33 160.48 12.50
662 13.7205 160.30 160.57 12.66
663 13.7306 159.59 160.68 12.63
664 13.7408 159.86 160.82 12.64
665 13.7509 162.00 161.01 12.73
666 13.7611 160.91 161.28 12.68
667 13.7712 160.00 161.69 12.65
668 13.7814 163.69 162.34 12.79
669 13.7915 159.53 163.34 12.63
670 13.8017 165.47 164.82 12.86
671 13.8118 166.81 166.93 12.92
672 13.8220 168.45 169.65 12.98
673 13.8321 170.11 173.06 13.04
674 13.8423 175.30 177.22 13.24
675 13.8524 180.86 182.09 13.45
676 13.8626 179.06 187.73 13.38
677 13.8727 186.38 194.20 13.65
678 13.8829 196.77 201.60 14.03
679 13.8930 203.86 210.13 14.28
680 13.9032 217.59 220.06 14.75
681 13.9133 230.14 231.88 15.17
682 13.9235 252.11 246.33 15.88
683 13.9336 272.55 264.43 16.51
684 13.9438 298.70 287.30 17.28
685 13.9539 325.77 315.52 18.05
686 13.9641 349.62 347.99 18.70
687 13.9742 379.28 380.88 19.48
688 13.9844 392.94 407.46 19.82
689 13.9945 397.45 419.80 19.94
690 14.0047 388.59 412.61 19.71
691 14.0148 360.95 387.57 19.00
692 14.0250 333.02 351.61 18.25
693 14.0351 298.02 311.14 17.26
694 14.0453 262.30 271.02 16.20
695 14.0554 231.89 235.74 15.23
696 14.0656 207.20 208.29 14.39
697 14.0757 191.86 189.25 13.85
698 14.0859 178.17 177.43 13.35
699 14.0960 170.16 170.86 13.04
700 14.1062 167.53 167.60 12.94
701 14.1163 167.98 166.19 12.96
702 14.1265 166.27 165.76 12.89
703 14.1366 165.88 165.88 12.88
704 14.1468 165.41 166.36 12.86
705 14.1569 167.06 167.13 12.93
706 14.1671 170.41 168.17 13.05
707 14.1772 174.31 169.48 13.20
708 14.1874 173.52 171.08 13.17
709 14.1975 174.89 173.02 13.22
710 14.2077 180.73 175.41 13.44
711 14.2178 187.64 178.39 13.70
712 14.2280 195.23 182.18 13.97
713 14.2381 202.88 187.01 14.24
714 14.2483 211.78 193.02 14.55
715 14.2584 223.86 200.00 14.96
716 14.2686 232.53 207.15 15.25
717 14.2787 246.16 213.03 15.69
718 14.2889 245.97 215.95 15.68
719 14.2990 244.28 214.68 15.63
720 14.3092 232.31 209.46 15.24
721 14.3193 217.89 201.78 14.76
722 14.3295 204.53 193.04 14.30
723 14.3396 194.17 184.25 13.93
724 14.3498 179.47 176.35 13.40
725 14.3599 174.28 170.04 13.20
726 14.3701 167.17 165.54 12.93
727 14.3802 159.98 162.63 12.65
728 14.3904 160.66 160.92 12.68
729 14.4005 157.84 159.97 12.56
730 14.4107 156.45 159.45 12.51
731 14.4208 157.58 159.13 12.55
732 14.4310 155.19 158.91 12.46
733 14.4411 156.47 158.75 12.51
734 14.4513 154.98 158.61 12.45
735 14.4614 156.03 158.49 12.49
736 14.4716 154.23 158.39 12.42
737 14.4817 155.73 158.30 12.48
738 14.4919 155.33 158.21 12.46
739 14.5020 154.52 157.94 12.43
740 14.5122 155.95 157.88 12.49
741 14.5223 157.20 157.82 12.54
742 14.5325 156.28 157.67 12.50
743 14.5426 156.30 157.62 12.50
744 14.5528 158.45 157.58 12.59
745 14.5629 155.30 157.54 12.46
746 14.5731 155.31 157.50 12.46
747 14.5832 157.05 157.47 12.53
748 14.5934 156.05 157.43 12.49
749 14.6035 156.77 157.40 12.52
750 14.6137 158.50 157.37 12.59
751 14.6238 156.53 157.34 12.51
752 14.6340 157.67 157.30 12.56
753 14.6441 156.00 157.27 12.49
754 14.6543 158.91 157.25 12.61
755 14.6644 157.50 157.22 12.55
756 14.6746 155.83 157.19 12.48
757 14.6847 154.73 157.16 12.44
758 14.6949 156.94 157.14 12.53
759 14.7050 154.89 157.11 12.45
760 14.7152 154.50 157.09 12.43
761 14.7253 153.69 157.06 12.40
762 14.7355 155.64 157.04 12.48
763 14.7456 156.23 157.01 12.50
764 14.7558 152.67 156.99 12.36
765 14.7659 156.30 156.96 12.50
766 14.7761 153.22 156.94 12.38
767 14.7862 154.12 156.92 12.41
768 14.7964 157.75 156.85 12.56
769 14.8065 157.80 156.83 12.56
770 14.8167 155.83 156.81 12.48
771 14.8268 153.64 156.79 12.40
772 14.8370 154.31 156.74 12.42
773 14.8471 154.42 156.72 12.43
774 14.8573 152.89 156.71 12.36
775 14.8674 155.81 156.68 12.48
776 14.8776 153.81 156.66 12.40
777 14.8877 155.28 156.65 12.46
778 14.8979 155.58 156.63 12.47
779 14.9080 156.31 156.61 12.50
780 14.9182 155.12 156.59 12.45
781 14.9283 153.25 156.57 12.38
782 14.9385 157.83 156.57 12.56
783 14.9486 157.95 156.55 12.57
784 14.9588 154.23 156.54 12.42
785 14.9689 154.11 156.52 12.41
786 14.9791 154.75 156.51 12.44
787 14.9892 152.70 156.49 12.36
788 14.9994 155.77 156.48 12.48
789 15.0095 155.55 156.46 12.47
790 15.0197 155.97 156.44 12.49
791 15.0298 154.16 156.43 12.42
792 15.0400 155.89 156.41 12.49
793 15.0501 154.09 156.40 12.41
794 15.0603 155.31 156.38 12.46
795 15.0704 152.50 156.39 12.35
796 15.0806 153.38 156.38 12.38
797 15.0907 154.00 156.36 12.41
798 15.1009 158.42 156.35 12.59
799 15.1110 153.00 156.35 12.37
800 15.1212 152.02 156.34 12.33
801 15.1313 152.94 156.33 12.37
802 15.1415 155.70 156.32 12.48
803 15.1516 155.52 156.31 12.47
804 15.1618 152.64 156.31 12.35
805 15.1719 153.47 156.30 12.39
806 15.1821 156.02 156.30 12.49
807 15.1922 153.59 156.30 12.39
808 15.2024 152.22 156.31 12.34
809 15.2125 157.52 156.32 12.55
810 15.2227 155.38 156.39 12.47
811 15.2328 153.59 156.43 12.39
812 15.2430 156.91 156.51 12.53
813 15.2531 156.20 156.63 12.50
814 15.2633 153.64 156.82 12.40
815 15.2734 158.77 157.06 12.60
816 15.2836 157.97 157.37 12.57
817 15.2937 156.53 157.76 12.51
818 15.3039 158.19 158.23 12.58
819 15.3140 157.98 158.80 12.57
820 15.3242 160.92 159.46 12.69
821 15.3343 160.84 160.25 12.68
822 15.3445 163.16 161.19 12.77
823 15.3546 162.53 162.33 12.75
824 15.3648 168.03 163.74 12.96
825 15.3749 170.42 165.51 13.05
826 15.3851 177.30 167.74 13.32
827 15.3952 182.53 170.43 13.51
828 15.4054 186.58 173.42 13.66
829 15.4155 190.36 176.34 13.80
830 15.4257 195.19 178.61 13.97
831 15.4358 193.39 179.63 13.91
832 15.4460 190.09 179.17 13.79
833 15.4561 190.11 177.54 13.79
834 15.4663 186.95 175.34 13.67
835 15.4764 181.72 173.00 13.48
836 15.4866 178.56 170.84 13.36
837 15.4967 175.50 169.20 13.25
838 15.5069 172.12 168.40 13.12
839 15.5170 173.94 168.62 13.19
840 15.5272 174.47 169.86 13.21
841 15.5373 174.75 171.96 13.22
842 15.5475 181.72 174.56 13.48
843 15.5576 182.64 177.10 13.51
844 15.5678 180.14 178.93 13.42
845 15.5779 182.03 179.50 13.49
846 15.5881 177.45 178.72 13.32
847 15.5982 178.78 177.06 13.37
848 15.6084 173.58 175.05 13.17
849 15.6185 173.05 173.05 13.15
850 15.6287 172.00 171.36 13.11
851 15.6388 171.22 170.30 13.09
852 15.6490 169.88 170.16 13.03
853 15.6591 169.97 171.09 13.04
854 15.6693 170.83 173.16 13.07
855 15.6794 176.14 176.34 13.27
856 15.6896 181.20 180.44 13.46
857 15.6997 186.23 184.98 13.65
858 15.7099 189.59 189.85 13.77
859 15.7200 192.08 192.66 13.86
860 15.7302 193.97 193.15 13.93
861 15.7403 191.19 191.06 13.83
862 15.7505 186.05 187.42 13.64
863 15.7606 181.94 182.52 13.49
864 15.7708 179.61 177.29 13.40
865 15.7809 174.91 172.16 13.23
866 15.7911 171.39 167.60 13.09
867 15.8012 165.41 163.99 12.86
868 15.8114 163.11 161.40 12.77
869 15.8215 161.17 159.74 12.70
870 15.8317 161.41 158.78 12.70
871 15.8418 156.38 158.28 12.51
872 15.8520 161.12 158.04 12.69
873 15.8621 156.36 157.96 12.50
874 15.8723 158.70 157.94 12.60
875 15.8824 156.56 157.98 12.51
876 15.8926 158.09 158.05 12.57
877 15.9027 160.28 158.15 12.66
878 15.9129 157.77 158.28 12.56
879 15.9230 156.81 158.45 12.52
880 15.9332 157.91 158.65 12.57
881 15.9433 162.56 158.88 12.75
882 15.9535 158.39 159.14 12.59
883 15.9636 159.38 159.48 12.62
884 15.9738 161.84 159.88 12.72
885 15.9839 161.30 160.37 12.70
886 15.9941 163.64 160.99 12.79
887 16.0042 162.73 161.84 12.76
888 16.0144 165.45 163.06 12.86
889 16.0245 168.36 164.88 12.98
890 16.0347 172.52 167.61 13.13
891 16.0448 176.42 171.62 13.28
892 16.0550 177.61 177.31 13.33
893 16.0651 183.30 184.99 13.54
894 16.0753 192.94 194.93 13.89
895 16.0854 198.19 207.36 14.08
896 16.0956 214.50 222.47 14.65
897 16.1057 229.78 240.64 15.16
898 16.1159 249.52 262.30 15.80
899 16.1260 279.11 288.22 16.71
900 16.1362 310.22 319.60 17.61
901 16.1463 352.81 358.32 18.78
902 16.1565 416.59 406.67 20.41
903 16.1666 478.17 466.67 21.87
904 16.1768 558.30 538.27 23.63
905 16.1869 651.03 617.09 25.52
906 16.1971 722.47 692.85 26.88
907 16.2072 788.80 750.10 28.09
908 16.2174 808.20 772.63 28.43
909 16.2275 783.67 752.09 27.99
910 16.2377 716.53 695.78 26.77
911 16.2478 633.33 619.61 25.17
912 16.2580 538.91 535.44 23.21
913 16.2681 449.45 449.91 21.20
914 16.2783 371.53 369.85 19.28
915 16.2884 298.66 302.35 17.28
916 16.2986 247.19 251.05 15.72
917 16.3087 210.84 215.68 14.52
918 16.3189 187.69 193.44 13.70
919 16.3290 175.94 180.47 13.26
920 16.3392 168.97 173.21 13.00
921 16.3493 166.92 169.08 12.92
922 16.3595 162.78 166.52 12.76
923 16.3696 159.19 164.74 12.62
924 16.3798 160.41 163.39 12.67
925 16.3899 160.28 162.40 12.66
926 16.4001 159.16 161.50 12.62
927 16.4102 156.97 160.75 12.53
928 16.4204 160.52 160.11 12.67
929 16.4305 157.38 159.60 12.54
930 16.4407 156.73 159.14 12.52
931 16.4508 155.77 158.73 12.48
932 16.4610 155.89 158.37 12.49
933 16.4711 158.92 158.05 12.61
934 16.4813 157.48 157.78 12.55
935 16.4914 156.70 157.53 12.52
936 16.5016 156.53 157.31 12.51
937 16.5117 151.73 157.11 12.32
938 16.5219 154.66 156.94 12.44
939 16.5320 156.05 156.78 12.49
940 16.5422 152.08 156.64 12.33
941 16.5523 154.05 156.51 12.41
942 16.5625 155.05 156.40 12.45
943 16.5726 154.50 156.30 12.43
944 16.5828 153.97 156.21 12.41
945 16.5929 156.72 156.14 12.52
946 16.6031 153.17 156.07 12.38
947 16.6132 153.77 156.02 12.40
948 16.6234 155.48 155.98 12.47
949 16.6335 151.31 155.95 12.30
950 16.6437 155.41 155.93 12.47
951 16.6538 152.98 155.93 12.37
952 16.6640 152.38 155.96 12.34
953 16.6741 157.39 156.01 12.55
954 16.6843 154.75 156.10 12.44
955 16.6944 153.17 156.23 12.38
956 16.7046 159.78 156.44 12.64
957 16.7147 156.33 156.74 12.50
958 16.7249 155.86 157.17 12.48
959 16.7350 161.12 157.80 12.69
960 16.7452 157.53 158.14 12.55
961 16.7553 158.41 159.36 12.59
962 16.7655 162.33 160.96 12.74
963 16.7756 163.84 162.99 12.80
964 16.7858 166.89 165.26 12.92
965 16.7959 170.75 168.37 13.07
966 16.8061 174.64 172.07 13.22
967 16.8162 181.11 176.42 13.46
968 16.8264 190.33 181.45 13.80
969 16.8365 200.50 187.30 14.16
970 16.8467 209.91 194.17 14.49
971 16.8568 223.30 202.31 14.94
972 16.8670 229.00 211.72 15.13
973 16.8771 240.12 221.79 15.50
974 16.8873 248.72 231.11 15.77
975 16.8974 251.66 237.77 15.86
976 16.9076 256.50 239.98 16.02
977 16.9177 254.05 237.12 15.94
978 16.9279 245.98 230.41 15.68
979 16.9380 236.50 221.63 15.38
980 16.9482 221.48 211.73 14.88
981 16.9583 212.64 201.12 14.58
982 16.9685 196.55 190.53 14.02
983 16.9786 186.64 181.02 13.66
984 16.9888 179.86 173.63 13.41
985 16.9989 168.14 167.79 12.97
986 17.0091 167.44 163.59 12.94
987 17.0192 164.23 160.68 12.82
988 17.0294 160.94 159.13 12.69
989 17.0395 163.33 157.86 12.78
990 17.0497 159.89 157.03 12.64
991 17.0598 157.92 156.51 12.57
992 17.0700 158.53 156.29 12.59
993 17.0801 159.42 156.08 12.63
994 17.0903 161.27 155.94 12.70
995 17.1004 164.39 155.85 12.82
996 17.1106 163.58 155.79 12.79
997 17.1207 162.70 155.75 12.76
998 17.1309 162.03 155.74 12.73
999 17.1410 164.73 155.74 12.83
1000 17.1512 162.84 155.76 12.76
1001 17.1613 162.28 156.07 12.74
1002 17.1715 163.52 156.14 12.79
1003 17.1816 160.81 156.21 12.68
1004 17.1918 160.94 156.31 12.69
1005 17.2019 160.81 156.56 12.68
1006 17.2121 158.53 156.70 12.59
1007 17.2222 160.34 156.86 12.66
1008 17.2324 161.20 157.05 12.70
1009 17.2425 161.94 157.27 12.73
1010 17.2527 160.84 157.51 12.68
1011 17.2628 159.36 157.80 12.62
1012 17.2730 162.33 158.13 12.74
1013 17.2831 160.80 158.52 12.68
1014 17.2933 159.39 158.99 12.62
1015 17.3034 157.91 159.57 12.57
1016 17.3136 161.52 160.31 12.71
1017 17.3237 160.17 161.32 12.66
1018 17.3339 162.61 162.76 12.75
1019 17.3440 166.67 164.81 12.91
1020 17.3542 167.61 167.76 12.95
1021 17.3643 168.78 172.11 12.99
1022 17.3745 178.36 177.74 13.36
1023 17.3846 179.41 185.19 13.39
1024 17.3948 185.83 194.77 13.63
1025 17.4049 197.58 206.95 14.06
1026 17.4151 205.36 221.98 14.33
1027 17.4252 217.47 240.57 14.75
1028 17.4354 241.86 263.55 15.55
1029 17.4455 265.39 292.03 16.29
1030 17.4557 298.00 327.45 17.26
1031 17.4658 347.69 370.66 18.65
1032 17.4760 400.00 421.39 20.00
1033 17.4861 455.58 477.04 21.34
1034 17.4963 524.67 532.39 22.91
1035 17.5064 581.58 579.85 24.12
1036 17.5166 606.58 611.50 24.63
1037 17.5267 623.19 623.18 24.96
1038 17.5369 622.50 616.40 24.95
1039 17.5470 598.14 593.99 24.46
1040 17.5572 570.45 557.26 23.88
1041 17.5673 518.11 509.41 22.76
1042 17.5775 456.94 457.92 21.38
1043 17.5876 406.58 410.40 20.16
1044 17.5978 364.61 371.16 19.09
1045 17.6079 331.25 342.27 18.20
1046 17.6181 321.72 325.44 17.94
1047 17.6282 316.80 321.54 17.80
1048 17.6384 324.81 329.95 18.02
1049 17.6485 347.00 347.69 18.63
1050 17.6587 364.30 370.07 19.09
1051 17.6688 383.36 390.52 19.58
1052 17.6790 398.95 401.95 19.97
1053 17.6891 396.48 399.39 19.91
1054 17.6993 380.31 382.96 19.50
1055 17.7094 353.91 357.93 18.81
1056 17.7196 325.97 329.43 18.05
1057 17.7297 289.31 300.05 17.01
1058 17.7399 263.62 271.26 16.24
1059 17.7500 240.06 245.35 15.49
1060 17.7602 216.97 224.73 14.73
1061 17.7703 204.30 210.64 14.29
1062 17.7805 198.48 203.10 14.09
1063 17.7906 192.86 201.36 13.89
1064 17.8008 200.33 204.42 14.15
1065 17.8109 206.69 211.48 14.38
1066 17.8211 221.12 222.18 14.87
1067 17.8312 231.86 236.59 15.23
1068 17.8414 253.09 254.85 15.91
1069 17.8515 274.14 276.56 16.56
1070 17.8617 296.06 300.13 17.21
1071 17.8718 320.48 322.42 17.90
1072 17.8820 337.95 339.05 18.38
1073 17.8921 345.75 345.56 18.59
1074 17.9023 342.41 339.84 18.50
1075 17.9124 322.28 324.16 17.95
1076 17.9226 303.59 303.15 17.42
1077 17.9327 279.30 280.11 16.71
1078 17.9429 251.98 256.36 15.87
1079 17.9530 235.34 233.04 15.34
1080 17.9632 215.06 211.99 14.66
1081 17.9733 192.05 194.82 13.86
1082 17.9835 181.38 182.12 13.47
1083 17.9936 176.80 173.62 13.30
1084 18.0038 169.25 168.58 13.01
1085 18.0139 170.64 166.06 13.06
1086 18.0241 171.86 165.29 13.11
1087 18.0342 166.70 165.74 12.91
1088 18.0444 168.34 167.15 12.97
1089 18.0545 171.22 169.41 13.09
1090 18.0647 172.69 172.24 13.14
1091 18.0748 179.22 176.31 13.39
1092 18.0850 185.03 181.50 13.60
1093 18.0951 190.14 187.89 13.79
1094 18.1053 201.89 196.09 14.21
1095 18.1154 216.12 206.55 14.70
1096 18.1256 227.62 219.31 15.09
1097 18.1357 246.55 234.00 15.70
1098 18.1459 261.83 249.30 16.18
1099 18.1560 273.89 263.17 16.55
1100 18.1662 282.14 272.65 16.80
1101 18.1763 282.19 275.07 16.80
1102 18.1865 277.28 269.78 16.65
1103 18.1966 269.59 258.82 16.42
1104 18.2068 248.86 245.27 15.78
1105 18.2169 234.28 230.63 15.31
1106 18.2271 215.09 215.57 14.67
1107 18.2372 203.05 200.67 14.25
1108 18.2474 191.14 187.55 13.83
1109 18.2575 175.95 176.91 13.26
1110 18.2677 168.89 169.05 13.00
1111 18.2778 161.95 163.61 12.73
1112 18.2880 162.02 160.27 12.73
1113 18.2981 155.91 158.29 12.49
1114 18.3083 154.25 157.13 12.42
1115 18.3184 154.50 156.43 12.43
1116 18.3286 155.88 155.97 12.48
1117 18.3387 151.31 155.64 12.30
1118 18.3489 158.42 155.38 12.59
1119 18.3590 154.97 155.18 12.45
1120 18.3692 151.64 155.01 12.31
1121 18.3793 154.75 154.88 12.44
1122 18.3895 158.05 154.77 12.57
1123 18.3996 153.86 154.69 12.40
1124 18.4098 152.56 154.62 12.35
1125 18.4199 155.25 154.58 12.46
1126 18.4301 151.42 154.55 12.31
1127 18.4402 153.86 154.54 12.40
1128 18.4504 155.30 154.37 12.46
1129 18.4605 150.02 154.40 12.25
1130 18.4707 153.91 154.45 12.41
1131 18.4808 152.25 154.52 12.34
1132 18.4910 151.48 154.53 12.31
1133 18.5011 155.09 154.67 12.45
1134 18.5113 154.55 154.85 12.43
1135 18.5214 156.64 155.12 12.52
1136 18.5316 158.23 155.50 12.58
1137 18.5417 156.48 156.07 12.51
1138 18.5519 156.45 156.91 12.51
1139 18.5620 156.34 158.15 12.50
1140 18.5722 155.50 159.88 12.47
1141 18.5823 162.17 162.24 12.73
1142 18.5925 162.70 165.34 12.76
1143 18.6026 168.17 169.30 12.97
1144 18.6128 169.19 174.27 13.01
1145 18.6229 178.52 180.49 13.36
1146 18.6331 181.20 188.28 13.46
1147 18.6432 189.89 198.04 13.78
1148 18.6534 201.75 210.17 14.20
1149 18.6635 217.48 224.82 14.75
1150 18.6737 231.80 241.56 15.22
1151 18.6838 245.14 259.03 15.66
1152 18.6940 262.47 274.84 16.20
1153 18.7041 271.72 285.92 16.48
1154 18.7143 277.55 289.51 16.66
1155 18.7244 272.11 284.71 16.50
1156 18.7346 263.42 273.26 16.23
1157 18.7447 249.94 258.52 15.81
1158 18.7549 232.12 242.47 15.24
1159 18.7650 214.83 225.96 14.66
1160 18.7752 204.00 209.58 14.28
1161 18.7853 191.69 194.57 13.85
1162 18.7955 178.77 182.03 13.37
1163 18.8056 169.73 172.40 13.03
1164 18.8158 160.92 165.65 12.69
1165 18.8259 158.47 161.26 12.59
1166 18.8361 157.62 158.59 12.55
1167 18.8462 155.83 157.01 12.48
1168 18.8564 153.89 156.05 12.41
1169 18.8665 155.44 155.44 12.47
1170 18.8767 153.53 155.01 12.39
1171 18.8868 151.17 154.68 12.30
1172 18.8970 152.72 154.42 12.36
1173 18.9071 155.50 154.20 12.47
1174 18.9173 153.09 154.01 12.37
1175 18.9274 153.58 153.85 12.39
1176 18.9376 150.59 153.72 12.27
1177 18.9477 150.36 153.60 12.26
1178 18.9579 153.53 153.50 12.39
1179 18.9680 154.09 153.41 12.41
1180 18.9782 150.41 153.34 12.26
1181 18.9883 153.41 153.27 12.39
1182 18.9985 151.45 153.21 12.31
1183 19.0086 153.11 153.16 12.37
1184 19.0188 151.62 153.12 12.31
1185 19.0289 150.47 153.08 12.27
1186 19.0391 148.16 153.05 12.17
1187 19.0492 151.38 153.02 12.30
1188 19.0594 151.28 153.01 12.30
1189 19.0695 147.91 152.99 12.16
1190 19.0797 154.23 152.99 12.42
1191 19.0898 151.19 152.99 12.30
1192 19.1000 150.02 153.00 12.25
1193 19.1101 154.58 153.02 12.43
1194 19.1203 152.58 153.06 12.35
1195 19.1304 151.58 153.13 12.31
1196 19.1406 152.45 153.24 12.35
1197 19.1507 152.83 153.40 12.36
1198 19.1609 153.20 153.64 12.38
1199 19.1710 154.44 153.99 12.43
1200 19.1812 154.23 154.46 12.42
1201 19.1913 151.20 155.08 12.30
1202 19.2015 160.53 155.90 12.67
1203 19.2116 156.33 156.95 12.50
1204 19.2218 161.02 158.29 12.69
1205 19.2319 164.55 159.99 12.83
1206 19.2421 168.58 162.12 12.98
1207 19.2522 172.81 164.70 13.15
1208 19.2624 176.23 167.70 13.28
1209 19.2725 182.45 170.93 13.51
1210 19.2827 185.25 174.06 13.61
1211 19.2928 188.31 176.87 13.72
1212 19.3030 189.30 178.84 13.76
1213 19.3131 185.97 179.74 13.64
1214 19.3233 185.08 179.61 13.60
1215 19.3334 180.38 178.60 13.43
1216 19.3436 177.00 176.66 13.30
1217 19.3537 170.50 173.88 13.06
1218 19.3639 167.62 170.61 12.95
1219 19.3740 162.34 167.29 12.74
1220 19.3842 159.84 164.20 12.64
1221 19.3943 157.27 161.43 12.54
1222 19.4045 154.78 159.03 12.44
1223 19.4146 156.39 157.11 12.51
1224 19.4248 154.05 155.61 12.41
1225 19.4349 151.86 154.52 12.32
1226 19.4451 151.58 153.79 12.31
1227 19.4552 155.06 153.31 12.45
1228 19.4654 148.98 153.22 12.21
1229 19.4755 152.83 153.04 12.36
1230 19.4857 150.39 153.00 12.26
1231 19.4958 151.34 152.93 12.30
1232 19.5060 150.47 152.87 12.27
1233 19.5161 152.25 152.83 12.34
1234 19.5263 150.58 152.80 12.27
1235 19.5364 153.84 152.78 12.40
1236 19.5466 153.27 152.77 12.38
1237 19.5567 150.19 152.76 12.26
1238 19.5669 154.06 152.76 12.41
1239 19.5770 154.77 152.76 12.44
1240 19.5872 150.09 152.76 12.25
1241 19.5973 151.75 152.77 12.32
1242 19.6075 151.12 152.78 12.29
1243 19.6176 151.80 152.80 12.32
1244 19.6278 156.55 152.82 12.51
1245 19.6379 153.17 153.09 12.38
1246 19.6481 149.69 153.14 12.23
1247 19.6582 152.33 153.18 12.34
1248 19.6684 151.28 153.24 12.30
1249 19.6785 152.28 153.30 12.34
1250 19.6887 151.36 153.49 12.30
1251 19.6988 153.25 153.57 12.38
1252 19.7090 152.36 153.66 12.34
1253 19.7191 153.67 153.76 12.40
1254 19.7293 152.86 153.88 12.36
1255 19.7394 154.05 154.01 12.41
1256 19.7496 156.08 154.16 12.49
1257 19.7597 156.52 154.34 12.51
1258 19.7699 152.34 154.54 12.34
1259 19.7800 154.59 154.78 12.43
1260 19.7902 157.53 155.06 12.55
1261 19.8003 155.77 155.42 12.48
1262 19.8105 158.66 155.90 12.60
1263 19.8206 158.62 156.54 12.59
1264 19.8308 158.03 157.44 12.57
1265 19.8409 160.86 158.72 12.68
1266 19.8511 161.34 160.54 12.70
1267 19.8612 163.36 163.06 12.78
1268 19.8714 169.86 166.46 13.03
1269 19.8815 176.25 170.99 13.28
1270 19.8917 176.62 176.87 13.29
1271 19.9018 189.17 184.39 13.75
1272 19.9120 199.20 193.93 14.11
1273 19.9221 208.97 205.95 14.46
1274 19.9323 232.80 220.86 15.26
1275 19.9424 249.42 238.80 15.79
1276 19.9526 268.25 259.32 16.38
1277 19.9627 292.05 281.11 17.09
1278 19.9729 307.69 301.81 17.54
1279 19.9830 312.56 318.27 17.68
1280 19.9932 322.61 327.51 17.96
1281 20.0033 316.41 327.68 17.79
1282 20.0135 303.55 319.02 17.42
1283 20.0236 292.00 304.15 17.09
1284 20.0338 267.42 286.40 16.35
1285 20.0439 245.27 267.96 15.66
1286 20.0541 238.92 249.84 15.46
1287 20.0642 223.78 232.83 14.96
1288 20.0744 206.02 218.22 14.35
1289 20.0845 201.34 207.44 14.19
1290 20.0947 192.52 201.35 13.88
1291 20.1048 193.31 200.22 13.90
1292 20.1150 198.36 203.94 14.08
1293 20.1251 208.98 212.35 14.46
1294 20.1353 220.05 225.36 14.83
1295 20.1454 238.25 242.90 15.44
1296 20.1556 262.30 264.63 16.20
1297 20.1657 286.08 289.38 16.91
1298 20.1759 311.72 314.73 17.66
1299 20.1860 329.94 336.99 18.16
1300 20.1962 341.83 351.71 18.49
1301 20.2063 352.55 355.17 18.78
1302 20.2165 339.48 346.80 18.43
1303 20.2266 318.52 330.09 17.85
1304 20.2368 300.39 309.61 17.33
1305 20.2469 276.53 287.98 16.63
1306 20.2571 256.72 265.76 16.02
1307 20.2672 239.09 243.21 15.46
1308 20.2774 216.03 221.67 14.70
1309 20.2875 198.30 202.87 14.08
1310 20.2977 190.30 187.87 13.79
1311 20.3078 180.97 176.88 13.45
1312 20.3180 174.64 169.42 13.22
1313 20.3281 173.42 164.68 13.17
1314 20.3383 175.97 161.75 13.27
1315 20.3484 172.20 159.91 13.12
1316 20.3586 173.05 158.66 13.15
1317 20.3687 168.45 157.74 12.98
1318 20.3789 166.83 157.01 12.92
1319 20.3890 167.34 156.39 12.94
1320 20.3992 165.83 155.86 12.88
1321 20.4093 160.09 155.38 12.65
1322 20.4195 160.62 154.97 12.67
1323 20.4296 157.11 154.62 12.53
1324 20.4398 156.52 154.32 12.51
1325 20.4499 156.97 154.06 12.53
1326 20.4601 156.34 153.85 12.50
1327 20.4702 155.39 153.67 12.47
1328 20.4804 153.53 153.56 12.39
1329 20.4905 151.64 153.43 12.31
1330 20.5007 152.69 153.31 12.36
1331 20.5108 152.89 153.20 12.36
1332 20.5210 154.50 153.10 12.43
1333 20.5311 152.19 153.03 12.34
1334 20.5413 154.59 152.95 12.43
1335 20.5514 153.55 152.88 12.39
1336 20.5616 153.88 152.77 12.40
1337 20.5717 156.03 152.71 12.49
1338 20.5819 152.34 152.51 12.34
1339 20.5920 152.55 152.47 12.35
1340 20.6022 152.75 152.42 12.36
1341 20.6123 154.12 152.36 12.41
1342 20.6225 153.27 152.33 12.38
1343 20.6326 154.61 152.23 12.43
1344 20.6428 154.06 152.20 12.41
1345 20.6529 151.19 152.17 12.30
1346 20.6631 152.59 152.15 12.35
1347 20.6732 151.20 152.13 12.30
1348 20.6834 151.89 152.11 12.32
1349 20.6935 152.92 152.09 12.37
1350 20.7037 153.27 152.08 12.38
1351 20.7138 154.50 152.06 12.43
1352 20.7240 151.08 152.05 12.29
1353 20.7341 151.61 152.04 12.31
1354 20.7443 152.33 152.04 12.34
1355 20.7544 152.08 152.03 12.33
1356 20.7646 154.98 152.06 12.45
1357 20.7747 153.41 152.06 12.39
1358 20.7849 154.92 152.06 12.45
1359 20.7950 153.08 151.87 12.37
1360 20.8052 151.33 151.89 12.30
1361 20.8153 152.05 151.92 12.33
1362 20.8255 153.83 151.95 12.40
1363 20.8356 150.91 151.99 12.28
1364 20.8458 153.66 151.93 12.40
1365 20.8559 152.69 151.98 12.36
1366 20.8661 152.03 152.05 12.33
1367 20.8762 153.92 152.15 12.41
1368 20.8864 151.56 152.29 12.31
1369 20.8965 150.64 152.49 12.27
1370 20.9067 152.06 152.77 12.33
1371 20.9168 154.94 153.18 12.45
1372 20.9270 153.62 153.77 12.39
1373 20.9371 156.42 154.55 12.51
1374 20.9473 155.42 155.61 12.47
1375 20.9574 156.52 156.98 12.51
1376 20.9676 160.80 158.76 12.68
1377 20.9777 161.58 161.04 12.71
1378 20.9879 161.67 163.91 12.72
1379 20.9980 165.83 167.43 12.88
1380 21.0082 169.73 171.54 13.03
1381 21.0183 173.80 175.99 13.18
1382 21.0285 178.05 180.29 13.34
1383 21.0386 181.47 183.77 13.47
1384 21.0488 178.72 185.72 13.37
1385 21.0589 177.80 185.67 13.33
1386 21.0691 179.17 183.78 13.39
1387 21.0792 174.14 180.78 13.20
1388 21.0894 174.80 177.37 13.22
1389 21.0995 171.30 173.84 13.09
1390 21.1097 164.67 170.21 12.83
1391 21.1198 165.00 166.52 12.85
1392 21.1300 163.88 162.99 12.80
1393 21.1401 158.52 159.92 12.59
1394 21.1503 158.88 157.46 12.60
1395 21.1604 155.45 155.67 12.47
1396 21.1706 151.12 154.46 12.29
1397 21.1807 155.73 154.01 12.48
1398 21.1909 153.88 153.63 12.40
1399 21.2010 150.42 153.51 12.26
1400 21.2112 155.98 153.59 12.49
1401 21.2213 154.91 153.83 12.45
1402 21.2315 152.88 154.37 12.36
1403 21.2416 153.25 154.98 12.38
1404 21.2518 153.31 155.81 12.38
1405 21.2619 153.59 156.91 12.39
1406 21.2721 157.47 158.34 12.55
1407 21.2822 158.23 160.15 12.58
1408 21.2924 158.39 162.36 12.59
1409 21.3025 163.17 164.92 12.77
1410 21.3127 164.06 167.64 12.81
1411 21.3228 165.11 170.21 12.85
1412 21.3330 166.08 172.23 12.89
1413 21.3431 167.64 173.25 12.95
1414 21.3533 169.78 173.07 13.03
1415 21.3634 167.50 171.86 12.94
1416 21.3736 166.86 170.10 12.92
1417 21.3837 165.30 168.19 12.86
1418 21.3939 165.64 166.27 12.87
1419 21.4040 159.39 164.35 12.62
1420 21.4142 157.33 162.48 12.54
1421 21.4243 159.73 160.81 12.64
1422 21.4345 157.41 159.54 12.55
1423 21.4446 155.11 158.79 12.45
1424 21.4548 155.62 158.58 12.48
1425 21.4649 157.81 158.87 12.56
1426 21.4751 155.72 159.53 12.48
1427 21.4852 158.56 160.37 12.59
1428 21.4954 157.83 161.18 12.56
1429 21.5055 156.44 161.74 12.51
1430 21.5157 159.42 161.90 12.63
1431 21.5258 158.53 161.66 12.59
1432 21.5360 158.50 161.16 12.59
1433 21.5461 160.00 160.59 12.65
1434 21.5563 160.58 160.04 12.67
1435 21.5664 158.52 159.53 12.59
1436 21.5766 166.28 159.08 12.90
1437 21.5867 170.45 158.77 13.06
1438 21.5969 172.34 158.71 13.13
1439 21.6070 175.31 159.05 13.24
1440 21.6172 177.53 159.94 13.32
1441 21.6273 178.42 161.57 13.36
1442 21.6375 182.78 164.17 13.52
1443 21.6476 188.08 167.99 13.71
1444 21.6578 186.14 173.32 13.64
1445 21.6679 195.86 180.60 13.99
1446 21.6781 202.34 190.21 14.22
1447 21.6882 211.30 202.72 14.54
1448 21.6984 229.52 218.75 15.15
1449 21.7085 251.09 238.79 15.85
1450 21.7187 270.42 262.94 16.44
1451 21.7288 296.42 290.30 17.22
1452 21.7390 325.67 318.72 18.05
1453 21.7491 340.97 344.64 18.47
1454 21.7593 358.73 363.64 18.94
1455 21.7694 365.77 371.58 19.12
1456 21.7796 360.20 366.87 18.98
1457 21.7897 354.16 352.20 18.82
1458 21.7999 338.00 332.45 18.38
1459 21.8100 313.80 311.42 17.71
1460 21.8202 293.95 289.77 17.15
1461 21.8303 267.08 267.49 16.34
1462 21.8405 242.64 244.92 15.58
1463 21.8506 227.16 223.65 15.07
1464 21.8608 207.92 205.51 14.42
1465 21.8710 190.73 191.24 13.81
1466 21.8811 181.91 181.04 13.49
1467 21.8913 173.19 174.41 13.16
1468 21.9014 164.94 170.47 12.84
1469 21.9116 162.80 168.21 12.76
1470 21.9217 159.16 166.79 12.62
1471 21.9319 155.16 165.59 12.46
1472 21.9420 156.17 164.34 12.50
1473 21.9522 158.05 163.02 12.57
1474 21.9623 153.89 161.74 12.41
1475 21.9725 154.22 160.58 12.42
1476 21.9826 157.02 159.43 12.53
1477 21.9928 152.89 158.32 12.36
1478 22.0029 155.14 157.26 12.46
1479 22.0131 154.62 156.34 12.43
1480 22.0232 154.41 155.60 12.43
1481 22.0333 154.69 155.09 12.44
1482 22.0435 157.20 154.75 12.54
1483 22.0536 155.41 154.60 12.47
1484 22.0638 158.47 154.60 12.59
1485 22.0739 160.83 154.75 12.68
1486 22.0841 159.19 155.01 12.62
1487 22.0942 159.95 155.39 12.65
1488 22.1044 162.52 155.83 12.75
1489 22.1146 161.42 156.29 12.71
1490 22.1247 164.12 156.71 12.81
1491 22.1349 168.14 157.01 12.97
1492 22.1450 164.77 157.13 12.84
1493 22.1552 168.81 157.06 12.99
1494 22.1653 167.73 156.87 12.95
1495 22.1755 163.56 156.64 12.79
1496 22.1856 166.52 156.43 12.90
1497 22.1958 157.52 156.25 12.55
1498 22.2059 160.59 156.11 12.67
1499 22.2161 165.16 156.03 12.85
1500 22.2262 160.91 156.07 12.68
1501 22.2364 160.38 156.36 12.66
1502 22.2465 159.70 156.87 12.64
1503 22.2567 162.33 157.78 12.74
1504 22.2668 160.73 159.24 12.68
1505 22.2770 166.25 161.43 12.89
1506 22.2871 167.62 164.65 12.95
1507 22.2973 170.19 169.09 13.05
1508 22.3074 174.41 175.12 13.21
1509 22.3176 180.88 183.29 13.45
1510 22.3277 193.64 193.74 13.92
1511 22.3379 208.48 207.10 14.44
1512 22.3480 228.34 223.69 15.11
1513 22.3582 245.97 243.40 15.68
1514 22.3683 280.08 265.32 16.74
1515 22.3785 310.70 287.51 17.63
1516 22.3886 326.14 307.20 18.06
1517 22.3988 337.62 320.86 18.37
1518 22.4089 348.62 325.58 18.67
1519 22.4191 326.84 320.69 18.08
1520 22.4292 318.14 308.76 17.84
1521 22.4394 307.03 293.51 17.52
1522 22.4495 279.16 277.60 16.71
1523 22.4597 266.94 261.56 16.34
1524 22.4698 247.06 245.12 15.72
1525 22.4800 222.50 228.49 14.92
1526 22.4901 210.61 212.91 14.51
1527 22.5003 199.59 199.79 14.13
1528 22.5104 183.08 189.99 13.53
1529 22.5206 179.30 183.71 13.39
1530 22.5307 181.09 180.64 13.46
1531 22.5409 176.22 180.04 13.27
1532 22.5510 176.14 181.00 13.27
1533 22.5612 177.34 182.49 13.32
1534 22.5713 177.84 183.56 13.34
1535 22.5815 179.22 183.53 13.39
1536 22.5916 179.50 182.18 13.40
1537 22.6018 178.98 179.97 13.38
1538 22.6119 174.09 177.28 13.19
1539 22.6221 171.97 174.55 13.11
1540 22.6322 173.05 171.83 13.15
1541 22.6424 166.06 169.07 12.89
1542 22.6525 168.52 166.30 12.98
1543 22.6627 161.92 163.76 12.72
1544 22.6728 164.33 161.58 12.82
1545 22.6830 159.62 159.96 12.63
1546 22.6931 157.25 158.95 12.54
1547 22.7033 157.62 158.57 12.55
1548 22.7134 158.34 158.79 12.58
1549 22.7236 157.06 159.61 12.53
1550 22.7337 161.50 161.04 12.71
1551 22.7439 161.03 163.15 12.69
1552 22.7540 164.06 166.07 12.81
1553 22.7642 166.53 169.95 12.90
1554 22.7743 171.33 175.00 13.09
1555 22.7845 173.83 181.36 13.18
1556 22.7946 183.55 189.07 13.55
1557 22.8048 190.36 197.93 13.80
1558 22.8149 202.62 207.51 14.23
1559 22.8251 209.16 217.14 14.46
1560 22.8352 223.92 226.16 14.96
1561 22.8454 228.67 234.28 15.12
1562 22.8555 248.95 242.05 15.78
1563 22.8657 265.95 250.77 16.31
1564 22.8758 278.30 261.54 16.68
1565 22.8860 302.55 274.45 17.39
1566 22.8961 325.67 288.46 18.05
1567 22.9063 334.62 301.74 18.29
1568 22.9164 355.02 312.35 18.84
1569 22.9266 361.27 318.79 19.01
1570 22.9367 345.45 320.88 18.59
1571 22.9469 348.30 320.05 18.66
1572 22.9570 334.58 318.06 18.29
1573 22.9672 318.62 315.30 17.85
1574 22.9773 306.44 310.51 17.51
1575 22.9875 293.39 301.78 17.13
1576 22.9976 273.25 288.35 16.53
1577 23.0078 256.95 271.67 16.03
1578 23.0179 236.36 254.34 15.37
1579 23.0281 211.30 238.07 14.54
1580 23.0382 206.14 223.88 14.36
1581 23.0484 192.84 211.36 13.89
1582 23.0585 180.62 200.14 13.44
1583 23.0687 181.95 190.30 13.49
1584 23.0788 176.50 182.19 13.29
1585 23.0890 168.16 175.97 12.97
1586 23.0991 169.95 171.96 13.04
1587 23.1093 170.14 170.03 13.04
1588 23.1194 170.84 170.10 13.07
1589 23.1296 172.78 172.04 13.14
1590 23.1397 179.12 175.81 13.38
1591 23.1499 180.83 181.25 13.45
1592 23.1600 196.27 188.26 14.01
1593 23.1702 203.03 196.53 14.25
1594 23.1803 206.36 205.37 14.37
1595 23.1905 217.52 213.76 14.75
1596 23.2006 224.14 220.30 14.97
1597 23.2108 225.08 223.72 15.00
1598 23.2209 228.81 223.23 15.13
1599 23.2311 223.11 219.32 14.94
1600 23.2412 218.20 213.42 14.77
1601 23.2514 213.83 206.85 14.62
1602 23.2615 203.92 200.19 14.28
1603 23.2717 195.81 193.41 13.99
1604 23.2818 192.70 186.33 13.88
1605 23.2920 185.00 179.15 13.60
1606 23.3021 176.09 172.63 13.27
1607 23.3123 170.19 166.82 13.05
1608 23.3224 164.12 162.18 12.81
1609 23.3326 161.59 158.73 12.71
1610 23.3427 157.53 156.32 12.55
1611 23.3529 158.84 154.71 12.60
1612 23.3630 151.28 153.79 12.30
1613 23.3732 152.70 153.12 12.36
1614 23.3833 152.97 152.67 12.37
1615 23.3935 152.75 152.35 12.36
1616 23.4036 151.48 152.10 12.31
1617 23.4138 154.30 151.91 12.42
1618 23.4239 154.34 151.75 12.42
1619 23.4341 151.75 151.62 12.32
1620 23.4442 152.28 151.51 12.34
1621 23.4544 148.41 151.41 12.18
1622 23.4645 148.72 151.34 12.19
1623 23.4747 149.38 151.23 12.22
1624 23.4848 147.64 151.20 12.15
1625 23.4950 153.41 151.18 12.39
1626 23.5051 150.56 151.18 12.27
1627 23.5153 151.73 151.20 12.32
1628 23.5254 150.14 151.22 12.25
1629 23.5356 151.47 151.29 12.31
1630 23.5457 148.12 151.40 12.17
1631 23.5559 150.47 151.40 12.27
1632 23.5660 147.86 151.57 12.16
1633 23.5762 152.17 151.77 12.34
1634 23.5863 145.67 152.00 12.07
1635 23.5965 150.91 152.26 12.28
1636 23.6066 150.48 152.56 12.27
1637 23.6168 151.47 152.75 12.31
1638 23.6269 151.45 153.22 12.31
1639 23.6371 150.41 153.86 12.26
1640 23.6472 150.48 154.77 12.27
1641 23.6574 154.62 156.03 12.43
1642 23.6675 151.75 157.74 12.32
1643 23.6777 156.98 159.95 12.53
1644 23.6878 156.95 162.84 12.53
1645 23.6980 160.19 166.41 12.66
1646 23.7081 160.45 170.63 12.67
1647 23.7183 164.66 175.29 12.83
1648 23.7284 164.22 180.03 12.81
1649 23.7386 175.03 184.23 13.23
1650 23.7487 174.91 187.27 13.23
1651 23.7589 175.03 188.65 13.23
1652 23.7690 175.78 188.36 13.26
1653 23.7792 178.23 187.03 13.35
1654 23.7893 176.89 185.55 13.30
1655 23.7995 177.70 184.59 13.33
1656 23.8096 179.62 184.52 13.40
1657 23.8198 179.89 185.59 13.41
1658 23.8299 184.08 188.14 13.57
1659 23.8401 188.62 192.77 13.73
1660 23.8502 197.59 200.12 14.06
1661 23.8604 214.25 210.96 14.64
1662 23.8705 236.33 225.44 15.37
1663 23.8807 250.89 243.25 15.84
1664 23.8908 284.22 263.24 16.86
1665 23.9010 315.27 283.36 17.76
1666 23.9111 324.69 300.71 18.02
1667 23.9213 340.88 312.22 18.46
1668 23.9314 348.02 315.43 18.66
1669 23.9416 329.23 310.20 18.14
1670 23.9517 323.11 299.07 17.98
1671 23.9619 302.88 285.39 17.40
1672 23.9720 273.25 271.19 16.53
1673 23.9822 268.42 256.86 16.38
1674 23.9923 250.33 241.85 15.82
1675 24.0025 224.80 226.00 14.99
1676 24.0126 210.06 210.16 14.49
1677 24.0228 191.77 195.64 13.85
1678 24.0329 176.34 183.36 13.28
1679 24.0431 167.69 173.71 12.95
1680 24.0532 160.08 166.59 12.65
1681 24.0634 155.70 161.61 12.48
1682 24.0735 152.17 158.26 12.34
1683 24.0837 154.80 156.06 12.44
1684 24.0938 148.02 154.59 12.17
1685 24.1040 152.69 153.58 12.36
1686 24.1141 151.62 152.86 12.31
1687 24.1243 150.03 152.31 12.25
1688 24.1344 150.78 151.88 12.28
1689 24.1446 147.22 151.54 12.13
1690 24.1547 148.78 151.27 12.20
1691 24.1649 149.28 151.04 12.22
1692 24.1750 150.78 150.87 12.28
1693 24.1852 148.91 150.74 12.20
1694 24.1953 150.25 150.67 12.26
1695 24.2055 149.06 150.65 12.21
1696 24.2156 144.80 150.71 12.03
1697 24.2258 153.09 150.88 12.37
1698 24.2359 153.45 151.18 12.39
1699 24.2461 155.45 151.68 12.47
1700 24.2562 156.12 152.42 12.49
1701 24.2664 158.27 153.48 12.58
1702 24.2765 159.48 154.91 12.63
1703 24.2867 165.16 156.80 12.85
1704 24.2968 170.27 159.17 13.05
1705 24.3070 178.36 162.00 13.36
1706 24.3171 183.16 165.17 13.53
1707 24.3273 192.70 168.42 13.88
1708 24.3374 195.77 171.38 13.99
1709 24.3476 205.00 173.62 14.32
1710 24.3577 205.61 174.75 14.34
1711 24.3679 202.50 174.65 14.23
1712 24.3780 207.53 173.63 14.41
1713 24.3882 201.44 172.16 14.19
1714 24.3983 193.69 170.57 13.92
1715 24.4085 188.03 169.00 13.71
1716 24.4186 183.23 167.26 13.54
1717 24.4288 174.78 165.21 13.22
1718 24.4389 170.91 162.84 13.07
1719 24.4491 171.48 160.37 13.10
1720 24.4592 160.12 158.02 12.65
1721 24.4694 159.34 156.02 12.62
1722 24.4795 153.95 154.41 12.41
1723 24.4897 150.31 153.17 12.26
1724 24.4998 150.55 152.22 12.27
1725 24.5100 150.81 151.47 12.28
1726 24.5201 146.69 150.91 12.11
1727 24.5303 147.34 150.51 12.14
1728 24.5404 148.55 150.38 12.19
1729 24.5506 145.27 150.32 12.05
1730 24.5607 145.25 150.42 12.05
1731 24.5709 145.06 150.62 12.04
1732 24.5810 141.31 150.70 11.89
1733 24.5912 147.67 150.94 12.15
1734 24.6013 144.44 151.14 12.02
1735 24.6115 143.48 151.15 11.98
1736 24.6216 145.31 151.10 12.05
1737 24.6318 142.12 150.84 11.92
1738 24.6419 145.91 150.43 12.08
1739 24.6521 147.69 150.12 12.15
1740 24.6622 143.97 149.80 12.00
1741 24.6724 144.83 149.49 12.03
1742 24.6825 145.06 149.20 12.04
1743 24.6927 146.33 148.87 12.10
1744 24.7028 144.58 148.55 12.02
1745 24.7130 144.72 148.28 12.03
1746 24.7231 144.05 148.06 12.00
1747 24.7333 143.81 147.90 11.99
1748 24.7434 146.48 147.78 12.10
1749 24.7536 146.64 147.70 12.11
1750 24.7637 145.52 147.65 12.06
1751 24.7739 145.00 147.62 12.04
1752 24.7840 143.80 147.60 11.99
1753 24.7942 141.17 147.60 11.88
1754 24.8043 143.64 147.60 11.98
1755 24.8145 146.52 147.61 12.10
1756 24.8246 141.91 147.63 11.91
1757 24.8348 144.33 147.66 12.01
1758 24.8449 144.45 147.70 12.02
1759 24.8551 145.70 147.76 12.07
1760 24.8652 145.58 147.84 12.07
1761 24.8754 145.61 147.95 12.07
1762 24.8855 143.86 148.12 11.99
1763 24.8957 145.28 148.35 12.05
1764 24.9058 143.48 148.66 11.98
1765 24.9160 145.06 149.08 12.04
1766 24.9261 143.84 149.63 11.99
1767 24.9363 143.27 150.33 11.97
1768 24.9464 144.97 151.19 12.04
1769 24.9566 145.67 152.19 12.07
1770 24.9667 146.70 153.29 12.11
1771 24.9769 145.59 154.43 12.07
1772 24.9870 145.89 155.43 12.08
1773 24.9972 145.11 156.19 12.05
1774 25.0073 144.92 156.60 12.04
1775 25.0175 146.83 156.64 12.12
1776 25.0276 149.14 156.49 12.21
1777 25.0378 146.77 156.34 12.11
1778 25.0479 150.30 156.34 12.26
1779 25.0581 151.11 156.60 12.29
1780 25.0682 151.44 157.22 12.31
1781 25.0784 156.62 158.32 12.52
1782 25.0885 158.72 160.09 12.60
1783 25.0987 158.72 162.79 12.60
1784 25.1088 165.41 166.65 12.86
1785 25.1190 167.81 171.86 12.95
1786 25.1291 176.00 178.50 13.27
1787 25.1393 184.66 186.43 13.59
1788 25.1494 188.59 195.28 13.73
1789 25.1596 197.55 204.37 14.06
1790 25.1697 209.31 212.80 14.47
1791 25.1799 213.14 219.66 14.60
1792 25.1900 221.36 224.36 14.88
1793 25.2002 228.44 227.14 15.11
1794 25.2103 240.33 229.12 15.50
1795 25.2205 250.42 231.45 15.82
1796 25.2306 262.72 234.54 16.21
1797 25.2408 277.72 237.89 16.66
1798 25.2509 284.50 240.35 16.87
1799 25.2611 296.97 240.62 17.23
1800 25.2712 297.77 237.79 17.26
1801 25.2814 287.64 231.85 16.96
1802 25.2915 279.69 223.71 16.72
1803 25.3017 263.34 214.84 16.23
1804 25.3118 242.70 206.40 15.58
1805 25.3220 235.23 198.83 15.34
1806 25.3321 223.75 191.88 14.96
1807 25.3423 213.08 185.13 14.60
1808 25.3524 199.91 178.37 14.14
1809 25.3626 189.28 171.85 13.76
1810 25.3727 174.67 165.97 13.22
1811 25.3829 164.72 161.01 12.83
1812 25.3930 161.22 157.09 12.70
1813 25.4032 151.44 154.18 12.31
1814 25.4133 152.48 152.12 12.35
1815 25.4235 150.98 150.73 12.29
1816 25.4336 146.83 149.80 12.12
1817 25.4438 147.70 149.19 12.15
1818 25.4539 146.03 148.79 12.08
1819 25.4641 146.41 148.51 12.10
1820 25.4742 147.69 148.34 12.15
1821 25.4844 146.84 148.25 12.12
1822 25.4945 144.53 148.25 12.02
1823 25.5047 146.47 148.37 12.10
1824 25.5148 144.33 148.66 12.01
1825 25.5250 145.03 149.13 12.04
1826 25.5351 145.55 149.87 12.06
1827 25.5453 144.41 150.93 12.02
1828 25.5554 145.55 152.39 12.06
1829 25.5656 143.84 154.29 11.99
1830 25.5757 145.91 156.66 12.08
1831 25.5859 142.06 159.43 11.92
1832 25.5960 148.94 162.43 12.20
1833 25.6062 148.19 165.40 12.17
1834 25.6163 147.02 167.96 12.12
1835 25.6265 150.27 169.68 12.26
1836 25.6366 150.97 170.24 12.29
1837 25.6468 147.22 169.60 12.13
1838 25.6569 148.64 168.08 12.19
1839 25.6671 148.66 166.15 12.19
1840 25.6772 145.41 164.14 12.06
1841 25.6874 145.25 162.16 12.05
1842 25.6975 146.75 160.15 12.11
1843 25.7077 146.92 158.00 12.12
1844 25.7178 147.41 155.75 12.14
1845 25.7280 140.05 153.56 11.83
1846 25.7381 140.53 151.60 11.85
1847 25.7483 143.47 149.97 11.98
1848 25.7584 143.41 148.72 11.98
1849 25.7686 144.05 147.84 12.00
1850 25.7787 139.89 147.27 11.83
1851 25.7889 141.41 146.96 11.89
1852 25.7990 141.80 146.87 11.91
1853 25.8092 142.67 146.93 11.94
1854 25.8193 142.98 147.12 11.96
1855 25.8295 139.52 147.41 11.81
1856 25.8396 143.02 147.77 11.96
1857 25.8498 143.48 148.16 11.98
1858 25.8599 141.81 148.45 11.91
1859 25.8701 144.50 148.71 12.02
1860 25.8802 142.11 148.83 11.92
1861 25.8904 144.19 148.79 12.01
1862 25.9005 143.20 148.60 11.97
1863 25.9107 143.00 148.36 11.96
1864 25.9208 140.70 148.08 11.86
1865 25.9310 144.59 147.88 12.02
1866 25.9411 145.81 147.62 12.08
1867 25.9513 139.52 147.47 11.81
1868 25.9614 143.16 147.33 11.96
1869 25.9716 143.52 147.20 11.98
1870 25.9817 142.31 147.08 11.93
1871 25.9919 145.70 146.98 12.07
1872 26.0020 144.41 146.88 12.02
1873 26.0122 139.52 146.73 11.81
1874 26.0223 144.66 146.60 12.03
1875 26.0325 145.67 146.50 12.07
1876 26.0426 142.42 146.45 11.93
1877 26.0528 145.06 146.48 12.04
1878 26.0629 144.36 146.63 12.02
1879 26.0731 142.78 146.93 11.95
1880 26.0832 145.89 147.39 12.08
1881 26.0934 144.83 148.09 12.03
1882 26.1035 146.25 149.07 12.09
1883 26.1137 152.92 150.36 12.37
1884 26.1238 152.27 151.95 12.34
1885 26.1340 153.58 153.79 12.39
1886 26.1441 158.75 155.72 12.60
1887 26.1543 161.52 157.54 12.71
1888 26.1644 166.61 158.99 12.91
1889 26.1746 168.11 159.81 12.97
1890 26.1847 165.75 159.83 12.87
1891 26.1949 166.69 159.15 12.91
1892 26.2050 164.08 158.03 12.81
1893 26.2152 161.27 156.75 12.70
1894 26.2253 153.98 155.48 12.41
1895 26.2355 160.64 154.23 12.67
1896 26.2456 155.66 152.92 12.48
1897 26.2558 151.00 151.52 12.29
1898 26.2659 149.80 150.07 12.24
1899 26.2761 146.94 148.67 12.12
1900 26.2862 143.95 147.43 12.00
1901 26.2964 145.45 146.40 12.06
1902 26.3065 144.98 145.61 12.04
1903 26.3167 140.42 144.99 11.85
1904 26.3268 142.92 144.59 11.95
1905 26.3370 141.31 144.32 11.89
1906 26.3471 139.28 144.13 11.80
1907 26.3573 139.62 144.02 11.82
1908 26.3674 143.25 143.95 11.97
1909 26.3776 139.27 143.91 11.80
1910 26.3877 140.16 143.89 11.84
1911 26.3979 139.75 143.91 11.82
1912 26.4080 140.00 143.95 11.83
1913 26.4182 140.91 144.04 11.87
1914 26.4283 142.95 144.17 11.96
1915 26.4385 142.72 144.36 11.95
1916 26.4486 143.53 144.62 11.98
1917 26.4588 141.44 144.96 11.89
1918 26.4689 142.73 145.39 11.95
1919 26.4791 142.64 145.91 11.94
1920 26.4892 147.42 146.53 12.14
1921 26.4994 143.66 147.25 11.99
1922 26.5095 146.59 148.07 12.11
1923 26.5197 146.16 148.98 12.09
1924 26.5298 146.25 149.93 12.09
1925 26.5400 150.19 150.85 12.26
1926 26.5501 149.97 151.63 12.25
1927 26.5603 144.92 152.13 12.04
1928 26.5704 148.58 152.27 12.19
1929 26.5806 148.30 152.04 12.18
1930 26.5907 144.80 151.59 12.03
1931 26.6009 146.55 151.06 12.11
1932 26.6110 147.81 150.53 12.16
1933 26.6212 145.31 150.02 12.05
1934 26.6313 144.92 149.45 12.04
1935 26.6415 145.70 148.76 12.07
1936 26.6516 145.50 147.98 12.06
1937 26.6618 144.52 147.16 12.02
1938 26.6719 145.20 146.38 12.05
1939 26.6821 141.97 145.71 11.92
1940 26.6922 142.45 145.16 11.94
1941 26.7024 146.86 144.76 12.12
1942 26.7125 141.61 144.44 11.90
1943 26.7227 143.48 144.21 11.98
1944 26.7328 143.25 144.07 11.97
1945 26.7430 142.91 144.03 11.95
1946 26.7531 142.09 144.10 11.92
1947 26.7633 141.83 144.32 11.91
1948 26.7734 138.89 144.68 11.79
1949 26.7836 143.64 145.20 11.98
1950 26.7937 144.86 145.88 12.04
1951 26.8039 144.67 146.72 12.03
1952 26.8140 147.66 147.67 12.15
1953 26.8242 149.03 148.68 12.21
1954 26.8343 149.62 149.66 12.23
1955 26.8445 155.91 150.52 12.49
1956 26.8546 152.97 151.17 12.37
1957 26.8648 154.11 151.59 12.41
1958 26.8749 153.19 151.91 12.38
1959 26.8851 153.19 152.29 12.38
1960 26.8952 152.16 152.83 12.34
1961 26.9054 154.45 153.60 12.43
1962 26.9155 153.92 154.56 12.41
1963 26.9257 152.09 155.59 12.33
1964 26.9358 156.50 156.58 12.51
1965 26.9460 156.39 157.43 12.51
1966 26.9561 150.53 158.07 12.27
1967 26.9663 157.80 158.48 12.56
1968 26.9764 155.66 158.58 12.48
1969 26.9866 150.70 158.28 12.28
1970 26.9967 154.92 157.55 12.45
1971 27.0069 153.50 156.43 12.39
1972 27.0170 151.11 155.09 12.29
1973 27.0272 152.22 153.69 12.34
1974 27.0373 149.61 152.33 12.23
1975 27.0475 149.19 151.02 12.21
1976 27.0576 147.09 149.74 12.13
1977 27.0678 145.09 148.46 12.05
1978 27.0779 144.84 147.23 12.04
1979 27.0881 144.58 146.10 12.02
1980 27.0982 143.38 145.13 11.97
1981 27.1084 139.30 144.35 11.80
1982 27.1185 142.33 143.76 11.93
1983 27.1287 137.20 143.34 11.71
1984 27.1388 137.53 143.07 11.73
1985 27.1490 138.16 142.92 11.75
1986 27.1591 140.33 142.87 11.85
1987 27.1693 139.27 142.91 11.80
1988 27.1794 138.95 143.05 11.79
1989 27.1896 139.70 143.30 11.82
1990 27.1997 140.23 143.70 11.84
1991 27.2099 143.48 144.29 11.98
1992 27.2200 144.11 145.13 12.00
1993 27.2302 145.08 146.27 12.04
1994 27.2403 145.38 147.76 12.06
1995 27.2505 149.94 149.60 12.24
1996 27.2606 149.58 151.76 12.23
1997 27.2708 156.14 154.18 12.50
1998 27.2809 153.30 156.70 12.38
1999 27.2911 155.80 159.12 12.48
2000 27.3012 157.84 161.22 12.56
2001 27.3114 156.31 162.87 12.50
2002 27.3215 157.56 163.98 12.55
2003 27.3317 158.78 164.80 12.60
2004 27.3418 162.25 165.57 12.74
2005 27.3520 157.25 166.43 12.54
2006 27.3621 159.09 167.31 12.61
2007 27.3723 159.08 167.97 12.61
2008 27.3824 157.27 168.16 12.54
2009 27.3926 164.03 167.71 12.81
2010 27.4027 160.61 166.74 12.67
2011 27.4129 159.69 165.58 12.64
2012 27.4230 159.70 164.50 12.64
2013 27.4332 161.62 163.56 12.71
2014 27.4433 158.48 162.66 12.59
2015 27.4535 159.59 161.55 12.63
2016 27.4636 161.44 160.04 12.71
2017 27.4738 157.00 158.13 12.53
2018 27.4839 159.73 156.03 12.64
2019 27.4941 156.72 153.99 12.52
2020 27.5042 151.89 152.16 12.32
2021 27.5144 154.45 150.59 12.43
2022 27.5245 152.97 149.23 12.37
2023 27.5347 146.12 148.04 12.09
2024 27.5448 148.39 146.98 12.18
2025 27.5550 148.89 146.09 12.20
2026 27.5651 146.45 145.45 12.10
2027 27.5753 147.80 145.09 12.16
2028 27.5854 149.03 145.07 12.21
2029 27.5956 151.77 145.36 12.32
2030 27.6057 155.47 145.99 12.47
2031 27.6159 157.50 146.81 12.55
2032 27.6260 159.17 147.79 12.62
2033 27.6362 162.94 148.75 12.76
2034 27.6463 168.89 149.55 13.00
2035 27.6565 168.03 150.05 12.96
2036 27.6666 169.98 150.13 13.04
2037 27.6768 170.48 149.80 13.06
2038 27.6869 164.48 149.20 12.83
2039 27.6971 166.83 148.47 12.92
2040 27.7072 161.75 147.74 12.72
2041 27.7174 157.20 147.04 12.54
2042 27.7275 157.20 146.35 12.54
2043 27.7377 153.33 145.61 12.38
2044 27.7478 149.25 144.81 12.22
2045 27.7580 150.39 144.00 12.26
2046 27.7681 147.06 143.24 12.13
2047 27.7783 142.72 142.58 11.95
2048 27.7884 142.17 142.05 11.92
2049 27.7986 142.05 141.65 11.92
2050 27.8087 140.02 141.37 11.83
2051 27.8189 140.03 141.20 11.83
2052 27.8290 140.81 141.12 11.87
2053 27.8392 137.42 141.12 11.72
2054 27.8493 139.77 141.17 11.82
2055 27.8595 140.92 141.29 11.87
2056 27.8696 138.25 141.51 11.76
2057 27.8798 139.66 141.83 11.82
2058 27.8899 140.98 142.33 11.87
2059 27.9001 139.53 143.07 11.81
2060 27.9102 139.73 144.13 11.82
2061 27.9204 139.97 145.62 11.83
2062 27.9305 142.25 147.64 11.93
2063 27.9407 143.73 150.26 11.99
2064 27.9508 147.72 153.51 12.15
2065 27.9610 149.12 157.32 12.21
2066 27.9711 156.00 161.52 12.49
2067 27.9813 162.98 165.80 12.77
2068 27.9914 164.25 169.73 12.82
2069 28.0016 170.97 172.83 13.08
2070 28.0117 171.30 174.66 13.09
2071 28.0219 172.48 175.04 13.13
2072 28.0320 167.78 174.24 12.95
2073 28.0422 166.23 172.74 12.89
2074 28.0523 166.06 171.03 12.89
2075 28.0625 161.91 169.32 12.72
2076 28.0726 160.39 167.60 12.66
2077 28.0828 162.78 165.69 12.76
2078 28.0929 159.48 163.44 12.63
2079 28.1031 155.81 160.91 12.48
2080 28.1132 155.30 158.27 12.46
2081 28.1234 152.97 155.84 12.37
2082 28.1335 150.34 153.83 12.26
2083 28.1437 147.64 152.45 12.15
2084 28.1538 148.06 151.82 12.17
2085 28.1640 151.44 151.97 12.31
2086 28.1741 148.55 152.88 12.19
2087 28.1843 154.77 154.50 12.44
2088 28.1944 156.34 156.74 12.50
2089 28.2046 154.66 159.44 12.44
2090 28.2147 160.52 162.40 12.67
2091 28.2249 164.17 165.32 12.81
2092 28.2350 162.55 167.88 12.75
2093 28.2452 165.94 169.73 12.88
2094 28.2553 165.55 170.59 12.87
2095 28.2655 164.62 170.32 12.83
2096 28.2756 165.89 169.01 12.88
2097 28.2858 162.44 166.97 12.75
2098 28.2959 158.66 164.62 12.60
2099 28.3061 154.66 162.21 12.44
2100 28.3162 152.78 159.84 12.36
2101 28.3264 147.73 157.46 12.15
2102 28.3365 150.44 155.01 12.27
2103 28.3467 148.31 152.47 12.18
2104 28.3568 144.42 149.93 12.02
2105 28.3670 143.75 147.61 11.99
2106 28.3771 142.64 145.54 11.94
2107 28.3873 141.09 143.85 11.88
2108 28.3974 137.11 142.55 11.71
2109 28.4076 136.55 141.61 11.69
2110 28.4177 138.61 140.98 11.77
2111 28.4279 139.83 140.62 11.82
2112 28.4380 140.05 140.49 11.83
2113 28.4482 136.23 140.54 11.67
2114 28.4583 137.53 140.78 11.73
2115 28.4685 139.02 141.22 11.79
2116 28.4786 137.19 141.86 11.71
2117 28.4888 139.09 142.70 11.79
2118 28.4989 140.53 143.72 11.85
2119 28.5091 139.95 144.86 11.83
2120 28.5192 140.44 146.03 11.85
2121 28.5294 139.53 147.10 11.81
2122 28.5395 141.55 147.93 11.90
2123 28.5497 141.41 148.37 11.89
2124 28.5598 138.55 148.37 11.77
2125 28.5700 138.48 147.97 11.77
2126 28.5801 140.12 147.35 11.84
2127 28.5903 141.34 146.65 11.89
2128 28.6004 140.75 145.99 11.86
2129 28.6106 139.39 145.37 11.81
2130 28.6207 142.30 144.78 11.93
2131 28.6309 140.09 144.18 11.84
2132 28.6410 141.02 143.59 11.88
2133 28.6512 142.98 143.10 11.96
2134 28.6613 140.55 142.80 11.86
2135 28.6715 142.47 142.79 11.94
2136 28.6816 140.89 143.14 11.87
2137 28.6918 142.38 143.90 11.93
2138 28.7019 149.27 145.05 12.22
2139 28.7121 147.23 146.55 12.13
2140 28.7222 148.09 148.30 12.17
2141 28.7324 154.12 150.10 12.41
2142 28.7425 154.83 151.84 12.44
2143 28.7527 157.23 153.26 12.54
2144 28.7628 160.00 154.20 12.65
2145 28.7730 158.58 154.60 12.59
2146 28.7831 159.12 154.54 12.61
2147 28.7933 159.00 154.22 12.61
2148 28.8034 155.73 153.74 12.48
2149 28.8136 154.70 153.16 12.44
2150 28.8237 159.25 152.39 12.62
2151 28.8339 157.30 151.40 12.54
2152 28.8440 151.27 150.24 12.30
2153 28.8542 154.19 149.03 12.42
2154 28.8643 150.98 147.92 12.29
2155 28.8745 150.33 147.04 12.26
2156 28.8846 150.52 146.46 12.27
2157 28.8948 149.39 146.15 12.22
2158 28.9049 144.98 146.11 12.04
2159 28.9151 149.84 146.28 12.24
2160 28.9252 148.09 146.61 12.17
2161 28.9354 143.89 147.02 12.00
2162 28.9455 149.80 147.41 12.24
2163 28.9557 144.98 147.71 12.04
2164 28.9658 146.41 147.87 12.10
2165 28.9760 145.89 147.96 12.08
2166 28.9861 152.38 148.03 12.34
2167 28.9963 151.83 148.35 12.32
2168 29.0064 153.31 149.04 12.38
2169 29.0166 159.64 150.18 12.63
2170 29.0267 164.80 151.78 12.84
2171 29.0369 175.02 153.77 13.23
2172 29.0470 188.03 156.01 13.71
2173 29.0572 188.69 158.29 13.74
2174 29.0673 203.69 160.33 14.27
2175 29.0775 212.02 161.85 14.56
2176 29.0876 212.12 162.54 14.56
2177 29.0978 214.02 162.24 14.63
2178 29.1079 215.20 161.04 14.67
2179 29.1181 202.22 159.31 14.22
2180 29.1282 197.61 157.42 14.06
2181 29.1384 188.53 155.59 13.73
2182 29.1485 180.83 153.88 13.45
2183 29.1587 180.33 152.19 13.43
2184 29.1688 180.14 150.38 13.42
2185 29.1790 173.61 148.40 13.18
2186 29.1891 167.27 146.34 12.93
2187 29.1993 160.56 144.34 12.67
2188 29.2094 150.72 142.53 12.28
2189 29.2196 150.53 141.00 12.27
2190 29.2297 144.72 139.77 12.03
2191 29.2399 140.33 138.84 11.85
2192 29.2500 141.12 138.16 11.88
2193 29.2602 139.75 137.68 11.82
2194 29.2703 139.19 137.35 11.80
2195 29.2805 137.36 137.12 11.72
2196 29.2906 140.84 136.96 11.87
2197 29.3008 137.56 136.85 11.73
2198 29.3109 138.45 136.77 11.77
2199 29.3211 141.48 136.72 11.89
2200 29.3312 138.30 136.69 11.76
2201 29.3414 139.39 136.69 11.81
2202 29.3515 141.84 136.71 11.91
2203 29.3617 141.73 136.76 11.91
2204 29.3718 142.28 136.85 11.93
2205 29.3820 143.97 137.00 12.00
2206 29.3921 147.08 137.20 12.13
2207 29.4023 148.34 137.47 12.18
2208 29.4124 149.84 137.83 12.24
2209 29.4226 154.45 138.29 12.43
2210 29.4327 156.55 138.88 12.51
2211 29.4429 160.19 139.65 12.66
2212 29.4530 158.91 140.63 12.61
2213 29.4632 166.72 141.85 12.91
2214 29.4733 166.80 143.40 12.91
2215 29.4835 164.73 145.19 12.83
2216 29.4936 174.02 147.22 13.19
2217 29.5038 175.91 149.31 13.26
2218 29.5139 175.67 151.31 13.25
2219 29.5241 177.95 152.95 13.34
2220 29.5342 178.77 153.98 13.37
2221 29.5444 178.39 154.24 13.36
2222 29.5545 175.64 153.77 13.25
2223 29.5647 176.50 152.80 13.29
2224 29.5748 167.81 151.64 12.95
2225 29.5850 167.11 150.55 12.93
2226 29.5951 164.67 149.62 12.83
2227 29.6053 158.19 148.85 12.58
2228 29.6154 158.50 148.21 12.59
2229 29.6256 153.78 147.63 12.40
2230 29.6357 151.97 147.19 12.33
2231 29.6459 149.20 146.99 12.21
2232 29.6560 147.25 147.13 12.13
2233 29.6662 145.53 147.60 12.06
2234 29.6763 143.06 148.35 11.96
2235 29.6865 146.27 149.24 12.09
2236 29.6966 143.67 150.09 11.99
2237 29.7068 144.72 150.70 12.03
2238 29.7169 143.67 151.01 11.99
2239 29.7271 144.02 151.02 12.00
2240 29.7372 147.81 150.90 12.16
2241 29.7474 150.02 150.78 12.25
2242 29.7575 151.47 150.71 12.31
2243 29.7677 150.17 150.60 12.25
2244 29.7778 149.23 150.30 12.22
2245 29.7880 149.06 149.67 12.21
2246 29.7981 152.00 148.63 12.33
2247 29.8083 152.41 147.27 12.35
2248 29.8184 151.03 145.79 12.29
2249 29.8286 148.58 144.34 12.19
2250 29.8387 146.06 143.03 12.09
2251 29.8489 144.75 141.91 12.03
2252 29.8590 147.53 140.95 12.15
2253 29.8692 142.03 140.09 11.92
2254 29.8793 140.83 139.28 11.87
2255 29.8895 142.72 138.53 11.95
2256 29.8996 138.58 137.85 11.77
2257 29.9098 138.16 137.25 11.75
2258 29.9199 141.00 136.77 11.87
2259 29.9301 137.00 136.40 11.70
2260 29.9402 136.34 136.13 11.68
2261 29.9504 136.16 135.95 11.67
2262 29.9605 138.33 135.84 11.76
2263 29.9707 135.05 135.82 11.62
2264 29.9808 139.88 135.84 11.83
2265 29.9910 136.58 135.92 11.69
2266 30.0011 136.66 136.06 11.69
2267 30.0113 138.30 136.30 11.76
2268 30.0214 137.62 136.66 11.73
2269 30.0316 140.22 137.19 11.84
2270 30.0417 139.70 137.98 11.82
2271 30.0519 141.31 139.07 11.89
2272 30.0620 144.12 140.55 12.01
2273 30.0722 142.14 142.50 11.92
2274 30.0823 144.83 144.97 12.03
2275 30.0925 146.00 147.95 12.08
2276 30.1026 150.86 151.35 12.28
2277 30.1128 151.12 154.99 12.29
2278 30.1229 155.14 158.63 12.46
2279 30.1331 157.95 161.92 12.57
2280 30.1432 160.28 164.51 12.66
2281 30.1534 157.94 166.15 12.57
2282 30.1635 156.84 166.72 12.52
2283 30.1737 157.22 166.34 12.54
2284 30.1838 154.84 165.28 12.44
2285 30.1940 156.20 163.89 12.50
2286 30.2041 154.75 162.42 12.44
2287 30.2143 151.50 160.97 12.31
2288 30.2244 151.66 159.48 12.31
2289 30.2346 151.30 157.85 12.30
2290 30.2447 148.58 156.05 12.19
2291 30.2549 148.78 154.11 12.20
2292 30.2650 148.14 152.17 12.17
2293 30.2752 145.44 150.41 12.06
2294 30.2853 144.27 149.02 12.01
2295 30.2955 146.67 148.10 12.11
2296 30.3056 143.20 147.74 11.97
2297 30.3158 145.80 147.87 12.07
2298 30.3259 147.34 148.38 12.14
2299 30.3361 145.86 149.06 12.08
2300 30.3462 146.81 149.69 12.12
2301 30.3564 146.75 150.04 12.11
2302 30.3665 144.61 149.95 12.03
2303 30.3767 150.12 149.43 12.25
2304 30.3868 147.33 148.59 12.14
2305 30.3970 143.75 147.71 11.99
2306 30.4071 142.77 146.89 11.95
2307 30.4173 143.72 146.29 11.99
2308 30.4274 141.34 145.94 11.89
2309 30.4376 143.23 145.79 11.97
2310 30.4477 142.03 145.78 11.92
2311 30.4579 145.86 145.84 12.08
2312 30.4680 145.34 145.96 12.06
2313 30.4782 141.48 146.22 11.89
2314 30.4883 140.88 146.41 11.87
2315 30.4985 146.09 146.50 12.09
2316 30.5086 142.67 146.40 11.94
2317 30.5188 142.41 146.04 11.93
2318 30.5289 144.86 145.49 12.04
2319 30.5391 140.84 144.85 11.87
2320 30.5492 141.66 144.26 11.90
2321 30.5594 141.31 143.86 11.89
2322 30.5695 140.30 143.51 11.84
2323 30.5797 140.73 143.23 11.86
2324 30.5898 144.56 142.94 12.02
2325 30.6000 141.08 142.62 11.88
2326 30.6101 143.39 142.33 11.97
2327 30.6203 145.59 142.15 12.07
2328 30.6304 145.50 142.25 12.06
2329 30.6406 148.47 142.77 12.18
2330 30.6507 150.09 143.71 12.25
2331 30.6609 152.20 145.11 12.34
2332 30.6710 154.09 146.89 12.41
2333 30.6812 159.98 148.87 12.65
2334 30.6913 161.66 150.85 12.71
2335 30.7015 162.67 152.55 12.75
2336 30.7116 169.69 153.74 13.03
2337 30.7218 171.95 154.25 13.11
2338 30.7319 171.25 154.04 13.09
2339 30.7421 171.52 153.31 13.10
2340 30.7522 169.28 152.38 13.01
2341 30.7624 168.47 151.54 12.98
2342 30.7725 165.28 150.82 12.86
2343 30.7827 166.20 150.24 12.89
2344 30.7928 161.42 149.66 12.71
2345 30.8030 165.02 148.91 12.85
2346 30.8131 165.45 147.90 12.86
2347 30.8233 160.30 146.65 12.66
2348 30.8334 156.78 145.22 12.52
2349 30.8436 154.83 143.73 12.44
2350 30.8537 149.03 142.30 12.21
2351 30.8639 148.48 141.04 12.19
2352 30.8740 146.81 140.00 12.12
2353 30.8842 143.42 139.16 11.98
2354 30.8943 145.08 138.50 12.04
2355 30.9045 145.86 137.95 12.08
2356 30.9146 139.66 137.45 11.82
2357 30.9248 143.55 136.99 11.98
2358 30.9349 141.05 136.56 11.88
2359 30.9451 139.20 136.20 11.80
2360 30.9552 139.17 135.93 11.80
2361 30.9654 140.86 135.73 11.87
2362 30.9755 136.25 135.63 11.67
2363 30.9857 138.27 135.63 11.76
2364 30.9958 136.45 135.77 11.68
2365 31.0060 137.83 136.00 11.74
2366 31.0161 139.03 136.40 11.79
2367 31.0263 139.27 137.01 11.80
2368 31.0364 140.50 137.92 11.85
2369 31.0466 142.03 139.23 11.92
2370 31.0567 141.14 141.09 11.88
2371 31.0669 144.59 143.67 12.02
2372 31.0770 144.05 147.15 12.00
2373 31.0872 151.09 151.58 12.29
2374 31.0973 153.83 157.02 12.40
2375 31.1075 157.73 163.32 12.56
2376 31.1176 161.45 170.17 12.71
2377 31.1278 163.84 177.08 12.80
2378 31.1379 167.98 183.37 12.96
2379 31.1481 173.08 188.33 13.16
2380 31.1582 173.52 191.30 13.17
2381 31.1684 176.89 191.97 13.30
2382 31.1785 173.47 190.64 13.17
2383 31.1887 170.66 188.12 13.06
2384 31.1988 171.62 185.30 13.10
2385 31.2090 169.97 182.87 13.04
2386 31.2191 168.89 181.12 13.00
2387 31.2293 169.50 180.12 13.02
2388 31.2394 169.09 179.72 13.00
2389 31.2496 166.70 179.83 12.91
2390 31.2597 168.22 180.49 12.97
2391 31.2699 170.95 181.85 13.07
2392 31.2800 172.62 183.93 13.14
2393 31.2902 176.39 186.55 13.28
2394 31.3003 179.50 189.25 13.40
2395 31.3105 179.77 191.40 13.41
2396 31.3206 181.72 192.33 13.48
2397 31.3308 184.81 191.66 13.59
2398 31.3409 183.06 189.53 13.53
2399 31.3511 180.78 186.56 13.45
2400 31.3612 175.78 183.52 13.26
2401 31.3714 171.14 180.95 13.08
2402 31.3815 174.67 179.05 13.22
2403 31.3917 169.27 177.71 13.01
2404 31.4018 165.69 176.62 12.87
2405 31.4120 170.53 175.48 13.06
2406 31.4221 167.62 174.14 12.95
2407 31.4323 162.19 172.60 12.74
2408 31.4424 158.53 170.91 12.59
2409 31.4526 158.28 169.07 12.58
2410 31.4627 151.34 167.02 12.30
2411 31.4729 150.95 164.76 12.29
2412 31.4830 148.69 162.40 12.19
2413 31.4932 146.81 159.91 12.12
2414 31.5033 147.08 157.50 12.13
2415 31.5135 145.11 155.26 12.05
2416 31.5236 140.20 153.21 11.84
2417 31.5338 140.50 151.30 11.85
2418 31.5439 141.06 149.43 11.88
2419 31.5541 140.05 147.56 11.83
2420 31.5642 137.59 145.67 11.73
2421 31.5744 137.33 143.76 11.72
2422 31.5845 134.16 141.93 11.58
2423 31.5947 138.27 140.27 11.76
2424 31.6048 136.27 138.85 11.67
2425 31.6150 136.02 137.71 11.66
2426 31.6251 137.84 136.88 11.74
2427 31.6353 136.95 136.36 11.70
2428 31.6454 137.53 136.14 11.73
2429 31.6556 140.02 136.25 11.83
2430 31.6657 139.56 136.69 11.81
2431 31.6759 138.77 137.53 11.78
2432 31.6860 142.75 138.76 11.95
2433 31.6962 144.36 140.42 12.02
2434 31.7063 144.30 142.53 12.01
2435 31.7165 151.44 145.01 12.31
2436 31.7266 153.88 147.75 12.40
2437 31.7368 154.62 150.55 12.43
2438 31.7469 161.52 153.15 12.71
2439 31.7571 162.61 155.24 12.75
2440 31.7672 162.50 156.55 12.75
2441 31.7774 163.36 156.95 12.78
2442 31.7875 159.30 156.51 12.62
2443 31.7977 155.84 155.45 12.48
2444 31.8078 154.78 154.05 12.44
2445 31.8180 155.20 152.54 12.46
2446 31.8281 151.33 151.04 12.30
2447 31.8383 149.59 149.56 12.23
2448 31.8484 149.03 148.02 12.21
2449 31.8586 146.48 146.43 12.10
2450 31.8687 146.59 144.64 12.11
2451 31.8789 145.70 142.79 12.07
2452 31.8890 141.75 140.97 11.91
2453 31.8992 141.97 139.29 11.92
2454 31.9093 141.31 137.82 11.89
2455 31.9195 139.58 136.62 11.81
2456 31.9296 137.92 135.72 11.74
2457 31.9398 138.19 135.10 11.76
2458 31.9499 135.11 134.73 11.62
2459 31.9601 137.03 134.64 11.71
2460 31.9702 139.09 134.76 11.79
2461 31.9804 137.95 135.11 11.75
2462 31.9905 137.36 135.53 11.72
2463 32.0007 138.86 136.02 11.78
2464 32.0108 138.20 136.52 11.76
2465 32.0210 137.77 136.95 11.74
2466 32.0311 138.02 137.25 11.75
2467 32.0413 140.28 137.39 11.84
2468 32.0514 142.56 137.34 11.94
2469 32.0616 140.17 137.18 11.84
2470 32.0717 138.31 136.92 11.76
2471 32.0819 137.03 136.66 11.71
2472 32.0920 135.97 136.43 11.66
2473 32.1022 135.89 136.25 11.66
2474 32.1123 138.45 136.06 11.77
2475 32.1225 135.16 135.96 11.63
2476 32.1326 137.00 135.91 11.70
2477 32.1428 137.22 135.95 11.71
2478 32.1529 137.72 136.15 11.74
2479 32.1631 136.00 136.61 11.66
2480 32.1732 135.86 137.43 11.66
2481 32.1834 136.64 138.69 11.69
2482 32.1935 135.44 140.43 11.64
2483 32.2037 136.95 142.72 11.70
2484 32.2138 138.69 145.48 11.78
2485 32.2240 136.70 148.60 11.69
2486 32.2341 135.78 151.84 11.65
2487 32.2443 138.67 154.90 11.78
2488 32.2544 138.38 157.50 11.76
2489 32.2646 140.05 159.21 11.83
2490 32.2747 137.67 159.84 11.73
2491 32.2849 135.72 159.44 11.65
2492 32.2950 137.12 158.31 11.71
2493 32.3052 137.09 156.85 11.71
2494 32.3153 137.56 155.41 11.73
2495 32.3255 138.81 154.15 11.78
2496 32.3356 138.78 153.15 11.78
2497 32.3458 135.70 152.25 11.65
2498 32.3559 142.03 151.37 11.92
2499 32.3661 139.30 150.47 11.80
2500 32.3762 142.53 149.64 11.94
2501 32.3864 148.69 149.00 12.19
2502 32.3965 158.58 148.69 12.59
2503 32.4067 156.48 148.73 12.51
2504 32.4168 163.72 149.07 12.80
2505 32.4270 168.17 149.58 12.97
2506 32.4371 171.61 150.05 13.10
2507 32.4473 176.39 150.27 13.28
2508 32.4574 173.95 150.09 13.19
2509 32.4676 169.75 149.50 13.03
2510 32.4777 168.44 148.65 12.98
2511 32.4879 165.92 147.73 12.88
2512 32.4980 158.39 146.92 12.59
2513 32.5082 160.02 146.32 12.65
2514 32.5183 158.14 145.97 12.58
2515 32.5285 155.89 145.87 12.49
2516 32.5386 154.31 146.02 12.42
2517 32.5488 154.12 146.51 12.41
2518 32.5589 151.02 147.49 12.29
2519 32.5691 151.20 149.11 12.30
2520 32.5792 148.20 151.55 12.17
2521 32.5894 143.66 154.82 11.99
2522 32.5995 143.42 158.82 11.98
2523 32.6097 145.06 163.35 12.04
2524 32.6198 146.22 167.93 12.09
2525 32.6300 147.73 172.12 12.15
2526 32.6401 152.16 175.42 12.34
2527 32.6503 148.62 177.43 12.19
2528 32.6604 150.09 178.12 12.25
2529 32.6706 150.12 177.84 12.25
2530 32.6807 150.36 177.28 12.26
2531 32.6909 157.53 177.14 12.55
2532 32.7010 158.27 177.81 12.58
2533 32.7112 158.03 179.45 12.57
2534 32.7213 164.78 181.88 12.84
2535 32.7315 168.45 184.68 12.98
2536 32.7416 174.16 187.34 13.20
2537 32.7518 184.72 189.40 13.59
2538 32.7619 186.42 190.48 13.65
2539 32.7721 191.19 190.27 13.83
2540 32.7822 192.59 188.62 13.88
2541 32.7924 190.81 185.70 13.81
2542 32.8025 186.03 182.04 13.64
2543 32.8127 180.98 178.32 13.45
2544 32.8228 174.42 175.07 13.21
2545 32.8330 171.23 172.52 13.09
2546 32.8431 171.41 170.62 13.09
2547 32.8533 175.78 169.14 13.26
2548 32.8634 171.59 167.73 13.10
2549 32.8736 170.95 166.12 13.07
2550 32.8837 166.55 164.23 12.91
2551 32.8939 160.84 162.10 12.68
2552 32.9040 157.41 159.81 12.55
2553 32.9142 157.34 157.46 12.54
2554 32.9243 154.45 155.18 12.43
2555 32.9345 152.28 153.17 12.34
2556 32.9446 153.83 151.66 12.40
2557 32.9548 148.83 150.84 12.20
2558 32.9649 150.19 150.80 12.26
2559 32.9751 148.06 151.55 12.17
2560 32.9852 150.75 153.03 12.28
2561 32.9954 149.56 155.09 12.23
2562 33.0055 152.59 157.54 12.35
2563 33.0157 152.53 160.17 12.35
2564 33.0258 152.41 162.73 12.35
2565 33.0360 155.22 164.91 12.46
2566 33.0461 152.73 166.38 12.36
2567 33.0563 156.78 166.86 12.52
2568 33.0664 156.19 166.28 12.50
2569 33.0766 152.17 164.84 12.34
2570 33.0867 154.97 163.02 12.45
2571 33.0969 155.86 161.24 12.48
2572 33.1070 152.09 159.77 12.33
2573 33.1172 156.55 158.72 12.51
2574 33.1273 157.58 158.00 12.55
2575 33.1375 158.64 157.45 12.60
2576 33.1476 160.95 156.87 12.69
2577 33.1578 163.80 156.17 12.80
2578 33.1679 162.98 155.31 12.77
2579 33.1781 165.33 154.33 12.86
2580 33.1882 166.23 153.20 12.89
2581 33.1984 165.34 151.89 12.86
2582 33.2085 162.58 150.39 12.75
2583 33.2187 161.36 148.76 12.70
2584 33.2288 160.34 147.16 12.66
2585 33.2390 161.27 145.74 12.70
2586 33.2491 158.86 144.54 12.60
2587 33.2593 154.31 143.60 12.42
2588 33.2694 155.30 142.85 12.46
2589 33.2796 151.17 142.25 12.30
2590 33.2897 149.66 141.75 12.23
2591 33.2999 147.81 141.35 12.16
2592 33.3100 146.56 141.16 12.11
2593 33.3202 143.75 141.31 11.99
2594 33.3303 146.47 141.93 12.10
2595 33.3405 146.00 143.13 12.08
2596 33.3506 141.61 144.94 11.90
2597 33.3608 147.64 147.36 12.15
2598 33.3709 147.66 150.24 12.15
2599 33.3811 147.08 153.36 12.13
2600 33.3912 146.80 156.39 12.12
2601 33.4014 148.91 158.97 12.20
2602 33.4115 145.91 160.73 12.08
2603 33.4217 149.11 161.40 12.21
2604 33.4318 150.22 160.96 12.26
2605 33.4420 148.47 159.65 12.18
2606 33.4521 149.25 157.88 12.22
2607 33.4623 147.83 156.03 12.16
2608 33.4724 145.06 154.22 12.04
2609 33.4826 143.86 152.62 11.99
2610 33.4927 148.00 151.07 12.17
2611 33.5029 138.84 149.43 11.78
2612 33.5130 144.53 147.58 12.02
2613 33.5232 144.66 145.50 12.03
2614 33.5333 140.92 143.36 11.87
2615 33.5435 138.73 141.21 11.78
2616 33.5536 140.20 139.25 11.84
2617 33.5638 140.14 137.64 11.84
2618 33.5739 136.42 136.21 11.68
2619 33.5841 138.97 135.06 11.79
2620 33.5942 135.03 134.13 11.62
2621 33.6044 136.83 133.48 11.70
2622 33.6145 137.72 133.07 11.74
2623 33.6247 134.80 132.74 11.61
2624 33.6348 133.97 132.56 11.57
2625 33.6450 134.19 132.40 11.58
2626 33.6551 134.69 132.28 11.61
2627 33.6653 136.28 132.19 11.67
2628 33.6754 136.62 132.13 11.69
2629 33.6856 134.33 132.08 11.59
2630 33.6957 133.58 132.04 11.56
2631 33.7059 134.11 132.02 11.58
2632 33.7160 133.00 132.02 11.53
2633 33.7262 137.36 132.03 11.72
2634 33.7363 135.73 132.04 11.65
2635 33.7465 133.56 132.09 11.56
2636 33.7566 136.66 132.17 11.69
2637 33.7668 134.14 132.29 11.58
2638 33.7769 134.92 132.47 11.62
2639 33.7871 136.27 132.72 11.67
2640 33.7972 134.23 133.06 11.59
2641 33.8074 134.83 133.51 11.61
2642 33.8175 136.39 134.08 11.68
2643 33.8277 136.16 134.76 11.67
2644 33.8378 135.81 135.55 11.65
2645 33.8480 136.25 136.40 11.67
2646 33.8581 137.22 137.25 11.71
2647 33.8683 130.41 138.04 11.42
2648 33.8784 137.59 138.62 11.73
2649 33.8886 135.88 139.03 11.66
2650 33.8987 135.17 139.17 11.63
2651 33.9089 136.98 139.07 11.70
2652 33.9190 136.95 138.84 11.70
2653 33.9292 132.52 138.55 11.51
2654 33.9393 135.72 138.31 11.65
2655 33.9495 135.61 138.15 11.65
2656 33.9596 134.61 138.08 11.60
2657 33.9698 134.47 138.08 11.60
2658 33.9799 133.91 138.15 11.57
2659 33.9901 133.62 138.26 11.56
2660 34.0002 136.47 138.42 11.68
2661 34.0104 138.62 138.63 11.77
2662 34.0205 134.53 138.90 11.60
2663 34.0307 135.84 139.19 11.66
2664 34.0408 138.77 139.49 11.78
2665 34.0510 134.53 139.74 11.60
2666 34.0611 137.34 139.90 11.72
2667 34.0713 138.52 139.95 11.77
2668 34.0814 136.16 139.96 11.67
2669 34.0916 141.52 140.01 11.90
2670 34.1017 138.45 140.19 11.77
2671 34.1119 138.14 140.55 11.75
2672 34.1220 140.83 141.17 11.87
2673 34.1322 140.44 142.05 11.85
2674 34.1423 138.23 143.26 11.76
2675 34.1525 143.31 144.70 11.97
2676 34.1626 144.31 146.43 12.01
2677 34.1728 146.17 148.48 12.09
2678 34.1829 146.12 150.85 12.09
2679 34.1931 147.92 153.60 12.16
2680 34.2032 148.67 156.73 12.19
2681 34.2134 152.95 160.32 12.37
2682 34.2235 156.78 164.46 12.52
2683 34.2337 158.72 169.36 12.60
2684 34.2438 166.59 175.14 12.91
2685 34.2540 171.33 181.88 13.09
2686 34.2641 171.88 189.63 13.11
2687 34.2743 179.80 198.15 13.41
2688 34.2844 187.38 207.06 13.69
2689 34.2946 195.53 215.88 13.98
2690 34.3047 201.53 224.14 14.20
2691 34.3149 214.17 231.59 14.63
2692 34.3250 222.08 238.20 14.90
2693 34.3352 230.67 244.01 15.19
2694 34.3453 240.92 248.84 15.52
2695 34.3555 250.64 252.35 15.83
2696 34.3656 257.09 254.15 16.03
2697 34.3758 257.89 254.11 16.06
2698 34.3859 257.75 252.46 16.05
2699 34.3961 250.48 249.63 15.83
2700 34.4062 253.69 245.98 15.93
2701 34.4164 246.17 241.60 15.69
2702 34.4265 248.72 236.38 15.77
2703 34.4367 247.80 230.12 15.74
2704 34.4468 240.59 222.74 15.51
2705 34.4570 230.97 214.45 15.20
2706 34.4671 220.41 205.75 14.85
2707 34.4773 203.27 197.18 14.26
2708 34.4874 190.62 189.21 13.81
2709 34.4976 186.45 182.06 13.65
2710 34.5077 180.16 175.70 13.42
2711 34.5179 175.73 169.97 13.26
2712 34.5280 172.41 164.71 13.13
2713 34.5382 166.75 159.86 12.91
2714 34.5483 159.31 155.43 12.62
2715 34.5585 155.59 151.49 12.47
2716 34.5686 146.66 148.07 12.11
2717 34.5788 144.95 145.19 12.04
2718 34.5889 142.30 142.83 11.93
2719 34.5991 139.88 140.95 11.83
2720 34.6092 140.50 139.48 11.85
2721 34.6194 139.83 138.35 11.82
2722 34.6295 136.44 137.58 11.68
2723 34.6397 140.70 136.91 11.86
2724 34.6498 139.58 136.38 11.81
2725 34.6600 138.36 135.94 11.76
2726 34.6701 140.91 135.57 11.87
2727 34.6803 139.56 135.26 11.81
2728 34.6904 136.89 135.00 11.70
2729 34.7006 137.20 134.82 11.71
2730 34.7107 140.23 134.65 11.84
2731 34.7209 137.84 134.52 11.74
2732 34.7310 138.62 134.42 11.77
2733 34.7412 139.73 134.38 11.82
2734 34.7513 134.83 134.38 11.61
2735 34.7615 137.66 134.43 11.73
2736 34.7716 141.09 134.55 11.88
2737 34.7818 134.41 134.73 11.59
2738 34.7919 139.33 134.99 11.80
2739 34.8021 137.72 135.37 11.74
2740 34.8122 135.50 135.83 11.64
2741 34.8224 136.02 136.41 11.66
2742 34.8325 139.38 137.12 11.81
2743 34.8427 137.58 137.99 11.73
2744 34.8528 140.16 138.98 11.84
2745 34.8630 140.09 140.12 11.84
2746 34.8731 139.69 141.45 11.82
2747 34.8833 142.28 142.98 11.93
2748 34.8934 143.91 144.79 12.00
2749 34.9036 142.86 146.94 11.95
2750 34.9137 146.83 149.54 12.12
2751 34.9239 148.06 152.59 12.17
2752 34.9340 149.66 156.03 12.23
2753 34.9442 157.19 159.76 12.54
2754 34.9543 159.11 163.38 12.61
2755 34.9645 159.83 166.46 12.64
2756 34.9746 167.34 168.71 12.94
2757 34.9848 163.52 169.77 12.79
2758 34.9949 161.62 169.60 12.71
2759 35.0051 163.06 168.50 12.77
2760 35.0152 159.17 166.84 12.62
2761 35.0254 155.52 165.05 12.47
2762 35.0355 155.66 163.44 12.48
2763 35.0457 155.78 162.11 12.48
2764 35.0558 150.39 161.01 12.26
2765 35.0660 157.52 159.86 12.55
2766 35.0761 157.80 158.49 12.56
2767 35.0863 152.03 156.79 12.33
2768 35.0964 152.91 154.73 12.37
2769 35.1066 153.06 152.44 12.37
2770 35.1167 146.81 150.15 12.12
2771 35.1269 153.94 148.04 12.41
2772 35.1370 153.70 146.25 12.40
2773 35.1472 152.81 144.79 12.36
2774 35.1573 154.72 143.69 12.44
2775 35.1675 157.25 142.99 12.54
2776 35.1776 155.17 142.40 12.46
2777 35.1878 159.97 141.90 12.65
2778 35.1979 160.77 141.42 12.68
2779 35.2081 157.12 140.93 12.53
2780 35.2182 157.52 140.36 12.55
2781 35.2284 152.94 139.98 12.37
2782 35.2385 148.84 139.66 12.20
2783 35.2487 150.48 139.51 12.27
2784 35.2588 148.55 139.56 12.19
2785 35.2690 148.44 139.85 12.18
2786 35.2791 151.44 140.40 12.31
2787 35.2893 153.17 141.21 12.38
2788 35.2994 150.31 142.43 12.26
2789 35.3096 152.28 144.02 12.34
2790 35.3197 151.89 146.11 12.32
2791 35.3299 152.48 148.67 12.35
2792 35.3400 156.06 151.64 12.49
2793 35.3502 160.22 154.92 12.66
2794 35.3603 161.97 158.35 12.73
2795 35.3705 164.98 161.68 12.84
2796 35.3806 166.48 164.77 12.90
2797 35.3908 166.25 167.35 12.89
2798 35.4009 172.70 169.40 13.14
2799 35.4111 171.11 171.01 13.08
2800 35.4212 169.98 172.41 13.04
2801 35.4314 174.17 173.75 13.20
2802 35.4415 178.48 175.06 13.36
2803 35.4517 178.88 176.27 13.37
2804 35.4618 183.06 177.22 13.53
2805 35.4720 186.45 177.85 13.65
2806 35.4821 184.53 178.11 13.58
2807 35.4923 194.36 178.18 13.94
2808 35.5024 195.16 178.23 13.97
2809 35.5126 197.86 178.39 14.07
2810 35.5227 201.48 178.72 14.19
2811 35.5329 205.06 179.04 14.32
2812 35.5430 203.78 179.23 14.28
2813 35.5532 200.62 179.15 14.16
2814 35.5633 197.78 178.80 14.06
2815 35.5735 189.27 178.24 13.76
2816 35.5836 189.67 177.64 13.77
2817 35.5938 184.80 177.13 13.59
2818 35.6039 180.44 176.83 13.43
2819 35.6141 182.38 176.88 13.50
2820 35.6242 181.38 177.44 13.47
2821 35.6344 180.77 178.73 13.44
2822 35.6446 181.33 181.02 13.47
2823 35.6547 183.69 184.48 13.55
2824 35.6648 181.98 189.19 13.49
2825 35.6750 183.62 195.08 13.55
2826 35.6852 188.64 201.88 13.73
2827 35.6953 194.55 209.15 13.95
2828 35.7054 199.48 216.32 14.12
2829 35.7156 203.86 222.77 14.28
2830 35.7257 207.30 227.98 14.40
2831 35.7359 211.97 231.68 14.56
2832 35.7460 223.11 234.02 14.94
2833 35.7562 220.55 235.33 14.85
2834 35.7663 228.89 236.16 15.13
2835 35.7765 237.86 236.85 15.42
2836 35.7866 240.45 237.45 15.51
2837 35.7968 245.88 237.82 15.68
2838 35.8069 248.61 237.70 15.77
2839 35.8171 248.59 236.87 15.77
2840 35.8272 249.05 235.20 15.78
2841 35.8374 252.17 232.69 15.88
2842 35.8475 248.28 229.37 15.76
2843 35.8577 248.62 225.50 15.77
2844 35.8678 245.41 221.19 15.67
2845 35.8780 237.47 216.66 15.41
2846 35.8881 237.22 212.24 15.40
2847 35.8983 229.20 208.29 15.14
2848 35.9085 221.98 205.11 14.90
2849 35.9186 221.81 202.84 14.89
2850 35.9287 218.75 201.44 14.79
2851 35.9389 220.77 200.75 14.86
2852 35.9491 218.25 200.57 14.77
2853 35.9592 213.52 200.62 14.61
2854 35.9693 205.19 200.72 14.32
2855 35.9795 201.69 200.68 14.20
2856 35.9897 196.11 200.24 14.00
2857 35.9998 187.58 199.12 13.70
2858 36.0099 183.95 197.03 13.56
2859 36.0201 182.08 193.94 13.49
2860 36.0303 173.69 190.06 13.18
2861 36.0404 176.50 185.80 13.29
2862 36.0505 170.88 181.57 13.07
2863 36.0607 163.69 177.68 12.79
2864 36.0709 165.36 174.23 12.86
2865 36.0810 156.80 171.18 12.52
2866 36.0911 158.55 168.37 12.59
2867 36.1013 154.62 165.61 12.43
2868 36.1115 150.23 162.81 12.26
2869 36.1216 147.81 160.03 12.16
2870 36.1318 149.41 157.45 12.22
2871 36.1419 145.61 155.29 12.07
2872 36.1521 146.69 153.73 12.11
2873 36.1622 147.50 152.91 12.15
2874 36.1724 147.25 152.88 12.13
2875 36.1825 144.31 153.64 12.01
2876 36.1926 147.78 155.08 12.16
2877 36.2028 151.45 157.03 12.31
2878 36.2130 148.78 159.25 12.20
2879 36.2231 153.50 161.43 12.39
2880 36.2332 155.84 163.24 12.48
2881 36.2434 153.38 164.41 12.38
2882 36.2536 155.62 164.80 12.48
2883 36.2637 155.06 164.46 12.45
2884 36.2738 157.31 163.71 12.54
2885 36.2840 155.59 162.89 12.47
2886 36.2942 149.95 162.33 12.25
2887 36.3043 153.88 162.24 12.40
2888 36.3144 154.66 162.71 12.44
2889 36.3246 156.66 163.72 12.52
2890 36.3348 157.53 165.13 12.55
2891 36.3449 160.23 166.86 12.66
2892 36.3550 161.62 168.71 12.71
2893 36.3652 160.02 170.62 12.65
2894 36.3754 165.14 172.44 12.85
2895 36.3855 165.22 174.03 12.85
2896 36.3957 166.12 175.20 12.89
2897 36.4058 169.22 175.84 13.01
2898 36.4160 174.06 175.95 13.19
2899 36.4261 171.77 175.60 13.11
2900 36.4363 175.14 174.98 13.23
2901 36.4464 174.80 174.06 13.22
2902 36.4566 172.64 172.88 13.14
2903 36.4667 169.25 171.46 13.01
2904 36.4769 173.20 169.82 13.16
2905 36.4870 162.28 168.04 12.74
2906 36.4972 162.50 166.25 12.75
2907 36.5073 163.91 164.55 12.80
2908 36.5175 164.31 163.08 12.82
2909 36.5276 165.11 162.06 12.85
2910 36.5378 167.48 161.43 12.94
2911 36.5479 164.62 161.28 12.83
2912 36.5581 170.16 161.65 13.04
2913 36.5682 173.91 162.44 13.19
2914 36.5784 174.22 163.58 13.20
2915 36.5885 178.20 164.93 13.35
2916 36.5987 179.14 166.22 13.38
2917 36.6088 177.61 167.12 13.33
2918 36.6190 183.08 167.46 13.53
2919 36.6291 181.81 166.99 13.48
2920 36.6393 179.61 165.80 13.40
2921 36.6494 178.38 164.07 13.36
2922 36.6596 173.95 162.12 13.19
2923 36.6697 171.23 160.21 13.09
2924 36.6799 171.36 158.48 13.09
2925 36.6900 168.62 156.99 12.99
2926 36.7002 163.00 155.63 12.77
2927 36.7103 165.86 154.27 12.88
2928 36.7205 162.27 152.77 12.74
2929 36.7306 158.11 151.08 12.57
2930 36.7408 158.20 149.21 12.58
2931 36.7509 154.00 147.24 12.41
2932 36.7611 149.31 145.38 12.22
2933 36.7712 150.86 143.66 12.28
2934 36.7814 147.22 142.18 12.13
2935 36.7915 141.95 140.96 11.91
2936 36.8017 142.38 139.99 11.93
2937 36.8118 143.67 139.25 11.99
2938 36.8220 137.58 138.71 11.73
2939 36.8321 140.08 138.31 11.84
2940 36.8423 140.78 138.05 11.87
2941 36.8524 137.45 137.92 11.72
2942 36.8626 140.08 137.88 11.84
2943 36.8727 138.61 137.94 11.77
2944 36.8829 139.27 138.11 11.80
2945 36.8930 142.77 138.29 11.95
2946 36.9032 141.05 138.61 11.88
2947 36.9133 140.09 138.98 11.84
2948 36.9235 143.47 139.36 11.98
2949 36.9336 143.28 139.73 11.97
2950 36.9438 143.02 140.04 11.96
2951 36.9539 147.12 140.26 12.13
2952 36.9641 148.45 140.35 12.18
2953 36.9742 146.31 140.33 12.10
2954 36.9844 145.92 140.21 12.08
2955 36.9945 141.95 140.02 11.91
2956 37.0047 143.03 139.85 11.96
2957 37.0148 147.75 139.72 12.16
2958 37.0250 145.55 139.64 12.06
2959 37.0351 142.98 139.63 11.96
2960 37.0453 143.77 139.64 11.99
2961 37.0554 143.28 139.68 11.97
2962 37.0656 140.23 139.76 11.84
2963 37.0757 144.53 139.90 12.02
2964 37.0859 145.47 140.13 12.06
2965 37.0960 143.22 140.50 11.97
2966 37.1062 147.80 141.06 12.16
2967 37.1163 148.42 141.85 12.18
2968 37.1265 145.22 142.92 12.05
2969 37.1366 147.11 144.27 12.13
2970 37.1468 151.73 145.86 12.32
2971 37.1569 149.78 147.73 12.24
2972 37.1671 155.66 149.78 12.48
2973 37.1772 154.39 151.94 12.43
2974 37.1874 155.77 154.13 12.48
2975 37.1975 156.89 156.27 12.53
2976 37.2077 162.86 158.34 12.76
2977 37.2178 164.70 160.40 12.83
2978 37.2280 168.70 162.59 12.99
2979 37.2381 165.98 165.15 12.88
2980 37.2483 168.97 168.39 13.00
2981 37.2584 174.67 172.52 13.22
2982 37.2686 180.14 177.65 13.42
2983 37.2787 183.91 183.67 13.56
2984 37.2889 193.09 190.32 13.90
2985 37.2990 205.30 197.13 14.33
2986 37.3092 209.89 203.57 14.49
2987 37.3193 220.03 209.00 14.83
2988 37.3295 228.00 212.90 15.10
2989 37.3396 230.42 215.01 15.18
2990 37.3498 235.92 215.39 15.36
2991 37.3599 233.11 214.44 15.27
2992 37.3701 227.41 212.62 15.08
2993 37.3802 222.70 210.45 14.92
2994 37.3904 218.28 208.32 14.77
2995 37.4005 212.73 206.48 14.59
2996 37.4107 213.22 204.87 14.60
2997 37.4208 208.72 203.26 14.45
2998 37.4310 206.17 201.27 14.36
2999 37.4411 208.03 198.62 14.42
3000 37.4513 200.19 195.14 14.15
3001 37.4614 198.22 190.91 14.08
3002 37.4716 194.70 186.21 13.95
3003 37.4817 187.14 181.44 13.68
3004 37.4919 174.86 177.06 13.22
3005 37.5020 172.17 173.41 13.12
3006 37.5122 167.14 170.67 12.93
3007 37.5223 162.34 168.86 12.74
3008 37.5325 165.59 167.96 12.87
3009 37.5426 164.39 167.72 12.82
3010 37.5528 163.66 167.89 12.79
3011 37.5629 165.20 168.21 12.85
3012 37.5731 169.69 168.43 13.03
3013 37.5832 165.83 168.32 12.88
3014 37.5934 168.59 167.71 12.98
3015 37.6035 168.25 166.50 12.97
3016 37.6137 161.22 164.79 12.70
3017 37.6238 159.05 162.76 12.61
3018 37.6340 154.47 160.70 12.43
3019 37.6441 151.86 158.81 12.32
3020 37.6543 152.73 157.20 12.36
3021 37.6644 149.98 155.88 12.25
3022 37.6746 150.36 154.79 12.26
3023 37.6847 149.02 153.82 12.21
3024 37.6949 149.81 152.83 12.24
3025 37.7050 147.94 151.79 12.16
3026 37.7152 148.36 150.70 12.18
3027 37.7253 146.72 149.62 12.11
3028 37.7355 144.41 148.65 12.02
3029 37.7456 143.84 147.83 11.99
3030 37.7558 139.94 147.19 11.83
3031 37.7659 140.64 146.71 11.86
3032 37.7761 141.94 146.35 11.91
3033 37.7862 142.39 146.08 11.93
3034 37.7964 140.06 145.83 11.83
3035 37.8065 142.27 145.63 11.93
3036 37.8167 143.38 145.49 11.97
3037 37.8268 141.67 145.49 11.90
3038 37.8370 141.36 145.65 11.89
3039 37.8471 142.08 146.02 11.92
3040 37.8573 139.42 146.60 11.81
3041 37.8674 140.34 147.41 11.85
3042 37.8776 143.41 148.41 11.98
3043 37.8877 143.28 149.55 11.97
3044 37.8979 142.03 150.74 11.92
3045 37.9080 145.61 151.89 12.07
3046 37.9182 147.06 152.87 12.13
3047 37.9283 146.14 153.58 12.09
3048 37.9385 146.20 153.91 12.09
3049 37.9486 143.48 153.85 11.98
3050 37.9588 147.64 153.47 12.15
3051 37.9689 144.61 152.91 12.03
3052 37.9791 142.39 152.35 11.93
3053 37.9892 143.77 151.91 11.99
3054 37.9994 143.16 151.67 11.96
3055 38.0095 140.86 151.65 11.87
3056 38.0197 148.30 151.78 12.18
3057 38.0298 148.11 151.97 12.17
3058 38.0400 149.05 152.09 12.21
3059 38.0501 152.00 152.05 12.33
3060 38.0603 154.75 151.80 12.44
3061 38.0704 156.33 151.32 12.50
3062 38.0806 156.86 150.60 12.52
3063 38.0907 154.55 149.75 12.43
3064 38.1009 152.47 148.71 12.35
3065 38.1110 154.34 147.61 12.42
3066 38.1212 149.52 146.62 12.23
3067 38.1313 147.61 145.62 12.15
3068 38.1415 147.28 144.77 12.14
3069 38.1516 145.03 144.03 12.04
3070 38.1618 143.89 143.38 12.00
3071 38.1719 146.83 142.78 12.12
3072 38.1821 146.62 142.20 12.11
3073 38.1922 143.77 141.66 11.99
3074 38.2024 143.92 141.04 12.00
3075 38.2125 144.33 140.41 12.01
3076 38.2227 140.81 139.81 11.87
3077 38.2328 138.75 139.24 11.78
3078 38.2430 139.05 138.74 11.79
3079 38.2531 137.41 138.36 11.72
3080 38.2633 140.86 138.01 11.87
3081 38.2734 138.45 137.73 11.77
3082 38.2836 136.38 137.48 11.68
3083 38.2937 137.75 137.37 11.74
3084 38.3039 134.80 137.26 11.61
3085 38.3140 137.12 137.19 11.71
3086 38.3242 138.48 137.15 11.77
3087 38.3343 140.66 137.13 11.86
3088 38.3445 135.47 137.12 11.64
3089 38.3546 139.20 137.14 11.80
3090 38.3648 137.61 137.19 11.73
3091 38.3749 135.83 137.23 11.65
3092 38.3851 135.69 137.33 11.65
3093 38.3952 138.69 137.46 11.78
3094 38.4054 135.70 137.63 11.65
3095 38.4155 139.23 137.85 11.80
3096 38.4257 137.02 138.19 11.71
3097 38.4358 139.72 138.53 11.82
3098 38.4460 139.02 138.99 11.79
3099 38.4561 139.80 139.46 11.82
3100 38.4663 137.58 139.96 11.73
3101 38.4764 142.75 140.53 11.95
3102 38.4866 140.38 141.12 11.85
3103 38.4967 141.62 141.72 11.90
3104 38.5069 140.16 142.32 11.84
3105 38.5170 144.70 142.92 12.03
3106 38.5272 143.31 143.55 11.97
3107 38.5373 143.14 144.29 11.96
3108 38.5475 143.98 145.15 12.00
3109 38.5576 143.31 146.15 11.97
3110 38.5678 143.30 147.30 11.97
3111 38.5779 146.14 148.58 12.09
3112 38.5881 147.28 149.93 12.14
3113 38.5982 150.98 151.27 12.29
3114 38.6084 155.09 152.50 12.45
3115 38.6185 155.02 153.53 12.45
3116 38.6287 156.03 154.35 12.49
3117 38.6388 160.06 155.00 12.65
3118 38.6490 160.80 155.41 12.68
3119 38.6591 159.39 155.63 12.62
3120 38.6693 160.66 155.64 12.68
3121 38.6794 159.61 155.44 12.63
3122 38.6896 160.17 155.07 12.66
3123 38.6997 158.50 154.56 12.59
3124 38.7099 155.34 153.97 12.46
3125 38.7200 159.66 153.36 12.64
3126 38.7302 156.92 152.76 12.53
3127 38.7403 153.33 152.18 12.38
3128 38.7505 155.31 151.62 12.46
3129 38.7606 157.02 151.06 12.53
3130 38.7708 153.33 150.49 12.38
3131 38.7809 155.45 149.91 12.47
3132 38.7911 152.36 149.35 12.34
3133 38.8012 149.06 148.88 12.21
3134 38.8114 150.34 148.57 12.26
3135 38.8215 149.91 148.51 12.24
3136 38.8317 147.25 148.81 12.13
3137 38.8418 151.17 149.53 12.30
3138 38.8520 150.98 150.77 12.29
3139 38.8621 150.52 152.60 12.27
3140 38.8723 152.48 155.07 12.35
3141 38.8824 152.09 158.29 12.33
3142 38.8926 152.11 162.21 12.33
3143 38.9027 157.83 166.80 12.56
3144 38.9129 156.59 171.98 12.51
3145 38.9230 159.11 177.59 12.61
3146 38.9332 162.94 183.39 12.76
3147 38.9433 168.11 189.17 12.97
3148 38.9535 166.89 194.66 12.92
3149 38.9636 174.77 199.77 13.22
3150 38.9738 180.56 204.53 13.44
3151 38.9839 180.89 209.18 13.45
3152 38.9941 188.92 213.96 13.74
3153 39.0042 196.41 218.96 14.01
3154 39.0144 198.95 224.17 14.11
3155 39.0245 212.97 229.42 14.59
3156 39.0347 217.61 234.54 14.75
3157 39.0448 225.89 239.34 15.03
3158 39.0550 239.94 243.60 15.49
3159 39.0651 245.50 247.03 15.67
3160 39.0753 250.97 249.29 15.84
3161 39.0854 260.19 250.06 16.13
3162 39.0956 261.61 249.21 16.17
3163 39.1057 255.08 246.85 15.97
3164 39.1159 258.00 243.35 16.06
3165 39.1260 257.47 239.21 16.05
3166 39.1362 243.78 234.81 15.61
3167 39.1463 250.28 230.61 15.82
3168 39.1565 244.31 226.84 15.63
3169 39.1666 235.77 223.63 15.35
3170 39.1768 235.28 220.93 15.34
3171 39.1869 229.56 218.58 15.15
3172 39.1971 220.89 216.46 14.86
3173 39.2072 219.39 214.57 14.81
3174 39.2174 219.28 213.02 14.81
3175 39.2275 211.06 211.90 14.53
3176 39.2377 213.20 211.24 14.60
3177 39.2478 210.00 210.92 14.49
3178 39.2580 206.41 210.78 14.37
3179 39.2681 207.56 210.56 14.41
3180 39.2783 205.20 210.09 14.32
3181 39.2884 202.64 209.34 14.24
3182 39.2986 195.59 208.48 13.99
3183 39.3087 195.56 207.79 13.98
3184 39.3189 193.70 207.56 13.92
3185 39.3290 195.84 207.94 13.99
3186 39.3392 197.03 208.86 14.04
3187 39.3493 195.45 210.04 13.98
3188 39.3595 201.77 211.04 14.20
3189 39.3696 202.48 211.40 14.23
3190 39.3798 200.64 210.73 14.16
3191 39.3899 202.31 208.93 14.22
3192 39.4001 200.92 206.18 14.17
3193 39.4102 194.47 202.93 13.95
3194 39.4204 190.55 199.68 13.80
3195 39.4305 188.38 196.88 13.73
3196 39.4407 181.98 194.78 13.49
3197 39.4508 181.55 193.41 13.47
3198 39.4610 184.73 192.64 13.59
3199 39.4711 184.47 192.21 13.58
3200 39.4813 184.22 191.80 13.57
3201 39.4914 188.38 191.19 13.73
3202 39.5016 185.19 190.23 13.61
3203 39.5117 190.75 188.89 13.81
3204 39.5219 191.55 187.21 13.84
3205 39.5320 182.75 185.22 13.52
3206 39.5422 184.83 182.98 13.60
3207 39.5523 183.09 180.54 13.53
3208 39.5625 180.23 178.04 13.43
3209 39.5726 180.42 175.64 13.43
3210 39.5828 178.36 173.41 13.36
3211 39.5929 176.33 171.35 13.28
3212 39.6031 175.55 169.41 13.25
3213 39.6132 172.42 167.56 13.13
3214 39.6234 171.95 165.67 13.11
3215 39.6335 173.80 163.74 13.18
3216 39.6437 169.94 161.74 13.04
3217 39.6538 162.47 159.74 12.75
3218 39.6640 164.41 157.79 12.82
3219 39.6741 160.80 156.02 12.68
3220 39.6843 153.48 154.52 12.39
3221 39.6944 157.62 153.37 12.55
3222 39.7046 154.72 152.57 12.44
3223 39.7147 152.22 152.15 12.34
3224 39.7249 157.36 152.09 12.54
3225 39.7350 154.05 152.37 12.41
3226 39.7452 152.86 153.02 12.36
3227 39.7553 154.25 153.88 12.42
3228 39.7655 159.66 154.93 12.64
3229 39.7756 155.66 156.09 12.48
3230 39.7858 156.30 157.16 12.50
3231 39.7959 159.11 158.05 12.61
3232 39.8061 159.91 158.65 12.65
3233 39.8162 163.66 158.94 12.79
3234 39.8264 164.86 158.95 12.84
3235 39.8365 164.05 158.72 12.81
3236 39.8467 166.36 158.34 12.90
3237 39.8568 165.27 157.87 12.86
3238 39.8670 166.77 157.40 12.91
3239 39.8771 167.84 157.02 12.96
3240 39.8873 167.23 156.79 12.93
3241 39.8974 160.78 156.75 12.68
3242 39.9076 163.92 156.92 12.80
3243 39.9177 161.98 157.28 12.73
3244 39.9279 163.38 157.93 12.78
3245 39.9380 165.75 158.81 12.87
3246 39.9482 168.78 159.85 12.99
3247 39.9583 163.70 160.96 12.79
3248 39.9685 169.25 161.99 13.01
3249 39.9786 164.45 162.75 12.82
3250 39.9888 168.36 163.17 12.98
3251 39.9989 169.30 163.07 13.01
loop_
_pd_proc_info_excluded_regions
'from 2.997 to 7.000'
'from 35 to 50.055'
