#------------------------------------------------------------------------------
#$Date: 2021-06-26 03:42:15 +0300 (Sat, 26 Jun 2021) $
#$Revision: 266706 $
#$URL: file:///home/coder/svn-repositories/cod/cif/1/56/37/1563711.cif $
#------------------------------------------------------------------------------
#
# This file is available in the Crystallography Open Database (COD),
# http://www.crystallography.net/
#
# All data on this site have been placed in the public domain by the
# contributors.
#
data_1563711
loop_
_publ_author_name
'Lv, Guangwei'
'Li, Ling'
'Lu, Di'
'Xu, Zhiyuan'
'Dong, Yixin'
'Li, Qiaohui'
'Chang, Zhitao'
'Yin, Wan-Jian'
'Liu, Yongsheng'
_publ_section_title
;
 Multiple-Noncovalent-Interaction-Stabilized Layered Dion-Jacobson
 Perovskite for Efficient Solar Cells.
;
_journal_name_full               'Nano letters'
_journal_paper_doi               10.1021/acs.nanolett.1c01505
_journal_year                    2021
_chemical_formula_sum            'C8 H10 F4 I4 N2 Pb'
_chemical_formula_weight         924.97
_space_group_crystal_system      monoclinic
_space_group_IT_number           14
_space_group_name_Hall           '-P 2ybc'
_space_group_name_H-M_alt        'P 1 21/c 1'
_atom_sites_solution_hydrogens   geom
_audit_creation_method           SHELXL-2018/3
_cell_angle_alpha                90
_cell_angle_beta                 97.9420(10)
_cell_angle_gamma                90
_cell_formula_units_Z            2
_cell_length_a                   13.0661(4)
_cell_length_b                   8.5368(3)
_cell_length_c                   8.5165(3)
_cell_measurement_reflns_used    7658
_cell_measurement_temperature    210(2)
_cell_measurement_theta_max      53.88
_cell_measurement_theta_min      2.97
_cell_volume                     940.84(6)
_computing_structure_refinement  'SHELXL-2018/3 (Sheldrick, 2018)'
_computing_structure_solution    'SHELXT 2014/5 (Sheldrick, 2014)'
_diffrn_ambient_temperature      210(2)
_diffrn_measured_fraction_theta_full 0.999
_diffrn_measured_fraction_theta_max 0.999
_diffrn_measurement_device_type  'Bruker APEX-II CCD'
_diffrn_measurement_method       '\f and \w scans'
_diffrn_radiation_type           GaK\a
_diffrn_radiation_wavelength     1.34139
_diffrn_reflns_av_R_equivalents  0.0646
_diffrn_reflns_av_unetI/netI     0.0460
_diffrn_reflns_Laue_measured_fraction_full 0.999
_diffrn_reflns_Laue_measured_fraction_max 0.999
_diffrn_reflns_limit_h_max       15
_diffrn_reflns_limit_h_min       -15
_diffrn_reflns_limit_k_max       10
_diffrn_reflns_limit_k_min       -8
_diffrn_reflns_limit_l_max       7
_diffrn_reflns_limit_l_min       -10
_diffrn_reflns_number            8161
_diffrn_reflns_point_group_measured_fraction_full 0.999
_diffrn_reflns_point_group_measured_fraction_max 0.999
_diffrn_reflns_theta_full        53.594
_diffrn_reflns_theta_max         53.879
_diffrn_reflns_theta_min         2.971
_exptl_absorpt_coefficient_mu    47.312
_exptl_absorpt_correction_T_max  0.3012
_exptl_absorpt_correction_T_min  0.1258
_exptl_absorpt_correction_type   multi-scan
_exptl_absorpt_process_details   sadabs
_exptl_crystal_density_diffrn    3.265
_exptl_crystal_description       block
_exptl_crystal_F_000             804
_exptl_crystal_size_max          0.120
_exptl_crystal_size_mid          0.110
_exptl_crystal_size_min          0.080
_refine_diff_density_max         2.452
_refine_diff_density_min         -2.650
_refine_diff_density_rms         0.339
_refine_ls_extinction_coef       0.0041(2)
_refine_ls_extinction_expression Fc^*^=kFc[1+0.001xFc^2^\l^3^/sin(2\q)]^-1/4^
_refine_ls_extinction_method     'SHELXL-2018/3 (Sheldrick 2018)'
_refine_ls_goodness_of_fit_ref   1.123
_refine_ls_hydrogen_treatment    constr
_refine_ls_matrix_type           full
_refine_ls_number_parameters     90
_refine_ls_number_reflns         1722
_refine_ls_number_restraints     18
_refine_ls_restrained_S_all      1.122
_refine_ls_R_factor_all          0.0394
_refine_ls_R_factor_gt           0.0390
_refine_ls_shift/su_max          0.001
_refine_ls_shift/su_mean         0.000
_refine_ls_structure_factor_coef Fsqd
_refine_ls_weighting_details
'w=1/[\s^2^(Fo^2^)+(0.0568P)^2^+7.0880P] where P=(Fo^2^+2Fc^2^)/3'
_refine_ls_weighting_scheme      calc
_refine_ls_wR_factor_gt          0.1028
_refine_ls_wR_factor_ref         0.1032
_reflns_Friedel_coverage         0.000
_reflns_number_gt                1699
_reflns_number_total             1722
_reflns_threshold_expression     'I > 2\s(I)'
_cod_data_source_file            nl1c01505_si_002.cif
_cod_data_source_block           11_a
_cod_original_sg_symbol_H-M      'P 21/c'
_cod_database_code               1563711
_shelx_shelxl_version_number     2018/3
_shelx_space_group_comment
;
The symmetry employed for this shelxl refinement is uniquely defined
by the following loop, which should always be used as a source of
symmetry information in preference to the above space-group names.
They are only intended as comments.
;
_shelx_estimated_absorpt_t_min   0.070
_shelx_estimated_absorpt_t_max   0.116
_shelx_res_file
;
TITL 11_a.res in P2(1)/c
    11_a.res
    created by SHELXL-2018/3 at 19:11:12 on 28-Jun-2020
CELL  1.34139  13.0661   8.5368   8.5165   90.000   97.942   90.000
ZERR    2.000   0.0004   0.0003   0.0003    0.000    0.001    0.000
LATT 1
SYMM -X, 1/2+Y, 1/2-Z
SFAC C  H  F  I  N  Pb
UNIT 16 20 8 8 4 2
L.S. 10
ACTA
BOND $H
FMAP 2
SIZE .12 .11 .08
PLAN 20
LIST 6
ISOR .001 C1 C3 N1
TEMP -63.130
WGHT    0.056800    7.088000
EXTI    0.004123
FVAR       0.29043
C1    1    0.563093    0.389786    0.580587    11.00000    0.02352    0.02419 =
         0.02441   -0.00006    0.00228    0.00025
C2    1    0.465236    0.419438    0.621060    11.00000    0.01147    0.03412 =
         0.02730   -0.00098   -0.00281   -0.00586
C3    1    0.400515    0.528747    0.542843    11.00000    0.02368    0.02492 =
         0.02456   -0.00045    0.00300    0.00018
C4    1    0.294333    0.563028    0.584579    11.00000    0.01236    0.03761 =
         0.04011   -0.00850    0.00289   -0.00148
AFIX  23
H4A   2    0.292042    0.536727    0.696049    11.00000   -1.20000
H4B   2    0.279204    0.674959    0.570223    11.00000   -1.20000
AFIX   0
F1    3    0.621306    0.280626    0.658940    11.00000    0.02125    0.04515 =
         0.05360    0.01467   -0.00997    0.01223
F2    3    0.436244    0.339929    0.742386    11.00000    0.02956    0.05559 =
         0.04032    0.01460    0.00071   -0.00645
I1    4   -0.038494    0.182604    0.809440    11.00000    0.01942    0.02777 =
         0.02719   -0.01075    0.00720   -0.00458
I2    4    0.243987    0.437840    1.064230    11.00000    0.01241    0.03596 =
         0.03882   -0.00020    0.00121    0.00204
N1    5    0.215066    0.469509    0.481351    11.00000    0.02250    0.03025 =
         0.03061   -0.00239    0.00152   -0.00027
AFIX 137
H1A   2    0.224892    0.480324    0.379379    11.00000   -1.50000
H1B   2    0.151534    0.504019    0.493411    11.00000   -1.50000
H1C   2    0.221014    0.367839    0.509066    11.00000   -1.50000
AFIX   0
PB1   6    0.000000    0.500000    1.000000    10.50000    0.01050    0.02095 =
         0.01957    0.00063    0.00028   -0.00042
HKLF 4




REM  11_a.res in P2(1)/c
REM wR2 = 0.1032, GooF = S = 1.123, Restrained GooF = 1.122 for all data
REM R1 = 0.0390 for 1699 Fo > 4sig(Fo) and 0.0394 for all 1722 data
REM 90 parameters refined using 18 restraints

END

WGHT      0.0566      7.1318

REM Highest difference peak  2.452,  deepest hole -2.650,  1-sigma level  0.339
Q1    1  -0.1061  0.5047  1.0337  11.00000  0.05    2.45
Q2    1   0.1380  0.4402  1.1053  11.00000  0.05    1.61
Q3    1  -0.0024  0.4831  1.1009  11.00000  0.05    1.60
Q4    1   0.0668  0.1754  0.7788  11.00000  0.05    1.59
Q5    1   0.3485  0.4384  1.0249  11.00000  0.05    1.47
Q6    1   0.2448  0.4207  0.9707  11.00000  0.05    1.45
Q7    1  -0.1439  0.1797  0.8446  11.00000  0.05    1.39
Q8    1   0.2240  0.3798  1.1057  11.00000  0.05    1.39
Q9    1   0.2389  0.4137  1.1293  11.00000  0.05    1.30
Q10   1  -0.0189  0.5671  1.0593  11.00000  0.05    1.21
Q11   1   0.0053  0.3144  0.9343  11.00000  0.05    1.13
Q12   1  -0.0402  0.1532  0.8838  11.00000  0.05    1.06
Q13   1   0.2225  0.5061  0.4252  11.00000  0.05    1.04
Q14   1   0.2419  0.6165  1.0724  11.00000  0.05    1.02
Q15   1   0.2381  0.5790  0.9737  11.00000  0.05    1.00
Q16   1   0.0469  0.6236  1.1159  11.00000  0.05    0.99
Q17   1   0.5785  0.4244  0.5177  11.00000  0.05    0.94
Q18   1  -0.0581  0.2477  0.8490  11.00000  0.05    0.91
Q19   1   0.0416  0.3087  0.7017  11.00000  0.05    0.90
Q20   1   0.2843  0.3129  1.1972  11.00000  0.05    0.89
;
_shelx_res_checksum              95805
_shelx_hkl_file
;
   0   0   1    2.70    1.10
   0   0  -2 1531.85  116.99
   0   0   2 1528.95  116.79
   0   0   2 1207.78  114.99
   0   0  -2 1388.46  116.29
   0   0  -3    2.40    3.20
   0   0  -3    5.00    3.00
   0   0  -3    6.00    0.90
   0   0   3    3.30    2.20
   0   0  -4 1308.97   93.49
   0   0   4 1183.88  102.59
   0   0  -4 1286.87   93.59
   0   0  -4 1082.59  102.99
   0   0  -4  975.30   93.39
   0   0  -5   12.20    1.60
   0   0  -5    6.80    5.00
   0   0   5   -2.10    5.70
   0   0   5    9.90    6.80
   0   0  -6  394.46   33.70
   0   0  -6  445.16   33.90
   0   0  -6  447.76   33.70
   0   0  -6  307.37   45.00
   0   0  -7   -4.50    6.50
   0   0  -7    2.90    1.10
   0   0  -7    1.40    1.60
   0   0  -8  385.36   49.80
   0   0  -8  307.97   26.40
   0   0  -8  303.77   26.50
   0   0  -9   25.50   15.80
   0   0  -9    2.90    2.10
   0   0 -10  341.57   28.30
   0   0 -10  323.57   31.00
   0   1   0    1.20    0.90
   0   1   0    1.40    0.60
   0  -1   0    1.00    0.90
   0  -1   0    0.30    0.40
   0  -1   0    0.90    0.60
   0   1   1 1634.84  146.39
   0  -1   1 1931.11  144.29
   0  -1  -1 1696.33  146.59
   0  -1  -1 1846.52  146.19
   0  -1   1 1909.51  144.19
   0   1   2   66.49    9.00
   0   1   2   43.90    7.10
   0  -1  -2   63.69    9.00
   0  -1   2   51.89    7.30
   0  -1   2   68.39    7.50
   0  -1  -2   49.40    8.00
   0   1   3 3154.28  256.97
   0  -1   3 2989.20  254.37
   0  -1   3 3229.58  256.07
   0  -1  -3 3128.59  257.37
   0  -1  -3 3183.88  256.57
   0   1  -4 1804.02  150.28
   0   1  -4 1731.33  150.28
   0   1   4 2039.40  161.48
   0  -1  -4 1895.61  161.08
   0  -1   4 1874.81  159.98
   0  -1   4 1825.72  158.08
   0  -1  -4 2054.09  150.28
   0   1  -5   16.60    1.90
   0   1  -5   15.90    2.40
   0   1  -5    7.20    6.30
   0   1  -5   14.70    1.90
   0   1   5    2.00    7.50
   0   1   5   10.10    7.00
   0  -1  -5   23.10   10.50
   0  -1  -5   15.70    1.90
   0  -1  -5   18.10    2.10
   0  -1  -5   15.80    1.90
   0  -1   5   13.00    6.50
   0   1  -6  211.68   21.70
   0   1  -6  249.28   21.30
   0   1  -6  206.78   32.50
   0   1  -6  279.47   21.20
   0  -1  -6  252.17   39.10
   0  -1  -6  282.07   21.20
   0  -1  -6  245.78   21.20
   0  -1  -6  269.47   21.30
   0  -1  -6  272.97   37.00
   0   1  -7   70.59    6.40
   0   1  -7   58.69    6.40
   0   1  -7  114.99   21.80
   0  -1  -7   70.59    6.50
   0  -1  -7   64.19    7.60
   0  -1  -7   59.79    6.40
   0  -1  -7   67.69   22.10
   0  -1  -7   61.09    6.30
   0  -1  -7   84.19   36.10
   0   1  -8    9.10    2.20
   0   1  -8   11.50    2.30
   0   1  -8   13.40    3.20
   0   1  -8   17.10   11.60
   0  -1  -8    9.20    2.20
   0  -1  -8   11.40    3.30
   0  -1  -8   25.10   16.20
   0  -1  -8   13.20    2.70
   0   1  -9   59.79    6.80
   0   1  -9   59.39   24.90
   0   1  -9   58.29    6.30
   0   1  -9   50.39    5.90
   0  -1  -9   48.20    5.70
   0  -1  -9   51.89   24.20
   0   1 -10   13.10    2.90
   0   1 -10   13.50    2.80
   0   1 -10   13.60    3.30
   0  -1 -10   17.30    5.90
   0  -1 -10   16.30    2.80
   0   2   0 1853.71  143.69
   0   2   0 1823.62  141.79
   0  -2   0 1632.64  142.29
   0  -2   0 1704.23  141.69
   0   2  -1 1081.29   88.99
   0   2   1  924.01   87.39
   0  -2  -1 1046.60   88.59
   0  -2  -1 1171.48   88.49
   0   2   2 5549.34  468.25
   0  -2  -2 6083.49  468.15
   0   2   3  386.46   35.80
   0   2  -3  336.47   26.60
   0   2  -3  335.37   26.60
   0   2  -3  364.96   26.70
   0  -2  -3  337.47   35.50
   0  -2  -3  277.27   26.60
   0  -2  -3  316.47   33.80
   0  -2   3  293.17   29.70
   0  -2   3  333.47   30.20
   0   2  -4  853.21   60.79
   0   2  -4  749.82   60.69
   0   2   4  888.51   73.79
   0   2  -4  780.92   60.79
   0  -2  -4  819.12   72.59
   0  -2   4  728.83   66.79
   0  -2  -4  788.52   60.79
   0  -2  -4  620.14   60.49
   0  -2   4  637.54   65.99
   0   2  -5  105.89    9.60
   0   2  -5  109.99    9.60
   0   2   5  127.39   22.40
   0   2   5  147.89   23.20
   0   2  -5   94.09   17.10
   0   2  -5  118.19    9.60
   0   2  -5   93.39   10.00
   0  -2  -5  116.79    9.60
   0  -2  -5  107.89    9.40
   0  -2  -5  139.59   22.00
   0   2  -6    6.90    1.50
   0   2  -6   11.30    7.30
   0   2  -6    7.00    2.10
   0  -2  -6   10.40    1.80
   0  -2  -6   12.60   11.60
   0   2  -7  496.15   58.79
   0   2  -7  527.65   43.30
   0   2  -7  457.35   44.00
   0   2  -7  506.15   43.50
   0  -2  -7  534.35   43.40
   0  -2  -7  703.13   76.19
   0  -2  -7  535.55   43.50
   0  -2  -7  596.54   43.60
   0   2  -8  356.96   29.90
   0   2  -8  370.86   47.60
   0   2  -8  339.27   30.30
   0   2  -8  348.17   29.50
   0  -2  -8  366.96   29.70
   0   2  -9  321.17   25.80
   0   2  -9  276.37   25.00
   0   2  -9  297.37   25.30
   0  -2  -9  290.07   25.00
   0   3   0    4.50    0.70
   0   3   0   11.70    4.40
   0   3   0    1.10    1.60
   0  -3   0    3.20    2.00
   0   3   1 2953.90  225.18
   0   3  -1 2872.31  225.68
   0  -3  -1 2531.65  224.68
   0  -3   1 2630.64  223.68
   0  -3  -1 2772.82  224.58
   0   3   2  850.51   74.29
   0   3  -2  815.32   74.49
   0   3  -2 1046.60   74.19
   0   3  -2  972.80   74.19
   0   3   2 1075.69   83.49
   0   3  -2  827.22   80.89
   0   3   2 1024.30   74.09
   0  -3  -2  830.12   80.79
   0  -3  -2  903.51   82.89
   0   3  -3   28.00    2.80
   0   3  -3   32.40    2.90
   0   3  -3   22.20    3.10
   0   3  -3   34.10    3.00
   0  -3  -3   28.10    2.80
   0  -3  -3   29.90    8.80
   0   3  -4  485.95   36.40
   0   3   4  503.75   50.99
   0   3   4  506.15   51.69
   0   3  -4  411.66   36.80
   0   3  -4  468.15   36.40
   0   3  -4  369.56   45.00
   0  -3  -4  443.16   47.90
   0  -3  -4  427.56   36.30
   0   3  -5 2148.69  173.68
   0   3  -5 2207.78  173.88
   0   3   5 1997.40  192.28
   0   3  -5 1825.12  184.98
   0   3   5 2465.85  196.78
   0  -3  -5 2505.15  194.08
   0  -3  -5 2168.28  173.68
   0   3  -6  334.17   30.00
   0   3  -6  359.66   29.40
   0   3  -6  333.57   42.00
   0   3  -6  317.27   29.80
   0   3  -6  383.86   29.50
   0  -3  -6  346.97   29.30
   0  -3  -6  465.25   53.69
   0  -3  -6  375.06   29.40
   0   3  -7    6.60    1.90
   0   3  -7   13.00    2.00
   0   3  -7   18.10    9.60
   0   3  -7    9.30    2.20
   0  -3  -7   36.10   13.40
   0  -3  -7    6.90    1.60
   0  -3  -7   24.00   15.20
   0  -3  -7    9.70    1.80
   0   3  -8   43.90    5.40
   0   3  -8   43.80    4.90
   0   3  -8   44.10    5.20
   0   3  -8   59.59   18.90
   0  -3  -8   48.80    5.10
   0  -3  -8   56.49   19.50
   0   3  -9   45.30    5.50
   0   3  -9   53.29    5.70
   0   3  -9   47.70    5.60
   0  -3  -9   47.70    5.20
   0   4   0  767.72   71.09
   0   4   0  911.81   67.49
   0   4   0  812.92   71.59
   0   4   0  895.51   66.99
   0  -4   0  781.62   73.19
   0   4   1  216.68   25.10
   0   4  -1  273.67   27.40
   0   4   1  241.58   25.80
   0   4  -1  238.28   19.60
   0   4   1  230.48   19.20
   0   4  -1  226.48   19.30
   0   4  -1  246.88   19.20
   0   4   1  236.38   19.60
   0  -4   1  248.68   25.40
   0  -4  -1  204.38   25.10
   0   4  -2 1321.27  101.49
   0   4   2 1380.46  101.39
   0   4  -2 1281.87  110.29
   0   4   2 1379.96  112.69
   0   4   2 1239.08  101.79
   0   4  -2 1295.97  101.49
   0   4  -2 1183.78  101.89
   0  -4   2 1127.59  107.99
   0  -4  -2 1229.68  110.79
   0   4   3 2053.59  164.88
   0   4  -3 2073.69  151.08
   0   4  -3 1874.61  151.08
   0   4  -3 1962.90  150.98
   0   4  -3 1788.52  160.48
   0   4   3 1998.70  150.88
   0   4   3 1791.42  163.98
   0  -4  -3 1707.83  150.78
   0  -4  -3 1780.52  162.38
   0   4  -4  758.72   75.59
   0   4   4  856.51   64.99
   0   4   4  822.92   80.99
   0   4  -4  873.61   65.39
   0   4  -4  822.42   65.29
   0   4  -4  728.53   65.59
   0   4  -4  842.52   65.39
   0  -4  -4  761.42   65.09
   0  -4  -4  845.72   79.89
   0   4  -5 1086.99   85.49
   0   4  -5 1087.59   85.59
   0   4   5 1053.59   85.09
   0   4  -5 1094.09   85.49
   0   4  -5  987.20   97.19
   0   4  -5  984.40   85.89
   0  -4  -5 1048.60   85.29
   0  -4  -5 1228.88  107.09
   0   4  -6  461.25   35.40
   0   4  -6  387.46   46.70
   0   4  -6  455.35   35.50
   0   4  -6  426.16   35.20
   0   4  -6  403.96   35.60
   0  -4  -6  422.96   35.20
   0   4  -7  130.69   11.90
   0   4  -7  135.09   24.40
   0   4  -7  142.69   12.30
   0   4  -7  134.09   12.30
   0  -4  -7  123.79   11.70
   0  -4  -7  135.59   11.90
   0  -4  -7  209.08   43.80
   0   4  -8  306.67   26.40
   0   4  -8  322.47   26.70
   0   4  -8  342.57   26.90
   0   4  -8  218.68   47.10
   0  -4  -8  291.77   52.09
   0  -4  -8  318.97   26.30
   0   4  -9  108.99   10.40
   0   4  -9   89.99    9.40
   0   4  -9  104.79    9.70
   0  -4  -9   93.99    9.00
   0   5   0    7.50    1.60
   0   5   0    4.50    4.20
   0   5   0   -0.30    3.10
   0  -5   0    8.60    4.30
   0   5   1   30.30    2.90
   0   5  -1   28.20    3.40
   0   5   1   36.70    3.60
   0   5   1   20.50    7.30
   0   5  -1   28.40    3.00
   0   5  -1   25.40    3.20
   0   5  -1   25.20    8.60
   0   5   1   35.90    3.60
   0  -5   1   21.30    6.50
   0  -5  -1   31.50    9.00
   0   5   2 1176.08   87.69
   0   5   2 1089.89   99.39
   0   5  -2 1107.59   88.19
   0   5  -2 1100.29   97.79
   0   5  -2 1050.99   87.69
   0   5  -2 1224.48   87.69
   0   5  -2 1066.69   87.89
   0   5   2 1169.18   88.19
   0  -5   2  973.20   95.39
   0  -5  -2  946.91   98.09
   0   5  -3 2008.90  157.08
   0   5  -3 1995.70  168.28
   0   5   3 2109.29  156.88
   0   5  -3 2026.60  157.18
   0   5  -3 2179.38  157.08
   0   5  -3 1944.91  157.58
   0  -5  -3 1851.91  170.98
   0  -5   3 1721.13  164.88
   0  -5  -3 1843.02  156.78
   0   5  -4   25.00    3.10
   0   5  -4   20.60    2.80
   0   5  -4   17.70    8.20
   0   5  -4   29.70    2.90
   0   5  -4   23.40    2.80
   0  -5  -4   21.70    9.10
   0  -5  -4   24.00    3.20
   0  -5   4   22.50    8.10
   0   5  -5    3.60    1.30
   0   5  -5    0.30    1.60
   0   5  -5    7.50    1.40
   0   5  -5    3.40    1.00
   0   5  -5    0.80    4.80
   0  -5  -5    4.70    1.20
   0  -5  -5    0.00    8.00
   0   5  -6  230.08   19.60
   0   5  -6  218.38   19.60
   0   5  -6  294.67   32.60
   0   5  -6  246.88   20.00
   0  -5  -6  210.08   19.30
   0  -5  -6  256.47   40.60
   0   5  -7  856.31   74.39
   0   5  -7 1008.90   74.99
   0   5  -7  881.81   87.09
   0  -5  -7  928.91   74.39
   0   5  -8    4.00    1.50
   0   5  -8    1.90    1.20
   0   5  -8    1.80    1.20
   0  -5  -8    4.30    1.40
   0   6   0  897.81   81.49
   0   6   0  966.90   71.99
   0   6   0  887.31   71.29
   0  -6   0  770.82   81.59
   0   6  -1  559.84   47.10
   0   6  -1  650.43   46.90
   0   6  -1  602.54   47.70
   0   6   1  618.04   47.70
   0   6   1  580.64   47.10
   0  -6  -1  507.15   58.19
   0  -6   1  506.85   56.29
   0   6  -2   60.59    5.50
   0   6   2   58.89    5.30
   0   6  -2   56.39    5.80
   0   6   2   58.29    5.90
   0   6  -2   61.69    5.30
   0   6  -2   61.29   13.10
   0   6  -2   50.49    5.60
   0  -6  -2   42.40   13.10
   0  -6   2   56.79   11.80
   0   6  -3  111.49    9.80
   0   6  -3  104.39    9.20
   0   6  -3  101.69    9.60
   0   6   3  111.99    9.20
   0   6  -3  114.09   18.40
   0  -6   3   91.79   16.10
   0  -6  -3   87.69   26.30
   0   6  -4  691.53   59.29
   0   6  -4  740.93   59.19
   0   6  -4  743.43   59.69
   0   6   4  734.43   58.99
   0   6  -4  767.22   59.59
   0   6  -4  721.53   70.59
   0  -6  -4  736.33   78.09
   0   6  -5  247.28   21.00
   0   6  -5  275.67   21.40
   0   6  -5  254.47   21.30
   0   6   5  239.58   20.50
   0   6  -5  235.78   20.90
   0   6  -5  239.18   31.20
   0  -6  -5  275.07   41.60
   0   6  -6 1292.27  102.59
   0   6  -6 1302.37  102.69
   0   6  -6 1181.58  102.39
   0   6  -6 1399.46  102.99
   0   6  -6 1181.58  113.99
   0  -6  -6 1277.67  102.29
   0   6  -7   81.29    7.70
   0   6  -7   86.89    8.20
   0   6  -7   68.89    7.60
   0  -6  -7   91.59    7.70
   0   6  -8   80.69    7.60
   0   6  -8   77.79    7.00
   0   6  -8   65.69    7.10
   0  -6  -8   72.19    6.80
   0   7   0    1.40    1.10
   0   7   0    1.30    1.30
   0   7   0    1.70    0.80
   0  -7   0   -4.10    5.50
   0   7  -1   38.80    3.70
   0   7   1   31.20    3.40
   0   7  -1   30.70    3.80
   0   7   1   35.60    4.00
   0   7  -1   23.80    3.80
   0  -7   1   26.40    9.80
   0  -7  -1   27.30   10.40
   0   7  -2  207.48   16.20
   0   7  -2  180.98   16.50
   0   7  -2  205.98   17.00
   0   7   2  201.88   16.40
   0   7  -2  175.08   17.50
   0  -7  -2  230.78   31.60
   0  -7   2  171.38   26.40
   0   7  -3   64.39    5.90
   0   7  -3   61.09    6.20
   0   7   3   61.09    6.00
   0   7  -3   65.99    6.60
   0   7  -3   71.59    6.70
   0  -7  -3   67.29   21.10
   0   7  -4  688.53   66.59
   0   7  -4  570.34   49.30
   0   7   4  586.04   49.20
   0   7  -4  571.44   49.60
   0   7  -4  650.73   50.19
   0   7  -4  636.64   49.99
   0  -7  -4  621.94   71.49
   0   7  -5  701.33   55.89
   0   7  -5  632.24   55.39
   0   7  -5  792.12   56.39
   0   7  -5  654.93   66.99
   0   7   5  673.33   55.09
   0   7  -5  656.83   55.69
   0   7  -6   77.89    8.00
   0   7  -6   89.19    8.30
   0   7  -6   83.29    8.20
   0   7  -6  104.29    8.90
   0   7  -6  132.69   34.80
   0  -7  -6   88.89    8.00
   0   7  -7  290.67   27.70
   0   7  -7  386.06   28.50
   0   8   0  403.26   34.50
   0   8   0  452.65   35.20
   0  -8   0  397.16   50.49
   0   8  -1   33.80    4.40
   0   8  -1   32.30    4.30
   0   8   1   39.50    4.50
   0   8  -1   40.90    4.10
   0   8   1   39.40    4.00
   0  -8  -1   64.69   18.60
   0  -8   1   20.60   14.50
   0   8  -2  404.76   34.70
   0   8   2  432.36   34.10
   0   8  -2  449.95   34.70
   0   8  -2  399.66   34.30
   0  -8  -2  362.26   52.29
   0   8   3   20.00    2.50
   0   8  -3   20.60    2.90
   0   8  -3   23.00    3.30
   0   8  -3   17.50    2.40
   0   8  -3   18.10    2.70
   0   8  -4  184.58   17.20
   0   8  -4  195.48   17.60
   0   8   4  207.18   17.10
   0   8  -4  227.88   17.80
   0   8  -4  214.58   18.10
   0   8  -5   27.60    3.30
   0   8  -5   25.10    3.00
   0   8  -5   26.20    3.20
   0   8  -6  190.38   16.10
   0   8  -6  188.28   15.30
   0   8  -6  149.29   15.00
   0   8  -6  174.38   15.10
   0   9   0    0.00    0.60
   0   9   0    1.80    1.20
   0   9   1   53.29    5.40
   0   9  -1   59.39    5.70
   0   9  -1   52.29    5.50
   0   9   2   11.10    1.80
   0   9  -2   10.50    2.00
   0   9  -2    8.90    2.00
   0   9  -3    3.30    1.30
   0   9   3    4.80    1.10
   0   9  -3    3.50    1.80
   0   9  -3    4.70    1.40
   0   9  -4  241.98   19.60
   0   9  -4  223.98   19.80
   0   9  -4  272.97   20.80
   0   9   4  203.48   19.50
   0  10   0  118.89   10.50
   0  10   1  177.58   15.10
   0  10  -1  179.58   15.30
   0  10   2    5.60    1.30
   0  10  -2    5.90    1.30
   0  10  -2    3.70    1.30
   1   0 -10  261.87   25.00
   1   0 -10  343.67   26.80
   1   0  -9    1.20    1.60
   1   0  -9   12.20   20.80
   1   0  -9    0.50    0.90
   1   0  -9    2.10    2.20
   1   0  -8   75.49   26.50
   1   0  -8   65.79    6.90
   1   0  -8   63.29    6.50
   1   0  -8   66.79    8.00
   1   0  -7    2.00    7.80
   1   0  -7    1.00    0.90
   1   0  -6 3099.39  247.88
   1   0  -5   -3.60    4.40
  -1   0   5    3.20    6.30
   1   0  -5    5.70    1.10
  -1   0   5    7.00    6.40
   1   0  -5    4.30    1.10
   1   0  -5    2.90    3.20
  -1   0   4 3950.40  307.67
  -1   0   4 3795.52  309.57
   1   0  -4 3482.35  307.97
   1   0  -3    5.10    3.20
  -1   0   3   10.90    3.90
  -1   0   3    2.80    3.40
  -1   0   2 2033.50  169.28
   1   0  -2 1927.81  169.38
  -1   0   2 2265.27  170.48
  -1   0   0 1584.94  114.19
  -1   0   0 1437.96  117.19
   1   0   0 1392.86  117.39
   1   0   0 1303.37  114.09
  -1   0  -1    8.10    1.90
  -1   0  -2 1241.58   96.29
   1   0   2  979.30   93.39
   1   0   2 1318.47   96.89
  -1   0  -2 1063.39   94.39
  -1   0  -3    3.30    0.70
   1   0   3    2.00    2.40
  -1   0  -3    3.40    2.60
  -1   0  -3    4.40    2.90
  -1   0  -4   34.10    9.50
  -1   0  -4   16.20    5.80
  -1   0  -4   23.40    2.40
  -1   0  -4   15.60    5.90
  -1   0  -4   22.90    2.40
   1   0   4   13.70    5.50
  -1   0  -5    1.00    0.60
  -1   0  -5    0.50    6.20
  -1   0  -5    3.10    0.90
  -1   0  -5    3.10    3.00
  -1   0  -6  492.75   38.80
  -1   0  -6  468.45   39.00
  -1   0  -6  511.65   39.80
  -1   0  -6  427.56   38.90
  -1   0  -6  496.95   53.29
  -1   0  -7    3.60    1.20
  -1   0  -7    1.60    1.40
  -1   0  -7    9.40    7.00
  -1   0  -7    2.10    1.10
  -1   0  -8    4.60    1.90
  -1   0  -8    7.30    2.60
  -1   0  -8    4.00    9.20
  -1   0  -9    1.60    1.90
  -1   0  -9   -5.40   13.70
  -1   0  -9    3.20    1.60
  -1   0  -9    1.40    1.60
  -1   0 -10 1357.86  109.49
   1   1 -10  128.19   11.50
   1  -1 -10  120.09   11.20
   1   1  -9  222.68   42.00
   1   1  -9  197.08   17.80
   1   1  -9  226.28   19.60
   1   1  -9  206.38   18.20
   1  -1  -9  272.87   48.00
   1  -1  -9  185.78   17.60
   1   1  -8   23.60    3.10
   1   1  -8   23.90   14.80
   1   1  -8   21.40    4.10
   1   1  -8   22.80    3.20
   1  -1  -8   23.60    3.40
   1  -1  -8   27.30    4.60
   1  -1  -8   18.30    2.80
   1  -1  -8   24.20   13.90
   1   1  -7  852.81   67.59
   1   1  -7  765.12   67.59
   1  -1  -7  863.01   90.69
   1  -1  -7  888.81   67.79
   1  -1  -7  791.42   67.59
   1  -1  -7  884.01   69.49
   1   1  -6   45.30    5.90
   1   1  -6   56.19    5.40
   1   1  -6   51.39   17.60
   1   1  -6   58.69    5.30
   1  -1  -6   64.59   17.50
   1  -1  -6   60.09   17.90
   1  -1  -6   57.39    5.40
   1  -1  -6   58.69    5.40
   1  -1  -6   51.69    5.20
  -1   1   5 1482.45  120.09
   1   1  -5 1316.37  104.19
  -1   1   5 1283.17  120.99
   1  -1  -5 1182.88  104.09
  -1  -1   5 1145.19  115.09
   1  -1  -5 1358.26  119.99
   1  -1  -5 1487.65  104.39
   1  -1  -5 1388.66  104.19
   1  -1  -5 1056.09  115.59
  -1   1   4 1297.07  105.29
  -1   1   4 1261.67  107.29
   1   1  -4 1089.69   93.69
   1   1  -4 1145.59   93.69
   1  -1  -4 1197.48   93.69
  -1  -1   4 1131.09  101.29
   1  -1  -4 1083.69  103.39
  -1  -1   4 1091.69  109.79
   1  -1  -4 1266.27   93.79
  -1   1   3 5216.38  401.86
  -1   1   3 5007.90  403.06
  -1  -1   3 5101.49  399.96
  -1  -1   3 4507.85  398.26
   1  -1  -3 4931.61  400.46
  -1   1   2 2874.31  226.58
  -1   1   2 2760.22  226.98
  -1  -1   2 2858.21  224.58
  -1  -1   2 2880.41  224.18
   1  -1  -2 2512.25  224.88
  -1   1   1 1707.93  163.28
  -1   1   1 2085.99  164.88
   1   1  -1 2331.97  163.28
  -1  -1   1 2032.70  163.88
   1  -1  -1 1971.70  163.68
   1   1   0   21.00    3.60
  -1   1   0   13.60    2.60
  -1   1   0   10.80    2.00
  -1  -1   0   14.30    3.10
   1  -1   0   16.60    2.30
   1  -1   0   14.00    2.50
   1   1   1  853.81   79.09
  -1   1  -1 1033.50   79.09
   1   1   1 1062.19   81.29
  -1  -1  -1  973.60   80.99
  -1  -1  -1  939.11   79.79
   1  -1   1  945.81   80.79
   1   1   2  304.47   31.60
   1   1   2  400.76   34.90
  -1   1  -2  363.56   31.90
   1  -1   2  411.76   33.20
  -1  -1  -2  393.76   35.00
   1  -1   2  306.27   30.40
  -1  -1  -2  345.27   33.10
  -1   1  -3  139.29   10.50
  -1   1  -3  127.49   10.50
  -1   1  -3  142.69   15.30
  -1   1  -3  131.59   10.50
  -1   1  -3  125.99   10.50
   1   1   3  142.59   17.20
  -1   1  -3  132.69   15.60
  -1   1  -3  114.69   10.60
  -1  -1  -3  127.79   17.00
   1  -1   3  136.99   15.90
  -1  -1  -3  120.19   15.80
  -1  -1  -3  107.89   10.40
   1  -1   3  104.99   13.20
  -1   1  -4 1566.64  118.79
  -1   1  -4 1261.07  125.69
  -1   1  -4 1410.16  118.69
   1   1   4 1629.54  130.39
  -1   1  -4 1334.27  125.59
  -1  -1  -4 1538.35  130.19
   1  -1   4 1574.44  128.39
  -1  -1  -4 1664.03  118.59
  -1  -1  -4 1446.86  129.19
  -1  -1  -4 1449.55  118.69
   1   1   5  178.88   25.40
  -1   1  -5  155.78   14.90
  -1   1  -5  190.78   14.90
  -1   1  -5  175.88   15.30
  -1   1  -5  188.08   15.10
  -1   1  -5  199.78   24.20
  -1  -1  -5  201.88   14.90
  -1  -1  -5  207.68   29.00
  -1  -1  -5  155.48   14.90
  -1  -1  -5  176.88   15.00
   1  -1   5  139.69   23.00
  -1   1  -6 1017.30   91.39
  -1   1  -6  970.00   77.29
  -1   1  -6  882.51   76.79
  -1   1  -6  944.51   76.79
  -1   1  -6 1018.50   76.69
  -1  -1  -6  910.91   76.79
  -1  -1  -6 1072.49  100.89
  -1  -1  -6  971.30   76.59
  -1  -1  -6  970.80   95.09
  -1  -1  -6  867.71   76.79
  -1   1  -7  349.27   29.10
  -1   1  -7  349.37   43.40
  -1   1  -7  343.17   28.30
  -1   1  -7  308.57   28.50
  -1  -1  -7  334.57   28.60
  -1  -1  -7  456.55   50.59
  -1  -1  -7  352.66   28.30
  -1  -1  -7  360.56   54.39
  -1  -1  -7  319.27   28.40
  -1   1  -8    8.80    2.70
  -1   1  -8    3.30    8.50
  -1   1  -8   10.00    2.20
  -1   1  -8    9.60    2.40
  -1  -1  -8   11.30    2.50
  -1  -1  -8    9.70    2.90
  -1  -1  -8   -2.50    9.50
  -1  -1  -8   10.60    2.50
  -1   1  -9  471.05   39.30
  -1   1  -9  457.25   38.90
  -1   1  -9  470.95   39.40
  -1  -1  -9  478.85   39.20
   1   2 -10    3.30    3.30
   1   2 -10    1.60    1.50
   1   2 -10    0.60    1.40
   1  -2 -10    0.40    1.10
   1   2  -9    4.00    2.10
   1   2  -9    3.10    1.50
   1   2  -9    9.60   17.40
   1   2  -9    3.80    2.10
   1  -2  -9    5.40    2.50
   1  -2  -9    4.70    1.40
   1  -2  -9   -4.30   15.40
   1   2  -8  809.62   71.19
   1   2  -8  892.31   93.19
   1   2  -8  870.51   70.19
   1   2  -8  885.81   69.99
   1  -2  -8  877.41   69.99
   1   2  -7  820.72   64.49
   1   2  -7  628.94   80.19
   1   2  -7  840.72   64.39
   1  -2  -7  819.12   64.29
   1   2  -6  448.56   37.40
   1  -2  -6  566.14   59.59
   1  -2  -6  475.35   37.40
   1  -2  -6  464.65   37.40
   1  -2  -6  410.06   37.20
   1   2  -5    1.00    3.90
  -1   2   5  -10.20    7.40
   1   2  -5    1.40    0.70
  -1   2   5  -10.40    7.50
   1   2  -5    1.80    0.70
   1   2  -5   -0.10    0.80
   1  -2  -5    1.80    0.60
   1  -2  -5    0.60    0.60
   1  -2  -5    4.40    5.50
   1   2  -4 2954.70  227.28
  -1   2   4 3196.18  241.18
  -1   2   4 3048.50  242.78
   1  -2  -4 3224.78  240.28
  -1  -2   4 2466.05  234.58
  -1  -2   4 2330.77  233.18
   1   2  -3  236.18   17.20
  -1   2   3  224.58   25.10
   1   2  -3  206.28   17.00
   1   2  -3  205.98   17.10
  -1   2   3  231.98   26.30
   1  -2  -3  184.38   23.10
  -1  -2   3  199.28   20.30
   1  -2  -3  209.08   17.00
  -1  -2   3  183.48   20.70
  -1   2   2 4114.69  333.47
  -1   2   2 4285.87  322.77
   1  -2  -2 4136.89  320.77
  -1  -2   2 3350.76  315.97
   1   2  -1   66.79    7.60
  -1   2   1   78.89    9.70
   1   2  -1   48.20    8.90
  -1  -2   1   74.89    7.60
   1  -2  -1   65.59    8.80
   1   2   0   84.29    9.90
  -1   2   0   91.39    9.50
  -1   2   0   73.69    9.30
   1   2   0   71.59   10.20
  -1   2   0   90.19    9.10
   1  -2   0   73.49    8.70
  -1  -2   0   95.19   10.00
  -1  -2   0   72.89   11.70
  -1   2  -1 4028.70  325.07
   1   2   1 4172.58  326.57
  -1   2  -1 4539.85  322.57
  -1  -2  -1 3578.74  326.07
   1  -2   1 3624.04  322.97
   1  -2   1 4306.17  322.07
  -1   2  -2  786.02   62.99
  -1   2  -2  744.03   61.49
   1   2   2  783.02   68.79
  -1   2  -2  676.23   66.19
  -1   2  -2  795.52   61.59
  -1   2  -2  854.31   61.59
  -1  -2  -2  776.42   69.19
  -1  -2  -2  729.73   67.49
  -1   2  -3  131.59   10.80
   1   2   3  146.59   18.70
  -1   2  -3  144.69   10.90
  -1   2  -3   99.69   15.30
  -1   2  -3  133.89   10.80
  -1   2  -3  136.69   10.80
   1  -2   3  106.99   13.80
  -1  -2  -3  119.89   17.60
  -1  -2  -3  135.39   17.80
  -1  -2  -3  112.09   10.70
   1  -2   3  158.58   16.40
   1   2   4    7.90    5.30
  -1   2  -4    5.20    1.10
  -1   2  -4    4.50    1.30
  -1   2  -4    5.20    1.00
  -1   2  -4    5.60    3.10
  -1  -2  -4    5.40    3.80
  -1  -2  -4    2.00    4.90
  -1  -2  -4    3.80    0.90
   1  -2   4    5.10    3.80
   1  -2   4    2.30    3.10
  -1   2  -5  147.89   11.40
  -1   2  -5  135.79   11.40
  -1   2  -5  135.99   11.30
  -1   2  -5  122.79   11.60
   1   2   5  143.49   23.40
  -1   2  -5  119.69   19.10
  -1  -2  -5  154.48   25.10
  -1  -2  -5  125.29   11.00
   1  -2   5   96.49   17.50
  -1  -2  -5  131.49   11.30
  -1   2  -6   82.99    7.10
  -1   2  -6   73.09    7.20
  -1   2  -6   42.60   14.90
  -1  -2  -6   74.39    7.20
  -1  -2  -6   78.69    7.00
  -1  -2  -6  112.29   28.60
  -1   2  -7   22.60    3.30
  -1   2  -7   31.20   12.30
  -1   2  -7   22.80    3.30
  -1  -2  -7   21.90    3.00
  -1  -2  -7   18.70    2.90
  -1  -2  -7   30.00   11.40
  -1  -2  -7   18.80   20.20
  -1  -2  -7   25.80    3.20
  -1   2  -8  822.22   86.49
  -1   2  -8  875.11   70.49
  -1   2  -8  859.61   70.09
  -1   2  -8  848.02   70.49
  -1  -2  -8  908.91   70.49
  -1  -2  -8  855.21   70.19
  -1   2  -9  432.56   36.10
  -1   2  -9  414.66   35.90
  -1   2  -9  430.96   36.40
  -1  -2  -9  453.15   36.20
   1   3  -9   36.70    4.70
   1   3  -9   34.80    4.10
   1   3  -9   31.30    4.30
   1  -3  -9   26.00    3.60
   1   3  -8  120.29   25.30
   1   3  -8  136.69   12.50
   1   3  -8  126.89   11.70
   1   3  -8  118.39   11.40
   1  -3  -8  129.09   11.30
   1   3  -7  247.98   36.40
   1   3  -7  249.38   21.10
   1   3  -7  238.08   21.80
   1   3  -7  244.58   20.90
   1  -3  -7  362.06   51.09
   1  -3  -7  244.48   20.80
   1   3  -6  493.55   37.70
   1   3  -6  382.36   50.49
   1  -3  -6  556.34   60.89
   1  -3  -6  458.45   37.50
   1  -3  -6  439.86   37.50
  -1   3   5 3502.95  287.57
   1   3  -5 3361.26  268.47
  -1   3   5 3276.37  268.17
  -1   3   5 2907.01  286.47
   1  -3  -5 3790.12  287.77
   1  -3  -5 3439.86  268.47
  -1   3   4  166.98   13.10
  -1   3   4  157.18   24.50
   1   3  -4  151.78   13.40
   1   3  -4  150.38   13.30
   1   3  -4  168.38   13.40
  -1   3   4  158.88   24.50
   1  -3  -4  149.59   21.80
   1  -3  -4  165.58   13.30
   1   3  -3   64.39    6.10
   1   3  -3   47.70   11.00
  -1   3   3   69.59    5.90
  -1   3   3   67.29   13.30
   1   3  -3   71.09    6.10
   1   3  -3   78.79    6.20
  -1   3   3   78.69   14.10
   1  -3  -3   89.49   13.20
   1  -3  -3   69.99    6.00
  -1   3   2  210.88   24.20
   1   3  -2  191.38   17.00
   1   3  -2  210.88   17.00
  -1   3   2  233.78   24.50
   1   3  -2  223.68   17.00
  -1   3   2  204.28   16.80
   1  -3  -2  185.98   22.60
   1   3  -1 2808.02  233.58
   1   3  -1 2592.54  226.68
   1   3  -1 2614.44  229.28
  -1   3   1 3133.79  232.68
   1  -3  -1 2998.70  231.98
  -1  -3   1 2934.71  227.98
   1   3   0 2074.59  158.58
   1   3   0 1896.61  150.68
  -1   3   0 2125.79  154.68
  -1   3   0 1942.01  150.88
   1   3   0 1896.81  155.58
   1   3   0 1712.73  150.98
  -1  -3   0 1883.01  155.48
  -1  -3   0 1879.41  157.18
   1  -3   0 1659.43  154.18
   1   3   1  969.70   86.19
  -1   3  -1 1133.09   91.49
  -1   3  -1 1223.08   85.99
   1   3   1  945.31   91.69
  -1   3  -1 1232.18   85.99
  -1   3  -1 1116.69   86.19
  -1  -3  -1 1028.90   92.19
  -1  -3  -1 1073.69   93.19
   1  -3   1  949.21   88.99
  -1   3  -2  761.42   67.59
  -1   3  -2  852.11   73.59
   1   3   2  850.61   75.89
  -1   3  -2  900.71   67.29
  -1   3  -2  923.51   67.29
  -1   3  -2  829.82   67.19
  -1  -3  -2  839.02   75.59
  -1  -3  -2  759.32   75.69
  -1   3  -3   24.50    2.90
  -1   3  -3   15.80    6.00
  -1   3  -3   27.10    2.70
  -1   3  -3   30.60    2.80
  -1   3  -3   30.00    2.70
   1   3   3   22.00    7.70
  -1  -3  -3   29.30    9.40
  -1  -3  -3   32.60   10.10
  -1  -3  -3   21.10    2.50
  -1   3  -4  141.99   19.20
  -1   3  -4  151.28   12.30
  -1   3  -4  148.29   12.30
  -1   3  -4  126.59   12.50
  -1   3  -4  154.68   12.30
  -1  -3  -4  144.39   12.40
  -1  -3  -4  145.59   22.70
  -1  -3  -4  153.38   23.30
  -1   3  -5 1653.03  125.69
  -1   3  -5 1684.53  125.59
  -1   3  -5 1426.06  135.89
   1   3   5 1668.53  145.19
  -1   3  -5 1351.36  125.79
  -1   3  -5 1621.94  125.59
  -1  -3  -5 1591.54  125.59
  -1   3  -6    8.00    1.80
  -1   3  -6    7.00    1.80
  -1   3  -6    5.00    6.30
  -1   3  -6    7.50    1.70
  -1  -3  -6   13.10   11.60
  -1  -3  -6    9.20    1.70
  -1   3  -7   22.50    3.20
  -1   3  -7   23.90    9.30
  -1   3  -7   20.80    2.90
  -1   3  -7   23.80    3.20
  -1  -3  -7   22.40    3.00
  -1  -3  -7   35.10   22.10
  -1  -3  -7   63.09   19.40
  -1  -3  -7   21.30    3.10
  -1   3  -8  225.28   20.00
  -1   3  -8  231.28   34.70
  -1   3  -8  233.88   20.40
  -1   3  -8  228.18   20.10
  -1  -3  -8  245.88   20.20
  -1   3  -9  224.98   19.50
  -1   3  -9  221.38   20.00
  -1   3  -9  223.88   19.70
  -1  -3  -9  239.48   19.80
   1   4  -9  507.85   41.20
   1   4  -9  446.06   40.80
   1   4  -9  538.85   41.30
   1   4  -8  308.77   26.30
   1   4  -8  344.47   45.30
   1   4  -8  325.67   26.00
   1   4  -8  287.47   25.60
   1  -4  -8  294.17   25.40
   1   4  -7   16.80    2.80
   1   4  -7   11.00    2.00
   1   4  -7   11.70    2.30
   1   4  -7    7.80    8.80
   1  -4  -7    6.70   18.90
   1  -4  -7    9.00    1.70
   1   4  -6  211.48   16.70
   1   4  -6  157.88   27.30
   1   4  -6  202.98   16.80
   1   4  -6  211.98   16.80
   1   4  -6  190.28   17.30
   1  -4  -6  198.08   16.40
   1  -4  -6  226.98   35.70
   1  -4  -6  160.98   16.60
   1   4  -5  674.33   52.19
   1   4  -5  685.73   52.29
   1   4  -5  549.05   64.29
   1   4  -5  558.94   52.79
   1   4  -5  674.13   52.39
  -1   4   5  686.43   51.79
   1  -4  -5  665.73   69.09
   1  -4  -5  645.64   52.09
  -1   4   4 1144.19  101.09
   1   4  -4  865.21   94.89
   1   4  -4 1169.48   84.49
  -1   4   4 1131.89   84.09
   1   4  -4 1073.49   84.49
   1   4  -4 1082.99   84.39
   1   4  -4  890.61   84.89
   1  -4  -4 1056.09   84.29
   1  -4  -4 1049.89   97.99
  -1   4   3    4.10    0.70
  -1   4   3    0.00    4.80
  -1   4   3    9.20    6.20
   1   4  -3    6.30    1.10
   1   4  -3    1.50    1.00
   1  -4  -3    6.40    4.40
   1  -4  -3    2.90    0.70
   1   4  -2  695.63   70.59
  -1   4   2  800.12   71.89
   1   4  -2  703.73   62.39
   1   4  -2  799.32   61.99
  -1   4   2  755.72   62.09
   1   4  -2  845.82   61.99
  -1   4   2  843.32   61.79
   1  -4  -2  704.93   69.99
  -1   4   1 3772.92  299.47
   1   4  -1 3669.33  301.47
  -1   4   1 3851.01  292.17
   1   4  -1 3427.16  292.37
   1   4  -1 3247.28  294.67
  -1   4   1 3853.31  313.97
   1   4  -1 3492.25  293.27
   1  -4  -1 3766.82  299.57
  -1  -4   1 4035.50  302.07
   1   4   0  865.31   67.79
  -1   4   0  871.61   72.19
   1   4   0  876.71   74.59
  -1   4   0  950.00   68.09
   1   4   0  904.11   68.29
  -1   4   0  787.92   72.19
  -1   4   0  749.92   67.99
  -1  -4   0  865.51   76.29
  -1  -4   0  833.72   73.49
   1  -4   0  758.42   72.89
  -1   4  -1   74.09    6.70
  -1   4  -1   84.29    6.60
  -1   4  -1   80.49    6.90
   1   4   1   68.29   12.00
  -1   4  -1   76.99    6.60
  -1   4  -1   83.29   11.90
   1   4   1   75.49    6.60
   1   4   1   73.19    7.10
  -1  -4  -1   81.59   13.30
  -1  -4  -1   75.09   12.40
   1  -4   1   71.59   10.10
  -1   4  -2 1163.48   90.59
   1   4   2 1214.08  101.89
  -1   4  -2 1265.47   90.59
  -1   4  -2 1140.49   97.89
   1   4   2 1159.78   90.49
   1   4   2 1018.50   90.89
  -1   4  -2 1106.09   90.49
  -1   4  -2 1110.99   90.79
   1  -4   2 1005.90   94.99
  -1  -4  -2 1164.78  101.69
  -1   4  -3 1460.45  124.19
  -1   4  -3 1453.25  115.89
  -1   4  -3 1597.64  115.69
   1   4   3 1474.55  115.49
  -1   4  -3 1603.94  115.69
   1   4   3 1621.94  130.69
  -1  -4  -3 1431.26  128.89
  -1  -4  -3 1265.27  115.49
  -1  -4  -3 1255.17  128.99
   1  -4   3 1310.07  120.59
   1   4   4  819.92   84.99
  -1   4  -4  804.72   63.39
  -1   4  -4  770.12   63.59
  -1   4  -4  792.22   72.69
  -1   4  -4  808.02   63.49
  -1   4  -4  835.22   63.39
  -1  -4  -4  812.22   79.29
  -1  -4  -4  691.83   63.19
  -1   4  -5  164.28   15.00
  -1   4  -5  182.18   14.90
   1   4   5  163.48   14.40
  -1   4  -5  175.18   14.90
  -1   4  -5  188.68   15.00
  -1  -4  -5  164.88   14.70
  -1  -4  -5  228.78   32.50
  -1   4  -6  139.19   23.20
  -1   4  -6  166.08   14.60
   1   4   6  164.28   14.10
  -1   4  -6  156.28   14.70
  -1   4  -6  198.38   15.00
  -1   4  -6  165.48   14.60
  -1  -4  -6  247.48   39.90
  -1   4  -7  994.70   97.29
  -1   4  -7 1005.80   83.89
  -1   4  -7 1004.10   83.79
  -1   4  -7 1049.59   84.09
  -1  -4  -7 1027.40   83.69
  -1  -4  -7 1140.29   84.09
  -1   4  -8  512.15   66.29
  -1   4  -8  453.35   36.90
  -1   4  -8  415.26   36.30
  -1   4  -8  404.56   36.40
  -1  -4  -8  477.95   36.70
  -1   4  -9   20.40    4.40
  -1   4  -9   16.90    3.20
  -1   4  -9   18.20    3.00
  -1  -4  -9   17.90    2.90
  -1  -4  -9   22.10    3.60
   1   5  -8  211.28   16.90
   1   5  -8  168.18   16.40
   1   5  -8  194.78   16.80
   1   5  -7  473.55   41.80
   1   5  -7  475.75   55.79
   1   5  -7  511.75   42.40
   1   5  -7  561.04   42.30
   1  -5  -7  518.05   41.60
   1   5  -6  328.97   26.90
   1   5  -6  316.97   26.90
   1   5  -6  320.87   27.50
   1   5  -6  314.67   40.00
   1   5  -6  348.27   27.30
   1  -5  -6  384.76   48.50
   1  -5  -6  296.17   26.60
   1   5  -5   19.00    2.60
  -1   5   5   25.20    2.30
   1   5  -5   19.10    3.00
   1   5  -5   14.70    2.50
   1   5  -5   16.00   10.20
   1  -5  -5   29.20   11.90
   1  -5  -5   22.50    2.50
   1   5  -4  144.99   22.30
   1   5  -4  143.99   12.50
  -1   5   4  153.08   12.00
   1   5  -4  150.68   12.30
   1   5  -4  136.59   12.30
   1   5  -4  137.39   12.90
   1  -5  -4  129.29   23.20
   1   5  -3 1769.02  126.89
   1   5  -3 1539.55  126.89
  -1   5   3 1733.63  126.69
   1   5  -3 1463.15  127.39
   1   5  -3 1540.65  138.99
   1   5  -3 1621.24  127.09
  -1  -5   3 1500.35  138.29
   1  -5  -3 1496.95  139.59
   1   5  -2   53.39    5.80
  -1   5   2   61.79    5.60
   1   5  -2   50.19    5.40
   1   5  -2   55.89    5.30
   1   5  -2   67.69    5.20
   1   5  -2   59.49   12.20
  -1   5   2   72.19   14.40
   1  -5  -2   53.49   11.20
  -1  -5   2   34.90   11.40
   1   5  -1   44.00    4.90
  -1   5   1   44.10    4.60
   1   5  -1   56.99    4.60
   1   5  -1   39.80    4.60
  -1   5   1   32.60    8.60
   1   5  -1   52.09   13.40
  -1   5   1   47.20    4.30
   1   5  -1   52.09    4.20
  -1  -5   1   46.30   13.30
   1  -5  -1   50.59   10.40
  -1   5   0  870.01   84.79
   1   5   0  932.21   74.29
   1   5   0  976.10   74.99
  -1   5   0  968.50   74.29
  -1   5   0  879.21   79.39
  -1   5   0 1008.00   74.69
  -1  -5   0  898.31   84.59
   1  -5   0  844.82   81.69
  -1   5  -1  685.63   53.09
  -1   5  -1  702.73   53.49
   1   5   1  689.43   53.79
   1   5   1  631.84   62.89
   1   5   1  718.73   53.19
  -1   5  -1  598.14   53.29
   1  -5   1  603.04   59.49
  -1  -5  -1  624.74   63.79
  -1   5  -2 1054.89   77.49
   1   5   2  988.80   77.39
  -1   5  -2  889.41   77.89
   1   5   2 1006.30   90.79
   1   5   2 1029.00   78.09
  -1   5  -2  966.60   77.49
  -1   5  -2  993.20   86.19
  -1   5  -2  994.30   77.79
   1  -5   2  799.22   82.89
  -1  -5  -2  926.71   90.49
   1   5   3 2588.64  202.58
  -1   5  -3 2591.24  202.78
  -1   5  -3 2640.84  203.08
  -1   5  -3 2642.34  202.88
  -1   5  -3 2587.44  212.38
  -1   5  -3 2635.54  202.78
  -1  -5  -3 2201.58  202.48
  -1  -5  -3 2471.15  219.38
  -1   5  -4  158.18   12.90
  -1   5  -4  151.08   12.70
  -1   5  -4  152.58   12.60
  -1   5  -4  144.29   12.60
   1   5   4  142.99   12.30
   1  -5   4  140.29   17.30
  -1  -5  -4  132.09   12.30
  -1  -5  -4  151.48   26.30
  -1   5  -5  138.79   12.70
  -1   5  -5  156.08   21.10
  -1   5  -5  133.49   12.30
  -1   5  -5  140.89   12.30
  -1   5  -5  156.48   12.60
   1   5   5  139.59   11.90
  -1  -5  -5  162.58   30.00
  -1  -5  -5  130.99   12.10
  -1   5  -6    0.70    0.90
  -1   5  -6    6.60    6.70
  -1   5  -6    3.20    1.30
  -1   5  -6    0.30    0.80
  -1   5  -6    2.50    1.00
  -1  -5  -6    0.70    0.90
  -1  -5  -6  -10.10   12.80
  -1   5  -7  867.91   71.29
  -1   5  -7  839.32   71.39
  -1   5  -7  925.71   71.79
  -1   5  -7  795.52   81.89
  -1  -5  -7  993.30   71.69
  -1  -5  -7  848.32   71.19
  -1   5  -8  118.59   11.60
  -1   5  -8  132.69   11.90
  -1   5  -8  123.89   11.20
  -1  -5  -8  137.49   11.60
   1   6  -8   10.00    2.40
   1   6  -8    6.80    2.20
   1   6  -8   12.10    2.40
   1   6  -7  266.57   38.70
   1   6  -7  342.27   26.40
   1   6  -7  279.17   26.10
   1   6  -7  318.87   26.60
   1   6  -7  350.86   26.80
   1  -6  -7  306.27   25.90
   1   6  -6  723.33   52.19
   1   6  -6  586.04   51.39
   1   6  -6  639.64   51.59
   1   6  -6  634.84   52.09
   1   6  -6  622.34   64.59
   1  -6  -6  600.74   51.19
   1   6  -5    5.30    1.60
   1   6  -5    6.50    5.30
   1   6  -5    5.10    1.40
   1  -6  -5    5.30    7.60
  -1   6   4   17.20    2.00
   1   6  -4   17.10    2.50
   1   6  -4   16.90    2.20
   1   6  -4   26.80    9.80
   1   6  -4   17.10    2.70
  -1  -6   4   14.10    8.00
   1  -6  -4   16.00    9.70
   1   6  -3  110.69   10.00
   1   6  -3  102.69    9.60
   1   6  -3  108.89   18.30
   1   6  -3  108.29    9.20
   1   6  -3   91.19    9.50
  -1   6   3  120.19    9.20
   1  -6  -3   96.39   19.30
  -1  -6   3  101.79   17.70
   1   6  -2    4.20    1.40
   1   6  -2    3.80    1.40
  -1   6   2    4.00    1.00
   1   6  -2    4.40    1.10
   1   6  -2    1.70    4.10
  -1  -6   2   16.40    8.80
   1  -6  -2    5.30    4.90
   1   6  -1   13.60    2.80
  -1   6   1   18.30    2.20
  -1   6   1   19.10    2.60
   1   6  -1   19.20    2.80
   1   6  -1   22.00    2.00
   1   6  -1   22.60    2.40
   1  -6  -1   12.80    8.10
  -1  -6   1   14.20    2.00
  -1  -6   1   22.30    8.80
   1   6   0 2124.59  190.28
  -1   6   0 2183.98  169.28
  -1   6   0 2182.38  169.68
   1   6   0 2258.97  170.18
  -1   6   0 2043.30  169.78
   1   6   0 2134.89  169.38
   1  -6   0 1953.80  179.68
  -1  -6   0 2082.09  183.28
  -1   6  -1 1275.87   98.39
  -1   6  -1 1202.18   98.09
   1   6   1 1305.87   98.89
   1   6   1 1247.58   98.09
  -1   6  -1 1368.66   98.19
  -1   6  -1 1055.59   98.39
   1  -6   1 1070.49  106.89
  -1  -6  -1 1258.67  113.89
  -1   6  -2  335.47   31.40
  -1   6  -2  397.96   31.10
   1   6   2  443.76   32.10
   1   6   2  393.56   31.20
  -1   6  -2  378.16   31.50
  -1   6  -2  374.06   31.20
  -1  -6  -2  377.76   45.90
   1  -6   2  343.57   38.60
  -1   6  -3  100.09    8.50
  -1   6  -3   88.99    8.40
   1   6   3   84.89    7.90
  -1   6  -3   93.99    8.10
  -1   6  -3  100.49   15.50
  -1   6  -3   87.59    8.20
   1  -6   3   67.29   14.50
  -1  -6  -3  114.59   21.90
  -1   6  -4 1310.37  109.29
  -1   6  -4 1350.76  109.49
  -1   6  -4 1349.27  119.79
  -1   6  -4 1415.36  109.59
   1   6   4 1348.57  109.09
  -1   6  -4 1351.66  109.39
  -1  -6  -4 1464.75  133.89
  -1   6  -5   42.10    4.50
  -1   6  -5   44.30   13.00
   1   6   5   45.20    4.00
  -1   6  -5   35.90    4.30
  -1   6  -5   42.10    4.50
  -1   6  -5   43.20    4.60
  -1  -6  -5   36.50    4.60
  -1  -6  -5   53.49   20.00
  -1   6  -6 1082.69   86.49
  -1   6  -6  997.80   96.39
  -1   6  -6  982.20   86.39
  -1   6  -6 1185.68   86.99
  -1   6  -6 1106.09   86.69
  -1   6  -7   19.10    2.70
  -1   6  -7   15.60    2.80
  -1   6  -7   21.10    3.00
  -1  -6  -7   21.00    2.90
  -1   6  -8    5.50    2.20
  -1  -6  -8    5.30    1.70
   1   7  -7   23.50    3.50
   1   7  -7   27.80    3.30
   1   7  -7   22.20    3.40
   1   7  -7   26.90    3.50
   1   7  -6   57.39    5.60
   1   7  -6   40.30    4.70
   1   7  -6   48.10    5.10
   1   7  -6   51.69   17.40
   1   7  -6   46.00    5.10
   1   7  -5  116.59   10.60
   1   7  -5  128.39   10.80
   1   7  -5  108.49   10.00
   1   7  -5  102.19   20.20
   1   7  -5  105.39   10.20
   1   7  -4  514.65   39.80
  -1   7   4  465.25   38.70
   1   7  -4  496.85   52.49
   1   7  -4  428.86   39.10
   1   7  -4  471.65   38.90
   1   7  -4  524.75   39.80
   1  -7  -4  429.06   61.49
  -1   7   3    8.60    1.50
   1   7  -3    8.80    1.80
   1   7  -3   13.20    2.70
   1   7  -3   12.40    2.50
   1   7  -3    8.60    1.50
   1   7  -3   10.40    6.30
   1  -7  -3    8.80    9.60
  -1  -7   3   -0.70    7.60
   1   7  -2  556.34   43.10
   1   7  -2  477.55   44.00
  -1   7   2  587.94   43.50
   1   7  -2  615.54   44.40
   1   7  -2  509.35   43.60
   1  -7  -2  496.15   57.89
  -1  -7   2  448.86   55.79
  -1   7   1  149.69   13.20
  -1   7   1  148.09   12.80
   1   7  -1  168.88   13.70
   1   7  -1  135.79   12.90
  -1  -7   1  140.99   39.20
   1  -7  -1  153.48   25.50
   1   7   0   17.30    3.40
   1   7   0   22.70    2.70
   1   7   0   24.90    3.40
  -1   7   0   23.20    2.70
  -1   7   0   20.30    2.80
  -1  -7   0   20.10    9.70
   1  -7   0   40.30   11.70
  -1   7  -1  716.03   60.79
  -1   7  -1  775.72   60.39
  -1   7  -1  757.02   60.99
   1   7   1  823.92   61.69
   1   7   1  725.93   60.69
   1  -7   1  686.13   71.99
  -1  -7  -1  782.92   79.19
  -1   7  -2   14.00    2.30
   1   7   2   15.40    2.10
  -1   7  -2   16.20    2.00
  -1   7  -2   17.00    2.80
  -1   7  -2   15.50    2.20
   1   7   2   15.10    2.70
  -1  -7  -2   11.30   10.10
   1  -7   2    9.50    9.10
  -1   7  -3 1155.88   96.89
   1   7   3 1223.48   96.69
  -1   7  -3 1223.58   97.29
  -1   7  -3 1200.08   96.59
  -1   7  -3 1221.78   96.99
  -1  -7  -3 1221.28  120.49
  -1   7  -4  511.75   40.80
  -1   7  -4  475.05   40.20
  -1   7  -4  498.75   40.40
   1   7   4  479.95   40.00
  -1   7  -4  477.45   40.40
  -1  -7  -4  581.64   66.59
   1   7   5 1008.80   81.39
  -1   7  -5  927.11   81.59
  -1   7  -5 1119.69   82.39
  -1   7  -5 1001.70   81.89
  -1   7  -5 1024.90   81.79
  -1   7  -6  295.97   26.20
  -1   7  -6  357.86   27.00
  -1   7  -6  324.87   26.70
  -1   7  -6  296.47   26.40
  -1   7  -7  114.89   12.20
  -1   7  -7  163.18   12.80
  -1  -7  -7  147.59   12.40
   1   8  -6   12.60    2.70
   1   8  -6   20.70    2.90
   1   8  -6   13.30    2.40
   1   8  -5   13.90    2.80
   1   8  -5   13.40    2.30
   1   8  -5   12.30    2.40
   1   8  -4   11.10    2.70
   1   8  -4    9.40    2.50
   1   8  -4    9.00    2.00
  -1   8   4   10.60    1.90
   1   8  -3    3.60    1.50
   1   8  -3    0.00    1.50
   1   8  -3    8.10    1.90
   1   8  -3    4.80    1.60
   1   8  -2  179.78   17.40
   1   8  -2  183.68   16.90
   1   8  -2  234.88   17.70
  -1   8   2  204.38   16.70
  -1  -8   2  221.58   55.49
   1  -8  -2  159.68   31.10
   1   8  -1   14.60    3.10
   1   8  -1   17.60    2.40
   1   8  -1   16.60    2.80
  -1   8   1   15.70    2.20
  -1  -8   1   13.70   14.50
   1  -8  -1   16.30   13.40
   1   8   0    5.20    1.20
  -1   8   0    4.10    1.20
   1   8   0    6.20    1.90
  -1  -8   0    6.70   11.20
   1  -8   0   24.10   12.10
   1   8   1   11.10    2.60
   1   8   1    6.40    1.70
  -1   8  -1   10.10    2.10
  -1   8  -1   13.10    1.90
  -1   8  -1    8.40    1.80
   1  -8   1   11.60   14.00
  -1  -8  -1    9.90   16.70
   1   8   2 2049.99  159.08
  -1   8  -2 1986.60  159.58
  -1   8  -2 1865.11  159.18
  -1   8  -2 2072.29  159.38
  -1  -8  -2 1985.90  185.08
  -1   8  -3   11.80    2.60
   1   8   3   10.70    1.80
  -1   8  -3   12.20    2.10
  -1   8  -3   12.50    2.10
  -1   8  -3   12.30    1.90
  -1   8  -4  554.54   46.20
  -1   8  -4  551.84   46.60
   1   8   4  583.44   46.20
  -1   8  -4  591.54   46.40
  -1   8  -5   15.40    2.30
  -1   8  -5   18.20    3.20
  -1   8  -5   15.50    2.30
  -1   8  -5   15.90    2.60
   1   8   5   15.60    2.20
  -1   8  -6  257.87   19.80
  -1   8  -6  204.98   19.50
   1   9  -4  171.18   14.50
   1   9  -4  145.39   14.00
   1   9  -4  165.08   14.00
   1   9  -3   40.20    4.70
   1   9  -3   34.90    4.20
   1   9  -3   40.90    4.40
  -1   9   3   35.70    3.80
   1   9  -2  224.48   18.00
   1   9  -2  215.38   17.80
  -1   9   2  194.98   17.10
   1   9  -2  183.88   17.40
   1   9  -1  311.67   28.80
  -1   9   1  336.07   28.70
   1   9  -1  402.66   29.50
   1   9   0    0.50    1.10
   1   9   0    3.50    1.10
  -1   9   0    3.70    1.10
  -1   9  -1  490.75   37.50
   1   9   1  432.96   37.20
  -1   9  -1  444.76   37.40
   1   9   2   12.50    1.90
  -1   9  -2    8.70    2.00
  -1   9  -2   16.00    2.10
   1   9   3  208.78   17.60
  -1   9  -3  203.68   18.00
  -1   9  -3  220.08   17.80
  -1   9  -4   92.69    8.60
  -1   9  -4   79.29    8.10
   1  10  -2    1.70    1.40
   1  10  -2    2.10    1.20
  -1  10   2    2.20    1.00
   1  10  -1    9.00    1.80
  -1  10   1    6.60    1.40
   1  10   0  299.77   26.00
  -1  10   0  330.37   26.10
  -1  10  -1  324.47   27.00
   1  10   1  330.17   27.00
  -1  10  -2  140.99   11.90
   1  10   2  128.09   11.50
   2   0 -10  528.65   43.30
   2   0  -9    1.90    1.10
   2   0  -9    2.90    1.50
   2   0  -9    1.80    2.40
   2   0  -9  -14.70   16.40
   2   0  -8  249.68   22.90
   2   0  -8  277.47   23.30
   2   0  -8  284.57   46.30
   2   0  -8  297.67   25.20
   2   0  -7    1.40    1.50
   2   0  -7    2.90    1.10
   2   0  -7    2.40    1.50
   2   0  -7   -2.60    7.10
   2   0  -6 3205.58  275.57
   2   0  -6 3264.77  258.87
   2   0  -5    1.10    0.80
   2   0  -5    1.10    0.60
   2   0  -5    1.40    0.60
  -2   0   5    1.30    5.40
  -2   0   5   -2.10    5.90
   2   0  -5    5.30    3.70
  -2   0   4  192.98   23.60
   2   0  -4  144.59   20.80
   2   0  -4  176.48   14.80
   2   0  -4  172.58   23.50
   2   0  -4  194.98   15.00
  -2   0   4  192.98   24.60
   2   0  -3    4.20    0.60
  -2   0   3   12.10    4.20
  -2   0   3    1.10    2.20
   2   0  -3    1.90    3.00
   2   0  -3    0.40    1.70
   2   0  -2  302.67   31.90
   2   0  -2  420.36   34.80
  -2   0   2  387.66   34.60
   2   0  -2  377.06   34.30
  -2   0   2  306.87   32.90
  -2   0   1   -0.20    1.30
   2   0  -1    2.20    2.00
  -2   0   1    3.60    2.10
   2   0  -1    1.10    1.00
   2   0   0  850.01   70.49
  -2   0   0  899.61   76.29
  -2   0  -1    4.10    1.50
  -2   0  -1    6.50    3.40
   2   0   1    7.40    3.20
   2   0   2 2726.73  203.98
  -2   0  -2 2481.45  202.48
  -2   0  -2 2346.87  199.58
   2   0   2 2344.37  198.38
  -2   0  -3    2.40    0.60
  -2   0  -3    2.40    2.40
   2   0   3    4.60    2.20
   2   0   3    1.70    2.70
  -2   0  -4 2261.87  198.28
  -2   0  -4 2130.99  188.98
  -2   0  -4 2207.58  198.58
   2   0   4 2739.23  202.58
  -2   0  -4 2574.74  197.98
  -2   0  -5    0.70    2.30
  -2   0  -5    4.90    1.30
  -2   0  -5    1.20    0.70
  -2   0  -5    1.40    4.70
  -2   0  -5    2.90    0.90
  -2   0  -6 1947.51  167.98
  -2   0  -6 2555.14  184.78
  -2   0  -6 2127.79  167.68
  -2   0  -6 1874.81  167.98
  -2   0  -7    1.10    1.10
  -2   0  -7    0.30    1.00
  -2   0  -7   -5.50    5.50
  -2   0  -7    4.00    1.40
  -2   0  -7    2.70    1.40
  -2   0  -8  485.95   37.30
  -2   0  -8  400.16   36.40
  -2   0  -8  492.55   54.19
  -2   0  -8  419.76   37.10
  -2   0  -9    4.80    1.90
  -2   0  -9    4.80    2.00
  -2   0  -9    2.60    1.60
   2   1 -10  198.48   17.20
   2  -1 -10  199.38   17.00
   2   1  -9 1029.10   84.09
   2   1  -9 1132.99   86.19
   2   1  -9  978.50   83.79
   2   1  -9 1169.78  118.19
   2  -1  -9  970.20   83.69
   2   1  -8   14.70    2.50
   2   1  -8   22.40   14.10
   2   1  -8   24.90    4.20
   2  -1  -8   28.00   14.60
   2  -1  -8   16.30    2.40
   2  -1  -8   28.10    4.80
   2   1  -7 1592.24  124.29
   2   1  -7 1253.17  142.89
   2   1  -7 1422.26  124.19
   2  -1  -7 1676.63  126.09
   2  -1  -7 1520.15  124.19
   2  -1  -7 1682.83  124.59
   2  -1  -7 1673.93  148.89
   2   1  -6  467.35   35.40
   2   1  -6  354.66   48.00
   2   1  -6  411.86   35.30
   2  -1  -6  460.15   51.39
   2  -1  -6  475.75   35.60
   2  -1  -6  402.56   35.20
   2  -1  -6  443.56   53.39
   2   1  -5 1522.85  118.79
  -2   1   5 1727.43  135.79
  -2   1   5 1617.04  138.29
  -2  -1   5 1285.37  130.29
   2  -1  -5 1458.55  133.59
   2  -1  -5 1591.54  118.89
   2  -1  -5 1369.06  118.59
   2  -1  -5 1350.76  130.89
   2   1  -4  761.52   58.99
  -2   1   4  796.62   72.39
   2   1  -4  591.04   66.59
   2   1  -4  844.02   59.09
   2  -1  -4  649.04   58.79
   2  -1  -4  727.13   58.99
  -2  -1   4  760.02   67.89
   2  -1  -4  803.92   58.99
   2  -1  -4  687.73   68.69
  -2  -1   4  698.53   68.09
  -2   1   3 2176.08  178.58
  -2   1   3 2330.47  178.38
   2  -1  -3 1813.92  168.68
   2  -1  -3 1901.11  175.68
  -2  -1   3 2006.00  175.58
   2  -1  -3 2328.17  168.68
  -2  -1   3 2308.27  175.98
  -2   1   2 2485.75  207.18
   2   1  -2 2684.33  205.48
   2  -1  -2 2270.17  205.28
  -2  -1   2 2652.03  206.38
   2   1  -1  145.09   15.20
  -2   1   1  112.49   13.20
   2   1  -1   97.89   13.10
  -2   1   1  144.29   15.00
   2  -1  -1  139.39   14.90
   2  -1  -1  135.29   13.50
   2   1   0  211.88   21.70
  -2   1   0  168.58   16.40
  -2   1   0  168.08   18.90
  -2  -1   0  217.78   22.40
   2  -1   0  180.08   16.30
   2  -1   0  195.28   19.40
  -2   1  -1   51.69    5.30
  -2   1  -1   51.59    8.60
   2  -1   1   36.80    4.50
   2  -1   1   34.40    8.40
  -2  -1  -1   49.10    8.20
  -2  -1  -1   42.60    6.50
  -2   1  -2  178.78   16.80
  -2   1  -2  175.88   13.80
  -2   1  -2  160.68   17.70
  -2   1  -2  169.38   13.80
   2   1   2  184.58   20.30
   2  -1   2  185.78   20.00
  -2  -1  -2  147.69   17.80
  -2  -1  -2  147.49   19.00
   2  -1   2  159.58   14.50
  -2   1  -3  934.41   74.69
  -2   1  -3  836.92   79.99
  -2   1  -3 1039.70   74.59
  -2   1  -3 1074.99   80.39
  -2   1  -3  882.31   74.49
  -2   1  -3  910.31   74.59
   2   1   3 1070.39   85.29
  -2  -1  -3  977.70   82.79
  -2  -1  -3  922.01   83.49
   2  -1   3  854.01   76.69
  -2  -1  -3  811.72   74.49
  -2   1  -4  120.19   15.50
   2   1   4  104.99   17.60
  -2   1  -4  119.59    9.70
  -2   1  -4  105.59    9.70
  -2   1  -4  101.49    9.70
  -2   1  -4   93.19   15.90
  -2   1  -4  127.59    9.90
   2  -1   4  147.89   19.70
  -2  -1  -4  107.09    9.80
  -2  -1  -4  111.59   18.00
  -2  -1  -4  124.09    9.60
  -2  -1  -4  100.39   17.50
  -2   1  -5  605.54   44.20
  -2   1  -5  550.84   52.69
  -2   1  -5  557.44   43.40
  -2   1  -5  485.45   43.50
  -2   1  -5  513.85   43.50
  -2  -1  -5  525.35   43.60
  -2  -1  -5  526.75   58.99
  -2  -1  -5  529.75   43.30
  -2   1  -6  709.73   63.79
  -2   1  -6  832.82   63.69
  -2   1  -6  837.62   64.09
  -2   1  -6  901.71   76.89
  -2   1  -6  766.42   63.89
  -2  -1  -6  766.52   84.29
  -2  -1  -6  794.32   63.49
  -2  -1  -6  755.72   63.99
  -2  -1  -6  763.32   63.89
  -2   1  -7 1959.60  158.88
  -2   1  -7 1900.41  158.78
  -2   1  -7 1894.11  158.98
  -2   1  -7 2078.39  158.58
  -2   1  -7 1952.00  173.48
  -2  -1  -7 2074.29  159.18
  -2  -1  -7 2030.90  158.68
  -2  -1  -7 1958.30  158.88
  -2   1  -8   75.19   18.30
  -2   1  -8   68.79    7.60
  -2   1  -8   71.19    7.40
  -2   1  -8   71.09    7.90
  -2  -1  -8   90.09    8.20
  -2  -1  -8   69.29    7.60
  -2  -1  -8   88.09   22.00
  -2  -1  -8   80.59    7.60
  -2   1  -9  593.34   51.59
  -2   1  -9  598.84   51.09
  -2   1  -9  567.34   50.89
  -2  -1  -9  713.43   51.69
  -2  -1  -9  647.34   51.69
   2   2 -10  111.89   10.30
   2  -2 -10  109.39    9.90
   2   2  -9   46.30   24.00
   2   2  -9   38.60    5.40
   2   2  -9   30.90    3.90
   2   2  -9   35.40    5.70
   2  -2  -9   29.90    3.70
   2  -2  -9   35.70   17.70
   2   2  -8 1505.65  110.79
   2   2  -8 1239.88  134.19
   2   2  -8 1414.06  110.79
   2   2  -8 1235.28  111.99
   2  -2  -8 1431.86  110.49
   2   2  -7  224.28   23.90
   2   2  -7  283.97   23.00
   2   2  -7  300.17   23.00
   2   2  -7  224.98   38.20
   2  -2  -7  384.96   50.89
   2  -2  -7  279.67   22.80
   2   2  -6  405.76   33.90
   2   2  -6  416.46   33.90
   2  -2  -6  384.26   33.70
   2  -2  -6  503.45   53.69
   2  -2  -6  455.35   51.39
   2   2  -5 1511.95  125.19
   2   2  -5 1628.84  125.19
   2   2  -5 1667.33  125.29
  -2   2   5 1471.65  143.09
   2  -2  -5 1666.23  141.59
   2  -2  -5 1588.24  125.19
   2  -2  -5 1449.76  125.09
  -2   2   4 1571.54  126.59
  -2   2   4 1347.07  125.89
   2   2  -4 1377.66  112.19
   2   2  -4 1439.56  112.39
   2   2  -4 1529.85  112.39
   2  -2  -4 1440.46  112.29
   2  -2  -4 1404.16  123.49
   2  -2  -4 1182.58  112.09
   2   2  -3  860.61   62.49
   2   2  -3  767.32   62.29
   2   2  -3  789.32   62.49
  -2   2   3  812.72   72.99
   2  -2  -3  796.72   62.39
   2  -2  -3  719.23   69.89
  -2  -2   3  706.63   66.89
  -2   2   2  255.47   27.00
   2   2  -2  256.47   20.20
   2   2  -2  234.68   23.40
   2   2  -2  215.88   25.90
   2   2  -2  276.17   20.30
  -2   2   2  254.77   26.90
   2  -2  -2  236.08   25.20
  -2   2   1   16.70    4.60
   2   2  -1   14.90    5.50
   2   2  -1   14.40    5.10
  -2  -2   1   24.80    7.20
  -2   2   0  972.50   84.69
   2   2   0 1108.99   87.29
  -2   2   0  873.21   82.89
  -2  -2   0 1078.19   86.49
   2  -2   0  986.10   82.69
   2  -2   0 1039.70   84.59
  -2   2  -1   79.59    5.90
  -2   2  -1   76.39    8.20
  -2   2  -1   61.29    9.80
   2   2   1   68.99   10.30
   2   2   1   56.39    6.10
  -2  -2  -1   68.49   10.80
   2  -2   1   61.19    6.60
   2  -2   1   70.49    8.80
  -2  -2  -1   65.09    9.70
  -2   2  -2 1949.60  169.98
   2   2   2 2277.47  176.48
  -2   2  -2 2129.69  166.88
  -2   2  -2 2073.69  171.18
   2  -2   2 2187.38  175.78
   2  -2   2 1907.11  168.08
  -2  -2  -2 2063.19  175.78
  -2  -2  -2 2244.88  175.08
  -2   2  -3 2465.55  183.28
  -2   2  -3 2088.09  188.68
   2   2   3 2601.64  195.58
  -2   2  -3 2458.05  183.18
  -2   2  -3 2235.18  187.68
  -2  -2  -3 2630.14  195.08
  -2  -2  -3 2296.67  194.58
   2  -2   3 2037.60  184.88
  -2  -2  -3 2066.69  183.18
   2  -2   3 2199.38  191.98
  -2   2  -4  153.28   11.30
  -2   2  -4  105.59   15.30
  -2   2  -4  134.59   11.20
  -2   2  -4  140.99   11.60
   2   2   4  136.59   21.00
  -2   2  -4  131.29   17.10
  -2   2  -4  117.59   11.20
   2  -2   4  117.29   13.80
  -2  -2  -4  169.48   23.10
  -2  -2  -4  137.29   11.40
  -2  -2  -4  121.19   19.40
   2  -2   4  120.89   19.10
  -2   2  -5  283.47   26.60
  -2   2  -5  336.37   26.70
   2   2   5  343.57   52.09
  -2   2  -5  322.07   26.70
  -2   2  -5  355.06   26.70
  -2   2  -5  322.17   35.10
  -2  -2  -5  325.17   26.70
  -2  -2  -5  309.37   41.70
  -2  -2  -5  318.37   26.30
  -2   2  -6 1044.90   86.99
  -2   2  -6 1131.89   86.89
  -2   2  -6 1004.80  100.89
  -2   2  -6 1034.60   86.99
  -2  -2  -6 1119.79   86.59
  -2  -2  -6 1118.19   87.39
  -2  -2  -6 1080.09   86.99
  -2   2  -7   72.29    7.40
  -2   2  -7   99.39   18.00
  -2   2  -7   65.19    6.90
  -2   2  -7   67.69    7.10
  -2  -2  -7   72.79    7.30
  -2  -2  -7  102.99   27.00
  -2  -2  -7   78.69    7.60
  -2   2  -8 1446.46  118.59
  -2   2  -8 1372.06  118.49
  -2   2  -8 1436.56  132.79
  -2   2  -8 1489.95  119.19
  -2  -2  -8 1461.95  118.89
  -2  -2  -8 1642.54  119.39
  -2   2  -9   55.59    6.70
  -2   2  -9   57.39    6.00
  -2   2  -9   60.79    6.50
  -2  -2  -9   62.29    6.70
   2   3  -9   71.79    8.00
   2   3  -9   85.99    8.50
   2   3  -9   69.69    7.20
   2  -3  -9   68.59    6.80
   2   3  -8    2.80    1.60
   2   3  -8   13.50   10.10
   2   3  -8    6.50    2.70
   2   3  -8    5.90    1.70
   2  -3  -8    6.50    1.50
   2  -3  -8   14.60   10.60
   2   3  -7  629.84   61.49
   2   3  -7  771.92   60.79
   2   3  -7  777.22   60.59
   2   3  -7  654.53   78.29
   2  -3  -7  783.42   60.39
   2  -3  -7  953.30   91.89
   2   3  -6   44.00    5.20
   2   3  -6   67.99   19.30
   2   3  -6   46.90    4.40
   2   3  -6   37.00    4.70
   2   3  -6   42.10    4.80
   2  -3  -6   29.40   16.80
  -2   3   5 2720.93  217.08
  -2   3   5 2504.55  218.68
   2   3  -5 2451.65  196.18
   2   3  -5 2618.14  196.38
   2   3  -5 2340.07  196.28
   2  -3  -5 2444.16  196.18
   2  -3  -5 2139.09  195.98
   2  -3  -5 2583.64  213.68
   2   3  -4 1649.54  125.39
   2   3  -4 1578.54  125.19
  -2   3   4 1605.24  139.99
  -2   3   4 1460.65  139.89
   2   3  -4 1527.35  125.29
   2  -3  -4 1607.94  125.19
   2  -3  -4 1541.95  137.29
   2   3  -3    8.70    1.70
   2   3  -3   13.60    6.50
   2   3  -3   12.30    1.40
  -2   3   3   11.20    5.60
  -2   3   3   13.80    5.40
   2   3  -3    8.70    1.20
   2   3  -3    9.30    1.30
  -2  -3   3   16.60    4.80
   2  -3  -3   13.80    5.40
  -2  -3   3   10.00    2.70
  -2   3   2  343.87   33.90
   2   3  -2  322.27   25.70
  -2   3   2  307.57   33.10
   2   3  -2  324.27   28.00
   2   3  -2  332.87   25.60
   2   3  -2  324.27   25.60
  -2  -3   2  297.77   28.60
   2  -3  -2  272.37   31.40
  -2   3   1 2835.52  213.38
   2   3  -1 2475.65  214.28
  -2   3   1 2517.15  213.08
  -2  -3   1 2577.34  211.08
   2  -3  -1 2586.94  212.18
   2   3   0   79.39    8.30
   2   3   0  115.79   14.60
   2   3   0   92.49   13.40
  -2   3   0   95.49   11.40
   2   3   0   96.19    8.10
  -2   3   0  107.49    8.00
  -2   3   0   96.19   12.30
  -2  -3   0   97.09   14.40
  -2  -3   0  103.69   13.10
   2  -3   0   85.29   10.90
  -2   3  -1  312.97   23.60
   2   3   1  243.08   23.30
   2   3   1  281.47   23.40
  -2   3  -1  252.57   27.10
  -2  -3  -1  296.37   30.90
   2  -3   1  292.87   25.70
  -2  -3  -1  346.27   31.90
  -2   3  -2  104.39    8.40
  -2   3  -2  107.89    8.40
   2   3   2  110.19   16.40
  -2   3  -2  104.89   12.50
  -2  -3  -2   95.19   18.50
   2  -3   2   86.69    9.90
  -2  -3  -2   82.09    8.20
  -2  -3  -2  102.59   15.30
  -2   3  -3   12.20    1.60
  -2   3  -3    9.10    4.00
  -2   3  -3   11.00    1.50
   2   3   3   14.40    7.00
  -2   3  -3   13.60    1.70
  -2   3  -3   11.00    1.40
  -2  -3  -3   18.50    7.70
   2  -3   3    7.30    3.30
   2  -3   3    8.40    2.60
  -2  -3  -3   16.00    7.20
  -2  -3  -3   10.70    1.50
  -2   3  -4  892.11   69.09
   2   3   4  908.11   84.19
  -2   3  -4  806.62   69.09
  -2   3  -4  873.31   69.09
  -2   3  -4  899.61   69.09
  -2   3  -4  910.41   77.09
  -2  -3  -4  766.52   83.49
  -2  -3  -4  775.52   68.99
  -2  -3  -4  942.51   85.49
   2   3   5 3141.69  253.07
  -2   3  -5 2887.01  231.18
  -2   3  -5 2593.84  231.08
  -2   3  -5 2742.93  240.08
  -2   3  -5 3048.29  231.28
  -2  -3  -5 3021.20  231.28
  -2   3  -6  114.49   18.50
  -2   3  -6  111.69   10.10
  -2   3  -6  114.29   10.20
  -2   3  -6  110.39   10.20
  -2  -3  -6  110.19   10.20
  -2   3  -7   49.20    5.00
  -2   3  -7   47.00    5.30
  -2   3  -7   41.10    5.00
  -2   3  -7   36.80   12.10
  -2  -3  -7   45.70    5.10
  -2  -3  -7   51.89   26.60
  -2  -3  -7   56.69   23.00
  -2  -3  -7   50.89    5.50
  -2   3  -8   53.29    6.30
  -2   3  -8   59.29    6.70
  -2  -3  -8   61.29    6.50
  -2  -3  -8   60.89    6.70
  -2  -3  -8  112.79   26.50
  -2   3  -9  486.35   43.00
  -2   3  -9  502.25   42.70
  -2  -3  -9  564.14   43.10
   2   4  -9  371.46   28.50
   2   4  -9  300.87   27.60
   2   4  -9  326.07   27.70
   2  -4  -9  319.27   27.50
   2   4  -8  258.57   22.10
   2   4  -8  270.67   22.30
   2   4  -8  261.57   23.10
   2   4  -8  232.08   41.40
   2  -4  -8  259.87   21.70
   2   4  -7  661.03   73.19
   2   4  -7  688.83   54.99
   2   4  -7  651.73   55.99
   2   4  -7  712.33   55.29
   2  -4  -7  665.43   54.69
   2   4  -6  263.17   21.40
   2   4  -6  259.67   21.50
   2   4  -6  210.08   34.20
   2   4  -6  287.57   21.50
   2   4  -6  215.68   22.10
   2  -4  -6  306.87   40.80
   2  -4  -6  251.87   21.10
   2   4  -5    0.30    4.80
   2   4  -5    2.90    0.90
   2   4  -5    1.90    1.20
   2  -4  -5   -2.50    5.40
   2   4  -4  615.74   49.70
  -2   4   4  655.33   65.89
   2   4  -4  656.43   49.70
   2   4  -4  503.55   60.19
   2   4  -4  595.84   49.50
  -2   4   4  657.33   49.30
   2  -4  -4  581.34   61.49
  -2   4   3 1207.28  102.09
   2   4  -3 1132.89   88.89
  -2   4   3 1158.58   88.49
  -2   4   3 1082.09  101.39
   2   4  -3 1068.19   88.69
   2  -4  -3 1005.80   98.39
   2   4  -2  900.11   74.29
   2   4  -2 1006.10   74.29
   2   4  -2  917.41   74.49
  -2   4   2  917.11   85.79
  -2   4   2  965.10   74.19
   2  -4  -2  847.02   82.29
   2   4  -1 1392.86  123.79
  -2   4   1 1392.46  123.49
   2   4  -1 1473.45  115.99
   2   4  -1 1502.75  116.29
  -2   4   1 1561.54  115.79
  -2   4   1 1349.16  125.79
  -2   4   1 1674.63  115.89
  -2   4   1 1424.26  115.99
   2   4  -1 1226.48  116.39
   2   4  -1 1679.13  115.79
   2   4  -1 1293.87  124.79
   2  -4  -1 1369.06  122.79
  -2  -4   1 1434.76  120.39
  -2  -4   1 1525.65  128.49
  -2   4   0  422.66   32.30
   2   4   0  376.46   32.90
  -2   4   0  437.46   32.50
   2   4   0  383.66   32.40
   2   4   0  454.95   41.90
  -2   4   0  353.96   37.40
  -2   4   0  387.76   32.40
  -2   4   0  413.46   37.10
   2   4   0  399.86   41.60
   2  -4   0  387.66   37.50
  -2  -4   0  426.46   43.10
  -2  -4   0  387.06   39.30
  -2   4  -1 2457.85  186.18
   2   4   1 2399.46  196.68
   2   4   1 2088.09  186.58
   2   4   1 2434.86  186.68
  -2   4  -1 2562.64  186.28
  -2   4  -1 2202.78  187.08
  -2   4  -1 2667.93  186.28
  -2   4  -1 2304.37  188.58
  -2  -4  -1 2287.47  197.18
   2  -4   1 2179.18  190.38
  -2  -4  -1 2113.39  195.88
   2   4   2  863.11   81.59
   2   4   2 1113.69   94.49
  -2   4  -2 1065.09   81.39
  -2   4  -2 1103.89   81.39
  -2   4  -2 1059.19   81.39
  -2   4  -2 1033.40   81.29
  -2   4  -2 1033.30   87.29
  -2  -4  -2 1058.99   94.39
   2  -4   2  850.41   84.09
  -2   4  -3  171.58   19.20
  -2   4  -3  176.68   13.50
  -2   4  -3  158.08   13.40
  -2   4  -3  177.98   13.40
   2   4   3  185.78   26.70
  -2   4  -3  163.48   13.60
  -2  -4  -3  144.49   13.20
  -2  -4  -3  170.58   25.40
  -2  -4  -3  131.39   24.00
   2  -4   3  125.19   17.60
   2  -4   3  135.19   15.50
  -2   4  -4  918.91   71.49
  -2   4  -4  867.21   71.39
  -2   4  -4  898.31   79.29
  -2   4  -4  918.41   71.49
  -2   4  -4  888.31   71.39
  -2  -4  -4  788.32   71.29
  -2  -4  -4  989.90   91.29
  -2   4  -5  739.53   59.39
  -2   4  -5  766.72   59.49
  -2   4  -5  749.13   68.39
  -2   4  -5  699.33   59.29
  -2  -4  -5  856.91   83.59
  -2  -4  -5  671.83   59.29
  -2   4  -6  393.66   32.40
  -2   4  -6  366.06   32.20
  -2   4  -6  383.16   32.30
  -2   4  -6  408.76   41.40
  -2  -4  -6  377.16   32.20
  -2  -4  -6  513.35   60.39
   2   4   7  191.68   16.90
  -2   4  -7  181.28   17.20
  -2   4  -7  205.48   27.60
  -2   4  -7  194.98   17.50
  -2   4  -7  205.18   17.10
  -2  -4  -7  218.08   17.70
  -2  -4  -7  263.37   55.19
  -2  -4  -7  199.88   17.30
  -2   4  -8  326.57   27.80
  -2   4  -8  317.57   28.00
  -2  -4  -8  361.16   28.10
  -2  -4  -8  315.97   27.70
  -2   4  -9  284.37   24.30
  -2   4  -9  284.87   24.40
   2   5  -8   41.20    5.00
   2   5  -8   47.70    5.40
   2   5  -8   43.60    5.00
   2  -5  -8   39.80    4.30
   2   5  -7  213.98   18.70
   2   5  -7  246.78   19.00
   2   5  -7  242.58   19.20
   2   5  -7  202.98   19.40
   2   5  -7  211.88   33.60
   2  -5  -7  200.38   18.30
   2   5  -6   88.09    8.00
   2   5  -6   90.39    8.30
   2   5  -6   84.29    8.80
   2   5  -6   90.79   22.00
   2   5  -6   79.79    8.00
   2  -5  -6  105.39   28.90
   2  -5  -6   90.29    7.70
   2   5  -5   17.40    9.90
   2   5  -5    8.80    2.20
   2   5  -5    9.40    1.90
   2   5  -5   10.20    1.70
   2  -5  -5    9.80    1.40
   2  -5  -5   24.50    9.40
   2   5  -4 1184.08  116.09
   2   5  -4 1109.19  103.09
   2   5  -4 1315.27  102.49
   2   5  -4 1364.76  102.79
   2   5  -4 1377.76  102.49
   2  -5  -4 1313.37  118.19
   2   5  -3 2366.26  209.08
   2   5  -3 2522.05  195.48
   2   5  -3 2219.78  196.08
   2  -5  -3 2739.73  210.08
   2   5  -2    5.60    1.20
   2   5  -2    9.60    6.00
  -2   5   2    5.20    5.40
   2   5  -2    8.00    1.80
   2   5  -2    8.50    1.60
   2  -5  -2    2.20    3.40
  -2  -5   2    2.20    4.40
   2   5  -1  361.16   26.50
  -2   5   1  334.27   34.60
   2   5  -1  306.77   26.80
   2   5  -1  318.97   32.10
  -2   5   1  325.37   26.90
  -2   5   1  353.26   26.70
   2   5  -1  314.67   27.20
  -2   5   1  369.46   26.70
   2   5  -1  289.97   36.30
   2   5  -1  295.57   27.30
  -2  -5   1  358.76   39.60
   2  -5  -1  263.87   41.60
   2   5   0  342.97   37.20
   2   5   0  310.97   25.50
  -2   5   0  291.67   30.10
  -2   5   0  299.37   25.70
   2   5   0  315.37   26.20
  -2   5   0  333.17   25.40
  -2  -5   0  299.17   32.60
   2  -5   0  290.27   32.20
  -2  -5   0  339.07   37.60
  -2   5  -1 2294.07  165.38
  -2   5  -1 2327.97  165.68
   2   5   1 1979.90  177.58
  -2   5  -1 2151.28  165.38
   2   5   1 2015.10  165.98
   2   5   1 2083.29  166.08
  -2   5  -1 2055.09  165.58
   2   5   1 2120.59  165.38
  -2  -5  -1 2099.39  179.98
   2  -5   1 1900.71  171.48
  -2  -5  -1 1739.13  175.78
  -2   5  -2  123.39   10.50
  -2   5  -2  114.89   10.50
  -2   5  -2  127.09   10.50
   2   5   2  132.09   11.10
  -2   5  -2  134.39   16.80
  -2   5  -2  131.09   10.50
   2   5   2  128.99   22.60
   2   5   2  113.69   10.40
  -2  -5  -2  109.29   10.30
  -2  -5  -2  154.08   22.50
   2  -5   2  111.19   14.60
  -2  -5  -2  111.49   19.90
  -2   5  -3 1749.62  137.69
   2   5   3 1649.93  137.49
  -2   5  -3 1768.22  137.69
  -2   5  -3 1738.83  137.69
  -2   5  -3 1787.02  145.69
  -2   5  -3 1777.22  137.69
  -2  -5  -3 1539.95  137.49
  -2  -5  -3 1822.02  157.88
   2   5   4 1053.59   87.79
  -2   5  -4 1041.60   88.09
  -2   5  -4 1127.59   88.09
  -2   5  -4 1084.39   96.09
  -2   5  -4 1128.19   88.09
  -2   5  -4 1136.09   88.19
  -2  -5  -4 1278.87  113.19
  -2  -5  -4 1012.20   87.89
  -2   5  -5   45.20    4.70
   2   5   5   40.40    4.20
  -2   5  -5   48.80    4.70
  -2   5  -5   40.30    4.60
  -2   5  -5   43.90    4.50
  -2   5  -5   46.40   10.60
  -2  -5  -5   33.60   16.60
  -2   5  -6   14.90    7.60
  -2   5  -6   13.80    2.30
  -2   5  -6   12.50    2.00
  -2   5  -6   13.10    2.20
  -2  -5  -6   11.50    2.10
  -2  -5  -6   -0.50   24.90
  -2   5  -7  641.74   54.89
  -2   5  -7  602.04   55.39
  -2  -5  -7  780.72   55.49
  -2  -5  -7  663.03   55.39
  -2   5  -8    4.50    1.50
  -2   5  -8    2.20    1.60
  -2  -5  -8    5.00    1.60
   2   6  -8   26.50    4.80
   2   6  -8   37.00    4.30
   2   6  -8   31.30    4.00
   2   6  -7   59.29    6.70
   2   6  -7   74.09    6.90
   2   6  -7   82.39   20.10
   2   6  -7   64.69    7.00
   2   6  -7   71.19    7.00
   2   6  -6  465.15   54.59
   2   6  -6  463.15   40.40
   2   6  -6  486.65   39.80
   2   6  -6  460.55   39.70
   2   6  -6  546.15   40.40
   2   6  -5  293.17   24.50
   2   6  -5  292.47   24.50
   2   6  -5  291.77   38.30
   2   6  -5  320.87   25.00
   2   6  -5  283.97   25.20
   2  -6  -5  268.07   40.90
  -2   6   4  148.49   11.60
   2   6  -4  129.09   11.90
   2   6  -4  139.29   12.70
   2   6  -4  139.69   12.30
   2   6  -4  146.19   11.90
   2   6  -4  125.29   22.10
  -2  -6   4  120.19   21.60
   2  -6  -4  108.79   22.60
  -2   6   3  382.06   29.20
   2   6  -3  371.46   29.90
   2   6  -3  333.87   30.60
   2   6  -3  366.06   29.30
   2   6  -3  343.17   41.40
   2  -6  -3  349.87   42.10
  -2  -6   3  335.67   42.00
   2   6  -2  555.24   46.90
   2   6  -2  553.84   59.09
   2   6  -2  541.95   46.50
  -2   6   2  615.84   46.30
   2   6  -2  612.54   46.20
   2   6  -2  576.84   47.30
  -2  -6   2  566.44   61.29
   2  -6  -2  547.05   58.19
  -2   6   1   32.70    3.40
   2   6  -1   30.50    3.70
  -2   6   1   34.00    3.20
   2   6  -1   33.80    3.40
  -2  -6   1   26.40    3.20
   2  -6  -1   36.30    9.80
  -2  -6   1   22.80    9.90
   2   6   0 3383.96  273.37
   2   6   0 3454.65  273.47
  -2   6   0 3424.86  272.77
   2   6   0 3064.79  292.27
  -2   6   0 3597.84  272.77
   2  -6   0 3343.77  283.07
  -2  -6   0 3697.33  291.37
   2   6   1   59.49    5.80
  -2   6  -1   48.30    5.20
  -2   6  -1   47.10    4.90
  -2   6  -1   58.69    4.90
  -2   6  -1   47.30    5.00
   2   6   1   59.99    5.10
  -2  -6  -1   63.39   17.50
  -2  -6  -1   45.70    4.80
   2  -6   1   54.49   11.10
   2   6   2  216.98   18.00
  -2   6  -2  220.38   18.10
   2   6   2  245.48   18.90
  -2   6  -2  219.88   17.90
  -2   6  -2  209.88   18.00
  -2   6  -2  234.78   18.40
   2  -6   2  195.28   24.50
  -2  -6  -2  209.48   33.20
  -2  -6  -2  180.78   17.70
  -2   6  -3  817.32   63.09
  -2   6  -3  787.02   63.09
  -2   6  -3  791.62   62.99
   2   6   3  755.22   63.09
  -2   6  -3  793.52   63.19
  -2  -6  -3  705.03   62.79
  -2  -6  -3  875.01   86.99
  -2   6  -4 1004.90   76.39
  -2   6  -4  942.61   76.29
  -2   6  -4  849.22   76.59
  -2   6  -4  954.30   84.99
  -2   6  -4 1014.90   76.49
   2   6   4  977.30   76.09
  -2  -6  -4  890.21   76.09
  -2   6  -5   55.39    5.80
  -2   6  -5   66.09    6.00
  -2   6  -5   52.19    5.60
  -2   6  -5   55.79    5.50
   2   6   5   53.89    5.30
  -2   6  -5   52.79   13.20
  -2  -6  -5   55.29    5.50
  -2  -6  -5   92.69   31.70
  -2   6  -6  207.58   17.50
  -2   6  -6  190.38   17.30
  -2   6  -6  201.38   17.00
  -2   6  -6  210.48   17.50
   2   6   6  200.78   16.80
  -2  -6  -6  195.88   17.20
  -2   6  -7   11.80    2.40
  -2  -6  -7   11.00    2.20
   2   7  -7    2.30    1.30
   2   7  -7    3.60    2.20
   2   7  -7    5.00    1.70
   2   7  -7    6.90    1.90
   2   7  -6   96.99    9.90
   2   7  -6  132.49   26.80
   2   7  -6  109.09   10.40
   2   7  -6  119.59   10.60
   2   7  -6  116.59   10.10
   2   7  -5  268.77   20.30
   2   7  -5  208.18   19.40
   2   7  -5  242.18   33.00
   2   7  -5  231.18   20.10
   2   7  -5  214.88   19.30
   2   7  -4  121.59   11.10
  -2   7   4  109.99    9.80
   2   7  -4  131.59   21.90
   2   7  -4  107.29   10.40
   2   7  -4  129.29   11.00
   2   7  -4  112.99   10.10
   2   7  -3  336.37   28.60
   2   7  -3  355.56   28.90
   2   7  -3  376.76   27.80
  -2   7   3  356.06   27.70
   2   7  -3  302.77   28.00
   2   7  -3  390.96   43.40
   2  -7  -3  290.97   41.60
  -2  -7   3  275.37   39.60
   2   7  -2  796.12   71.89
  -2   7   2  973.90   71.19
   2   7  -2  807.82   71.39
   2   7  -2  945.51   71.29
   2   7  -2  970.60   72.39
  -2  -7   2  815.42   87.09
   2  -7  -2  857.71   86.49
  -2   7   1 1840.92  137.39
   2   7  -1 1676.43  137.59
   2   7  -1 1793.62  138.39
   2   7  -1 1621.94  138.09
  -2  -7   1 1645.64  155.88
   2   7   0  119.59   11.20
  -2   7   0  129.69   10.40
   2   7   0  111.99   10.40
   2   7   0  110.39   11.10
  -2   7   0  120.89   10.50
   2  -7   0  105.19   19.10
  -2  -7   0  126.89   24.40
  -2   7  -1 1325.97   98.49
  -2   7  -1 1151.98   98.89
   2   7   1 1221.78   98.79
   2   7   1 1331.67   99.69
  -2   7  -1 1209.38   98.69
  -2   7  -1 1166.48   98.79
   2  -7   1 1139.79  109.69
  -2  -7  -1 1329.27  122.79
   2   7   2  140.49   11.70
  -2   7  -2  113.09   10.60
  -2   7  -2  112.19   10.60
  -2   7  -2  125.59   11.00
   2   7   2  117.59   10.60
  -2  -7  -2  127.89   25.70
   2   7   3  734.13   59.79
  -2   7  -3  745.53   60.09
  -2   7  -3  730.43   59.89
  -2   7  -3  720.43   59.79
  -2  -7  -3  824.82   86.89
  -2   7  -4  100.69    9.30
  -2   7  -4  102.49    9.40
  -2   7  -4  105.59    9.70
   2   7   4  108.19    9.30
  -2  -7  -4  146.59   33.10
   2   7   5  187.48   16.90
  -2   7  -5  201.78   16.30
  -2   7  -5  193.98   17.50
  -2   7  -5  180.98   18.50
  -2   7  -6  260.17   23.50
  -2   7  -6  301.27   23.80
  -2   7  -7    1.40    1.10
  -2  -7  -7    2.60    1.40
   2   8  -6   83.89    7.80
   2   8  -6   66.29    8.70
   2   8  -6   89.09    8.30
   2   8  -6   79.19    7.70
   2   8  -5   39.70    4.60
   2   8  -5   41.20    4.70
   2   8  -5   39.70    4.80
   2   8  -5   42.70    5.00
   2   8  -4  381.46   34.10
   2   8  -4  466.15   35.00
   2   8  -4  364.36   34.00
   2   8  -4  450.55   34.70
  -2   8   3   34.40    3.40
   2   8  -3   28.30    3.80
   2   8  -3   31.10    4.30
   2   8  -3   37.40    4.40
   2   8  -2 1124.99  101.99
   2   8  -2 1314.87  102.89
  -2   8   2 1345.77  101.79
   2   8  -2 1455.05  102.99
  -2  -8   2 1081.79  119.89
   2  -8  -2 1235.98  120.09
   2   8  -1   10.60    2.10
   2   8  -1   11.70    2.70
   2   8  -1   13.50    3.00
  -2   8   1   12.50    1.90
  -2  -8   1  -13.00   14.50
   2  -8  -1   40.30   13.50
   2   8   0  343.87   30.30
  -2   8   0  376.86   30.30
   2   8   0  397.26   31.10
  -2   8   0  353.86   30.20
   2  -8   0  354.76   44.40
  -2  -8   0  385.46   64.89
  -2   8  -1   15.80    2.40
  -2   8  -1   21.70    2.50
   2   8   1   20.30    3.20
   2   8   1   14.30    2.40
  -2  -8  -1   12.70   19.70
  -2   8  -2 2053.69  161.38
  -2   8  -2 1961.60  161.68
   2   8   2 2132.79  161.78
  -2   8  -2 1950.90  161.78
   2   8   3    9.20    1.70
  -2   8  -3    7.90    1.50
  -2   8  -3    5.00    2.10
   2   8   4   30.60    3.40
  -2   8  -4   33.90    4.20
  -2   8  -4   30.50    3.50
  -2   8  -4   35.60    3.60
  -2   8  -4   28.60    3.80
   2   8   5   19.90    2.40
  -2   8  -5   18.80    2.70
  -2   8  -5   19.60    2.90
  -2   8  -5   24.10    3.40
  -2   8  -6   21.10    3.10
  -2   8  -6   16.20    2.80
  -2   8  -6   13.80    2.20
  -2  -8  -6   14.70    2.50
   2   9  -4   65.99    6.50
   2   9  -4   70.49    6.80
   2   9  -4   54.19    6.20
   2   9  -3   66.69    6.50
  -2   9   3   55.39    5.40
   2   9  -3   64.19    6.30
   2   9  -3   49.90    5.80
   2   9  -2  196.68   16.50
  -2   9   2  180.58   15.50
   2   9  -2  160.58   15.80
   2   9  -2  203.78   16.50
  -2   9   1  929.81   77.19
   2   9  -1 1075.59   78.19
   2   9  -1  880.11   77.39
   2   9   0   59.39    6.00
  -2   9   0   51.39    5.20
   2   9   0   47.40    5.20
   2   9   1  726.13   59.89
  -2   9  -1  757.02   59.99
   2   9   2   30.00    3.40
  -2   9  -2   28.50    3.60
  -2   9  -2   32.40    3.30
  -2   9  -3  128.59   11.90
  -2   9  -3  134.69   11.40
   2   9   3  137.69   11.60
   2   9   4   18.50    2.90
  -2   9  -4   18.90    2.90
  -2  10   2  231.78   20.00
   2  10  -2  235.78   20.50
   2  10  -2  263.47   21.40
   2  10  -1    8.40    1.90
   2  10  -1    5.40    1.60
  -2  10   1    2.00    1.30
  -2  10   0  678.73   54.29
   2  10   0  664.03   54.29
   2  10   1   94.49    8.70
  -2  10  -1  102.19    8.90
   3   0 -10  717.73   58.09
   3   0  -9    6.00    2.80
   3   0  -9   15.70   19.80
   3   0  -8   22.10   12.90
   3   0  -8   15.50    4.10
   3   0  -7    0.30    6.00
   3   0  -7    4.00    2.00
   3   0  -6 1552.64  137.59
   3   0  -6 1565.34  151.98
   3   0  -6 1920.01  137.09
   3   0  -6 1774.12  136.79
   3   0  -5    1.30    0.60
   3   0  -5    1.70    0.90
  -3   0   5    1.90    6.50
   3   0  -5    0.00    2.70
   3   0  -5    0.50    0.90
   3   0  -4  827.32   75.79
   3   0  -4  879.11   83.59
  -3   0   4  923.81   87.49
   3   0  -4 1071.19   75.69
   3   0  -4  997.40   75.39
   3   0  -3    3.20    3.10
  -3   0   3    2.30    3.40
   3   0  -3    1.60    1.80
   3   0  -3    3.00    0.80
   3   0  -2  189.68   20.40
  -3   0   2  172.58   20.40
   3   0  -2  154.38   17.30
  -3   0   1    1.80    2.60
  -3   0   1   -1.60    2.30
   3   0  -1    1.20    2.10
   3   0  -1    2.10    1.40
  -3   0   0 3127.29  257.97
  -3   0  -1    5.60    3.70
  -3   0  -1    2.90    1.00
  -3   0  -1    1.70    1.40
   3   0   1    1.30    1.90
  -3   0  -2  386.06   35.20
  -3   0  -2  485.65   44.30
  -3   0  -2  465.15   39.10
  -3   0  -3    0.10    3.20
   3   0   3    3.30    3.60
  -3   0  -3    1.40    0.60
  -3   0  -3    2.70    0.70
   3   0   3    3.80    2.10
  -3   0  -4 5165.88  452.45
   3   0   4 5804.12  451.75
  -3   0  -5    1.60    0.90
  -3   0  -5   -5.70    3.80
  -3   0  -5    0.10    2.70
  -3   0  -5    1.90    1.10
  -3   0  -6 1531.15  115.19
  -3   0  -6 1369.46  115.69
  -3   0  -6 1410.46  115.69
  -3   0  -7    1.80    1.10
  -3   0  -7   -3.90    5.70
  -3   0  -7    5.70    1.80
  -3   0  -7    4.00    1.80
  -3   0  -8    6.40    2.40
  -3   0  -8    8.90    2.30
  -3   0  -8   13.40   11.40
  -3   0  -8   14.90    3.10
  -3   0  -8   14.00    2.60
  -3   0  -9    1.60    1.70
  -3   0  -9    0.80    1.50
  -3   0  -9    1.70    1.90
   3   1 -10  102.49    8.50
   3  -1 -10   72.39    8.90
   3   1  -9  719.73   56.49
   3   1  -9  655.33   56.09
   3   1  -9  849.52   90.89
   3  -1  -9  648.54   55.89
   3   1  -8  256.37   23.70
   3   1  -8  298.57   45.60
   3   1  -8  279.37   24.10
   3   1  -8  308.97   25.90
   3  -1  -8  273.07   23.60
   3  -1  -8  392.06   50.79
   3   1  -7  232.08   20.60
   3   1  -7  243.68   20.80
   3   1  -7  253.97   37.60
   3   1  -7  210.18   21.70
   3  -1  -7  283.77   22.40
   3  -1  -7  249.38   20.60
   3  -1  -7  242.38   22.00
   3  -1  -7  331.57   40.00
   3   1  -6  100.59    8.90
   3   1  -6   72.89   19.70
   3   1  -6  100.69    9.00
   3  -1  -6   86.39   22.00
   3  -1  -6  106.19   19.50
   3  -1  -6  111.39    9.30
   3  -1  -6   97.59    8.80
  -3   1   5   42.00   12.30
   3   1  -5   35.80   10.60
   3   1  -5   46.80    4.10
  -3   1   5   38.80   10.80
   3   1  -5   40.50    3.80
   3   1  -5   32.80    4.30
   3  -1  -5   19.70    8.40
   3  -1  -5   39.40    4.00
   3  -1  -5   46.20   12.60
   3   1  -4  350.26   26.60
   3   1  -4  366.16   26.70
  -3   1   4  360.96   39.20
  -3   1   4  378.86   39.00
   3   1  -4  281.97   34.40
   3  -1  -4  319.17   26.50
   3  -1  -4  270.17   33.20
  -3  -1   4  300.47   36.10
   3  -1  -4  318.77   26.70
  -3  -1   4  330.17   35.60
   3  -1  -4  302.87   36.20
  -3   1   3  329.07   35.10
   3   1  -3  263.77   31.60
   3   1  -3  334.47   26.00
   3   1  -3  314.57   32.80
   3   1  -3  348.57   26.20
  -3   1   3  372.46   36.10
  -3  -1   3  289.57   33.40
   3  -1  -3  308.17   33.50
   3   1  -2  546.35   58.39
   3   1  -2  719.43   54.09
  -3   1   2  725.03   62.29
   3  -1  -2  766.72   62.69
   3  -1  -2  680.83   59.99
  -3  -1   2  620.24   61.09
  -3   1   1   14.10    4.20
   3   1  -1   12.70    3.80
   3   1  -1   15.50    5.80
   3  -1  -1   15.30    4.90
  -3  -1   1    8.50    4.20
   3  -1  -1   14.60    3.80
  -3   1   0 1914.61  158.28
   3   1   0 2208.58  168.48
   3   1   0 1861.71  159.38
  -3  -1   0 1751.82  166.48
   3  -1   0 2104.99  165.58
  -3   1  -1 2654.53  249.48
   3   1   1 3288.77  249.78
  -3  -1  -1 3110.29  251.17
   3  -1   1 3442.96  254.57
  -3  -1  -1 2663.03  245.68
   3   1   2  406.26   38.90
  -3   1  -2  360.86   36.50
  -3   1  -2  349.67   29.40
  -3   1  -2  303.67   29.20
  -3   1  -2  385.06   31.80
  -3   1  -2  376.26   29.70
  -3  -1  -2  368.36   35.20
  -3  -1  -2  368.26   38.50
   3  -1   2  398.86   39.60
  -3   1  -3 3754.02  325.47
   3   1   3 4280.37  330.57
   3  -1   3 4234.08  330.07
  -3  -1  -3 3658.63  328.27
   3  -1   3 3693.23  318.47
  -3  -1  -3 4380.36  327.67
  -3   1  -4  448.86   48.60
  -3   1  -4  514.55   40.70
  -3   1  -4  597.44   50.49
  -3   1  -4  459.95   40.10
  -3   1  -4  538.55   40.10
   3   1   4  493.45   52.59
  -3   1  -4  417.66   40.30
  -3  -1  -4  474.55   40.20
  -3  -1  -4  532.95   39.90
  -3  -1  -4  548.75   52.69
  -3  -1  -4  443.46   51.49
   3  -1   4  546.65   53.79
   3  -1   4  468.35   43.60
  -3   1  -5 1706.13  143.89
  -3   1  -5 1848.81  143.79
  -3   1  -5 1914.51  143.79
  -3   1  -5 1603.54  143.89
  -3   1  -5 1983.00  152.78
  -3  -1  -5 1901.91  143.59
  -3  -1  -5 1705.63  143.99
  -3  -1  -5 1746.33  160.08
  -3   1  -6  507.85   48.50
  -3   1  -6  420.76   38.70
  -3   1  -6  482.05   38.40
  -3   1  -6  451.05   39.90
  -3   1  -6  466.75   38.30
  -3  -1  -6  474.95   38.20
  -3  -1  -6  510.45   57.79
  -3   1  -7 1392.96  114.69
  -3   1  -7 1369.66  114.79
  -3   1  -7 1513.95  114.39
  -3   1  -7 1323.67  114.09
  -3   1  -7 1318.17  125.69
  -3  -1  -7 1396.96  114.09
  -3  -1  -7 1554.04  115.19
  -3  -1  -7 1487.05  114.79
  -3   1  -8  457.85   41.70
  -3   1  -8  512.55   42.70
  -3   1  -8  512.15   42.00
  -3  -1  -8  497.95   42.40
  -3  -1  -8  629.14   61.29
  -3  -1  -8  560.24   42.90
  -3  -1  -8  469.65   41.70
  -3   1  -9  164.78   15.30
  -3   1  -9  171.28   16.00
  -3  -1  -9  180.38   16.00
  -3  -1  -9  175.28   15.30
   3   2 -10  239.98   19.70
   3  -2 -10  215.98   18.90
   3   2  -9  170.58   15.20
   3   2  -9  162.48   14.60
   3   2  -9  221.88   44.30
   3  -2  -9  162.38   14.30
   3   2  -8 1157.08   90.19
   3   2  -8 1136.29  116.29
   3   2  -8 1110.29   88.29
   3   2  -8 1035.90   88.09
   3  -2  -8 1059.19   87.89
   3   2  -7    7.30    1.70
   3   2  -7    6.80    1.60
   3   2  -7    9.90    8.20
   3   2  -7    5.40    2.30
   3  -2  -7   -3.50   10.40
   3  -2  -7   10.50    8.10
   3  -2  -7    6.20    1.30
   3   2  -6   58.39    5.90
   3   2  -6   45.90   14.40
   3   2  -6   58.89    6.80
   3   2  -6   62.39    6.00
   3  -2  -6   94.09   22.60
   3  -2  -6   67.59    5.80
   3  -2  -6   75.69   15.60
  -3   2   5 1061.39  106.29
  -3   2   5 1085.09  104.09
   3   2  -5 1089.29   84.39
   3   2  -5 1077.19   84.59
   3   2  -5 1009.20   84.49
   3  -2  -5 1008.20   99.19
  -3   2   4  558.14   51.29
   3   2  -4  361.46   45.50
  -3   2   4  519.35   53.79
   3  -2  -4  480.25   36.40
   3  -2  -4  480.35   50.69
  -3  -2   4  409.16   43.60
  -3  -2   4  387.56   45.50
   3   2  -3  262.07   21.20
   3   2  -3  275.17   21.30
  -3   2   3  268.17   30.60
   3   2  -3  192.88   27.30
  -3   2   3  303.37   31.20
   3   2  -3  244.28   26.70
   3   2  -3  266.47   21.10
   3  -2  -3  267.27   29.00
   3   2  -2  311.47   36.60
   3   2  -2  279.17   32.50
   3   2  -2  363.56   26.80
   3   2  -2  340.37   26.70
  -3   2   2  319.07   33.90
   3  -2  -2  336.37   32.70
   3   2  -1 1542.75  133.69
  -3   2   1 1803.12  136.29
   3   2  -1 1373.26  127.99
   3  -2  -1 1736.63  132.69
   3  -2  -1 1604.04  135.09
   3   2   0   15.20    5.00
  -3   2   0   14.10    1.70
   3   2   0   11.30    5.10
   3   2   0   10.30    1.60
  -3   2   0   19.80    3.70
  -3   2   0   18.10    5.50
   3  -2   0   18.60    5.20
   3  -2   0   16.70    3.30
  -3  -2   0   16.70    6.70
  -3   2  -1   80.09   15.40
  -3   2  -1   86.89    7.90
  -3  -2  -1   99.39   13.90
   3  -2   1  111.19   15.00
  -3  -2  -1  107.19   15.60
  -3   2  -2 4069.49  336.47
   3   2   2 4064.19  344.47
  -3   2  -2 4146.29  340.47
  -3  -2  -2 4805.02  343.87
  -3  -2  -2 3938.51  344.77
  -3   2  -3 1057.89   87.79
   3   2   3 1100.49   96.59
  -3   2  -3 1153.28   83.29
  -3   2  -3 1050.39   83.09
  -3   2  -3 1104.19   83.29
  -3   2  -3  900.11   88.59
  -3   2  -3 1041.80   83.09
  -3  -2  -3 1004.80   83.29
   3  -2   3  888.01   93.89
  -3  -2  -3  989.40   95.59
  -3  -2  -3 1129.09   95.29
  -3   2  -4 1176.88   94.59
   3   2   4 1221.68  110.49
  -3   2  -4 1320.47   94.69
  -3   2  -4 1028.00   94.39
  -3   2  -4 1180.48   94.59
  -3   2  -4 1213.58  100.99
  -3  -2  -4 1064.89  109.09
  -3  -2  -4 1168.08   94.69
  -3  -2  -4 1243.78   94.19
  -3   2  -5  251.47   24.00
  -3   2  -5  287.57   24.30
  -3   2  -5  284.87   31.10
  -3   2  -5  290.37   24.30
  -3   2  -5  320.27   24.40
  -3  -2  -5  384.26   43.70
  -3  -2  -5  296.67   24.50
  -3  -2  -5  290.87   23.90
  -3   2  -6 1061.99   84.99
  -3   2  -6 1031.00   94.09
  -3   2  -6 1076.29   84.79
  -3   2  -6 1012.30   84.99
  -3   2  -6  898.61   84.49
  -3  -2  -6 1267.57  112.69
  -3  -2  -6 1129.09   85.19
  -3   2  -7  258.97   23.30
  -3   2  -7  279.27   33.00
  -3   2  -7  262.87   23.10
  -3   2  -7  256.57   23.70
  -3  -2  -7  289.37   23.80
  -3  -2  -7  334.37   51.39
  -3  -2  -7  303.77   24.20
  -3  -2  -8  588.94   48.50
  -3  -2  -8  576.54   63.89
  -3   2  -9   25.20    3.70
  -3   2  -9   20.10    3.20
  -3  -2  -9   17.90    3.30
  -3  -2  -9   16.50    3.60
   3   3  -9   11.20    3.20
   3   3  -9   14.50    2.50
   3   3  -9   21.80    4.30
   3  -3  -9   16.30    2.20
   3  -3  -9   28.10    4.70
   3   3  -8  185.18   35.90
   3   3  -8  173.88   15.70
   3   3  -8  150.28   14.00
   3   3  -8  161.98   14.20
   3  -3  -8  151.98   13.60
   3   3  -7  412.56   36.60
   3   3  -7  467.15   35.50
   3   3  -7  415.76   35.40
   3   3  -7  401.16   53.99
   3  -3  -7  497.05   60.49
   3  -3  -7  414.36   35.00
   3   3  -6  132.49   26.10
   3   3  -6  162.58   13.70
   3   3  -6  141.19   14.60
   3   3  -6  180.38   13.70
   3   3  -6  156.28   13.60
   3  -3  -6  165.68   27.90
   3  -3  -6  153.48   13.30
  -3   3   5 1198.78  107.69
   3   3  -5 1121.29   87.99
   3   3  -5  941.11   88.59
  -3   3   5 1144.69  108.69
   3   3  -5 1202.08   87.99
   3   3  -5 1008.90  103.59
   3  -3  -5 1070.99   87.59
   3  -3  -5 1113.09  103.89
   3   3  -4  125.69   20.00
   3   3  -4  138.89   10.70
   3   3  -4  131.39   10.50
   3   3  -4  103.69   11.10
   3   3  -4  127.39   10.70
  -3   3   4  107.29   21.20
   3  -3  -4  123.59   10.30
   3  -3  -4  124.49   19.70
  -3   3   3  637.24   64.99
   3   3  -3  710.93   54.19
   3   3  -3  575.44   54.59
  -3   3   3  763.62   66.69
   3   3  -3  697.63   54.29
   3   3  -3  655.43   64.09
   3   3  -3  704.13   54.09
   3  -3  -3  666.73   63.59
   3   3  -2 1015.00   73.59
   3   3  -2  969.20   73.79
   3   3  -2  798.12   73.99
   3   3  -2  933.81   78.99
  -3   3   2 1005.60   83.29
   3   3  -2  845.52   81.69
  -3   3   2  889.71   82.59
   3   3  -2  931.61   73.59
   3  -3  -2  962.30   81.39
  -3  -3   2  854.81   81.99
   3   3  -1 3014.80  262.27
  -3   3   1 3263.17  263.27
   3  -3  -1 3620.94  261.07
  -3  -3   1 2908.71  262.57
  -3   3   0  631.04   62.39
  -3   3   0  623.64   61.09
   3   3   0  771.22   66.99
   3   3   0  623.14   62.49
  -3   3   0  722.23   56.69
  -3  -3   0  694.83   55.89
  -3  -3   0  787.82   67.69
   3  -3   0  695.43   62.19
   3  -3   0  735.73   59.89
  -3  -3   0  715.03   64.99
   3   3   1  633.24   46.50
  -3   3  -1  514.05   52.79
  -3   3  -1  558.04   46.10
  -3   3  -1  631.24   46.00
   3   3   1  608.34   56.19
   3  -3   1  520.25   50.49
   3  -3   1  550.74   48.00
  -3  -3  -1  493.35   54.99
  -3  -3  -1  638.34   56.99
  -3   3  -2 1784.82  130.69
  -3   3  -2 1645.34  134.29
  -3   3  -2 1867.41  130.89
  -3   3  -2 1755.62  130.99
   3   3   2 1795.02  144.29
  -3   3  -2 1542.45  134.69
   3  -3   2 1473.35  135.29
  -3  -3  -2 1749.22  142.79
  -3  -3  -2 1394.76  141.89
  -3  -3  -2 1397.96  130.79
  -3   3  -3 1223.98   92.99
  -3   3  -3 1190.78   92.79
  -3   3  -3  980.60   95.69
  -3   3  -3 1211.68   92.69
  -3   3  -3 1204.18   92.89
   3   3   3 1179.08  107.59
  -3   3  -3 1205.58   97.69
  -3  -3  -3 1323.17  109.29
  -3  -3  -3 1069.79  107.19
  -3  -3  -3 1049.99   92.89
  -3   3  -4  127.89   11.40
   3   3   4  128.39   25.70
  -3   3  -4  125.49   11.30
  -3   3  -4  135.49   11.30
  -3   3  -4  134.09   16.40
  -3   3  -4  134.09   11.20
  -3   3  -4  131.89   11.40
  -3  -3  -4  127.49   11.50
  -3  -3  -4  151.48   24.80
  -3   3  -5 2979.30  242.08
  -3   3  -5 3113.99  241.98
  -3   3  -5 2923.51  241.78
  -3   3  -5 2948.21  249.38
  -3  -3  -5 3212.28  242.28
  -3   3  -6  506.65   41.20
  -3   3  -6  478.95   48.80
  -3   3  -6  483.35   41.20
  -3   3  -6  495.65   40.80
  -3  -3  -6  507.85   41.40
  -3  -3  -6  584.94   68.09
  -3   3  -7  107.39    9.40
  -3   3  -7   92.29    8.70
  -3   3  -7   88.99    9.20
  -3  -3  -7   91.19    9.30
  -3  -3  -7  101.79    9.70
  -3   3  -8   71.19    7.90
  -3   3  -8   68.29    7.60
  -3  -3  -8   86.29    8.20
  -3  -3  -8   75.69    7.90
  -3  -3  -8  123.89   24.00
  -3   3  -9  324.17   28.50
  -3   3  -9  327.37   28.30
  -3  -3  -9  354.96   28.60
   3   4  -9    1.40    1.40
   3   4  -9    2.30    3.30
   3   4  -9    0.40    1.10
   3  -4  -9   -0.60    1.80
   3   4  -8  243.48   20.70
   3   4  -8  251.17   21.80
   3   4  -8  210.08   42.90
   3   4  -8  233.78   20.70
   3  -4  -8  245.58   20.10
   3   4  -7 1261.67  125.29
   3   4  -7 1250.47  105.69
   3   4  -7 1356.26  104.59
   3   4  -7 1306.57  104.69
   3  -4  -7 1195.78  103.99
   3  -4  -7 1543.65  136.29
   3   4  -6  294.57   42.50
   3   4  -6  368.26   29.00
   3   4  -6  395.76   28.90
   3   4  -6  339.97   28.90
   3   4  -6  324.67   29.80
   3  -4  -6  322.87   28.40
   3  -4  -6  415.46   49.30
   3   4  -5   42.70    4.40
   3   4  -5   47.10    4.30
   3   4  -5   45.30    4.20
   3   4  -5   35.10    4.90
   3  -4  -5   18.50   12.20
   3   4  -4 1067.29   79.49
   3   4  -4 1043.70   94.29
   3   4  -4  996.60   79.39
  -3   4   4 1077.19   96.79
   3   4  -4 1027.00   79.59
   3   4  -4  876.41   80.09
   3  -4  -4  997.20   93.09
   3  -4  -4  898.21   79.09
   3   4  -3    7.70    1.40
  -3   4   3   23.40    7.20
  -3   4   3    9.20    1.20
   3   4  -3    4.10    3.80
  -3   4   3    6.00    6.80
   3   4  -3    6.70    1.80
   3   4  -3    7.50    1.20
   3   4  -3    8.70    1.40
   3  -4  -3   11.00    5.80
  -3   4   2  687.03   53.69
   3   4  -2  735.73   53.99
   3   4  -2  565.34   54.19
  -3   4   2  635.34   63.59
   3   4  -2  644.64   57.59
   3   4  -2  668.33   53.79
   3   4  -2  765.62   53.69
  -3   4   2  748.63   53.59
   3   4  -2  617.94   63.29
   3  -4  -2  690.63   62.69
  -3  -4   2  567.54   57.19
  -3   4   1  279.17   22.10
  -3   4   1  263.97   22.00
   3   4  -1  204.88   28.70
  -3   4   1  288.77   21.90
   3   4  -1  302.67   21.90
   3   4  -1  247.68   22.10
   3   4  -1  277.87   22.40
   3  -4  -1  270.47   28.50
  -3  -4   1  265.27   28.30
  -3   4   0  814.32   79.79
  -3   4   0  909.21   69.59
  -3   4   0  917.91   75.39
  -3   4   0  975.60   69.49
   3   4   0  760.62   78.29
   3   4   0  967.30   82.79
   3   4   0  833.72   69.59
  -3   4   0  895.81   69.49
   3   4   0  763.22   69.99
   3  -4   0  856.51   74.89
  -3  -4   0  835.72   78.79
  -3  -4   0  885.71   69.59
   3   4   1 3366.76  274.27
  -3   4  -1 3595.84  261.27
  -3   4  -1 3309.67  264.57
  -3   4  -1 3413.66  261.27
  -3  -4  -1 3368.06  289.97
   3  -4   1 3193.08  265.07
  -3  -4  -1 2729.03  272.07
  -3   4  -2  985.90   72.79
  -3   4  -2  947.51   77.49
  -3   4  -2  919.31   72.59
  -3   4  -2  929.41   72.59
  -3   4  -2  915.11   72.79
   3   4   2  963.70   87.59
  -3  -4  -2  824.72   72.79
  -3  -4  -2  997.50   88.29
   3  -4   2  773.62   74.19
  -3  -4  -2  856.71   87.39
  -3   4  -3  605.44   48.90
   3   4   3  664.93   66.79
  -3   4  -3  595.74   48.50
  -3   4  -3  621.44   53.89
  -3   4  -3  632.74   48.80
  -3   4  -3  637.94   49.00
  -3  -4  -3  510.35   63.79
  -3  -4  -3  533.05   48.70
  -3  -4  -3  643.44   65.39
  -3   4  -4  332.07   27.90
  -3   4  -4  322.77   33.10
  -3   4  -4  341.87   27.80
  -3   4  -4  382.36   27.80
  -3  -4  -4  303.27   27.80
  -3  -4  -4  334.37   45.50
  -3   4  -5   18.50    2.60
  -3   4  -5   15.40    2.20
  -3   4  -5   13.70    2.00
  -3   4  -5    4.90    5.30
  -3  -4  -5   15.20    2.30
  -3   4  -6  183.58   16.90
  -3   4  -6  181.58   16.30
  -3   4  -6  190.78   16.50
  -3   4  -6  181.78   23.70
  -3  -4  -6  252.37   41.00
  -3  -4  -6  191.78   16.60
  -3   4  -7   65.39    7.00
  -3   4  -7   65.79    7.00
  -3  -4  -7   74.89    7.50
  -3  -4  -7   70.89    7.20
  -3   4  -8  331.67   30.60
  -3   4  -8  345.67   30.70
  -3  -4  -8  371.56   30.80
  -3  -4  -8  414.96   31.20
   3   5  -8    7.60    2.00
   3   5  -8    8.10    3.40
   3   5  -8    7.20    2.40
   3   5  -7  221.48   21.60
   3   5  -7  227.18   20.80
   3   5  -7  278.87   21.10
   3   5  -7  258.87   21.10
   3   5  -7  238.88   35.70
   3   5  -6  164.28   16.20
   3   5  -6  189.88   47.20
   3   5  -6  182.18   15.60
   3   5  -6  178.48   15.40
   3   5  -6  201.58   15.50
   3  -5  -6  175.38   31.30
   3  -5  -6  167.48   14.80
   3   5  -5  155.48   12.70
   3   5  -5  150.38   24.50
   3   5  -5  155.78   12.50
   3   5  -5  129.59   13.10
   3  -5  -5  148.59   27.00
   3  -5  -5  129.39   11.90
   3   5  -4  111.59   11.40
   3   5  -4  131.59   11.00
   3   5  -4  116.49   21.10
   3   5  -4  124.69   10.70
   3   5  -4  133.59   10.80
   3  -5  -4  110.49   19.80
   3   5  -3 2602.34  248.98
   3  -5  -3 3349.06  251.57
   3   5  -2  861.61   76.59
  -3   5   2 1001.60   88.89
   3   5  -2  932.31   76.89
   3   5  -2  946.31   76.39
  -3   5   2  990.20   76.59
  -3   5   2 1032.60   76.39
   3  -5  -2  915.81   86.59
  -3  -5   2  976.70   94.09
  -3   5   1   46.00    4.00
   3   5  -1   36.10    4.40
   3   5  -1   36.90   12.40
   3   5  -1   46.80   13.50
  -3   5   1   44.50    3.80
   3   5  -1   35.40    4.20
   3   5  -1   39.50    4.00
  -3   5   1   31.70    9.70
  -3   5   1   44.00    3.80
   3  -5  -1   46.60   13.10
  -3  -5   1   29.40    7.60
  -3  -5   1   41.20   13.10
   3   5   0  539.45   43.80
  -3   5   0  575.54   43.70
  -3   5   0  534.35   43.60
  -3   5   0  590.44   43.60
   3   5   0  570.04   58.99
   3   5   0  515.15   44.30
   3   5   0  514.55   44.30
  -3   5   0  524.05   49.30
   3  -5   0  515.25   50.29
  -3  -5   0  654.73   61.49
  -3  -5   0  464.15   52.39
  -3   5  -1 1029.30   78.19
  -3   5  -1 1069.29   78.39
  -3   5  -1  974.80   78.19
   3   5   1  943.61   92.79
   3   5   1 1031.40   78.39
   3   5   1  874.71   78.79
  -3  -5  -1  872.41   90.79
  -3  -5  -1 1095.39   96.49
   3  -5   1  898.21   83.29
  -3   5  -2  304.97   24.40
   3   5   2  275.57   24.90
  -3   5  -2  317.17   24.60
   3   5   2  305.57   24.50
  -3   5  -2  303.47   24.60
  -3   5  -2  336.07   24.60
  -3  -5  -2  267.67   24.50
  -3  -5  -2  362.26   42.90
   3  -5   2  248.58   27.10
  -3   5  -3  759.22   68.29
  -3   5  -3  778.42   62.49
  -3   5  -3  783.72   62.19
   3   5   3  737.53   62.29
  -3   5  -3  763.12   62.29
  -3   5  -3  802.82   62.49
  -3  -5  -3  903.11   85.19
  -3  -5  -3  733.43   62.39
  -3   5  -4  307.97   27.40
   3   5   4  312.47   27.10
  -3   5  -4  369.46   27.50
  -3   5  -4  336.27   27.00
  -3   5  -4  324.67   33.40
  -3   5  -4  319.17   27.20
  -3  -5  -4  422.16   50.59
  -3  -5  -4  317.87   27.40
  -3   5  -5    9.10    2.00
  -3   5  -5   10.40    7.00
  -3   5  -5    3.10    1.30
   3   5   5    5.00    1.10
  -3   5  -5    3.80    1.20
  -3   5  -5    6.20    1.60
  -3  -5  -5   18.80   14.30
  -3  -5  -5    4.90    1.50
   3   5   6  441.96   34.80
  -3   5  -6  407.56   35.30
  -3   5  -6  394.56   35.00
  -3  -5  -6  481.15   64.49
  -3  -5  -6  441.06   35.40
  -3   5  -7  778.42   63.29
  -3   5  -7  718.13   62.89
   3   5   7  739.23   62.39
  -3  -5  -7  846.42   63.59
  -3  -5  -7  798.02   63.19
  -3   5  -8   45.50    5.00
  -3   5  -8   42.20    5.20
  -3  -5  -8   48.80    5.40
  -3  -5  -8   42.00    5.00
   3   6  -8    9.00    2.30
   3   6  -8   13.70    3.90
   3   6  -8   14.10    2.70
   3   6  -7    2.30   11.80
   3   6  -7    2.50    2.40
   3   6  -7    3.70    1.60
   3   6  -7    2.80    1.60
   3   6  -7    1.80    1.20
   3   6  -6 1722.63  125.19
   3   6  -6 1451.85  125.39
   3   6  -6 1509.25  124.49
   3   6  -6 1402.16  141.19
   3   6  -6 1646.34  124.69
   3   6  -5  337.07   27.10
   3   6  -5  330.37   27.10
   3   6  -5  349.17   27.60
   3   6  -5  351.76   46.90
   3   6  -5  305.67   27.90
   3  -6  -5  352.66   44.80
  -3  -6   5  259.77   39.90
   3   6  -4  399.86   36.00
   3   6  -4  427.36   35.20
   3   6  -4  487.45   35.80
   3   6  -4  473.35   35.20
   3   6  -4  411.06   48.70
   3  -6  -4  385.96   49.10
  -3  -6   4  347.87   49.00
  -3   6   3   44.20    3.70
   3   6  -3   33.50    4.00
   3   6  -3   42.00    4.80
   3   6  -3   38.90    3.80
   3   6  -3   33.80   10.90
   3   6  -3   35.30    4.30
  -3  -6   3   29.90   10.60
   3  -6  -3   27.70   15.00
   3   6  -2 1126.99  105.19
  -3   6   2 1458.45  104.39
   3   6  -2 1448.26  104.29
   3   6  -2 1269.57  105.09
   3   6  -2 1255.57  118.59
   3   6  -2 1212.88  104.69
  -3  -6   2 1453.35  126.09
   3  -6  -2 1250.77  116.89
   3   6  -1  376.86   32.30
  -3   6   1  411.06   32.10
   3   6  -1  371.36   32.90
  -3  -6   1  370.46   32.20
   3  -6  -1  428.26   42.70
  -3  -6   1  503.15   52.29
   3   6   0 1630.14  134.79
  -3   6   0 1633.34  134.59
  -3   6   0 1757.92  134.69
   3   6   0 1819.52  135.59
   3   6   0 1531.25  135.39
   3  -6   0 1550.94  143.49
  -3  -6   0 1963.00  157.98
  -3   6  -1   10.30    1.60
  -3   6  -1   15.20    1.80
  -3   6  -1   11.80    1.70
  -3   6  -1    9.80    2.10
   3   6   1   10.40    1.70
  -3  -6  -1   11.60    2.00
   3  -6   1    6.20    5.20
  -3  -6  -1    1.60    7.60
  -3   6  -2  148.79   12.10
   3   6   2  150.58   12.10
  -3   6  -2  135.19   11.90
   3  -6   2  118.49   17.10
  -3  -6  -2  134.39   12.10
  -3   6  -3  430.46   34.20
   3   6   3  426.96   34.10
  -3   6  -3  390.96   33.90
  -3   6  -3  415.86   34.20
  -3  -6  -3  514.55   59.69
  -3  -6  -3  393.46   34.10
   3   6   4  224.98   21.00
  -3   6  -4  291.27   21.50
  -3   6  -4  298.87   21.60
  -3   6  -4  225.48   21.30
  -3   6  -4  257.37   21.20
  -3  -6  -4  223.98   21.20
  -3  -6  -4  296.87   47.60
  -3   6  -5  241.78   20.10
  -3   6  -5  265.77   20.00
   3   6   5  223.68   19.50
  -3   6  -5  199.18   19.90
  -3  -6  -5  308.77   49.30
  -3  -6  -5  232.58   20.00
   3   6   6   85.19    7.70
  -3   6  -6   79.29    8.20
  -3   6  -6   99.89    8.80
  -3  -6  -6   77.69    8.10
  -3   6  -7   85.09    7.60
  -3   6  -7   65.99    7.70
  -3  -6  -7   87.59    8.00
  -3  -6  -7   75.09    7.60
   3   7  -7  160.18   13.60
   3   7  -7  168.98   14.10
   3   7  -7  123.59   13.40
   3   7  -7  142.99   13.40
   3   7  -6   26.50    3.40
   3   7  -6   37.20   16.90
   3   7  -6   21.80    3.70
   3   7  -6   32.30    4.00
   3   7  -6   28.10    4.60
   3   7  -5 1120.69   82.39
   3   7  -5  982.80   97.89
   3   7  -5 1011.20   82.49
   3   7  -5  975.20   81.49
   3   7  -5  972.60   81.69
   3   7  -4  303.77   38.60
   3   7  -4  270.27   23.30
   3   7  -4  307.07   24.30
   3   7  -4  255.77   23.60
   3   7  -4  295.17   24.50
  -3  -7   4  259.47   52.09
   3  -7  -4  287.27   40.60
   3   7  -3  945.61   76.09
   3   7  -3  976.50   75.09
   3   7  -3  947.21   76.29
   3   7  -3  856.91   75.49
   3   7  -3  994.40   92.79
  -3   7   3  985.80   75.09
  -3  -7   3  877.21   93.89
   3  -7  -3  889.41   92.29
   3   7  -2  226.88   18.90
   3   7  -2  199.18   18.60
   3   7  -2  210.08   18.20
  -3   7   2  235.78   17.80
  -3  -7   2  196.08   17.90
  -3  -7   2  230.08   35.90
   3  -7  -2  205.88   29.90
  -3   7   1 1057.19   80.79
   3   7  -1 1034.40   81.69
   3   7  -1  972.10   81.69
   3   7  -1  944.41   80.99
  -3  -7   1 1044.50  102.99
  -3   7   0  523.35   43.10
   3   7   0  511.95   44.00
  -3   7   0  531.35   43.40
  -3   7   0  599.74   42.90
   3   7   0  517.65   43.30
  -3  -7   0  553.54   64.59
   3  -7   0  469.05   53.49
  -3   7  -1  235.08   19.40
  -3   7  -1  212.98   19.60
   3   7   1  240.08   20.20
   3   7   1  228.28   19.40
  -3   7  -1  251.97   19.20
  -3  -7  -1  208.88   19.20
   3  -7   1  220.68   35.00
  -3  -7  -1  306.57   41.90
   3   7   2   80.39    7.60
  -3   7  -2   80.19    7.60
   3   7   2   96.69    8.50
  -3   7  -2   80.39    7.50
  -3   7  -2   76.59    7.30
  -3  -7  -2  103.99   28.90
  -3   7  -3   22.90    2.90
  -3   7  -3   19.80    2.50
   3   7   3   20.80    2.70
  -3   7  -3   23.10    2.80
  -3  -7  -3   56.09   23.00
   3   7   4  149.09   12.90
  -3   7  -4  147.39   12.70
  -3   7  -4  157.08   13.30
  -3   7  -4  145.19   13.10
  -3   7  -5   35.10    4.20
  -3   7  -5   33.70    4.10
   3   7   5   35.70    3.70
   3   7   6  175.28   14.20
  -3   7  -6  158.18   14.70
   3   8  -6   45.40    5.00
   3   8  -6   40.20    5.50
   3   8  -6   45.40    5.90
   3   8  -6   43.10    5.10
   3   8  -5   37.70    4.60
   3   8  -5   33.40    4.00
   3   8  -5   37.60    4.50
   3   8  -5   29.90    4.70
   3   8  -4 1536.15  117.19
   3   8  -4 1305.47  116.49
   3   8  -4 1516.65  117.19
   3   8  -3    6.00    2.10
   3   8  -3    6.70    2.20
   3   8  -2  779.42   73.79
  -3   8   2  950.60   73.49
   3   8  -2  992.90   74.69
   3   8  -2 1012.10   74.69
  -3  -8   2  840.02  102.39
   3  -8  -2  852.81   91.89
   3   8  -1    5.50    1.90
   3   8  -1   14.50    2.90
   3   8  -1    7.20    1.70
  -3  -8   1   17.30   14.20
   3  -8  -1  -14.80   19.10
  -3   8   0   21.90    2.80
   3   8   0   24.60    3.50
   3   8   0   21.00    2.90
  -3  -8   0   14.00   14.20
  -3   8  -1   43.10    4.30
  -3   8  -1   41.10    4.50
   3   8   1   39.40    4.50
   3   8   1   48.30    5.30
  -3  -8  -1   20.50   16.40
  -3   8  -2  560.54   46.90
  -3   8  -2  616.74   47.00
   3   8   2  579.34   47.20
  -3   8  -2  565.24   47.30
  -3   8  -3    2.60    1.30
  -3   8  -3    1.60    1.10
  -3   8  -3    7.00    2.10
  -3   8  -4  103.59    9.60
   3   8   4  107.19    9.30
  -3   8  -4  100.49    9.30
  -3   8  -5    3.50    1.20
  -3   8  -5    2.30    1.00
   3   8   5    3.90    1.20
   3   9  -4   99.29    8.60
   3   9  -4   71.99    7.90
   3   9  -4   82.19    8.20
   3   9  -3  321.97   27.20
  -3   9   2  148.19   12.80
   3   9  -2  135.69   13.20
   3   9  -2  168.88   13.90
  -3   9   1  955.50   77.99
   3   9  -1  892.21   78.29
   3   9  -1 1067.69   78.99
  -3   9   0  145.89   12.60
   3   9   0  158.48   13.40
   3   9   0  132.49   12.70
   3   9   1   65.29    6.20
  -3   9  -1   59.19    6.10
  -3   9  -2    0.50    0.90
   3   9   2    2.20    1.00
   3   9   3    1.30    0.90
  -3   9  -3    3.30    1.20
  -3   9  -4   22.00    3.30
  -3   9  -4   24.50    3.10
   3   9   4   26.80    3.00
   3  10  -1  249.08   18.80
   3  10  -1  205.18   18.40
  -3  10   1  199.88   18.00
   3  10   0  268.07   23.50
  -3  10   0  298.37   24.00
   3  10   1    6.30    1.70
  -3  10  -1   10.00    2.10
   4   0 -10   55.19    6.30
   4   0  -9    8.00   15.20
   4   0  -9    4.80    2.50
   4   0  -8  151.58   13.80
   4   0  -8  172.48   15.70
   4   0  -8  156.58   36.40
   4   0  -7    3.90    1.80
   4   0  -7    4.70    1.80
   4   0  -7    7.10    1.40
   4   0  -6  846.02   75.79
   4   0  -6 1042.50   75.39
   4   0  -6  978.50   74.99
   4   0  -6  831.52   88.69
   4   0  -5    3.10    1.10
  -4   0   5   -1.10    8.20
   4   0  -5    2.20    3.10
   4   0  -5    1.80    0.60
   4   0  -4    6.00    1.50
  -4   0   4    2.00    5.70
  -4   0   4   16.90    6.50
   4   0  -4    8.10    1.50
   4   0  -4    3.80    3.30
   4   0  -3    1.10    1.60
   4   0  -3    3.00    0.60
   4   0  -3    1.50    0.70
   4   0  -3    9.70    7.10
  -4   0   3    1.50    3.00
   4   0  -2 4280.17  345.87
  -4   0   2 4322.07  352.06
   4   0  -2 4288.17  350.66
  -4   0   1    2.50    3.10
   4   0  -1    3.40    1.50
   4   0  -1   -1.40    3.00
  -4   0   0 9999.00  698.03
  -4   0   0 7509.65  706.63
   4   0   1    0.70    4.20
  -4   0  -1    4.40    4.50
  -4   0  -1    3.60    1.30
  -4   0  -1    1.90    1.20
  -4   0  -2  613.64   57.59
   4   0   2  793.32   70.49
  -4   0  -2  739.33   70.59
  -4   0  -2  752.52   62.09
  -4   0  -2  733.03   57.69
  -4   0  -3    2.00    2.70
  -4   0  -3    3.70    2.20
  -4   0  -3    7.40    1.20
  -4   0  -3   11.50    5.80
   4   0   3    7.90    5.80
  -4   0  -4 3096.89  240.08
   4   0   4 3062.89  252.27
  -4   0  -4 2877.21  232.28
  -4   0  -4 2619.34  246.28
  -4   0  -5    7.40    3.60
  -4   0  -5    7.30    6.00
  -4   0  -5   10.30    2.30
  -4   0  -6   12.20    2.60
  -4   0  -6   12.10    2.00
  -4   0  -6    8.40    6.60
  -4   0  -6   10.70    2.60
  -4   0  -7    1.40    1.10
  -4   0  -7    3.10    1.20
  -4   0  -7    2.60    7.50
  -4   0  -7    1.80    1.30
  -4   0  -7   -0.80    1.10
  -4   0  -8   17.70    5.20
  -4   0  -8   20.30    4.00
  -4   0  -9    0.00    1.40
   4   1 -10   99.79    8.80
   4  -1 -10   90.69    8.40
   4   1  -9  157.98   14.20
   4  -1  -9  245.48   41.90
   4  -1  -9  161.38   14.00
   4   1  -8  201.18   18.10
   4   1  -8  204.18   37.10
   4   1  -8  208.58   18.60
   4   1  -8  228.88   20.10
   4  -1  -8  261.17   39.90
   4  -1  -8  214.88   18.10
   4   1  -7   27.40    4.30
   4   1  -7   32.00    3.50
   4   1  -7   37.70   14.90
   4   1  -7   31.60    4.60
   4  -1  -7   35.70    4.60
   4  -1  -7   40.20   15.90
   4  -1  -7   31.50    3.40
   4   1  -6   24.40    3.50
   4   1  -6   25.80    2.80
   4   1  -6   23.80    3.40
   4   1  -6   24.70    9.30
   4  -1  -6   26.90    2.70
   4  -1  -6   22.00    9.60
   4  -1  -6   22.30    3.30
   4   1  -5   88.89    7.10
   4   1  -5   75.29    6.70
   4   1  -5   67.69   13.90
   4   1  -5   67.19    7.30
   4  -1  -5   75.39   16.40
   4  -1  -5   68.59   13.60
   4   1  -4 1410.36  136.99
  -4   1   4 1541.55  142.39
   4   1  -4 1745.93  127.89
  -4   1   4 1785.22  142.79
   4  -1  -4 1736.63  127.69
   4  -1  -4 1521.55  136.09
  -4  -1   4 1558.74  141.49
   4  -1  -4 1465.55  141.89
   4   1  -3 1810.22  170.28
  -4   1   3 2060.99  175.48
   4   1  -3 2302.37  163.38
  -4  -1   3 1928.51  174.58
   4  -1  -3 2100.29  175.08
   4  -1  -3 1976.40  169.48
   4  -1  -3 2164.68  173.58
  -4   1   2 1336.57  117.19
   4   1  -2 1487.45  106.79
   4   1  -2 1371.66  116.19
   4   1  -2 1426.36  106.99
  -4  -1   2 1106.99  115.69
   4  -1  -2 1256.47  115.79
   4  -1  -2 1348.86  113.99
   4   1  -1 2171.68  179.88
  -4   1   1 2290.07  185.68
  -4   1   1 1988.10  180.38
  -4  -1   1 1962.10  185.98
   4  -1  -1 2422.76  178.08
   4  -1  -1 2393.66  186.08
  -4   1   0 1356.46  134.49
   4   1   0 1738.23  129.39
  -4   1   0 1619.34  128.99
   4  -1   0 1534.95  125.99
  -4  -1   0 1381.86  138.19
   4  -1   0 1847.52  141.29
  -4   1  -1 3959.50  372.26
   4   1   1 4812.12  373.76
  -4  -1  -1 4707.73  367.56
  -4  -1  -1 4700.43  376.86
  -4   1  -2  337.77   26.30
  -4   1  -2  276.27   26.10
  -4   1  -2  306.47   36.20
   4   1   2  342.97   37.70
  -4   1  -2  352.16   27.00
  -4  -1  -2  361.46   33.20
  -4  -1  -2  271.97   26.20
   4  -1   2  351.96   39.20
  -4  -1  -2  357.56   39.30
  -4   1  -3 2525.65  242.38
  -4   1  -3 3214.08  241.48
  -4   1  -3 2565.04  231.98
   4   1   3 3173.18  248.28
  -4  -1  -3 2698.83  246.38
   4  -1   3 2945.01  247.58
  -4  -1  -3 3164.68  232.18
  -4  -1  -3 3056.79  242.68
  -4   1  -4  789.92   58.69
  -4   1  -4  626.54   58.49
  -4   1  -4  726.23   58.29
  -4   1  -4  797.82   63.79
   4   1   4  730.13   75.19
  -4   1  -4  693.43   58.69
  -4  -1  -4  772.42   58.49
  -4  -1  -4  772.12   71.19
  -4  -1  -4  699.53   58.79
  -4  -1  -4  666.93   73.89
  -4   1  -5   92.29    9.20
  -4   1  -5  107.79    9.10
  -4   1  -5   94.19    8.60
  -4   1  -5   85.29    8.90
  -4   1  -5  107.99   14.30
  -4  -1  -5   98.69   21.10
  -4  -1  -5  104.19    8.80
  -4  -1  -5  105.39    9.40
  -4   1  -6  164.98   15.30
  -4   1  -6  162.28   14.60
  -4   1  -6  192.38   16.60
  -4   1  -6  183.28   22.40
  -4   1  -6  165.28   15.40
  -4  -1  -6  174.98   14.80
  -4  -1  -6  168.88   15.50
  -4  -1  -6  174.78   15.50
  -4   1  -7  145.89   14.70
  -4   1  -7  158.18   28.30
  -4   1  -7  150.38   13.90
  -4   1  -7  171.58   14.50
  -4   1  -7  168.08   15.10
  -4  -1  -7  225.98   28.10
  -4  -1  -7  146.29   14.00
  -4  -1  -7  164.78   15.10
  -4  -1  -7  173.98   15.10
  -4   1  -8  132.69   13.90
  -4   1  -8  133.49   13.20
  -4  -1  -8  149.39   13.70
  -4  -1  -8  148.89   13.60
  -4   1  -9    8.20    2.60
  -4   1  -9    4.70    1.80
  -4  -1  -9    5.10    2.30
   4   2  -9  111.89   10.90
   4   2  -9  112.49   10.20
   4   2  -9  151.88   52.29
   4  -2  -9  162.78   43.20
   4  -2  -9  108.59    9.80
   4   2  -8  286.77   46.00
   4   2  -8  312.27   26.00
   4   2  -8  274.17   24.00
   4   2  -8  287.07   24.40
   4  -2  -8  277.47   23.70
   4   2  -7  300.77   27.60
   4   2  -7  328.17   26.60
   4   2  -7  328.67   44.70
   4   2  -7  317.87   26.30
   4  -2  -7  314.97   26.00
   4   2  -6   53.19    5.00
   4   2  -6   56.59    5.40
   4   2  -6   40.60    5.60
   4   2  -6   55.29   16.60
   4  -2  -6   52.39   16.30
   4  -2  -6   52.69    4.80
   4  -2  -6   44.30   12.70
   4   2  -5   51.89    6.30
   4   2  -5   39.00   12.40
   4   2  -5   64.09    5.70
   4   2  -5   65.69    5.90
  -4   2   5   75.69   20.10
  -4   2   5   43.00   15.10
   4  -2  -5   68.19   17.90
  -4  -2   5   56.69   17.60
   4  -2  -5   66.79    5.50
   4  -2  -5   69.29   13.10
   4   2  -4 1598.34  119.49
  -4   2   4 1338.67  133.49
   4   2  -4 1574.64  119.79
  -4   2   4 1631.14  135.39
   4   2  -4 1300.27  130.19
   4   2  -4 1566.14  119.69
   4  -2  -4 1534.25  119.39
   4  -2  -4 1379.66  131.39
  -4   2   3 1473.55  142.99
  -4   2   3 1723.33  142.49
   4   2  -3 1665.93  130.19
   4   2  -3 1739.03  130.29
   4   2  -3 1710.73  129.99
   4   2  -3 1472.45  138.79
   4   2  -3 1494.45  141.49
   4  -2  -3 1744.93  140.79
   4   2  -2 1839.22  155.08
   4   2  -2 1730.83  147.39
   4   2  -2 2061.39  147.69
   4   2  -2 2003.80  147.69
   4   2  -2 1992.20  157.68
  -4   2   2 1928.91  159.88
   4  -2  -2 1684.23  170.68
   4  -2  -2 1866.01  155.08
  -4  -2   2 1511.45  158.28
  -4   2   1  548.75   64.29
   4   2  -1  588.24   43.40
   4   2  -1  478.65   43.40
   4   2  -1  560.74   49.50
   4  -2  -1  543.15   48.20
   4  -2  -1  522.05   52.39
   4   2   0 2540.15  207.08
   4   2   0 2582.14  220.58
   4   2   0 2786.82  212.88
  -4   2   0 2285.47  210.28
  -4  -2   0 2531.25  222.38
   4  -2   0 2694.43  217.38
   4  -2   0 2808.32  210.38
  -4   2  -1 1174.88  105.39
   4   2   1 1478.45  118.19
  -4   2  -1 1355.56  116.69
   4  -2   1 1213.58  117.19
  -4  -2  -1 1392.86  114.69
  -4  -2  -1 1346.37  119.89
  -4   2  -2 4206.88  354.76
   4   2   2 4724.53  369.36
  -4   2  -2 4638.84  366.86
  -4  -2  -2 4245.78  370.16
  -4  -2  -2 4537.35  364.96
   4   2   3   50.99   14.70
  -4   2  -3   43.80    4.40
  -4   2  -3   46.20    4.30
  -4   2  -3   58.29    6.80
  -4   2  -3   49.50    4.60
  -4   2  -3   43.60    4.30
  -4   2  -3   33.20    9.10
   4  -2   3   57.49   15.10
  -4  -2  -3   46.20   13.80
  -4  -2  -3   39.00    4.50
  -4  -2  -3   59.59   14.70
  -4   2  -4   58.49    8.20
  -4   2  -4   40.00    4.40
   4   2   4   33.90   15.10
  -4   2  -4   45.90    4.50
  -4   2  -4   38.10    4.20
  -4   2  -4   43.10    4.10
  -4  -2  -4   40.90   16.30
  -4  -2  -4   43.50   13.40
  -4  -2  -4   50.09    4.80
  -4   2  -5  919.41   73.29
  -4   2  -5  845.52   72.69
  -4   2  -5  983.70   73.39
  -4   2  -5  805.92   72.99
  -4   2  -5  895.21   78.89
  -4  -2  -5  914.71   73.49
  -4  -2  -5  886.91   72.69
  -4  -2  -5 1098.39   95.49
  -4   2  -6  341.67   28.60
  -4   2  -6  338.07   35.70
  -4   2  -6  363.96   29.30
  -4   2  -6  347.17   29.50
  -4   2  -6  314.87   29.20
  -4  -2  -6  390.26   29.90
  -4   2  -7  105.09   10.20
  -4   2  -7   87.89    9.70
  -4   2  -7  103.79    9.80
  -4  -2  -7  110.19   10.30
  -4  -2  -7  101.79   10.20
  -4   2  -8  134.89   13.00
  -4   2  -8  130.49   13.20
  -4  -2  -8  152.58   13.60
  -4  -2  -8  150.68   13.60
  -4   2  -9   93.49    9.60
  -4   2  -9  111.69   10.40
  -4  -2  -9  108.29   10.20
   4   3  -9   25.80    3.40
   4   3  -9   35.70    5.70
   4  -3  -9   28.60    3.20
   4   3  -8    6.70    2.50
   4   3  -8   12.70   13.10
   4   3  -8    4.20    1.50
   4  -3  -8   20.00   12.60
   4  -3  -8    7.40    2.30
   4  -3  -8    3.70    1.10
   4   3  -7  506.95   43.30
   4   3  -7  544.55   74.29
   4   3  -7  501.55   43.20
   4   3  -7  557.24   44.70
   4  -3  -7  533.25   75.69
   4  -3  -7  633.04   68.79
   4  -3  -7  513.25   42.70
   4   3  -6  141.39   26.00
   4   3  -6  135.29   13.00
   4   3  -6  140.69   12.00
   4   3  -6  138.79   12.10
   4  -3  -6  130.09   11.50
   4  -3  -6  144.49   27.10
   4  -3  -6  140.19   23.20
   4   3  -5  578.94   62.49
  -4   3   5  494.75   64.09
   4   3  -5  599.34   47.40
  -4   3   5  580.54   79.29
   4   3  -5  553.04   48.20
   4   3  -5  647.24   47.20
   4   3  -5  618.44   47.50
   4  -3  -5  573.64   47.00
   4  -3  -5  557.34   62.09
   4   3  -4  283.47   25.40
  -4   3   4  312.87   39.10
   4   3  -4  323.37   24.80
  -4   3   4  259.77   36.90
   4   3  -4  300.57   35.80
   4   3  -4  309.77   24.80
   4   3  -4  305.87   24.50
   4  -3  -4  299.67   36.10
  -4   3   3  101.19   17.50
   4   3  -3   95.99   14.60
   4   3  -3  104.99    8.70
   4   3  -3   99.09    9.30
   4   3  -3  110.79   16.60
  -4   3   3  126.99   18.50
   4   3  -3  103.59    8.80
   4  -3  -3  111.99   16.90
  -4  -3   3   87.69   17.30
   4   3  -2 1902.71  155.38
   4   3  -2 2031.70  145.89
   4   3  -2 2030.70  145.59
  -4   3   2 1727.13  156.58
   4   3  -2 1710.73  145.49
  -4   3   2 1720.33  155.28
   4   3  -2 1740.03  154.28
   4   3  -2 1670.33  145.99
   4  -3  -2 1897.71  154.18
   4   3  -1 4656.93  346.57
  -4   3   1 4159.58  348.27
   4  -3  -1 4641.74  344.07
  -4  -3   1 3907.51  351.06
   4  -3  -1 3854.61  346.77
   4   3   0    4.30    1.10
   4   3   0   -0.70    1.90
   4   3   0    6.20    1.30
  -4   3   0    3.50    1.00
  -4   3   0    1.00    3.60
  -4   3   0    7.60    4.00
   4   3   0   -2.10    3.00
  -4  -3   0    4.30    0.90
   4  -3   0   10.50    3.80
   4  -3   0    4.70    4.20
  -4  -3   0    4.20    3.70
   4   3   1  854.31   77.19
   4   3   1  713.83   64.19
  -4   3  -1  822.02   74.49
  -4   3  -1  761.92   64.29
  -4   3  -1  924.11   64.09
  -4  -3  -1  862.01   76.69
   4  -3   1  763.72   72.09
  -4  -3  -1  740.33   77.29
   4  -3   1  775.82   64.89
  -4   3  -2  511.55   37.30
  -4   3  -2  472.45   45.00
   4   3   2  511.35   51.29
  -4   3  -2  483.25   36.10
   4   3   2  396.56   36.30
  -4  -3  -2  494.75   48.80
   4  -3   2  407.26   44.60
  -4  -3  -2  386.16   36.40
  -4  -3  -2  419.66   49.80
  -4   3  -3  751.02   61.39
   4   3   3  692.73   89.99
  -4   3  -3  752.82   58.49
  -4   3  -3  719.53   58.19
  -4   3  -3  752.72   58.69
  -4   3  -3  755.62   58.29
  -4  -3  -3  612.04   74.49
  -4  -3  -3  677.43   58.59
  -4  -3  -3  770.12   73.69
  -4   3  -4  535.25   43.00
  -4   3  -4  542.75   43.50
  -4   3  -4  567.84   43.80
  -4   3  -4  509.65   43.30
   4   3   4  539.05   61.89
  -4   3  -4  549.35   43.40
  -4  -3  -4  522.25   43.80
  -4  -3  -4  449.36   61.89
  -4  -3  -4  578.14   61.19
  -4   3  -5 1950.80  136.99
  -4   3  -5 1583.54  141.49
  -4   3  -5 1627.94  136.69
  -4   3  -5 1502.85  136.59
  -4  -3  -5 1749.72  137.19
  -4  -3  -5 1885.01  160.18
  -4   3  -6  291.87   28.40
  -4   3  -6  348.57   28.80
  -4  -3  -6  360.96   29.10
  -4  -3  -6  456.75   55.09
  -4   3  -7   82.59    8.70
  -4   3  -7   87.39    8.90
  -4  -3  -7   95.09    9.20
  -4  -3  -7   95.59    9.30
  -4   3  -8   25.90    3.90
  -4   3  -8   28.50    4.00
  -4  -3  -8   23.70    3.90
  -4  -3  -8   25.50    4.20
  -4  -3  -8   32.50    3.70
  -4   3  -9  407.36   35.30
  -4  -3  -9  335.67   34.00
  -4  -3  -9  475.35   35.40
   4   4  -9    3.40    1.50
   4   4  -9    5.30    2.30
   4   4  -9    3.90    3.50
   4  -4  -9    2.70    2.00
   4   4  -8  231.38   38.50
   4   4  -8  227.98   20.20
   4   4  -8  228.58   19.60
   4   4  -7  331.37   28.40
   4   4  -7  378.56   29.80
   4   4  -7  333.57   28.30
   4   4  -7  360.36   48.30
   4  -4  -7  370.96   50.99
   4  -4  -7  306.37   28.00
   4   4  -6  274.37   38.90
   4   4  -6  270.67   23.30
   4   4  -6  309.67   23.20
   4   4  -6  286.27   24.40
   4   4  -6  269.17   23.20
   4  -4  -6  275.07   40.90
   4  -4  -6  258.37   22.60
   4   4  -5 2437.26  208.98
   4   4  -5 2368.56  190.88
   4   4  -5 2347.36  190.68
   4  -4  -5 2446.26  215.38
   4   4  -4  831.82   70.09
   4   4  -4  874.81   70.29
   4   4  -4  932.21   70.49
   4   4  -4  845.92   71.09
   4   4  -4  875.01   84.39
   4  -4  -4  904.61   84.69
   4   4  -3  169.48   14.50
   4   4  -3  163.08   14.90
   4   4  -3  176.98   23.80
  -4   4   3  185.78   26.60
   4   4  -3  184.28   14.30
   4   4  -3  169.58   14.20
   4   4  -3  155.68   19.00
   4  -4  -3  170.18   23.20
   4   4  -2  747.43   57.99
  -4   4   2  623.74   68.49
   4   4  -2  755.92   57.59
   4   4  -2  680.53   58.19
   4   4  -2  704.53   67.69
  -4   4   2  800.52   57.49
   4   4  -2  674.33   57.69
   4   4  -2  677.63   71.19
   4  -4  -2  765.02   67.49
   4   4  -1   37.10   13.00
  -4   4   1   20.00    2.20
  -4   4   1   17.50    6.20
  -4   4   1   10.40    6.20
   4   4  -1   16.60    2.40
  -4   4   1   21.80    2.10
   4   4  -1   20.00    2.50
   4   4  -1   11.70    5.60
   4   4  -1   16.80    2.20
   4  -4  -1   33.60    8.10
  -4  -4   1   19.70    7.30
  -4   4   0  454.65   37.40
  -4   4   0  460.35   37.00
   4   4   0  501.35   47.20
   4   4   0  446.26   51.19
  -4   4   0  493.35   37.20
   4   4   0  436.16   37.30
   4   4   0  418.06   37.60
  -4  -4   0  504.55   37.30
  -4  -4   0  355.96   60.09
  -4  -4   0  514.15   52.59
   4  -4   0  454.75   42.00
  -4   4  -1  396.96   34.60
  -4   4  -1  408.76   33.70
  -4   4  -1  463.95   34.00
   4   4   1  418.16   34.40
  -4   4  -1  414.36   43.10
  -4  -4  -1  471.45   49.10
  -4  -4  -1  431.16   48.60
   4  -4   1  379.46   36.20
  -4   4  -2 1092.79   83.09
   4   4   2  982.10   83.19
  -4   4  -2 1018.50   82.79
  -4   4  -2 1157.68   82.99
  -4   4  -2 1056.49   83.29
   4   4   2 1035.70   99.79
  -4  -4  -2 1173.78  100.99
  -4  -4  -2  927.01   83.19
  -4  -4  -2  887.61   99.29
  -4   4  -3 2914.41  223.88
  -4   4  -3 2855.81  223.18
  -4   4  -3 2664.03  229.28
   4   4   3 2721.73  244.48
  -4  -4  -3 2949.21  244.38
  -4  -4  -3 2737.33  223.88
  -4   4  -4  738.33   59.29
  -4   4  -4  755.02   59.09
  -4   4  -4  682.73   58.69
  -4   4  -4  717.33   63.09
  -4   4  -4  742.33   58.59
  -4  -4  -4  757.12   79.89
  -4  -4  -4  723.83   59.29
  -4   4  -5   46.60    5.20
  -4   4  -5   47.50    5.30
  -4  -4  -5   37.60   15.50
  -4  -4  -5   50.89    5.40
  -4   4  -6  251.87   23.10
  -4   4  -6  269.27   23.60
  -4  -4  -6  306.27   48.20
  -4  -4  -6  299.77   23.90
  -4   4  -7   52.79    7.20
  -4   4  -8  300.07   27.90
  -4   4  -8  354.76   27.80
  -4  -4  -8  323.67   28.00
  -4  -4  -8  341.17   28.30
   4   5  -8   28.80    5.30
   4   5  -8   28.80    4.40
   4   5  -8   26.90    3.60
   4   5  -7  297.07   24.70
   4   5  -7  276.17   23.60
   4   5  -7  268.67   23.70
   4   5  -7  265.37   39.80
   4   5  -6   43.20    5.40
   4   5  -6   44.60    5.00
   4   5  -6   50.99    5.00
   4   5  -6   50.99    5.90
   4   5  -6   62.59   19.10
   4   5  -5  376.26   46.20
   4   5  -5  350.06   30.70
   4   5  -5  377.76   31.60
   4   5  -5  379.66   30.60
   4   5  -5  373.96   30.80
   4  -5  -5  383.06   47.00
   4   5  -4  149.39   13.00
   4   5  -4  173.38   16.80
   4   5  -4  144.79   12.90
   4   5  -4  157.78   14.90
   4   5  -4  145.29   24.60
   4  -5  -4  145.99   25.00
   4   5  -3 1745.53  136.39
   4   5  -3 1787.22  135.99
   4   5  -3 1643.84  136.09
  -4   5   3 1766.42  135.69
   4   5  -3 1603.04  136.69
   4   5  -3 1765.62  150.58
   4  -5  -3 1610.74  148.89
   4   5  -2 1637.34  117.09
   4   5  -2 1373.16  117.29
   4   5  -2 1421.86  123.99
   4   5  -2 1379.66  117.79
   4   5  -2 1463.45  117.59
   4  -5  -2 1535.55  128.99
   4   5  -1   41.00    4.20
  -4   5   1   50.19    4.10
   4   5  -1   33.40    4.30
  -4   5   1   48.10    4.00
   4   5  -1   58.79   16.80
  -4   5   1   26.70    9.10
   4   5  -1   37.00    4.40
   4   5  -1   37.20   10.90
  -4  -5   1   40.80    4.10
   4  -5  -1   50.29   10.60
  -4  -5   1   24.20   10.30
   4   5   0   79.69    7.90
  -4   5   0   91.19    7.70
   4   5   0   83.69    8.20
   4   5   0   94.89    8.40
  -4   5   0   89.89    7.60
   4   5   0   83.59   21.80
  -4   5   0   81.69   13.90
  -4   5   0  101.79    8.00
   4  -5   0   72.89   12.10
  -4  -5   0   74.99   16.70
  -4  -5   0   86.59    7.80
  -4  -5   0  103.89   20.40
   4   5   1 1035.90  122.19
  -4   5  -1  917.01   82.39
  -4   5  -1 1082.19   79.69
  -4   5  -1  992.70   79.29
   4   5   1  990.70   79.49
  -4   5  -1  941.41   79.09
   4   5   1 1017.70   79.99
   4  -5   1  857.71   82.79
  -4  -5  -1 1179.48  101.39
   4   5   2   82.79    7.80
   4   5   2   91.59    8.20
  -4   5  -2   83.79    7.50
  -4   5  -2   92.79    8.10
  -4   5  -2   88.99    7.80
  -4  -5  -2   95.89   23.50
  -4  -5  -2   81.39    8.00
  -4   5  -3  280.07   24.40
  -4   5  -3  328.17   24.00
  -4   5  -3  277.77   23.70
  -4   5  -3  292.17   24.20
  -4  -5  -3  280.57   24.40
  -4  -5  -3  277.67   40.90
  -4   5  -4  256.17   20.80
  -4   5  -4  257.07   21.10
  -4   5  -4  227.28   21.20
  -4  -5  -4  287.07   41.80
  -4  -5  -4  247.88   22.00
  -4   5  -5   38.20    4.80
  -4   5  -5   40.70    4.50
  -4   5  -5   49.50    4.90
  -4  -5  -5   39.20   17.40
  -4  -5  -5   42.60    4.90
  -4   5  -6  468.65   42.00
  -4   5  -6  543.45   41.60
   4   5   6  476.25   41.30
  -4  -5  -6  540.65   42.20
  -4   5  -7 1129.79   97.69
  -4   5  -7 1318.27   97.39
   4   5   7 1158.58   96.89
  -4  -5  -7 1206.28   97.79
  -4  -5  -7 1230.78   97.79
  -4   5  -8   26.80    3.10
  -4   5  -8   18.90    3.50
  -4  -5  -8   18.20    3.50
  -4  -5  -8   21.10    3.40
   4   6  -8  193.98   16.30
   4   6  -8  167.18   16.30
   4   6  -8  191.48   16.70
   4   6  -7  158.98   14.50
   4   6  -7  141.19   14.90
   4   6  -7  159.88   15.10
   4   6  -7  194.48   14.90
   4   6  -6 1542.65  132.09
   4   6  -6 1708.83  132.59
   4   6  -6 1753.72  132.19
   4   6  -6 1602.24  150.88
   4   6  -6 1628.14  133.09
   4   6  -5    3.70    1.40
   4   6  -5    1.00    6.70
   4   6  -5    1.80    1.10
   4   6  -5    9.00    2.60
   4   6  -5    3.70    1.60
   4   6  -4   56.69   16.60
   4   6  -4   47.00    5.70
   4   6  -4   51.09    5.10
   4   6  -4   44.30    5.30
   4   6  -4   61.89    5.70
   4  -6  -4   59.49   15.10
  -4  -6   4   51.79   16.80
   4   6  -3  473.15   38.20
   4   6  -3  477.35   39.20
  -4   6   3  470.65   37.90
   4   6  -3  435.86   38.40
   4   6  -3  482.05   38.80
   4   6  -3  482.05   52.39
   4  -6  -3  455.05   52.79
  -4  -6   3  512.15   58.39
   4   6  -2  235.18   31.50
  -4   6   2  241.38   19.30
   4   6  -2  229.48   20.50
   4   6  -2  211.58   20.50
   4   6  -2  253.97   19.40
  -4  -6   2  274.67   38.90
   4  -6  -2  204.48   29.00
   4   6  -1  126.79   12.10
  -4   6   1  138.39   11.80
   4   6  -1  145.79   12.80
  -4   6   1  166.08   12.00
   4   6  -1  116.89   12.40
   4  -6  -1  134.59   20.70
  -4  -6   1  174.48   28.90
  -4   6   0  374.56   28.70
   4   6   0  387.66   29.50
  -4   6   0  328.27   28.50
   4   6   0  341.37   29.30
   4   6   0  325.87   28.70
   4  -6   0  304.07   35.50
  -4  -6   0  419.76   50.09
   4   6   1  437.76   35.20
  -4   6  -1  394.36   33.70
   4   6   1  444.16   35.00
  -4   6  -1  434.76   34.00
   4  -6   1  364.06   39.20
  -4  -6  -1  545.35   66.89
  -4  -6  -1  386.76   34.10
  -4   6  -2  131.39   12.00
  -4   6  -2  155.48   12.60
   4   6   2  154.58   13.00
  -4   6  -2  133.99   12.30
   4   6   2  144.79   12.50
  -4  -6  -2  140.89   12.60
  -4  -6  -2  150.38   30.20
  -4   6  -3   -0.50    1.00
  -4   6  -3    0.90    0.90
  -4   6  -3   -0.20    0.80
   4   6   3    2.30    0.90
  -4   6  -3    1.10    0.80
  -4  -6  -3    2.30   12.30
  -4   6  -4 1106.49   86.29
   4   6   4 1065.49   85.89
  -4   6  -4 1027.00   86.29
  -4  -6  -4 1149.78  116.89
  -4  -6  -4 1037.10   86.29
  -4   6  -5  358.36   28.60
  -4   6  -5  318.87   28.70
   4   6   5  338.97   28.20
  -4  -6  -5  345.87   28.70
  -4   6  -6  487.65   41.40
   4   6   6  477.55   40.60
  -4  -6  -6  530.45   41.40
  -4   6  -7    1.60    1.60
  -4   6  -7    0.70    1.20
  -4  -6  -7   -1.30    1.00
   4   7  -7  345.17   31.90
   4   7  -7  428.66   32.50
   4   7  -7  388.36   32.50
   4   7  -6   13.70    3.60
   4   7  -6   18.80    3.10
   4   7  -6   17.20    2.80
   4   7  -6   17.30    3.20
   4   7  -5  750.92   62.19
   4   7  -5  786.42   59.69
   4   7  -5  736.73   76.09
   4   7  -5  722.73   58.89
   4   7  -5  643.44   61.49
   4   7  -4  397.96   46.30
   4   7  -4  397.46   31.40
   4   7  -4  342.67   30.70
   4   7  -4  387.86   31.60
   4   7  -4  367.66   30.50
   4  -7  -4  376.06   48.90
  -4  -7   4  311.77   49.10
   4   7  -3  117.29   10.80
  -4   7   3  119.29   10.60
   4   7  -3  139.09   23.50
   4   7  -3  135.49   12.00
   4   7  -3  107.19   11.10
   4   7  -3  121.49   11.60
  -4  -7   3  145.19   11.20
   4  -7  -3  149.49   26.60
  -4  -7   3  140.99   32.70
   4   7  -2  217.68   20.90
   4   7  -2  230.98   21.40
  -4   7   2  260.97   20.50
   4   7  -2  255.67   21.60
  -4  -7   2  273.57   20.90
   4  -7  -2  235.28   33.40
  -4  -7   2  269.97   42.30
  -4   7   1   83.29    7.40
   4   7  -1   95.09    8.40
   4   7  -1   96.79    8.50
   4   7  -1   74.99    7.70
  -4  -7   1   99.79   27.10
  -4  -7   1   66.09    7.40
  -4   7   0  487.75   41.40
  -4   7   0  568.44   41.40
   4   7   0  524.85   42.40
   4   7   0  495.35   41.80
  -4  -7   0  546.45   65.59
   4  -7   0  436.56   50.69
   4   7   1   17.50    2.70
  -4   7  -1   13.00    2.10
  -4   7  -1   15.10    2.10
  -4  -7  -1   11.60   12.10
  -4   7  -2   86.99    8.00
   4   7   2   84.39    8.00
  -4   7  -2   79.69    7.60
   4   7   2  105.69    8.90
  -4   7  -2   85.59    8.00
  -4  -7  -2   83.69    8.10
  -4  -7  -2   84.49   24.50
   4   7   3  215.48   18.70
  -4   7  -3  219.08   18.90
  -4   7  -3  223.58   18.90
  -4  -7  -3  217.48   18.90
  -4  -7  -3  293.17   45.10
   4   7   4  256.87   21.00
  -4   7  -4  250.77   21.30
  -4   7  -4  244.68   21.20
  -4  -7  -4  245.88   21.20
  -4   7  -5  288.37   23.60
  -4   7  -5  261.87   23.50
   4   7   5  280.57   23.10
   4   7   6   77.29    7.10
  -4   7  -6   75.99    7.70
   4   8  -6   85.49    7.50
   4   8  -6   69.09    7.50
   4   8  -6   72.39    7.60
   4   8  -5   20.50    3.40
   4   8  -5   19.20    2.90
   4   8  -4  837.12   72.79
   4   8  -4  947.91   73.39
   4   8  -4  913.71   73.29
   4   8  -3   13.30    3.80
   4   8  -3    9.00    3.70
  -4   8   3   11.50    2.40
   4   8  -2   38.70    4.50
   4   8  -2   40.10    4.90
  -4   8   2   36.80    3.90
   4   8  -1    0.40    1.40
   4   8  -1    4.10    1.70
  -4   8   1    2.80    1.00
  -4   8   0  116.99   10.50
   4   8   0  116.19   10.80
   4   8   0  124.59   11.30
  -4   8  -1   27.40    3.10
   4   8   1   25.30    3.30
   4   8   1   31.70    4.00
  -4   8  -1   28.40    3.40
  -4   8  -2  383.26   32.20
   4   8   2  381.66   32.20
  -4   8  -2  403.66   31.90
   4   8   3   11.20    1.90
  -4   8  -3    7.30    1.60
  -4   8  -3    7.80    1.80
  -4   8  -4    2.50    1.30
   4   8   4    1.60    0.90
  -4   8  -4    0.60    0.80
  -4   8  -5    2.90    1.40
   4   8   5    1.20    1.50
  -4   8  -5    2.90    1.10
   4   9  -4  119.19   10.70
   4   9  -4  106.49   10.40
   4   9  -3   15.10    3.00
   4   9  -3   14.90    3.00
   4   9  -3   10.30    2.40
  -4   9   2   64.29    5.90
   4   9  -2   58.99    6.40
   4   9  -2   66.89    6.80
   4   9  -1  160.58   15.00
  -4   9   1  172.68   14.60
   4   9  -1  182.98   15.50
  -4   9   0  140.99   13.20
   4   9   0  168.68   14.00
   4   9   0  153.08   13.50
  -4   9  -1    3.20    1.20
   4   9   1    2.00    1.00
  -4   9  -2   41.00    4.50
   4   9   2   41.10    4.40
  -4   9  -3   15.30    2.50
   4   9   3   10.90    2.10
   5   0 -10    4.10    2.40
   5   0  -9    1.80    1.00
   5   0  -9    4.40   13.70
   5   0  -9    2.70    2.10
   5   0  -8   10.80    2.00
   5   0  -8   13.50    3.40
   5   0  -8    5.80    8.60
   5   0  -7   10.10    7.30
   5   0  -7    2.20    0.90
   5   0  -7    0.60    1.00
   5   0  -6 3384.66  285.07
   5   0  -6 3472.65  300.07
   5   0  -6 3843.32  284.27
  -5   0   5   17.40   13.90
   5   0  -4  891.91   75.99
   5   0  -4  867.11   66.39
   5   0  -4  848.92   79.99
   5   0  -4  752.92   67.39
  -5   0   4  797.02   81.99
   5   0  -3    2.50    0.60
   5   0  -3    1.20    0.60
  -5   0   3   -3.40    4.60
   5   0  -3    1.10    2.20
   5   0  -3   -0.10    3.00
   5   0  -2 5941.91  465.75
  -5   0   2 5685.73  473.95
   5   0  -2 5764.72  473.65
   5   0  -1   15.60    4.20
  -5   0   0 4203.38  338.27
   5   0   0 3954.50  325.07
  -5   0  -1    3.00    0.80
   5   0   1    3.20    4.80
  -5   0  -1    2.80    2.10
  -5   0  -2  650.53   63.99
  -5   0  -2  784.62   62.19
  -5   0  -2  687.03   62.29
  -5   0  -2  892.81   80.89
   5   0   2  890.61   79.49
  -5   0  -2  846.02   67.49
   5   0   3   20.40   10.10
  -5   0  -3    1.70    1.60
  -5   0  -3    3.70    1.10
  -5   0  -3   -3.10    6.10
  -5   0  -3    4.00    2.30
  -5   0  -3    1.00    2.70
  -5   0  -4 1346.67  114.89
  -5   0  -4 1229.88  115.09
  -5   0  -4 1588.94  119.49
  -5   0  -4 1611.54  121.29
  -5   0  -5   -0.20    0.80
  -5   0  -5    1.60    1.00
  -5   0  -5    0.10    1.10
  -5   0  -5    2.50    1.00
  -5   0  -5    0.70    3.30
  -5   0  -6   24.00    3.30
  -5   0  -6   22.50    7.10
  -5   0  -6   12.60    2.90
  -5   0  -6   16.60    2.50
  -5   0  -6   21.40    3.40
  -5   0  -7    1.60    1.60
  -5   0  -7    4.70    2.00
  -5   0  -8  135.69   12.30
  -5   0  -8  113.99   11.30
  -5   0  -8  129.29   12.50
  -5   0  -9    4.00    1.90
   5   1 -10  195.88   16.20
   5  -1 -10  185.38   15.90
   5   1  -9  199.68   17.00
   5  -1  -9  199.38   16.80
   5   1  -8  207.78   34.80
   5   1  -8  164.48   14.50
   5   1  -8  178.98   16.30
   5  -1  -8  183.68   32.10
   5  -1  -8  157.88   14.30
   5   1  -7  307.87   25.40
   5   1  -7  286.77   26.10
   5   1  -7  286.27   40.40
   5   1  -7  291.47   24.90
   5  -1  -7  317.77   41.00
   5  -1  -7  338.07   26.30
   5  -1  -7  284.67   24.80
   5   1  -6  220.98   20.80
   5   1  -6  232.38   32.70
   5   1  -6  258.97   20.50
   5   1  -6  242.48   20.00
   5  -1  -6  245.98   19.90
   5  -1  -6  235.18   20.70
   5  -1  -6  243.78   31.60
   5   1  -5 1673.03  153.88
   5   1  -5 2000.70  141.49
  -5   1   5 1690.13  162.98
   5   1  -5 1501.95  141.59
   5   1  -5 1924.51  141.09
   5  -1  -5 1734.73  152.18
   5  -1  -5 1874.51  140.89
   5  -1  -5 1695.83  141.59
   5   1  -4  161.68   15.90
   5   1  -4  204.28   15.90
   5   1  -4  175.28   23.30
   5   1  -4  204.08   15.60
  -5   1   4  195.88   28.10
   5  -1  -4  195.78   15.40
  -5  -1   4  162.28   26.50
   5  -1  -4  176.98   22.20
   5   1  -3 4447.25  354.66
   5   1  -3 4074.19  350.16
  -5   1   3 4394.76  357.56
  -5  -1   3 3954.70  356.16
   5  -1  -3 4917.91  349.67
   5  -1  -3 4042.10  355.06
   5   1  -2  894.81   85.19
  -5   1   2 1115.79   93.99
   5  -1  -2 1021.40   83.89
   5  -1  -2  969.50   91.19
   5   1  -1  784.52   65.79
  -5   1   1  717.03   72.19
   5   1  -1  713.53   60.99
   5  -1  -1  754.32   63.29
  -5  -1   1  769.72   81.19
   5  -1  -1  864.21   75.69
   5   1   0  179.68   14.00
  -5   1   0  139.19   22.40
   5   1   0  160.98   16.70
  -5  -1   0  167.68   13.80
   5  -1   0  200.48   38.90
  -5  -1   0  166.08   25.50
  -5   1  -1  896.51   83.69
  -5   1  -1 1065.09   84.99
  -5   1  -1 1007.80   84.79
  -5  -1  -1 1077.29   90.69
  -5  -1  -1 1162.18   83.79
  -5  -1  -1 1103.29  102.49
  -5   1  -2  614.24   54.59
  -5   1  -2  720.93   54.79
   5   1   2  759.92   70.49
  -5   1  -2  692.63   69.89
  -5  -1  -2  735.93   62.39
  -5  -1  -2  741.03   73.59
  -5  -1  -2  661.53   54.79
  -5  -1  -2  588.74   54.59
  -5   1  -3   51.29    6.00
   5   1   3   52.59   14.20
  -5   1  -3   52.39    6.20
  -5   1  -3   47.80    5.00
  -5   1  -3   44.20    4.70
  -5   1  -3   64.19   16.10
  -5  -1  -3   49.20    5.20
  -5  -1  -3   71.79   18.30
  -5  -1  -3   61.09    5.00
  -5  -1  -3   44.70   11.40
   5  -1   3   41.90   12.90
  -5   1  -4   72.29    9.90
  -5   1  -4   83.49    7.70
  -5   1  -4   78.59    7.80
  -5  -1  -4   81.09    7.40
  -5  -1  -4   72.79   14.90
  -5  -1  -4   96.59    8.20
  -5   1  -5  157.28   13.40
  -5   1  -5  124.79   16.90
  -5   1  -5  149.99   13.00
  -5   1  -5  121.49   12.70
  -5  -1  -5  151.08   13.40
  -5  -1  -5  193.58   25.50
  -5  -1  -5  152.08   12.70
  -5   1  -6  467.45   41.80
  -5   1  -6  519.15   42.40
  -5   1  -6  526.45   41.90
  -5  -1  -6  508.05   41.50
  -5  -1  -6  483.95   42.20
  -5  -1  -6  535.05   42.60
  -5   1  -7  284.37   24.80
  -5   1  -7  310.77   25.70
  -5   1  -7  299.27   25.20
  -5  -1  -7  294.07   25.30
  -5  -1  -7  311.27   25.70
  -5  -1  -7  250.07   24.10
  -5   1  -8  140.59   12.20
  -5   1  -8  105.19   11.30
  -5   1  -8  125.19   12.40
  -5  -1  -8  129.19   12.50
  -5  -1  -8  130.69   12.20
  -5   1  -9  286.47   23.90
  -5  -1  -9  266.87   23.80
   5   2  -9   51.29    5.30
   5  -2  -9   51.39    5.00
   5   2  -8  525.55   62.69
   5   2  -8  448.36   38.60
   5   2  -8  520.85   40.30
   5   2  -8  420.16   38.20
   5  -2  -8  434.06   37.90
   5  -2  -8  583.14   61.09
   5   2  -7  903.31   92.49
   5   2  -7  819.52   72.19
   5   2  -7  866.81   71.29
   5   2  -7  815.92   70.99
   5  -2  -7 1011.70   90.59
   5  -2  -7  813.32   70.69
   5  -2  -7 1016.00   72.39
   5   2  -6  153.78   14.50
   5   2  -6  156.88   13.60
   5   2  -6  171.48   14.10
   5   2  -6  139.59   25.10
   5  -2  -6  158.78   13.30
   5  -2  -6  154.48   23.70
   5   2  -5  121.39   12.30
  -5   2   5  134.49   29.30
   5   2  -5  144.69   22.50
   5   2  -5  141.89   11.80
  -5   2   5  113.49   27.60
   5   2  -5  153.48   12.20
   5  -2  -5  134.39   11.40
   5  -2  -5  153.28   21.80
   5  -2  -5  125.29   22.30
   5   2  -4 4566.54  399.86
   5   2  -4 5326.07  388.36
   5   2  -4 4881.31  401.36
  -5   2   4 5004.80  405.46
  -5   2   4 4192.98  404.36
   5  -2  -4 4692.73  388.26
   5  -2  -4 5124.39  403.86
   5  -2  -4 5320.57  398.96
   5   2  -3  186.28   17.50
   5   2  -3  207.28   16.90
   5   2  -3  226.18   25.80
  -5   2   3  175.78   27.80
   5   2  -3  195.28   25.90
   5   2  -3  211.68   17.30
   5   2  -3  236.88   17.30
   5  -2  -3  214.58   28.60
   5  -2  -3  207.88   25.90
  -5   2   2 2150.18  193.78
   5   2  -2 2127.09  181.08
   5   2  -2 2450.65  196.18
   5   2  -2 2365.06  188.88
   5   2  -2 2565.74  181.08
   5   2  -2 2398.06  181.38
  -5  -2   2 2068.89  195.48
   5  -2  -2 1984.20  192.28
   5  -2  -2 2301.77  189.48
   5   2  -1  818.32   68.59
   5   2  -1  755.22   60.69
   5   2  -1  762.82   60.69
  -5   2   1  682.53   71.59
   5  -2  -1  790.02   73.09
  -5  -2   1  710.43   75.19
   5  -2  -1  760.62   66.49
   5   2   0  852.71   67.49
   5   2   0  756.92   61.79
  -5   2   0  701.13   65.69
   5   2   0  753.22   61.99
  -5   2   0  791.02   61.79
   5  -2   0  696.93   62.59
  -5  -2   0  849.02   61.79
   5  -2   0  775.12   75.59
  -5   2  -1 1420.96  133.09
   5   2   1 1796.02  149.09
  -5   2  -1 1884.41  147.99
   5   2   1 1613.64  132.89
  -5   2  -1 1859.31  133.09
  -5  -2  -1 1640.84  151.88
  -5  -2  -1 1503.65  141.69
  -5   2  -2 1998.30  150.08
  -5   2  -2 1827.42  149.59
  -5   2  -2 1673.03  162.88
   5   2   2 2082.19  167.58
  -5  -2  -2 1875.91  159.98
  -5  -2  -2 1798.72  169.18
  -5   2  -3   82.79    8.10
  -5   2  -3   95.59    8.40
   5   2   3   91.99   21.60
  -5  -2  -3   97.59    8.70
  -5  -2  -3  101.09    8.20
  -5  -2  -3   98.59   17.40
  -5   2  -4  121.99   10.60
   5   2   4  112.99   30.20
  -5   2  -4  128.39   10.80
  -5   2  -4  104.49   10.20
  -5   2  -4  121.19   12.10
  -5  -2  -4  118.39   20.80
  -5  -2  -4  114.59   10.00
  -5  -2  -4  130.99   30.60
  -5  -2  -4  115.59   10.80
  -5   2  -5   69.69    6.80
  -5   2  -5   53.59    6.20
  -5   2  -5   70.89    6.80
  -5  -2  -5  108.79   22.00
  -5   2  -6  381.76   32.30
  -5   2  -6  333.27   31.70
  -5   2  -6  412.56   32.20
  -5  -2  -6  400.86   32.60
  -5   2  -7  152.78   15.80
  -5   2  -7  173.68   15.50
  -5   2  -7  169.48   15.50
  -5  -2  -7  175.28   15.90
  -5  -2  -7  234.58   29.90
  -5  -2  -7  175.48   16.10
  -5   2  -8  313.37   24.90
  -5   2  -8  241.98   24.20
  -5  -2  -8  281.47   25.10
  -5  -2  -8  315.67   25.00
   5   3  -9   11.80    3.50
   5  -3  -9   16.30    3.60
   5   3  -8  148.39   15.80
   5   3  -8  172.28   31.90
   5   3  -7 1065.19   87.59
   5   3  -7 1189.48  110.89
   5   3  -7 1028.70   87.39
   5   3  -7 1184.58   88.99
   5  -3  -7 1015.30   86.79
   5   3  -6  330.97   41.00
   5   3  -6  303.47   24.40
   5   3  -6  270.47   24.00
   5   3  -6  298.27   25.20
   5  -3  -6  266.47   23.50
   5  -3  -6  330.67   37.50
   5  -3  -6  272.87   39.60
   5   3  -5 1141.49   94.29
   5   3  -5 1204.48  110.49
   5   3  -5 1114.89   94.29
   5   3  -5 1296.97   94.09
   5   3  -5 1151.68   95.09
   5  -3  -5 1145.69  111.39
  -5   3   4    6.80    8.80
  -5   3   4   18.70   10.50
   5   3  -4    4.80    1.10
   5   3  -4    5.70    1.60
   5   3  -4   -4.00    4.30
  -5  -3   4   -2.30   16.60
   5  -3  -4    8.10    7.10
   5   3  -3   52.79    4.40
  -5   3   3   57.19   16.90
   5   3  -3   51.59    4.70
   5   3  -3   48.40    4.70
   5   3  -3   47.00   11.20
  -5   3   3   31.40    9.90
   5   3  -3   40.80   11.00
   5   3  -3   48.00    4.90
   5  -3  -3   54.49   13.70
  -5  -3   3   28.10   11.90
   5   3  -2  110.89   19.60
   5   3  -2  112.29    9.10
  -5   3   2  117.29   19.40
   5   3  -2   95.59    8.90
   5   3  -2  102.89    9.30
   5   3  -2  111.89   15.90
  -5  -3   2   88.69   20.60
   5  -3  -2  110.19   15.70
   5  -3  -2  114.79   19.60
   5   3  -1 4920.11  368.06
  -5   3   1 4344.67  372.76
   5  -3  -1 4819.72  366.46
   5  -3  -1 3988.60  370.86
   5   3   0 1798.02  133.49
  -5   3   0 1444.56  138.09
   5   3   0 1704.23  150.48
  -5   3   0 1912.91  133.19
   5  -3   0 1580.24  164.08
  -5  -3   0 1492.95  149.99
  -5   3  -1   63.29    5.70
  -5   3  -1   59.49    6.40
   5   3   1   52.19   13.80
   5   3   1   66.59    5.80
  -5   3  -1   61.99   15.10
  -5  -3  -1   62.19    5.70
   5  -3   1   58.79   13.50
  -5  -3  -1   45.10   15.80
  -5  -3  -1   71.99   14.50
  -5   3  -2  336.97   26.70
   5   3   2  321.77   26.50
   5   3   2  341.37   42.10
  -5   3  -2  320.47   27.10
  -5   3  -2  334.57   26.40
  -5  -3  -2  340.37   44.50
  -5  -3  -2  261.67   39.90
   5   3   3  315.57   43.90
  -5   3  -3  310.47   24.40
  -5   3  -3  315.17   24.90
  -5   3  -3  274.07   24.00
  -5   3  -3  294.47   24.20
  -5  -3  -3  270.37   24.60
  -5  -3  -3  285.97   36.80
  -5  -3  -3  313.77   45.10
  -5   3  -4   55.29    5.30
  -5   3  -4   48.90    5.10
  -5   3  -4   59.79    5.90
  -5  -3  -4   50.49    5.70
  -5  -3  -4   58.29   16.40
  -5   3  -5  610.14   55.79
  -5   3  -5  671.43   56.19
  -5   3  -5  730.83   56.69
  -5  -3  -5  764.12   76.49
  -5  -3  -5  718.93   56.79
  -5   3  -6   51.19    5.70
  -5   3  -6   49.40    5.30
  -5  -3  -6   65.19   23.00
  -5   3  -7   25.00    3.70
  -5  -3  -7   25.70   13.00
  -5  -3  -7   20.80    3.90
  -5   3  -8  357.06   28.20
  -5  -3  -8  331.37   28.40
  -5  -3  -8  310.27   28.60
   5   4  -9  223.98   21.60
   5  -4  -9  262.07   21.80
   5   4  -8  170.08   16.40
   5   4  -8  231.18   18.20
   5   4  -8  207.18   34.60
   5   4  -8  176.58   17.10
   5   4  -7    7.70    8.60
   5   4  -7    7.40    2.40
   5   4  -7    4.20    1.50
   5   4  -7    3.20    3.30
   5  -4  -7    6.90    6.50
   5   4  -6  417.46   37.60
   5   4  -6  475.75   38.80
   5   4  -6  510.15   37.60
   5   4  -6  477.85   55.19
   5   4  -6  437.76   37.90
   5  -4  -6  435.46   55.29
   5   4  -5 1488.55  128.29
   5   4  -5 1648.64  129.29
   5   4  -5 1617.24  128.09
   5   4  -5 1760.52  146.99
   5   4  -5 1534.85  128.39
   5  -4  -5 1632.64  147.59
   5   4  -4  859.41   76.99
   5   4  -4  806.12   62.09
   5   4  -4  814.02   62.79
   5   4  -4  766.12   61.89
   5   4  -4  648.14   61.89
   5  -4  -4  754.92   76.49
   5   4  -3  698.73   56.09
   5   4  -3  730.03   67.49
  -5   4   3  645.94   69.99
   5   4  -3  691.93   55.49
   5   4  -3  722.33   55.79
   5   4  -3  693.03   55.49
   5   4  -3  610.34   63.29
   5  -4  -3  708.33   67.99
   5   4  -2  938.21   82.89
   5   4  -2  808.82   72.09
  -5   4   2  881.71   84.29
   5   4  -2  973.30   86.39
  -5   4   2  947.21   71.89
   5   4  -2  889.31   72.59
   5   4  -2  922.31   72.49
   5  -4  -2  850.01   84.49
   5   4  -1  504.15   45.70
   5   4  -1  655.23   56.09
  -5   4   1  554.24   47.00
  -5   4   1  636.54   45.60
   5   4  -1  615.84   46.10
   5   4  -1  511.85   46.00
  -5  -4   1  485.25   58.19
   5  -4  -1  564.94   52.69
   5   4   0  847.42   72.59
  -5   4   0  909.51   72.79
   5   4   0  969.70   72.89
   5   4   0  945.91   72.99
   5   4   0  847.62   89.49
   5  -4   0  810.62   76.79
  -5  -4   0 1050.89   72.59
  -5  -4   0  928.81   88.59
  -5  -4   0  750.32   87.09
   5   4   1  162.78   28.70
  -5   4  -1  171.78   15.50
   5   4   1  190.68   15.40
  -5   4  -1  181.88   15.10
  -5  -4  -1  174.28   30.10
  -5  -4  -1  179.88   27.30
  -5  -4  -1  181.58   15.20
  -5   4  -2 1038.80   81.09
  -5   4  -2 1003.70   80.49
   5   4   2 1009.30  100.29
   5   4   2 1039.90   80.59
  -5  -4  -2 1060.29   98.09
  -5  -4  -2  809.02  104.29
  -5   4  -3 1632.44  126.79
  -5   4  -3 1633.34  126.79
  -5   4  -3 1645.34  127.29
  -5  -4  -3 1467.25  126.99
  -5  -4  -3 1521.85  145.59
  -5   4  -4  419.16   34.40
  -5   4  -4  398.66   33.90
  -5   4  -4  427.96   33.60
  -5  -4  -4  417.66   35.80
  -5  -4  -4  365.56   50.09
  -5   4  -5  542.55   45.60
  -5   4  -5  560.44   44.80
  -5  -4  -5  554.34   45.70
  -5  -4  -5  535.75   65.69
  -5   4  -6  404.16   32.90
  -5   4  -6  366.76   33.50
  -5  -4  -6  409.76   33.80
  -5  -4  -6  445.46   62.09
  -5   4  -7   90.69   10.30
  -5   4  -7  110.59    9.90
  -5  -4  -7  113.99   10.40
  -5  -4  -7  108.49   10.80
  -5  -4  -7  142.19   24.30
  -5   4  -8  390.36   29.60
  -5  -4  -8  329.77   30.20
  -5  -4  -8  345.17   29.90
   5   5  -8  300.37   28.20
   5   5  -8  314.87   28.00
   5   5  -8  396.26   29.30
   5   5  -7   47.70    6.10
   5   5  -7   65.19   18.60
   5   5  -7   45.80    7.00
   5   5  -7   48.70    5.30
   5  -5  -7   46.40   15.80
   5   5  -6   22.80    3.40
   5   5  -6   48.10   14.90
   5   5  -6   31.20    3.50
   5   5  -6   32.10    4.30
   5   5  -6   22.50    4.60
   5  -5  -6   26.80   13.40
   5   5  -5  112.79   10.70
   5   5  -5  108.39   10.30
   5   5  -5  113.89   10.00
   5   5  -5  118.79   11.10
   5   5  -5  114.69   21.90
   5  -5  -5  121.99   28.00
   5   5  -4    4.10    1.70
   5   5  -4    6.50    2.20
   5   5  -4    6.20    1.40
   5   5  -4    8.90    5.70
   5   5  -4    4.80    1.50
   5  -5  -4    9.90    9.40
   5   5  -3 1189.38  102.79
   5   5  -3  999.30   88.39
   5   5  -3 1083.09   89.09
  -5   5   3 1264.67   88.39
   5   5  -3 1059.59   88.29
   5   5  -3 1066.99   88.79
   5  -5  -3 1078.99  102.09
   5   5  -2   -5.20   10.90
   5   5  -2   11.20    2.20
   5   5  -2    6.60    1.90
  -5   5   2   10.80    1.40
   5   5  -2    5.70    4.10
  -5   5   2    9.60    1.50
   5  -5  -2   -2.50    5.50
   5   5  -1  167.08   16.70
   5   5  -1  205.98   16.80
   5   5  -1  165.28   16.30
  -5   5   1  223.18   16.60
  -5   5   1  206.48   16.10
   5   5  -1  202.38   28.30
   5  -5  -1  181.48   23.90
  -5  -5   1  187.88   31.00
  -5  -5   1  200.58   16.30
   5   5   0 1661.53  142.19
  -5   5   0 1871.51  142.39
   5   5   0 1778.02  142.49
   5   5   0 1939.21  142.79
  -5   5   0 1684.83  141.89
  -5  -5   0 1982.30  142.19
   5  -5   0 1490.65  147.19
  -5  -5   0 1814.52  163.08
  -5   5  -1 2038.20  151.78
  -5   5  -1 1809.22  151.08
   5   5   1 2119.09  151.78
   5   5   1 1840.52  151.38
  -5   5  -1 1704.43  156.68
  -5  -5  -1 2134.49  174.68
  -5  -5  -1 1684.63  151.28
   5   5   2  469.55   33.60
  -5   5  -2  392.56   33.20
  -5   5  -2  400.76   33.70
  -5  -5  -2  436.56   51.79
  -5  -5  -2  351.86   33.40
  -5   5  -3  760.62   60.79
  -5   5  -3  750.62   60.29
  -5  -5  -3  783.12   82.99
  -5  -5  -3  702.53   60.59
  -5   5  -4   69.49    6.70
  -5   5  -4   64.59    7.00
  -5   5  -4   69.39    6.20
  -5  -5  -4   76.19   21.90
  -5  -5  -4   59.99    6.90
  -5   5  -5  333.47   24.90
  -5   5  -5  272.47   25.70
  -5  -5  -5  289.37   25.80
  -5  -5  -5  300.57   59.09
  -5   5  -6    0.50    1.00
  -5   5  -6    0.70    1.50
  -5   5  -7  827.22   73.09
  -5   5  -7 1025.90   72.49
   5   5   7  825.12   72.19
  -5  -5  -7  910.51   73.29
   5   6  -8   96.39   10.10
   5   6  -8  108.79   11.10
   5  -6  -8  127.69   11.60
   5   6  -7  324.27   29.70
   5   6  -7  356.06   29.80
   5   6  -7  389.56   30.60
   5   6  -6  663.73   59.39
   5   6  -6  760.72   58.69
   5   6  -6  755.12   77.19
   5   6  -5   10.90    2.00
   5   6  -5    7.90    2.00
   5   6  -5    7.70    2.40
   5   6  -5    0.40    6.70
   5   6  -5    6.70    2.80
   5  -6  -5    0.20   10.70
   5   6  -4  167.88   24.60
   5   6  -4  117.29   12.00
   5   6  -4  149.88   12.10
   5   6  -4  138.19   12.70
   5   6  -4  135.39   12.40
   5  -6  -4  141.39   31.10
   5   6  -3   27.40    3.50
   5   6  -3   33.00    4.10
   5   6  -3   21.80    8.90
   5   6  -3   28.90    3.70
   5  -6  -3   46.40   14.20
  -5   6   2  270.07   21.50
   5   6  -2  224.48   21.90
   5   6  -2  287.27   22.60
   5   6  -2  226.98   22.20
   5   6  -2  297.57   34.60
  -5  -6   2  302.17   42.80
  -5  -6   2  276.07   21.80
   5  -6  -2  260.67   33.00
   5   6  -1  206.08   17.40
  -5   6   1  229.58   16.90
   5   6  -1  169.78   16.90
   5   6  -1  184.58   17.30
  -5   6   1  188.58   16.60
  -5  -6   1  239.48   36.80
  -5  -6   1  217.58   16.80
   5  -6  -1  170.88   25.40
   5   6   0  985.00   74.99
  -5   6   0  843.72   73.99
   5   6   0  832.12   74.39
  -5   6   0 1040.60   74.49
   5  -6   0  837.32   82.89
  -5  -6   0  971.10   74.39
  -5  -6   0  946.91   97.29
   5   6   1  530.65   40.10
  -5   6  -1  506.95   39.80
  -5   6  -1  439.26   39.30
   5   6   1  456.65   39.60
  -5  -6  -1  505.45   61.59
  -5   6  -2  183.28   16.30
  -5   6  -2  210.98   16.90
   5   6   2  185.88   16.50
   5   6   2  224.58   16.90
  -5  -6  -2  183.38   36.00
  -5  -6  -2  161.08   16.90
  -5   6  -3   14.00    2.30
  -5   6  -3   20.80    3.00
  -5  -6  -3   12.00    2.70
  -5  -6  -3   11.60   15.10
  -5   6  -4 2170.08  174.18
  -5   6  -4 2151.38  174.58
   5   6   4 2140.19  173.98
  -5  -6  -4 2246.08  174.68
  -5  -6  -4 2179.58  204.08
   5   6   5   85.89    8.20
  -5   6  -5   89.19    9.00
  -5  -6  -5   85.99    8.80
   5   6   6  242.48   21.20
  -5   6  -6  246.98   22.20
  -5  -6  -6  272.27   22.20
  -5   6  -7  109.29   11.20
   5   6   7  108.29   10.30
  -5  -6  -7  121.59   11.10
  -5  -6  -7  134.29   11.10
   5   7  -7  158.18   14.70
   5   7  -7  170.88   15.00
   5   7  -6   88.39    8.70
   5   7  -6   85.99    8.90
   5   7  -6  100.29    9.40
   5   7  -5  111.49   36.00
   5   7  -5   69.29    7.40
   5   7  -5   62.99    7.00
   5   7  -5   69.09    6.80
   5   7  -4   40.20    5.00
   5   7  -4   40.30    4.70
   5   7  -4   49.40    5.50
   5   7  -3   -1.60    5.90
   5   7  -3    1.20    1.40
   5   7  -3    2.90    1.50
   5   7  -3    2.40    1.10
   5  -7  -3   14.00   13.70
  -5  -7   3    0.20   12.40
   5   7  -2  611.84   53.39
  -5   7   2  626.64   52.49
   5   7  -2  568.34   53.09
   5   7  -2  696.83   53.69
  -5  -7   2  754.82   52.99
   5  -7  -2  640.54   68.49
  -5  -7   2  668.73   77.99
   5   7  -1  155.28   15.70
   5   7  -1  192.38   16.30
  -5   7   1  174.98   15.30
   5   7  -1  182.58   16.20
  -5   7   1  201.68   15.50
  -5  -7   1  180.08   15.60
  -5  -7   1  193.78   34.60
   5  -7  -1  189.28   33.30
   5   7   0  119.69   10.20
  -5   7   0  124.59    9.60
  -5   7   0   96.99    9.30
   5   7   0   98.69    9.70
  -5  -7   0  110.69   29.80
  -5  -7   0   90.69    9.50
   5   7   1  265.27   23.40
  -5   7  -1  255.17   23.10
  -5   7  -1  303.67   23.40
   5   7   1  316.97   24.00
  -5  -7  -1  284.37   45.80
  -5  -7  -1  253.77   23.40
  -5   7  -2  195.58   16.20
  -5   7  -2  184.48   15.90
   5   7   2  190.68   16.10
  -5  -7  -2  169.08   16.20
  -5  -7  -2  200.18   38.40
  -5   7  -3 1029.00   80.69
  -5   7  -3  973.80   80.49
   5   7   3  975.30   80.39
  -5  -7  -3 1010.10   80.89
  -5   7  -4   40.10    4.90
  -5   7  -4   41.20    4.70
   5   7   4   38.50    4.50
  -5  -7  -4   52.19    5.90
  -5   7  -5  728.33   62.09
   5   7   5  775.62   61.49
  -5  -7  -5  776.02   62.09
   5   7   6  272.37   22.40
  -5   7  -6  265.77   23.20
   5   8  -5   11.60    2.60
   5   8  -5   14.10    2.60
   5   8  -5   11.70    2.30
  -5  -8   5   19.10    4.10
   5   8  -4  232.88   21.40
   5   8  -4  275.27   21.80
   5   8  -4  228.48   21.10
  -5  -8   4  253.27   20.80
   5   8  -3   38.20    5.00
   5   8  -3   43.20    4.90
   5   8  -3   45.90    5.20
  -5  -8   3   42.00    4.60
   5   8  -2   22.80    3.40
   5   8  -2   28.40    3.80
  -5   8   2   17.90    2.60
   5   8  -2   19.40    3.20
  -5  -8   2   20.00    3.00
   5   8  -1    7.20    2.10
   5   8  -1    5.10    1.70
   5   8  -1    5.00    1.90
  -5   8   1    3.60    1.10
   5   8   0  108.09    9.40
   5   8   0   90.29    9.00
  -5   8   0   90.09    8.60
   5   8   1   31.30    3.70
  -5   8  -1   26.00    3.20
   5   8   1   31.60    3.90
  -5   8  -1   24.60    3.20
   5   8   2 1606.84  130.69
  -5   8  -2 1516.05  130.49
  -5   8  -2 1767.12  130.59
  -5   8  -3   18.50    2.80
   5   8   3   19.60    2.80
  -5   8  -3   21.40    2.90
  -5   8  -4  139.89   12.50
  -5   8  -4  139.09   12.50
   5   8   4  141.09   12.30
   5   8   5    1.40    1.00
  -5   8  -5    1.60    1.20
   5   9  -4   99.69    9.90
   5   9  -4  111.19   10.40
   5   9  -3    5.00    1.90
   5   9  -3    6.70    2.10
   5   9  -3    6.90    1.70
   5   9  -2  184.68   15.30
   5   9  -2  157.78   15.10
   5   9  -1  318.77   24.30
   5   9  -1  259.77   23.90
  -5   9   1  274.77   23.50
   5   9   0   45.60    5.20
   5   9   0   55.89    5.50
  -5   9   0   46.60    4.80
   5   9   1   87.69    8.10
  -5   9  -1   80.29    7.70
  -5   9  -2   90.39    8.70
   5   9   2   99.49    8.80
   5   9   3  433.36   34.40
  -5   9  -3  428.96   34.20
  -5   9  -3  375.66   33.90
   6   0  -9    1.80    1.90
   6   0  -9    0.50    0.90
   6   0  -8  743.93   78.69
   6   0  -8  650.83   56.19
   6   0  -8  722.63   57.79
   6   0  -7   10.20    9.10
   6   0  -7   10.40    1.70
   6   0  -6 4100.29  352.86
   6   0  -6 4362.36  337.17
   6   0  -5   -1.70    2.40
   6   0  -5    1.70    0.60
   6   0  -5    4.30    1.30
   6   0  -4   16.70    1.80
   6   0  -4   13.20    5.60
   6   0  -4   16.20    2.20
  -6   0   4   12.10    9.40
   6   0  -4    4.10    7.20
  -6   0   3   -1.20    6.60
   6   0  -3    1.10    1.90
   6   0  -3    7.80    6.30
   6   0  -3    0.20    0.60
  -6   0   2  538.65   58.39
   6   0  -2  509.95   44.10
   6   0  -2  598.04   49.70
  -6   0   1    4.10    5.60
   6   0  -1    2.70    2.00
  -6   0   0  245.38   19.70
  -6   0   0  231.18   31.90
  -6   0  -1   14.50    7.50
  -6   0  -1    1.30    1.60
   6   0   1   -4.20    6.50
  -6   0  -1    1.20    0.80
  -6   0  -1    0.80    0.50
  -6   0  -2  310.57   27.90
  -6   0  -2  333.37   28.10
  -6   0  -2  375.36   33.20
   6   0   2  383.86   45.50
  -6   0  -2  335.07   44.80
   6   0   3   16.50   12.50
  -6   0  -3    4.10    3.10
  -6   0  -3    4.10    1.30
  -6   0  -3   -4.80    9.10
  -6   0  -4 2091.59  157.38
  -6   0  -4 1892.31  154.78
  -6   0  -4 1825.52  155.18
  -6   0  -5    2.10    1.20
  -6   0  -5    1.50    1.30
  -6   0  -5    0.30    1.00
  -6   0  -6  330.77   30.80
  -6   0  -6  367.56   31.90
  -6   0  -6  416.66   31.50
  -6   0  -7    0.70    1.30
  -6   0  -7    2.30    1.80
  -6   0  -7    3.40    1.80
  -6   0  -8  788.82   69.49
  -6   0  -8  943.01   71.19
   6   1  -9  834.42   66.29
   6  -1  -9  807.62   65.99
   6   1  -8  218.18   19.30
   6   1  -8  205.98   34.70
   6   1  -8  193.58   17.70
   6  -1  -8  188.48   17.50
   6  -1  -8  241.98   19.30
   6  -1  -8  237.78   33.40
   6   1  -7  703.43   56.69
   6   1  -7  677.43   57.79
   6   1  -7  652.63   74.39
   6  -1  -7  770.02   57.89
   6  -1  -7  711.33   73.69
   6  -1  -7  676.83   56.49
   6   1  -6  119.29   20.50
   6   1  -6   92.19    8.20
   6   1  -6   95.29    9.10
   6  -1  -6   89.09   17.10
   6  -1  -6   85.69    7.90
   6  -1  -6   91.79    9.20
   6   1  -5 1571.64  139.59
   6   1  -5 1760.52  153.28
   6   1  -5 1884.31  139.09
   6  -1  -5 1722.83  159.68
   6  -1  -5 1746.73  138.79
   6  -1  -5 1764.82  139.59
   6   1  -4   27.60   10.00
  -6   1   4   37.20   13.60
   6   1  -4   29.40    8.80
   6   1  -4   31.40    3.70
   6  -1  -4   31.70    8.90
   6  -1  -4   34.60    3.60
   6  -1  -4   27.60   15.90
   6  -1  -4   35.60    3.10
  -6  -1   4   29.10   12.40
   6   1  -3 1384.86  113.19
  -6   1   3 1186.78  112.29
   6   1  -3 1034.60   95.69
   6   1  -3 1273.07  104.59
   6  -1  -3 1268.07  112.39
  -6  -1   3 1045.00  110.79
   6  -1  -3 1157.68   95.59
   6  -1  -3 1280.27  102.49
   6   1  -2 2021.10  185.38
   6   1  -2 2596.44  185.48
   6   1  -2 2613.44  206.28
   6   1  -2 2566.34  192.78
  -6   1   2 2176.58  201.78
   6  -1  -2 2309.07  189.88
   6  -1  -2 2079.99  185.18
   6   1  -1   24.50    2.40
   6   1  -1   41.90   16.00
  -6   1   1   16.70    8.90
  -6   1   1   19.90    2.10
   6   1  -1   26.60    5.60
   6   1  -1   21.70    2.40
   6  -1  -1   24.60   10.20
  -6  -1   1   17.50    9.20
   6  -1  -1   19.60    4.30
   6   1   0 1610.64  130.89
  -6   1   0 1825.62  127.79
  -6   1   0 1445.76  132.29
  -6   1   0 1541.65  142.09
  -6  -1   0 1541.05  144.69
   6   1   1   49.20   15.40
  -6   1  -1   65.69    5.90
  -6   1  -1   65.49    5.90
  -6   1  -1   72.89   16.10
  -6   1  -1   56.79    7.20
   6  -1   1   85.09   18.80
  -6  -1  -1   51.89   17.40
  -6  -1  -1   67.49    5.80
  -6  -1  -1   55.99    9.80
  -6   1  -2  294.37   40.40
  -6   1  -2  310.77   26.50
   6   1   2  360.56   43.80
  -6  -1  -2  335.37   26.50
  -6  -1  -2  304.47   43.00
  -6  -1  -2  349.37   33.90
  -6  -1  -2  305.57   26.30
  -6   1  -3   79.19    7.40
  -6   1  -3   63.29    6.90
  -6   1  -3   79.09    7.40
   6   1   3   95.29   21.90
  -6  -1  -3   77.99    7.10
  -6  -1  -3   89.29   15.10
  -6  -1  -3   81.09   21.30
  -6   1  -4   97.69    8.60
  -6   1  -4   85.69    8.10
  -6   1  -4   79.09    8.50
  -6  -1  -4  120.69   17.60
  -6  -1  -4   91.49    8.20
  -6  -1  -4   83.09    8.70
  -6   1  -5  631.24   54.79
  -6   1  -5  637.04   52.89
  -6   1  -5  627.84   52.59
  -6  -1  -5  617.94   53.29
  -6  -1  -5  740.93   59.09
  -6  -1  -5  691.43   63.09
  -6  -1  -5  608.64   52.39
  -6   1  -6  517.35   43.20
  -6   1  -6  598.44   42.70
  -6   1  -6  476.25   42.40
  -6  -1  -6  530.15   43.30
  -6  -1  -6  448.76   41.80
  -6   1  -7 1346.17  124.29
  -6   1  -7 1501.25  125.49
  -6   1  -7 1866.11  125.19
  -6  -1  -7 1484.65  125.39
  -6   1  -8  157.28   13.70
  -6   1  -8  119.69   12.30
  -6  -1  -8  147.39   13.60
   6   2  -9   69.99    8.30
   6  -2  -9   76.09    8.30
   6   2  -8 1246.88  120.39
   6   2  -8 1038.20   96.09
   6   2  -8 1295.17   97.89
   6  -2  -8 1268.67  117.59
   6   2  -7   47.80   16.30
   6   2  -7   35.30    4.80
   6   2  -7   35.80    3.90
   6  -2  -7   35.80    4.50
   6  -2  -7   30.50    3.40
   6  -2  -7   45.30   17.00
   6   2  -6  382.66   33.20
   6   2  -6  386.26   34.20
   6   2  -6  425.36   49.30
   6   2  -6  388.66   33.60
   6  -2  -6  441.36   46.70
   6  -2  -6  447.26   34.10
   6   2  -5 1258.27   96.29
   6   2  -5 1258.67  111.49
   6   2  -5 1223.48   96.09
   6   2  -5 1183.68   96.79
   6  -2  -5 1075.89   95.49
   6  -2  -5 1223.48  107.49
   6   2  -4 2413.66  194.78
  -6   2   4 2190.08  199.28
   6   2  -4 2365.76  181.98
   6   2  -4 2152.98  182.38
   6   2  -4 2101.49  195.88
  -6   2   4 2111.49  201.48
   6   2  -4 2570.04  181.58
   6  -2  -4 2266.57  196.88
   6  -2  -4 2311.37  191.18
   6   2  -3    2.50    0.60
   6   2  -3    0.80    0.70
  -6   2   3   -3.00    6.70
   6   2  -3   -0.40    6.50
   6  -2  -3    4.30    3.60
  -6  -2   3    4.10    7.90
   6  -2  -3    3.00    1.80
   6  -2  -3    7.10    6.40
   6   2  -2    4.30    1.10
   6   2  -2    4.10    3.10
  -6   2   2    7.50    5.70
   6   2  -2    3.30    1.10
   6   2  -2   11.50    7.80
   6  -2  -2    6.20    2.80
  -6  -2   2   -3.80    6.10
   6  -2  -2   -3.20    6.40
   6   2  -1  290.17   25.30
  -6   2   1  282.37   37.70
   6   2  -1  328.17   31.10
   6   2  -1  325.17   25.20
   6  -2  -1  333.47   39.70
  -6  -2   1  304.87   40.60
   6  -2  -1  294.57   27.30
   6   2   0    3.60    0.90
  -6   2   0    1.80    4.50
   6   2   0    7.40    3.10
   6   2   0    6.10    7.20
   6   2   0    6.20    1.30
   6  -2   0   10.10    8.80
  -6  -2   0    3.60    0.90
  -6  -2   0    7.00    8.20
   6   2   1  101.39   20.80
  -6   2  -1  103.59    9.70
  -6   2  -1  126.19   21.30
   6   2   1  118.69    9.60
  -6  -2  -1   98.69   23.60
  -6  -2  -1  142.19   18.30
  -6   2  -2  359.26   29.10
  -6   2  -2  333.67   28.70
  -6   2  -2  350.06   29.50
   6   2   2  336.27   45.10
  -6  -2  -2  363.56   49.60
  -6  -2  -2  391.26   29.30
  -6  -2  -2  344.47   28.90
  -6  -2  -2  366.86   38.40
  -6   2  -3 2019.50  160.78
  -6   2  -3 2181.28  161.18
  -6   2  -3 1811.52  160.18
   6   2   3 2211.18  185.48
  -6  -2  -3 2089.09  173.98
  -6  -2  -3 1764.12  160.78
  -6  -2  -3 2191.48  160.48
  -6  -2  -3 1848.72  186.58
  -6   2  -4   31.10    3.50
  -6   2  -4   33.20    4.00
  -6   2  -4   33.70    4.20
  -6  -2  -4   37.90    3.70
  -6  -2  -4   28.30    4.10
  -6  -2  -4   49.00   13.80
  -6   2  -5    9.00    2.30
  -6   2  -5   10.90    2.50
  -6  -2  -5   11.30    2.60
  -6  -2  -5   -1.30   11.10
  -6   2  -6 1656.13  116.79
  -6   2  -6 1394.26  117.29
  -6   2  -6 1408.76  116.99
  -6  -2  -6 1341.47  117.39
  -6   2  -7  126.59   10.90
  -6   2  -7   93.69   11.30
  -6   2  -7   89.39   10.80
  -6  -2  -7  136.39   11.90
  -6  -2  -7  118.09   12.60
  -6   2  -8  678.63   48.30
  -6  -2  -8  493.05   48.40
   6   3  -9    7.50    2.60
   6   3  -9    5.80    1.60
   6  -3  -9    2.20    1.80
   6   3  -8  123.39   11.90
   6   3  -8  137.59   13.20
   6  -3  -8   86.99   23.90
   6  -3  -8  157.98   13.10
   6   3  -7 2090.59  180.38
   6   3  -7 1758.92  158.38
   6   3  -7 2010.50  159.58
   6   3  -7 1746.73  158.18
   6  -3  -7 2208.58  159.28
   6  -3  -7 2148.89  177.18
   6   3  -6  144.39   12.90
   6   3  -6  165.88   26.30
   6   3  -6  157.18   13.90
   6   3  -6  138.79   13.30
   6  -3  -6  148.69   23.00
   6   3  -5  629.74   62.09
   6   3  -5  598.24   47.90
   6   3  -5  541.55   46.60
   6   3  -5  553.94   46.50
   6  -3  -5  572.34   57.49
   6  -3  -5  575.34   63.99
   6   3  -4  906.01   80.19
   6   3  -4  789.92   66.99
   6   3  -4  816.32   67.49
   6   3  -4  858.31   67.09
   6   3  -4  836.12   66.69
   6  -3  -4  809.12   81.79
   6   3  -3  189.78   24.60
   6   3  -3  193.08   16.90
  -6   3   3  148.39   27.80
   6   3  -3  226.88   16.50
   6   3  -3  208.18   29.20
   6   3  -3  202.78   16.80
  -6  -3   3  147.49   30.80
   6  -3  -3  211.78   26.80
   6   3  -2  364.96   32.20
   6   3  -2  396.76   32.50
   6   3  -2  430.66   32.70
  -6   3   2  356.66   45.90
   6   3  -2  424.56   40.90
   6   3  -2  452.75   51.39
   6  -3  -2  377.26   40.60
   6  -3  -2  394.26   46.40
  -6  -3   2  386.66   49.50
   6   3  -1 1979.40  164.78
  -6   3   1 2158.88  164.38
  -6   3   1 1938.51  180.18
   6   3  -1 2249.18  164.68
   6  -3  -1 1917.21  180.28
   6  -3  -1 2091.99  171.98
  -6   3   0  673.23   53.09
   6   3   0  734.03   60.79
  -6   3   0  568.64   65.49
   6   3   0  712.83   72.59
   6   3   0  731.53   53.39
  -6   3   0  574.84   59.29
   6   3   0  660.73   53.09
   6  -3   0  568.94   70.19
   6   3   1   86.39    7.90
  -6   3  -1   85.99    8.10
   6   3   1  100.69   21.70
  -6  -3  -1   94.29   16.70
  -6  -3  -1   76.89   22.80
  -6  -3  -1  100.29    8.10
   6   3   2  548.45   41.00
  -6   3  -2  526.25   41.30
  -6   3  -2  515.25   41.00
   6   3   2  513.25   60.29
  -6   3  -2  487.35   41.80
  -6  -3  -2  451.25   62.59
  -6  -3  -2  503.25   41.30
  -6  -3  -2  459.05   52.49
   6   3   3  674.73   80.39
  -6   3  -3  715.93   54.89
  -6   3  -3  715.63   53.79
  -6   3  -3  681.43   53.99
  -6  -3  -3  652.23   68.39
  -6  -3  -3  565.44   54.19
  -6   3  -4  556.64   45.40
  -6   3  -4  545.95   48.20
  -6   3  -4  580.44   45.10
  -6  -3  -4  527.05   60.09
  -6   3  -5 1095.49   90.19
  -6   3  -5 1076.59   89.69
  -6   3  -5 1176.38   89.39
  -6  -3  -5 1094.89   90.29
  -6   3  -6  135.79   12.70
  -6   3  -6  148.99   12.30
  -6   3  -6  129.89   12.80
  -6  -3  -6  180.58   24.10
  -6  -3  -6  119.59   12.90
  -6   3  -7   75.79    8.20
  -6  -3  -7   81.89    8.60
  -6   3  -8   26.30    3.80
  -6  -3  -8   28.00    4.50
   6   4  -9   21.80    3.80
   6   4  -9   12.90    2.90
   6  -4  -9   21.80    3.60
   6   4  -8  233.68   21.80
   6  -4  -8  256.07   21.60
   6   4  -7  213.88   19.70
   6   4  -7  217.08   20.20
   6   4  -7  260.87   21.10
   6   4  -7  270.67   38.00
   6  -4  -7  231.68   32.10
   6   4  -6  319.57   44.00
   6   4  -6  262.57   24.00
   6   4  -6  310.67   24.90
   6   4  -6  278.17   23.90
   6  -4  -6  266.87   40.30
   6  -4  -6  283.57   38.90
   6   4  -5   88.19   20.70
   6   4  -5   69.19    7.30
   6   4  -5   66.99    6.70
   6   4  -5   72.69    6.40
   6   4  -5   63.89    7.00
   6  -4  -5   89.19   22.80
   6   4  -4  807.82   64.49
   6   4  -4  821.62   77.49
   6   4  -4  769.32   63.69
   6   4  -4  827.62   64.19
   6   4  -4  744.73   63.79
   6  -4  -4  799.72   79.89
   6   4  -3 2744.83  215.38
   6   4  -3 2688.63  215.58
   6   4  -3 2517.55  214.98
   6   4  -3 2893.01  227.98
   6  -4  -3 2682.13  228.98
   6   4  -2  327.77   28.30
   6   4  -2  353.86   28.70
   6   4  -2  350.36   28.60
  -6   4   2  341.47   28.00
   6   4  -2  387.46   38.20
   6   4  -2  351.86   46.10
   6  -4  -2  313.37   36.80
   6   4  -1   82.09    8.40
  -6   4   1   96.39    8.20
  -6   4   1   93.59    8.60
   6   4  -1  102.89   15.50
   6   4  -1   94.89    8.60
   6   4  -1   93.99    8.80
   6  -4  -1   84.39   14.20
  -6  -4   1  101.59    8.30
   6   4   0  839.42   60.79
  -6   4   0  619.54   60.49
  -6   4   0  719.63   60.09
   6   4   0  713.53   60.29
  -6  -4   0  796.92   60.09
  -6  -4   0  841.52   77.19
  -6   4  -1  661.83   55.09
  -6   4  -1  597.04   55.49
   6   4   1  709.03   55.19
  -6  -4  -1  709.33   71.19
  -6  -4  -1  744.63   55.19
   6   4   2 1081.39   78.59
  -6   4  -2  954.10   79.29
  -6   4  -2  976.40   78.69
  -6  -4  -2  892.01   93.69
  -6  -4  -2  950.60   78.79
  -6   4  -3   29.20    3.60
  -6   4  -3   27.10    4.00
  -6   4  -3   32.30    3.40
  -6  -4  -3   22.30   10.90
  -6  -4  -3   29.70    3.80
  -6   4  -4  461.25   33.80
  -6   4  -4  407.06   35.00
  -6  -4  -4  361.86   34.50
  -6  -4  -4  436.66   51.59
  -6   4  -5 1620.24  139.29
  -6   4  -5 1913.51  138.29
  -6  -4  -5 1649.04  139.29
  -6   4  -6  306.97   22.50
  -6   4  -6  232.68   23.20
  -6  -4  -6  260.07   23.60
  -6   4  -7    2.90    1.60
  -6   4  -7    4.10    1.40
  -6  -4  -7    5.10    1.80
  -6  -4  -7    1.90    2.10
   6   5  -8  167.68   16.20
   6  -5  -8  185.78   16.00
   6   5  -7  -12.50    8.60
   6   5  -7    4.30    1.90
   6  -5  -7    7.20    8.40
   6   5  -6  208.18   31.10
   6   5  -6  186.28   16.70
   6   5  -6  166.78   16.80
   6   5  -6  215.38   17.60
   6  -5  -6  206.38   28.20
   6   5  -5  361.86   28.90
   6   5  -5  407.66   56.39
   6   5  -5  351.06   27.90
   6   5  -5  322.47   28.20
   6   5  -5  315.67   28.10
   6  -5  -5  303.17   45.20
   6   5  -4  656.43   63.69
   6   5  -4  586.04   49.10
  -6   5   4  619.34   48.60
   6   5  -4  606.14   49.50
   6  -5  -4  531.15   63.49
   6   5  -3 1195.68  103.69
   6   5  -3 1293.07  104.29
  -6   5   3 1418.86  103.69
   6   5  -3 1362.86  117.49
   6   5  -3 1282.67  104.19
   6  -5  -3 1208.38  117.39
   6   5  -2   73.99   14.30
  -6   5   2   78.59    6.90
   6   5  -2   73.69    7.50
   6   5  -2   71.79    7.20
   6   5  -2   84.49    7.60
   6  -5  -2   77.49   16.20
  -6   5   1  166.08   12.80
  -6   5   1  164.38   13.20
   6   5  -1  149.29   13.20
   6   5  -1  131.19   13.00
   6   5  -1  137.09   20.90
   6   5  -1  133.49   13.20
  -6  -5   1  174.78   27.70
  -6  -5   1  154.98   12.80
   6  -5  -1  133.09   22.10
  -6   5   0  513.35   42.50
   6   5   0  554.54   42.60
  -6   5   0  470.25   41.80
   6   5   0  494.75   42.20
   6   5   0  463.45   42.20
  -6  -5   0  578.44   42.10
  -6  -5   0  585.14   62.19
  -6   5  -1 2782.52  227.38
   6   5   1 2974.20  226.98
  -6   5  -1 2616.24  226.58
   6   5   1 2735.13  226.98
  -6  -5  -1 3119.99  226.98
  -6  -5  -1 2841.42  247.78
  -6   5  -2  407.06   35.70
   6   5   2  455.25   33.00
  -6   5  -2  376.46   33.10
  -6  -5  -2  372.16   33.10
  -6  -5  -2  358.66   62.19
  -6   5  -3  367.26   29.80
  -6   5  -3  350.46   30.50
  -6  -5  -3  349.27   30.10
  -6  -5  -3  379.46   48.30
  -6   5  -4  358.36   31.00
  -6  -5  -4  350.36   30.70
  -6  -5  -4  414.66   51.79
  -6   5  -5  182.38   17.80
  -6   5  -5  219.48   16.70
  -6  -5  -5  280.77   48.10
  -6  -5  -5  176.28   17.60
   6   5   6    9.80    2.10
  -6   5  -6   10.60    2.80
  -6   5  -6   13.90    2.10
  -6  -5  -6   13.20    3.10
  -6   5  -7  485.45   33.40
   6   5   7  371.76   33.10
  -6   5  -7  352.36   33.90
  -6  -5  -7  405.46   34.20
   6   6  -7   39.90    4.90
   6   6  -7   47.00    5.50
   6   6  -6  442.36   33.40
   6   6  -6  363.76   33.60
   6   6  -6  428.96   34.30
   6   6  -6  428.06   52.19
   6  -6  -6  341.97   45.10
   6   6  -5  564.34   49.30
   6   6  -5  565.74   48.90
   6   6  -5  697.93   50.09
   6   6  -5  560.64   63.79
   6   6  -4   22.90    3.50
   6   6  -4   20.60    3.20
   6   6  -4   25.90    3.00
   6   6  -4   13.70    7.30
   6  -6  -4   -2.80   12.20
   6   6  -3    9.10    2.20
   6   6  -3    9.00    6.90
   6   6  -3   12.50    2.30
  -6   6   3   12.60    1.90
   6   6  -3    7.00    2.20
  -6  -6   3   32.50   15.10
   6  -6  -3   29.00   10.80
   6   6  -2 1942.71  145.69
  -6   6   2 1746.63  144.79
   6   6  -2 1902.11  159.58
   6   6  -2 1581.34  145.29
   6   6  -2 1577.04  145.49
  -6  -6   2 2033.30  173.38
   6  -6  -2 1773.42  158.58
  -6  -6   2 2049.89  145.19
   6   6  -1  256.17   21.70
  -6   6   1  286.47   21.60
   6   6  -1  222.28   21.50
   6   6  -1  259.67   22.00
  -6   6   1  233.38   21.00
   6  -6  -1  203.48   29.00
  -6  -6   1  276.17   41.20
  -6  -6   1  291.57   21.40
   6   6   0 1487.15  133.59
   6   6   0 1689.63  133.79
  -6  -6   0 1630.74  157.58
  -6  -6   0 1846.52  133.49
   6   6   1    7.20    1.80
  -6   6  -1    4.80    1.20
   6   6   1    1.10    1.00
  -6  -6  -1   22.10   11.70
  -6  -6  -1    3.50    1.30
   6   6   2  272.57   23.40
  -6   6  -2  263.67   23.10
  -6   6  -2  305.27   24.00
  -6  -6  -2  299.17   45.10
  -6  -6  -2  262.27   23.50
  -6   6  -3  641.84   51.89
   6   6   3  637.54   51.19
  -6   6  -3  597.94   51.09
  -6  -6  -3  618.24   51.59
  -6  -6  -3  661.73   79.49
  -6   6  -4 1179.48   95.79
   6   6   4 1169.08   94.99
  -6  -6  -4 1190.98   95.69
   6   6   5    4.10    1.40
  -6   6  -5    7.00    2.20
  -6  -6  -5   11.20    2.70
   6   6   6   15.20    2.60
  -6   6  -6   18.70    3.40
  -6  -6  -6   23.90    3.60
   6   7  -6   41.00    4.50
   6   7  -6   34.60    4.60
   6   7  -6   30.60    4.20
   6   7  -5  116.39   10.80
   6   7  -5  106.79   11.10
   6   7  -5  132.49   11.60
   6   7  -5  141.29   24.90
   6   7  -4    5.20    1.60
   6   7  -4    7.90    2.10
   6   7  -4    2.60    8.00
   6   7  -4    4.90    1.80
  -6  -7   4    1.90    1.10
   6   7  -3  225.08   32.20
   6   7  -3  250.77   19.80
   6   7  -3  206.68   19.30
   6   7  -3  190.38   19.40
  -6  -7   3  255.27   19.00
   6  -7  -3  158.38   36.60
  -6  -7   3  323.77   79.39
   6   7  -2  466.65   42.20
  -6   7   2  464.75   41.40
   6   7  -2  590.54   42.60
   6   7  -2  516.45   42.50
  -6  -7   2  549.74   69.19
   6   7  -1 1347.57  108.09
   6   7  -1 1456.95  108.39
  -6   7   1 1387.96  107.49
   6   7  -1 1153.18  107.89
  -6  -7   1 1205.38  139.99
  -6  -7   1 1429.56  107.69
  -6   7   0  405.56   31.50
   6   7   0  359.66   31.70
   6   7   0  402.26   31.80
  -6   7   0  316.07   31.00
  -6  -7   0  478.25   72.09
  -6  -7   0  402.66   31.50
  -6   7  -1 1251.07   93.69
  -6   7  -1 1069.79   93.19
   6   7   1 1143.99   93.69
   6   7   1 1315.17   93.89
  -6  -7  -1 1198.88  122.79
  -6  -7  -1 1011.30   93.49
   6   7   2  119.39    9.60
  -6   7  -2   89.19    9.00
  -6   7  -2  112.39    9.70
  -6  -7  -2   80.89    9.20
  -6   7  -3  944.61   80.59
  -6   7  -3 1038.50   80.89
   6   7   3 1042.80   80.79
  -6  -7  -3  954.50   80.79
   6   7   4   17.30    2.60
  -6  -7  -4   17.10    3.20
  -6   7  -5   51.99    6.30
   6   7   5   54.39    5.70
  -6  -7  -5   65.69    6.50
   6   8  -5   21.70    3.30
   6   8  -5   19.50    3.30
   6   8  -5   18.00    3.10
  -6  -8   5   21.80    2.90
   6   8  -4  910.81   68.79
   6   8  -4  750.32   68.39
   6   8  -4  820.82   68.59
  -6  -8   4  887.31   67.99
   6   8  -3    2.80    1.60
   6   8  -3    1.30    1.50
   6   8  -3    5.50    1.90
  -6  -8   3    5.80    1.60
   6   8  -2  285.97   22.50
  -6   8   2  238.78   21.70
   6   8  -2  228.18   22.30
   6   8  -2  281.07   22.60
  -6  -8   2  268.97   21.90
  -6   8   1    1.50    1.10
   6   8  -1    0.50    1.10
   6   8  -1    2.60    1.50
  -6  -8   1    1.50    2.20
  -6   8   0  681.33   63.69
   6   8   0  825.72   64.29
   6   8   0  918.71   64.39
  -6  -8   0  731.83   64.99
   6   8   1    7.80    2.00
   6   8   1    7.60    2.00
  -6   8  -1    7.70    1.70
  -6   8  -1    8.60    1.90
  -6  -8  -1    7.00    2.20
  -6   8  -2 1209.18  105.09
   6   8   2 1332.67  105.29
  -6   8  -2 1385.26  105.19
   6   8   3   24.00    3.30
  -6   8  -3   26.50    3.40
  -6   8  -3   27.30    3.40
  -6   8  -4    6.10    1.60
   6   8   4    3.50    1.30
   6   9  -3  129.39   12.30
   6   9  -3  142.69   12.40
   6   9  -2  200.08   16.30
   6   9  -2  169.88   16.30
   6   9  -1 1174.98   84.09
   6   9  -1 1010.10   84.09
  -6   9   1  933.61   83.79
  -6   9   0  116.89   10.80
   6   9   0  118.39   11.30
   6   9   0  136.99   11.30
   6   9   1  334.17   27.30
  -6   9  -1  319.47   27.00
  -6   9  -2   26.10    3.60
   6   9   2   35.00    3.90
   7   0  -9    0.30    1.70
   7   0  -9    0.10    0.90
   7   0  -8  455.35   53.09
   7   0  -8  456.25   36.10
   7   0  -8  382.46   34.50
   7   0  -7    6.60    8.40
   7   0  -6  415.16   46.10
   7   0  -6  387.26   31.80
   7   0  -6  382.96   32.70
   7   0  -5   10.60    7.30
   7   0  -5   12.30    2.10
  -7   0   4 1265.17  130.09
   7   0  -4 1379.96  107.79
   7   0  -4 1312.57  108.19
   7   0  -4 1437.16  118.59
   7   0  -4 1346.67  128.39
  -7   0   3    6.80    9.60
   7   0  -3   10.70    1.40
   7   0  -3    8.50    3.80
   7   0  -2  623.24   54.99
   7   0  -2  821.82   79.39
   7   0  -2  657.63   55.09
   7   0  -2  739.83   64.59
   7   0  -1    8.60    3.20
  -7   0   1   12.20    8.60
   7   0  -1   -7.30    7.90
  -7   0   0  468.75   55.99
  -7   0   0  531.45   41.10
  -7   0  -1    1.90    7.40
   7   0   1    7.30    7.60
  -7   0  -1    0.00    1.50
  -7   0  -1    1.30    0.70
  -7   0  -2  344.37   47.40
   7   0   2  386.96   48.70
  -7   0  -2  342.87   29.00
  -7   0  -3   13.00    2.50
  -7   0  -4 5484.25  436.56
  -7   0  -5    0.70    1.10
  -7   0  -5   -0.90    0.70
  -7   0  -5    4.70    1.90
  -7   0  -6  272.77   22.40
  -7   0  -6  226.58   21.00
  -7   0  -7    0.10    1.30
  -7   0  -7    1.50    1.30
  -7   0  -7    3.00    1.90
  -7   0  -8  560.04   40.00
  -7   0  -8  403.16   40.10
   7   1  -9 1051.99   85.49
   7  -1  -9 1039.70   85.29
   7   1  -8  691.53   72.99
   7   1  -8  591.34   52.39
   7   1  -8  751.42   56.59
   7  -1  -8  729.53   72.59
   7  -1  -8  566.04   51.99
   7   1  -7  184.68   29.40
   7   1  -7  198.38   17.30
   7   1  -7  186.48   16.10
   7  -1  -7  203.28   17.10
   7  -1  -7  214.98   30.40
   7  -1  -7  171.38   15.80
   7   1  -6  118.09   20.00
   7   1  -6   79.19    8.50
   7   1  -6   93.69    8.20
   7  -1  -6   90.69    8.60
   7  -1  -6   81.49    7.50
   7  -1  -6   89.79   17.60
   7   1  -5  244.78   20.90
   7   1  -5  246.88   20.20
   7   1  -5  239.78   31.20
   7  -1  -5  230.88   19.90
   7  -1  -5  251.67   20.80
   7  -1  -5  261.87   30.90
   7   1  -4   15.30    1.80
   7   1  -4   28.00   25.50
  -7   1   4   18.60   14.90
   7   1  -4   16.20    2.20
   7   1  -4   10.50    5.00
   7  -1  -4   10.10    1.80
   7  -1  -4    5.20    4.10
   7  -1  -4   12.20   12.90
   7  -1  -4   14.80    1.60
   7   1  -3   13.70   11.50
   7   1  -3   19.70    2.10
   7   1  -3   42.60   10.20
   7   1  -3   21.30    2.70
  -7   1   3   19.30   10.80
   7  -1  -3   13.90    2.00
  -7  -1   3    4.60    8.40
   7  -1  -3   12.30   10.90
   7   1  -2  195.28   16.80
   7   1  -2  221.48   22.80
   7   1  -2  273.17   37.60
   7   1  -2  198.08   16.80
  -7   1   2  195.58   30.90
   7  -1  -2  196.28   16.80
   7  -1  -2  199.98   21.10
   7  -1  -2  186.08   32.50
  -7  -1   2  198.18   32.20
  -7   1   1   90.69    7.80
   7   1  -1   98.29    8.00
  -7   1   1   81.29   18.50
   7   1  -1   85.09    8.10
   7   1  -1  118.39   12.70
   7  -1  -1   93.69   25.40
  -7  -1   1   87.69    7.90
  -7  -1   1   82.79   18.50
   7  -1  -1   95.19   10.30
  -7   1   0 2068.79  150.98
  -7   1   0 1846.62  167.98
  -7  -1   0 1725.13  168.88
  -7   1  -1 2359.76  220.38
  -7   1  -1 2608.94  204.98
  -7   1  -1 2352.96  202.88
  -7   1  -1 2626.34  202.98
   7   1   1 2522.55  224.58
  -7   1  -1 2716.83  204.88
  -7  -1  -1 2867.31  211.08
  -7  -1  -1 2323.27  202.58
  -7   1  -2   68.19    6.50
  -7   1  -2   69.79    6.50
   7   1   2   65.19   20.20
  -7  -1  -2   63.49    6.20
  -7  -1  -2   66.69   18.50
  -7   1  -3 1641.14  137.39
  -7   1  -3 1623.14  137.49
  -7  -1  -3 1669.23  137.19
  -7  -1  -3 1925.31  137.69
  -7   1  -4   47.40    6.10
  -7   1  -4   66.89    5.70
  -7   1  -4   56.19    6.00
  -7  -1  -4   78.29   14.80
  -7  -1  -4   55.29    5.70
  -7  -1  -4   51.19    6.10
  -7   1  -5 1554.04  124.59
  -7   1  -5 1573.34  124.09
  -7  -1  -5 1501.35  123.49
  -7  -1  -5 1533.15  124.49
  -7   1  -6    9.00    2.80
  -7   1  -6   12.50    2.50
  -7   1  -6   10.90    2.50
  -7  -1  -6   12.80    2.70
  -7  -1  -6    7.00    2.40
  -7  -1  -6    6.60    1.80
  -7   1  -7  793.02   73.79
  -7   1  -7  971.70   75.09
  -7  -1  -7  979.10   75.09
  -7   1  -8  282.97   26.80
  -7   1  -8  374.56   26.30
  -7   1  -8  301.17   26.60
  -7  -1  -8  272.17   26.40
   7   2  -9    4.00    2.10
   7   2  -9    3.70    1.30
   7  -2  -9    2.10    1.60
   7   2  -8  310.97   29.90
   7   2  -8  364.26   58.39
   7   2  -8  381.46   31.30
   7  -2  -8  398.56   31.10
   7  -2  -8  379.26   52.29
   7   2  -7   26.70    3.90
   7   2  -7   33.70   13.60
   7   2  -7   18.50    2.80
   7  -2  -7   25.20    3.70
   7  -2  -7   26.50    9.20
   7   2  -6   22.30    9.90
   7   2  -5 1122.49   95.19
   7   2  -5 1174.68   95.89
   7   2  -5 1208.38  109.79
   7  -2  -5 1213.18   95.59
   7  -2  -5 1243.28  107.09
  -7   2   4  449.95   61.39
   7   2  -4  563.04   54.29
   7   2  -4  542.85   43.00
   7   2  -4  542.15   42.60
   7  -2  -4  505.15   42.70
   7  -2  -4  523.95   50.89
   7   2  -3  771.12   79.39
   7   2  -3  744.43   57.49
   7   2  -3  732.73   57.99
   7   2  -3  780.62   57.99
   7   2  -3  803.52   67.79
  -7   2   3  578.94   74.09
  -7  -2   3  728.73   77.49
   7  -2  -3  677.43   63.89
   7  -2  -3  680.13   57.69
   7  -2  -3  607.34   87.19
   7   2  -2  204.68   16.80
  -7   2   2  203.48   16.30
   7   2  -2  224.28   23.80
  -7   2   2  149.29   30.30
   7  -2  -2  204.38   33.60
  -7  -2   2  237.38   34.30
   7  -2  -2  181.88   20.30
   7   2  -1   39.00    4.10
  -7   2   1   15.00   17.20
   7   2  -1   33.30   13.60
   7   2  -1   39.60    3.90
   7   2  -1   54.19    8.60
   7  -2  -1   44.20   14.70
  -7  -2   1   37.10    3.80
   7  -2  -1   43.40    5.70
  -7  -2   1   39.40   14.00
  -7   2   0  874.11   65.79
  -7   2   0  742.73   80.49
  -7   2   0  813.82   65.39
   7   2   0  776.52   65.39
  -7   2   0  699.53   69.99
   7   2   0  994.60   89.99
  -7  -2   0  856.81   65.39
   7  -2   0  999.30   92.99
  -7  -2   0  677.33   82.79
   7   2   1  489.45   37.50
   7   2   1  429.16   75.19
  -7   2  -1  478.65   38.20
  -7  -2  -1  470.35   37.50
  -7  -2  -1  354.56   65.79
   7   2   2 2176.78  190.38
  -7   2  -2 2038.70  165.48
  -7   2  -2 2258.97  165.28
  -7  -2  -2 1850.01  191.48
  -7  -2  -2 1986.30  164.88
  -7   2  -3  718.63   60.69
  -7   2  -3  715.33   60.99
  -7   2  -3  818.02   60.19
  -7  -2  -3  713.13   60.29
  -7  -2  -3  526.05  116.99
  -7  -2  -3  831.62   60.99
  -7   2  -4  501.95   35.00
  -7   2  -4  421.16   36.80
  -7   2  -4  430.26   35.60
  -7  -2  -4  408.56   35.60
  -7  -2  -4  371.86   35.10
  -7   2  -5  243.28   21.10
  -7   2  -5  234.18   21.00
  -7  -2  -5  241.98   21.20
  -7   2  -6 1511.95  126.99
  -7   2  -6 1609.74  127.49
  -7  -2  -6 1609.94  127.59
  -7   2  -7    7.40    2.60
  -7   2  -7   14.20    2.30
  -7   2  -7   12.20    2.60
  -7  -2  -7   12.80    3.20
  -7  -2  -7   11.90    2.50
  -7   2  -8  149.19   13.70
  -7  -2  -8  147.69   13.90
   7   3  -9   19.40    3.80
   7   3  -9   14.40    2.50
   7  -3  -9   18.90    3.50
   7   3  -8   55.39    6.50
   7   3  -8   41.40    5.20
   7   3  -8   64.19   19.20
   7  -3  -8   63.89    6.40
   7  -3  -8   62.49   16.70
   7   3  -7 1513.85  118.89
   7   3  -7 1510.85  137.69
   7   3  -7 1267.07  117.69
   7  -3  -7 1583.44  118.59
   7  -3  -7 1493.75  134.29
   7   3  -6  405.46   37.80
   7   3  -6  480.25   38.80
   7   3  -6  478.55   53.49
   7  -3  -6  460.05   50.09
   7  -3  -6  500.75   38.50
   7   3  -5   36.30    4.50
   7   3  -5   37.40   11.70
   7   3  -5   40.00    4.10
   7  -3  -5   34.70   10.30
   7   3  -4   90.19    8.60
   7   3  -4  106.19   17.60
   7   3  -4   96.29    9.00
   7  -3  -4  104.99   15.30
   7   3  -3   41.10    3.90
   7   3  -3   40.60    4.20
   7   3  -3   22.80    8.30
   7  -3  -3   35.10    7.70
   7   3  -2  426.56   33.90
   7   3  -2  441.16   42.10
   7   3  -2  429.26   33.70
   7   3  -2  391.96   33.50
  -7  -3   2  397.56   51.89
   7  -3  -2  374.66   37.70
   7   3  -1 2946.71  215.78
   7   3  -1 2709.23  206.68
   7   3  -1 2680.03  206.98
   7  -3  -1 2397.36  208.78
  -7  -3   1 2186.88  228.18
   7   3   0  606.74   68.89
   7   3   0  614.74   46.80
  -7   3   0  505.95   46.60
   7   3   0  535.25   46.30
  -7   3   0  564.34   49.70
  -7  -3   0  678.83   60.19
  -7  -3   0  579.44   46.30
   7   3   1   -6.60    9.90
  -7   3  -1    3.60    1.50
   7   3   1    8.30    1.40
  -7  -3  -1    5.30    1.30
  -7  -3  -1   21.80   15.10
  -7  -3  -1    5.90    6.30
  -7   3  -2  859.11   76.69
  -7  -3  -2 1058.29   77.19
  -7   3  -3 2171.58  197.98
  -7   3  -3 2083.99  197.08
  -7   3  -3 2776.62  196.98
  -7  -3  -3 2541.65  197.78
  -7  -3  -3 2870.81  214.88
  -7   3  -4    8.70    2.10
  -7  -3  -4   31.70   11.10
  -7   3  -5  935.81   77.59
  -7   3  -5  968.20   78.19
  -7  -3  -5  969.10   78.19
  -7   3  -6   72.29    8.10
  -7   3  -6   79.29    7.90
  -7  -3  -6   77.79    8.30
  -7   3  -7   34.30    4.80
  -7  -3  -7   45.70    5.40
   7   4  -8  123.59   12.90
   7   4  -8  159.58   14.00
   7  -4  -8  160.98   13.60
   7   4  -7  731.63   58.99
   7   4  -7  646.34   72.39
   7  -4  -7  666.53   70.09
   7   4  -6  356.66   43.80
   7   4  -6  318.27   28.80
   7   4  -6  380.66   29.80
   7  -4  -6  329.87   40.30
   7   4  -5  102.69   10.30
   7   4  -5  101.59   20.40
   7   4  -5  121.89   11.00
   7   4  -5  120.79   10.10
   7  -4  -5  116.39   25.10
   7  -4  -5  121.79   18.70
   7   4  -4  521.85   43.60
   7   4  -4  563.94   56.09
   7   4  -4  519.25   43.80
   7   4  -4  521.25   43.10
   7  -4  -4  529.95   63.29
   7  -4  -4  565.34   53.59
   7   4  -3  648.34   52.99
   7   4  -3  675.23   52.99
   7   4  -3  621.44   52.49
   7   4  -3  700.13   64.29
   7  -4  -3  606.74   64.79
   7   4  -2  524.05   44.40
   7   4  -2  586.24   44.60
   7   4  -2  615.04   54.99
   7   4  -2  535.05   44.70
   7  -4  -2  465.15   53.39
   7   4  -1 1734.73  137.19
   7   4  -1 1779.02  136.79
  -7   4   1 1816.62  136.99
   7   4  -1 1814.42  146.79
  -7   4   1 1586.14  136.49
   7   4  -1 1500.85  136.79
  -7  -4   1 1756.12  136.59
  -7   4   0  412.06   36.40
  -7   4   0  370.76   36.80
   7   4   0  433.56   36.50
   7   4   0  518.05   37.10
  -7  -4   0  463.55   36.40
  -7  -4   0  545.25   52.69
  -7   4  -1 1248.58  114.59
   7   4   1 1389.86  114.59
  -7  -4  -1 1529.75  114.69
  -7  -4  -1 1626.74  132.59
   7   4   2  874.11   74.59
  -7  -4  -2  941.61   74.99
  -7  -4  -2 1008.90   91.89
  -7   4  -3   19.20    3.40
  -7  -4  -3   16.00    2.80
  -7  -4  -3   31.60   15.70
  -7   4  -4  314.57   28.30
  -7  -4  -4  318.47   27.90
  -7  -4  -4  387.76   45.40
  -7   4  -5  159.48   15.20
  -7  -4  -5  164.88   15.10
  -7   4  -6  294.37   26.30
  -7  -4  -6  313.97   26.50
  -7  -4  -7  273.47   23.80
   7   5  -8    3.10    2.10
   7  -5  -8    3.40    1.50
   7   5  -7    2.40    1.60
   7  -5  -7    4.00    1.50
   7   5  -6  625.34   65.79
   7   5  -6  543.65   49.70
   7   5  -6  651.43   50.49
   7  -5  -6  637.74   63.19
   7   5  -5 1048.30   80.19
   7   5  -5 1054.99   96.19
   7   5  -5  991.40   79.19
   7   5  -5  935.61   79.69
   7  -5  -5  886.31   94.29
   7   5  -4   10.90    2.50
  -7   5   4   14.40    2.00
   7   5  -4   13.50    2.50
   7   5  -4   15.00    2.30
   7   5  -4   18.00    7.80
   7  -5  -4   26.20   13.80
   7   5  -3 1447.16  126.59
   7   5  -3 1647.94  139.29
  -7   5   3 1819.62  126.29
   7   5  -3 1615.14  126.59
   7   5  -3 1471.15  127.39
   7  -5  -3 1429.66  140.09
   7   5  -2  321.87   25.50
  -7   5   2  290.67   24.70
   7   5  -2  270.87   25.40
  -7   5   2  341.17   25.30
   7   5  -2  320.17   35.70
   7   5  -2  274.87   25.30
   7  -5  -2  249.08   34.70
  -7  -5   2  324.07   25.00
   7   5  -1  135.09   13.50
   7   5  -1  152.48   13.70
  -7   5   1  149.49   13.00
   7   5  -1  157.88   21.50
  -7   5   1  155.08   13.50
   7   5  -1  148.19   13.30
  -7  -5   1  179.68   30.30
  -7  -5   1  161.28   13.10
   7   5   0   53.29    6.60
   7   5   0   73.49    6.70
  -7   5   0   52.39    5.70
   7   5   0   67.99    6.10
  -7   5   0   57.79    6.40
  -7  -5   0   50.49   16.80
  -7  -5   0   62.79    5.90
   7   5   1 2187.38  194.28
  -7   5  -1 2212.78  194.78
   7   5   1 2409.96  193.98
  -7  -5  -1 2740.43  216.68
  -7  -5  -1 2680.63  194.18
  -7   5  -2  793.62   75.89
   7   5   2  993.80   75.09
  -7  -5  -2  964.90   75.39
  -7  -5  -2 1003.40   95.99
  -7  -5  -3   37.70   14.80
  -7   5  -4   34.80    5.20
  -7  -5  -4   52.59   18.50
  -7  -5  -4   39.10    4.80
  -7   5  -5   59.59    9.10
   7   5   6  232.18   19.20
  -7   5  -6  209.38   19.90
  -7  -5  -6  231.28   20.00
   7   5   7  322.87   26.80
  -7  -5  -7  326.87   27.80
   7   6  -7   16.00    2.90
   7   6  -7   19.20    3.40
   7  -6  -7   25.40    3.20
   7   6  -6  845.32   77.39
   7   6  -6 1034.80   98.39
   7   6  -6 1025.80   77.99
   7   6  -5  306.67   29.30
   7   6  -5  378.56   43.10
   7   6  -5  364.26   29.10
   7   6  -5  392.26   29.90
   7  -6  -5  300.47   39.10
   7   6  -4  190.88   27.00
  -7   6   4  150.18   14.50
   7   6  -4  182.68   15.10
   7   6  -4  180.08   15.50
   7  -6  -4  186.28   34.70
   7   6  -3  203.18   18.10
   7   6  -3  240.18   18.40
   7   6  -3  230.08   30.10
   7   6  -3  185.58   18.20
   7  -6  -3  173.48   33.20
  -7  -6   3  203.08   17.70
  -7  -6   3  236.68   37.20
  -7   6   2 1641.94  152.78
   7   6  -2 1760.02  153.68
   7   6  -2 1973.90  153.58
   7   6  -2 1938.51  166.78
  -7   6   2 2183.08  153.48
  -7  -6   2 2007.60  153.18
   7   6  -1  121.19   11.20
   7   6  -1  118.59   10.90
   7   6  -1  104.49   10.90
  -7   6   1  126.79   11.00
  -7   6   1  109.69   10.40
  -7  -6   1  129.59   10.60
  -7  -6   1  131.69   28.50
   7   6   0  575.34   54.49
  -7   6   0  697.43   54.79
   7   6   0  624.24   54.39
  -7  -6   0  742.13   54.29
  -7  -6   0  751.72   77.39
  -7   6  -1  234.08   19.90
   7   6   1  225.98   19.10
   7   6   1  196.78   19.30
  -7  -6  -1  249.78   38.40
  -7  -6  -1  237.38   19.30
  -7   6  -2    0.80    1.60
   7   6   2    4.30    1.50
  -7   6  -2    2.50    1.20
  -7  -6  -2   10.70   13.60
  -7  -6  -2    3.80    1.60
  -7   6  -3  183.48   17.00
   7   6   3  176.88   16.10
  -7  -6  -3  241.18   39.10
  -7  -6  -3  183.08   16.40
   7   6   4  534.85   42.10
  -7   6  -4  474.95   43.30
  -7  -6  -4  480.05   43.60
  -7   6  -5  102.99   10.80
   7   6   5  114.09   10.00
  -7  -6  -5  105.39   10.50
  -7   6  -6    8.20    2.70
   7   6   6    8.50    2.00
   7   7  -6   62.39    7.20
   7   7  -6   82.29    7.70
   7   7  -5  687.23   51.29
   7   7  -5  671.43   50.69
   7   7  -5  552.44   50.79
  -7  -7   5  572.74   50.29
   7   7  -4   33.40    4.20
   7   7  -4   23.90   11.60
   7   7  -4   26.10    3.80
   7   7  -4   25.70    3.70
  -7  -7   4   29.40    3.40
   7   7  -3 1253.07   92.69
   7   7  -3 1076.99   92.59
   7   7  -3 1019.40   92.49
  -7  -7   3 1227.68   92.09
   7   7  -2  133.49   12.00
  -7   7   2  139.39   11.60
   7   7  -2  106.09   11.90
   7   7  -2  133.79   12.30
  -7  -7   2  139.39   11.60
   7   7  -1 1105.99  103.39
  -7   7   1 1315.77  103.09
   7   7  -1 1265.77  103.29
   7   7  -1 1394.66  103.69
  -7  -7   1 1328.57  102.99
   7   7   0  650.73   58.29
  -7   7   0  747.03   58.19
  -7   7   0  605.44   57.59
   7   7   0  751.12   58.19
  -7  -7   0  815.32   58.09
   7   7   1  118.69   10.50
  -7   7  -1  102.39   10.20
  -7   7  -1  119.19   10.80
   7   7   1  107.29   10.70
  -7  -7  -1  127.19   10.70
  -7   7  -2   74.69    7.50
   7   7   2   75.59    8.10
  -7   7  -2   95.29    8.40
  -7  -7  -2   73.39    7.80
   7   7   3   72.29    7.00
  -7  -7  -3   65.39    7.20
   7   7   4   14.10    2.60
  -7  -7  -4   10.30    2.40
  -7   7  -5    4.50    1.90
   7   7   5    5.10    1.60
  -7  -7  -5    1.30    1.70
   7   8  -5    9.20    2.30
   7   8  -5    9.50    2.20
   7   8  -5   12.60    2.60
  -7  -8   5    6.10    1.50
   7   8  -4 1747.73  143.59
   7   8  -4 1847.42  143.59
   7   8  -4 1587.44  143.39
  -7  -8   4 1969.00  143.09
   7   8  -3   59.49    6.90
   7   8  -3   63.59    6.90
  -7  -8   3   75.69    6.50
   7   8  -2  269.87   21.70
   7   8  -2  246.28   21.40
   7   8  -2  211.98   21.50
  -7  -8   2  269.87   21.10
   7   8  -1    9.10    2.20
  -7   8   1    6.30    1.50
   7   8  -1    6.00    1.90
  -7  -8   1    7.30    1.70
  -7   8   0  506.65   39.20
  -7   8   0  416.56   39.00
   7   8   0  459.15   39.70
   7   8   0  507.25   39.50
  -7  -8   0  508.65   39.60
  -7   8  -1    2.60    1.40
   7   8   1    4.40    1.40
   7   8   1    4.40    1.50
  -7   8  -1    5.90    1.60
  -7  -8  -1    6.10    1.70
  -7   8  -2  289.57   22.70
   7   8   2  270.97   22.70
  -7  -8  -2  239.28   22.60
  -7   8  -3   30.80    3.80
   7   8   3   26.60    3.60
   7   9  -2   31.00    3.70
   7   9  -2   25.50    3.80
   7   9  -1  875.51   66.09
   7   9  -1  754.62   66.19
   7   9   0  212.98   19.90
   7   9   0  253.17   19.80
   7   9   1   22.80    3.30
   8   0  -9    0.90    1.70
   8   0  -8   44.90    4.70
   8   0  -8   52.49   19.10
   8   0  -8   50.69    5.90
   8   0  -7    0.80    1.30
   8   0  -7   -1.70    5.80
   8   0  -7    2.50    1.00
   8   0  -6  458.35   37.30
   8   0  -6  434.46   36.30
   8   0  -6  452.45   50.29
   8   0  -5   -1.70    4.30
   8   0  -5    0.50    0.90
   8   0  -4  221.38   26.70
   8   0  -4  205.68   17.80
   8   0  -4  211.08   17.40
   8   0  -3  -14.20   14.40
   8   0  -3    1.10    2.70
   8   0  -3    0.90    0.80
   8   0  -3    2.40    0.80
  -8   0   3   -9.70   13.10
   8   0  -2 4960.20  445.96
   8   0  -2 6528.95  481.65
   8   0  -2 6027.30  446.06
   8   0  -2 5828.32  452.65
  -8   0   2 4804.62  466.95
   8   0  -1    8.20   12.60
   8   0  -1    7.50    2.50
  -8   0   0 2298.37  204.18
  -8   0  -1    6.00    3.50
  -8   0  -1   10.90    9.90
   8   0   1    4.40   10.90
  -8   0  -2 2708.93  209.08
  -8   0  -2 2413.96  203.88
  -8   0  -3    3.80    1.50
  -8   0  -3    3.30    1.30
  -8   0  -5    2.30    1.70
  -8   0  -5    1.20    0.80
  -8   0  -6   72.99    6.50
  -8   0  -6   64.19    7.20
  -8   0  -6   50.79    6.10
  -8   0  -7    1.40    1.40
  -8   0  -7    1.80    1.20
  -8   0  -8   57.29    6.70
  -8   0  -8   58.29    6.70
   8   1  -9  185.88   16.10
   8  -1  -9  163.58   15.80
   8   1  -8  369.66   30.40
   8   1  -8  339.87   45.80
   8   1  -8  299.57   29.10
   8  -1  -8  385.96   30.40
   8  -1  -8  417.06   47.60
   8   1  -7  132.19   11.90
   8   1  -7  109.29   10.70
   8   1  -7  100.29   23.40
   8  -1  -7  136.09   11.90
   8  -1  -7  132.99   23.20
   8   1  -6  487.25   39.50
   8   1  -6  439.76   38.50
   8   1  -6  473.35   53.09
   8  -1  -6  530.35   53.49
   8  -1  -6  472.85   39.30
   8   1  -5   79.29    7.90
   8   1  -5   82.39    7.30
   8   1  -5   93.09   20.70
   8  -1  -5   80.09    7.70
   8  -1  -5   73.69   14.40
   8   1  -4    4.20    1.10
   8   1  -4    4.10    1.40
   8   1  -4   10.20    5.80
   8  -1  -4    5.70    4.10
   8   1  -3  799.72   66.89
  -8   1   3  591.24   77.99
   8   1  -3  743.73   57.39
   8   1  -3  748.93   85.19
   8  -1  -3  636.74   57.19
   8  -1  -3  706.33   64.39
   8  -1  -3  783.02   85.89
  -8   1   2    7.60    1.10
   8   1  -2   10.60    1.50
   8   1  -2  -14.40   15.10
  -8   1   2    2.50   11.40
   8   1  -2    8.30    4.00
   8   1  -2    5.60    1.40
  -8  -1   2   12.30   11.00
   8  -1  -2    4.80    3.00
   8   1  -1 2092.89  176.68
   8   1  -1 2459.55  176.98
   8   1  -1 2259.07  181.78
  -8   1   1 2177.08  176.58
  -8  -1   1 1885.71  195.68
   8  -1  -1 2383.66  178.38
  -8   1   0 1765.52  133.39
   8   1   0 1982.50  163.18
  -8   1   0 1489.45  151.18
  -8  -1   0 1430.96  152.38
  -8  -1   0 1699.93  133.39
   8   1   1 5847.52  496.25
  -8  -1  -1 5042.50  492.15
  -8  -1  -1 6822.02  479.35
  -8   1  -2 1104.79   98.49
  -8   1  -2 1273.07   98.79
  -8  -1  -2 1061.89   98.19
  -8  -1  -2 1369.66   98.69
  -8  -1  -2 1355.76  106.69
  -8   1  -3 1555.04  125.09
  -8   1  -3 1444.46  125.89
  -8  -1  -3 1703.73  125.99
  -8   1  -4    5.30    1.60
  -8   1  -4    9.70    2.40
  -8   1  -4    3.40    1.10
  -8  -1  -4    2.00    1.30
  -8  -1  -4    3.70    1.70
  -8   1  -5  427.36   37.80
  -8   1  -5  476.45   36.90
  -8  -1  -5  439.86   37.80
  -8   1  -6    1.90    1.10
  -8   1  -6    3.40    1.80
  -8   1  -6    1.20    1.00
  -8  -1  -6   -0.30    1.00
  -8  -1  -6    0.00    1.50
  -8   1  -7  131.29   12.80
  -8   1  -7  139.29   12.00
  -8  -1  -7  117.99   12.50
  -8  -1  -7  143.99   12.20
   8   2  -9    3.60    1.50
   8   2  -9    8.20    2.50
   8  -2  -9    3.60    2.00
   8   2  -8   41.40    5.20
   8   2  -8   35.90    4.10
   8   2  -8   54.29   16.40
   8  -2  -8   43.10    5.10
   8  -2  -8   28.80   11.90
   8   2  -7    8.40    2.60
   8   2  -7   -3.10    7.70
   8  -2  -7   29.50   13.70
   8   2  -6    9.70    7.40
   8   2  -6    9.10    1.60
   8  -2  -6    7.70    7.70
   8   2  -5    1.70    1.10
   8   2  -5    1.20    4.80
   8   2  -5    3.80    1.20
   8  -2  -5    1.80    1.00
   8  -2  -5   -0.90    4.50
   8   2  -4 1788.62  138.09
   8   2  -4 1683.33  137.79
   8   2  -4 1925.21  150.78
   8  -2  -4 1650.23  146.79
   8  -2  -4 1602.04  137.69
   8   2  -3 1853.51  141.79
   8   2  -3 1824.12  141.29
   8   2  -3 1831.92  141.69
   8  -2  -3 1668.63  141.39
   8  -2  -3 1672.23  148.09
   8   2  -2  343.57   31.70
  -8   2   2  427.56   31.10
   8   2  -2  390.96   31.50
   8   2  -2  395.46   38.90
   8  -2  -2  366.26   35.60
   8   2  -1   12.00    2.10
  -8   2   1   12.70    1.50
   8   2  -1   15.50    5.40
   8   2  -1   10.50    1.60
  -8  -2   1    9.30    1.60
  -8  -2   1   14.40   12.80
   8   2   0 3121.99  262.87
   8   2   0 3744.93  292.37
  -8   2   0 3541.15  263.07
  -8  -2   0 2833.32  285.57
   8   2   1   94.49   25.00
  -8   2  -1  120.49   10.90
   8   2   1  121.99   10.50
  -8   2  -1  126.99   11.30
  -8  -2  -1  123.29   29.50
  -8  -2  -1  147.39   19.00
  -8  -2  -1  136.89   11.00
  -8   2  -2 2293.37  187.08
  -8   2  -2 2626.64  186.18
  -8   2  -2 2104.59  186.68
   8   2   2 2118.19  219.58
  -8  -2  -2 2761.12  198.48
  -8  -2  -2 2126.59  186.38
  -8   2  -3    5.60    1.20
  -8   2  -3    6.00    2.50
  -8  -2  -3    4.10    1.20
  -8  -2  -3   13.90    7.90
  -8   2  -4  221.28   17.40
  -8   2  -4  193.38   18.10
  -8   2  -4  171.58   18.10
  -8  -2  -4  274.37   32.70
  -8  -2  -4  223.38   18.40
  -8   2  -5 1094.39   94.39
  -8   2  -5 1248.98   93.59
  -8  -2  -5 1152.08   94.59
  -8   2  -6  375.76   35.90
  -8   2  -6  424.56   35.10
  -8  -2  -6  482.25   36.00
  -8  -2  -6  434.56   37.50
  -8   2  -7   24.50    3.30
  -8   2  -7   19.30    2.80
  -8   2  -7   27.20    3.70
  -8  -2  -7   19.60    3.50
  -8  -2  -7   21.70    3.10
   8   3  -8    1.50    1.50
   8   3  -8    2.30    1.20
   8  -3  -8    8.00    2.30
   8   3  -7 1016.40   78.79
   8   3  -7  844.62   77.79
   8   3  -7 1006.90   96.59
   8  -3  -7 1012.30   94.19
   8  -3  -7  985.50   78.49
   8   3  -6    5.40    1.50
   8   3  -6    5.20    2.00
   8   3  -6   17.20    8.90
   8  -3  -6    6.10    1.80
   8  -3  -6   12.60    9.20
   8   3  -5    7.50    2.10
   8   3  -5   -0.30    4.50
   8   3  -5    8.10    1.70
   8  -3  -5   10.20    1.90
   8  -3  -5    0.70    5.00
   8   3  -4  606.94   59.99
   8   3  -4  637.24   49.10
   8   3  -4  617.94   47.90
   8   3  -4  529.35   48.30
   8  -3  -4  584.74   48.30
   8  -3  -4  597.54   57.09
   8   3  -3  407.76   32.90
   8   3  -3  443.76   43.00
   8   3  -3  413.46   32.80
   8   3  -3  404.46   32.50
   8  -3  -3  383.86   38.80
   8  -3  -3  351.86   32.30
   8   3  -2  829.12   70.49
   8   3  -2  931.01   79.59
   8   3  -2  933.11   70.59
   8   3  -2  820.22   70.69
   8   3  -1 3434.16  288.27
   8   3  -1 3714.73  296.77
   8   3  -1 3728.03  288.77
   8   3   0   43.50    4.60
  -8   3   0   51.39    5.20
  -8  -3   0   50.19    4.70
  -8  -3   0   69.59   13.40
  -8   3  -1   94.69    9.70
  -8   3  -1  128.39   10.80
   8   3   1  114.39    9.70
  -8  -3  -1  133.39   10.10
  -8  -3  -1  106.09    9.60
  -8   3  -2    5.00    1.90
  -8   3  -2    9.00    1.80
  -8  -3  -2   23.30    8.20
  -8   3  -3 1749.32  141.59
  -8   3  -3 1767.82  140.69
  -8   3  -4  629.14   62.39
  -8   3  -4  823.72   61.99
  -8  -3  -4  800.92   63.09
  -8  -3  -4  888.91   78.69
  -8   3  -5  459.95   34.70
  -8   3  -5  384.56   35.10
  -8  -3  -5  428.96   35.80
  -8   3  -6  218.48   17.20
  -8   3  -6  200.48   17.70
  -8  -3  -6  188.48   18.20
  -8   3  -7   46.90    5.00
  -8   3  -7   43.70    5.30
  -8  -3  -7   49.30    5.20
  -8  -3  -7   52.19    5.90
   8   4  -8  132.59   13.40
   8   4  -8  158.88   14.20
   8  -4  -8  171.08   14.00
   8   4  -7    5.80    2.10
   8   4  -7   -8.00    6.10
   8   4  -7    5.30    1.60
   8  -4  -7    7.10    1.90
   8  -4  -7   11.40   10.20
   8   4  -6  354.86   29.10
   8   4  -6  355.76   42.20
   8   4  -6  302.57   28.50
   8  -4  -6  347.57   40.60
   8  -4  -6  361.36   28.80
   8   4  -5 1061.89   84.59
   8   4  -5  948.61   84.19
   8  -4  -5 1036.60   84.29
   8  -4  -5 1171.68   97.49
   8   4  -4  752.92   58.79
   8   4  -4  667.73   58.59
   8   4  -4  747.23   70.99
   8   4  -4  709.63   58.19
   8  -4  -4  747.63   68.49
   8   4  -3    1.30    1.10
   8   4  -3    2.90    4.10
   8   4  -3    4.40    1.80
   8   4  -3    2.00    1.00
   8  -4  -3   17.60    6.30
   8   4  -2  433.26   36.60
   8   4  -2  493.45   46.50
   8   4  -2  424.16   36.70
   8   4  -2  476.35   36.50
   8  -4  -2  401.36   40.10
   8   4  -1 1191.78  108.49
  -8   4   1 1350.96   99.89
   8   4  -1 1312.27  100.09
   8   4  -1 1158.98   99.39
  -8  -4   1 1180.48   99.29
  -8   4   0 1052.29   85.59
   8   4   0  996.70   84.89
  -8  -4   0 1093.89   84.89
  -8  -4   0 1105.19  100.59
   8   4   1   63.59    5.90
  -8   4  -1   57.49    6.90
  -8  -4  -1   69.09    6.20
  -8  -4  -1   52.89   13.90
  -8  -4  -2  745.53   61.19
  -8  -4  -2  775.32   82.29
  -8  -4  -3 1678.83  152.18
  -8  -4  -3 1705.93  136.09
  -8   4  -4  147.09   16.20
  -8  -4  -4  187.88   33.70
  -8  -4  -4  208.98   16.30
  -8  -4  -5   12.20    3.00
  -8   4  -6  187.88   18.50
  -8  -4  -6  233.58   18.90
  -8   4  -7  303.97   28.10
  -8  -4  -7  367.96   28.70
   8   5  -7   26.60    4.00
   8   5  -7   28.00    3.80
   8  -5  -7   31.10    3.70
   8   5  -6    2.20    8.30
   8   5  -6   15.00    3.00
  -8   5   6   17.80    2.40
   8  -5  -6   19.30    2.80
   8  -5  -6   21.20   11.90
   8   5  -5 1278.77  117.19
   8   5  -5 1295.67  102.59
   8   5  -5 1108.09  102.29
  -8   5   5 1402.46  101.79
   8  -5  -5 1266.07  114.39
   8   5  -4  461.95   41.80
   8   5  -4  528.85   54.49
   8   5  -4  543.35   42.00
   8   5  -4  502.05   41.50
   8  -5  -4  511.75   50.99
   8   5  -3  494.45   41.00
   8   5  -3  539.55   41.10
   8   5  -3  451.55   41.10
   8   5  -3  576.04   53.59
   8  -5  -3  449.76   47.70
   8   5  -2  963.30   93.29
   8   5  -2  915.91   83.29
   8   5  -2  997.60   82.99
  -8   5   2 1159.88   83.19
  -8  -5   2 1165.48  104.69
  -8  -5   2 1020.60   82.79
   8   5  -1   20.60    3.90
   8   5  -1   23.00    3.10
   8   5  -1   26.70    3.70
  -8   5   1   25.70    3.50
  -8  -5   1   24.10   10.90
  -8  -5   1   32.10    3.20
  -8   5   0    3.70    1.60
   8   5   0    3.60    1.50
   8   5   0    3.00    1.30
  -8  -5   0    5.80    8.70
  -8   5  -1  902.51   86.59
   8   5   1 1083.09   85.79
   8   5   1  983.20   86.19
  -8  -5  -1 1226.68  105.99
  -8  -5  -1 1199.28   85.99
  -8   5  -2    1.00    1.30
  -8  -5  -2    1.90    9.50
  -8  -5  -2    1.40    1.20
  -8   5  -3   10.30    3.20
  -8  -5  -3   15.10    2.60
  -8  -5  -3   17.30   18.80
  -8   5  -4  267.47   27.50
  -8  -5  -4  371.46   27.60
  -8   5  -5  373.46   35.60
  -8  -5  -5  468.55   35.70
  -8   5  -6  185.68   18.90
  -8  -5  -6  246.08   19.20
   8   6  -7   17.50    3.30
   8   6  -7   15.90    3.00
   8  -6  -7   14.60    2.60
   8   6  -6  798.62   74.69
   8   6  -6 1019.20   75.19
   8  -6  -6  951.70   74.69
   8   6  -5    6.10    1.80
   8   6  -5   -1.40    6.70
   8   6  -5    3.60    1.60
   8   6  -5    3.40    1.60
   8   6  -4   23.60    3.40
  -8   6   4   30.90    3.20
   8   6  -4   24.00    3.60
   8   6  -4   14.70    7.60
  -8  -6   4   21.50    3.00
   8   6  -3  505.45   46.30
   8   6  -3  500.65   46.20
   8   6  -3  562.94   57.79
  -8   6   3  588.54   45.90
   8   6  -3  582.94   46.20
  -8  -6   3  688.83   71.19
  -8  -6   3  584.84   45.80
  -8   6   2 1218.88   99.09
   8   6  -2 1248.58   99.59
   8   6  -2 1183.68   99.09
  -8  -6   2 1275.47   98.79
   8   6  -1   33.50    4.20
   8   6  -1   31.70    4.50
  -8   6   1   42.10    4.60
  -8  -6   1   38.50    4.00
  -8  -6   1   25.30   14.90
  -8   6   0    1.80    1.60
   8   6   0    2.50    1.50
  -8  -6   0  -14.40   10.70
   8   6   1    3.60    1.20
   8   6   1    2.70    1.50
  -8   6  -1    4.80    1.90
  -8  -6  -1   14.40   13.40
   8   6   2    4.30    1.60
  -8   6  -2    1.80    1.60
  -8  -6  -2    3.10    1.40
  -8  -6  -2    8.80   15.50
   8   6   3   31.60    4.70
  -8   6  -3   30.40    5.20
  -8  -6  -3   41.30    5.30
   8   6   4  662.23   50.69
  -8   6  -4  517.05   51.19
  -8  -6  -4  676.23   51.19
  -8   6  -5  285.87   28.60
   8   6   5  364.76   28.00
  -8  -6  -5  353.76   28.60
   8   7  -6  271.37   20.30
   8   7  -6  200.48   19.90
   8  -7  -6  251.07   19.80
  -8  -7   6  210.08   19.50
   8   7  -5  492.45   44.10
  -8  -7   5  575.44   43.70
   8   7  -4   12.60    2.50
   8   7  -4   14.10    2.50
   8   7  -4   10.90    2.60
  -8  -7   4   15.20    2.20
   8   7  -3  216.58   18.10
   8   7  -3  210.28   18.30
   8   7  -3  187.18   18.20
  -8  -7   3  215.08   17.70
  -8   7   2    3.60    1.30
   8   7  -2    3.20    1.70
  -8   7   1   47.70    5.00
   8   7  -1   45.90    4.90
   8   7  -1   37.70    5.20
  -8  -7   1   44.90    4.70
   8   7   0  457.25   38.10
  -8   7   0  453.65   38.40
   8   7   0  406.66   38.50
  -8  -7   0  535.15   38.30
  -8   7  -1    7.20    3.10
   8   7   1    2.00    1.20
   8   7   1    3.40    1.40
  -8  -7  -1    2.20    1.30
   8   7   2  312.67   28.10
  -8   7  -2  327.27   28.60
  -8  -7  -2  365.26   28.40
   8   7   3  111.29   10.20
  -8   7  -3  104.79   10.60
  -8  -7  -3  110.79   10.40
  -8   7  -4   -0.40    1.20
   8   7   4    1.80    1.30
  -8  -7  -4    2.90    1.60
   8   8  -4 1100.99   92.69
   8   8  -4 1167.88   93.49
  -8  -8   4 1180.48   92.29
   8   8  -3    2.50    1.70
   8   8  -3    6.60    2.00
   8   8  -3    5.50    1.60
  -8  -8   3    5.10    1.40
   8   8  -2   37.60    5.00
   8   8  -2   43.40    4.70
  -8  -8   2   44.30    4.50
   8   8  -1    5.70    2.00
   8   8  -1    9.50    2.10
  -8  -8   1    9.80    2.00
   8   8   0   55.79    5.40
   8   8   0   43.00    5.60
  -8   8   0   52.29    5.40
  -8  -8   0   54.39    5.60
   8   8   1   29.70    4.20
  -8   8  -1   32.60    4.00
  -8  -8  -1   40.60    4.30
   8   8   2   50.09    5.60
  -8   8  -2   51.19    5.40
  -8   8  -3   11.90    2.30
   8   8   3   13.00    2.70
  -8  -8  -3   13.80    2.60
   9   0  -9   -1.00    1.20
   9   0  -8  472.75   39.50
   9   0  -7   10.50    2.50
   9   0  -7    8.10    7.90
   9   0  -6  924.51   86.99
   9   0  -6  861.01   71.89
   9   0  -5    2.40    1.10
   9   0  -5    0.90    0.90
   9   0  -5    5.80    4.80
   9   0  -4  759.62   59.99
   9   0  -4  707.53   79.89
   9   0  -4  737.63   59.89
   9   0  -3    6.30    3.90
   9   0  -2 7584.64  547.05
   9   0  -2 6756.12  540.25
  -9   0   2 6016.20  565.04
  -9   0   1    0.30    0.50
   9   0  -1  -22.40   21.10
  -9   0   1   26.80   13.40
  -9   0   0  638.34   50.69
  -9   0   0  576.24   70.69
   9   0   0  677.13   80.29
  -9   0  -1    8.40    3.40
  -9   0  -2   90.09    9.10
  -9   0  -2  116.19    9.50
  -9   0  -4  452.65   34.50
  -9   0  -4  357.36   34.70
  -9   0  -4  455.05   35.50
  -9   0  -5    2.80    1.30
  -9   0  -5    0.60    0.80
  -9   0  -5   -1.20    1.20
  -9   0  -6  290.47   25.80
  -9   0  -6  306.87   25.10
  -9   0  -7    1.80    1.40
  -9   0  -7    3.40    1.30
   9   1  -9   80.29    8.50
   9  -1  -9   87.09    9.50
   9   1  -8  159.48   13.70
   9   1  -8  128.79   12.50
   9  -1  -8  151.98   13.50
   9   1  -7   66.29    6.60
   9   1  -7   61.59   15.80
   9   1  -7   72.59    7.50
   9  -1  -7   75.29    7.50
   9  -1  -7   93.69   18.70
   9   1  -6  722.33   67.79
   9   1  -6  930.21   68.89
   9  -1  -6  909.01   84.09
   9  -1  -6  845.82   68.59
   9   1  -5 1816.12  162.68
   9   1  -5 2203.08  163.48
   9   1  -5 2224.88  178.18
   9  -1  -5 2085.59  176.18
   9  -1  -5 1919.41  163.08
   9   1  -4   28.30    9.60
   9   1  -4   39.80    4.20
   9   1  -4   38.40    3.90
   9  -1  -4   32.20    3.90
   9  -1  -4   43.00   11.90
   9   1  -3 2592.04  198.68
   9   1  -3 2436.36  188.78
   9   1  -3 2100.59  188.58
   9  -1  -3 2365.86  196.78
   9   1  -2  241.28   18.80
   9   1  -2  222.58   18.60
  -9   1   2  201.78   18.30
   9   1  -2  254.17   25.10
  -9   1   2  167.08   40.50
   9  -1  -2  240.28   23.10
  -9  -1   2  208.98   18.50
   9  -1  -2  306.47   57.29
  -9   1   1 1839.32  136.99
   9   1  -1 1641.04  146.49
  -9  -1   1 1822.92  137.09
  -9  -1   1 1486.95  159.48
   9   1   0  206.38   40.80
  -9   1   0  216.68   17.00
  -9  -1   0  167.48   34.70
  -9  -1   0  200.98   17.00
  -9   1  -1 1320.77  111.09
  -9   1  -1 1509.35  111.19
  -9  -1  -1 1201.28  110.69
  -9  -1  -1 1472.45  110.99
  -9  -1  -1 1443.36  118.59
  -9   1  -2 1816.12  135.49
  -9   1  -2 1548.45  135.19
  -9   1  -2 1630.14  134.59
  -9  -1  -2 1824.42  143.09
  -9  -1  -2 1518.65  134.89
  -9  -1  -2 1820.22  135.29
  -9   1  -3   32.30    4.10
  -9   1  -3   35.00    3.50
  -9  -1  -3   37.40    4.20
  -9  -1  -3   32.50    3.90
  -9   1  -4   86.69    7.50
  -9   1  -4   77.29    8.10
  -9   1  -4   91.69    8.60
  -9  -1  -4   94.09    8.60
  -9  -1  -4   69.09    7.70
  -9   1  -5   10.80    2.70
  -9   1  -5    8.80    2.10
  -9  -1  -5    1.10    1.60
  -9  -1  -5    8.90    1.90
  -9  -1  -5    2.30    1.20
  -9   1  -6   29.10    3.30
  -9   1  -6   21.00    3.20
  -9   1  -6   28.80    4.10
  -9  -1  -6   28.00    3.40
  -9  -1  -6   25.20    4.00
  -9   1  -7  102.39    9.40
  -9   1  -7  115.49   10.30
  -9   1  -7   90.49    9.70
  -9  -1  -7  100.19   10.20
  -9  -1  -7  121.29    9.80
   9   2  -8   66.39    6.90
   9   2  -8   54.69    6.00
   9  -2  -8   68.39    6.90
   9   2  -7  105.99   10.60
   9   2  -7  125.39   22.50
   9   2  -7  107.19   12.40
   9  -2  -7  125.89   22.70
   9  -2  -7  139.89   12.70
   9   2  -6  482.35   38.10
   9   2  -6  397.36   37.30
   9   2  -6  447.86   51.19
   9  -2  -6  475.55   37.90
   9  -2  -6  504.25   52.09
   9   2  -5   35.30    4.00
   9   2  -5   32.20    9.90
   9   2  -5   27.00    3.50
   9  -2  -5   37.60   11.10
   9  -2  -5   34.60    3.90
   9   2  -4 2344.37  201.48
   9   2  -4 2741.23  201.78
   9   2  -4 2776.72  214.48
   9  -2  -4 2237.48  201.28
   9  -2  -4 2580.94  218.18
   9   2  -3  483.15   37.30
  -9   2   3  473.45   36.70
   9   2  -3  430.76   57.09
   9   2  -3  403.66   37.20
   9  -2  -3  473.45   44.00
   9   2  -2  845.52   74.99
   9   2  -2  848.02   67.09
  -9   2   2  861.51   66.59
   9   2  -2  827.32   67.29
  -9  -2   2  786.02   66.99
  -9   2   1 1676.43  126.89
   9   2  -1 1522.05  126.99
   9   2  -1 1649.73  133.79
  -9  -2   1 1525.15  127.09
  -9   2   0 2636.54  207.58
  -9   2   0 2570.04  207.58
  -9   2  -1  184.08   15.30
  -9   2  -1  185.58   15.60
  -9  -2  -1  193.88   15.30
  -9  -2  -1  183.18   23.20
  -9  -2  -1  156.28   14.90
  -9   2  -2  300.27   24.30
  -9   2  -2  279.37   24.50
  -9  -2  -2  324.47   24.30
  -9  -2  -2  249.38   23.80
  -9  -2  -2  308.87   33.40
  -9   2  -3    4.20    1.50
  -9   2  -3    4.80    1.00
  -9  -2  -3    2.40    1.30
  -9  -2  -3   -0.60    8.80
  -9  -2  -3    9.60    1.80
  -9   2  -4   31.60    4.20
  -9   2  -4   32.70    3.40
  -9   2  -4   26.60    4.00
  -9  -2  -4   38.50    4.40
  -9   2  -5  172.88   15.10
  -9   2  -5  179.28   16.00
  -9  -2  -5  186.48   16.20
  -9   2  -6  475.35   41.00
  -9   2  -6  507.85   41.90
  -9  -2  -6  547.55   41.60
  -9  -2  -6  491.95   42.10
  -9   2  -7  244.38   21.50
  -9   2  -7  216.48   20.60
  -9  -2  -7  222.58   20.40
  -9  -2  -7  258.77   20.00
   9   3  -8  281.07   24.20
   9  -3  -8  283.37   24.10
   9   3  -7 1239.78  101.39
   9   3  -7 1269.87  117.69
   9  -3  -7 1266.27  116.49
   9  -3  -7 1251.67  101.29
   9   3  -6   95.79   22.20
   9   3  -6   89.29    9.20
   9   3  -6  105.39    9.80
   9  -3  -6  122.09   20.30
   9  -3  -6  102.69    9.50
   9   3  -5   53.49    5.50
   9   3  -5   58.89   15.70
   9   3  -5   42.50    5.10
   9  -3  -5   53.29    5.30
   9  -3  -5   53.99   14.50
   9   3  -4  219.28   20.40
   9   3  -4  259.37   31.30
   9   3  -4  269.57   20.70
   9  -3  -4  227.68   20.20
   9  -3  -4  247.38   28.80
   9   3  -3 1708.53  126.29
   9   3  -3 1647.14  126.49
   9   3  -3 1390.46  126.49
   9   3  -3 1710.13  137.69
   9  -3  -3 1445.66  132.49
   9   3  -2   29.60    8.20
   9   3  -2   38.30    4.40
   9   3  -2   40.30    4.10
   9   3  -1 2446.96  206.28
  -9   3   1 2483.95  198.28
   9   3  -1 2231.68  197.88
   9   3  -1 2825.02  198.68
  -9  -3   1 2436.66  197.98
  -9   3   0 1695.13  132.19
   9   3   0 1485.55  131.39
  -9  -3   0 1847.52  146.19
  -9  -3   0 1611.24  131.89
  -9   3  -1    8.20    2.00
   9   3   1    4.80    1.00
  -9  -3  -1   10.10    6.80
  -9  -3  -1    3.60    0.80
  -9   3  -2  413.26   38.50
  -9   3  -2  485.15   39.70
  -9  -3  -2  523.55   39.10
  -9  -3  -2  489.25   50.39
  -9   3  -3 1034.50   89.99
  -9   3  -3  999.10   89.09
  -9  -3  -3 1246.68   89.79
  -9  -3  -3 1185.28  103.89
  -9   3  -4   91.89    9.80
  -9   3  -4  100.99    9.30
  -9  -3  -4  110.39    9.90
  -9   3  -5   29.70    3.80
  -9   3  -6   92.89   10.50
  -9  -3  -6  115.29   10.90
  -9  -3  -6  137.09   10.60
   9   4  -8  144.29   13.00
   9  -4  -8  139.09   12.70
   9   4  -7  183.78   18.40
   9   4  -7  231.38   19.00
   9  -4  -7  231.38   18.70
   9   4  -6  400.36   49.60
   9  -4  -6  493.25   39.20
   9  -4  -6  442.46   49.60
   9   4  -5  759.52   75.59
   9   4  -5  677.13   62.39
   9   4  -5  807.62   62.79
   9  -4  -5  794.32   74.49
   9  -4  -5  812.62   62.49
   9   4  -4  562.84   55.29
   9   4  -4  583.44   43.70
   9   4  -4  480.95   43.50
   9  -4  -4  552.94   52.39
   9  -4  -4  494.65   43.10
   9   4  -3  998.20   87.99
   9   4  -3  853.71   76.99
   9   4  -3 1014.30   76.89
   9   4  -2  384.26   33.10
   9   4  -2  382.26   41.50
   9   4  -2  382.66   32.90
  -9   4   2  442.96   32.80
  -9  -4   2  383.56   32.50
   9   4  -1   35.10    4.10
   9   4  -1   26.30    3.30
   9   4  -1   32.70    4.00
  -9   4   1   33.80    3.80
  -9  -4   1   28.20    3.30
  -9  -4   1   17.30    7.90
   9   4   0  378.56   35.70
  -9   4   0  466.65   36.60
  -9  -4   0  456.05   35.90
  -9  -4   0  480.05   50.29
   9   4   1  870.31   76.19
  -9   4  -1  954.80   77.49
  -9  -4  -1 1022.10   91.59
  -9  -4  -1  983.90   76.59
  -9   4  -2  817.92   71.89
  -9  -4  -2  912.21   85.99
  -9  -4  -2  917.41   71.19
  -9   4  -3  545.15   52.69
  -9  -4  -3  632.14   66.49
  -9  -4  -3  733.83   52.49
  -9   4  -4  261.17   25.00
  -9  -4  -4  313.67   24.80
  -9   4  -5  217.48   21.20
  -9  -4  -5  268.47   21.30
  -9   4  -6  281.97   25.60
  -9  -4  -6  322.27   25.90
   9   5  -7    2.70    1.50
   9   5  -7    3.90    1.70
   9  -5  -7    1.90    1.90
   9   5  -6   19.80    3.10
  -9   5   6   20.20    2.60
   9   5  -6   23.80    3.30
   9  -5  -6   22.80    3.20
  -9   5   5  730.93   55.39
   9   5  -5  624.64   67.29
   9   5  -5  719.83   56.99
   9  -5  -5  642.64   55.59
   9   5  -4  255.07   20.10
   9   5  -4  212.78   20.20
  -9   5   4  245.68   19.90
   9   5  -4  229.18   30.10
   9   5  -3   82.69    7.80
   9   5  -3   66.89   14.40
  -9   5   3   90.69    7.50
   9   5  -3   73.79    7.50
   9   5  -3   66.99    7.80
  -9  -5   3   80.39    7.40
   9   5  -2   49.40    5.80
   9   5  -2   57.99   14.40
   9   5  -2   58.99    5.60
  -9   5   2   52.79    5.50
  -9  -5   2   48.70    5.20
  -9  -5   2   44.80   14.60
  -9   5   1   68.69    6.60
   9   5  -1   74.59    6.90
   9   5  -1   53.59    6.00
   9   5  -1   57.69    6.70
  -9  -5   1   62.09    6.00
  -9  -5   1   40.20   13.50
   9   5   0 1466.05  114.19
  -9   5   0 1491.95  114.39
   9   5   0 1233.18  113.29
  -9  -5   0 1498.05  132.19
  -9  -5   0 1422.66  113.49
   9   5   1 1758.02  135.99
  -9   5  -1 1652.73  136.29
   9   5   1 1602.24  135.09
  -9  -5  -1 1785.92  135.39
  -9  -5  -1 1641.34  152.48
  -9   5  -2   51.39    6.70
  -9  -5  -2   63.69   20.30
  -9  -5  -2   59.69    6.00
  -9   5  -3   48.50    6.40
  -9  -5  -3   57.39    5.90
  -9   5  -4   87.69    9.60
  -9  -5  -4   96.39    9.20
  -9   5  -5  684.73   59.79
  -9  -5  -5  770.72   59.69
   9   6  -6  192.48   18.10
   9   6  -6  230.08   18.30
   9  -6  -6  204.68   18.30
   9   6  -5    8.30    2.20
   9   6  -5    8.90    2.40
   9   6  -4   39.30    5.10
   9   6  -4   54.59   23.30
   9   6  -4   45.70    4.90
   9   6  -4   43.20    4.90
  -9   6   4   42.30    4.50
  -9  -6   4   44.20    4.70
   9   6  -3  134.99   11.90
   9   6  -3  129.49   12.20
  -9   6   3  140.19   11.70
   9   6  -3  110.09   20.90
   9   6  -3  133.79   12.20
  -9  -6   3  125.19   11.50
   9   6  -2  476.65   39.70
   9   6  -2  468.75   39.80
   9   6  -2  431.56   39.10
  -9   6   2  524.95   39.40
  -9  -6   2  483.05   39.00
  -9   6   1  493.85   39.70
   9   6  -1  489.65   40.00
   9   6  -1  437.56   39.20
  -9  -6   1  496.25   39.20
   9   6   0   56.79    5.90
   9   6   0   45.60    5.10
  -9   6   0   48.40    5.80
  -9  -6   0   50.79    5.10
  -9   6  -1  138.59   14.00
   9   6   1  143.29   13.00
   9   6   1  151.68   13.80
  -9  -6  -1  169.28   13.50
   9   6   3   26.10    3.60
  -9   6  -3   24.10    4.00
  -9  -6  -3   24.90    3.60
   9   6   4 1476.65  113.39
  -9   6  -4 1197.58  113.79
  -9  -6  -4 1555.44  113.79
  -9   6  -5   28.70    4.20
   9   6   5   23.10    4.70
  -9  -6  -5   24.20    4.10
   9   7  -5   25.50    3.50
   9   7  -5   23.10    3.70
  -9  -7   5   26.10    3.10
   9   7  -4   65.19    6.90
   9   7  -4   72.89    7.30
  -9  -7   4   72.89    6.70
  -9   7   3    5.90    1.70
   9   7  -3    7.40    2.00
   9   7  -3    3.40    1.40
   9   7  -3    2.80    1.70
  -9  -7   3    3.30    1.30
  -9   7   2   67.39    6.70
   9   7  -2   67.79    6.80
   9   7  -2   71.39    7.40
  -9  -7   2   72.29    6.70
   9   7  -1   42.30    4.50
   9   7  -1   34.70    4.90
  -9   7   1   41.70    4.70
  -9  -7   1   42.50    4.40
  -9   7   0   80.69    8.20
   9   7   0   87.39    8.50
   9   7   0   83.59    7.80
  -9  -7   0   83.19    7.90
  -9   7  -1  204.98   19.50
   9   7   1  232.48   19.60
  -9  -7  -1  237.38   19.30
  -9   7  -2  442.06   40.80
   9   7   2  516.15   40.70
  -9  -7  -2  517.65   40.60
   9   7   3  948.81   71.79
  -9   7  -3  752.52   71.89
  -9  -7  -3  953.70   71.89
   9   8  -3   21.20    3.60
   9   8  -3   10.30    2.30
  -9  -8   3   15.40    2.20
   9   8  -2  158.88   13.00
   9   8  -2  129.39   12.30
  -9  -8   2  138.19   12.90
   9   8  -1   24.70    3.20
   9   8  -1   31.10    3.90
  -9  -8   1   27.30    3.40
   9   8   0  371.86   32.90
   9   8   0  411.56   33.60
  -9  -8   0  428.36   34.20
   9   8   1    1.50    1.30
  -9   8  -1    1.80    1.20
  -9  -8  -1    2.90    1.50
  10   0  -8 1566.74  126.09
  10   0  -7    3.90    1.80
  10   0  -6 1562.84  128.79
  10   0  -6 1657.53  144.19
  10   0  -5    7.20    5.70
  10   0  -4  103.49    9.40
  10   0  -4  103.39   17.10
  10   0  -3   13.00    5.70
  10   0  -3    2.90    1.10
 -10   0   2 2173.28  173.18
 -10   0   1    1.80    0.80
 -10   0   0  720.93   57.99
 -10   0  -1   27.00    3.10
 -10   0  -2   35.20    4.00
 -10   0  -2   31.10    3.70
 -10   0  -3    2.20    1.50
 -10   0  -3    1.60    0.90
 -10   0  -4 1184.78   91.19
 -10   0  -4 1068.79   90.19
 -10   0  -5    0.80    1.00
 -10   0  -6  131.69   12.40
 -10   0  -6  135.89   11.70
  10   1  -8  119.49   11.10
  10  -1  -8  115.89   11.00
  10   1  -7  639.24   52.09
  10   1  -7  639.24   70.49
  10  -1  -7  620.44   51.99
  10  -1  -7  640.24   69.89
  10   1  -6  340.47   39.60
  10   1  -6  326.07   26.80
  10  -1  -6  302.37   26.60
  10  -1  -6  296.17   38.40
  10   1  -5 1935.41  147.49
  10   1  -5 1903.91  160.58
  10  -1  -5 1710.83  147.19
  10  -1  -5 1816.92  159.88
  10   1  -4  889.11   77.39
  10   1  -4  758.52   65.99
  10   1  -4  853.11   66.29
  10  -1  -4  840.22   76.29
  10  -1  -4  787.22   66.09
  10   1  -3  489.75   46.50
  10   1  -3  487.95   37.80
  10   1  -3  452.95   37.80
 -10   1   3  416.16   37.40
  10  -1  -3  493.65   44.90
  10   1  -2   89.99   13.50
 -10   1   2   88.69    8.00
  10   1  -2  101.69    8.60
 -10  -1   2   91.99    8.30
 -10   1   1    8.90    1.40
 -10  -1   1    9.00    1.50
 -10   1   0   92.99    7.90
 -10   1   0   81.39    7.90
 -10  -1   0   91.49    7.90
 -10  -1   0   82.79   13.70
 -10   1  -1   10.90    2.00
 -10  -1  -1   16.30    3.30
 -10  -1  -1   23.80    8.00
 -10  -1  -1   12.30    1.80
 -10   1  -2  255.17   22.70
 -10   1  -2  298.27   24.30
 -10  -1  -2  248.78   22.80
 -10  -1  -2  285.97   22.80
 -10   1  -3   97.09    9.60
 -10   1  -3  113.99    9.80
 -10   1  -3   98.69    8.80
 -10  -1  -3  117.09    9.80
 -10  -1  -3   91.49    9.20
 -10   1  -4  702.43   51.69
 -10   1  -4  616.84   50.49
 -10   1  -4  564.74   51.09
 -10  -1  -4  710.43   51.69
 -10  -1  -4  545.05   50.79
 -10   1  -5  601.14   47.90
 -10  -1  -5  530.15   46.70
 -10   1  -6    7.20    1.70
 -10   1  -6    9.80    1.90
 -10   1  -6    7.80    1.90
 -10  -1  -6    9.80    2.00
 -10  -1  -6   10.10    2.30
  10   2  -8  192.48   19.40
  10   2  -8  245.28   20.20
  10  -2  -8  259.97   20.20
  10   2  -7   31.50    4.30
  10   2  -7   28.50   12.70
  10   2  -7   36.00    4.00
  10  -2  -7   27.20   16.00
  10  -2  -7   35.70    4.40
  10   2  -6  828.72   80.19
  10   2  -6  832.72   66.49
  10  -2  -6  813.62   79.99
  10  -2  -6  795.62   66.39
  10   2  -5  156.48   25.90
  10   2  -5  139.89   13.90
  10   2  -5  191.28   14.60
  10  -2  -5  160.08   14.10
  10  -2  -5  158.38   23.70
 -10   2   4 1821.12  137.89
  10   2  -4 2012.30  151.78
  10   2  -4 1511.25  138.39
  10   2  -4 1896.01  138.79
  10  -2  -4 1541.15  138.29
  10  -2  -4 1655.43  147.49
 -10   2   3    9.40    1.30
  10   2  -3    6.60    1.70
  10   2  -3    6.70    6.80
 -10   2   2   24.50    2.70
  10   2  -2   29.10    3.40
  10   2  -2   30.20    3.10
  10   2  -2   48.10    9.50
 -10  -2   2   24.40    3.00
 -10   2   1 1184.48   94.09
 -10  -2   1 1171.08   94.49
 -10   2   0  625.74   48.20
 -10   2   0  581.54   48.50
 -10  -2   0  606.54   48.30
 -10  -2   0  557.14   57.69
 -10   2  -1   29.60    3.70
 -10   2  -1   29.70    3.30
 -10  -2  -1   29.70    3.10
 -10  -2  -1   31.00    3.40
 -10  -2  -1   24.90    8.30
 -10   2  -2  108.59    9.40
 -10   2  -2  108.79    9.80
 -10  -2  -2  107.29    9.50
 -10  -2  -2   95.49    9.10
 -10  -2  -2   82.19   18.40
 -10   2  -3  325.27   25.60
 -10   2  -3  297.77   25.80
 -10  -2  -3  254.57   25.00
 -10  -2  -3  344.37   25.80
 -10   2  -4  103.49    9.40
 -10   2  -4   84.19    9.30
 -10  -2  -4  107.09    9.60
 -10   2  -5    3.30    1.60
 -10   2  -5    5.70    1.70
 -10  -2  -5   10.50    2.40
 -10   2  -6  971.20   80.99
 -10  -2  -6  980.00   81.29
 -10  -2  -6 1060.29   80.89
  10   3  -8  100.69    9.10
  10   3  -8   80.89    8.50
  10  -3  -8   99.69    8.90
  10   3  -7 1245.38  117.09
  10   3  -7 1593.04  117.79
  10  -3  -7 1550.04  117.69
  10   3  -6  162.58   24.20
  10  -3  -6  107.99   21.90
  10   3  -5   20.30    3.00
  10   3  -5   20.20    8.10
  10   3  -5   27.50    3.40
  10  -3  -5   20.60    3.00
  10   3  -4  431.96   32.50
  10   3  -4  334.57   32.30
  10   3  -4  422.36   43.40
  10   3  -3  858.01   75.89
  10   3  -3  815.42   65.49
  10   3  -3  791.32   65.69
 -10  -3   3  788.02   65.39
  10   3  -2  950.90   86.09
  10   3  -2  920.91   76.79
  10   3  -2 1008.80   77.39
 -10  -3   2  940.61   76.79
 -10   3   1  683.23   54.39
  10   3  -1  647.04   54.09
 -10  -3   1  679.83   54.19
  10   3   0  148.79   12.90
 -10   3   0  161.68   13.30
 -10  -3   0  164.48   23.60
 -10  -3   0  124.29   12.40
 -10  -3   0  160.68   12.90
 -10   3  -1  316.67   24.40
 -10  -3  -1  267.07   33.70
 -10  -3  -1  242.68   23.20
 -10  -3  -1  309.57   23.80
 -10   3  -2  418.26   35.60
 -10  -3  -2  433.96   35.10
 -10  -3  -2  419.26   46.50
 -10   3  -3 1245.48  105.79
 -10  -3  -3 1373.86  105.49
 -10   3  -4  135.09   12.40
 -10   3  -4  137.89   13.10
 -10  -3  -4  154.28   13.10
 -10   3  -5  105.79   10.40
 -10   3  -5  103.99    9.90
 -10  -3  -5  124.19   10.70
 -10  -3  -6  251.77   22.40
 -10  -3  -6  272.87   22.00
  10   4  -7   48.70    5.30
  10   4  -7   39.10    4.90
  10  -4  -7   53.49    5.30
  10   4  -6  249.97   33.30
  10   4  -6  261.87   21.40
  10   4  -6  213.88   21.10
  10  -4  -6  270.07   21.20
  10   4  -5   15.10    8.20
  10   4  -5    8.10    2.10
  10   4  -5   13.30    2.30
  10  -4  -5   10.80    2.40
  10   4  -4  454.75   34.30
  10   4  -4  434.96   45.10
  10   4  -4  358.76   34.20
  10   4  -3 1468.85  135.09
  10   4  -3 1494.55  124.79
 -10   4   3 1759.22  124.79
  10   4  -3 1489.45  125.19
 -10  -4   3 1557.74  124.79
  10   4  -2  466.25   42.60
  10   4  -2  611.84   43.40
  10   4  -2  538.15   43.30
  10   4  -2  500.75   52.09
 -10   4   2  553.14   42.90
 -10  -4   2  471.95   42.50
  10   4  -1   34.80    4.00
 -10   4   1   35.70    4.40
  10   4  -1   41.60    4.70
 -10  -4   1   43.80    4.30
 -10   4   0  964.20   72.89
  10   4   0  798.02   71.89
 -10  -4   0  946.11   87.29
 -10  -4   0  898.81   72.19
 -10   4  -1  168.38   15.30
 -10  -4  -1  167.28   14.60
 -10  -4  -1  169.58   26.00
 -10   4  -2  546.25   45.30
 -10  -4  -2  535.35   58.79
 -10  -4  -2  544.95   44.50
 -10   4  -3   97.29   10.00
 -10  -4  -3  102.39    9.50
 -10   4  -4  238.68   21.70
 -10  -4  -4  258.37   21.50
 -10   4  -5  775.52   68.59
 -10  -4  -5  912.81   68.79
  10   5  -6  221.08   22.30
 -10   5   6  307.27   22.00
  10   5  -6  262.47   22.50
  10   5  -5  751.32   74.69
  10   5  -5  646.94   62.99
 -10   5   5  903.91   62.69
  10   5  -5  790.92   63.09
  10   5  -4   87.69   17.50
  10   5  -4   90.39    9.10
 -10   5   4  105.39    8.60
  10   5  -4   96.09    9.60
 -10  -5   4   76.49    9.40
  10   5  -3   91.19   17.10
  10   5  -3   77.89    8.90
  10   5  -3   89.39    8.70
  10   5  -3  106.79    9.10
 -10   5   3  101.29    8.70
 -10  -5   3   92.49    8.60
  10   5  -2  573.44   47.10
  10   5  -2  483.35   46.40
 -10   5   2  615.24   46.80
  10   5  -2  648.54   47.30
 -10  -5   2  560.04   46.40
 -10  -5   2  533.55   61.99
  10   5  -1  307.67   23.70
  10   5  -1  236.58   22.70
 -10   5   1  296.87   23.40
 -10  -5   1  261.07   22.80
 -10  -5   1  269.27   37.30
 -10   5   0  396.36   30.80
  10   5   0  410.46   30.70
  10   5   0  314.87   29.70
 -10  -5   0  353.76   29.90
 -10  -5   0  323.67   43.70
  10   5   1 2476.25  182.48
 -10   5  -1 2252.27  182.68
 -10  -5  -1 2143.39  181.78
 -10  -5  -1 2224.08  203.28
  10   5   2  399.76   32.30
 -10   5  -2  371.06   32.80
 -10  -5  -2  384.56   32.00
 -10   5  -3   85.39    9.10
 -10  -5  -3   88.59    8.50
 -10   5  -4  143.99   14.00
 -10  -5  -4  158.88   13.70
 -10   5  -5  452.15   39.90
 -10  -5  -5  511.55   39.90
  10   6  -6   24.60    4.10
 -10  -6   6   34.50    4.20
  10   6  -5  138.59   12.80
  10   6  -5  126.09   12.90
 -10   6   5  166.48   13.70
 -10  -6   5  148.69   12.70
  10   6  -4    1.10    1.50
  10   6  -4    1.20    1.00
 -10   6   4    3.40    1.20
  10   6  -4    5.00    1.60
 -10  -6   4    1.60    1.10
 -10   6   3    3.80    1.50
  10   6  -3    6.40    2.20
  10   6  -3    9.40    2.10
  10   6  -3    5.80    1.80
 -10  -6   3    8.20    1.80
 -10   6   2 1910.61  146.49
  10   6  -2 1998.10  147.09
  10   6  -2 1561.44  145.89
 -10  -6   2 1840.42  145.99
 -10  -6   1  320.37   27.70
  10   6   0  497.45   37.80
 -10   6   0  446.86   37.90
 -10  -6   0  406.66   36.70
  10   6   1  118.49   10.40
 -10   6  -1  105.59   10.50
 -10  -6  -1  100.19    9.80
 -10   6  -2  876.41   77.09
  10   6   2 1032.70   76.79
 -10  -6  -2  928.71   76.39
  10   6   3   62.59    6.20
 -10   6  -3   50.89    6.50
 -10  -6  -3   60.79    6.20
 -10   6  -4  643.64   57.29
  10   6   4  723.93   56.89
 -10  -6  -4  733.93   57.19
  10   7  -4  305.67   26.50
  10   7  -4  319.97   26.90
 -10  -7   4  331.67   26.40
 -10   7   3  278.87   24.00
  10   7  -3  242.58   23.40
  10   7  -3  330.67   24.00
 -10  -7   3  277.27   23.40
 -10   7   2   51.39    5.50
  10   7  -2   57.59    6.00
  10   7  -2   49.70    5.40
 -10  -7   2   58.59    5.50
  10   7  -1  637.54   55.39
 -10   7   1  702.33   55.79
 -10  -7   1  716.63   55.59
  10   7   0   71.29    6.60
 -10   7   0   59.59    6.30
  10   7   0   51.49    5.70
 -10  -7   0   63.99    6.10
 -10   7  -1  819.72   73.99
  10   7   1 1000.40   74.29
 -10  -7  -1  925.11   73.89
 -10   7  -2  146.39   14.30
  10   7   2  176.68   14.30
 -10  -7  -2  158.48   14.00
  11   0  -8  925.81   76.99
  11   0  -7    0.80    1.40
  11   0  -6   45.50   14.60
  11   0  -6   44.40    5.10
  11   0  -5    6.00    1.70
  11   0  -4  165.18   14.30
  11   0  -4  215.18   24.30
 -11   0   4  149.29   13.80
 -11   0   3    0.20    0.50
 -11   0   2  465.65   37.80
 -11   0   1    2.30    0.80
 -11   0   0  147.29   12.00
 -11   0   0  129.99   11.90
 -11   0  -1    1.80    0.90
 -11   0  -1    6.90    1.70
 -11   0  -2 1251.47  107.59
 -11   0  -2 1432.76  107.89
 -11   0  -3    1.90    1.30
 -11   0  -3    1.40    0.80
 -11   0  -3    1.00    1.00
 -11   0  -4 1849.31  132.09
 -11   0  -4 1654.53  131.09
 -11   0  -4 1425.36  131.29
 -11   0  -5    2.30    1.70
 -11   0  -5    2.00    1.10
 -11   0  -5    3.70    1.10
 -11   0  -6  291.97   24.10
 -11   0  -6  277.47   23.40
  11   1  -8  191.18   17.70
  11  -1  -8  187.98   17.20
  11   1  -7  140.29   12.90
  11  -1  -7  145.69   12.90
  11   1  -6  161.78   25.40
  11  -1  -6  163.78   16.20
  11  -1  -6  180.28   27.60
  11   1  -5  347.27   28.70
  11   1  -5  370.86   39.60
  11  -1  -5  327.77   28.40
  11   1  -4  535.45   42.70
  11   1  -4  555.94   52.19
 -11   1   4  492.05   42.20
 -11   1   3   98.19    8.70
  11   1  -3  112.49    9.50
  11   1  -3   99.39   17.30
 -11  -1   3   96.49    8.90
 -11   1   2   87.39    7.50
 -11  -1   2   82.89    7.60
 -11   1   1   11.80    1.70
 -11   1   0  719.03   52.79
 -11   1   0  623.64   52.59
 -11  -1   0  649.14   61.09
 -11  -1   0  576.74   52.39
 -11  -1   0  681.53   52.59
 -11   1  -1 1152.88   96.89
 -11   1  -1 1290.07   96.89
 -11  -1  -1 1293.77   96.89
 -11  -1  -1 1088.79   96.59
 -11   1  -2  291.67   23.40
 -11   1  -2  268.97   23.40
 -11  -1  -2  247.98   23.00
 -11  -1  -2  304.87   23.50
 -11   1  -3 1404.76  106.19
 -11   1  -3 1230.88  105.99
 -11  -1  -3 1195.48  105.69
 -11  -1  -3 1445.96  106.29
 -11   1  -4  458.75   35.50
 -11  -1  -4  422.16   34.10
 -11  -1  -4  366.16   34.20
 -11   1  -5 1794.92  142.89
 -11  -1  -5 1741.83  142.29
 -11  -1  -5 1808.42  142.99
 -11   1  -6   35.00    4.10
 -11   1  -6   33.70    5.60
 -11  -1  -6   48.60    4.90
 -11  -1  -6   44.50    4.30
  11   2  -7  310.57   27.80
  11  -2  -7  354.36   27.90
  11   2  -6  235.98   33.20
  11   2  -6  204.38   16.90
  11   2  -6  161.48   16.30
  11  -2  -6  206.58   16.80
  11   2  -5  223.18   29.10
  11   2  -5  225.78   18.30
  11   2  -5  194.18   18.00
  11   2  -4  146.09   12.60
  11   2  -4  137.99   21.20
  11   2  -4  142.99   12.60
  11   2  -3  193.08   16.10
  11   2  -3  221.18   25.10
 -11  -2   3  173.68   15.90
 -11   2   2  122.39   10.10
 -11  -2   2  117.69   10.50
 -11   2   1   67.69    7.00
 -11   2   1   76.29    6.60
 -11  -2   1   78.79    7.00
 -11   2   0  842.02   63.69
 -11   2   0  783.42   64.09
 -11  -2   0  688.33   63.49
 -11  -2   0  815.82   63.89
 -11  -2   0  851.91   75.89
 -11   2  -1 1261.17   98.29
 -11   2  -1 1241.48   98.59
 -11  -2  -1 1300.27   98.39
 -11  -2  -1 1095.09   97.89
 -11   2  -2  345.67   27.50
 -11   2  -2  338.07   28.00
 -11  -2  -2  355.76   27.80
 -11  -2  -2  292.37   27.20
 -11   2  -3  258.27   21.40
 -11   2  -3  230.38   21.60
 -11  -2  -3  270.77   21.70
 -11   2  -4  765.12   60.59
 -11   2  -4  675.33   60.69
 -11  -2  -4  801.82   60.99
 -11   2  -5  106.59   10.40
 -11  -2  -5  122.29   10.90
 -11  -2  -5  119.79   10.30
 -11   2  -6  971.20   81.39
 -11  -2  -6 1053.99   81.29
  11   3  -7  896.61   79.09
  11  -3  -7 1068.89   80.29
  11   3  -6  367.86   34.20
  11   3  -6  464.95   34.60
  11   3  -5   61.49   14.70
  11   3  -5   45.70    5.60
  11   3  -5   64.39    5.90
  11   3  -4   24.70    8.90
  11   3  -3  787.42   66.29
  11   3  -3  886.61   66.79
  11   3  -3  805.72   75.89
 -11  -3   3  806.32   66.39
  11   3  -2   49.20    4.80
 -11   3   2   44.30    4.90
  11   3  -2   56.29    5.30
 -11  -3   2   43.20    4.80
 -11   3   1  352.36   28.60
 -11  -3   1  287.37   38.80
 -11  -3   1  362.86   28.50
 -11   3   0  352.96   26.40
 -11  -3   0  321.77   25.90
 -11  -3   0  263.27   25.40
 -11  -3   0  322.87   37.90
 -11   3  -1  131.39   11.60
 -11  -3  -1  114.99   22.40
 -11  -3  -1  118.99   11.00
 -11   3  -2  688.83   56.69
 -11  -3  -2  695.73   56.29
 -11   3  -3 1922.41  159.48
 -11  -3  -3 2051.99  159.38
 -11  -3  -4   11.60    2.50
 -11   3  -5  168.68   16.20
 -11  -3  -5  209.78   16.70
  11   4  -7   12.10    2.30
  11   4  -7    9.40    2.80
  11   4  -6  236.28   22.40
  11   4  -6  297.47   22.70
  11   4  -5   68.29    7.60
  11   4  -5   88.49   17.70
  11   4  -5   83.19    7.80
 -11  -4   5   86.89    7.70
 -11   4   4  351.66   26.40
  11   4  -4  322.47   36.40
  11   4  -4  293.57   26.70
  11   4  -4  315.57   26.60
 -11  -4   4  310.17   26.60
 -11   4   3  544.95   41.90
  11   4  -3  501.75   41.90
  11   4  -3  513.05   42.20
  11   4  -3  479.55   51.59
 -11  -4   3  508.95   41.80
 -11   4   2  195.78   15.70
  11   4  -2  173.58   15.40
 -11  -4   2  168.38   15.40
 -11  -4   2  189.98   27.90
  11   4  -1 1555.74  134.19
 -11   4   1 1830.72  134.99
 -11  -4   1 1626.04  149.88
 -11  -4   1 1700.63  134.49
  11   4   0  548.55   42.60
 -11   4   0  526.05   42.70
 -11  -4   0  499.85   42.20
 -11  -4   0  473.95   55.39
 -11   4  -1  107.59   10.50
 -11  -4  -1  110.69    9.90
 -11  -4  -1  101.69   22.10
 -11   4  -2  517.75   44.50
 -11  -4  -2  553.44   44.10
 -11   4  -3  192.08   17.80
 -11  -4  -3  209.38   17.50
 -11   4  -4  173.18   16.20
 -11  -4  -4  191.88   16.10
 -11   4  -5  103.19   10.40
 -11  -4  -5  127.09   10.70
 -11   5   6  479.35   37.70
  11   5  -6  447.76   38.30
  11   5  -5 1032.50   90.19
 -11   5   5 1215.48   89.89
  11   5  -5 1064.89   90.09
 -11  -5   5 1165.18   90.19
  11   5  -4    3.70    1.50
  11   5  -4    1.50    1.20
 -11   5   4    5.10    1.30
  11   5  -3  292.67   27.00
 -11   5   3  361.56   27.20
  11   5  -3  334.07   27.50
 -11  -5   3  317.37   27.00
  11   5  -2   62.19    6.20
 -11   5   2   52.59    6.30
  11   5  -2   54.69    5.90
 -11  -5   2   65.69    7.20
  11   5  -1  790.92   73.29
  11   5  -1 1053.39   74.29
 -11   5   1  970.40   74.09
 -11  -5   1  846.22   73.49
  11   5   0  171.38   15.20
 -11   5   0  189.28   16.20
  11   5   0  148.49   14.00
  11   5   1 1128.19   84.79
 -11   5  -1 1039.80   85.09
 -11  -5  -1  977.80   84.39
  11   5   2  784.72   61.39
 -11   5  -2  699.43   61.69
 -11  -5  -2  777.82   61.29
 -11   5  -3    5.40    1.80
  11   5   3    6.60    1.60
 -11  -5  -3    5.10    1.70
  11   5   4   14.40    2.50
 -11   5  -4   16.70    3.10
 -11  -5  -4   16.80    2.80
  11   6  -5   74.49    8.70
 -11   6   5   98.79    8.20
 -11  -6   5   83.59    7.90
 -11   6   4  324.57   24.90
  11   6  -4  275.67   24.90
  11   6  -4  292.87   25.30
 -11  -6   4  306.67   24.90
  11   6  -3   65.49    7.10
  11   6  -3   89.39    7.50
 -11   6   3   77.69    7.20
 -11  -6   3   75.49    7.20
  11   6  -2 2037.50  152.58
 -11   6   2 1890.51  152.38
 -11  -6   2 1786.82  152.08
  11   6  -1   18.20    3.10
  11   6  -1   16.30    2.40
 -11   6   1   19.00    2.90
 -11  -6   1   16.40    2.60
  11   6   0   76.19    7.60
 -11   6   0   88.39    8.40
  11   6   0   93.69    8.40
 -11  -6   0   84.39    8.00
 -11   6  -1  386.66   34.30
  11   6   1  450.65   34.20
 -11  -6  -1  397.36   33.90
  11   6   2  262.77   21.30
 -11   6  -2  237.68   21.60
 -11  -6  -2  248.58   21.20
  11   6   3   56.19    5.50
 -11   6  -3   50.89    5.90
 -11  -6  -3   50.19    5.60
  11   7  -3  961.70   67.99
  11   7  -3  740.23   67.69
 -11   7   3  828.42   67.79
 -11   7   2   43.90    4.80
  11   7  -2   39.20    5.20
  11   7  -2   53.79    5.90
 -11  -7   2   50.49    4.90
  11   7  -1  789.72   58.29
  11   7  -1  636.24   57.89
 -11  -7   1  723.03   57.89
  11   7   0  244.48   19.60
 -11   7   0  211.48   19.40
 -11  -7   0  231.48   19.30
  11   7   1  270.67   22.90
 -11  -7  -1  271.87   23.50
 -12   0   7    2.00    0.80
  12   0  -7   -0.50    2.50
  12   0  -6   95.99    8.90
 -12   0   5    0.20    0.60
 -12   0   4    2.70    0.90
 -12   0   3    1.70    0.80
 -12   0   2 2260.47  180.18
 -12   0   1    0.00    0.60
 -12   0   0  315.87   24.60
 -12   0   0  277.17   24.60
 -12   0  -1    0.50    0.90
 -12   0  -1    0.40    1.00
 -12   0  -2 3094.69  258.57
 -12   0  -2 3395.66  258.77
 -12   0  -3    7.70    2.90
 -12   0  -4  973.30   89.39
 -12   0  -4 1259.47   90.09
 -12   0  -5    1.60    1.50
 -12   0  -5    3.70    1.30
  12   1  -7    5.30    1.90
  12  -1  -7    6.50    1.70
 -12   1   6  339.07   29.10
  12   1  -6  379.96   29.80
  12   1  -5  156.18   13.50
 -12   1   5  142.39   12.40
 -12   1   4  175.28   14.00
 -12  -1   4  158.38   14.10
 -12   1   3  195.28   15.60
 -12  -1   3  179.68   15.80
 -12   1   2  458.55   37.00
 -12  -1   2  455.45   37.20
 -12   1   1 1835.42  147.99
 -12  -1   1 1875.01  148.19
 -12   1   0   93.69    7.90
 -12   1   0   82.89    8.10
 -12  -1   0   79.29    7.80
 -12  -1   0   90.99    8.00
 -12   1  -1 2984.90  238.18
 -12   1  -1 3015.90  237.98
 -12  -1  -1 2805.02  237.88
 -12  -1  -1 3137.59  238.08
 -12   1  -2  256.47   20.40
 -12   1  -2  228.28   20.40
 -12  -1  -2  267.97   20.60
 -12  -1  -2  212.88   20.10
 -12   1  -3  474.45   39.20
 -12  -1  -3  392.76   39.80
 -12  -1  -3  553.04   39.60
 -12   1  -4   24.30    3.30
 -12   1  -4   35.90    3.90
 -12  -1  -4   25.40    3.10
 -12  -1  -4   29.50    3.70
 -12   1  -5  421.56   34.00
 -12  -1  -5  390.66   33.00
 -12  -1  -5  404.56   33.60
  12   2  -7  152.38   13.70
  12   2  -6  103.69    9.50
  12   2  -5   89.79    7.50
 -12  -2   5   66.89    7.10
  12   2  -4  229.18   18.70
 -12  -2   4  212.78   18.60
 -12  -2   3  727.23   58.69
 -12   2   2   81.99    7.90
 -12  -2   2   89.39    7.90
 -12   2   1   27.90    3.50
 -12  -2   1   25.40   10.60
 -12  -2   1   29.10    3.40
 -12   2   0 2757.72  213.88
 -12  -2   0 2857.91  213.78
 -12  -2   0 2423.66  213.38
 -12   2  -1  165.48   13.90
 -12   2  -1  145.79   13.20
 -12  -2  -1  167.38   13.70
 -12  -2  -1  146.19   13.30
 -12   2  -2  760.82   61.89
 -12   2  -2  762.12   61.39
 -12  -2  -2  844.22   61.89
 -12  -2  -2  678.23   61.19
 -12   2  -3  136.09   11.90
 -12   2  -3  126.89   12.20
 -12  -2  -3  147.19   12.40
 -12   2  -4  397.66   35.90
 -12   2  -4  446.16   35.70
 -12  -2  -4  466.75   36.20
 -12   2  -5  210.68   19.60
 -12   2  -5  214.58   18.90
 -12  -2  -5  239.08   19.40
 -12  -2  -5  239.58   18.90
  12   3  -6    1.80    1.20
  12   3  -6    4.60    1.90
 -12  -3   6    4.50    1.30
  12   3  -5   30.50    3.90
  12   3  -5   37.60    4.00
 -12  -3   5   35.70    3.90
 -12  -3   4  389.26   32.40
  12   3  -3 1165.18   95.79
 -12   3   3 1266.37   96.09
 -12  -3   3 1155.58   95.89
 -12   3   2  362.96   32.40
  12   3  -2  452.35   32.60
 -12  -3   2  369.76   32.30
  12   3  -1  891.41   62.99
 -12   3   1  743.73   62.89
 -12  -3   1  674.53   74.79
 -12  -3   1  761.92   62.69
 -12   3   0  155.58   13.10
 -12  -3   0  151.78   12.70
 -12  -3   0  129.49   12.20
 -12  -3   0  137.29   26.60
 -12   3  -1  281.67   23.90
 -12  -3  -1  279.37   23.60
 -12   3  -2   19.90    3.20
 -12  -3  -2   18.10    2.90
 -12   3  -3 1691.63  142.09
 -12  -3  -3 1851.31  142.09
 -12   3  -4  382.36   34.40
 -12  -3  -4  452.75   34.70
  12   4  -6  205.88   17.40
  12   4  -6  184.58   17.50
 -12  -4   6  225.58   17.60
  12   4  -5   62.69    6.50
 -12   4   5   73.39    6.40
  12   4  -5   65.19    6.50
  12   4  -4  296.17   26.30
 -12   4   4  332.27   26.30
  12   4  -4  317.57   26.50
 -12  -4   4  325.37   26.40
  12   4  -3   44.30    4.90
 -12   4   3   53.49    5.10
 -12  -4   3   48.20    5.00
  12   4  -2  463.75   38.40
  12   4  -1 1584.54  123.49
 -12   4   1 1561.84  124.29
 -12  -4   1 1469.05  123.79
 -12   4   0  447.76   38.00
 -12  -4   0  420.96   37.20
 -12   4  -1  214.68   19.20
 -12  -4  -1  224.38   18.80
 -12   4  -2  292.17   25.90
 -12  -4  -2  318.07   25.70
 -12   4  -3   61.19    6.90
 -12  -4  -3   73.59    6.80
 -12   4  -4  122.99   12.30
 -12  -4  -4  152.38   12.40
  12   5  -5  901.31   86.79
 -12   5   5 1185.28   86.39
  12   5  -5  964.30   85.59
 -12  -5   5 1203.58   85.69
 -12   5   4  646.14   49.99
  12   5  -4  568.54   49.90
 -12  -5   4  633.64   49.99
  12   5  -3   20.00    2.90
 -12   5   3   30.40    3.20
 -12  -5   3   25.00    3.20
  12   5  -2  127.09   10.30
 -12   5   2  111.99   10.30
  12   5  -2  101.29    9.80
 -12  -5   2  114.09   10.20
  12   5  -1  269.77   21.50
 -12   5   1  255.27   21.60
 -12  -5   1  236.58   21.20
  12   5   0   13.20    2.50
 -12   5   0   13.00    2.60
 -12  -5   0   14.50    2.40
  12   5   1  426.46   33.80
 -12   5  -1  390.56   34.00
 -12  -5  -1  406.76   33.70
  12   5   2    3.30    1.20
 -12   5  -2    2.20    1.40
 -12  -5  -2    2.80    1.30
 -12   5  -3    1.00    1.30
  12   5   3    2.20    1.00
 -12  -5  -3    0.70    1.20
 -12   6   3  270.27   21.30
  12   6  -3  219.28   20.60
 -12  -6   3  258.37   20.80
  12   6  -2  572.94   55.09
  12   6  -2  753.42   55.29
 -12   6   2  707.93   55.29
 -12  -6   2  693.53   55.19
  12   6  -1    3.30    1.20
 -12   6   1    4.60    1.40
 -12  -6   1    4.20    1.50
 -12   6   0   43.20    4.80
  12   6   0   40.60    4.60
 -12  -6   0   42.60    4.60
  12   6   1   78.99    7.40
 -12   6  -1   75.39    7.60
 -12  -6  -1   78.49    7.40
 -13   0   6   79.69    7.00
 -13   0   5    2.60    0.90
 -13   0   4 1019.10   81.69
 -13   0   3    3.90    1.20
 -13   0   2 3426.16  272.67
 -13   0   1    1.20    1.00
 -13   0   1    6.40    1.40
 -13   0   0  201.38   17.00
 -13   0   0  197.68   16.90
 -13   0  -1    7.70    1.80
 -13   0  -1    5.10    1.50
 -13   0  -2  557.04   47.70
 -13   0  -2  616.24   47.90
 -13   0  -3    1.60    1.10
 -13   0  -3    3.00    1.30
 -13   0  -4   14.90    2.30
 -13   0  -4   15.30    2.40
 -13  -1   6  256.37   21.20
 -13   1   5 1045.70   80.39
 -13  -1   5  962.70   80.49
 -13   1   4  178.68   14.20
 -13  -1   4  160.88   14.30
 -13   1   3  811.42   63.09
 -13  -1   3  761.52   63.29
 -13   1   2  144.39   12.20
 -13   1   2  142.59   12.60
 -13  -1   2  144.19   12.40
 -13   1   1 1434.96  112.89
 -13   1   1 1445.76  113.29
 -13  -1   1 1319.67  112.99
 -13  -1   1 1447.16  113.09
 -13   1   0   76.09    7.60
 -13   1   0   79.19    7.30
 -13  -1   0   81.39    7.40
 -13  -1   0   83.09    7.50
 -13   1  -1  567.44   46.80
 -13   1  -1  576.04   48.20
 -13  -1  -1  536.85   47.60
 -13  -1  -1  629.84   47.90
 -13   1  -2  465.95   39.50
 -13   1  -2  493.05   39.30
 -13  -1  -2  517.95   39.60
 -13  -1  -2  448.46   39.20
 -13   1  -3    5.00    1.40
 -13   1  -3    4.20    1.50
 -13  -1  -3    5.00    1.50
 -13   1  -4  167.08   15.70
 -13   1  -4  145.79   15.30
 -13  -1  -4  199.78   15.10
 -13  -2   6  565.84   45.80
 -13  -2   5  172.48   14.60
 -13  -2   4  910.81   73.19
 -13  -2   3   59.59    5.90
 -13   2   2  611.84   50.69
 -13  -2   2  635.14   50.59
 -13   2   1  567.34   45.50
 -13  -2   1  522.85   45.00
 -13  -2   1  579.74   45.30
 -13   2   0 2061.29  148.69
 -13  -2   0 1654.83  146.99
 -13  -2   0 1815.32  147.39
 -13   2  -1    1.10    1.10
 -13  -2  -1    3.20    1.30
 -13  -2  -1    2.20    1.10
 -13   2  -2   32.10    4.00
 -13  -2  -2   33.40    3.90
 -13   2  -3  229.88   20.80
 -13  -2  -3  262.87   21.00
 -13  -2  -4   26.60    3.00
 -13  -2  -4   29.90    3.60
  13   3  -6   83.89    8.40
 -13  -3   6  101.39    8.70
 -13  -3   5    3.00    1.10
 -13   3   4  247.18   19.60
 -13  -3   4  218.18   19.40
 -13   3   3 1847.42  141.49
 -13  -3   3 1688.33  141.29
 -13   3   2  101.69    9.70
 -13  -3   2  111.99    9.70
  13   3  -1  332.37   24.10
 -13   3   1  276.57   24.20
 -13  -3   1  301.17   24.10
 -13  -3   1  245.48   23.60
 -13   3   0  304.67   26.40
 -13  -3   0  323.87   26.30
 -13   3  -1  121.69   11.80
 -13  -3  -1  137.39   11.70
 -13   3  -2  207.68   18.70
 -13  -3  -2  227.08   18.70
 -13   3  -3  512.45   45.10
 -13  -3  -3  590.94   45.20
 -13   4   5   31.40    3.30
  13   4  -5   29.50    4.10
 -13  -4   5   28.80    3.40
 -13   4   4  295.27   24.40
 -13  -4   4  294.67   24.50
 -13   4   3   49.10    4.60
 -13  -4   3   37.70    4.50
  13   4  -2  233.18   18.90
 -13   4   2  225.58   19.20
 -13  -4   2  217.48   19.00
  13   4  -1   20.10    2.70
 -13   4   1   20.80    3.00
 -13  -4   1   15.50    2.60
 -13   4   0  487.65   41.60
  13   4   0  506.95   41.30
 -13  -4   0  520.85   41.40
 -13   4  -1 1269.37  106.09
  13   4   1 1318.17  105.79
 -13  -4  -1 1367.56  105.99
 -13   4  -2  222.78   20.50
 -13  -4  -2  256.07   20.40
 -13   5   4  244.08   20.00
 -13  -5   4  234.88   20.00
 -13   5   3   20.50    2.70
 -13   5   2   62.89    5.90
  13   5  -2   49.30    6.10
 -13  -5   2   62.89    5.90
  13   5  -1  273.37   22.90
 -13   5   1  281.77   23.30
 -13  -5   1  272.27   23.00
 -13   5   0  280.37   23.70
  13   5   0  275.27   23.30
 -13  -5   0  285.77   23.50
  13   5   1  333.57   27.10
 -13   5  -1  317.97   27.40
 -13  -5  -1  330.87   27.20
 -14   0   5    3.20    1.30
 -14   0   4  905.21   72.49
 -14   0   3    0.30    0.70
 -14   0   2  468.15   40.10
 -14   0   2  516.15   40.00
 -14   0   1    0.80    0.80
 -14   0   1    5.00    1.20
 -14   0   0  305.57   25.00
 -14   0   0  297.67   25.10
 -14   0  -1    0.30    1.00
 -14   0  -1    2.00    1.00
 -14   0  -2  212.48   17.40
 -14   0  -2  196.78   17.30
 -14   0  -3   -0.30    1.00
 -14   0  -3    1.20    1.40
 -14  -1   5  971.70   77.89
 -14  -1   4  517.65   41.90
 -14   1   3  129.79   11.60
 -14  -1   3  135.99   11.40
 -14   1   2   41.50    4.30
 -14   1   2   33.40    3.90
 -14  -1   2   41.60    4.20
 -14  -1   2   43.90    4.20
 -14   1   1   85.29    7.50
 -14   1   1   87.49    7.90
 -14  -1   1   77.59    7.70
 -14  -1   1   85.89    7.70
 -14   1   0   53.79    5.50
 -14   1   0   48.40    5.00
 -14  -1   0   53.49    5.20
 -14  -1   0   54.99    5.30
 -14   1  -1    5.70    1.50
 -14   1  -1   11.50    1.90
 -14  -1  -1    6.40    1.40
 -14  -1  -1    7.40    1.60
 -14   1  -2   20.80    2.90
 -14   1  -2   19.80    2.70
 -14  -1  -2   16.90    2.50
 -14  -1  -2   22.60    2.80
 -14   1  -3   17.30    2.70
 -14   1  -3   21.80    2.80
 -14  -1  -3   24.90    3.70
 -14  -2   5    1.20    0.70
 -14   2   4  371.96   30.00
 -14  -2   4  356.26   29.80
 -14   2   3   66.29    6.50
 -14  -2   3   68.29    6.30
 -14   2   2   89.49    8.10
 -14  -2   2   86.19    7.90
 -14  -2   2   83.69    7.70
  14   2  -1  675.73   52.19
 -14   2   1  661.13   52.59
 -14  -2   1  595.94   52.19
 -14  -2   1  654.03   52.39
 -14   2   0  278.67   23.70
 -14  -2   0  271.57   23.30
 -14  -2   0  297.07   23.60
 -14   2  -1   87.29    8.40
 -14  -2  -1   88.89    8.20
 -14   2  -2   31.80    3.90
 -14  -2  -2   33.70    3.80
 -14   3   4   70.39    6.60
 -14  -3   4   70.79    6.50
 -14   3   3 1012.00   78.89
 -14  -3   3  947.51   78.69
 -14   3   2  466.15   36.70
 -14  -3   2  455.95   36.50
 -14  -3   2  419.56   36.20
 -14   3   1   11.80    2.30
 -14  -3   1    7.80    1.80
 -14   3   0   56.09    6.10
  14   3   0   54.69    5.60
 -14  -3   0   66.99    6.00
 -14   3  -1   52.09    5.20
 -14  -3  -1   40.90    4.80
 -14   3  -2   35.20    4.40
 -14  -3  -2   42.40    4.40
 -14   4   3  371.66   30.20
 -14  -4   3  361.66   30.10
 -14   4   2  181.58   15.70
 -14  -4   2  184.48   15.60
  14   4  -1    4.20    1.50
 -14   4   1    5.50    1.70
 -14  -4   1    2.50    1.30
 -14   4   0  293.97   25.40
  14   4   0  308.47   26.00
 -14  -4   0  307.77   25.30
  14   4   1  330.17   27.80
 -14   4  -1  335.27   28.20
 -14  -4  -1  347.87   28.00
 -15   0   4   52.39    4.90
 -15   0   3    6.90    1.50
 -15   0   3    0.60    1.60
 -15   0   2   40.20    3.80
 -15   0   2   34.90    4.00
 -15   0   1   -0.30    0.90
 -15   0   1    1.10    0.90
 -15   0   0  116.89   10.10
 -15   0   0  108.39   10.00
 -15   0  -1    1.00    1.40
 -15   0  -1    0.80    1.10
 -15   1   4  261.27   21.40
 -15  -1   4  253.17   21.10
 -15   1   3   72.99    6.70
 -15  -1   3   67.19    6.50
 -15  -1   3   72.59    6.40
 -15   1   2  215.28   18.10
 -15  -1   2  219.08   17.90
 -15  -1   2  208.58   17.90
 -15   1   1   32.80    4.00
 -15  -1   1   35.00    3.90
 -15  -1   1   42.90    4.00
 -15   1   0   11.00    2.10
 -15  -1   0    8.30    1.70
 -15   1  -1  175.48   14.10
 -15  -1  -1  140.09   13.20
 -15   2   3   17.10    2.50
 -15  -2   3   19.80    2.90
 -15  -2   3   16.50    2.40
 -15   2   2    1.20    1.00
 -15  -2   2    2.10    0.90
 -15  -2   2    4.30    1.30
 -15   2   1    0.60    1.00
 -15  -2   1    2.80    1.10
 -15  -2   1    6.20    1.30
  15   2   0  379.16   30.50
 -15   2   0  364.46   31.00
 -15  -2   0  380.76   30.80
 -15  -2  -1  521.25   42.80
 -15   3   2    3.00    1.20
 -15  -3   2    3.70    2.20
 -15   3   1    6.80    1.90
 -15  -3   1    6.50    1.80
   0   0   0    0.00    0.00

_computing_structure_solution     'SHELXT 2014/5 (Sheldrick, 2014)'
;
_shelx_hkl_checksum              42959
loop_
_space_group_symop_operation_xyz
'x, y, z'
'-x, y+1/2, -z+1/2'
'-x, -y, -z'
'x, -y-1/2, z-1/2'
loop_
_atom_site_label
_atom_site_type_symbol
_atom_site_fract_x
_atom_site_fract_y
_atom_site_fract_z
_atom_site_U_iso_or_equiv
_atom_site_adp_type
_atom_site_occupancy
_atom_site_site_symmetry_order
_atom_site_calc_flag
_atom_site_refinement_flags_posn
_atom_site_refinement_flags_adp
_atom_site_refinement_flags_occupancy
_atom_site_disorder_assembly
_atom_site_disorder_group
C1 C 0.5631(7) 0.3898(10) 0.5806(10) 0.0241(17) Uani 1 1 d . U . . .
C2 C 0.4652(6) 0.4194(10) 0.6211(10) 0.0248(17) Uani 1 1 d . . . . .
C3 C 0.4005(7) 0.5287(10) 0.5428(10) 0.0244(17) Uani 1 1 d . U . . .
C4 C 0.2943(6) 0.5630(11) 0.5846(12) 0.0301(19) Uani 1 1 d . . . . .
H4A H 0.292042 0.536727 0.696049 0.036 Uiso 1 1 calc R U . . .
H4B H 0.279204 0.674959 0.570223 0.036 Uiso 1 1 calc R U . . .
F1 F 0.6213(4) 0.2806(7) 0.6589(7) 0.0414(14) Uani 1 1 d . . . . .
F2 F 0.4362(4) 0.3399(8) 0.7424(7) 0.0422(14) Uani 1 1 d . . . . .
I1 I -0.03849(4) 0.18260(6) 0.80944(6) 0.0244(2) Uani 1 1 d . . . . .
I2 I 0.24399(4) 0.43784(7) 1.06423(7) 0.0293(2) Uani 1 1 d . . . . .
N1 N 0.2151(6) 0.4695(9) 0.4814(9) 0.0280(16) Uani 1 1 d . U . . .
H1A H 0.224892 0.480324 0.379379 0.042 Uiso 1 1 calc R U . . .
H1B H 0.151534 0.504019 0.493411 0.042 Uiso 1 1 calc R U . . .
H1C H 0.221014 0.367839 0.509066 0.042 Uiso 1 1 calc R U . . .
Pb1 Pb 0.000000 0.500000 1.000000 0.0172(2) Uani 1 2 d S . P . .
loop_
_atom_site_aniso_label
_atom_site_aniso_U_11
_atom_site_aniso_U_22
_atom_site_aniso_U_33
_atom_site_aniso_U_23
_atom_site_aniso_U_13
_atom_site_aniso_U_12
C1 0.0235(19) 0.0242(19) 0.0244(19) -0.0001(10) 0.0023(10) 0.0003(10)
C2 0.011(3) 0.034(4) 0.027(4) -0.001(3) -0.003(3) -0.006(3)
C3 0.0237(19) 0.0249(18) 0.0246(19) -0.0005(10) 0.0030(10) 0.0002(10)
C4 0.012(4) 0.038(5) 0.040(5) -0.008(4) 0.003(4) -0.001(4)
F1 0.021(3) 0.045(3) 0.054(4) 0.015(3) -0.010(2) 0.012(2)
F2 0.030(3) 0.056(3) 0.040(3) 0.015(3) 0.001(2) -0.006(3)
I1 0.0194(3) 0.0278(3) 0.0272(3) -0.01075(19) 0.0072(2) -0.00458(19)
I2 0.0124(3) 0.0360(4) 0.0388(4) -0.0002(2) 0.0012(2) 0.0020(2)
N1 0.023(2) 0.030(2) 0.031(2) -0.0024(17) 0.0015(17) -0.0003(17)
Pb1 0.0105(3) 0.0209(3) 0.0196(3) 0.00063(14) 0.00028(18) -0.00042(14)
loop_
_atom_type_symbol
_atom_type_description
_atom_type_scat_dispersion_real
_atom_type_scat_dispersion_imag
_atom_type_scat_source
C C 0.0137 0.0067 'International Tables Vol C Tables 4.2.6.8 and 6.1.1.4'
H H 0.0000 0.0000 'International Tables Vol C Tables 4.2.6.8 and 6.1.1.4'
F F 0.0583 0.0400 'International Tables Vol C Tables 4.2.6.8 and 6.1.1.4'
I I 0.0030 5.4350 'International Tables Vol C Tables 4.2.6.8 and 6.1.1.4'
N N 0.0241 0.0134 'International Tables Vol C Tables 4.2.6.8 and 6.1.1.4'
Pb Pb -4.4950 6.8412 'International Tables Vol C Tables 4.2.6.8 and 6.1.1.4'
loop_
_geom_angle_atom_site_label_1
_geom_angle_atom_site_label_2
_geom_angle_atom_site_label_3
_geom_angle
_geom_angle_site_symmetry_1
_geom_angle_site_symmetry_3
_geom_angle_publ_flag
F1 C1 C2 119.1(8) . . ?
F1 C1 C3 119.9(8) . 3_666 ?
C2 C1 C3 121.0(8) . 3_666 ?
F2 C2 C3 120.1(8) . . ?
F2 C2 C1 117.9(8) . . ?
C3 C2 C1 122.0(8) . . ?
C2 C3 C1 117.0(8) . 3_666 ?
C2 C3 C4 123.0(8) . . ?
C1 C3 C4 120.0(8) 3_666 . ?
N1 C4 C3 110.1(7) . . ?
N1 C4 H4A 109.6 . . ?
C3 C4 H4A 109.6 . . ?
N1 C4 H4B 109.6 . . ?
C3 C4 H4B 109.6 . . ?
H4A C4 H4B 108.2 . . ?
Pb1 I1 Pb1 144.870(17) 2_546 . ?
C4 N1 H1A 109.5 . . ?
C4 N1 H1B 109.5 . . ?
H1A N1 H1B 109.5 . . ?
C4 N1 H1C 109.5 . . ?
H1A N1 H1C 109.5 . . ?
H1B N1 H1C 109.5 . . ?
I1 Pb1 I1 180.0 4_566 2_556 ?
I1 Pb1 I1 88.452(6) 4_566 . ?
I1 Pb1 I1 91.548(6) 2_556 . ?
I1 Pb1 I1 91.549(6) 4_566 3_567 ?
I1 Pb1 I1 88.451(6) 2_556 3_567 ?
I1 Pb1 I1 180.0 . 3_567 ?
I1 Pb1 I2 92.590(14) 4_566 . ?
I1 Pb1 I2 87.410(14) 2_556 . ?
I1 Pb1 I2 91.700(14) . . ?
I1 Pb1 I2 88.300(14) 3_567 . ?
I1 Pb1 I2 87.410(14) 4_566 3_567 ?
I1 Pb1 I2 92.590(14) 2_556 3_567 ?
I1 Pb1 I2 88.300(14) . 3_567 ?
I1 Pb1 I2 91.701(14) 3_567 3_567 ?
I2 Pb1 I2 180.00(2) . 3_567 ?
loop_
_geom_bond_atom_site_label_1
_geom_bond_atom_site_label_2
_geom_bond_distance
_geom_bond_site_symmetry_2
_geom_bond_publ_flag
C1 F1 1.324(10) . ?
C1 C2 1.393(12) . ?
C1 C3 1.397(12) 3_666 ?
C2 F2 1.334(11) . ?
C2 C3 1.369(12) . ?
C3 C4 1.508(12) . ?
C4 N1 1.494(11) . ?
C4 H4A 0.9800 . ?
C4 H4B 0.9800 . ?
I1 Pb1 3.1614(5) 2_546 ?
I1 Pb1 3.1627(5) . ?
I2 Pb1 3.2034(5) . ?
N1 H1A 0.9000 . ?
N1 H1B 0.9000 . ?
N1 H1C 0.9000 . ?
