#------------------------------------------------------------------------------
#$Date: 2021-07-02 12:55:01 +0300 (Fri, 02 Jul 2021) $
#$Revision: 266907 $
#$URL: file:///home/coder/svn-repositories/cod/cif/1/56/38/1563898.cif $
#------------------------------------------------------------------------------
#
# This file is available in the Crystallography Open Database (COD),
# http://www.crystallography.net/
#
# All data on this site have been placed in the public domain by the
# contributors.
#
data_1563898
loop_
_publ_author_name
'Mistry, Subhradeep'
'Natarajan, Srinivasan'
_publ_section_title
;
 Synthesis, structures and magnetic studies of new copper-azides
;
_journal_name_full               'Inorganica Chimica Acta'
_journal_page_first              26
_journal_page_last               38
_journal_paper_doi               10.1016/j.ica.2018.08.001
_journal_volume                  483
_journal_year                    2018
_chemical_formula_moiety         'C6 H20 Cu7 N46'
_chemical_formula_sum            'C6 H20 Cu7 N46'
_chemical_formula_weight         1181.46
_space_group_crystal_system      triclinic
_space_group_IT_number           2
_space_group_name_Hall           '-P 1'
_space_group_name_H-M_alt        'P -1'
_atom_sites_solution_hydrogens   geom
_audit_creation_method           SHELXL-2014/7
_cell_angle_alpha                102.000(3)
_cell_angle_beta                 96.837(3)
_cell_angle_gamma                109.054(3)
_cell_formula_units_Z            1
_cell_length_a                   8.4313(5)
_cell_length_b                   9.7110(6)
_cell_length_c                   11.9231(8)
_cell_measurement_reflns_used    3433
_cell_measurement_temperature    100(2)
_cell_measurement_theta_max      26.000
_cell_measurement_theta_min      1.783
_cell_volume                     883.93(10)
_computing_cell_refinement       'CrysAlisPro CCD (Oxford Diffraction, 2009)'
_computing_data_collection       'CrysAlisPro CCD (Oxford Diffraction, 2009)'
_computing_data_reduction        'CrysAlisPro RED (Oxford Diffraction, 2009)'
_computing_structure_refinement  'SHELXL-2014/7 (Sheldrick, 2014)'
_computing_structure_solution    'SHELXL-2014/7 (Sheldrick, 2014)'
_diffrn_ambient_temperature      100(2)
_diffrn_measured_fraction_theta_full 0.993
_diffrn_measured_fraction_theta_max 0.992
_diffrn_measurement_device_type  'Oxford Xcalibur,Eos(Nova) CCD detector'
_diffrn_measurement_method       'f\w scans'
_diffrn_radiation_type           MoK\a
_diffrn_radiation_wavelength     0.71073
_diffrn_reflns_av_R_equivalents  0.0661
_diffrn_reflns_av_unetI/netI     0.0612
_diffrn_reflns_Laue_measured_fraction_full 0.993
_diffrn_reflns_Laue_measured_fraction_max 0.992
_diffrn_reflns_limit_h_max       10
_diffrn_reflns_limit_h_min       -10
_diffrn_reflns_limit_k_max       11
_diffrn_reflns_limit_k_min       -11
_diffrn_reflns_limit_l_max       14
_diffrn_reflns_limit_l_min       -14
_diffrn_reflns_number            13176
_diffrn_reflns_point_group_measured_fraction_full 0.993
_diffrn_reflns_point_group_measured_fraction_max 0.992
_diffrn_reflns_theta_full        25.242
_diffrn_reflns_theta_max         26.000
_diffrn_reflns_theta_min         1.783
_diffrn_source                   'Enhance (Mo) X-ray Source'
_exptl_absorpt_coefficient_mu    4.213
_exptl_absorpt_correction_T_max  0.959
_exptl_absorpt_correction_T_min  0.904
_exptl_absorpt_correction_type   multi-scan
_exptl_absorpt_process_details   'CrysAlis RED (Oxford Diffraction,2009)'
_exptl_crystal_colour            black
_exptl_crystal_density_diffrn    2.219
_exptl_crystal_density_method    'not measured'
_exptl_crystal_description       'rod shaped'
_exptl_crystal_F_000             581
_exptl_crystal_size_max          0.030
_exptl_crystal_size_mid          0.020
_exptl_crystal_size_min          0.010
_refine_diff_density_max         1.199
_refine_diff_density_min         -0.757
_refine_diff_density_rms         0.134
_refine_ls_extinction_coef       .
_refine_ls_extinction_method     none
_refine_ls_goodness_of_fit_ref   1.064
_refine_ls_hydrogen_treatment    constr
_refine_ls_matrix_type           full
_refine_ls_number_parameters     268
_refine_ls_number_reflns         3433
_refine_ls_number_restraints     0
_refine_ls_restrained_S_all      1.064
_refine_ls_R_factor_all          0.0501
_refine_ls_R_factor_gt           0.0365
_refine_ls_shift/su_max          0.002
_refine_ls_shift/su_mean         0.000
_refine_ls_structure_factor_coef Fsqd
_refine_ls_weighting_details
'w=1/[\s^2^(Fo^2^)+(0.0288P)^2^+0.6319P] where P=(Fo^2^+2Fc^2^)/3'
_refine_ls_weighting_scheme      calc
_refine_ls_wR_factor_gt          0.0852
_refine_ls_wR_factor_ref         0.0902
_reflns_Friedel_coverage         0.000
_reflns_Friedel_fraction_full    .
_reflns_Friedel_fraction_max     .
_reflns_number_gt                2755
_reflns_number_total             3433
_reflns_threshold_expression     'I > 2\s(I)'
_cod_data_source_file            CompoundsI-III.cif
_cod_data_source_block           compoundIII
_cod_database_code               1563898
_shelx_shelxl_version_number     2014/7
_shelx_space_group_comment
;
The symmetry employed for this shelxl refinement is uniquely defined
by the following loop, which should always be used as a source of
symmetry information in preference to the above space-group names.
They are only intended as comments.
;
_shelx_res_file
;

    shelx.res created by SHELXL-2014/7

TITL RED in P-1
CELL  0.71073   8.4313   9.7110  11.9231  102.000   96.837  109.054
ZERR     1.00   0.0005   0.0006   0.0008    0.003    0.003    0.003
LATT   1
SFAC  C    H    N    CU
UNIT  6 20 46 7
MERG   2
OMIT     0.00  52.00
FMAP   2
PLAN   20
ACTA
BOND   $H
CONF
L.S.   4
TEMP    23.00
WGHT    0.028800    0.631900
FVAR       0.10548
C1    1    0.469924    0.257200   -0.067078    11.00000    0.01976    0.03469 =
         0.07652    0.02269    0.00024    0.00714
AFIX  23
H1A   2    0.511372    0.366658   -0.043356    11.00000   -1.20000
H1B   2    0.440617    0.225245   -0.151936    11.00000   -1.20000
AFIX   0
C2    1    0.318152    0.198033   -0.021037    11.00000    0.02321    0.03128 =
         0.08249    0.03286    0.01501    0.01124
AFIX  13
H2    2    0.350788    0.248710    0.062886    11.00000   -1.20000
AFIX   0
C3    1    0.163787    0.233411   -0.065645    11.00000    0.02193    0.02897 =
         0.03355    0.01119    0.00294    0.00684
AFIX  33
H3A   2    0.070896    0.188941   -0.029565    11.00000   -1.50000
H3B   2    0.192781    0.340850   -0.046575    11.00000   -1.50000
H3C   2    0.129929    0.192848   -0.149046    11.00000   -1.50000
AFIX   0
N1    3    0.605511    0.206556   -0.026492    11.00000    0.01500    0.01940 =
         0.01560    0.00199    0.00432    0.00326
AFIX  23
H1C   2    0.671317    0.271479    0.039945    11.00000   -1.20000
H1D   2    0.670748    0.202422   -0.079614    11.00000   -1.20000
AFIX   0
N2    3    0.278576    0.036143   -0.028218    11.00000    0.01374    0.01763 =
         0.02151   -0.00014    0.00711    0.00246
AFIX  23
H2A   2    0.216748   -0.019666   -0.098610    11.00000   -1.20000
H2B   2    0.218020    0.010048    0.025283    11.00000   -1.20000
AFIX   0
N3    3   -0.113800    0.254302    0.594577    11.00000    0.01327    0.01702 =
         0.02223    0.00931    0.01008    0.00821
N4    3   -0.162747    0.212236    0.677800    11.00000    0.01053    0.01514 =
         0.02053    0.00518    0.00477    0.00619
N5    3   -0.209619    0.175801    0.757094    11.00000    0.02488    0.03383 =
         0.02545    0.01459    0.01534    0.01454
N6    3   -0.141395    0.013770    0.387809    11.00000    0.01316    0.02038 =
         0.02476   -0.00132    0.00955   -0.00278
N7    3   -0.287063   -0.042443    0.398581    11.00000    0.01379    0.01535 =
         0.01728    0.00541    0.00160    0.00400
N8    3   -0.428009   -0.104477    0.403703    11.00000    0.01103    0.02184 =
         0.02832    0.01403    0.00406    0.00584
N9    3    0.257113    0.344876    0.598749    11.00000    0.01271    0.01760 =
         0.01512    0.00075    0.00776    0.00587
N10   3    0.287395    0.426100    0.697698    11.00000    0.01654    0.01653 =
         0.02102    0.01149    0.01110    0.00984
N11   3    0.317568    0.504702    0.789371    11.00000    0.04302    0.03088 =
         0.01754    0.00473    0.01330    0.02134
N12   3    0.207218    0.162803    0.400480    11.00000    0.00625    0.01888 =
         0.01514    0.00173    0.00408    0.00322
N13   3    0.175549    0.138080    0.294263    11.00000    0.01117    0.01396 =
         0.02183    0.00822    0.00411    0.00653
N14   3    0.142994    0.111566    0.194877    11.00000    0.02396    0.04538 =
         0.01832    0.01167    0.00649    0.01395
N15   3    0.643849    0.460088    0.605108    11.00000    0.00723    0.01106 =
         0.01174   -0.00118    0.00214    0.00084
N16   3    0.674229    0.477388    0.712013    11.00000    0.01189    0.01637 =
         0.01731   -0.00064    0.00598    0.00192
N17   3    0.703865    0.496107    0.810403    11.00000    0.03532    0.04594 =
         0.01819    0.00195    0.00814    0.00966
N18   3    0.587951    0.289848    0.397891    11.00000    0.00831    0.01383 =
         0.01105    0.00018    0.00156    0.00248
N19   3    0.563543    0.192339    0.308802    11.00000    0.00580    0.01042 =
         0.01492    0.00287    0.00386   -0.00040
N20   3    0.540335    0.102488    0.224250    11.00000    0.01689    0.01861 =
         0.01643    0.00127    0.00548    0.00446
N21   3    0.976342    0.400986    0.402653    11.00000    0.00826    0.01419 =
         0.01101   -0.00073    0.00293    0.00288
N22   3    0.939782    0.349550    0.296250    11.00000    0.00757    0.01267 =
         0.02093    0.00496    0.00587    0.00453
N23   3    0.907551    0.299665    0.197035    11.00000    0.01653    0.03595 =
         0.01431   -0.00129    0.00430    0.00459
CU1   4    0.500000    0.000000    0.000000    10.50000    0.01213    0.01396 =
         0.01754    0.00114    0.00548    0.00251
CU2   4    0.035499    0.185047    0.502226    11.00000    0.00737    0.01315 =
         0.01677    0.00383    0.00538    0.00289
CU3   4    0.426284    0.304965    0.504404    11.00000    0.00626    0.01183 =
         0.01494   -0.00078    0.00471    0.00121
CU4   4    0.811388    0.417454    0.509197    11.00000    0.00604    0.01046 =
         0.01105    0.00099    0.00367    0.00139
HKLF    4  1.0  1.00  0.00  0.00  0.00  1.00  0.00  0.00  0.00  1.00

REM  RED in P-1
REM R1 =  0.0365 for    2755 Fo > 4sig(Fo)  and  0.0501 for all    3433 data
REM    268 parameters refined using      0 restraints

END

WGHT      0.0290      0.6211

REM Highest difference peak  1.199,  deepest hole -0.757,  1-sigma level  0.134
Q1    1   0.2821  0.1515 -0.1007  11.00000  0.05    1.20
Q2    1   0.4740  0.2873  0.0106  11.00000  0.05    0.77
Q3    1   0.0000  0.5000  0.0000  10.50000  0.05    0.67
Q4    1   1.0638  0.4938  0.4217  11.00000  0.05    0.67
Q5    1   0.5521  0.1209 -0.0025  11.00000  0.05    0.62
Q6    1   0.8827  0.4026  0.0049  11.00000  0.05    0.52
Q7    1   0.4127  0.2807  0.0825  11.00000  0.05    0.52
Q8    1   0.5879  0.3624  0.5636  11.00000  0.05    0.51
Q9    1   0.5403  0.2233  0.4786  11.00000  0.05    0.50
Q10   1   0.2737  0.2302  0.4543  11.00000  0.05    0.50
Q11   1   0.6618  0.3524  0.4639  11.00000  0.05    0.47
Q12   1   0.1724  0.1425  0.4631  11.00000  0.05    0.47
Q13   1   0.7315  0.3025  0.4238  11.00000  0.05    0.47
Q14   1  -0.0902  0.1261  0.4180  11.00000  0.05    0.46
Q15   1   0.2043  0.3052  0.5104  11.00000  0.05    0.46
Q16   1  -0.3967  0.0025  0.4194  11.00000  0.05    0.45
Q17   1   1.0730  0.3376  0.3827  11.00000  0.05    0.44
Q18   1   0.2083  0.3439 -0.0803  11.00000  0.05    0.43
Q19   1   0.0902  0.2990  0.4824  11.00000  0.05    0.43
Q20   1   0.1153  0.2815  0.5797  11.00000  0.05    0.43
;
_shelx_res_checksum              95380
_shelx_hkl_file
;
  -1   0   0    4.04    0.50
  -1   0   0    4.83    0.45
  -1   0   0    5.34    0.39
  -1   0   0    5.10    0.44
   1   0   0    5.24    0.39
   1   0   0    3.67    0.48
   1   0   0    4.58    0.39
   1   0   0    5.21    0.44
   1   0   0    5.26    0.44
  -2   0   0    5.41    0.50
  -2   0   0    3.77    0.46
  -2   0   0    3.52    0.38
  -2   0   0    4.15    0.39
  -2   0   0    3.68    0.53
   2   0   0    4.79    0.48
   2   0   0    3.11    0.36
   2   0   0    3.88    0.38
   2   0   0    3.40    0.51
   2   0   0    4.18    0.47
  -3   0   0   22.67    1.71
  -3   0   0   23.78    2.13
   3   0   0   20.53    1.72
   3   0   0   23.26    1.91
   3   0   0   23.84    1.73
   3   0   0   19.93    1.74
   3   0   0   25.41    2.11
   3   0   0   22.16    1.87
  -4   0   0    5.49    0.88
  -4   0   0    7.62    0.62
   4   0   0    7.40    0.71
   4   0   0    6.48    0.64
   4   0   0    7.05    0.83
   4   0   0    6.90    0.75
   4   0   0    7.15    0.97
   4   0   0    5.69    0.63
  -5   0   0   28.18    2.55
   5   0   0   22.79    2.03
   5   0   0   28.35    2.06
   5   0   0   24.96    2.24
   5   0   0   24.33    2.03
   5   0   0   25.72    2.26
  -6   0   0    1.79    0.56
   6   0   0    4.39    0.69
   6   0   0    2.92    0.46
   6   0   0    3.73    0.53
   6   0   0    1.98    0.56
   6   0   0    4.29    0.57
  -7   0   0    8.69    1.31
   7   0   0    7.60    0.91
   7   0   0    6.59    0.88
   7   0   0    7.08    1.07
   7   0   0    7.79    1.11
  -8   0   0   29.11    3.22
   8   0   0   29.90    2.86
   8   0   0   33.70    2.65
   8   0   0   32.02    2.90
   8   0   0   30.39    2.60
  -9   0   0    3.41    1.02
   9   0   0    2.29    0.76
   9   0   0    3.47    0.69
   9   0   0    1.85    0.53
   9   0   0    3.20    0.76
  10   0   0    0.68    0.51
  10   0   0    0.93    0.48
  10   0   0    0.35    0.62
  11   0   0    0.61    0.57
  11   0   0    1.51    0.84
  11  -1   0    9.20    1.26
  11  -1   0   10.91    1.60
  10  -1   0    4.98    0.86
  10  -1   0    5.35    0.88
  10  -1   0    5.85    1.09
   9  -1   0    0.02    0.39
   9  -1   0   -0.01    0.29
   9  -1   0   -0.33    0.45
   9  -1   0    0.29    0.31
  -9   1   0    0.29    0.56
   8  -1   0   62.19    4.99
   8  -1   0   62.23    4.64
   8  -1   0   49.80    4.99
   8  -1   0   59.65    4.55
  -8   1   0   64.41    5.60
   7  -1   0    4.83    0.78
   7  -1   0    4.65    0.65
   7  -1   0    5.41    0.66
   7  -1   0    4.79    0.64
   7  -1   0    4.64    0.84
  -7   1   0    3.72    0.86
   6  -1   0   -0.03    0.24
   6  -1   0    0.31    0.19
   6  -1   0    0.10    0.29
   6  -1   0    0.36    0.19
   6  -1   0    0.06    0.17
  -6   1   0   -0.36    0.28
   5  -1   0    5.74    0.76
   5  -1   0    6.49    0.77
   5  -1   0    5.69    0.59
   5  -1   0    6.31    0.92
   5  -1   0    5.34    0.58
   5  -1   0    6.40    0.74
  -5   1   0    6.14    0.95
   4  -1   0   17.80    1.57
   4  -1   0   17.68    1.41
   4  -1   0   17.52    1.57
   4  -1   0   18.95    1.42
   4  -1   0   18.23    1.78
  -4   1   0   18.70    1.81
   3  -1   0    7.42    0.83
   3  -1   0    6.76    0.74
   3  -1   0    7.13    0.70
  -3   1   0    7.88    0.91
   2  -1   0    7.43    0.82
   2  -1   0    8.75    0.84
  -2   1   0    7.98    0.85
   1  -1   0    1.06    0.19
   1  -1   0    0.83    0.20
  -1   1   0    0.85    0.21
  -1   1   0    0.91    0.22
   0  -1   0    0.49    0.11
   0  -1   0    0.43    0.11
   0  -1   0    0.39    0.14
   0  -1   0    0.62    0.12
   0  -1   0    0.51    0.13
   0   1   0    0.28    0.13
   0   1   0    0.67    0.14
   0   1   0    0.48    0.12
   0   1   0    0.19    0.09
   0   1   0    0.53    0.10
  -1  -1   0    5.75    0.69
  -1  -1   0    6.10    0.55
  -1  -1   0    5.86    0.63
  -1  -1   0    5.92    0.59
  -1  -1   0    5.96    0.56
  -1  -1   0    6.09    0.56
   1   1   0    5.17    0.62
   1   1   0    6.14    0.55
   1   1   0    5.75    0.59
   1   1   0    5.55    0.55
   1   1   0    6.56    0.68
   1   1   0    6.02    0.56
  -2  -1   0   98.37    7.50
  -2  -1   0  102.77    7.85
  -2  -1   0  109.09    8.21
  -2  -1   0   93.86    7.62
  -2  -1   0  104.45    7.49
  -2  -1   0  104.60    8.82
   2   1   0  108.41    7.65
   2   1   0  101.10    7.86
   2   1   0  102.86    8.83
   2   1   0  105.87    8.21
   2   1   0   97.28    7.50
   2   1   0  101.04    7.50
  -3  -1   0   34.81    2.69
  -3  -1   0   28.38    3.01
   3   1   0   35.78    2.81
   3   1   0   29.25    2.67
   3   1   0   30.59    3.02
   3   1   0   35.05    2.54
   3   1   0   35.08    2.53
   3   1   0   34.76    2.58
  -4  -1   0    3.30    0.67
  -4  -1   0    3.55    0.56
  -4  -1   0    4.12    0.50
   4   1   0    2.83    0.55
   4   1   0    3.30    0.57
   4   1   0    3.60    0.50
   4   1   0    4.85    0.78
   4   1   0    3.56    0.50
   4   1   0    3.99    0.52
  -5  -1   0   88.55    7.27
  -5  -1   0   88.87    6.07
   5   1   0   87.94    6.22
   5   1   0   74.52    6.69
   5   1   0   77.20    6.10
   5   1   0   85.96    6.48
   5   1   0   68.05    6.09
  -6  -1   0    0.56    0.48
   6   1   0    0.32    0.29
   6   1   0    0.40    0.36
   6   1   0    0.68    0.30
   6   1   0    0.98    0.42
  -7  -1   0    3.23    0.87
   7   1   0    2.11    0.53
   7   1   0    2.64    0.68
   7   1   0    2.54    0.57
   7   1   0    2.72    0.69
  -8  -1   0   -0.38    0.65
   8   1   0   -0.16    0.42
   8   1   0    0.46    0.42
   8   1   0    0.44    0.33
   8   1   0   -0.03    0.36
   9   1   0    5.05    0.90
   9   1   0    5.99    0.92
   9   1   0    4.79    1.01
  10   1   0   16.30    1.85
  10   1   0   15.43    1.81
  10   1   0   15.10    2.07
  11  -2   0   14.52    1.63
  11  -2   0   14.69    1.61
  11  -2   0   13.67    1.77
  10  -2   0    1.58    0.48
  10  -2   0    2.25    0.53
  10  -2   0    2.01    0.65
 -10   2   0    1.36    0.92
   9  -2   0    3.38    0.58
   9  -2   0    1.84    0.47
   9  -2   0    2.61    0.67
   9  -2   0    2.76    0.80
  -9   2   0    4.65    1.02
   8  -2   0   12.03    1.21
   8  -2   0   13.00    1.22
   8  -2   0   12.55    1.63
   8  -2   0   15.08    1.42
  -8   2   0   15.09    1.90
   7  -2   0    5.00    0.73
   7  -2   0    5.52    0.84
   7  -2   0    5.35    0.62
   7  -2   0    3.95    0.57
  -7   2   0    4.05    0.88
   6  -2   0  163.18   12.48
   6  -2   0  153.66   12.48
   6  -2   0  179.71   13.65
   6  -2   0  178.26   13.19
   6  -2   0  184.02   13.66
  -6   2   0  167.86   14.80
   5  -2   0   62.04    5.05
   5  -2   0   59.01    5.15
   5  -2   0   64.48    5.16
   5  -2   0   71.25    5.70
  -5   2   0   63.44    5.68
   4  -2   0   50.91    3.96
   4  -2   0   47.77    3.88
   4  -2   0   45.55    3.94
   4  -2   0   51.61    4.39
  -4   2   0   49.70    4.38
   3  -2   0    0.24    0.21
   3  -2   0    0.45    0.28
  -3   2   0    1.03    0.37
   2  -2   0    1.06    0.30
   2  -2   0    0.67    0.36
  -2   2   0    0.58    0.32
   1  -2   0   13.88    1.16
   1  -2   0   15.36    1.29
   1  -2   0   16.33    1.40
   1  -2   0   15.40    1.16
  -1   2   0   15.92    1.30
  -1   2   0   15.69    1.39
   0  -2   0   19.40    1.66
   0  -2   0   18.14    1.51
   0  -2   0   21.36    1.72
   0  -2   0   20.63    1.51
   0  -2   0   17.60    1.56
   0   2   0   19.99    1.51
   0   2   0   20.17    1.71
   0   2   0   20.11    1.51
  -1  -2   0   86.88    5.97
  -1  -2   0   84.47    6.11
  -1  -2   0   76.99    5.86
  -1  -2   0   90.07    6.43
  -1  -2   0   71.00    6.88
  -1  -2   0   76.26    5.85
   1   2   0   82.59    6.11
   1   2   0   70.52    6.88
   1   2   0   85.40    6.42
   1   2   0   82.56    5.86
   1   2   0   68.37    5.85
  -2  -2   0  238.99   20.66
  -2  -2   0  317.14   21.20
  -2  -2   0  301.46   20.30
   2   2   0  304.73   20.31
   2   2   0  310.69   22.17
   2   2   0  234.89   21.16
   2   2   0  293.34   23.82
   2   2   0  239.39   20.67
   2   2   0  273.55   20.28
  -3  -2   0    0.42    0.27
  -3  -2   0    0.55    0.21
  -3  -2   0   -0.06    0.29
   3   2   0    0.64    0.31
   3   2   0    0.37    0.21
   3   2   0    0.79    0.39
   3   2   0    0.42    0.27
   3   2   0    0.10    0.23
   3   2   0    0.50    0.22
  -4  -2   0    0.20    0.21
  -4  -2   0    0.09    0.32
   4   2   0    0.14    0.20
   4   2   0    0.01    0.23
   4   2   0   -0.36    0.20
   4   2   0    0.00    0.17
   4   2   0    0.13    0.18
  -5  -2   0   15.81    1.76
  -5  -2   0   15.21    1.35
   5   2   0   13.46    1.48
   5   2   0   14.67    1.40
   5   2   0   17.17    1.44
   5   2   0   17.12    1.60
   5   2   0   14.38    1.38
  -6  -2   0    0.34    0.47
   6   2   0   -0.12    0.28
   6   2   0   -0.05    0.38
   6   2   0   -0.23    0.31
   6   2   0    0.21    0.30
  -7  -2   0   66.00    5.87
   7   2   0   61.51    4.85
   7   2   0   52.85    5.12
   7   2   0   61.73    5.37
   7   2   0   67.94    4.97
  -8  -2   0    1.47    0.84
   8   2   0    0.39    0.54
   8   2   0    0.18    0.38
   8   2   0    0.41    0.60
   8   2   0    0.02    0.44
   9   2   0    4.18    1.01
   9   2   0    1.54    0.67
   9   2   0    2.69    0.71
  10   2   0    5.49    1.23
  10   2   0    5.40    1.02
  10   2   0    5.57    1.02
  11  -3   0   -0.17    0.33
  11  -3   0    0.49    0.37
  11  -3   0   -0.25    0.49
  10  -3   0    1.46    0.45
  10  -3   0    1.91    0.73
  10  -3   0    1.48    0.46
  10  -3   0    1.29    0.55
 -10   3   0    1.87    0.87
   9  -3   0    1.19    0.37
   9  -3   0    0.37    0.39
   9  -3   0    0.58    0.50
  -9   3   0    0.64    0.51
   8  -3   0    3.28    0.50
   8  -3   0    2.68    0.66
   8  -3   0    3.28    0.60
  -8   3   0    3.10    0.76
   7  -3   0   17.54    1.64
   7  -3   0   17.31    1.47
   7  -3   0   21.52    1.79
   7  -3   0   18.97    1.49
  -7   3   0   16.43    1.97
   6  -3   0   83.44    7.35
   6  -3   0   97.64    7.37
   6  -3   0  102.47    7.24
  -6   3   0   84.47    8.11
  -5   3   0   12.52    1.40
   4  -3   0   20.94    2.08
  -4   3   0   22.96    2.13
   3  -3   0   68.76    5.61
  -3   3   0   58.15    5.41
   2  -3   0    5.39    0.62
  -2   3   0    8.30    0.83
   1  -3   0  100.72    7.63
   1  -3   0   96.10    7.90
   1  -3   0   93.00    6.97
   1  -3   0   97.07    6.97
   1  -3   0   92.58    7.31
  -1   3   0   95.07    6.95
  -1   3   0   84.57    7.61
  -1   3   0   96.53    7.88
  -1   3   0  101.02    6.97
   0  -3   0    6.59    0.61
   0  -3   0    4.73    0.74
   0  -3   0    6.12    0.63
   0  -3   0    4.78    0.67
   0  -3   0    6.66    0.61
   0   3   0    6.04    0.59
   0   3   0    6.70    0.67
   0   3   0    7.04    0.61
   0   3   0    7.09    0.69
   0   3   0    5.80    0.75
  -1  -3   0   25.11    2.27
  -1  -3   0   28.23    1.93
  -1  -3   0   23.31    1.94
  -1  -3   0   19.72    1.86
  -1  -3   0   25.05    1.88
   1   3   0   23.29    1.88
   1   3   0   22.93    1.87
   1   3   0   26.10    1.96
   1   3   0   21.21    2.07
   1   3   0   22.98    2.09
  -2  -3   0   17.55    1.58
  -2  -3   0   21.58    1.55
  -2  -3   0   17.35    1.90
   2   3   0   14.63    1.49
   2   3   0   20.10    1.72
   2   3   0   18.87    1.61
   2   3   0   19.81    1.53
   2   3   0   16.97    1.88
  -3  -3   0   17.14    1.69
  -3  -3   0   15.61    1.36
  -3  -3   0   14.80    1.42
   3   3   0   15.34    1.44
   3   3   0   14.95    1.36
   3   3   0   17.69    1.71
   3   3   0   17.06    1.56
   3   3   0   13.34    1.37
   3   3   0   15.89    1.38
  -4  -3   0   15.30    1.70
  -4  -3   0   13.96    1.37
   4   3   0   16.27    1.58
   4   3   0   16.00    1.44
   4   3   0   15.95    1.39
   4   3   0   13.95    1.47
  -5  -3   0    2.39    0.66
   5   3   0    2.00    0.59
   5   3   0    2.86    0.58
   5   3   0    1.48    0.41
   5   3   0    1.45    0.50
  -6  -3   0    0.10    0.52
   6   3   0   -0.09    0.33
   6   3   0   -0.13    0.27
   6   3   0   -0.07    0.40
   6   3   0    0.31    0.41
  -7  -3   0   35.92    3.72
   7   3   0   34.01    3.03
   7   3   0   36.05    3.28
   7   3   0   35.87    3.12
   7   3   0   39.74    3.49
   8   3   0    1.04    0.61
   8   3   0    0.79    0.47
   8   3   0    0.70    0.47
   8   3   0    2.37    0.81
   9   3   0    0.63    0.64
   9   3   0    1.24    0.67
   9   3   0    0.51    0.60
  11  -4   0   18.21    1.63
  11  -4   0   15.95    1.57
  11  -4   0   17.13    1.80
  10  -4   0    0.04    0.28
  10  -4   0    0.78    0.52
  10  -4   0   -0.21    0.36
 -10   4   0    0.52    0.74
   9  -4   0   26.93    2.28
   9  -4   0   28.06    2.66
   9  -4   0   30.95    2.54
  -9   4   0   27.57    3.05
   8  -4   0    3.66    0.74
  -8   4   0    3.75    0.92
   7  -4   0    0.18    0.31
  -7   4   0    0.02    0.38
   6  -4   0    1.42    0.41
  -6   4   0    0.87    0.47
   5  -4   0   65.97    5.88
   4  -4   0  163.62   14.46
  -4   4   0  172.37   13.96
   3  -4   0    0.47    0.29
   3  -4   0    0.28    0.17
  -3   4   0    0.06    0.32
   2  -4   0   14.66    1.13
   2  -4   0   11.71    1.13
   2  -4   0   14.90    1.28
  -2   4   0   15.30    1.43
  -2   4   0   14.82    1.27
   1  -4   0    0.55    0.22
   1  -4   0    0.28    0.24
   1  -4   0    0.74    0.22
   1  -4   0    0.73    0.27
  -1   4   0    0.38    0.20
  -1   4   0    0.64    0.33
  -1   4   0    1.17    0.30
   0  -4   0   11.71    0.98
   0  -4   0   11.23    0.95
   0  -4   0    9.38    0.96
   0   4   0    9.47    1.10
   0   4   0   10.95    0.95
   0   4   0   10.82    1.08
   0   4   0   11.51    1.05
  -1  -4   0  127.77    9.20
  -1  -4   0  126.06    9.17
  -1  -4   0  122.32    9.54
  -1  -4   0  115.26    9.34
   1   4   0  123.40   10.05
   1   4   0  119.73    9.18
   1   4   0  129.83    9.59
   1   4   0  130.81   10.30
  -2  -4   0   36.54    3.40
  -2  -4   0   41.95    3.00
  -2  -4   0   42.19    2.90
   2   4   0   37.53    2.99
   2   4   0   30.74    3.15
   2   4   0   33.05    2.85
   2   4   0   33.73    3.16
  -3  -4   0    1.57    0.44
  -3  -4   0    1.12    0.55
   3   4   0    1.52    0.44
   3   4   0    1.81    0.50
   3   4   0    2.45    0.50
  -4  -4   0   72.65    6.20
  -4  -4   0   64.43    5.22
   4   4   0   62.45    5.21
   4   4   0   71.23    5.50
   4   4   0   69.88    5.79
  -5  -4   0    8.51    1.41
   5   4   0    7.16    1.01
   5   4   0    8.52    1.33
   5   4   0    6.71    0.97
   5   4   0    8.98    1.18
  -6  -4   0    6.46    1.23
   6   4   0    4.30    0.91
   6   4   0    3.80    0.76
   6   4   0    4.53    0.98
   6   4   0    5.03    0.84
  -7  -4   0    0.18    0.71
   7   4   0    1.58    0.62
   7   4   0    0.52    0.64
   7   4   0    1.20    0.69
   8   4   0    5.18    1.03
   8   4   0    5.64    1.25
   9   4   0   13.27    2.10
   9   4   0   12.33    1.70
  11  -5   0    0.07    0.33
  10  -5   0    0.32    0.54
 -10   5   0    0.53    0.62
   9  -5   0   17.53    1.71
  -9   5   0   12.07    1.93
   8  -5   0    0.21    0.38
  -8   5   0   -0.02    0.48
   7  -5   0   48.80    4.03
   5  -5   0   11.34    1.37
  -5   5   0   13.42    1.64
   4  -5   0   72.83    6.79
  -4   5   0   82.05    6.66
   3  -5   0   12.71    1.24
   3  -5   0   15.58    1.12
   3  -5   0   12.38    1.12
  -3   5   0   13.59    1.47
   2  -5   0   12.34    0.98
   2  -5   0   12.08    1.10
   2  -5   0   10.24    1.08
   2  -5   0   12.32    0.98
  -2   5   0    9.29    1.29
  -2   5   0    9.58    1.07
   1  -5   0   20.12    1.59
   1  -5   0   19.57    1.58
   1  -5   0   19.11    1.75
   1  -5   0   17.50    1.63
  -1   5   0   19.78    1.75
  -1   5   0   20.08    1.57
  -1   5   0   17.58    1.81
   0  -5   0   28.28    2.23
   0  -5   0   29.78    2.18
   0  -5   0   28.34    2.65
   0  -5   0   25.65    2.17
   0   5   0   26.55    2.41
   0   5   0   23.26    2.44
   0   5   0   26.69    2.15
   0   5   0   27.17    2.32
  -1  -5   0  132.06   10.92
  -1  -5   0  119.42    9.24
  -1  -5   0  128.92    9.60
   1   5   0  134.13   10.38
   1   5   0  101.76    9.61
   1   5   0  132.27   10.13
  -2  -5   0    2.74    0.55
  -2  -5   0    1.73    0.61
   2   5   0    1.47    0.48
   2   5   0    2.80    0.59
   2   5   0    2.59    0.54
   2   5   0    2.03    0.53
  -3  -5   0   -0.53    0.40
  -3  -5   0    0.03    0.28
   3   5   0    0.56    0.43
   3   5   0   -0.02    0.30
   3   5   0    0.41    0.42
   3   5   0    0.01    0.37
  -4  -5   0    5.64    1.11
  -4  -5   0    6.83    0.98
   4   5   0    5.31    0.90
   4   5   0    8.20    1.27
   4   5   0    7.98    1.07
  -5  -5   0    0.10    0.56
   5   5   0    0.27    0.35
   5   5   0   -0.03    0.45
   5   5   0    0.45    0.55
  -6  -5   0   58.64    5.77
   6   5   0   57.00    4.85
   6   5   0   62.62    5.16
   6   5   0   62.61    5.42
   7   5   0    2.69    0.70
   7   5   0    1.92    0.82
   8   5   0    0.59    0.69
   8   5   0    1.01    0.80
  10  -6   0    5.12    0.99
   9  -6   0    6.71    1.09
   8  -6   0    0.15    0.35
  -5   6   0    3.46    0.85
   4  -6   0  118.34    9.66
   4  -6   0  121.77    8.82
   4  -6   0  116.50    8.82
   4  -6   0  120.10   10.52
  -4   6   0  125.58   10.19
   3  -6   0    1.59    0.39
   3  -6   0    1.20    0.30
   3  -6   0    1.30    0.29
  -3   6   0    2.41    0.63
  -3   6   0    0.97    0.29
   2  -6   0   41.45    3.16
   2  -6   0   44.68    3.50
   2  -6   0   41.40    3.32
   2  -6   0   43.32    3.17
  -2   6   0   37.70    3.08
  -2   6   0   41.60    3.47
  -2   6   0   35.83    3.64
   1  -6   0    2.70    0.49
   1  -6   0    3.56    0.54
   1  -6   0    3.04    0.49
  -1   6   0    3.35    0.52
  -1   6   0    2.66    0.61
  -1   6   0    3.13    0.60
   0  -6   0   16.62    1.46
   0  -6   0   17.53    1.49
   0  -6   0   13.27    1.91
   0  -6   0   16.97    1.50
   0  -6   0   16.39    1.49
   0   6   0   15.95    1.65
   0   6   0   16.36    1.45
   0   6   0   18.79    1.73
   0   6   0   16.23    1.61
  -1  -6   0    2.05    0.43
  -1  -6   0    2.58    0.69
  -1  -6   0    1.83    0.45
   1   6   0    2.00    0.47
   1   6   0    2.28    0.59
   1   6   0    2.54    0.60
   1   6   0    1.80    0.59
  -2  -6   0    9.64    1.21
  -2  -6   0   11.96    1.60
   2   6   0   12.34    1.39
   2   6   0    9.58    1.19
   2   6   0   10.74    1.38
   2   6   0   13.41    1.62
  -3  -6   0   25.13    3.01
  -3  -6   0   29.02    2.54
   3   6   0   29.80    2.77
   3   6   0   31.51    2.69
   3   6   0   28.35    2.82
   3   6   0   32.34    2.56
  -4  -6   0   10.25    1.54
   4   6   0    9.49    1.32
   4   6   0    9.16    1.25
   4   6   0    7.80    1.26
   4   6   0    9.78    1.52
  -5  -6   0    2.81    0.96
   5   6   0    1.15    0.66
   5   6   0    1.96    0.75
   5   6   0    2.10    0.78
   5   6   0    1.29    0.58
   6   6   0    7.50    1.46
   6   6   0    4.59    1.08
   6   6   0    6.74    1.14
   7   6   0    0.29    0.78
  10  -7   0   24.24    2.42
   9  -7   0    0.22    0.49
   8  -7   0    1.64    0.56
  -6   7   0   10.65    1.68
   5  -7   0   54.14    4.62
   5  -7   0   55.64    4.18
  -5   7   0   57.06    5.07
   4  -7   0    0.47    0.29
   4  -7   0    0.19    0.23
   4  -7   0    0.05    0.21
  -4   7   0    0.04    0.48
   3  -7   0   20.78    1.92
   3  -7   0   19.74    1.97
   3  -7   0   23.17    1.80
   3  -7   0   19.82    1.77
  -3   7   0   22.72    2.22
  -3   7   0   22.59    1.95
   2  -7   0    0.91    0.37
   2  -7   0    1.72    0.40
   2  -7   0    1.29    0.37
  -2   7   0    1.31    0.33
  -2   7   0    1.33    0.56
  -2   7   0    2.04    0.52
   1  -7   0    0.54    0.30
   1  -7   0    0.19    0.29
   1  -7   0    0.09    0.27
  -1   7   0   -0.16    0.35
  -1   7   0   -0.01    0.26
  -1   7   0   -0.05    0.28
   0  -7   0   23.34    2.50
   0  -7   0   22.53    2.02
   0  -7   0   25.76    2.10
   0  -7   0   23.21    2.01
   0   7   0   25.27    2.21
   0   7   0   21.86    2.22
   0   7   0   22.32    1.98
   0   7   0   21.27    2.26
  -1  -7   0   25.47    2.04
  -1  -7   0   17.12    2.36
   1   7   0   23.47    2.20
   1   7   0   21.03    2.22
   1   7   0   20.66    1.93
   1   7   0   25.63    2.27
  -2  -7   0    1.39    0.52
  -2  -7   0    0.67    0.62
   2   7   0    0.50    0.48
   2   7   0    0.65    0.53
   2   7   0    0.27    0.37
   2   7   0    0.48    0.51
  -3  -7   0   38.78    4.07
  -3  -7   0   40.55    3.41
   3   7   0   34.60    3.32
   3   7   0   47.27    3.68
   3   7   0   45.41    3.85
   3   7   0   39.10    3.72
  -4  -7   0    0.25    0.69
   4   7   0    0.00    0.63
   4   7   0    0.14    0.57
   4   7   0    0.09    0.63
   5   7   0    2.27    0.90
   5   7   0    0.56    0.80
   6   7   0    0.42    0.87
   7   7   0    3.17    1.19
  10  -8   0    1.38    0.72
   9  -8   0    0.12    0.47
   6  -8   0    1.71    0.39
  -6   8   0    1.70    0.85
   5  -8   0   20.36    1.78
   5  -8   0   21.30    1.78
  -5   8   0   23.33    2.43
   4  -8   0    3.95    0.60
   4  -8   0    4.07    0.60
   4  -8   0    2.43    0.64
  -4   8   0    4.47    0.94
   3  -8   0    0.81    0.44
   3  -8   0    0.92    0.36
   3  -8   0    1.17    0.44
  -3   8   0    0.78    0.59
  -3   8   0    0.74    0.41
   2  -8   0   22.31    1.87
   2  -8   0   20.03    1.86
  -2   8   0   21.10    2.06
  -2   8   0   20.44    2.22
   1  -8   0    4.24    0.74
   1  -8   0    3.63    1.01
   1  -8   0    2.67    0.60
  -1   8   0    4.27    0.83
  -1   8   0    3.88    0.86
   0  -8   0   25.44    2.24
   0  -8   0   27.01    2.81
   0   8   0   23.12    2.50
   0   8   0   25.21    2.46
  -1  -8   0    0.89    0.67
  -1  -8   0    0.91    0.49
   1   8   0    0.08    0.45
   1   8   0    0.82    0.62
   1   8   0    1.27    0.62
  -2  -8   0    2.17    0.62
  -2  -8   0    3.75    1.02
   2   8   0    3.69    0.86
   2   8   0    1.89    0.81
   2   8   0    3.09    0.89
  -3  -8   0   11.22    1.80
   3   8   0   10.71    1.59
   3   8   0   12.60    1.77
   3   8   0    9.48    1.57
   4   8   0    3.21    1.02
   4   8   0    3.26    0.98
   5   8   0   25.13    2.92
   5   8   0   25.03    3.13
   6   8   0    7.18    1.68
   7  -9   0    0.04    0.29
  -7   9   0    0.66    0.80
   6  -9   0    3.23    0.59
  -6   9   0    3.52    1.07
   5  -9   0   23.68    2.01
  -5   9   0   23.34    2.64
   4  -9   0   21.10    1.86
  -4   9   0   20.87    2.37
   3  -9   0   62.11    4.70
  -3   9   0   56.96    5.42
   2  -9   0   11.68    1.33
  -2   9   0    9.47    1.58
   1  -9   0    2.31    0.67
   1  -9   0    1.31    0.78
  -1   9   0    1.51    0.73
  -1   9   0    0.33    0.47
   0  -9   0    0.11    0.43
   0  -9   0    0.04    0.66
   0   9   0   -0.18    0.56
   0   9   0    0.08    0.48
  -1  -9   0   11.19    1.79
  -1  -9   0    8.76    1.37
   1   9   0   11.09    1.56
   1   9   0   12.43    1.71
   1   9   0   12.88    1.80
  -2  -9   0    4.39    1.27
  -2  -9   0    4.97    1.01
   2   9   0    5.04    1.12
   2   9   0    3.99    1.11
   2   9   0    3.28    1.04
   3   9   0    2.90    0.99
   3   9   0    2.98    1.04
   3   9   0    1.26    0.88
   4   9   0    4.43    1.24
   4   9   0    3.35    1.14
   5   9   0   -0.09    0.91
   7 -10   0    1.61    0.50
  -7  10   0    1.10    0.98
   6 -10   0   13.05    1.31
  -6  10   0   12.04    2.14
   5 -10   0    3.72    0.72
  -5  10   0    3.57    1.19
   4 -10   0    1.46    0.52
  -4  10   0    1.11    0.81
   3 -10   0    2.41    0.65
  -3  10   0    0.43    0.77
   2 -10   0   -0.12    0.39
   2 -10   0   -0.57    0.67
  -2  10   0    0.18    0.69
   1 -10   0    9.18    1.21
   1 -10   0    3.68    1.19
  -1  10   0    5.81    1.27
   0 -10   0   30.74    3.50
   0 -10   0   30.07    2.84
   0  10   0   33.41    3.28
  -1 -10   0    1.93    0.76
   1  10   0    1.14    0.74
   1  10   0    0.92    0.86
   2  10   0   35.65    3.61
   2  10   0   37.00    3.71
   3  10   0    0.86    0.87
   4  10   0    1.40    1.14
   8 -11   0    8.38    1.07
   7 -11   0    0.65    0.47
  -7  11   0    1.17    1.10
   6 -11   0    1.32    0.53
  -6  11   0    0.69    0.95
   5 -11   0    0.63    0.49
  -5  11   0    0.26    0.93
   4 -11   0   -0.12    0.50
  -4  11   0   -0.58    0.72
   3 -11   0   10.22    1.40
  -3  11   0    8.47    1.69
   2 -11   0   10.71    2.09
   2 -11   0   19.88    1.86
  -2  11   0   17.87    2.35
   1 -11   0    1.33    0.73
  -1  11   0    0.96    1.00
   0 -11   0    0.15    0.62
   0  11   0    0.91    0.91
  -1 -11   0    0.19    0.64
   1  11   0    0.46    0.96
   8 -12   0    0.95    0.59
   7 -12   0    0.96    0.63
  -7  12   0    2.03    1.28
   6 -12   0   19.11    1.85
  -6  12   0   14.84    2.58
   5 -12   0   -0.60    0.57
  -5  12   0    0.58    1.00
   4 -12   0   30.15    2.88
  -4  12   0   34.61    3.62
   3 -12   0    7.79    1.29
  -3  12   0   10.47    1.87
   2 -12   0    1.22    0.64
  -2  12   0   -0.59    0.90
   1 -12   0    2.88    0.89
  -1  12   0    2.73    1.22
   0 -12   0    0.82    0.89
   0  12   0    2.20    1.24
   6 -13   0   -0.70    0.60
  -6  13   0   -0.34    1.10
   5 -13   0    0.60    0.61
  -5  13   0    1.75    1.20
   4 -13   0    1.16    0.72
  -4  13   0   -0.28    1.12
   3 -13   0   -0.49    0.66
  -3  13   0   -0.27    1.05
   2 -13   0    1.28    0.83
  -2  13   0    2.13    1.23
   1 -13   0   10.81    1.63
  -1  13   0    9.48    2.00
  -1  13  -1    7.14    1.80
   1 -13   1    3.66    1.22
  -2  13  -1    1.25    1.19
   2 -13   1    0.34    0.88
  -3  13  -1   -0.31    1.11
   3 -13   1    1.24    0.78
  -4  13  -1    0.56    1.06
   4 -13   1    0.18    0.66
  -5  13  -1    1.80    1.32
   5 -13   1    1.60    0.82
  -6  13  -1    4.59    1.60
   6 -13   1    5.27    1.07
   0  12  -1   -1.05    0.94
   0 -12   1    0.16    0.72
  -1  12  -1    7.68    1.62
   1 -12   1    6.63    1.31
  -2  12  -1    0.77    0.94
   2 -12   1    1.98    0.80
  -3  12  -1    0.38    0.97
   3 -12   1    0.49    0.57
  -4  12  -1    2.88    1.24
   4 -12   1    4.79    1.00
  -5  12  -1    8.93    1.87
   5 -12   1   11.35    1.46
  -6  12  -1    9.28    1.93
   6 -12   1    9.34    1.35
   7 -12   1   -0.30    0.52
   8 -12   1    0.25    0.51
   3  11  -1    6.16    1.76
   1  11  -1    2.05    1.10
  -1 -11   1    5.08    1.12
   0  11  -1    4.40    1.20
   0 -11   1    3.05    0.91
  -1  11  -1   15.78    2.22
   1 -11   1   13.79    2.31
   1 -11   1   15.87    1.89
  -2  11  -1    0.06    0.78
   2 -11   1    0.63    0.90
   2 -11   1    0.28    0.60
  -3  11  -1   36.41    3.72
   3 -11   1   35.57    3.13
  -4  11  -1    3.13    1.21
   4 -11   1    1.25    0.59
  -5  11  -1    0.95    0.87
   5 -11   1    0.03    0.45
  -6  11  -1   -0.09    0.90
   6 -11   1    0.80    0.50
   7 -11   1   -0.71    0.41
   8 -11   1    0.68    0.48
   9 -11   1    2.86    0.72
   4  10  -1    1.10    1.14
   3  10  -1   -0.52    0.99
   3  10  -1   -0.41    0.75
   2  10  -1   13.02    2.01
   2  10  -1   14.02    2.09
   1  10  -1    3.63    1.09
   1  10  -1    5.68    1.35
  -1 -10   1    5.60    1.35
  -1 -10   1    5.68    1.08
   0  10  -1    7.28    1.40
   0  10  -1    8.54    1.46
   0 -10   1    7.74    1.17
   0 -10   1    7.06    1.45
  -1  10  -1    4.59    1.12
   1 -10   1    2.51    0.96
   1 -10   1    3.59    0.87
  -2  10  -1    2.64    0.94
   2 -10   1    1.55    0.65
  -3  10  -1    0.75    0.74
   3 -10   1   -0.10    0.37
  -4  10  -1    1.51    0.94
   4 -10   1    1.80    0.57
  -5  10  -1   14.97    2.29
   5 -10   1   17.68    1.62
  -6  10  -1   27.60    2.96
   6 -10   1   23.62    2.15
   7 -10   1   -0.33    0.32
   8 -10   1   18.48    1.70
   5   9  -1    6.77    1.69
   4   9  -1   -0.68    0.70
   4   9  -1    1.26    0.89
   3   9  -1   21.41    2.85
   3   9  -1   21.26    2.56
   2   9  -1   17.97    2.30
   2   9  -1   15.25    1.94
   2   9  -1   12.34    1.87
  -2  -9   1   14.03    2.17
  -2  -9   1   15.95    1.86
   1   9  -1    1.68    0.81
   1   9  -1    1.25    0.69
   1   9  -1    1.28    0.67
  -1  -9   1    2.06    0.64
  -1  -9   1    2.23    0.83
   0   9  -1    4.34    0.98
   0   9  -1    2.61    0.86
   0  -9   1    3.90    1.16
   0  -9   1    3.49    0.78
  -1   9  -1    1.42    0.56
  -1   9  -1    0.19    0.60
   1  -9   1    0.68    0.49
  -2   9  -1    0.32    0.60
  -2   9  -1    0.16    0.42
   2  -9   1    0.45    0.45
  -3   9  -1   19.36    2.17
   3  -9   1   18.32    1.75
  -4   9  -1   12.78    1.85
   4  -9   1   12.23    1.36
  -5   9  -1   30.77    3.23
   5  -9   1   31.20    2.56
  -6   9  -1    0.85    0.84
   6  -9   1    0.38    0.33
   7  -9   1    3.07    0.56
   9  -9   1   -0.39    0.49
  10  -9   1   15.61    1.91
   6   8  -1    1.53    0.90
   5   8  -1    9.43    1.64
   5   8  -1    9.10    1.69
   4   8  -1    6.95    1.32
   4   8  -1   10.37    1.70
   3   8  -1   -0.18    0.55
   3   8  -1   -0.09    0.63
   3   8  -1    0.05    0.58
  -3  -8   1    0.10    0.74
   2   8  -1    2.88    0.85
   2   8  -1    1.60    0.69
   2   8  -1    1.77    0.76
  -2  -8   1    3.18    1.04
  -2  -8   1    1.63    0.57
   1   8  -1    3.03    0.89
   1   8  -1    3.56    0.95
   1   8  -1    3.89    0.87
  -1  -8   1    3.99    0.79
  -1  -8   1    4.18    1.13
   0   8  -1   76.66    6.29
   0   8  -1   77.29    6.40
   0  -8   1   75.89    5.73
   0  -8   1   63.40    6.76
  -1   8  -1   -0.32    0.46
  -1   8  -1    0.13    0.38
   1  -8   1   -0.23    0.33
  -2   8  -1   34.33    2.91
  -2   8  -1   29.56    3.00
   2  -8   1   29.91    2.58
  -3   8  -1    9.50    1.18
  -3   8  -1    8.63    1.34
   3  -8   1    9.08    1.05
   3  -8   1    8.30    1.14
   3  -8   1   10.31    1.10
  -4   8  -1   -0.51    0.53
   4  -8   1    0.35    0.25
   4  -8   1   -0.14    0.25
  -5   8  -1    9.05    1.54
   5  -8   1   11.06    1.04
   5  -8   1   10.30    1.05
   6  -8   1   14.19    1.31
   6  -8   1   15.90    1.35
   9  -8   1    3.03    0.81
  10  -8   1    1.00    0.66
   7   7  -1    1.00    0.92
   6   7  -1    5.58    1.38
   5   7  -1    0.31    0.56
   5   7  -1    0.05    0.71
   4   7  -1    0.10    0.55
   4   7  -1    0.81    0.55
   4   7  -1    0.17    0.57
   4   7  -1    0.14    0.66
  -4  -7   1   -0.66    0.67
   3   7  -1   11.90    1.41
   3   7  -1   12.96    1.65
   3   7  -1   11.78    1.49
   3   7  -1   11.22    1.63
  -3  -7   1    9.67    1.33
  -3  -7   1    9.96    1.69
   2   7  -1   28.07    2.90
   2   7  -1   30.78    2.81
   2   7  -1   31.02    2.83
  -2  -7   1   28.40    2.60
  -2  -7   1   32.45    3.17
   1   7  -1   14.46    1.33
   1   7  -1   13.18    1.47
   1   7  -1   12.23    1.60
   1   7  -1   14.92    1.65
  -1  -7   1   13.29    1.46
  -1  -7   1    9.93    1.69
   0   7  -1   20.36    1.99
   0   7  -1   19.71    1.98
   0  -7   1   17.88    2.18
   0  -7   1   20.79    1.79
  -1   7  -1    5.16    0.90
  -1   7  -1    8.31    0.89
  -1   7  -1    4.88    0.93
   1  -7   1    7.67    0.91
   1  -7   1    6.76    0.89
   1  -7   1    7.68    0.93
  -2   7  -1    4.01    0.71
  -2   7  -1    3.15    0.75
  -2   7  -1    3.66    0.52
   2  -7   1    2.87    0.54
   2  -7   1    3.62    0.67
   2  -7   1    4.62    0.64
  -3   7  -1    3.98    0.92
  -3   7  -1    5.61    0.78
   3  -7   1    6.04    0.71
   3  -7   1    4.26    0.65
   3  -7   1    5.03    0.81
   3  -7   1    5.54    0.83
  -4   7  -1   20.39    2.34
   4  -7   1   24.28    1.88
   4  -7   1   21.93    2.07
   4  -7   1   23.46    1.89
  -5   7  -1  102.01    8.13
   5  -7   1   95.09    6.90
   5  -7   1   85.46    6.88
   9  -7   1    1.05    0.48
  10  -7   1    8.23    1.32
   8   6  -1    1.22    0.87
   7   6  -1    2.47    0.76
   7   6  -1    1.22    0.92
   6   6  -1   25.21    2.78
   6   6  -1   26.23    2.45
   6   6  -1   24.68    2.65
   5   6  -1    0.86    0.59
   5   6  -1    0.93    0.52
   5   6  -1    0.62    0.63
  -5  -6   1    0.93    0.73
   4   6  -1   13.71    1.69
   4   6  -1   11.75    1.53
   4   6  -1   13.18    1.51
   4   6  -1   15.79    1.99
  -4  -6   1   14.49    1.97
   3   6  -1   26.69    2.31
   3   6  -1   26.16    2.49
   3   6  -1   27.19    2.52
   3   6  -1   24.87    2.59
  -3  -6   1   28.40    2.93
   2   6  -1    4.06    0.77
   2   6  -1    2.56    0.54
   2   6  -1    2.04    0.57
   2   6  -1    3.28    0.71
  -2  -6   1    4.28    0.74
  -2  -6   1    3.17    0.82
   1   6  -1    6.48    0.93
   1   6  -1    5.20    0.90
   1   6  -1    5.09    0.88
   1   6  -1    7.10    0.86
  -1  -6   1    6.11    0.84
  -1  -6   1    6.95    1.16
   0   6  -1    0.40    0.29
   0   6  -1    0.01    0.36
   0   6  -1    0.11    0.30
   0   6  -1   -0.13    0.29
   0  -6   1    0.12    0.24
   0  -6   1    0.14    0.27
   0  -6   1    0.62    0.27
  -1   6  -1    2.93    0.45
  -1   6  -1    2.15    0.57
  -1   6  -1    2.60    0.59
   1  -6   1    2.54    0.46
   1  -6   1    2.61    0.48
   1  -6   1    2.99    0.54
  -2   6  -1   13.64    1.44
  -2   6  -1   11.95    1.09
  -2   6  -1   13.51    1.32
   2  -6   1   14.05    1.18
   2  -6   1   13.45    1.31
   2  -6   1   13.42    1.17
   2  -6   1   11.52    1.28
  -3   6  -1   -0.07    0.20
  -3   6  -1   -0.02    0.37
   3  -6   1    0.12    0.20
   3  -6   1    0.26    0.25
   3  -6   1    0.45    0.26
  -4   6  -1    9.05    1.36
   4  -6   1    9.82    0.85
   4  -6   1    9.22    0.97
   4  -6   1    8.20    0.81
  -5   6  -1    0.92    0.58
   5  -6   1    1.69    0.37
   8  -6   1   -0.37    0.35
   9  -6   1    9.72    1.38
  10  -6   1   20.21    2.15
  11  -6   1    2.16    0.52
   8   5  -1   -0.64    0.73
   8   5  -1   -0.34    0.54
   7   5  -1   -0.37    0.41
   7   5  -1   -0.17    0.64
   7   5  -1   -0.17    0.50
   6   5  -1   30.66    2.92
   6   5  -1   32.21    3.08
   6   5  -1   29.38    2.72
  -6  -5   1   29.12    3.30
   5   5  -1    3.39    0.85
   5   5  -1    3.98    0.97
   5   5  -1    4.87    0.84
   5   5  -1    3.99    0.82
  -5  -5   1    3.92    1.04
   4   5  -1    0.67    0.42
   4   5  -1   -0.39    0.44
   4   5  -1    0.82    0.51
   4   5  -1    0.68    0.41
  -4  -5   1    0.63    0.65
  -4  -5   1    0.44    0.36
   3   5  -1    2.06    0.56
   3   5  -1    1.95    0.49
   3   5  -1    1.67    0.54
   3   5  -1    2.00    0.50
  -3  -5   1    1.73    0.42
  -3  -5   1    2.67    0.72
   2   5  -1    2.87    0.49
   2   5  -1    2.08    0.55
   2   5  -1    2.66    0.55
   2   5  -1    1.74    0.54
  -2  -5   1    1.97    0.47
  -2  -5   1    1.98    0.61
   1   5  -1  291.67   24.20
   1   5  -1  326.64   23.18
   1   5  -1  288.62   24.82
   1   5  -1  297.46   22.14
  -1  -5   1  303.92   23.09
  -1  -5   1  312.35   22.17
   0   5  -1   18.46    1.67
   0   5  -1   17.26    1.48
   0   5  -1   17.15    1.65
   0   5  -1   19.36    1.68
   0  -5   1   16.51    1.53
   0  -5   1   15.38    1.47
   0  -5   1   17.89    1.50
  -1   5  -1   58.33    5.81
  -1   5  -1   65.70    5.67
  -1   5  -1   71.38    5.15
   1  -5   1   74.90    5.68
   1  -5   1   71.15    5.17
   1  -5   1   72.68    5.45
   1  -5   1   68.31    5.17
  -2   5  -1   47.99    3.71
  -2   5  -1   49.82    3.93
  -2   5  -1   43.62    3.30
   2  -5   1   45.37    3.71
   2  -5   1   38.64    3.36
   2  -5   1   42.47    3.35
  -3   5  -1    2.03    0.58
   3  -5   1    1.46    0.28
   3  -5   1    1.11    0.25
   3  -5   1    0.97    0.29
  -4   5  -1    5.68    1.01
   4  -5   1    6.59    0.60
   4  -5   1    6.29    0.70
   4  -5   1    6.96    0.98
   5  -5   1    2.96    0.45
  -7   5  -1   23.49    2.50
  -8   5  -1   16.88    2.07
   8  -5   1   12.54    1.75
   8  -5   1   17.91    1.62
   8  -5   1   17.55    1.49
   8  -5   1   19.25    1.48
  -9   5  -1    7.69    1.42
   9  -5   1    6.69    1.15
   9  -5   1    9.29    1.05
   9  -5   1    9.08    0.98
 -10   5  -1    1.84    0.90
  10  -5   1    1.62    0.45
  10  -5   1    1.48    0.63
  10  -5   1    1.71    0.53
  11  -5   1    2.72    0.68
  11  -5   1    1.16    0.45
   9   4  -1   28.51    3.21
   9   4  -1   32.56    2.93
   8   4  -1    2.79    0.74
   8   4  -1    3.77    1.09
   7   4  -1    5.72    1.15
   7   4  -1    5.41    1.06
   7   4  -1    6.23    1.02
  -7  -4   1    4.61    1.14
   6   4  -1    0.43    0.39
   6   4  -1    0.01    0.43
   6   4  -1    1.27    0.58
  -6  -4   1    0.41    0.55
   5   4  -1    0.81    0.44
   5   4  -1    0.38    0.47
   5   4  -1    0.71    0.40
  -5  -4   1    0.51    0.53
   4   4  -1   14.60    1.45
   4   4  -1   11.86    1.55
   4   4  -1   13.01    1.34
  -4  -4   1   14.40    1.33
  -4  -4   1   15.02    1.67
   3   4  -1    3.07    0.67
   3   4  -1    4.63    0.73
   3   4  -1    5.28    0.70
   3   4  -1    5.05    0.69
  -3  -4   1    5.85    0.94
  -3  -4   1    2.90    0.53
   2   4  -1   22.71    1.86
   2   4  -1   21.94    2.00
   2   4  -1   21.24    1.95
   2   4  -1   23.33    2.08
  -2  -4   1   23.55    2.25
  -2  -4   1   21.78    1.91
  -2  -4   1   21.72    1.86
   1   4  -1   23.26    1.92
   1   4  -1   22.17    1.73
   1   4  -1   15.71    1.88
   1   4  -1   17.72    1.90
  -1  -4   1   19.06    1.79
  -1  -4   1   20.90    1.74
  -1  -4   1   23.57    1.81
  -1  -4   1   21.89    1.73
  -1  -4   1   27.33    2.28
   0   4  -1   91.54    7.69
   0   4  -1   98.24    7.40
   0   4  -1   94.03    7.04
   0   4  -1   94.28    7.88
   0  -4   1   95.98    7.35
   0  -4   1   98.31    7.05
   0  -4   1   92.36    7.03
  -1   4  -1   25.66    2.21
  -1   4  -1   25.97    1.98
  -1   4  -1   27.47    2.30
   1  -4   1   27.49    2.22
   1  -4   1   25.07    2.14
   1  -4   1   24.23    1.98
   1  -4   1   22.65    1.98
  -2   4  -1   18.66    1.77
  -2   4  -1   18.34    1.60
   2  -4   1   17.70    1.45
   2  -4   1   18.58    1.45
   2  -4   1   18.81    1.63
  -3   4  -1   16.81    1.63
   3  -4   1   17.50    1.62
   3  -4   1   14.44    1.36
   3  -4   1   14.36    1.21
   3  -4   1   16.25    1.23
   4  -4   1  107.78    8.88
   4  -4   1  115.13    9.69
  -5   4  -1   -0.07    0.34
   5  -4   1   -0.01    0.30
   5  -4   1    0.44    0.16
  -6   4  -1   48.76    4.03
   6  -4   1   38.63    3.48
  -7   4  -1    8.04    1.39
   7  -4   1   11.14    0.99
   7  -4   1    9.93    0.94
   7  -4   1   11.78    1.08
   7  -4   1   11.01    1.32
  -8   4  -1    2.10    0.77
   8  -4   1    1.39    0.42
   8  -4   1    1.58    0.40
   8  -4   1    1.99    0.58
  -9   4  -1    7.13    1.37
   9  -4   1    6.65    1.10
   9  -4   1    6.90    0.95
   9  -4   1    5.75    0.80
 -10   4  -1    4.09    1.21
  10  -4   1    3.65    0.99
  10  -4   1    3.19    0.64
  10  -4   1    5.60    0.86
  11  -4   1    6.57    1.15
  11  -4   1    9.11    1.10
  11  -4   1    7.38    0.99
  10   3  -1    0.39    0.62
   9   3  -1   -0.42    0.53
   9   3  -1    0.38    0.51
   8   3  -1    0.15    0.49
   8   3  -1    0.87    0.59
   8   3  -1    0.65    0.47
   8   3  -1    0.54    0.58
  -8  -3   1   -0.12    0.82
   7   3  -1   46.90    4.04
   7   3  -1   48.48    4.22
   7   3  -1   43.58    3.81
   7   3  -1   43.23    3.73
  -7  -3   1   49.14    4.55
   6   3  -1    1.80    0.51
   6   3  -1    1.62    0.59
   6   3  -1    1.26    0.59
   6   3  -1    1.36    0.48
  -6  -3   1    0.99    0.62
   5   3  -1    1.88    0.47
   5   3  -1    1.65    0.44
   5   3  -1    1.15    0.49
   5   3  -1    0.80    0.45
  -5  -3   1    1.13    0.57
   4   3  -1   57.54    4.80
   4   3  -1   58.81    4.57
   4   3  -1   63.75    4.67
   4   3  -1   52.70    5.01
   4   3  -1   61.45    4.57
  -4  -3   1   62.24    4.56
  -4  -3   1   59.87    5.40
   3   3  -1    6.79    0.72
   3   3  -1    4.09    0.66
   3   3  -1    3.52    0.77
   3   3  -1    3.81    0.64
   3   3  -1    5.97    0.66
  -3  -3   1    4.78    0.64
  -3  -3   1    4.52    0.66
  -3  -3   1    4.05    0.79
   2   3  -1    0.09    0.19
   2   3  -1    0.48    0.29
   2   3  -1    0.27    0.19
   2   3  -1    0.17    0.24
  -2  -3   1    0.36    0.23
  -2  -3   1    0.44    0.24
  -2  -3   1    0.00    0.31
   1   3  -1    3.56    0.49
   1   3  -1    3.20    0.50
   1   3  -1    3.26    0.52
   1   3  -1    3.94    0.48
   1   3  -1    3.65    0.48
  -1  -3   1    4.29    0.49
  -1  -3   1    5.14    0.71
  -1  -3   1    4.12    0.53
  -1  -3   1    3.64    0.47
  -1  -3   1    3.11    0.46
   0   3  -1    6.60    0.67
   0   3  -1    4.76    0.63
   0   3  -1    6.49    0.73
   0   3  -1    6.61    0.70
   0   3  -1    5.33    0.59
   0  -3   1    5.90    0.60
   0  -3   1    7.02    0.77
   0  -3   1    6.72    0.73
   0  -3   1    7.01    0.73
   0  -3   1    5.86    0.62
  -1   3  -1  362.51   29.08
  -1   3  -1  402.85   29.07
  -1   3  -1  370.96   32.70
   1  -3   1  429.77   31.77
   1  -3   1  396.21   29.11
   1  -3   1  413.49   29.09
   1  -3   1  433.33   32.72
  -2   3  -1  105.90   10.25
  -2   3  -1  117.12    9.86
   2  -3   1  135.22    9.04
   2  -3   1  137.58    9.05
   2  -3   1  121.43    9.89
   3  -3   1   12.12    1.31
   3  -3   1   12.80    1.10
  -4   3  -1    7.08    0.96
   4  -3   1    6.54    0.67
   4  -3   1    7.71    0.99
  -5   3  -1    1.50    0.49
   5  -3   1    1.56    0.50
   5  -3   1    0.96    0.25
  -6   3  -1  143.00   14.22
   6  -3   1  174.93   13.10
   6  -3   1  174.56   12.69
   6  -3   1  153.36   13.09
   6  -3   1  166.31   11.97
   6  -3   1  169.65   12.00
  -7   3  -1    2.70    0.73
   7  -3   1    3.11    0.53
   7  -3   1    1.86    0.55
   7  -3   1    2.60    0.44
   7  -3   1    2.52    0.42
  -8   3  -1   16.86    2.07
   8  -3   1   17.99    1.52
   8  -3   1   18.37    1.81
   8  -3   1   16.46    1.67
  -9   3  -1   15.67    2.32
   9  -3   1   17.31    1.64
   9  -3   1   20.31    1.88
   9  -3   1   21.81    2.05
  10  -3   1    1.08    0.40
  10  -3   1    0.73    0.39
  10  -3   1    1.33    0.58
  11  -3   1   -0.06    0.34
  11  -3   1   -0.05    0.34
  11  -3   1   -0.75    0.47
  10   2  -1    1.83    0.73
  10   2  -1    1.76    0.89
  10   2  -1    2.10    0.78
   9   2  -1    0.11    0.44
   9   2  -1    0.35    0.59
   9   2  -1    0.29    0.46
   8   2  -1   -0.28    0.47
   8   2  -1    0.38    0.51
   8   2  -1    0.21    0.38
   8   2  -1    0.25    0.37
  -8  -2   1    0.17    0.71
   7   2  -1   40.30    4.04
   7   2  -1   50.51    3.98
   7   2  -1   44.74    3.65
   7   2  -1   43.15    3.72
  -7  -2   1   51.49    4.47
   6   2  -1   22.57    2.08
   6   2  -1   22.26    1.91
   6   2  -1   21.19    2.11
   6   2  -1   21.78    1.87
  -6  -2   1   19.44    2.27
   5   2  -1    0.05    0.29
   5   2  -1    0.21    0.33
   5   2  -1    0.34    0.25
   5   2  -1   -0.13    0.22
   5   2  -1    0.13    0.22
  -5  -2   1   -0.17    0.21
  -5  -2   1    0.04    0.38
   4   2  -1   20.72    1.90
   4   2  -1   20.48    2.13
   4   2  -1   20.17    1.97
   4   2  -1   23.57    1.82
   4   2  -1   22.13    1.78
   4   2  -1   19.04    1.76
  -4  -2   1   25.18    2.18
   3   2  -1   -0.11    0.22
   3   2  -1   -0.14    0.15
   3   2  -1    1.28    0.52
   3   2  -1    0.32    0.24
   3   2  -1    0.10    0.26
   3   2  -1    0.14    0.16
  -3  -2   1    0.25    0.25
  -3  -2   1    0.47    0.21
  -3  -2   1   -0.11    0.39
   2   2  -1  102.48    7.55
   2   2  -1  103.76    7.41
   2   2  -1  101.10    8.11
   2   2  -1   99.30    7.75
   2   2  -1  102.86    7.42
  -2  -2   1  102.89    7.75
  -2  -2   1   95.83    8.71
  -2  -2   1   99.10    7.53
  -2  -2   1   96.78    7.40
   1   2  -1    3.85    0.45
   1   2  -1    4.22    0.49
   1   2  -1    4.42    0.57
   1   2  -1    3.23    0.49
   1   2  -1    5.26    0.48
  -1  -2   1    2.45    0.56
  -1  -2   1    3.69    0.49
  -1  -2   1    4.13    0.55
  -1  -2   1    4.96    0.49
  -1  -2   1    4.95    0.49
  -1  -2   1    3.89    0.48
   0   2  -1   59.70    4.18
   0   2  -1   59.23    4.41
   0   2  -1   49.14    4.68
   0  -2   1   58.57    4.59
   0  -2   1   57.32    4.69
   0  -2   1   62.01    4.20
   0  -2   1   60.41    4.41
   0  -2   1   48.57    4.17
  -1   2  -1   72.14    5.04
  -1   2  -1   60.34    5.04
  -1   2  -1   69.00    5.53
   1  -2   1   73.41    5.54
   1  -2   1   69.23    5.05
   1  -2   1   72.82    5.06
   1  -2   1   66.31    5.72
  -2   2  -1    8.75    1.24
  -2   2  -1   12.43    1.03
   2  -2   1   13.94    1.25
   2  -2   1   11.82    1.06
   2  -2   1   13.01    0.94
   2  -2   1   12.48    1.25
   2  -2   1   12.51    0.96
  -3   2  -1   14.88    1.51
   3  -2   1   15.38    1.13
   3  -2   1   16.41    1.46
   3  -2   1   12.23    1.22
  -4   2  -1   13.65    1.44
   4  -2   1   12.13    1.39
   4  -2   1   12.96    1.06
   4  -2   1   14.96    1.10
   4  -2   1   12.82    1.19
   4  -2   1   14.09    1.23
  -5   2  -1    2.15    0.53
   5  -2   1    1.92    0.29
   5  -2   1    1.71    0.42
   5  -2   1    2.22    0.37
   5  -2   1    1.88    0.38
   5  -2   1    1.29    0.42
  -6   2  -1   84.85    7.36
   6  -2   1   78.90    6.70
   6  -2   1   84.62    6.53
   6  -2   1   83.59    6.13
   6  -2   1   82.33    6.11
   6  -2   1   80.41    6.70
  -7   2  -1    8.26    1.20
   7  -2   1    6.00    0.93
   7  -2   1    4.70    0.76
   7  -2   1    5.98    0.72
   7  -2   1    6.43    0.74
  -8   2  -1   -0.25    0.46
   8  -2   1   -0.08    0.25
   8  -2   1    0.49    0.38
   8  -2   1    0.04    0.23
   8  -2   1   -0.14    0.36
  -9   2  -1    0.24    0.59
   9  -2   1   -0.17    0.26
   9  -2   1    0.24    0.44
   9  -2   1   -0.08    0.32
   9  -2   1   -0.45    0.33
  10  -2   1    0.04    0.33
  10  -2   1   -0.25    0.42
  10  -2   1    0.04    0.34
  11  -2   1   21.43    1.97
  11  -2   1   18.70    2.31
  10   1  -1   24.29    2.72
  10   1  -1   24.86    2.45
  10   1  -1   30.58    2.48
   9   1  -1    0.49    0.41
   9   1  -1   -0.59    0.52
   9   1  -1    0.07    0.39
   9   1  -1    0.28    0.46
  -9  -1   1   -1.33    0.63
   8   1  -1    3.33    0.79
   8   1  -1    4.77    0.74
   8   1  -1    4.12    0.72
   8   1  -1    4.49    0.88
  -8  -1   1    2.88    0.79
   7   1  -1    6.95    1.03
   7   1  -1    5.79    0.95
   7   1  -1    5.34    0.80
   7   1  -1    5.46    0.79
  -7  -1   1    6.09    1.15
   6   1  -1   15.24    1.59
   6   1  -1   17.15    1.64
   6   1  -1   16.67    1.44
   6   1  -1   17.46    1.46
   6   1  -1   16.04    1.45
  -6  -1   1   13.49    1.76
   5   1  -1   79.43    6.65
   5   1  -1   84.43    6.07
   5   1  -1   78.74    6.06
   5   1  -1   88.02    6.43
   5   1  -1   76.83    6.16
  -5  -1   1   81.68    6.01
  -5  -1   1   78.64    7.18
   4   1  -1    4.58    0.65
   4   1  -1    3.43    0.51
   4   1  -1    4.04    0.55
   4   1  -1    4.65    0.74
   4   1  -1    4.26    0.56
   4   1  -1    4.19    0.63
  -4  -1   1    4.38    0.62
  -4  -1   1    5.86    0.81
  -4  -1   1    5.68    0.57
   3   1  -1    0.40    0.18
   3   1  -1    0.23    0.21
   3   1  -1    0.13    0.14
   3   1  -1    0.28    0.22
   3   1  -1    0.50    0.27
   3   1  -1    0.15    0.16
  -3  -1   1    0.10    0.16
  -3  -1   1    0.09    0.27
  -3  -1   1    0.32    0.26
   2   1  -1    0.59    0.18
   2   1  -1    1.43    0.31
   2   1  -1    0.78    0.24
   2   1  -1    0.82    0.22
   2   1  -1    0.92    0.19
   2   1  -1    0.65    0.20
  -2  -1   1    1.10    0.30
  -2  -1   1    0.68    0.19
  -2  -1   1    0.50    0.17
  -2  -1   1    0.79    0.20
  -2  -1   1    1.25    0.34
  -2  -1   1    0.74    0.29
   1   1  -1   16.42    1.34
   1   1  -1   17.48    1.23
   1   1  -1   12.89    1.20
   1   1  -1   15.15    1.28
   1   1  -1   12.99    1.43
  -1  -1   1   15.31    1.34
  -1  -1   1   16.82    1.29
  -1  -1   1   15.73    1.23
  -1  -1   1   16.61    1.23
  -1  -1   1   16.86    1.21
  -1  -1   1   16.86    1.45
   0   1  -1   93.58    7.90
   0   1  -1   98.42    7.23
   0   1  -1  107.81    7.23
   0  -1   1  107.66    7.24
   0  -1   1  109.19    7.91
   0  -1   1   93.89    7.56
   0  -1   1   95.28    8.10
   0  -1   1   88.47    7.22
  -1   1  -1   20.49    1.69
  -1   1  -1   17.25    1.38
  -1   1  -1   17.57    1.53
  -1   1  -1   19.63    1.40
   1  -1   1   18.11    1.39
   1  -1   1   16.28    1.67
   1  -1   1   20.55    1.41
   1  -1   1   19.26    1.53
  -2   1  -1   13.08    1.17
  -2   1  -1   13.26    1.04
  -2   1  -1   14.19    1.34
  -2   1  -1   14.20    1.06
   2  -1   1   12.68    1.17
   2  -1   1   13.77    1.05
   2  -1   1   15.41    1.34
   2  -1   1   13.86    1.06
  -3   1  -1  108.77   10.47
   3  -1   1  121.70    9.70
   3  -1   1  137.69   10.50
   3  -1   1  117.17    8.86
   3  -1   1  122.88    9.69
  -4   1  -1    0.26    0.31
   4  -1   1   -0.49    0.22
   4  -1   1    0.22    0.24
   4  -1   1    0.04    0.18
   4  -1   1    0.58    0.20
   4  -1   1    0.70    0.22
   4  -1   1    0.32    0.16
  -5   1  -1   28.95    2.99
   5  -1   1   32.20    2.45
   5  -1   1   28.83    2.44
   5  -1   1   31.86    2.66
   5  -1   1   34.76    2.72
   5  -1   1   32.72    2.71
  -6   1  -1    1.21    0.51
   6  -1   1    2.68    0.49
   6  -1   1    1.74    0.38
   6  -1   1    2.32    0.54
   6  -1   1    1.76    0.44
   6  -1   1    2.02    0.38
  -7   1  -1    3.51    0.87
   7  -1   1    4.49    0.81
   7  -1   1    3.68    0.58
   7  -1   1    3.37    0.57
   7  -1   1    4.29    0.75
  -8   1  -1   32.62    3.07
   8  -1   1   23.70    2.34
   8  -1   1   31.03    2.66
   8  -1   1   28.17    2.36
   8  -1   1   28.79    2.67
  -9   1  -1    0.57    0.66
   9  -1   1    1.78    0.60
   9  -1   1    1.78    0.54
   9  -1   1    2.90    0.78
   9  -1   1    2.25    0.54
  10  -1   1    1.67    0.59
  10  -1   1    1.09    0.62
  10  -1   1    1.21    0.54
  11  -1   1    1.70    0.81
  11  -1   1    2.42    0.66
  11   0  -1    0.07    0.58
  11   0  -1    0.00    0.37
  10   0  -1    1.62    0.53
  10   0  -1    0.55    0.46
  10   0  -1    1.57    0.67
   9   0  -1    0.76    0.42
   9   0  -1    0.73    0.41
   9   0  -1    1.56    0.69
   9   0  -1    1.75    0.62
  -9   0   1    0.37    0.71
   8   0  -1   30.54    2.76
   8   0  -1   33.01    3.10
   8   0  -1   35.69    3.08
   8   0  -1   34.84    2.82
  -8   0   1   38.02    3.52
   7   0  -1   10.21    1.29
   7   0  -1   12.03    1.07
   7   0  -1    9.52    1.03
   7   0  -1    9.15    1.23
  -7   0   1   11.13    1.53
   6   0  -1   18.72    1.78
   6   0  -1   18.66    1.76
   6   0  -1   20.19    1.59
   6   0  -1   20.00    1.59
   6   0  -1   15.40    1.55
  -6   0   1   21.12    2.03
   5   0  -1  284.08   21.30
   5   0  -1  302.73   22.94
   5   0  -1  264.57   19.47
   5   0  -1  274.79   20.45
   5   0  -1  255.76   19.48
   5   0  -1  251.73   19.83
  -5   0   1  240.94   22.90
   4   0  -1    0.12    0.41
   4   0  -1    1.34    0.25
   4   0  -1    0.94    0.22
   4   0  -1    0.63    0.31
   4   0  -1    1.00    0.22
   4   0  -1    0.72    0.28
  -4   0   1    1.01    0.37
  -4   0   1    1.03    0.33
   3   0  -1   20.44    1.65
   3   0  -1   21.43    1.64
   3   0  -1   24.34    1.82
   3   0  -1   20.43    1.82
   3   0  -1   22.96    1.98
   3   0  -1   20.48    1.65
  -3   0   1   20.66    1.80
  -3   0   1   22.87    1.80
  -3   0   1   21.61    2.01
   2   0  -1    4.28    0.42
   2   0  -1    4.64    0.53
   2   0  -1    4.74    0.47
   2   0  -1    4.97    0.50
   2   0  -1    4.31    0.52
   2   0  -1    4.23    0.39
  -2   0   1    5.18    0.58
  -2   0   1    4.11    0.47
  -2   0   1    4.26    0.50
   1   0  -1   63.63    4.25
   1   0  -1   58.44    4.46
   1   0  -1   55.69    4.65
   1   0  -1   59.64    4.77
   1   0  -1   55.43    4.25
  -1   0   1   57.98    4.98
  -1   0   1   61.86    4.46
  -1   0   1   55.51    4.25
  -1   0   1   59.58    4.65
  -1   0   1   56.75    4.24
   0   0  -1  297.35   28.37
   0   0  -1  367.44   26.43
   0   0  -1  338.63   24.23
   0   0  -1  364.23   24.23
   0   0   1  353.73   26.43
   0   0   1  321.41   24.22
   0   0   1  307.23   28.36
   0   0   1  326.00   24.22
  -1   0  -1   57.55    5.61
  -1   0  -1   73.88    5.23
  -1   0  -1   57.45    5.21
  -1   0  -1   63.83    4.77
   1   0   1   70.42    5.22
   1   0   1   61.46    5.61
   1   0   1   66.58    4.78
   1   0   1   66.86    4.78
   1   0   1   69.00    5.22
  -2   0  -1   33.49    2.56
  -2   0  -1   25.02    2.33
   2   0   1   28.21    2.24
   2   0   1   30.30    2.33
   2   0   1   26.79    2.51
   2   0   1   24.45    2.11
   2   0   1   28.27    2.32
   2   0   1   28.57    2.11
  -3   0  -1   10.49    0.80
  -3   0  -1    8.57    1.07
   3   0   1    9.29    0.80
   3   0   1    8.40    0.80
   3   0   1    9.60    0.92
   3   0   1    8.85    0.89
   3   0   1    8.92    1.01
   3   0   1    9.85    0.92
  -4   0  -1    7.55    0.98
  -4   0  -1    6.82    0.63
   4   0   1    6.22    0.66
   4   0   1    6.94    0.87
   4   0   1    7.69    0.89
   4   0   1    6.06    0.65
   4   0   1    7.36    0.86
   4   0   1    6.60    0.67
   4   0   1    6.91    0.94
  -5   0  -1   38.77    2.93
  -5   0  -1   39.77    3.64
   5   0   1   40.00    3.30
   5   0   1   40.85    3.00
   5   0   1   40.20    3.22
   5   0   1   33.16    2.96
   5   0   1   38.43    3.02
  -6   0  -1   -0.42    0.39
   6   0   1    0.44    0.24
   6   0   1    0.32    0.31
   6   0   1    0.24    0.23
   6   0   1    0.44    0.35
   6   0   1    0.32    0.22
  -7   0  -1   16.78    1.94
   7   0   1   15.52    1.41
   7   0   1   15.12    1.77
   7   0   1   15.27    1.44
   7   0   1   14.13    1.60
  -8   0  -1   54.30    4.65
   8   0   1   44.52    3.76
   8   0   1   43.19    3.68
   8   0   1   41.32    4.07
   8   0   1   52.35    4.09
  -9   0  -1   -0.07    0.76
   9   0   1    1.01    0.47
   9   0   1    1.43    0.60
   9   0   1    1.06    0.50
   9   0   1    0.92    0.55
  10   0   1    1.46    0.66
  10   0   1    1.37    0.54
  10   0   1    0.82    0.51
  11  -1  -1    5.05    0.89
  11  -1  -1    5.87    1.12
  10  -1  -1    2.92    0.75
  10  -1  -1    2.34    0.57
  10  -1  -1    1.90    0.55
 -10   1   1    1.27    0.92
   9  -1  -1    4.83    0.75
   9  -1  -1    5.96    1.00
   9  -1  -1    6.34    1.08
   9  -1  -1    5.01    0.76
  -9   1   1    4.34    1.11
   8  -1  -1   11.92    1.36
   8  -1  -1   14.80    1.68
   8  -1  -1   11.78    1.19
   8  -1  -1   12.61    1.20
  -8   1   1   14.08    1.80
   7  -1  -1    4.98    0.64
   7  -1  -1    4.43    0.59
   7  -1  -1    5.50    0.62
   7  -1  -1    3.99    0.78
   7  -1  -1    5.48    0.79
  -7   1   1    3.38    0.83
   6  -1  -1    6.53    0.66
   6  -1  -1    8.28    0.92
   6  -1  -1    6.46    0.71
   6  -1  -1    6.70    0.67
   6  -1  -1    5.31    0.90
  -6   1   1    7.56    1.09
   5  -1  -1   39.81    2.78
   5  -1  -1   34.96    3.02
   5  -1  -1   38.95    3.38
   5  -1  -1   39.79    3.07
   5  -1  -1   36.11    2.77
  -5   1   1   29.33    3.34
   4  -1  -1    1.27    0.35
   4  -1  -1    1.49    0.28
   4  -1  -1    1.28    0.32
   4  -1  -1    1.24    0.19
   4  -1  -1    0.92    0.35
  -4   1   1    0.70    0.35
   3  -1  -1  161.07   12.62
   3  -1  -1  137.38   11.24
   3  -1  -1  138.98   12.10
  -3   1   1  151.82   12.62
   2  -1  -1   16.22    1.44
   2  -1  -1   15.97    1.30
   2  -1  -1   18.10    1.46
  -2   1   1   13.51    1.43
  -2   1   1   15.88    1.46
   1  -1  -1   32.44    2.59
   1  -1  -1   29.02    2.35
  -1   1   1   31.68    2.60
   0  -1  -1   75.34    5.25
   0  -1  -1   76.13    5.74
   0  -1  -1   62.56    5.35
   0  -1  -1   73.76    5.26
   0  -1  -1   65.18    5.45
   0  -1  -1   69.43    6.15
   0  -1  -1   63.40    5.73
   0   1   1   80.93    5.26
   0   1   1   64.12    5.45
   0   1   1   77.66    5.74
   0   1   1   70.28    5.25
   0   1   1   76.95    5.74
   0   1   1   81.67    5.36
  -1  -1  -1   34.86    3.30
  -1  -1  -1   39.42    2.82
  -1  -1  -1   40.49    2.87
  -1  -1  -1   38.37    2.82
  -1  -1  -1   38.95    2.94
   1   1   1   36.71    2.81
   1   1   1   35.18    2.93
   1   1   1   37.04    3.10
   1   1   1   35.79    3.08
   1   1   1   36.09    2.81
   1   1   1   37.90    2.87
  -2  -1  -1  171.04   16.01
  -2  -1  -1  203.59   13.64
  -2  -1  -1  189.76   13.64
   2   1   1  192.38   13.65
   2   1   1  188.62   14.25
   2   1   1  205.75   13.92
   2   1   1  195.32   14.90
   2   1   1  166.18   14.90
   2   1   1  171.22   16.01
  -3  -1  -1    1.82    0.31
  -3  -1  -1    1.72    0.46
   3   1   1    2.31    0.45
   3   1   1    1.65    0.31
   3   1   1    2.28    0.34
   3   1   1    1.75    0.38
   3   1   1    2.30    0.40
   3   1   1    1.64    0.45
   3   1   1    1.49    0.30
  -4  -1  -1    6.07    0.97
   4   1   1    7.32    0.80
   4   1   1    7.54    0.80
   4   1   1    7.22    0.89
   4   1   1    7.01    1.04
   4   1   1    6.32    0.87
   4   1   1    7.30    0.78
  -5  -1  -1   54.51    5.02
  -5  -1  -1   62.52    4.18
   5   1   1   56.63    4.20
   5   1   1   54.43    4.20
   5   1   1   52.40    4.61
   5   1   1   57.08    4.48
   5   1   1   46.29    4.24
  -6  -1  -1    8.30    1.39
   6   1   1   11.09    1.19
   6   1   1    9.56    1.12
   6   1   1    8.85    1.23
   6   1   1   11.74    1.42
  -7  -1  -1    1.45    0.59
   7   1   1    1.15    0.53
   7   1   1    0.93    0.39
   7   1   1    1.07    0.56
   7   1   1    1.46    0.46
  -8  -1  -1    4.41    1.13
   8   1   1    4.76    0.95
   8   1   1    5.23    0.84
   8   1   1    4.07    0.93
   8   1   1    5.34    0.87
   9   1   1    0.35    0.43
   9   1   1    1.30    0.60
   9   1   1    0.01    0.40
  10   1   1   22.29    2.69
  10   1   1   25.85    2.48
  10   1   1   29.27    2.47
  11  -2  -1   51.35    4.27
  11  -2  -1   51.27    4.35
  11  -2  -1   60.14    4.83
  10  -2  -1    0.06    0.45
  10  -2  -1    0.43    0.29
  10  -2  -1    0.32    0.36
 -10   2   1   -0.62    0.65
   9  -2  -1    1.66    0.68
   9  -2  -1    1.49    0.37
   9  -2  -1    1.89    0.54
   9  -2  -1    1.74    0.45
  -9   2   1    1.71    0.67
   8  -2  -1    1.43    0.34
   8  -2  -1    0.91    0.31
   8  -2  -1    2.41    0.63
   8  -2  -1    1.53    0.47
  -8   2   1    0.78    0.55
   7  -2  -1   19.66    1.81
   7  -2  -1   18.14    1.50
   7  -2  -1   17.49    1.50
   7  -2  -1   18.33    1.69
  -7   2   1   19.69    2.00
   6  -2  -1  129.24    9.73
   6  -2  -1  113.83    9.14
   6  -2  -1  137.60   10.03
   6  -2  -1  124.18    9.16
  -6   2   1  121.96   10.90
   5  -2  -1    0.46    0.28
   5  -2  -1    0.59    0.28
  -5   2   1    0.29    0.28
   4  -2  -1   29.96    2.39
   4  -2  -1   28.56    2.68
  -4   2   1   29.49    2.70
   3  -2  -1   43.17    3.65
   3  -2  -1   41.31    3.24
   3  -2  -1   41.12    3.59
  -3   2   1   41.17    3.67
  -3   2   1   39.70    3.56
   2  -2  -1    9.15    0.89
   2  -2  -1    9.16    0.88
  -2   2   1    7.19    0.91
   1  -2  -1   23.46    1.65
   1  -2  -1   19.82    1.65
   1  -2  -1   23.73    1.94
   1  -2  -1   20.41    1.81
   1  -2  -1   20.75    1.82
  -1   2   1   23.95    1.81
  -1   2   1   24.37    1.81
  -1   2   1   19.98    1.93
   0  -2  -1   14.80    1.26
   0  -2  -1   14.64    1.24
   0  -2  -1   16.84    1.39
   0  -2  -1   15.94    1.24
   0  -2  -1   18.95    1.52
   0  -2  -1   15.35    1.26
   0   2   1   18.05    1.40
   0   2   1   15.18    1.37
   0   2   1   15.31    1.24
   0   2   1   15.59    1.23
   0   2   1   14.82    1.26
  -1  -2  -1   17.64    1.47
  -1  -2  -1   17.42    1.50
  -1  -2  -1   18.68    1.46
  -1  -2  -1   21.06    1.50
  -1  -2  -1   18.86    1.77
  -1  -2  -1   18.80    1.63
   1   2   1   18.96    1.50
   1   2   1   14.10    1.46
   1   2   1   18.97    1.46
   1   2   1   16.40    1.72
   1   2   1   20.97    1.47
   1   2   1   18.83    1.65
  -2  -2  -1  323.01   25.32
  -2  -2  -1  334.63   28.46
  -2  -2  -1  346.64   24.28
  -2  -2  -1  341.31   24.73
   2   2   1  361.55   28.49
   2   2   1  321.17   24.75
   2   2   1  350.38   25.34
   2   2   1  316.28   24.27
   2   2   1  300.80   26.49
   2   2   1  342.68   24.28
  -3  -2  -1    0.34    0.21
  -3  -2  -1    0.57    0.26
  -3  -2  -1    0.08    0.28
   3   2   1    0.12    0.26
   3   2   1    0.19    0.18
   3   2   1    0.39    0.22
   3   2   1    0.29    0.20
   3   2   1    0.34    0.27
   3   2   1    0.27    0.26
  -4  -2  -1   10.54    1.18
  -4  -2  -1   10.21    0.91
   4   2   1    7.09    1.07
   4   2   1    8.77    1.05
   4   2   1    8.10    0.95
   4   2   1    8.78    0.91
   4   2   1    7.83    0.94
  -5  -2  -1    0.04    0.16
  -5  -2  -1    0.28    0.42
   5   2   1    0.56    0.32
   5   2   1    0.83    0.32
   5   2   1    0.72    0.38
   5   2   1    0.28    0.34
   5   2   1    0.74    0.34
  -6  -2  -1    4.66    0.97
   6   2   1    5.32    0.87
   6   2   1    4.15    0.82
   6   2   1    7.38    0.91
   6   2   1    4.16    0.72
  -7  -2  -1   29.28    3.11
   7   2   1   28.85    2.51
   7   2   1   29.56    2.81
   7   2   1   29.03    2.71
   7   2   1   28.41    2.54
  -8  -2  -1    1.69    0.78
   8   2   1    2.81    0.76
   8   2   1    1.53    0.58
   8   2   1    2.52    0.73
   8   2   1    1.06    0.54
   9   2   1    0.16    0.48
   9   2   1    0.26    0.51
   9   2   1   -0.05    0.53
  10   2   1    1.25    0.76
  10   2   1    1.71    0.68
  10   2   1    1.27    0.70
  11  -3  -1    0.42    0.33
  11  -3  -1   -0.11    0.32
  11  -3  -1    0.61    0.50
  10  -3  -1    1.50    0.43
  10  -3  -1    1.14    0.52
  10  -3  -1    1.06    0.68
  10  -3  -1    1.03    0.37
 -10   3   1   -0.30    0.70
   9  -3  -1   18.20    1.52
   9  -3  -1   16.08    1.69
   9  -3  -1   18.83    1.89
  -9   3   1   17.41    2.08
   8  -3  -1    7.71    0.78
   8  -3  -1    7.52    1.12
   8  -3  -1    8.82    0.93
  -8   3   1    6.57    1.19
   7  -3  -1    3.79    0.68
   7  -3  -1    3.99    0.52
  -7   3   1    1.93    0.67
   6  -3  -1   66.49    5.40
   6  -3  -1   65.34    6.05
  -6   3   1   72.94    6.13
   5  -3  -1    0.32    0.24
   5  -3  -1    1.13    0.32
  -5   3   1    0.48    0.35
   4  -3  -1    9.88    1.13
  -4   3   1   11.79    1.20
  -4   3   1   12.10    1.43
   3  -3  -1   16.55    1.58
   2  -3  -1    0.86    0.20
  -2   3   1    0.82    0.32
   1  -3  -1    1.90    0.36
   1  -3  -1    2.33    0.30
   1  -3  -1    1.65    0.30
   1  -3  -1    1.85    0.29
  -1   3   1    2.11    0.48
  -1   3   1    2.25    0.36
  -1   3   1    1.63    0.33
  -1   3   1    1.58    0.28
   0  -3  -1    0.23    0.18
   0  -3  -1    0.24    0.23
   0  -3  -1   -0.11    0.30
   0  -3  -1    0.28    0.18
   0  -3  -1    0.34    0.16
   0  -3  -1    0.24    0.19
   0   3   1    0.52    0.19
   0   3   1    0.45    0.23
   0   3   1   -0.06    0.14
   0   3   1    0.07    0.24
  -1  -3  -1   15.07    1.19
  -1  -3  -1   13.92    1.20
  -1  -3  -1   12.86    1.20
  -1  -3  -1   15.77    1.46
  -1  -3  -1   13.78    1.20
   1   3   1   13.89    1.18
   1   3   1   13.70    1.21
   1   3   1   16.06    1.35
   1   3   1   11.86    1.41
  -2  -3  -1    7.55    0.77
  -2  -3  -1    7.16    0.82
  -2  -3  -1    5.37    0.94
   2   3   1    9.20    1.08
   2   3   1    7.85    0.76
   2   3   1    7.07    0.77
   2   3   1    8.46    0.90
   2   3   1    7.39    0.84
  -3  -3  -1    2.22    0.45
  -3  -3  -1    2.53    0.45
  -3  -3  -1    2.74    0.62
   3   3   1    2.49    0.45
   3   3   1    1.89    0.45
   3   3   1    2.28    0.44
   3   3   1    2.57    0.53
  -4  -3  -1   65.85    5.34
  -4  -3  -1   62.39    6.31
   4   3   1   73.31    5.64
   4   3   1   75.47    5.48
   4   3   1   73.71    5.37
   4   3   1   71.33    5.91
  -5  -3  -1   11.86    1.64
   5   3   1   10.68    1.33
   5   3   1    8.76    1.17
   5   3   1   10.87    1.42
   5   3   1   12.13    1.21
  -6  -3  -1   -0.45    0.47
   6   3   1   -0.15    0.37
   6   3   1    0.30    0.42
   6   3   1    0.11    0.33
   6   3   1    0.35    0.41
  -7  -3  -1   35.31    3.81
   7   3   1   41.50    3.42
   7   3   1   34.58    3.48
   7   3   1   36.39    3.20
   7   3   1   37.65    3.13
   8   3   1   -0.45    0.41
   8   3   1    0.35    0.49
   8   3   1   -0.49    0.53
   9   3   1   -0.36    0.43
   9   3   1    0.09    0.60
   9   3   1    0.97    0.58
  11  -4  -1   10.01    1.07
  11  -4  -1    7.65    1.01
  11  -4  -1    9.62    1.25
  10  -4  -1    5.46    0.71
  10  -4  -1    4.38    1.01
 -10   4   1    5.23    1.18
   9  -4  -1   18.39    1.93
  -9   4   1   18.20    2.17
   8  -4  -1    1.48    0.51
  -8   4   1    2.00    0.66
   7  -4  -1    3.92    0.68
  -7   4   1    3.43    0.78
   6  -4  -1   25.09    2.22
   6  -4  -1   26.79    2.55
  -6   4   1   25.84    2.56
   5  -4  -1   26.36    2.45
  -5   4   1   24.58    2.48
   4  -4  -1  273.15   26.09
  -4   4   1  341.46   25.16
  -3   4   1    4.04    0.69
   2  -4  -1    3.67    0.48
   2  -4  -1    3.43    0.39
   2  -4  -1    3.47    0.40
  -2   4   1    4.38    0.51
  -2   4   1    2.46    0.56
   1  -4  -1   58.96    4.31
   1  -4  -1   53.62    4.46
   1  -4  -1   57.14    4.32
   1  -4  -1   52.82    4.72
  -1   4   1   61.07    4.95
  -1   4   1   61.65    4.73
  -1   4   1   60.89    4.31
   0  -4  -1    8.02    0.76
   0  -4  -1    8.28    0.78
   0  -4  -1    8.73    1.11
   0  -4  -1    7.55    0.82
   0  -4  -1   10.20    0.84
   0   4   1    7.21    0.98
   0   4   1    9.50    0.92
   0   4   1    7.57    0.76
   0   4   1    7.10    0.89
  -1  -4  -1   10.91    0.93
  -1  -4  -1    9.69    1.12
  -1  -4  -1    8.29    0.87
  -1  -4  -1   10.45    0.90
  -1  -4  -1    9.78    0.91
   1   4   1    9.87    0.90
   1   4   1    7.86    1.07
   1   4   1    8.63    1.00
   1   4   1    7.69    0.89
  -2  -4  -1   -0.02    0.22
  -2  -4  -1    0.24    0.24
  -2  -4  -1   -0.01    0.32
   2   4   1   -0.02    0.23
   2   4   1   -0.31    0.19
   2   4   1    0.18    0.29
  -3  -4  -1    9.09    1.32
  -3  -4  -1    9.78    1.11
   3   4   1   10.00    1.12
   3   4   1    9.26    1.10
   3   4   1    9.66    1.06
   3   4   1   10.18    1.32
  -4  -4  -1   18.15    1.73
  -4  -4  -1   20.11    2.14
   4   4   1   18.85    1.78
   4   4   1   22.62    1.89
   4   4   1   16.92    1.93
   4   4   1   19.71    1.75
  -5  -4  -1    2.58    0.77
   5   4   1    2.43    0.61
   5   4   1    2.77    0.68
   5   4   1    3.61    0.84
   5   4   1    2.60    0.62
  -6  -4  -1   -0.50    0.62
   6   4   1   -0.18    0.36
   6   4   1    0.36    0.50
   6   4   1    0.33    0.50
   6   4   1    0.53    0.40
   7   4   1    1.38    0.62
   7   4   1    1.63    0.77
   7   4   1    0.96    0.67
   7   4   1    2.75    0.71
   8   4   1    0.72    0.79
   8   4   1    0.87    0.51
   9   4   1   24.65    2.53
  10  -5  -1    0.55    0.47
 -10   5   1   -0.34    0.71
   9  -5  -1    0.68    0.48
  -9   5   1   -0.29    0.55
   8  -5  -1    0.34    0.39
   7  -5  -1   23.21    2.09
   6  -5  -1    0.45    0.29
  -6   5   1    1.72    0.67
   5  -5  -1    4.03    0.71
  -5   5   1    4.27    0.92
   4  -5  -1   58.95    5.08
  -4   5   1   53.74    4.96
   3  -5  -1    0.07    0.15
   3  -5  -1   -0.12    0.13
   3  -5  -1    0.17    0.19
  -3   5   1    0.48    0.41
   2  -5  -1   28.09    2.41
   2  -5  -1   29.65    2.20
   2  -5  -1   27.25    2.19
   2  -5  -1   27.34    2.28
  -2   5   1   27.49    2.40
  -2   5   1   29.70    2.60
   1  -5  -1   55.90    4.11
   1  -5  -1   56.76    4.13
   1  -5  -1   51.30    4.22
  -1   5   1   51.58    4.50
  -1   5   1   54.09    4.71
  -1   5   1   56.83    4.10
   0  -5  -1    5.54    0.74
   0  -5  -1    6.63    0.67
   0  -5  -1    7.45    0.84
   0  -5  -1    6.90    1.01
   0  -5  -1    5.99    0.76
   0   5   1    6.92    0.80
   0   5   1    5.90    0.72
   0   5   1    6.66    0.98
   0   5   1    6.94    0.91
  -1  -5  -1  222.12   16.88
  -1  -5  -1  243.30   19.84
  -1  -5  -1  202.92   17.54
   1   5   1  250.48   18.49
   1   5   1  229.25   18.96
   1   5   1  235.55   16.89
   1   5   1  231.12   17.59
  -2  -5  -1    0.28    0.33
  -2  -5  -1    0.49    0.39
   2   5   1    0.05    0.38
   2   5   1    0.39    0.35
   2   5   1    0.36    0.32
   2   5   1    0.13    0.24
  -3  -5  -1    5.22    0.80
  -3  -5  -1    5.00    0.99
   3   5   1    5.07    0.84
   3   5   1    7.42    1.12
   3   5   1    4.77    0.76
  -4  -5  -1    0.83    0.43
  -4  -5  -1   -0.47    0.47
   4   5   1    0.17    0.39
   4   5   1    0.36    0.51
   4   5   1    0.97    0.43
  -5  -5  -1    8.80    1.62
   5   5   1   14.05    1.57
   5   5   1    7.97    1.40
   5   5   1   13.80    1.49
  -6  -5  -1   25.14    2.79
   6   5   1   21.10    2.47
   6   5   1   25.42    2.25
   6   5   1   20.28    2.31
   7   5   1   -0.19    0.60
   7   5   1    0.13    0.51
   8   5   1    0.96    0.67
   8   5   1    0.07    0.52
  10  -6  -1   29.96    2.85
   9  -6  -1   28.91    2.66
   8  -6  -1   -0.22    0.32
   7  -6  -1    5.99    0.85
  -6   6   1    0.53    0.59
  -5   6   1   -0.07    0.43
   4  -6  -1   25.63    2.07
   4  -6  -1   27.71    2.30
  -4   6   1   27.66    2.64
   3  -6  -1   57.37    4.29
   3  -6  -1   54.47    4.08
   3  -6  -1   57.16    4.08
   3  -6  -1   50.28    4.44
  -3   6   1   49.24    4.75
   2  -6  -1   67.39    5.10
   2  -6  -1   67.09    4.93
   2  -6  -1   61.13    5.38
   2  -6  -1   65.41    4.92
  -2   6   1   64.95    5.38
  -2   6   1   65.37    5.64
   1  -6  -1    0.66    0.30
   1  -6  -1    0.67    0.28
   1  -6  -1    0.75    0.26
  -1   6   1    0.68    0.27
  -1   6   1    0.92    0.45
  -1   6   1    0.66    0.32
   0  -6  -1    2.91    0.54
   0  -6  -1    2.72    0.71
   0  -6  -1    2.98    0.57
   0  -6  -1    2.48    0.44
   0  -6  -1    2.25    0.48
   0   6   1    2.25    0.57
   0   6   1    3.32    0.67
   0   6   1    2.73    0.66
   0   6   1    3.37    0.52
  -1  -6  -1    2.50    0.48
  -1  -6  -1    3.76    0.80
  -1  -6  -1    3.06    0.60
   1   6   1    2.85    0.56
   1   6   1    4.41    0.83
   1   6   1    2.76    0.60
   1   6   1    4.26    0.81
  -2  -6  -1    1.93    0.52
  -2  -6  -1    2.24    0.71
   2   6   1    1.21    0.51
   2   6   1    1.90    0.63
   2   6   1    2.06    0.55
   2   6   1    1.66    0.61
  -3  -6  -1   36.05    3.37
  -3  -6  -1   28.57    2.73
   3   6   1   30.38    2.86
   3   6   1   32.10    2.77
   3   6   1   33.43    3.12
   3   6   1   35.47    3.09
  -4  -6  -1   14.49    2.00
   4   6   1   13.90    1.81
   4   6   1   16.71    1.82
   4   6   1   14.64    1.73
   4   6   1   14.25    1.91
  -5  -6  -1    0.68    0.72
   5   6   1    2.16    0.64
   5   6   1    1.82    0.80
   5   6   1    2.21    0.86
   5   6   1    0.45    0.67
   6   6   1   18.28    2.57
   6   6   1   24.06    2.42
   7   6   1    2.91    1.06
  10  -7  -1   15.72    1.87
   9  -7  -1    0.56    0.51
   8  -7  -1    0.65    0.44
   7  -7  -1   23.13    2.03
  -7   7   1   20.69    2.49
  -6   7   1   -0.24    0.59
   5  -7  -1   77.44    5.91
  -5   7   1   82.98    7.00
   4  -7  -1   23.13    1.96
   4  -7  -1   23.34    2.16
   4  -7  -1   25.91    1.98
  -4   7   1   26.78    2.54
   3  -7  -1    0.85    0.31
   3  -7  -1    0.56    0.31
   3  -7  -1    0.53    0.28
   3  -7  -1    0.87    0.40
  -3   7   1    0.92    0.53
  -3   7   1    0.75    0.33
   2  -7  -1    0.97    0.30
   2  -7  -1    1.40    0.38
   2  -7  -1    0.40    0.32
  -2   7   1    0.99    0.43
  -2   7   1    1.33    0.57
   1  -7  -1    8.76    1.01
   1  -7  -1    8.74    1.01
   1  -7  -1    8.44    0.89
   1  -7  -1   10.75    1.42
   1  -7  -1   10.65    1.10
  -1   7   1    6.82    0.93
  -1   7   1    9.42    1.19
  -1   7   1    8.96    1.27
   0  -7  -1    8.02    0.93
   0  -7  -1    6.72    1.21
   0  -7  -1    8.61    1.07
   0   7   1    7.61    1.07
   0   7   1    7.82    1.25
   0   7   1    9.05    1.05
   0   7   1    8.94    1.18
  -1  -7  -1    7.85    1.10
  -1  -7  -1    9.54    1.45
   1   7   1    8.09    1.17
   1   7   1   10.14    1.37
   1   7   1    8.30    1.22
  -2  -7  -1   12.25    1.38
  -2  -7  -1    7.69    1.45
   2   7   1    8.89    1.29
   2   7   1    9.98    1.47
   2   7   1   11.88    1.53
  -3  -7  -1   24.52    2.26
  -3  -7  -1   26.82    2.80
   3   7   1   22.52    2.47
   3   7   1   23.96    2.55
   3   7   1   24.16    2.38
  -4  -7  -1    5.09    1.21
   4   7   1    4.77    1.05
   4   7   1    4.37    1.16
   4   7   1    3.44    1.01
   5   7   1    1.89    0.86
   5   7   1    2.46    0.95
   6   7   1    5.89    1.43
   9  -8  -1    6.72    1.04
   8  -8  -1    3.40    0.65
  -7   8   1    1.21    0.82
  -6   8   1    0.90    0.69
   5  -8  -1    2.65    0.48
   5  -8  -1    3.12    0.49
  -5   8   1    2.99    0.94
   4  -8  -1    3.24    0.69
   4  -8  -1    5.62    0.70
   4  -8  -1    4.99    0.68
  -4   8   1    5.36    1.06
   3  -8  -1    6.16    0.80
   3  -8  -1    7.07    0.85
  -3   8   1    4.57    1.06
   2  -8  -1   35.05    2.92
   2  -8  -1   33.47    2.91
  -2   8   1   40.02    3.46
  -2   8   1   36.90    3.22
   1  -8  -1    0.81    0.70
   1  -8  -1    0.91    0.45
   1  -8  -1    0.82    0.34
  -1   8   1    0.36    0.42
  -1   8   1    0.34    0.56
   0  -8  -1   47.68    3.98
   0  -8  -1   50.25    4.78
   0   8   1   48.89    4.38
   0   8   1   50.89    4.52
  -1  -8  -1    7.97    1.41
  -1  -8  -1    7.93    1.15
   1   8   1    9.90    1.31
   1   8   1    7.29    1.29
   1   8   1    9.18    1.38
  -2  -8  -1    6.53    1.08
  -2  -8  -1    8.62    1.50
   2   8   1    6.41    1.27
   2   8   1    5.23    1.08
   2   8   1    5.75    1.25
  -3  -8  -1   -0.51    0.71
   3   8   1   -0.81    0.57
   3   8   1   -0.08    0.65
   3   8   1    0.33    0.56
   4   8   1   12.93    2.01
   4   8   1   12.32    1.79
   4   8   1   11.93    1.93
   5   8   1    2.26    1.08
   5   8   1    1.81    1.13
   6   8   1    0.85    0.98
  -7   9   1    4.34    1.29
   6  -9  -1   -0.47    0.27
  -6   9   1   -0.54    0.63
   5  -9  -1    4.62    0.72
  -5   9   1    5.38    1.18
   4  -9  -1   12.86    1.36
  -4   9   1   17.92    2.16
   3  -9  -1   40.48    3.29
  -3   9   1   39.89    3.90
   2  -9  -1   -0.81    0.59
   2  -9  -1    0.50    0.44
  -2   9   1    0.35    0.69
   1  -9  -1    2.23    0.62
   1  -9  -1    2.67    0.96
  -1   9   1    0.50    0.44
  -1   9   1    2.24    0.82
   0  -9  -1    5.33    0.97
   0  -9  -1    6.84    1.35
   0   9   1    7.65    1.37
   0   9   1    7.91    1.35
  -1  -9  -1    0.67    0.52
  -1  -9  -1    0.15    0.65
   1   9   1   -0.01    0.67
   1   9   1   -0.29    0.53
   1   9   1    0.65    0.71
  -2  -9  -1   25.85    2.32
  -2  -9  -1   19.41    2.77
   2   9   1   23.30    2.65
   2   9   1   19.22    2.67
   2   9   1   23.98    2.58
   3   9   1   15.80    2.15
   3   9   1   14.47    2.29
   4   9   1    1.33    0.85
   5   9   1    4.72    1.45
  -8  10   1   25.17    3.33
   7 -10  -1    0.48    0.42
  -7  10   1   -0.61    0.72
   6 -10  -1   22.17    1.93
  -6  10   1   20.38    2.82
   5 -10  -1   18.93    1.75
  -5  10   1   18.18    2.57
   4 -10  -1    2.01    0.58
  -4  10   1    0.97    0.86
   3 -10  -1    5.73    0.94
  -3  10   1    4.49    1.20
   2 -10  -1    2.31    0.97
   2 -10  -1    6.03    0.95
  -2  10   1    4.38    1.14
   1 -10  -1   -0.13    0.47
   1 -10  -1    0.82    0.88
  -1  10   1   -0.29    0.76
   0 -10  -1    5.09    1.29
   0 -10  -1    4.82    0.95
   0  10   1    7.02    1.32
  -1 -10  -1    5.16    1.10
   1  10   1    4.70    1.33
   1  10   1    5.99    1.34
   2  10   1   21.21    2.56
   2  10   1   16.94    2.44
   3  10   1    0.57    0.93
   4  10   1    0.18    1.10
   8 -11  -1    5.28    0.86
  -8  11   1    7.19    1.74
   7 -11  -1    4.58    0.80
  -7  11   1    6.05    1.56
   6 -11  -1    1.73    0.56
  -6  11   1    0.22    0.95
   5 -11  -1   -0.52    0.40
  -5  11   1   -1.11    0.75
   4 -11  -1    9.99    1.34
  -4  11   1   10.13    1.79
   3 -11  -1   32.32    3.81
   3 -11  -1   35.29    3.09
  -3  11   1   38.23    3.73
   2 -11  -1    2.03    0.72
   2 -11  -1    0.39    1.00
  -2  11   1    0.88    0.97
   1 -11  -1   12.74    1.68
  -1  11   1   12.64    2.02
   0 -11  -1    1.18    0.79
   0  11   1   -1.09    0.91
   1  11   1    0.73    1.04
   8 -12  -1   -0.47    0.50
  -8  12   1    0.03    1.04
   7 -12  -1    2.01    0.67
  -7  12   1    2.97    1.38
   6 -12  -1    6.26    1.02
  -6  12   1    4.71    1.54
   5 -12  -1    1.53    0.69
  -5  12   1    3.21    1.34
   4 -12  -1    4.56    0.99
  -4  12   1    2.83    1.25
   3 -12  -1    0.88    0.68
  -3  12   1    0.14    1.04
   2 -12  -1    0.03    0.61
  -2  12   1    0.89    1.00
   1 -12  -1    3.08    1.02
  -1  12   1    5.28    1.57
   0 -12  -1    1.67    0.93
   0  12   1    1.54    1.14
  -6  13   1    2.20    1.40
   5 -13  -1    1.27    0.68
  -5  13   1   -0.24    1.12
   4 -13  -1   -0.63    0.58
  -4  13   1    1.90    1.25
   3 -13  -1    1.13    0.83
  -3  13   1    1.87    1.26
   2 -13  -1    0.45    0.75
  -2  13   1   -0.21    1.14
  -1  13  -2    8.54    1.93
   1 -13   2    8.15    1.57
  -2  13  -2    0.95    1.21
   2 -13   2    0.98    0.87
  -3  13  -2    0.75    1.10
   3 -13   2    0.88    0.83
  -4  13  -2   -1.39    0.99
   4 -13   2    0.96    0.76
  -5  13  -2    1.02    1.16
   5 -13   2   -0.29    0.56
   6 -13   2    1.66    0.79
   0  12  -2    1.48    1.25
   0 -12   2    2.30    1.00
  -1  12  -2    2.86    1.27
   1 -12   2    2.12    0.97
  -2  12  -2    0.09    1.04
   2 -12   2    0.63    0.75
  -3  12  -2    6.69    1.49
   3 -12   2    7.08    1.28
  -4  12  -2    5.85    1.52
   4 -12   2    6.18    1.12
  -5  12  -2    6.36    1.73
   5 -12   2    6.96    1.17
   6 -12   2   24.40    2.33
   7 -12   2    0.23    0.52
   8 -12   2   -0.43    0.49
   3  11  -2    0.28    0.96
   2  11  -2   10.33    1.86
  -1 -11   2   -0.07    0.69
   0  11  -2    0.36    0.85
   0 -11   2   -0.23    0.54
  -1  11  -2   10.87    1.76
   1 -11   2   10.61    1.48
   1 -11   2    5.83    1.52
  -2  11  -2    2.49    1.02
   2 -11   2    3.24    0.87
  -3  11  -2   10.81    1.80
   3 -11   2    8.64    1.30
  -4  11  -2    2.52    1.02
   4 -11   2    1.76    0.66
  -5  11  -2    1.80    0.99
   5 -11   2    1.32    0.57
   6 -11   2    1.68    0.61
   7 -11   2    0.19    0.44
   8 -11   2    5.34    0.92
   9 -11   2    7.76    1.11
   4  10  -2    0.70    0.80
   3  10  -2   -0.67    0.70
   3  10  -2   -0.35    0.89
   2  10  -2   16.50    2.52
   1  10  -2    2.33    0.85
   1  10  -2    3.10    0.91
  -1 -10   2    1.43    0.98
  -1 -10   2    1.51    0.73
   0  10  -2   22.43    2.56
   0  10  -2   27.32    2.63
   0 -10   2   21.09    2.95
   0 -10   2   23.50    2.28
  -1  10  -2   18.35    2.30
  -1  10  -2   16.17    2.20
   1 -10   2   16.43    1.87
  -2  10  -2   -0.21    0.68
   2 -10   2    0.46    0.51
  -3  10  -2    2.25    1.02
   3 -10   2    6.18    0.91
  -4  10  -2    7.95    1.53
   4 -10   2    8.71    1.15
  -5  10  -2    7.92    1.50
   5 -10   2    6.56    0.99
   6 -10   2   14.47    1.46
   7 -10   2    9.26    1.13
   8 -10   2   10.18    1.24
   9 -10   2    1.12    0.53
   5   9  -2    3.14    1.24
   4   9  -2    0.72    0.90
   4   9  -2   -0.22    0.71
   3   9  -2   14.34    2.06
   3   9  -2   10.67    1.72
   2   9  -2    2.50    0.83
   2   9  -2    3.81    0.90
   2   9  -2    4.57    1.13
  -2  -9   2    4.05    1.23
  -2  -9   2    3.07    0.84
   1   9  -2   14.74    1.99
   1   9  -2   15.27    1.93
  -1  -9   2   16.17    1.81
  -1  -9   2   15.30    2.24
   0   9  -2    0.80    0.55
   0   9  -2    0.96    0.64
   0  -9   2    0.26    0.70
   0  -9   2    0.26    0.37
  -1   9  -2    6.35    1.19
  -1   9  -2    4.39    0.98
   1  -9   2    6.58    0.99
  -2   9  -2    0.22    0.46
  -2   9  -2    0.64    0.64
   2  -9   2    1.49    0.50
  -3   9  -2   30.26    3.17
   3  -9   2   32.88    2.68
  -4   9  -2    0.45    0.64
   4  -9   2    1.16    0.47
  -5   9  -2   36.25    3.53
   5  -9   2   33.16    2.81
   6  -9   2    1.80    0.48
   7  -9   2    0.49    0.39
   8  -9   2    0.55    0.39
   6   8  -2    3.84    1.26
   5   8  -2   33.68    3.66
   5   8  -2   42.70    3.94
   4   8  -2    1.15    0.87
   4   8  -2    0.70    0.88
   3   8  -2   12.01    1.74
   3   8  -2   13.05    1.60
   3   8  -2   12.44    1.84
  -3  -8   2   12.19    1.98
   2   8  -2    4.14    0.94
   2   8  -2    4.06    0.87
   2   8  -2    3.44    0.96
  -2  -8   2    3.83    1.07
  -2  -8   2    2.97    0.75
   1   8  -2    0.66    0.55
   1   8  -2   -0.34    0.64
   1   8  -2   -0.59    0.44
  -1  -8   2    0.33    0.36
  -1  -8   2   -0.20    0.64
   0   8  -2   42.29    4.40
   0   8  -2   53.47    4.51
   0  -8   2   55.21    4.08
   0  -8   2   50.71    4.92
  -1   8  -2   14.16    1.65
  -1   8  -2   14.51    1.75
   1  -8   2   14.14    1.43
  -2   8  -2   19.77    2.02
  -2   8  -2   18.04    1.88
   2  -8   2   17.51    1.67
  -3   8  -2    0.46    0.37
  -3   8  -2   -0.21    0.52
   3  -8   2    0.37    0.32
   3  -8   2   -0.11    0.27
  -4   8  -2    3.64    0.96
   4  -8   2    3.38    0.61
   4  -8   2    4.81    0.67
   5  -8   2   14.92    1.29
   5  -8   2   11.94    1.23
   6  -8   2    0.88    0.35
   7  -8   2   34.77    2.80
   8  -8   2   18.00    1.61
   9  -8   2   -0.48    0.33
   7   7  -2    6.73    1.62
   6   7  -2    0.57    0.73
   5   7  -2    4.78    1.21
   5   7  -2    4.30    0.91
   5   7  -2    7.64    1.36
  -5  -7   2    5.54    1.29
   4   7  -2    1.16    0.55
   4   7  -2    2.64    0.81
   4   7  -2    2.36    0.89
  -4  -7   2    1.35    0.70
   3   7  -2   19.90    1.98
   3   7  -2   23.42    2.22
   3   7  -2   20.29    2.21
   3   7  -2   16.59    1.84
  -3  -7   2   21.47    1.95
  -3  -7   2   20.46    2.41
   2   7  -2    0.01    0.39
   2   7  -2    0.38    0.54
   2   7  -2    0.45    0.51
   2   7  -2    0.05    0.32
  -2  -7   2    0.35    0.61
  -2  -7   2    0.59    0.40
   1   7  -2   50.56    5.19
   1   7  -2   68.06    5.30
   1   7  -2   61.33    4.77
   1   7  -2   72.21    5.15
  -1  -7   2   62.34    4.78
  -1  -7   2   51.83    5.63
   0   7  -2   31.79    2.73
   0   7  -2   31.03    2.69
   0   7  -2   23.93    2.34
   0  -7   2   28.25    2.41
  -1   7  -2    4.84    0.84
  -1   7  -2    3.79    0.76
  -1   7  -2    4.18    0.63
   1  -7   2    5.24    0.73
   1  -7   2    4.33    0.68
  -2   7  -2    4.70    0.89
  -2   7  -2    4.17    0.58
  -2   7  -2    4.40    0.81
   2  -7   2    4.05    0.64
   2  -7   2    5.39    0.71
   2  -7   2    3.93    0.75
  -3   7  -2    1.11    0.40
  -3   7  -2    1.06    0.56
   3  -7   2    0.50    0.32
   3  -7   2    1.13    0.36
  -4   7  -2    2.30    0.73
   4  -7   2    2.06    0.43
   4  -7   2    2.42    0.45
   4  -7   2    2.26    0.53
   5  -7   2   35.23    2.69
   5  -7   2   32.72    2.67
   6  -7   2   30.47    2.34
   6  -7   2   27.69    2.30
   7  -7   2    4.49    0.60
   7  -7   2    4.15    0.63
   8  -7   2    0.25    0.31
   9  -7   2    2.29    0.78
   9  -7   2    4.37    0.67
  11  -7   2    1.02    0.44
   8   6  -2    2.03    1.08
   8   6  -2    1.23    0.74
   7   6  -2    0.62    0.68
   7   6  -2    0.91    0.53
   6   6  -2   11.10    1.63
   6   6  -2   14.01    1.92
   6   6  -2   15.47    2.14
  -6  -6   2   13.93    2.08
   5   6  -2    1.08    0.48
   5   6  -2    2.00    0.77
   5   6  -2    1.65    0.74
  -5  -6   2    2.59    0.92
   4   6  -2    1.13    0.49
   4   6  -2    0.55    0.56
   4   6  -2    1.54    0.63
   4   6  -2    0.98    0.48
  -4  -6   2    1.14    0.69
   3   6  -2   25.67    2.25
   3   6  -2   22.85    2.42
   3   6  -2   24.13    2.39
   3   6  -2   23.31    2.12
  -3  -6   2   24.54    2.15
  -3  -6   2   23.32    2.67
   2   6  -2    7.08    0.91
   2   6  -2   10.31    1.27
   2   6  -2    6.65    1.06
   2   6  -2    5.75    0.89
  -2  -6   2    9.63    1.38
  -2  -6   2    7.31    0.95
   1   6  -2    5.19    0.91
   1   6  -2    5.51    0.79
   1   6  -2    4.71    0.86
   1   6  -2    5.56    0.79
  -1  -6   2    3.82    0.93
  -1  -6   2    5.97    0.82
   0   6  -2    0.47    0.27
   0   6  -2    0.37    0.35
   0   6  -2    0.22    0.34
   0  -6   2    0.36    0.30
   0  -6   2    0.99    0.37
   0  -6   2    0.03    0.26
  -1   6  -2    2.39    0.52
  -1   6  -2    2.41    0.59
   1  -6   2    2.54    0.48
   1  -6   2    1.54    0.48
   1  -6   2    3.09    0.50
  -2   6  -2   95.53    8.07
  -2   6  -2  105.07    7.06
  -2   6  -2   99.47    7.79
   2  -6   2   93.18    7.09
   2  -6   2   94.46    7.50
   2  -6   2   82.96    7.09
  -3   6  -2    1.20    0.35
  -3   6  -2    1.34    0.56
   3  -6   2    1.36    0.32
   3  -6   2    1.08    0.39
   3  -6   2    0.49    0.25
   4  -6   2   84.01    5.85
   4  -6   2   79.92    5.84
   4  -6   2   70.45    6.39
   5  -6   2    9.34    0.88
   5  -6   2    8.42    0.97
   5  -6   2    9.20    0.84
   6  -6   2    1.99    0.38
   6  -6   2    3.06    0.47
   7  -6   2   20.70    1.69
   8  -6   2   19.68    1.66
   8  -6   2   18.88    1.81
   9  -6   2    0.66    0.36
   9  -6   2    0.51    0.45
   9  -6   2    0.31    0.35
  10  -6   2    3.12    0.68
  10  -6   2    3.11    0.60
  11  -6   2    1.57    0.50
   9   5  -2    4.12    1.06
   8   5  -2    0.87    0.62
   8   5  -2   -0.19    0.45
   7   5  -2   10.48    1.71
   7   5  -2    8.42    1.31
   7   5  -2    7.10    1.34
   6   5  -2   71.32    6.49
   6   5  -2   73.54    6.22
   6   5  -2   83.50    5.94
  -6  -5   2   70.07    6.92
   5   5  -2    1.74    0.54
   5   5  -2    0.77    0.59
   5   5  -2    0.91    0.61
  -5  -5   2    0.93    0.65
   4   5  -2   13.82    1.60
   4   5  -2   14.12    1.36
   4   5  -2   12.94    1.63
  -4  -5   2    9.19    1.66
  -4  -5   2   13.83    1.34
   3   5  -2    3.09    0.58
   3   5  -2    2.63    0.71
   3   5  -2    2.98    0.54
   3   5  -2    3.57    0.70
  -3  -5   2    3.27    0.63
  -3  -5   2    2.04    0.66
   2   5  -2   -0.02    0.24
   2   5  -2    0.17    0.24
   2   5  -2    0.17    0.24
   2   5  -2    0.23    0.35
  -2  -5   2    0.16    0.39
  -2  -5   2    0.54    0.29
   1   5  -2   80.51    6.66
   1   5  -2   77.40    6.34
   1   5  -2   76.60    6.60
   1   5  -2   84.19    6.03
  -1  -5   2   83.54    7.14
  -1  -5   2   77.74    6.27
  -1  -5   2   78.21    6.02
   0   5  -2  104.03    8.10
   0   5  -2  108.97    8.90
   0   5  -2  111.99    9.07
   0   5  -2  108.20    8.54
   0  -5   2  109.39    8.11
   0  -5   2  110.71    8.49
   0  -5   2  109.83    8.11
  -1   5  -2   31.68    2.75
  -1   5  -2   32.14    2.70
   1  -5   2   29.94    2.40
   1  -5   2   30.09    2.41
   1  -5   2   28.12    2.58
  -2   5  -2   12.39    1.19
  -2   5  -2   12.35    1.01
  -2   5  -2   11.72    1.32
   2  -5   2   11.30    1.20
   2  -5   2   10.52    1.05
   2  -5   2   13.10    1.07
  -3   5  -2    1.63    0.34
  -3   5  -2    2.21    0.60
   3  -5   2    1.65    0.39
   3  -5   2    2.59    0.37
   3  -5   2    1.61    0.34
   3  -5   2    1.72    0.47
   4  -5   2    2.90    0.51
   4  -5   2    2.90    0.65
   4  -5   2    4.11    0.49
   4  -5   2    3.76    0.46
   5  -5   2   16.49    1.38
   5  -5   2   16.47    1.56
   5  -5   2   19.00    1.45
   6  -5   2   26.00    2.03
   6  -5   2   25.07    2.27
   6  -5   2   26.84    2.07
  -7   5  -2   63.07    5.64
   7  -5   2   60.33    4.54
   7  -5   2   55.54    4.51
   7  -5   2   62.26    4.96
  -8   5  -2    0.56    0.54
   8  -5   2   -0.11    0.29
   8  -5   2    0.32    0.29
   8  -5   2    0.04    0.40
  -9   5  -2   13.21    1.98
   9  -5   2   11.96    1.59
   9  -5   2   13.91    1.37
   9  -5   2   11.16    1.20
  10  -5   2    1.49    0.53
  10  -5   2    0.75    0.41
  11  -5   2    0.99    0.48
  11  -5   2    0.90    0.59
   9   4  -2   10.49    1.53
   9   4  -2   10.23    1.73
   8   4  -2    5.81    1.11
   8   4  -2    7.80    1.40
   7   4  -2    4.44    0.97
   7   4  -2    3.24    0.91
   7   4  -2    1.92    0.67
  -7  -4   2    1.50    0.92
   6   4  -2    0.78    0.54
   6   4  -2    0.41    0.53
   6   4  -2    1.52    0.54
  -6  -4   2    0.21    0.62
   5   4  -2    4.75    0.87
   5   4  -2    4.73    0.88
   5   4  -2    3.70    0.74
  -5  -4   2    4.72    0.94
   4   4  -2   76.13    6.17
   4   4  -2   73.69    5.88
   4   4  -2   64.98    5.56
  -4  -4   2   70.43    5.55
  -4  -4   2   80.91    6.64
   3   4  -2   17.39    1.52
   3   4  -2   17.12    1.72
   3   4  -2   15.50    1.61
  -3  -4   2   15.81    1.49
  -3  -4   2   19.03    1.88
   2   4  -2   55.93    3.97
   2   4  -2   46.12    4.15
   2   4  -2   47.23    4.35
   2   4  -2   52.17    4.32
  -2  -4   2   53.14    4.13
  -2  -4   2   51.63    3.96
  -2  -4   2   53.56    4.71
   1   4  -2   77.60    6.63
   1   4  -2   86.38    6.30
   1   4  -2   85.93    6.98
   1   4  -2   91.48    6.93
  -1  -4   2   85.75    6.59
  -1  -4   2   77.06    6.28
  -1  -4   2   85.82    6.30
   0   4  -2   21.22    1.89
   0   4  -2   18.20    1.92
   0   4  -2   19.73    1.91
   0   4  -2   22.34    1.76
   0  -4   2   22.87    1.75
   0  -4   2   18.40    1.85
   0  -4   2   24.26    1.96
   0  -4   2   23.51    1.75
  -1   4  -2    9.46    0.94
  -1   4  -2    5.35    0.86
   1  -4   2    7.54    0.75
   1  -4   2    8.14    0.94
   1  -4   2    8.98    0.90
   1  -4   2    8.09    0.78
  -2   4  -2    5.89    0.74
  -2   4  -2    6.51    0.53
  -2   4  -2    5.98    0.85
   2  -4   2    4.91    0.59
   2  -4   2    4.69    0.59
   2  -4   2    4.88    0.71
  -3   4  -2    2.45    0.35
   3  -4   2    2.48    0.35
   3  -4   2    2.54    0.54
   3  -4   2    1.65    0.31
   3  -4   2    1.86    0.37
   4  -4   2   29.64    2.57
   4  -4   2   22.50    2.22
   4  -4   2   27.32    2.05
   4  -4   2   26.61    2.01
  -5   4  -2    6.37    1.05
   5  -4   2    6.88    0.77
   5  -4   2    8.34    0.70
   5  -4   2    7.03    0.71
  -6   4  -2   23.13    2.29
   6  -4   2   21.33    1.71
   6  -4   2   21.59    1.73
   6  -4   2   19.61    1.88
  -7   4  -2    0.63    0.53
   7  -4   2    1.32    0.37
   7  -4   2    1.28    0.34
   7  -4   2    2.21    0.49
  -8   4  -2    0.94    0.69
   8  -4   2    1.71    0.58
   8  -4   2    0.57    0.34
   8  -4   2    1.81    0.45
  -9   4  -2   18.99    2.64
   9  -4   2   25.22    1.91
   9  -4   2   20.36    2.17
   9  -4   2   19.67    2.02
  10  -4   2    1.84    0.52
  10  -4   2    2.44    0.66
  11  -4   2    8.57    1.10
  11  -4   2    5.51    1.09
  11  -4   2    8.42    1.16
  10   3  -2    0.58    0.65
  10   3  -2    4.36    1.18
   9   3  -2    0.43    0.56
   9   3  -2    0.36    0.64
   8   3  -2    1.20    0.60
   8   3  -2    1.13    0.52
   8   3  -2    0.36    0.51
  -8  -3   2    0.55    0.64
   7   3  -2   42.85    3.53
   7   3  -2   34.56    3.20
   7   3  -2   44.43    3.67
  -7  -3   2   34.65    3.81
   6   3  -2    5.31    0.92
   6   3  -2    4.24    0.72
   6   3  -2    4.10    0.85
  -6  -3   2    1.98    0.73
   5   3  -2    1.61    0.44
   5   3  -2    1.59    0.57
   5   3  -2    1.99    0.58
   5   3  -2    1.70    0.44
  -5  -3   2    1.46    0.60
  -5  -3   2    1.39    0.40
   4   3  -2   22.88    2.21
   4   3  -2   28.39    2.51
   4   3  -2   27.14    2.40
   4   3  -2   31.57    2.28
  -4  -3   2   31.03    2.71
  -4  -3   2   24.49    2.20
   3   3  -2   39.43    2.98
   3   3  -2   34.47    3.11
   3   3  -2   37.52    3.27
   3   3  -2   39.48    2.98
  -3  -3   2   39.07    3.54
  -3  -3   2   37.20    3.11
  -3  -3   2   37.61    2.96
   2   3  -2    2.77    0.45
   2   3  -2    1.96    0.44
   2   3  -2    2.12    0.44
   2   3  -2    2.71    0.44
  -2  -3   2    2.40    0.44
  -2  -3   2    3.18    0.63
  -2  -3   2    2.49    0.41
   1   3  -2   39.86    3.09
   1   3  -2   35.89    2.89
   1   3  -2   37.98    2.90
   1   3  -2   35.27    3.16
   1   3  -2   40.15    3.21
  -1  -3   2   37.49    3.05
  -1  -3   2   40.31    3.18
  -1  -3   2   36.80    2.90
  -1  -3   2   36.89    2.90
   0   3  -2  101.90    8.36
   0   3  -2  101.96    8.54
   0   3  -2  100.80    7.63
   0   3  -2  100.19    7.62
   0   3  -2  102.22    8.02
   0  -3   2  103.44    7.63
   0  -3   2  102.19    8.01
   0  -3   2  110.93    8.54
   0  -3   2  103.25    7.64
   0  -3   2  108.84    8.36
  -1   3  -2  910.29   76.52
  -1   3  -2  928.90   74.31
   1  -3   2  951.78   68.12
   1  -3   2 1000.00   74.33
   1  -3   2  929.59   76.51
   1  -3   2  925.23   68.12
  -2   3  -2  106.65    7.41
  -2   3  -2   99.28    8.13
   2  -3   2   91.45    8.79
   2  -3   2   95.74    8.14
   2  -3   2  109.51    7.46
   2  -3   2  104.74    7.46
  -3   3  -2   58.87    4.78
  -3   3  -2   48.56    4.27
   3  -3   2   52.97    3.92
   3  -3   2   62.93    4.77
   3  -3   2   53.95    4.32
   3  -3   2   45.77    3.94
  -4   3  -2   31.19    3.17
   4  -3   2   34.78    3.18
   4  -3   2   33.45    2.59
   4  -3   2   35.48    2.58
   4  -3   2   34.34    2.84
  -5   3  -2   -0.49    0.26
   5  -3   2   -0.15    0.17
   5  -3   2    0.27    0.17
   5  -3   2    0.10    0.18
  -6   3  -2   18.80    2.13
   6  -3   2   18.50    1.63
   6  -3   2   21.49    1.84
   6  -3   2   19.87    1.81
   6  -3   2   21.36    1.67
  -7   3  -2    2.77    0.74
   7  -3   2    3.19    0.54
   7  -3   2    3.65    0.55
   7  -3   2    3.80    0.69
   7  -3   2    3.34    0.63
  -8   3  -2    9.66    1.56
   8  -3   2   11.13    1.42
   8  -3   2   10.28    1.08
   8  -3   2   11.74    1.24
  -9   3  -2    7.68    1.46
   9  -3   2    6.88    1.18
   9  -3   2    9.22    1.20
   9  -3   2    7.51    0.98
  10  -3   2    2.30    0.70
  10  -3   2    1.67    0.54
  10  -3   2    2.00    0.57
  11  -3   2    0.64    0.42
  11  -3   2    0.16    0.56
  10   2  -2    3.24    0.79
  10   2  -2    4.18    1.19
   9   2  -2    4.94    0.96
   9   2  -2    5.91    1.17
   9   2  -2    4.62    0.90
   8   2  -2    2.28    0.76
   8   2  -2    2.81    0.81
   8   2  -2    3.68    0.77
   8   2  -2    2.43    0.57
  -8  -2   2    3.03    0.90
   7   2  -2   57.85    4.57
   7   2  -2   48.07    4.99
   7   2  -2   63.02    4.91
   7   2  -2   56.74    4.64
  -7  -2   2   68.51    5.53
   6   2  -2    7.04    1.02
   6   2  -2    6.08    0.84
   6   2  -2    6.22    0.85
   6   2  -2    6.17    1.03
  -6  -2   2    6.89    1.17
   5   2  -2   14.03    1.43
   5   2  -2   14.31    1.39
   5   2  -2   12.01    1.22
   5   2  -2   13.24    1.26
   5   2  -2   13.39    1.23
  -5  -2   2   13.26    1.55
  -5  -2   2   13.56    1.20
   4   2  -2    3.20    0.50
   4   2  -2    1.85    0.37
   4   2  -2    1.88    0.48
   4   2  -2    2.40    0.50
   4   2  -2    1.27    0.47
   4   2  -2    2.61    0.45
  -4  -2   2    2.23    0.38
  -4  -2   2    1.76    0.48
   3   2  -2   20.31    1.67
   3   2  -2   14.47    1.84
   3   2  -2   18.48    1.48
   3   2  -2   15.50    1.57
   3   2  -2   18.02    1.48
  -3  -2   2   19.83    1.60
  -3  -2   2   17.24    1.45
   2   2  -2    3.26    0.45
   2   2  -2    2.11    0.43
   2   2  -2    2.81    0.44
   2   2  -2    3.16    0.50
  -2  -2   2    2.74    0.42
  -2  -2   2    3.88    0.60
  -2  -2   2    2.60    0.39
  -2  -2   2    2.92    0.48
   1   2  -2    0.09    0.18
   1   2  -2    0.17    0.24
   1   2  -2    0.05    0.17
   1   2  -2    0.06    0.22
  -1  -2   2    0.22    0.20
  -1  -2   2    0.50    0.21
  -1  -2   2   -0.15    0.24
  -1  -2   2    0.13    0.26
   0   2  -2   44.41    3.43
   0   2  -2   45.51    3.79
   0   2  -2   42.02    3.43
   0  -2   2   46.11    3.45
   0  -2   2   48.83    3.84
   0  -2   2   44.88    3.44
   0  -2   2   47.57    3.64
   0  -2   2   48.85    3.79
  -1   2  -2   24.00    1.81
  -1   2  -2   23.87    2.01
   1  -2   2   22.26    1.80
   1  -2   2   24.21    2.01
   1  -2   2   23.69    1.82
  -2   2  -2    1.13    0.26
  -2   2  -2    1.02    0.39
  -2   2  -2    0.89    0.23
  -2   2  -2    1.08    0.19
   2  -2   2    0.67    0.20
   2  -2   2    0.74    0.26
   2  -2   2    0.58    0.18
   2  -2   2    0.87    0.31
  -3   2  -2  128.89    9.19
  -3   2  -2  109.87    9.98
   3  -2   2   96.57    9.19
   3  -2   2  127.94    8.45
   3  -2   2  132.59   10.01
   3  -2   2   98.17    8.42
  -4   2  -2    4.47    0.77
   4  -2   2    5.32    0.59
   4  -2   2    4.78    0.54
   4  -2   2    5.57    0.68
   4  -2   2    4.45    0.60
   4  -2   2    5.20    0.80
  -5   2  -2    0.35    0.33
   5  -2   2    0.26    0.16
   5  -2   2    0.39    0.27
   5  -2   2    0.53    0.25
  -6   2  -2  101.15    8.39
   6  -2   2   95.52    7.66
   6  -2   2   90.89    7.66
   6  -2   2   94.70    7.01
   6  -2   2   91.11    7.42
   6  -2   2   91.24    7.00
  -7   2  -2    1.76    0.65
   7  -2   2    1.80    0.45
   7  -2   2    2.15    0.53
   7  -2   2    1.79    0.55
  -8   2  -2    4.08    0.97
   8  -2   2    5.87    0.92
   8  -2   2    5.17    0.92
   8  -2   2    4.41    0.71
   8  -2   2    4.28    0.69
  -9   2  -2    2.46    0.95
   9  -2   2    3.40    0.64
   9  -2   2    2.41    0.73
   9  -2   2    1.99    0.76
   9  -2   2    2.34    0.57
  10  -2   2    0.85    0.60
  10  -2   2    1.82    0.50
  10  -2   2    0.92    0.47
  11  -2   2    9.40    1.29
  11  -2   2    9.72    1.51
  11   1  -2    1.20    0.84
  10   1  -2   16.60    1.69
  10   1  -2   15.67    2.06
  10   1  -2   14.43    1.78
   9   1  -2    3.47    0.70
   9   1  -2    4.52    0.98
   9   1  -2    3.25    0.70
   9   1  -2    4.98    0.98
  -9  -1   2    3.46    1.06
   8   1  -2    0.83    0.58
   8   1  -2    0.27    0.45
   8   1  -2    0.77    0.40
   8   1  -2    0.23    0.36
  -8  -1   2    0.70    0.57
   7   1  -2    7.05    0.86
   7   1  -2    6.56    1.02
   7   1  -2    5.41    1.00
   7   1  -2    6.00    0.83
  -7  -1   2    8.03    1.25
   6   1  -2    0.22    0.22
   6   1  -2    0.21    0.31
   6   1  -2    0.12    0.21
   6   1  -2   -0.04    0.27
   6   1  -2    0.10    0.23
  -6  -1   2    0.21    0.37
   5   1  -2  390.00   31.52
   5   1  -2  374.42   28.11
   5   1  -2  393.51   27.36
   5   1  -2  306.61   29.29
   5   1  -2  366.32   30.07
   5   1  -2  367.78   26.83
   5   1  -2  341.21   26.84
  -5  -1   2  365.63   26.78
  -5  -1   2  415.66   31.55
   4   1  -2    2.14    0.44
   4   1  -2    1.80    0.35
   4   1  -2    2.03    0.34
   4   1  -2    2.28    0.45
   4   1  -2    2.27    0.37
   4   1  -2    2.58    0.51
  -4  -1   2    1.70    0.48
  -4  -1   2    2.28    0.35
  -4  -1   2    1.57    0.39
   3   1  -2    2.31    0.40
   3   1  -2    2.13    0.44
   3   1  -2    1.88    0.31
   3   1  -2    1.51    0.28
   3   1  -2    2.15    0.34
   3   1  -2    2.15    0.42
  -3  -1   2    2.01    0.34
  -3  -1   2    2.67    0.47
  -3  -1   2    2.76    0.43
   2   1  -2    8.34    0.82
   2   1  -2    9.35    0.90
   2   1  -2    9.09    0.85
   2   1  -2   11.13    1.01
   2   1  -2   10.43    0.96
  -2  -1   2    9.17    0.96
  -2  -1   2   10.04    1.02
  -2  -1   2   10.31    0.83
  -2  -1   2   10.67    0.83
  -2  -1   2   10.07    0.95
   1   1  -2    9.79    0.82
   1   1  -2    7.54    0.83
   1   1  -2    8.21    0.75
   1   1  -2    6.46    0.72
  -1  -1   2    8.57    0.73
  -1  -1   2    8.34    0.75
  -1  -1   2    9.76    0.85
   0   1  -2    1.10    0.23
   0   1  -2    1.70    0.31
   0   1  -2    1.85    0.27
   0  -1   2    1.12    0.23
   0  -1   2    1.79    0.26
   0  -1   2    1.71    0.32
  -1   1  -2    4.59    0.50
  -1   1  -2    5.99    0.54
  -1   1  -2    4.43    0.64
  -1   1  -2    6.22    0.60
   1  -1   2    5.93    0.53
   1  -1   2    5.67    0.60
   1  -1   2    5.46    0.51
   1  -1   2    6.62    0.66
  -2   1  -2   -0.01    0.09
  -2   1  -2    0.19    0.28
  -2   1  -2    0.33    0.18
  -2   1  -2    0.21    0.20
   2  -1   2    0.34    0.20
   2  -1   2    0.55    0.25
   2  -1   2    0.05    0.15
   2  -1   2    0.25    0.17
  -3   1  -2  203.72   16.33
  -3   1  -2  171.61   13.83
   3  -1   2  183.97   15.14
   3  -1   2  208.36   16.33
   3  -1   2  200.11   13.87
   3  -1   2  175.73   15.14
  -4   1  -2   16.68    1.80
  -4   1  -2   19.61    1.41
   4  -1   2   18.48    1.46
   4  -1   2   17.73    1.46
   4  -1   2   16.90    1.60
   4  -1   2   16.50    1.61
   4  -1   2   17.35    1.79
  -5   1  -2    0.27    0.33
  -5   1  -2    0.84    0.21
   5  -1   2    0.25    0.26
   5  -1   2    0.51    0.27
   5  -1   2    0.18    0.20
   5  -1   2    0.77    0.27
   5  -1   2    0.09    0.24
  -6   1  -2    0.53    0.48
   6  -1   2    0.62    0.38
   6  -1   2    0.67    0.31
   6  -1   2    1.26    0.35
   6  -1   2    0.96    0.39
  -7   1  -2    3.19    0.81
   7  -1   2    3.25    0.56
   7  -1   2    2.76    0.63
   7  -1   2    2.27    0.62
   7  -1   2    3.01    0.55
  -8   1  -2   46.53    4.41
   8  -1   2   45.32    3.90
   8  -1   2   46.48    3.62
   8  -1   2   42.60    3.92
   8  -1   2   42.53    3.55
  -9   1  -2   -0.06    0.65
   9  -1   2    0.28    0.38
   9  -1   2    0.27    0.55
   9  -1   2   -0.44    0.35
   9  -1   2   -0.08    0.32
  10  -1   2    6.78    1.06
  10  -1   2    6.65    1.22
  10  -1   2    8.09    1.16
  11  -1   2    7.50    1.37
  11   0  -2    2.08    0.68
  11   0  -2    0.83    0.71
  10   0  -2    6.14    0.93
  10   0  -2    6.04    1.18
  10   0  -2    5.34    0.90
   9   0  -2    2.25    0.56
   9   0  -2    4.59    0.70
   9   0  -2    3.10    0.78
   9   0  -2    5.01    0.99
  -9   0   2    1.67    0.84
   8   0  -2    0.34    0.32
   8   0  -2   -0.11    0.41
   8   0  -2   -0.16    0.38
   8   0  -2    0.03    0.25
  -8   0   2   -0.24    0.52
   7   0  -2    0.63    0.39
   7   0  -2    0.51    0.28
   7   0  -2    0.56    0.39
   7   0  -2    0.52    0.28
  -7   0   2    0.30    0.45
   6   0  -2    0.15    0.21
   6   0  -2    0.35    0.28
   6   0  -2    0.16    0.19
   6   0  -2    0.35    0.30
   6   0  -2    0.43    0.22
  -6   0   2    0.81    0.43
   5   0  -2  105.10   10.03
   5   0  -2  108.47    9.58
   5   0  -2  119.78    8.52
   5   0  -2  128.11    9.33
   5   0  -2  116.04    8.50
   5   0  -2  121.99    8.99
  -5   0   2  109.00   10.03
   4   0  -2   21.48    1.80
   4   0  -2   17.99    2.17
   4   0  -2   24.51    1.98
   4   0  -2   21.94    2.01
   4   0  -2   22.98    1.79
   4   0  -2   23.53    2.00
   4   0  -2   24.95    1.81
  -4   0   2   24.16    1.96
  -4   0   2   26.90    2.20
   3   0  -2    1.67    0.33
   3   0  -2    1.72    0.25
   3   0  -2    1.00    0.28
   3   0  -2    1.05    0.27
   3   0  -2    1.55    0.29
   3   0  -2    1.23    0.21
   3   0  -2    0.97    0.18
  -3   0   2    1.37    0.32
  -3   0   2    1.53    0.39
  -3   0   2    1.55    0.28
   2   0  -2   17.67    1.25
   2   0  -2   17.77    1.48
   2   0  -2   18.67    1.41
   2   0  -2   14.87    1.34
   2   0  -2   15.59    1.26
   2   0  -2   14.84    1.40
  -2   0   2   17.44    1.36
  -2   0   2   14.20    1.38
  -2   0   2   14.51    1.48
  -2   0   2   17.73    1.42
   1   0  -2    6.83    0.63
   1   0  -2    6.53    0.57
   1   0  -2    7.48    0.68
   1   0  -2    7.44    0.59
  -1   0   2    7.39    0.60
  -1   0   2    6.48    0.68
  -1   0   2    7.05    0.63
  -1   0   2    6.57    0.56
  -1   0   2    6.58    0.63
   0   0  -2  281.03   24.85
   0   0  -2  307.17   23.19
   0   0  -2  287.39   21.24
   0   0  -2  308.10   21.25
   0   0   2  252.22   24.85
   0   0   2  303.39   21.25
   0   0   2  311.06   21.24
  -1   0  -2    2.13    0.45
  -1   0  -2    3.99    0.39
  -1   0  -2    2.96    0.42
  -1   0  -2    3.81    0.42
   1   0   2    3.67    0.48
   1   0   2    4.13    0.48
   1   0   2    2.96    0.38
   1   0   2    3.50    0.46
   1   0   2    3.60    0.40
  -2   0  -2  120.19    8.64
  -2   0  -2  119.85    9.45
  -2   0  -2  107.68    8.64
  -2   0  -2  131.85    9.49
  -2   0  -2  117.93   10.18
   2   0   2  111.38    8.64
   2   0   2  129.53   10.17
   2   0   2  120.86    9.45
   2   0   2  107.15    9.44
   2   0   2  116.25    8.65
  -3   0  -2   11.14    1.36
   3   0   2   13.98    1.37
   3   0   2   14.73    1.12
   3   0   2   13.04    1.22
   3   0   2   11.24    1.09
   3   0   2   14.13    1.20
   3   0   2   12.84    1.23
  -4   0  -2    6.73    1.11
  -4   0  -2   10.88    0.86
   4   0   2    8.56    1.07
   4   0   2   10.15    1.01
   4   0   2    8.54    0.85
   4   0   2    9.86    0.98
   4   0   2    8.91    0.88
   4   0   2    9.40    0.88
  -5   0  -2   12.78    1.12
  -5   0  -2   13.47    1.55
   5   0   2   12.19    1.32
   5   0   2   13.21    1.18
   5   0   2   13.36    1.18
   5   0   2   13.82    1.32
   5   0   2   12.41    1.18
  -6   0  -2    1.88    0.71
   6   0   2    2.87    0.62
   6   0   2    2.04    0.55
   6   0   2    3.36    0.55
   6   0   2    2.64    0.49
  -7   0  -2    2.64    0.77
   7   0   2    3.29    0.59
   7   0   2    2.52    0.56
   7   0   2    2.33    0.63
   7   0   2    2.16    0.66
  -8   0  -2   22.64    2.65
   8   0   2   21.42    2.30
   8   0   2   23.44    2.06
   8   0   2   23.96    2.33
   8   0   2   23.97    2.13
   9   0   2    2.21    0.62
   9   0   2    3.12    0.71
   9   0   2    3.06    0.89
  10   0   2    1.15    0.72
  10   0   2    0.08    0.43
  10   0   2    0.19    0.47
  11  -1  -2   25.43    2.23
  11  -1  -2   23.43    2.53
  10  -1  -2   17.97    1.88
  10  -1  -2   16.06    1.63
  10  -1  -2   17.93    1.63
 -10   1   2   16.21    2.31
   9  -1  -2    0.48    0.34
   9  -1  -2    0.29    0.33
   9  -1  -2    1.20    0.53
   9  -1  -2    1.44    0.60
  -9   1   2    0.81    0.62
   8  -1  -2   23.12    2.08
   8  -1  -2   25.83    2.10
   8  -1  -2   25.25    2.38
   8  -1  -2   23.86    2.34
  -8   1   2   31.13    2.75
   7  -1  -2    1.58    0.32
   7  -1  -2    1.09    0.33
   7  -1  -2    1.72    0.44
   7  -1  -2    1.79    0.38
   7  -1  -2    1.36    0.48
  -7   1   2    1.06    0.50
   6  -1  -2    0.64    0.35
   6  -1  -2    0.17    0.25
   6  -1  -2    0.38    0.20
   6  -1  -2    0.19    0.19
   6  -1  -2    0.36    0.33
  -6   1   2    0.06    0.31
   5  -1  -2   -0.04    0.13
   5  -1  -2    0.02    0.24
   5  -1  -2    0.02    0.13
   5  -1  -2    0.12    0.19
   5  -1  -2    0.03    0.21
  -5   1   2    0.18    0.26
   4  -1  -2   29.84    2.47
   4  -1  -2   30.74    2.47
   4  -1  -2   28.20    2.60
   4  -1  -2   29.93    2.71
  -4   1   2   34.97    2.48
  -4   1   2   26.93    2.72
   3  -1  -2  393.98   33.10
   3  -1  -2  417.01   31.76
   3  -1  -2  317.83   29.50
  -3   1   2  430.21   31.78
  -3   1   2  390.64   29.51
   2  -1  -2    2.25    0.37
   2  -1  -2    1.59    0.26
   2  -1  -2    1.82    0.26
  -2   1   2    1.99    0.29
  -2   1   2    2.65    0.41
  -2   1   2    1.92    0.28
   1  -1  -2    2.88    0.28
   1  -1  -2    2.61    0.26
   1  -1  -2    3.00    0.31
   1  -1  -2    2.58    0.28
   1  -1  -2    2.67    0.35
   1  -1  -2    2.37    0.34
  -1   1   2    2.07    0.39
  -1   1   2    3.08    0.30
  -1   1   2    2.55    0.32
  -1   1   2    2.59    0.26
  -1   1   2    2.93    0.36
  -1   1   2    2.99    0.26
   0  -1  -2    3.88    0.47
   0  -1  -2    2.90    0.39
   0  -1  -2    4.39    0.42
   0  -1  -2    3.68    0.48
   0  -1  -2    4.18    0.48
   0  -1  -2    3.88    0.40
   0   1   2    3.92    0.46
   0   1   2    4.97    0.41
   0   1   2    4.37    0.42
   0   1   2    3.72    0.48
   0   1   2    3.86    0.46
   0   1   2    3.89    0.40
  -1  -1  -2   62.75    4.67
  -1  -1  -2   61.26    4.58
  -1  -1  -2   55.84    4.58
  -1  -1  -2   58.83    5.38
  -1  -1  -2   63.18    5.02
  -1  -1  -2   65.09    5.03
   1   1   2   67.38    5.38
   1   1   2   58.14    4.57
   1   1   2   63.06    4.59
   1   1   2   61.77    4.76
   1   1   2   61.72    4.66
  -2  -1  -2   57.72    5.26
  -2  -1  -2   61.33    4.79
  -2  -1  -2   68.34    5.67
   2   1   2   64.73    5.01
   2   1   2   67.99    5.28
   2   1   2   65.86    4.80
   2   1   2   58.53    5.25
   2   1   2   70.54    5.66
   2   1   2   65.91    4.89
  -3  -1  -2    5.77    0.63
  -3  -1  -2    6.50    0.88
   3   1   2    5.21    0.61
   3   1   2    5.56    0.68
   3   1   2    4.36    0.68
   3   1   2    4.92    0.61
   3   1   2    4.82    0.81
   3   1   2    5.72    0.66
  -4  -1  -2   13.38    1.52
  -4  -1  -2   12.16    1.18
   4   1   2   14.69    1.25
   4   1   2   13.46    1.21
   4   1   2   14.81    1.24
   4   1   2   14.55    1.33
   4   1   2   13.73    1.38
  -5  -1  -2  103.81    7.66
  -5  -1  -2   94.39    9.09
   5   1   2  106.19    8.46
   5   1   2  105.78    7.71
   5   1   2  104.57    8.10
   5   1   2  102.64    7.84
   5   1   2  102.66    7.70
  -6  -1  -2    0.87    0.53
   6   1   2    1.30    0.39
   6   1   2    1.60    0.53
   6   1   2    0.69    0.40
   6   1   2    1.21    0.47
  -7  -1  -2    9.47    1.54
   7   1   2    6.71    1.17
   7   1   2   10.18    1.17
   7   1   2    9.09    1.16
   7   1   2    8.10    1.23
  -8  -1  -2    0.71    0.80
   8   1   2   -0.09    0.39
   8   1   2    0.13    0.52
   8   1   2    0.46    0.49
   8   1   2    0.50    0.41
   9   1   2    3.43    0.83
   9   1   2    4.04    0.99
   9   1   2    4.76    0.96
  10   1   2   10.34    1.70
  10   1   2   11.45    1.55
  10   1   2    9.81    1.42
  11  -2  -2   46.88    3.99
  11  -2  -2   48.10    3.58
  11  -2  -2   37.77    3.57
  10  -2  -2    1.74    0.47
  10  -2  -2    2.44    0.64
  10  -2  -2    2.30    0.76
  10  -2  -2    2.16    0.49
 -10   2   2    1.35    0.81
   9  -2  -2    0.41    0.38
   9  -2  -2    0.13    0.24
   9  -2  -2    1.06    0.55
   9  -2  -2    0.05    0.27
  -9   2   2    1.65    0.65
   8  -2  -2    9.86    0.98
   8  -2  -2   10.59    0.96
   8  -2  -2   10.41    1.14
   8  -2  -2    9.81    1.34
  -8   2   2   12.76    1.58
   7  -2  -2    0.04    0.17
   7  -2  -2    0.26    0.19
   7  -2  -2    0.06    0.32
   7  -2  -2    0.12    0.25
  -7   2   2    0.06    0.38
   6  -2  -2   42.54    3.55
   6  -2  -2   41.88    3.92
   6  -2  -2   42.68    3.54
  -6   2   2   44.98    3.95
   5  -2  -2    4.17    0.64
   5  -2  -2    5.40    0.74
  -5   2   2    5.13    0.74
   4  -2  -2    8.69    0.78
   4  -2  -2    7.02    0.83
  -4   2   2    8.23    1.04
  -4   2   2    7.09    0.91
   3  -2  -2  196.17   17.22
   3  -2  -2  190.50   16.61
   3  -2  -2  218.79   15.35
   2  -2  -2    3.64    0.47
   2  -2  -2    3.33    0.36
   2  -2  -2    4.22    0.55
  -2   2   2    4.17    0.59
   1  -2  -2   59.54    4.72
   1  -2  -2   67.89    5.09
   1  -2  -2   59.95    4.65
   1  -2  -2   63.97    4.64
   1  -2  -2   66.17    5.08
  -1   2   2   59.56    4.63
  -1   2   2   67.69    5.08
  -1   2   2   60.58    4.62
  -1   2   2   65.25    5.30
  -1   2   2   63.37    5.07
   0  -2  -2   14.05    1.12
   0  -2  -2   12.90    0.99
   0  -2  -2   12.22    0.99
   0  -2  -2   12.41    1.17
   0  -2  -2   10.57    0.98
   0  -2  -2   11.88    1.11
   0   2   2   13.44    1.12
   0   2   2   12.84    0.98
   0   2   2   11.20    0.96
   0   2   2   11.49    0.98
   0   2   2    9.36    1.14
   0   2   2   12.13    1.09
   0   2   2   10.91    0.99
  -1  -2  -2   25.48    1.91
  -1  -2  -2   25.48    2.22
  -1  -2  -2   24.05    1.87
  -1  -2  -2   23.71    1.87
  -1  -2  -2   25.35    2.10
   1   2   2   26.33    1.88
   1   2   2   25.41    1.89
   1   2   2   20.47    1.91
   1   2   2   23.48    1.90
   1   2   2   20.56    2.05
   1   2   2   23.24    2.21
  -2  -2  -2  223.67   17.32
  -2  -2  -2  260.84   20.32
   2   2   2  212.46   18.04
   2   2   2  246.30   17.31
   2   2   2  219.85   18.90
   2   2   2  260.92   20.33
  -3  -2  -2   18.36    1.45
  -3  -2  -2   12.03    1.67
   3   2   2   17.38    1.62
   3   2   2   17.91    1.75
   3   2   2   15.50    1.51
   3   2   2   18.27    1.45
   3   2   2   18.63    1.44
   3   2   2   16.35    1.45
  -4  -2  -2    0.99    0.32
  -4  -2  -2    1.82    0.56
   4   2   2    1.04    0.37
   4   2   2    0.80    0.33
   4   2   2    0.59    0.28
   4   2   2    1.04    0.40
   4   2   2    0.56    0.30
  -5  -2  -2    4.27    0.88
  -5  -2  -2    2.71    0.55
   5   2   2    1.53    0.46
   5   2   2    3.50    0.68
   5   2   2    3.19    0.72
   5   2   2    3.01    0.56
  -6  -2  -2    0.48    0.58
   6   2   2    0.04    0.38
   6   2   2    1.42    0.45
   6   2   2    0.78    0.39
   6   2   2    0.87    0.54
  -7  -2  -2   74.45    6.88
   7   2   2   73.52    6.04
   7   2   2   65.61    5.69
   7   2   2   74.76    5.84
   7   2   2   79.59    6.36
   8   2   2    0.28    0.55
   8   2   2    0.88    0.60
   8   2   2   -0.12    0.39
   8   2   2   -0.70    0.33
   9   2   2    2.99    0.96
   9   2   2    4.69    0.98
   9   2   2    5.69    0.95
  11  -3  -2   -0.06    0.33
  11  -3  -2   -0.11    0.46
  11  -3  -2    0.44    0.37
  10  -3  -2    3.32    0.53
  10  -3  -2    2.72    0.81
  10  -3  -2    3.93    0.76
  10  -3  -2    2.75    0.53
 -10   3   2    2.55    1.06
   9  -3  -2   17.09    1.71
   9  -3  -2   17.82    1.51
   9  -3  -2   19.08    1.92
  -9   3   2   17.95    2.15
   8  -3  -2    1.81    0.42
   8  -3  -2    2.29    0.60
  -8   3   2    1.50    0.65
   7  -3  -2    2.77    0.61
  -7   3   2    3.93    0.79
   6  -3  -2    9.96    1.08
   6  -3  -2    9.20    1.15
  -6   3   2    7.49    1.13
   5  -3  -2    9.94    1.15
   5  -3  -2    9.80    1.02
  -5   3   2   12.87    1.31
  -5   3   2   11.58    1.20
   4  -3  -2   30.72    2.67
   4  -3  -2   29.88    2.36
  -4   3   2   26.49    2.65
   3  -3  -2   86.97    7.29
   3  -3  -2   77.44    6.45
  -3   3   2   90.66    7.10
   2  -3  -2   33.59    2.54
   2  -3  -2   30.28    2.78
   2  -3  -2   34.83    2.53
   2  -3  -2   36.48    2.80
  -2   3   2   36.11    3.01
   1  -3  -2   84.85    8.03
   1  -3  -2  112.91    8.04
   1  -3  -2   93.27    7.35
   1  -3  -2   99.39    7.34
   1  -3  -2  106.70    7.49
  -1   3   2   98.54    8.02
  -1   3   2   98.39    8.34
  -1   3   2  105.84    7.33
   0  -3  -2   10.98    0.93
   0  -3  -2   10.37    0.91
   0  -3  -2   10.97    1.05
   0  -3  -2   10.28    0.90
   0  -3  -2   10.10    1.10
   0  -3  -2   10.28    0.88
   0   3   2   10.20    0.89
   0   3   2   10.76    1.04
   0   3   2   10.43    0.90
  -1  -3  -2   14.53    1.38
  -1  -3  -2   17.30    1.36
  -1  -3  -2   17.17    1.34
  -1  -3  -2   13.44    1.33
  -1  -3  -2   13.63    1.64
   1   3   2   21.84    1.77
   1   3   2   17.02    1.51
   1   3   2   18.33    1.35
   1   3   2   14.47    1.35
   1   3   2   15.01    1.38
  -2  -3  -2    5.96    0.86
  -2  -3  -2    5.61    0.72
  -2  -3  -2    5.33    0.68
   2   3   2    5.69    0.85
   2   3   2    5.64    0.71
   2   3   2    5.77    0.75
   2   3   2    6.33    0.95
   2   3   2    6.89    0.75
  -3  -3  -2   15.69    1.43
  -3  -3  -2   15.31    1.71
   3   3   2   16.55    1.64
   3   3   2   17.86    1.47
   3   3   2   14.63    1.47
   3   3   2   17.15    1.46
  -4  -3  -2   21.58    1.76
  -4  -3  -2   17.52    2.09
   4   3   2   19.38    1.75
   4   3   2   18.70    1.96
   4   3   2   20.19    1.76
   4   3   2   20.31    1.83
  -5  -3  -2    0.58    0.50
   5   3   2    0.01    0.40
   5   3   2   -0.05    0.27
   5   3   2    0.28    0.33
   5   3   2    0.62    0.45
  -6  -3  -2    1.33    0.71
   6   3   2    0.74    0.44
   6   3   2    1.53    0.56
   6   3   2    0.45    0.40
   6   3   2    0.75    0.54
  -7  -3  -2   17.12    2.43
   7   3   2   18.09    1.82
   7   3   2   19.32    2.27
   7   3   2   15.34    2.02
   7   3   2   20.96    1.93
   8   3   2    2.51    0.91
   8   3   2    1.01    0.56
   8   3   2    0.86    0.63
   9   3   2    0.51    0.64
   9   3   2    1.85    0.74
   9   3   2    0.22    0.82
  11  -4  -2    7.52    0.94
  10  -4  -2    5.53    1.13
 -10   4   2    8.64    1.47
   9  -4  -2   75.51    6.18
  -9   4   2   75.44    6.93
   8  -4  -2    3.29    0.72
  -8   4   2    3.66    0.85
   7  -4  -2    8.95    1.02
  -7   4   2    5.68    1.02
   6  -4  -2    1.64    0.39
   6  -4  -2    1.69    0.41
  -6   4   2    2.90    0.76
   5  -4  -2   10.48    1.17
   5  -4  -2   10.46    1.01
  -5   4   2   12.14    1.47
   4  -4  -2  101.11    9.48
   4  -4  -2  120.40    8.42
  -4   4   2  106.32    9.21
   3  -4  -2   10.36    1.02
   3  -4  -2   12.73    1.06
  -3   4   2   12.41    1.27
   2  -4  -2    1.00    0.27
   2  -4  -2    0.83    0.20
   2  -4  -2    1.04    0.22
   2  -4  -2    1.04    0.19
  -2   4   2    1.42    0.27
  -2   4   2    0.31    0.34
   1  -4  -2   -1.24    0.35
   1  -4  -2   -0.34    0.17
   1  -4  -2   -0.15    0.10
   1  -4  -2    0.14    0.17
   1  -4  -2    0.09    0.20
   1  -4  -2    0.09    0.16
  -1   4   2   -0.06    0.19
  -1   4   2   -0.08    0.12
  -1   4   2   -0.04    0.30
   0  -4  -2    2.38    0.40
   0  -4  -2    2.20    0.37
   0  -4  -2    1.95    0.35
   0  -4  -2    1.07    0.43
   0  -4  -2    2.17    0.30
   0   4   2    2.49    0.39
   0   4   2    0.76    0.30
   0   4   2    2.45    0.54
   0   4   2    2.18    0.34
  -1  -4  -2   44.98    4.16
  -1  -4  -2   45.12    3.60
  -1  -4  -2   53.26    3.60
  -1  -4  -2   39.58    3.52
   1   4   2   41.41    3.60
   1   4   2   46.53    3.88
   1   4   2   49.95    3.52
  -2  -4  -2   36.45    3.05
  -2  -4  -2   41.02    3.63
  -2  -4  -2   35.45    3.12
   2   4   2   37.94    3.04
   2   4   2   40.73    3.39
   2   4   2   38.99    3.14
   2   4   2   40.74    3.11
  -3  -4  -2    1.33    0.40
  -3  -4  -2    1.25    0.51
   3   4   2    1.16    0.41
   3   4   2    1.41    0.44
   3   4   2    1.57    0.43
   3   4   2    1.51    0.53
  -4  -4  -2   51.78    5.35
  -4  -4  -2   56.20    4.52
   4   4   2   63.02    4.54
   4   4   2   55.00    4.61
   4   4   2   61.47    4.74
   4   4   2   58.60    5.00
  -5  -4  -2    2.12    0.74
   5   4   2    1.64    0.60
   5   4   2    1.50    0.66
   5   4   2    2.10    0.60
   5   4   2    2.34    0.58
  -6  -4  -2    4.93    1.13
   6   4   2    4.04    0.82
   6   4   2    1.81    0.57
   6   4   2    4.45    0.87
   6   4   2    3.14    0.83
   7   4   2   -0.19    0.53
   7   4   2    0.93    0.61
   7   4   2   -0.38    0.55
   7   4   2    0.20    0.47
   8   4   2    3.70    0.92
   8   4   2    3.24    1.09
   8   4   2    2.47    0.86
  10  -5  -2    0.16    0.46
 -10   5   2    0.83    0.66
   9  -5  -2    5.33    0.93
   8  -5  -2   -0.03    0.35
   7  -5  -2   32.96    2.80
   6  -5  -2   14.43    1.19
   6  -5  -2   10.58    1.33
  -6   5   2    9.53    1.55
   5  -5  -2   12.55    1.41
   5  -5  -2   13.42    1.20
  -5   5   2   13.92    1.55
   4  -5  -2   73.72    6.58
  -4   5   2   76.00    6.44
   3  -5  -2    3.72    0.43
   3  -5  -2    3.94    0.51
   3  -5  -2    3.17    0.41
  -3   5   2    2.28    0.61
   2  -5  -2    1.19    0.28
   2  -5  -2    0.63    0.22
   2  -5  -2    1.01    0.20
   2  -5  -2    0.82    0.30
  -2   5   2    1.57    0.34
  -2   5   2    0.62    0.42
   1  -5  -2    9.98    0.84
   1  -5  -2    8.01    0.71
   1  -5  -2    8.00    0.80
   1  -5  -2    6.56    1.01
   1  -5  -2    7.09    0.82
  -1   5   2    8.95    1.20
  -1   5   2    8.41    0.76
  -1   5   2    6.76    0.90
   0  -5  -2   23.68    2.12
   0  -5  -2   25.09    2.51
   0  -5  -2   27.33    2.15
   0  -5  -2   26.54    2.10
   0  -5  -2   25.76    2.10
   0   5   2   26.74    2.17
   0   5   2   25.64    2.34
   0   5   2   25.98    2.09
   0   5   2   26.51    2.46
  -1  -5  -2   55.99    4.25
  -1  -5  -2   50.39    4.15
  -1  -5  -2   56.08    4.93
   1   5   2   60.88    4.75
   1   5   2   51.59    4.28
   1   5   2   46.76    4.12
   1   5   2   56.59    4.59
  -2  -5  -2    3.10    0.56
  -2  -5  -2    4.03    0.82
  -2  -5  -2    3.13    0.60
   2   5   2    6.33    0.79
   2   5   2    4.38    0.78
   2   5   2    3.49    0.63
  -3  -5  -2   -0.14    0.51
  -3  -5  -2   -0.13    0.33
   3   5   2    0.31    0.30
   3   5   2   -0.02    0.37
   3   5   2    0.25    0.45
  -4  -5  -2    3.27    0.82
   4   5   2    2.47    0.59
   4   5   2    2.48    0.79
   4   5   2    2.69    0.69
  -5  -5  -2    0.87    0.72
   5   5   2    0.27    0.52
   5   5   2   -0.52    0.39
   5   5   2    0.48    0.42
   6   5   2   48.03    4.36
   6   5   2   48.04    4.15
   6   5   2   55.82    4.73
   7   5   2    2.72    0.88
   7   5   2    3.96    1.06
   8   5   2    3.59    1.16
  10  -6  -2   16.01    1.90
   9  -6  -2   15.20    1.77
   8  -6  -2   18.18    1.76
   7  -6  -2   13.03    1.29
  -7   6   2   11.43    1.78
   6  -6  -2    0.00    0.22
  -6   6   2   -0.40    0.44
   5  -6  -2    5.77    0.86
   4  -6  -2   31.53    2.77
   4  -6  -2   33.89    2.51
   4  -6  -2   32.20    2.52
  -4   6   2   35.12    3.15
   3  -6  -2    1.50    0.40
   3  -6  -2    2.07    0.37
   3  -6  -2    2.10    0.33
   3  -6  -2    1.47    0.31
  -3   6   2    1.91    0.61
   2  -6  -2  219.14   14.10
   2  -6  -2  183.57   14.04
   2  -6  -2  178.83   14.56
  -2   6   2  201.60   15.35
  -2   6   2  177.44   15.91
   1  -6  -2    1.39    0.39
   1  -6  -2    1.87    0.32
   1  -6  -2    1.43    0.41
   1  -6  -2    2.49    0.47
   1  -6  -2    2.03    0.66
  -1   6   2    1.67    0.61
  -1   6   2    2.12    0.48
  -1   6   2    2.17    0.39
   0  -6  -2    6.36    0.81
   0  -6  -2    7.15    0.84
   0  -6  -2    5.03    0.75
   0  -6  -2    3.26    0.82
   0  -6  -2    5.72    0.68
   0   6   2    7.90    1.09
   0   6   2    5.52    0.90
   0   6   2    7.08    0.83
   0   6   2    6.11    0.80
  -1  -6  -2   11.24    1.22
  -1  -6  -2    8.95    1.02
  -1  -6  -2    7.92    1.37
   1   6   2   13.27    1.48
   1   6   2    9.37    1.15
   1   6   2   12.95    1.21
   1   6   2   13.24    1.54
  -2  -6  -2    5.63    1.10
  -2  -6  -2    5.73    0.88
   2   6   2    5.74    1.06
   2   6   2    5.95    0.91
   2   6   2    7.60    0.96
   2   6   2    6.65    1.07
  -3  -6  -2   16.86    2.08
  -3  -6  -2   16.83    1.73
   3   6   2   17.41    1.77
   3   6   2   20.29    2.04
   3   6   2   15.59    2.08
   3   6   2   20.06    1.78
  -4  -6  -2    1.35    0.74
   4   6   2    0.86    0.67
   4   6   2    1.60    0.64
   4   6   2    0.54    0.56
   4   6   2    1.08    0.50
  -5  -6  -2    1.96    0.75
   5   6   2    1.82    0.74
   5   6   2    1.21    0.69
   6   6   2    5.48    1.27
   6   6   2    2.55    0.97
   7   6   2    0.11    0.68
  10  -7  -2   27.36    2.62
   9  -7  -2   -0.65    0.39
   8  -7  -2    1.81    0.51
   7  -7  -2   11.20    1.18
  -7   7   2   11.96    1.85
   6  -7  -2    5.60    0.74
  -6   7   2    6.33    1.24
  -5   7   2   22.93    2.44
   4  -7  -2    0.85    0.27
   4  -7  -2    0.41    0.29
   4  -7  -2    0.55    0.26
  -4   7   2    0.80    0.58
   3  -7  -2   10.08    1.14
   3  -7  -2   11.50    1.02
   3  -7  -2   10.92    1.05
   3  -7  -2   10.39    0.97
  -3   7   2   10.22    1.10
  -3   7   2    9.75    1.41
   2  -7  -2    1.62    0.39
   2  -7  -2    1.54    0.43
   2  -7  -2    1.27    0.29
  -2   7   2    1.22    0.46
  -2   7   2    1.26    0.58
   1  -7  -2    1.06    0.39
   1  -7  -2    0.51    0.53
   1  -7  -2    1.01    0.29
   1  -7  -2    0.86    0.40
  -1   7   2    1.37    0.63
  -1   7   2    1.68    0.54
   0  -7  -2   30.07    2.95
   0  -7  -2   28.48    2.38
   0  -7  -2   29.25    2.44
   0   7   2   29.56    2.56
   0   7   2   27.55    2.66
   0   7   2   26.82    2.80
  -1  -7  -2   45.20    4.26
  -1  -7  -2   45.56    3.58
   1   7   2   45.49    4.08
   1   7   2   45.08    3.71
   1   7   2   38.29    3.89
  -2  -7  -2    0.29    0.40
  -2  -7  -2    1.20    0.53
   2   7   2   -0.24    0.51
   2   7   2   -0.11    0.41
   2   7   2    0.39    0.54
  -3  -7  -2   59.25    5.37
  -3  -7  -2   55.17    4.54
   3   7   2   53.89    5.06
   3   7   2   56.41    4.69
   3   7   2   54.70    5.03
  -4  -7  -2    0.26    0.78
   4   7   2   -0.33    0.58
   4   7   2    0.94    0.70
   4   7   2    0.18    0.76
   5   7   2    0.31    0.68
   5   7   2    0.18    0.89
   5   7   2    0.50    0.61
   6   7   2    0.61    0.87
  -8   8   2   26.53    3.02
   7  -8  -2   26.64    2.08
  -7   8   2   16.13    2.61
  -6   8   2    0.34    0.68
   5  -8  -2    9.78    0.90
   5  -8  -2    7.26    0.86
  -5   8   2    6.77    1.31
   4  -8  -2    2.77    0.54
  -4   8   2    5.01    1.11
   3  -8  -2    0.99    0.40
  -3   8   2    1.05    0.66
   2  -8  -2    6.98    0.93
   2  -8  -2    7.63    1.30
  -2   8   2    6.18    1.18
  -2   8   2    8.84    1.20
   1  -8  -2   19.09    1.73
   1  -8  -2   17.35    2.07
  -1   8   2   19.20    2.07
  -1   8   2   17.03    1.87
   0  -8  -2   14.37    1.90
   0  -8  -2   13.90    1.52
   0   8   2   11.36    1.76
   0   8   2   13.62    1.68
  -1  -8  -2   -0.10    0.42
  -1  -8  -2    1.24    0.76
   1   8   2    0.14    0.51
   1   8   2   -0.20    0.52
   1   8   2    0.65    0.64
  -2  -8  -2    1.99    0.74
  -2  -8  -2    0.27    0.48
   2   8   2    0.12    0.67
   2   8   2    0.69    0.65
   2   8   2    0.33    0.69
  -3  -8  -2    8.33    1.46
   3   8   2    6.85    1.38
   3   8   2    7.07    1.34
   3   8   2    3.65    1.01
   4   8   2    0.88    0.85
   4   8   2    0.43    0.96
   4   8   2    0.48    0.90
   5   8   2   11.52    2.02
  -8   9   2    3.68    1.23
  -7   9   2    2.82    1.07
   6  -9  -2    3.75    0.59
  -6   9   2    2.38    0.92
   5  -9  -2   22.64    1.94
  -5   9   2   22.24    2.58
   4  -9  -2    0.56    0.41
  -4   9   2    0.12    0.63
   3  -9  -2   71.05    5.40
  -3   9   2   67.67    6.27
   2  -9  -2    2.79    0.63
   2  -9  -2    3.02    0.97
  -2   9   2    2.35    0.90
   1  -9  -2   -0.48    0.58
   1  -9  -2   -0.08    0.41
  -1   9   2    0.66    0.74
   0  -9  -2   -1.01    0.56
   0  -9  -2    0.07    0.48
   0   9   2   -0.32    0.50
   0   9   2   -0.36    0.68
  -1  -9  -2    5.89    1.32
  -1  -9  -2    7.60    1.19
   1   9   2    7.81    1.46
   1   9   2    6.10    1.19
  -2  -9  -2    5.18    1.11
   2   9   2    7.82    1.39
   2   9   2    7.01    1.49
   3   9   2    3.84    1.25
   3   9   2    3.14    1.17
   4   9   2   -0.31    0.83
  -8  10   2    1.58    1.13
   7 -10  -2   14.22    1.39
  -7  10   2   15.64    2.30
   6 -10  -2    5.86    0.86
  -6  10   2    5.70    1.39
   5 -10  -2    3.48    0.72
  -5  10   2    3.73    1.14
   4 -10  -2   -0.26    0.37
  -4  10   2    0.92    0.80
   3 -10  -2    0.44    0.77
   3 -10  -2    1.51    0.62
  -3  10   2    0.66    0.70
   2 -10  -2    0.56    0.55
   2 -10  -2   -0.33    0.63
  -2  10   2    0.30    0.77
   1 -10  -2    4.66    0.91
   1 -10  -2    4.93    1.20
  -1  10   2    3.53    1.09
   0 -10  -2   17.43    1.89
   0 -10  -2    9.31    1.73
   0  10   2   14.39    2.04
  -1 -10  -2    1.46    0.70
   1  10   2    1.60    1.03
   2  10   2   25.53    3.11
   3  10   2    2.90    1.26
   8 -11  -2   18.85    1.72
  -8  11   2   16.43    2.85
   7 -11  -2    2.18    0.60
  -7  11   2    0.61    1.04
   6 -11  -2    1.10    0.56
  -6  11   2    0.99    0.97
   5 -11  -2    2.97    0.74
  -5  11   2    3.60    1.27
   4 -11  -2    1.19    0.62
   4 -11  -2   -0.15    0.84
  -4  11   2    0.02    0.84
   3 -11  -2    7.84    1.57
   3 -11  -2   11.98    1.49
  -3  11   2   13.81    2.06
   2 -11  -2    4.04    1.26
   2 -11  -2    4.63    1.04
  -2  11   2    5.42    1.42
   1 -11  -2   11.85    1.59
  -1  11   2   11.35    1.97
   0 -11  -2    0.67    0.65
   0  11   2    0.39    0.94
   1  11   2    1.40    1.16
   8 -12  -2    0.01    0.49
   7 -12  -2   -0.30    0.52
  -7  12   2    0.35    1.03
   6 -12  -2   23.90    2.18
  -6  12   2   18.92    2.92
   5 -12  -2    2.33    0.74
  -5  12   2    3.28    1.35
   4 -12  -2   11.83    1.55
  -4  12   2   10.56    2.07
   3 -12  -2    4.94    1.12
  -3  12   2    8.70    1.79
   2 -12  -2    1.79    0.78
  -2  12   2    3.25    1.30
   1 -12  -2   -0.10    0.71
  -1  12   2    0.82    1.08
   0 -12  -2    2.01    0.87
   0  12   2   -0.66    1.09
   4 -13  -2    0.44    0.80
  -4  13   2    0.84    1.17
   3 -13  -2    1.53    0.83
  -3  13   2   -1.52    1.02
   1 -13   3   12.23    1.82
  -2  13  -3   -0.55    0.97
   2 -13   3    0.23    0.73
  -3  13  -3    0.03    1.07
   3 -13   3    0.09    0.69
  -4  13  -3    0.84    1.08
   4 -13   3    0.31    0.76
   5 -13   3    0.21    0.63
   6 -13   3   11.76    1.60
   7 -13   3    6.60    1.21
   0 -12   3    5.15    1.22
  -1  12  -3    4.32    1.24
   1 -12   3    5.18    1.11
  -2  12  -3    0.92    0.96
   2 -12   3    1.23    0.74
  -3  12  -3    0.24    0.94
   3 -12   3   -0.36    0.54
  -4  12  -3    6.66    1.56
   4 -12   3    1.71    0.76
   5 -12   3    5.47    1.05
   6 -12   3    7.62    1.17
   7 -12   3    1.78    0.69
   8 -12   3    0.17    0.58
   3  11  -3    2.85    1.18
   2  11  -3    2.08    1.07
   1  11  -3   -0.43    0.76
  -1 -11   3    0.79    0.74
   0  11  -3    1.86    0.96
   0 -11   3    4.63    1.00
  -1  11  -3   25.85    2.81
   1 -11   3   23.29    2.41
  -2  11  -3   -0.18    0.81
   2 -11   3   -0.94    0.49
  -3  11  -3   31.83    3.39
   3 -11   3   31.11    2.85
  -4  11  -3    2.78    1.08
   4 -11   3    3.81    0.84
   5 -11   3   -0.15    0.41
   6 -11   3    0.18    0.49
   7 -11   3    3.13    0.78
   8 -11   3    7.73    1.17
   9 -11   3   -0.19    0.50
   4  10  -3    0.73    1.01
   3  10  -3    2.02    1.21
   3  10  -3    0.55    0.90
   2  10  -3    1.54    0.75
   1  10  -3   11.83    1.71
   1  10  -3   15.11    2.17
  -1 -10   3   10.52    1.56
  -1 -10   3   10.83    1.95
   0  10  -3   22.27    2.29
   0  10  -3   21.20    2.59
   0 -10   3   23.02    2.10
   0 -10   3   12.79    2.45
  -1  10  -3    0.16    0.72
  -1  10  -3    1.30    0.64
   1 -10   3    0.30    0.50
  -2  10  -3    9.55    1.58
   2 -10   3    9.83    1.35
  -3  10  -3    0.26    0.70
   3 -10   3    0.25    0.44
  -4  10  -3   -0.26    0.74
   4 -10   3    0.60    0.46
   5 -10   3    8.55    1.12
   6 -10   3   26.36    2.33
   7 -10   3    1.33    0.54
   8 -10   3   26.01    2.31
   9 -10   3    0.39    0.49
  10 -10   3    1.22    0.56
   6   9  -3    3.03    1.22
   5   9  -3    4.55    1.37
   4   9  -3    2.09    1.06
   4   9  -3    0.54    0.79
   3   9  -3   15.51    2.16
   3   9  -3   18.35    2.61
   2   9  -3   15.55    1.86
   2   9  -3   12.66    1.88
   2   9  -3   15.00    2.01
  -2  -9   3   12.89    2.09
  -2  -9   3   13.56    1.73
   1   9  -3    0.17    0.55
   1   9  -3   -0.45    0.52
  -1  -9   3   -0.26    0.81
  -1  -9   3    1.18    0.64
   0   9  -3    7.27    1.24
   0   9  -3    4.79    1.11
   0  -9   3    7.25    1.11
   0  -9   3    6.55    1.39
  -1   9  -3    1.13    0.66
  -1   9  -3    1.30    0.57
   1  -9   3    0.36    0.47
  -2   9  -3    0.22    0.49
  -2   9  -3    1.40    0.69
   2  -9   3    0.31    0.42
  -3   9  -3   18.44    2.33
   3  -9   3   17.41    1.70
  -4   9  -3    0.53    0.71
   4  -9   3    0.47    0.41
   5  -9   3   13.08    1.33
   6  -9   3    0.60    0.36
   7  -9   3    2.37    0.60
   8  -9   3    6.29    0.92
   9  -9   3    0.55    0.47
  10  -9   3   10.87    1.28
   6   8  -3    1.03    0.95
   5   8  -3   24.33    3.20
   5   8  -3   27.26    3.37
   4   8  -3    9.14    1.57
   4   8  -3   11.25    1.74
  -4  -8   3    7.13    1.60
   3   8  -3    0.68    0.55
   3   8  -3    0.46    0.69
  -3  -8   3   -1.10    0.63
   2   8  -3    4.43    1.07
   2   8  -3    7.19    1.27
   2   8  -3    7.14    1.06
  -2  -8   3    7.51    1.45
  -2  -8   3    6.77    1.06
   1   8  -3    9.83    1.54
   1   8  -3    7.82    1.29
   1   8  -3    8.07    1.17
  -1  -8   3    5.56    1.04
  -1  -8   3   11.11    1.71
   0   8  -3   76.73    6.76
   0   8  -3   79.38    6.83
   0  -8   3   82.00    6.16
  -1   8  -3   13.85    1.81
  -1   8  -3   13.66    1.77
   1  -8   3   16.02    1.51
  -2   8  -3   68.27    6.24
  -2   8  -3   77.23    6.53
   2  -8   3   77.75    5.73
  -3   8  -3   14.29    1.60
  -3   8  -3   18.18    1.91
   3  -8   3   15.48    1.48
   4  -8   3    0.03    0.30
   5  -8   3    2.46    0.54
   6  -8   3    2.76    0.58
   7  -8   3    3.51    0.64
   8  -8   3    2.47    0.58
   9  -8   3    2.46    0.60
  10  -8   3   10.55    1.39
  10  -8   3   13.20    1.39
  11  -8   3    1.47    0.51
   7   7  -3    0.06    0.79
   6   7  -3   14.98    1.86
   6   7  -3   12.33    1.97
   5   7  -3    2.56    0.96
   5   7  -3    0.72    0.55
   5   7  -3    1.23    0.83
  -5  -7   3    0.08    0.75
   4   7  -3   -0.04    0.58
   4   7  -3    0.13    0.54
   4   7  -3    0.59    0.48
  -4  -7   3    0.15    0.69
   3   7  -3    2.90    0.68
   3   7  -3    3.12    0.83
   3   7  -3    2.94    0.87
   3   7  -3    3.34    0.67
  -3  -7   3    3.38    1.00
  -3  -7   3    3.53    0.75
   2   7  -3    5.22    0.84
   2   7  -3    6.81    1.24
   2   7  -3    5.31    0.91
   2   7  -3    5.01    1.00
  -2  -7   3    4.17    1.10
  -2  -7   3    5.12    0.87
   1   7  -3   10.89    1.30
   1   7  -3   10.60    1.30
   1   7  -3   10.38    1.41
   1   7  -3   10.37    1.40
  -1  -7   3    9.39    1.23
  -1  -7   3    9.64    1.57
   0   7  -3    3.96    0.79
   0   7  -3    3.42    0.62
   0   7  -3    3.38    0.71
   0  -7   3    3.79    0.70
  -1   7  -3   14.61    1.65
  -1   7  -3   16.02    1.69
   1  -7   3   14.89    1.44
   1  -7   3   16.13    1.45
  -2   7  -3    4.33    0.80
  -2   7  -3    2.93    0.79
  -2   7  -3    4.66    0.61
   2  -7   3    3.57    0.65
   2  -7   3    3.48    0.63
  -3   7  -3   12.82    1.70
  -3   7  -3   13.50    1.39
   3  -7   3   11.93    1.26
   3  -7   3   15.40    1.30
  -4   7  -3   17.60    1.61
   4  -7   3   16.04    1.71
   4  -7   3   17.19    1.53
   4  -7   3   19.41    1.57
   5  -7   3   58.81    4.32
   5  -7   3   53.22    4.27
   6  -7   3    0.29    0.34
   6  -7   3    0.49    0.27
   7  -7   3   26.36    2.19
   8  -7   3    2.09    0.51
   9  -7   3    0.46    0.39
   9  -7   3    0.42    0.43
  10  -7   3    2.13    0.63
  11  -7   3    2.49    0.65
   8   6  -3   -0.41    0.77
   8   6  -3    0.40    0.64
   7   6  -3    0.15    0.61
   7   6  -3    0.77    0.84
   6   6  -3   40.89    3.61
   6   6  -3   43.31    3.95
   6   6  -3   40.28    4.07
  -6  -6   3   45.49    4.37
   5   6  -3    1.08    0.53
   5   6  -3    1.00    0.65
   5   6  -3    0.30    0.58
  -5  -6   3    0.90    0.78
   4   6  -3    5.08    1.03
   4   6  -3    5.30    0.87
   4   6  -3    4.98    1.01
  -4  -6   3    4.25    1.14
   3   6  -3   36.10    3.55
   3   6  -3   39.96    3.29
  -3  -6   3   42.02    3.31
  -3  -6   3   42.58    4.02
   2   6  -3    1.13    0.57
   2   6  -3    0.74    0.37
   2   6  -3    0.03    0.42
   2   6  -3    0.43    0.33
  -2  -6   3    0.77    0.39
  -2  -6   3    0.89    0.58
   1   6  -3   10.02    1.33
   1   6  -3   11.95    1.25
   1   6  -3    7.76    1.26
   1   6  -3    9.41    1.06
  -1  -6   3    8.19    1.05
   0   6  -3    1.48    0.40
   0   6  -3    0.78    0.43
   0   6  -3    0.60    0.38
   0  -6   3    1.27    0.38
   0  -6   3    1.12    0.37
  -1   6  -3    2.44    0.60
  -1   6  -3    2.55    0.59
  -1   6  -3    3.03    0.51
   1  -6   3    2.44    0.47
   1  -6   3    3.48    0.65
   1  -6   3    2.78    0.53
  -2   6  -3   41.32    3.24
  -2   6  -3   39.08    3.61
  -2   6  -3   42.89    3.80
   2  -6   3   44.93    3.57
   2  -6   3   44.33    3.33
   2  -6   3   41.36    3.29
  -3   6  -3   97.35    8.86
   3  -6   3  114.10    8.94
   3  -6   3  109.71    8.14
   3  -6   3  117.68    8.16
  -4   6  -3   12.58    1.15
   4  -6   3   10.18    1.23
   4  -6   3   12.25    1.10
   4  -6   3   12.93    1.14
   5  -6   3    0.09    0.24
   5  -6   3    0.06    0.20
   5  -6   3    0.03    0.26
   6  -6   3    0.55    0.29
   6  -6   3    0.88    0.36
   7  -6   3   45.62    3.57
   8  -6   3    0.32    0.35
   8  -6   3    0.03    0.34
   9  -6   3    7.68    1.27
   9  -6   3    8.53    1.11
  10  -6   3    6.40    1.02
  10  -6   3    5.86    0.89
  11  -6   3    0.96    0.50
  11  -6   3    2.02    0.61
   9   5  -3   -0.47    0.58
   8   5  -3   -0.02    0.65
   8   5  -3    0.36    0.47
   7   5  -3    1.42    0.75
   7   5  -3   -0.02    0.64
   7   5  -3    1.89    0.66
  -7  -5   3    2.37    0.83
   6   5  -3   17.56    1.86
   6   5  -3   16.83    2.34
   6   5  -3   20.83    2.32
  -6  -5   3   22.26    2.40
   5   5  -3   28.91    2.78
   5   5  -3   24.49    2.39
   5   5  -3   29.13    2.67
  -5  -5   3   28.54    2.94
   4   5  -3    7.74    1.20
   4   5  -3    9.97    1.32
   4   5  -3    8.38    1.06
  -4  -5   3    8.96    1.45
  -4  -5   3    7.85    1.06
   3   5  -3    1.51    0.45
   3   5  -3    2.53    0.66
   3   5  -3    3.87    0.80
  -3  -5   3    3.60    0.81
  -3  -5   3    2.58    0.54
   2   5  -3   -0.25    0.35
   2   5  -3    0.02    0.22
   2   5  -3   -0.14    0.28
   2   5  -3    0.18    0.25
  -2  -5   3    0.10    0.26
  -2  -5   3    0.12    0.42
   1   5  -3  145.33   10.50
   1   5  -3  135.08   11.06
   1   5  -3  140.63    9.98
   1   5  -3  118.76   10.88
  -1  -5   3  138.59   10.41
  -1  -5   3  127.05    9.94
   0   5  -3    5.68    0.69
   0   5  -3    3.91    0.76
   0   5  -3    5.21    0.73
   0  -5   3    4.21    0.64
   0  -5   3    4.46    0.72
   0  -5   3    4.76    0.67
  -1   5  -3   64.56    5.70
  -1   5  -3   67.37    5.18
  -1   5  -3   74.48    5.87
   1  -5   3   67.54    5.18
   1  -5   3   69.96    5.50
  -2   5  -3   56.06    4.49
  -2   5  -3   56.45    4.04
   2  -5   3   48.80    4.06
   2  -5   3   53.75    4.08
   2  -5   3   52.83    4.49
  -3   5  -3    0.67    0.27
   3  -5   3    1.33    0.38
   3  -5   3    1.31    0.29
   3  -5   3    1.76    0.37
   3  -5   3    1.43    0.46
  -4   5  -3    0.50    0.22
   4  -5   3    0.56    0.22
   4  -5   3    0.37    0.26
   4  -5   3    0.51    0.28
   5  -5   3    6.30    0.67
   5  -5   3    4.86    0.68
   5  -5   3    5.86    0.80
   6  -5   3    5.60    0.71
   6  -5   3    5.89    0.69
  -7   5  -3   55.65    4.99
   7  -5   3   52.18    4.00
   7  -5   3   48.54    4.01
   7  -5   3   52.02    4.37
  -8   5  -3    2.84    0.88
   8  -5   3    5.58    0.76
   8  -5   3    5.37    0.81
  -9   5  -3    2.58    0.97
   9  -5   3    3.17    0.68
   9  -5   3    1.76    0.61
   9  -5   3    2.11    0.55
  10  -5   3    0.07    0.40
  10  -5   3    0.83    0.53
  11  -5   3    0.57    0.61
  11  -5   3   -0.12    0.37
   9   4  -3   38.37    3.25
   9   4  -3   31.90    3.57
   8   4  -3    0.46    0.59
   8   4  -3    0.04    0.42
   7   4  -3    9.11    1.55
   7   4  -3   10.19    1.55
   7   4  -3   10.94    1.39
  -7  -4   3   10.58    1.74
   6   4  -3    9.43    1.49
   6   4  -3    8.54    1.29
   6   4  -3    9.44    1.19
  -6  -4   3    7.47    1.39
   5   4  -3    1.52    0.63
   5   4  -3    1.08    0.42
   5   4  -3    2.40    0.69
  -5  -4   3    0.69    0.59
   4   4  -3   69.49    5.65
   4   4  -3   62.02    5.06
   4   4  -3   70.77    5.40
  -4  -4   3   72.77    5.08
  -4  -4   3   55.40    5.96
   3   4  -3   22.32    1.98
   3   4  -3   24.31    2.17
   3   4  -3   23.34    2.25
  -3  -4   3   22.49    1.99
  -3  -4   3   27.33    2.44
   2   4  -3    0.18    0.21
   2   4  -3    0.00    0.29
   2   4  -3    0.24    0.26
  -2  -4   3    0.09    0.41
  -2  -4   3    0.13    0.23
  -2  -4   3   -0.23    0.22
   1   4  -3    1.58    0.38
   1   4  -3    1.59    0.53
   1   4  -3    1.30    0.32
   1   4  -3    1.74    0.44
  -1  -4   3    1.86    0.39
  -1  -4   3    1.74    0.35
  -1  -4   3    1.09    0.46
   0   4  -3    6.25    0.79
   0   4  -3    6.02    0.73
   0   4  -3    5.07    0.78
   0  -4   3    6.38    0.76
   0  -4   3    5.54    0.80
   0  -4   3    6.75    0.74
   0  -4   3    6.15    0.72
  -1   4  -3   31.32    2.50
  -1   4  -3   31.03    2.78
   1  -4   3   32.34    2.52
   1  -4   3   32.53    2.52
   1  -4   3   33.22    2.79
  -2   4  -3    9.36    1.02
  -2   4  -3   10.64    0.87
   2  -4   3    8.67    0.91
   2  -4   3    9.99    1.04
   2  -4   3   10.72    0.91
  -3   4  -3   15.10    1.32
  -3   4  -3   14.63    1.14
   3  -4   3   16.31    1.27
   3  -4   3   12.46    1.20
   3  -4   3   16.34    1.38
   3  -4   3   11.82    1.50
  -4   4  -3   39.34    3.14
   4  -4   3   39.54    2.94
   4  -4   3   32.15    3.50
   4  -4   3   39.86    3.23
   4  -4   3   37.85    2.90
  -5   4  -3    9.47    1.03
  -5   4  -3   12.22    1.44
   5  -4   3   13.29    1.08
   5  -4   3   11.23    1.16
   5  -4   3   12.86    1.02
  -6   4  -3   34.80    3.31
   6  -4   3   35.38    2.64
   6  -4   3   32.28    2.86
   6  -4   3   30.63    2.59
  -7   4  -3    0.18    0.48
   7  -4   3    0.06    0.27
   7  -4   3    0.50    0.35
  -8   4  -3    5.82    1.24
   8  -4   3    4.41    0.90
   8  -4   3    3.84    0.76
   8  -4   3    4.10    0.69
  -9   4  -3   12.35    1.94
   9  -4   3   13.11    1.24
   9  -4   3   10.57    1.42
   9  -4   3    9.01    1.45
  10  -4   3    0.24    0.34
  10  -4   3   -0.13    0.45
  11  -4   3    1.78    0.67
  11  -4   3    1.41    0.54
  10   3  -3    0.38    0.59
  10   3  -3    0.67    0.71
   9   3  -3    0.14    0.47
   9   3  -3    0.25    0.65
   8   3  -3    0.30    0.62
   8   3  -3    0.96    0.54
   8   3  -3    0.77    0.52
  -8  -3   3    0.79    0.66
   7   3  -3   26.47    2.35
   7   3  -3   21.65    2.06
   7   3  -3   19.98    2.30
  -7  -3   3   22.59    2.54
   6   3  -3    6.12    1.04
   6   3  -3    6.19    1.13
   6   3  -3    6.87    0.94
  -6  -3   3    5.67    1.12
   5   3  -3   35.50    3.57
   5   3  -3   39.50    3.25
   5   3  -3   47.19    3.53
   5   3  -3   36.28    3.22
  -5  -3   3   46.20    3.88
   4   3  -3  148.76   11.53
   4   3  -3  156.83   12.10
   4   3  -3  153.01   12.65
   4   3  -3  156.00   11.54
  -4  -3   3  153.17   11.50
  -4  -3   3  168.63   13.58
   3   3  -3    6.90    0.78
   3   3  -3    4.93    0.82
   3   3  -3    8.32    0.87
   3   3  -3    5.26    0.81
  -3  -3   3    7.57    1.01
  -3  -3   3    6.45    0.75
   2   3  -3   44.34    3.63
   2   3  -3   44.54    3.77
   2   3  -3   41.47    3.41
   2   3  -3   42.25    3.39
  -2  -3   3   45.69    3.41
  -2  -3   3   46.85    3.58
  -2  -3   3   44.76    4.06
   1   3  -3    0.15    0.23
   1   3  -3    0.19    0.20
   1   3  -3    0.28    0.27
   1   3  -3    0.17    0.29
  -1  -3   3    0.35    0.22
  -1  -3   3   -0.08    0.18
  -1  -3   3   -0.02    0.27
   0   3  -3    3.79    0.51
   0   3  -3    4.06    0.67
   0   3  -3    4.50    0.54
   0  -3   3    5.15    0.60
   0  -3   3    4.46    0.69
   0  -3   3    3.12    0.59
   0  -3   3    4.23    0.59
   0  -3   3    3.85    0.53
  -1   3  -3  396.87   30.44
  -1   3  -3  379.25   27.87
   1  -3   3  416.56   30.45
   1  -3   3  331.74   27.87
   1  -3   3  365.79   27.88
   1  -3   3  413.06   31.33
  -2   3  -3    3.94    0.44
  -2   3  -3    3.30    0.51
   2  -3   3    3.62    0.49
   2  -3   3    2.98    0.60
   2  -3   3    3.03    0.54
   2  -3   3    4.01    0.48
  -3   3  -3   13.52    1.05
  -3   3  -3   10.65    1.40
  -3   3  -3   11.95    1.18
   3  -3   3   14.73    1.41
   3  -3   3   15.44    1.27
   3  -3   3   12.63    1.08
   3  -3   3   13.09    1.12
  -4   3  -3    0.25    0.19
  -4   3  -3    0.55    0.38
   4  -3   3   -0.10    0.12
   4  -3   3    0.04    0.28
   4  -3   3   -0.07    0.17
   4  -3   3    0.02    0.18
  -5   3  -3    5.95    0.95
   5  -3   3    5.21    0.61
   5  -3   3    3.10    0.55
   5  -3   3    5.30    0.70
  -6   3  -3   33.72    3.31
   6  -3   3   31.91    2.64
   6  -3   3   32.28    2.90
   6  -3   3   35.40    2.94
  -7   3  -3    0.46    0.48
   7  -3   3    1.56    0.49
   7  -3   3    0.79    0.42
   7  -3   3    0.54    0.34
  -8   3  -3   31.43    3.67
   8  -3   3   37.38    3.29
   8  -3   3   37.61    2.99
   8  -3   3   39.98    3.31
  -9   3  -3   25.42    2.82
   9  -3   3   25.19    2.41
   9  -3   3   26.82    2.12
   9  -3   3   18.28    2.23
  10  -3   3    0.75    0.46
  10  -3   3   -0.24    0.38
  10  -3   3    0.23    0.46
  11  -3   3    0.98    0.70
  11  -3   3    1.27    0.53
  10   2  -3    1.70    0.76
  10   2  -3    4.75    0.96
   9   2  -3    1.44    0.59
   9   2  -3    1.49    0.63
  -9  -2   3    0.57    0.78
   8   2  -3    4.06    0.94
   8   2  -3    4.86    1.03
   8   2  -3    4.30    0.80
  -8  -2   3    3.00    0.93
   7   2  -3   13.06    1.58
   7   2  -3    9.15    1.25
   7   2  -3   12.04    1.61
   7   2  -3   11.15    1.28
  -7  -2   3   13.16    1.75
   6   2  -3   10.62    1.37
   6   2  -3    9.57    1.19
   6   2  -3   10.96    1.37
   6   2  -3   10.28    1.09
  -6  -2   3   11.77    1.53
   5   2  -3    2.75    0.50
   5   2  -3    2.93    0.60
   5   2  -3    3.05    0.63
   5   2  -3    3.51    0.57
  -5  -2   3    1.47    0.55
  -5  -2   3    3.45    0.50
   4   2  -3    7.39    0.99
   4   2  -3    5.20    0.81
   4   2  -3    6.18    0.75
   4   2  -3    6.85    0.76
   4   2  -3    4.93    0.82
  -4  -2   3    6.13    0.89
  -4  -2   3    6.02    0.71
   3   2  -3    2.55    0.53
   3   2  -3    2.00    0.37
   3   2  -3    1.33    0.43
   3   2  -3    1.36    0.32
  -3  -2   3    1.52    0.51
  -3  -2   3    1.69    0.37
   2   2  -3  127.08    9.06
   2   2  -3  118.87    9.03
   2   2  -3  124.99    9.91
  -2  -2   3  126.99    9.46
  -2  -2   3  116.40    9.04
   1   2  -3   15.01    1.16
   1   2  -3   10.57    1.25
   1   2  -3   12.53    1.13
  -1  -2   3   13.53    1.26
  -1  -2   3   15.25    1.16
  -1  -2   3   11.61    1.27
  -1  -2   3   14.34    1.15
   0   2  -3   11.14    1.08
   0   2  -3   11.78    1.06
   0   2  -3   12.82    1.21
   0  -2   3   12.20    1.07
   0  -2   3   14.46    1.23
   0  -2   3   14.42    1.26
   0  -2   3   12.07    1.08
  -1   2  -3   10.56    0.93
  -1   2  -3    8.60    0.99
  -1   2  -3   10.72    0.89
   1  -2   3   10.59    1.03
   1  -2   3   11.13    1.09
   1  -2   3    8.90    0.89
   1  -2   3   11.07    0.90
  -2   2  -3   -0.08    0.07
  -2   2  -3   -0.11    0.33
  -2   2  -3    0.12    0.19
   2  -2   3    0.37    0.16
   2  -2   3    0.38    0.26
   2  -2   3    0.39    0.25
   2  -2   3   -0.33    0.15
  -3   2  -3   12.22    1.18
  -3   2  -3   10.81    1.39
  -3   2  -3   13.03    1.05
   3  -2   3   12.91    1.22
   3  -2   3   13.48    1.09
   3  -2   3   13.06    1.11
   3  -2   3   15.02    1.41
  -4   2  -3   25.23    2.56
  -4   2  -3   24.76    2.28
  -4   2  -3   26.06    2.04
   4  -2   3   23.30    2.54
   4  -2   3   28.57    2.35
   4  -2   3   28.76    2.12
   4  -2   3   26.88    2.12
   4  -2   3   29.58    2.34
  -5   2  -3   -0.36    0.25
   5  -2   3   -0.37    0.21
   5  -2   3   -0.05    0.23
   5  -2   3   -0.15    0.16
  -6   2  -3   42.60    4.44
   6  -2   3   47.75    3.71
   6  -2   3   49.52    3.71
   6  -2   3   50.92    3.99
   6  -2   3   47.43    4.07
  -7   2  -3   22.97    2.78
   7  -2   3   28.42    2.54
   7  -2   3   31.71    2.57
   7  -2   3   26.59    2.27
  -8   2  -3   -0.02    0.54
   8  -2   3    0.10    0.42
   8  -2   3    0.17    0.41
   8  -2   3    0.32    0.33
   8  -2   3    0.04    0.31
  -9   2  -3    0.79    0.84
   9  -2   3    1.23    0.50
   9  -2   3    1.42    0.59
   9  -2   3    0.88    0.61
   9  -2   3    1.00    0.43
  10  -2   3    0.62    0.48
  10  -2   3    1.32    0.66
  10  -2   3    1.01    0.48
  11  -2   3   11.68    1.71
  11   1  -3    0.94    0.75
  10   1  -3   75.58    5.84
  10   1  -3   73.68    5.89
  10   1  -3   70.70    6.43
   9   1  -3    1.00    0.41
   9   1  -3    0.11    0.53
   9   1  -3    0.71    0.45
   9   1  -3   -0.27    0.54
  -9  -1   3    0.04    0.66
   8   1  -3    5.79    0.85
   8   1  -3    5.28    1.00
   8   1  -3    5.49    1.05
   8   1  -3    5.57    0.88
  -8  -1   3    6.88    1.24
   7   1  -3    0.81    0.34
   7   1  -3    0.91    0.36
   7   1  -3    0.50    0.41
   7   1  -3    2.34    0.61
  -7  -1   3    1.10    0.54
   6   1  -3   14.24    1.38
   6   1  -3   13.30    1.54
   6   1  -3   15.82    1.57
   6   1  -3   17.77    1.42
   6   1  -3   15.11    1.39
  -6  -1   3   17.52    1.74
   5   1  -3  104.77    8.20
   5   1  -3  107.31    8.09
   5   1  -3  102.28    8.06
   5   1  -3  111.16    9.50
   5   1  -3  114.96    8.52
   5   1  -3  107.24    8.84
  -5  -1   3  128.81    9.54
  -5  -1   3   98.29    7.98
   4   1  -3    4.17    0.67
   4   1  -3    4.13    0.55
   4   1  -3    4.33    0.51
   4   1  -3    4.20    0.66
   4   1  -3    4.42    0.64
   4   1  -3    3.52    0.52
  -4  -1   3    5.29    0.53
  -4  -1   3    4.08    0.63
  -4  -1   3    2.71    0.60
   3   1  -3   24.67    2.06
   3   1  -3   19.75    1.74
   3   1  -3   23.21    1.95
   3   1  -3   21.28    1.86
   3   1  -3   19.98    1.72
  -3  -1   3   22.18    1.72
  -3  -1   3   21.26    1.85
  -3  -1   3   23.29    2.05
   2   1  -3  109.63    8.39
   2   1  -3  108.74    8.02
   2   1  -3  116.85    8.02
  -2  -1   3  106.76    8.12
  -2  -1   3  112.39    8.38
  -2  -1   3  101.05    9.35
   1   1  -3   68.81    5.61
   1   1  -3   65.39    5.11
   1   1  -3   75.03    5.39
  -1  -1   3   74.90    5.62
  -1  -1   3   67.64    5.10
  -1  -1   3   67.27    5.12
  -1  -1   3   64.42    5.36
   0   1  -3    5.71    0.68
   0   1  -3    5.29    0.58
   0   1  -3    6.34    0.60
   0  -1   3    5.82    0.58
   0  -1   3    5.55    0.58
   0  -1   3    5.35    0.65
   0  -1   3    6.30    0.71
  -1   1  -3    0.58    0.20
  -1   1  -3    0.65    0.25
  -1   1  -3    0.87    0.34
  -1   1  -3    0.77    0.24
   1  -1   3    0.39    0.19
   1  -1   3    0.41    0.27
   1  -1   3    1.11    0.24
   1  -1   3    0.73    0.25
  -2   1  -3    0.29    0.16
  -2   1  -3   -0.17    0.17
  -2   1  -3    0.06    0.31
   2  -1   3    0.09    0.17
   2  -1   3    0.10    0.21
   2  -1   3   -0.04    0.23
   2  -1   3    0.37    0.18
  -3   1  -3  248.58   19.10
  -3   1  -3  229.70   20.55
   3  -1   3  218.39   17.50
   3  -1   3  226.56   19.12
   3  -1   3  277.34   19.13
  -4   1  -3    2.00    0.38
  -4   1  -3    3.28    0.56
  -4   1  -3    2.85    0.62
   4  -1   3    3.84    0.57
   4  -1   3    3.50    0.66
   4  -1   3    3.25    0.48
   4  -1   3    3.49    0.49
  -5   1  -3   19.61    1.99
  -5   1  -3   18.18    1.49
   5  -1   3   18.23    1.71
   5  -1   3   18.90    1.58
   5  -1   3   17.11    1.56
   5  -1   3   18.35    1.76
  -6   1  -3    1.14    0.57
   6  -1   3    1.10    0.45
   6  -1   3    0.82    0.40
   6  -1   3    0.64    0.31
  -7   1  -3    2.01    0.73
   7  -1   3    4.20    0.66
   7  -1   3    3.01    0.62
   7  -1   3    3.34    0.74
   7  -1   3    4.80    0.88
  -8   1  -3   28.59    2.86
   8  -1   3   26.49    2.23
   8  -1   3   21.23    2.14
   8  -1   3   23.15    2.42
   8  -1   3   26.60    2.45
   9  -1   3    4.24    0.85
   9  -1   3    5.81    0.90
   9  -1   3    6.10    1.06
  10  -1   3    0.92    0.64
  10  -1   3    0.98    0.53
  10  -1   3    1.01    0.48
  11   0  -3   -0.28    0.41
  11   0  -3    0.10    0.59
  10   0  -3    0.28    0.38
  10   0  -3    0.24    0.47
  10   0  -3    0.01    0.36
 -10   0   3   -0.28    0.75
   9   0  -3    3.81    0.83
   9   0  -3    4.92    0.75
   9   0  -3    2.95    0.82
   9   0  -3    3.76    0.68
  -9   0   3    3.40    0.97
   8   0  -3   12.29    1.16
   8   0  -3   10.67    1.14
   8   0  -3   11.22    1.45
   8   0  -3   10.89    1.47
  -8   0   3   13.40    1.74
   7   0  -3    7.56    1.08
   7   0  -3    8.01    0.87
   7   0  -3    7.81    0.88
   7   0  -3    6.44    1.00
  -7   0   3    7.07    1.15
   6   0  -3   10.42    1.00
   6   0  -3   13.46    1.24
   6   0  -3   10.89    1.17
   6   0  -3   10.99    1.03
   6   0  -3   10.63    1.00
  -6   0   3   11.24    1.43
   5   0  -3   93.38    7.06
   5   0  -3   95.79    7.88
   5   0  -3   90.95    7.03
   5   0  -3   95.64    7.73
   5   0  -3   95.05    7.15
   5   0  -3  100.32    8.33
   5   0  -3   95.74    7.46
  -5   0   3   96.21    8.32
   4   0  -3    3.18    0.40
   4   0  -3    2.27    0.43
   4   0  -3    2.66    0.34
   4   0  -3    2.02    0.35
   4   0  -3    3.13    0.42
   4   0  -3    1.67    0.41
   4   0  -3    3.07    0.50
  -4   0   3    2.80    0.49
  -4   0   3    3.70    0.53
   3   0  -3    1.88    0.25
   3   0  -3    1.41    0.27
   3   0  -3    2.19    0.32
   3   0  -3    1.72    0.29
   3   0  -3    1.24    0.33
   3   0  -3    2.34    0.35
   3   0  -3    1.60    0.33
  -3   0   3    2.08    0.37
  -3   0   3    2.02    0.37
  -3   0   3    2.03    0.34
   2   0  -3    5.74    0.70
   2   0  -3    9.11    0.79
   2   0  -3    7.61    0.77
   2   0  -3    6.75    0.82
   2   0  -3    8.68    0.72
  -2   0   3    9.33    0.71
  -2   0   3    8.42    0.79
  -2   0   3    9.35    0.69
  -2   0   3   10.73    0.86
  -2   0   3    7.84    0.79
  -2   0   3    8.05    0.80
   1   0  -3   97.48    7.49
   1   0  -3   93.49    8.21
   1   0  -3  101.92    7.52
  -1   0   3  106.46    8.22
  -1   0   3  113.38    7.51
   0   0  -3   28.02    2.60
   0   0  -3   29.40    2.50
   0   0  -3   27.78    2.26
   0   0  -3   28.41    2.26
   0   0   3   30.85    2.27
   0   0   3   34.24    2.52
  -1   0  -3    7.88    0.77
  -1   0  -3    8.49    0.86
  -1   0  -3    7.21    0.91
  -1   0  -3   10.02    0.81
   1   0   3    8.38    0.76
   1   0   3    7.72    0.75
   1   0   3    8.80    0.88
   1   0   3    9.11    0.88
  -2   0  -3    8.65    0.93
  -2   0  -3    8.24    0.82
  -2   0  -3    9.08    1.07
   2   0   3   10.24    0.96
   2   0   3    9.11    0.95
   2   0   3    9.93    0.85
   2   0   3    9.70    0.86
   2   0   3   10.23    1.03
  -3   0  -3    1.84    0.33
  -3   0  -3    1.76    0.48
  -3   0  -3    1.32    0.39
   3   0   3    2.59    0.41
   3   0   3    2.18    0.45
   3   0   3    2.14    0.36
   3   0   3    1.05    0.43
  -4   0  -3   -0.02    0.13
  -4   0  -3    0.12    0.37
   4   0   3    0.23    0.22
   4   0   3    0.51    0.31
   4   0   3    0.28    0.24
   4   0   3    0.31    0.29
   4   0   3    0.23    0.22
  -5   0  -3   52.05    4.43
  -5   0  -3   47.58    3.58
   5   0   3   46.63    3.85
   5   0   3   48.53    3.66
   5   0   3   47.17    3.69
   5   0   3   43.68    3.99
   5   0   3   42.74    3.61
  -6   0  -3    0.22    0.44
   6   0   3    0.16    0.27
   6   0   3    0.06    0.32
   6   0   3   -0.42    0.30
   6   0   3   -0.11    0.28
  -7   0  -3    2.49    0.84
   7   0   3    2.39    0.66
   7   0   3    2.00    0.53
   7   0   3    3.49    0.65
   7   0   3    2.34    0.68
  -8   0  -3   51.39    4.89
   8   0   3   50.36    3.95
   8   0   3   52.53    4.40
   8   0   3   43.69    4.21
   8   0   3   46.50    4.01
   9   0   3   -0.01    0.52
   9   0   3    0.57    0.49
   9   0   3    0.71    0.57
  10   0   3    1.13    0.64
  10   0   3    1.00    0.56
  10   0   3   -0.03    0.64
  11  -1  -3   11.81    1.59
  11  -1  -3    6.71    1.17
  11  -1  -3   12.72    1.39
  10  -1  -3    1.15    0.61
  10  -1  -3    1.53    0.50
  10  -1  -3    0.61    0.36
 -10   1   3    1.43    0.85
   9  -1  -3    5.69    0.79
   9  -1  -3    4.75    0.71
   9  -1  -3    5.62    0.95
   9  -1  -3    6.63    1.10
  -9   1   3    3.71    0.96
   8  -1  -3   57.27    4.58
   8  -1  -3   63.42    5.02
   8  -1  -3   59.27    4.52
   8  -1  -3   49.60    4.86
  -8   1   3   68.14    5.54
   7  -1  -3    1.16    0.41
   7  -1  -3    1.48    0.49
   7  -1  -3    1.10    0.27
   7  -1  -3    1.00    0.30
   7  -1  -3    1.31    0.32
  -7   1   3    0.80    0.44
   6  -1  -3    0.24    0.31
   6  -1  -3    1.07    0.33
   6  -1  -3    0.91    0.24
   6  -1  -3    0.76    0.25
   6  -1  -3    0.90    0.38
  -6   1   3    0.82    0.40
   5  -1  -3   24.90    2.02
   5  -1  -3   28.02    2.25
   5  -1  -3   27.02    2.43
   5  -1  -3   25.82    2.00
   5  -1  -3   27.66    2.24
  -5   1   3   26.73    2.23
  -5   1   3   24.04    2.44
   4  -1  -3   -0.04    0.23
   4  -1  -3    0.78    0.25
   4  -1  -3    0.29    0.25
   4  -1  -3    0.68    0.28
  -4   1   3    0.97    0.29
  -4   1   3    0.79    0.32
  -4   1   3    0.37    0.22
   3  -1  -3  446.32   32.50
   3  -1  -3  357.29   33.93
   3  -1  -3  461.22   36.42
  -3   1   3  420.61   36.43
  -3   1   3  461.09   32.50
   2  -1  -3    0.68    0.17
   2  -1  -3    0.26    0.20
   2  -1  -3    0.37    0.16
  -2   1   3    0.58    0.18
  -2   1   3    0.58    0.28
  -2   1   3    0.60    0.24
  -2   1   3    0.63    0.19
   1  -1  -3  104.97    7.90
   1  -1  -3  101.38    8.62
   1  -1  -3  103.34    8.02
   1  -1  -3  103.31    7.88
  -1   1   3  114.79    8.61
  -1   1   3  105.08    8.20
  -1   1   3  108.77    7.89
  -1   1   3  111.68    8.00
  -1   1   3  117.44    7.87
   0  -1  -3  166.34   13.93
   0  -1  -3  199.38   14.96
   0  -1  -3  187.41   16.00
   0  -1  -3  194.50   14.95
   0  -1  -3  195.63   13.69
   0  -1  -3  204.52   13.71
   0   1   3  177.66   14.94
   0   1   3  209.84   13.95
   0   1   3  162.40   14.92
   0   1   3  192.85   13.69
   0   1   3  177.83   13.67
  -1  -1  -3    0.18    0.30
  -1  -1  -3    0.97    0.24
  -1  -1  -3    1.00    0.26
  -1  -1  -3    0.84    0.30
   1   1   3    0.77    0.21
   1   1   3    0.64    0.24
   1   1   3    0.79    0.29
   1   1   3    0.58    0.22
   1   1   3    1.07    0.30
  -2  -1  -3   17.35    1.48
  -2  -1  -3   18.79    1.69
  -2  -1  -3   19.36    1.81
   2   1   3   18.19    1.50
   2   1   3   15.46    1.49
   2   1   3   20.03    1.78
   2   1   3   18.37    1.56
   2   1   3   20.00    1.70
   2   1   3   18.20    1.51
  -3  -1  -3   -0.05    0.29
  -3  -1  -3    0.19    0.21
   3   1   3    0.08    0.24
   3   1   3    0.09    0.18
   3   1   3    0.07    0.24
   3   1   3    0.32    0.20
   3   1   3    0.28    0.28
   3   1   3   -0.07    0.17
  -4  -1  -3    0.21    0.34
  -4  -1  -3   -0.06    0.21
   4   1   3   -0.03    0.25
   4   1   3   -0.13    0.22
   4   1   3   -0.12    0.20
   4   1   3    0.03    0.22
   4   1   3    0.20    0.23
  -5  -1  -3   17.56    1.85
   5   1   3   14.06    1.41
   5   1   3   15.42    1.42
   5   1   3   15.47    1.45
   5   1   3   15.73    1.60
   5   1   3   14.37    1.50
  -6  -1  -3    3.76    0.86
   6   1   3    4.47    0.74
   6   1   3    4.88    0.85
   6   1   3    3.56    0.66
   6   1   3    4.72    0.93
  -7  -1  -3    0.55    0.64
   7   1   3    0.36    0.47
   7   1   3    1.83    0.60
   7   1   3    0.96    0.46
   7   1   3    0.65    0.41
   8   1   3    4.55    0.90
   8   1   3    5.90    0.96
   8   1   3    3.47    0.91
   8   1   3    4.76    1.02
   9   1   3    0.58    0.70
   9   1   3    0.77    0.54
   9   1   3    0.37    0.53
  10   1   3   14.16    2.08
  10   1   3   14.19    1.84
  10   1   3   19.34    2.22
  11  -2  -3   33.44    2.86
  11  -2  -3   32.97    3.19
  11  -2  -3   35.54    2.89
  10  -2  -3    0.26    0.42
  10  -2  -3   -0.07    0.31
  10  -2  -3    0.11    0.45
  10  -2  -3    0.55    0.32
 -10   2   3   -0.09    0.65
   9  -2  -3    3.32    0.67
   9  -2  -3    2.60    0.70
   9  -2  -3    2.36    0.47
   9  -2  -3    2.39    0.45
  -9   2   3    2.61    0.83
   8  -2  -3    0.02    0.21
   8  -2  -3    0.15    0.22
   8  -2  -3    0.09    0.36
   8  -2  -3    0.63    0.35
  -8   2   3    0.35    0.40
   7  -2  -3    1.29    0.28
   7  -2  -3    0.86    0.40
   7  -2  -3    1.05    0.29
   7  -2  -3    1.66    0.40
  -7   2   3    1.35    0.49
   6  -2  -3   23.19    2.15
   6  -2  -3   20.61    1.96
  -6   2   3   22.82    2.17
   5  -2  -3    1.43    0.37
   5  -2  -3    1.27    0.32
  -5   2   3    1.92    0.53
  -5   2   3    1.56    0.41
   4  -2  -3    0.16    0.17
   4  -2  -3   -0.07    0.17
  -4   2   3    0.21    0.21
  -4   2   3    0.13    0.29
   3  -2  -3   36.16    3.01
   3  -2  -3   30.30    2.69
  -3   2   3   38.12    3.02
   2  -2  -3    7.39    0.65
   2  -2  -3    7.37    0.75
   2  -2  -3    7.99    0.68
   2  -2  -3    8.10    0.76
   2  -2  -3    7.43    0.64
  -2   2   3    7.49    0.65
  -2   2   3    9.21    0.76
  -2   2   3    8.44    0.89
  -2   2   3    7.31    0.70
   1  -2  -3   61.85    5.33
   1  -2  -3   60.68    4.57
   1  -2  -3   65.31    4.61
   1  -2  -3   60.89    4.65
   1  -2  -3   64.84    5.02
  -1   2   3   58.35    4.56
  -1   2   3   61.27    5.00
  -1   2   3   63.64    5.03
   0  -2  -3   37.92    2.95
   0  -2  -3   41.67    2.91
   0  -2  -3   40.61    3.39
   0  -2  -3   37.33    3.19
   0  -2  -3   37.36    3.19
   0  -2  -3   41.46    2.93
   0   2   3   35.38    2.95
   0   2   3   32.13    3.37
   0   2   3   38.10    3.19
   0   2   3   37.48    2.88
   0   2   3   43.68    2.95
  -1  -2  -3    0.20    0.20
  -1  -2  -3    0.52    0.29
  -1  -2  -3    0.33    0.21
  -1  -2  -3    0.39    0.19
  -1  -2  -3    0.20    0.21
   1   2   3    0.57    0.28
   1   2   3    0.28    0.17
   1   2   3    0.27    0.26
   1   2   3    0.29    0.20
   1   2   3    0.22    0.18
  -2  -2  -3  295.31   22.17
   2   2   3  298.42   22.16
   2   2   3  303.25   26.00
   2   2   3  315.35   24.22
   2   2   3  302.00   23.10
   2   2   3  309.79   22.60
  -3  -2  -3    2.30    0.50
  -3  -2  -3    3.93    0.74
   3   2   3    3.03    0.52
   3   2   3    4.04    0.57
   3   2   3    3.05    0.49
   3   2   3    2.78    0.60
  -4  -2  -3   22.28    2.36
  -4  -2  -3   24.80    1.97
   4   2   3   24.77    2.02
   4   2   3   23.31    1.96
   4   2   3   21.40    2.19
   4   2   3   22.81    2.08
  -5  -2  -3    5.84    1.10
   5   2   3    5.70    0.98
   5   2   3    6.54    0.90
   5   2   3    6.81    0.99
   5   2   3    6.71    0.90
  -6  -2  -3    0.44    0.61
   6   2   3    2.72    0.70
   6   2   3    1.23    0.47
   6   2   3    1.27    0.46
   6   2   3    1.62    0.65
  -7  -2  -3   15.37    2.56
   7   2   3   24.51    2.18
   7   2   3   24.51    2.43
   7   2   3   25.78    2.16
   7   2   3   21.70    2.24
   8   2   3    3.13    0.77
   8   2   3    2.00    0.78
   8   2   3    2.13    0.72
   9   2   3    0.49    0.52
   9   2   3    0.25    0.64
   9   2   3    0.68    0.58
  11  -3  -3    0.94    0.40
  11  -3  -3    0.36    0.35
  11  -3  -3    0.81    0.52
  10  -3  -3    0.62    0.29
  10  -3  -3    1.10    0.57
  10  -3  -3    0.35    0.31
  10  -3  -3    0.87    0.45
 -10   3   3    0.62    0.71
   9  -3  -3   63.57    5.27
   9  -3  -3   58.97    5.27
  -9   3   3   70.88    5.98
   8  -3  -3   17.50    1.74
  -8   3   3   17.35    1.98
   7  -3  -3   -0.30    0.26
  -7   3   3    0.63    0.35
   6  -3  -3   55.49    5.09
   6  -3  -3   58.19    4.60
  -6   3   3   57.16    5.04
  -6   3   3   58.67    5.14
   5  -3  -3    1.32    0.34
   5  -3  -3    2.13    0.41
  -5   3   3    2.11    0.45
  -5   3   3    2.94    0.64
   4  -3  -3    2.65    0.39
   4  -3  -3    2.93    0.46
  -4   3   3    3.28    0.64
   3  -3  -3    9.34    0.84
   3  -3  -3   10.28    0.99
   3  -3  -3    8.81    0.88
   3  -3  -3   11.04    0.91
  -3   3   3   11.36    1.13
   2  -3  -3   21.52    1.61
   2  -3  -3   20.49    1.78
   2  -3  -3   19.24    1.63
   2  -3  -3   21.53    1.80
  -2   3   3   20.82    1.75
  -2   3   3   23.01    2.00
   1  -3  -3   79.94    6.23
   1  -3  -3   73.25    5.67
   1  -3  -3   70.29    6.64
   1  -3  -3   80.88    5.70
   1  -3  -3   73.44    6.22
   1  -3  -3   76.01    5.78
  -1   3   3   78.01    6.21
  -1   3   3   76.56    5.65
  -1   3   3   83.46    6.50
   0  -3  -3   12.13    0.98
   0  -3  -3    9.74    1.16
   0  -3  -3   10.18    1.09
   0  -3  -3   11.60    0.96
   0  -3  -3    9.89    0.98
   0   3   3   11.32    1.08
   0   3   3   11.58    0.94
   0   3   3    9.72    0.90
  -1  -3  -3    1.62    0.35
  -1  -3  -3    1.09    0.33
  -1  -3  -3    1.12    0.30
  -1  -3  -3    1.64    0.42
   1   3   3    0.79    0.28
   1   3   3    1.47    0.38
   1   3   3    1.17    0.27
   1   3   3    1.24    0.30
   1   3   3    1.75    0.46
  -2  -3  -3    0.91    0.34
  -2  -3  -3    1.47    0.43
   2   3   3    1.10    0.33
   2   3   3    0.97    0.32
   2   3   3    0.35    0.24
   2   3   3    0.77    0.41
   2   3   3    0.54    0.31
  -3  -3  -3   -0.08    0.24
  -3  -3  -3    0.77    0.40
   3   3   3    0.34    0.28
   3   3   3   -0.21    0.25
   3   3   3    0.24    0.30
   3   3   3    0.54    0.35
  -4  -3  -3   86.43    7.61
  -4  -3  -3   81.18    6.41
   4   3   3   75.97    7.05
   4   3   3   85.27    6.72
   4   3   3   86.63    6.55
   4   3   3   92.00    6.47
  -5  -3  -3    7.82    1.33
   5   3   3    8.51    1.13
   5   3   3    6.10    0.97
   5   3   3    8.66    1.28
   5   3   3    7.62    1.02
  -6  -3  -3    1.94    0.86
   6   3   3    0.43    0.42
   6   3   3    1.25    0.57
   6   3   3    0.31    0.52
   6   3   3    0.54    0.45
   7   3   3   28.67    2.65
   7   3   3   27.27    2.80
   7   3   3   32.04    3.05
   7   3   3   31.66    2.76
   8   3   3    1.19    0.51
   8   3   3   -0.28    0.45
   8   3   3    0.02    0.69
   9   3   3   -0.19    0.59
   9   3   3   -0.21    0.62
   9   3   3   -0.62    0.66
  10  -4  -3    9.04    1.34
   9  -4  -3   31.81    2.93
  -9   4   3   33.09    3.32
   8  -4  -3    4.22    0.78
  -8   4   3    4.56    0.87
   7  -4  -3    5.61    0.79
   7  -4  -3    3.00    0.73
  -7   4   3    4.55    0.81
   6  -4  -3   29.39    2.55
   6  -4  -3   24.72    2.25
  -6   4   3   25.34    2.61
   5  -4  -3   -0.01    0.18
   5  -4  -3    0.12    0.25
  -5   4   3    0.80    0.46
   4  -4  -3  189.36   14.25
   4  -4  -3  166.41   16.03
  -4   4   3  210.58   15.59
   3  -4  -3    8.11    0.66
   3  -4  -3    6.66    0.61
   3  -4  -3    6.32    0.61
   3  -4  -3    7.28    0.71
   3  -4  -3    8.18    0.74
  -3   4   3    7.29    1.01
   2  -4  -3    1.85    0.29
   2  -4  -3    1.34    0.33
   2  -4  -3    1.30    0.33
   2  -4  -3    1.33    0.28
  -2   4   3    1.33    0.30
  -2   4   3    1.32    0.45
   1  -4  -3   17.24    1.53
   1  -4  -3   14.99    1.60
   1  -4  -3   15.42    1.36
   1  -4  -3   16.09    1.37
   1  -4  -3   16.82    1.56
   1  -4  -3   15.96    1.34
  -1   4   3   17.18    1.34
  -1   4   3   17.19    1.51
  -1   4   3   16.50    1.65
   0  -4  -3   39.97    2.93
   0  -4  -3   39.33    2.88
   0  -4  -3   38.31    2.89
   0  -4  -3   37.21    3.38
   0   4   3   37.33    2.85
   0   4   3   34.77    2.90
   0   4   3   38.48    3.18
   0   4   3   29.82    3.28
  -1  -4  -3   12.86    1.11
  -1  -4  -3   11.19    1.28
   1   4   3   10.77    1.02
   1   4   3    9.35    1.24
   1   4   3   11.46    1.05
  -2  -4  -3    3.21    0.66
  -2  -4  -3    2.30    0.50
   2   4   3    3.38    0.57
   2   4   3    2.95    0.68
   2   4   3    2.46    0.48
   2   4   3    2.88    0.52
  -3  -4  -3   17.49    1.53
  -3  -4  -3   16.01    1.82
   3   4   3   17.45    1.53
   3   4   3   16.75    1.55
   3   4   3   15.01    1.71
   3   4   3   14.54    1.52
  -4  -4  -3   25.28    2.54
  -4  -4  -3   21.33    2.05
   4   4   3   22.41    2.11
   4   4   3   22.13    2.13
   4   4   3   24.25    2.38
   4   4   3   25.34    2.10
  -5  -4  -3    5.83    1.16
   5   4   3    7.05    1.00
   5   4   3    6.49    1.22
   5   4   3    5.72    0.97
   5   4   3    5.03    0.89
  -6  -4  -3    0.01    0.55
   6   4   3    0.85    0.58
   6   4   3   -0.07    0.55
   6   4   3    0.10    0.41
   6   4   3   -0.26    0.45
   7   4   3    0.46    0.57
   7   4   3   -0.59    0.53
   7   4   3    1.11    0.54
   7   4   3   -0.07    0.50
   8   4   3    0.25    0.59
   8   4   3   -0.26    0.64
  10  -5  -3    3.31    0.81
   9  -5  -3   -0.09    0.43
   8  -5  -3   16.58    1.66
   7  -5  -3   25.80    2.22
  -7   5   3   23.76    2.60
   6  -5  -3    2.27    0.46
   6  -5  -3    1.93    0.50
  -6   5   3    1.79    0.69
   5  -5  -3    1.75    0.34
   5  -5  -3    2.13    0.49
  -5   5   3    1.92    0.61
   4  -5  -3   15.03    1.42
   4  -5  -3   16.84    1.35
   4  -5  -3   15.71    1.63
   4  -5  -3   17.73    1.47
  -4   5   3   16.34    1.75
   3  -5  -3    5.07    0.53
   3  -5  -3    4.45    0.57
   3  -5  -3    4.21    0.64
   3  -5  -3    3.85    0.51
  -3   5   3    4.88    0.85
   2  -5  -3    2.36    0.38
   2  -5  -3    1.29    0.32
   2  -5  -3    2.28    0.37
   2  -5  -3    3.33    0.52
  -2   5   3    2.06    0.42
  -2   5   3    1.87    0.60
   1  -5  -3   48.01    3.46
   1  -5  -3   38.52    3.39
   1  -5  -3   40.57    4.00
   1  -5  -3   44.85    3.38
   1  -5  -3   46.97    3.41
  -1   5   3   49.52    3.98
  -1   5   3   44.62    3.73
  -1   5   3   44.58    3.36
   0  -5  -3   12.86    1.36
   0  -5  -3   11.53    1.10
   0  -5  -3   13.23    1.15
   0  -5  -3   11.99    1.13
   0  -5  -3   10.60    1.02
   0   5   3   13.27    1.54
   0   5   3   10.45    1.23
   0   5   3   11.35    1.09
   0   5   3   11.73    1.10
  -1  -5  -3  122.39    8.56
  -1  -5  -3   97.47    9.95
   1   5   3   96.41    9.58
   1   5   3  125.85    9.35
   1   5   3  124.17    8.80
   1   5   3  116.26    8.49
  -2  -5  -3    4.66    0.86
  -2  -5  -3    4.02    0.70
   2   5   3    3.91    0.67
   2   5   3    3.65    0.61
   2   5   3    3.34    0.73
  -3  -5  -3    8.96    1.32
  -3  -5  -3    7.81    1.04
   3   5   3    8.19    1.04
   3   5   3    7.75    1.26
   3   5   3    7.65    1.04
  -4  -5  -3    0.03    0.49
   4   5   3    0.25    0.49
   4   5   3   -0.83    0.38
   4   5   3   -0.27    0.31
  -5  -5  -3   16.26    2.31
   5   5   3   17.08    2.26
   5   5   3   17.89    2.03
   5   5   3   18.68    1.80
   6   5   3   10.43    1.63
   6   5   3    7.09    1.18
   6   5   3    9.36    1.40
   7   5   3   -0.18    0.69
  10  -6  -3   20.92    2.16
   9  -6  -3   22.41    2.16
   8  -6  -3    0.86    0.41
   7  -6  -3   30.31    2.52
  -7   6   3   27.83    3.03
   6  -6  -3    0.54    0.41
   6  -6  -3    0.65    0.29
  -6   6   3    0.68    0.58
   5  -6  -3    0.06    0.21
   5  -6  -3    0.22    0.29
  -5   6   3    0.23    0.49
   4  -6  -3    2.67    0.38
   4  -6  -3    2.47    0.32
   4  -6  -3    2.28    0.45
   4  -6  -3    2.61    0.41
  -4   6   3    2.10    0.71
   3  -6  -3   20.15    1.62
   3  -6  -3   20.55    1.80
   3  -6  -3   19.12    1.60
  -3   6   3   24.07    2.11
  -3   6   3   16.98    1.71
   2  -6  -3   85.30    6.11
   2  -6  -3   92.83    7.26
   2  -6  -3   81.66    6.10
   2  -6  -3   71.03    6.18
  -2   6   3   87.82    6.67
  -2   6   3   70.02    6.98
   1  -6  -3    5.74    0.58
   1  -6  -3    5.83    0.76
   1  -6  -3    5.86    0.75
   1  -6  -3    6.62    0.98
   1  -6  -3    6.94    0.82
  -1   6   3    5.44    0.84
  -1   6   3    6.09    1.09
  -1   6   3    6.33    0.73
   0  -6  -3    0.91    0.37
   0  -6  -3    0.97    0.28
   0  -6  -3    1.37    0.43
   0  -6  -3    1.37    0.44
   0  -6  -3    1.55    0.57
   0   6   3    1.03    0.41
   0   6   3    0.93    0.58
   0   6   3    1.41    0.50
   0   6   3    0.98    0.35
  -1  -6  -3    1.21    0.46
  -1  -6  -3    0.86    0.53
   1   6   3    0.67    0.55
   1   6   3    0.85    0.39
   1   6   3    0.65    0.43
   1   6   3    0.66    0.46
  -2  -6  -3   -0.37    0.31
  -2  -6  -3    0.22    0.47
   2   6   3    0.16    0.42
   2   6   3    0.06    0.60
   2   6   3   -0.09    0.29
   2   6   3   -0.12    0.36
  -3  -6  -3   31.29    2.91
  -3  -6  -3   25.43    2.38
   3   6   3   23.70    2.65
   3   6   3   24.94    2.78
   3   6   3   28.07    2.46
  -4  -6  -3    7.97    1.43
   4   6   3    5.56    1.00
   4   6   3    4.54    1.14
   5   6   3   -0.34    0.63
   5   6   3    0.53    0.69
   6   6   3   10.07    1.76
   6   6   3    9.00    1.60
   7   6   3    1.55    0.99
   8  -7  -3    2.04    0.51
  -8   7   3    0.84    0.76
   7  -7  -3   24.97    2.08
  -7   7   3   21.26    2.60
   6  -7  -3    2.57    0.44
  -6   7   3    1.48    0.76
   5  -7  -3   81.05    6.09
   5  -7  -3   84.46    6.33
   5  -7  -3   80.67    6.10
  -5   7   3   82.37    7.22
   4  -7  -3   39.49    3.14
   4  -7  -3   42.29    3.17
  -4   7   3   40.94    3.85
   3  -7  -3    1.69    0.42
   3  -7  -3    2.46    0.47
  -3   7   3    1.06    0.61
  -3   7   3    1.74    0.49
   2  -7  -3    9.45    1.15
   2  -7  -3   12.81    1.54
  -2   7   3   10.90    1.53
  -2   7   3    9.87    1.24
   1  -7  -3    3.80    0.86
   1  -7  -3    4.94    0.75
   1  -7  -3    3.60    0.49
  -1   7   3    6.35    1.13
  -1   7   3    4.55    0.82
   0  -7  -3    8.25    1.30
   0  -7  -3    8.74    1.10
   0   7   3   10.14    1.50
   0   7   3    7.06    1.15
   0   7   3    9.91    1.12
  -1  -7  -3    3.57    0.86
  -1  -7  -3    3.01    0.68
   1   7   3    2.58    0.68
   1   7   3    3.92    0.89
   1   7   3    1.63    0.74
  -2  -7  -3    0.81    0.47
  -2  -7  -3    1.79    0.78
   2   7   3    1.26    0.56
   2   7   3    1.06    0.71
   2   7   3    2.12    0.83
  -3  -7  -3   59.61    5.92
   3   7   3   65.49    5.23
   3   7   3   64.61    5.63
   3   7   3   61.40    5.68
   4   7   3   -0.32    0.65
   4   7   3    1.02    0.66
   4   7   3   -0.29    0.76
   5   7   3    0.89    0.83
   5   7   3    0.56    0.76
   5   7   3   -0.71    0.85
   6   7   3    5.71    1.40
  -8   8   3    6.20    1.41
  -7   8   3    0.84    0.92
  -6   8   3    7.24    1.38
   5  -8  -3    0.20    0.29
  -5   8   3    0.82    0.67
   4  -8  -3    1.03    0.38
  -4   8   3    2.05    0.82
   3  -8  -3   16.00    1.51
  -3   8   3   14.99    1.99
   2  -8  -3   32.93    2.85
   2  -8  -3   38.50    3.48
  -2   8   3   31.95    3.34
   1  -8  -3    8.41    1.12
   1  -8  -3    9.01    1.39
  -1   8   3    8.76    1.31
  -1   8   3    9.48    1.49
   0  -8  -3   21.53    2.07
   0  -8  -3   20.54    2.47
   0   8   3   22.48    2.49
   0   8   3   25.71    2.36
  -1  -8  -3    1.26    0.63
  -1  -8  -3    0.64    0.50
   1   8   3    0.19    0.52
   1   8   3    1.58    0.81
  -2  -8  -3    0.54    0.54
  -2  -8  -3    0.46    0.73
   2   8   3    3.86    1.12
   2   8   3    1.25    0.76
   3   8   3    0.17    0.81
   3   8   3    0.15    0.68
   4   8   3    0.93    0.84
   4   8   3    2.34    1.00
   5   8   3    4.61    1.31
  -9   9   3   -0.35    0.89
  -8   9   3   22.57    3.15
  -7   9   3    0.15    0.80
   6  -9  -3    0.95    0.39
  -6   9   3    0.67    0.77
   5  -9  -3   13.80    1.35
  -5   9   3   13.46    2.08
   4  -9  -3    7.80    1.02
  -4   9   3    8.15    1.49
   3  -9  -3   23.30    2.78
   3  -9  -3   28.07    2.33
  -3   9   3   27.86    2.86
   2  -9  -3    3.49    0.93
   2  -9  -3    3.89    0.75
  -2   9   3    3.54    1.07
   1  -9  -3   -0.11    0.52
   1  -9  -3   -0.63    0.58
  -1   9   3    0.53    0.71
   0  -9  -3    8.13    1.18
   0  -9  -3    6.43    1.39
   0   9   3    7.76    1.51
  -1  -9  -3    0.12    0.56
   1   9   3   -0.87    0.71
   1   9   3    0.03    0.66
   2   9   3   19.40    2.45
   2   9   3   16.61    2.41
   3   9   3    2.94    1.14
   3   9   3    6.84    1.42
   4   9   3   -0.66    0.86
  -9  10   3    0.21    0.93
  -8  10   3   10.27    2.00
   7 -10  -3    2.28    0.53
  -7  10   3    2.80    1.18
   6 -10  -3   15.51    1.48
  -6  10   3   13.54    2.23
   5 -10  -3    0.57    0.47
  -5  10   3    1.63    0.95
   4 -10  -3    0.41    0.48
   4 -10  -3    0.25    0.72
  -4  10   3    0.83    0.92
   3 -10  -3    8.11    1.56
   3 -10  -3    9.83    1.28
  -3  10   3    8.79    1.67
   2 -10  -3    0.42    0.69
   2 -10  -3    0.48    0.55
  -2  10   3    0.69    0.83
   1 -10  -3    1.44    0.68
   1 -10  -3   -0.53    0.75
  -1  10   3    0.65    0.94
   0 -10  -3    3.93    1.14
   0 -10  -3    3.87    0.97
   0  10   3    5.30    1.31
  -1 -10  -3    6.99    1.27
   1  10   3    7.97    1.64
   2  10   3    2.97    1.30
  -9  11   3    6.23    1.85
   8 -11  -3    7.10    0.98
  -8  11   3    7.63    1.81
   7 -11  -3    2.35    0.64
  -7  11   3    0.88    1.24
   6 -11  -3    1.40    0.57
  -6  11   3    0.80    1.08
   5 -11  -3    0.40    0.52
  -5  11   3    0.46    0.96
   4 -11  -3    5.86    1.51
   4 -11  -3    5.50    1.04
  -4  11   3    9.07    1.75
   3 -11  -3   13.69    2.14
   3 -11  -3   19.29    1.84
  -3  11   3   14.71    2.33
   2 -11  -3   -0.47    0.58
   2 -11  -3    0.47    0.94
  -2  11   3    0.01    0.97
   1 -11  -3   27.52    2.70
  -1  11   3   28.66    3.49
   0 -11  -3    1.80    0.82
   0  11   3    0.50    1.08
   1  11   3   -0.82    1.02
   7 -12  -3    0.74    0.58
  -7  12   3    0.21    1.22
   6 -12  -3   14.60    1.67
  -6  12   3   11.45    2.37
   5 -12  -3    4.30    0.96
  -5  12   3    5.11    1.60
   4 -12  -3    1.51    0.75
  -4  12   3    2.71    1.35
   3 -12  -3   -0.07    0.71
  -3  12   3   -0.44    1.08
   2 -12  -3    0.23    0.70
  -2  12   3    0.68    1.12
   1 -12  -3    0.49    0.78
  -1  12   3   -1.10    1.07
   1 -13   4   19.67    2.41
   2 -13   4    1.14    0.74
   3 -13   4    0.56    0.74
   4 -13   4    2.97    0.94
   5 -13   4    1.28    0.81
   6 -13   4    1.90    0.76
   0 -12   4    5.32    1.26
  -1  12  -4    1.92    1.11
   1 -12   4    5.11    1.12
  -2  12  -4    2.77    1.21
   2 -12   4    2.51    0.92
   3 -12   4    2.78    0.85
   4 -12   4   13.74    1.79
   5 -12   4    0.42    0.59
   6 -12   4   17.36    2.00
   7 -12   4    0.28    0.57
   8 -12   4    1.40    0.63
   3  11  -4    0.19    0.95
   2  11  -4    6.31    1.58
   1  11  -4   -0.23    0.79
   0  11  -4    2.05    0.97
   0 -11   4    0.57    0.70
  -1  11  -4    6.85    1.43
   1 -11   4    7.03    1.22
  -2  11  -4   12.54    1.88
   2 -11   4    9.57    1.42
   3 -11   4   11.88    1.52
   4 -11   4    2.52    0.74
   5 -11   4    1.59    0.65
   6 -11   4    2.89    0.78
   7 -11   4   -0.21    0.48
   8 -11   4    7.21    1.13
   9 -11   4    3.14    0.80
   5  10  -4    2.11    1.08
   4  10  -4    1.94    0.90
   3  10  -4    0.53    0.87
   2  10  -4    7.50    1.54
   1  10  -4   -0.15    0.57
   1  10  -4    0.39    0.77
  -1 -10   4   -0.27    0.95
  -1 -10   4   -0.48    0.55
   0  10  -4   21.21    2.75
   0  10  -4   29.21    2.87
   0 -10   4   33.46    2.68
  -1  10  -4   13.53    1.88
  -1  10  -4    9.56    1.66
   1 -10   4   14.69    1.66
  -2  10  -4    0.26    0.71
   2 -10   4    0.11    0.47
   3 -10   4    9.72    1.30
   4 -10   4    1.13    0.52
   5 -10   4    0.65    0.50
   6 -10   4    6.69    1.06
   7 -10   4   12.11    1.48
   8 -10   4    6.00    0.95
   9 -10   4   -0.37    0.46
  10 -10   4    0.98    0.61
   6   9  -4    0.00    0.95
   5   9  -4    4.79    1.40
   4   9  -4    2.79    1.01
   4   9  -4   -0.03    0.94
   3   9  -4    4.09    1.06
   3   9  -4    3.66    1.17
  -3  -9   4    3.91    1.35
   2   9  -4    7.17    1.39
   2   9  -4    5.21    1.29
  -2  -9   4    5.92    1.07
  -2  -9   4    5.36    1.31
   1   9  -4    4.57    1.13
   1   9  -4    5.27    1.00
  -1  -9   4    3.77    0.87
  -1  -9   4    2.81    1.18
   0   9  -4    0.44    0.55
   0   9  -4    0.31    0.49
   0  -9   4    0.25    0.45
  -1   9  -4    0.08    0.51
  -1   9  -4   -0.81    0.50
   1  -9   4   -0.01    0.41
  -2   9  -4   13.04    1.80
  -2   9  -4   13.31    1.70
   2  -9   4   11.45    1.44
   3  -9   4   25.52    2.27
   4  -9   4    1.46    0.50
   5  -9   4   52.84    4.22
   6  -9   4    1.38    0.49
   7  -9   4    1.54    0.54
   8  -9   4    0.77    0.45
   9  -9   4    4.55    0.84
  10  -9   4    2.28    0.67
  10  -9   4    2.59    0.75
   6   8  -4   17.31    2.50
   5   8  -4   33.31    3.55
   4   8  -4    1.83    0.94
   4   8  -4    2.68    1.01
  -4  -8   4    3.12    1.13
   3   8  -4   30.36    3.17
   3   8  -4   27.83    3.63
  -3  -8   4   37.41    3.60
   2   8  -4    0.52    0.68
   2   8  -4    0.70    0.54
   2   8  -4   -0.27    0.46
  -2  -8   4    0.56    0.73
  -2  -8   4    0.28    0.46
   1   8  -4    0.57    0.53
   1   8  -4    0.67    0.54
  -1  -8   4    0.72    0.47
  -1  -8   4    0.09    0.72
   0   8  -4   31.02    2.86
   0   8  -4   26.68    2.74
   0  -8   4   28.72    2.51
  -1   8  -4   18.89    2.04
  -1   8  -4   19.04    2.05
   1  -8   4   19.76    1.82
  -2   8  -4   23.21    2.24
  -2   8  -4   25.34    2.41
   2  -8   4   19.75    1.97
  -3   8  -4    1.75    0.58
   3  -8   4    2.16    0.55
   4  -8   4    0.60    0.41
   5  -8   4    2.01    0.54
   6  -8   4    2.11    0.52
   7  -8   4   19.03    1.76
   8  -8   4   20.68    1.90
   9  -8   4    0.85    0.51
  10  -8   4    6.97    1.08
  10  -8   4    6.67    1.04
   7   7  -4    3.53    1.18
   6   7  -4    1.21    0.60
   6   7  -4    1.25    0.91
   5   7  -4    0.24    0.65
   5   7  -4    0.75    0.51
   5   7  -4   -0.29    0.67
  -5  -7   4   -0.36    0.81
   4   7  -4    9.93    1.57
   4   7  -4    9.45    1.27
   4   7  -4    7.81    1.41
  -4  -7   4    9.10    1.62
   3   7  -4   48.96    3.94
   3   7  -4   45.46    4.36
   3   7  -4   47.10    4.21
  -3  -7   4   48.39    3.89
  -3  -7   4   47.32    4.66
   2   7  -4    2.47    0.63
   2   7  -4    1.31    0.60
   2   7  -4    3.36    0.63
   2   7  -4    1.52    0.72
  -2  -7   4    2.58    0.63
  -2  -7   4    1.53    0.91
   1   7  -4   41.92    3.62
   1   7  -4   39.68    3.55
   1   7  -4   39.50    3.66
   1   7  -4   37.69    3.26
  -1  -7   4   41.71    3.30
   0   7  -4   20.62    1.96
   0   7  -4   22.92    2.30
   0   7  -4   24.34    2.23
   0  -7   4   23.40    2.03
  -1   7  -4   -0.08    0.38
  -1   7  -4    0.18    0.26
  -1   7  -4    0.31    0.48
   1  -7   4   -0.04    0.28
   1  -7   4   -0.55    0.25
  -2   7  -4    0.31    0.27
  -2   7  -4    0.06    0.34
   2  -7   4    0.25    0.31
   2  -7   4    0.30    0.32
  -3   7  -4    9.39    0.90
  -3   7  -4    8.99    1.22
   3  -7   4    9.97    1.12
   3  -7   4   10.52    1.13
  -4   7  -4    0.62    0.29
   4  -7   4    0.20    0.22
   4  -7   4    0.28    0.33
   5  -7   4   14.68    1.38
   5  -7   4   15.86    1.46
   6  -7   4    8.73    1.04
   7  -7   4   14.97    1.44
   8  -7   4    0.36    0.38
   9  -7   4    1.12    0.57
   9  -7   4    0.94    0.51
  10  -7   4    2.30    0.69
  11  -7   4    0.71    0.66
   8   6  -4    0.80    0.70
   8   6  -4    1.21    1.04
   7   6  -4    1.20    0.79
   7   6  -4    1.22    0.61
   6   6  -4   15.81    2.06
   6   6  -4    9.46    1.70
   6   6  -4   11.43    1.55
  -6  -6   4   11.88    1.87
   5   6  -4   14.62    1.92
   5   6  -4   16.02    2.00
   5   6  -4   13.17    1.62
  -5  -6   4   13.57    2.02
   4   6  -4    2.67    0.81
   4   6  -4    3.96    0.75
   4   6  -4    3.75    0.86
  -4  -6   4    3.25    0.96
   3   6  -4   23.26    2.51
   3   6  -4   24.59    2.50
   3   6  -4   23.41    2.19
  -3  -6   4   25.97    2.19
  -3  -6   4   25.17    2.76
   2   6  -4   28.73    2.62
   2   6  -4   28.21    2.56
   2   6  -4   29.90    2.34
  -2  -6   4   26.84    2.28
  -2  -6   4   19.59    2.67
   1   6  -4    1.61    0.63
   1   6  -4    2.31    0.50
   1   6  -4    1.69    0.50
   1   6  -4    2.49    0.69
  -1  -6   4    2.18    0.52
   0   6  -4   11.25    1.10
   0   6  -4   12.29    1.24
   0   6  -4    7.39    1.28
   0  -6   4   11.75    1.13
  -1   6  -4   20.88    1.68
  -1   6  -4   17.57    1.89
   1  -6   4   17.72    1.68
   1  -6   4   20.53    1.71
  -2   6  -4  141.82   11.18
   2  -6   4  136.44   10.21
   2  -6   4  134.47   10.21
  -3   6  -4   11.90    1.04
  -3   6  -4   11.26    1.26
   3  -6   4   12.24    1.15
   3  -6   4   13.20    1.20
  -4   6  -4   58.55    4.58
   4  -6   4   50.75    4.69
   4  -6   4   53.41    4.22
   4  -6   4   57.01    4.27
  -5   6  -4    3.53    0.52
   5  -6   4    3.72    0.75
   5  -6   4    4.24    0.61
   5  -6   4    3.36    0.60
   6  -6   4    0.41    0.30
   6  -6   4    0.04    0.27
   7  -6   4    9.07    1.06
   8  -6   4    1.69    0.51
   8  -6   4    1.55    0.57
   9  -6   4    6.49    1.04
  10  -6   4    1.25    0.55
  10  -6   4    0.71    0.44
  11  -6   4    4.43    0.86
  11  -6   4    2.26    0.68
   9   5  -4    0.55    0.65
   8   5  -4    5.76    1.36
   8   5  -4    4.80    1.00
   7   5  -4    6.68    1.05
   7   5  -4    6.00    1.33
   7   5  -4    3.35    1.08
  -7  -5   4    5.94    1.36
   6   5  -4   34.43    3.11
   6   5  -4   36.91    3.45
   6   5  -4   36.64    3.55
  -6  -5   4   39.08    3.78
   5   5  -4    0.58    0.48
   5   5  -4    0.12    0.34
   5   5  -4    0.77    0.59
  -5  -5   4   -0.12    0.62
   4   5  -4   13.32    1.83
   4   5  -4   14.90    1.78
   4   5  -4   14.69    1.41
  -4  -5   4   13.36    1.89
  -4  -5   4   12.90    1.36
   3   5  -4    0.59    0.33
   3   5  -4    0.89    0.52
   3   5  -4    0.48    0.44
  -3  -5   4    0.30    0.51
  -3  -5   4    0.14    0.30
   2   5  -4    3.95    0.65
   2   5  -4    5.07    0.91
   2   5  -4    3.56    0.78
  -2  -5   4    4.01    0.87
  -2  -5   4    4.32    0.66
   1   5  -4    7.96    1.16
   1   5  -4    9.62    1.24
   1   5  -4    9.71    1.08
  -1  -5   4    9.44    1.01
  -1  -5   4   10.65    1.02
   0   5  -4    8.63    1.13
   0   5  -4    8.80    1.00
   0  -5   4    9.47    1.17
   0  -5   4   10.11    1.07
   0  -5   4    6.90    0.93
  -1   5  -4   37.87    3.16
  -1   5  -4   38.01    2.84
   1  -5   4   37.04    2.85
   1  -5   4   38.49    2.87
   1  -5   4   27.44    2.98
  -2   5  -4    9.78    0.89
  -2   5  -4   10.60    1.26
   2  -5   4    7.49    0.96
   2  -5   4    9.78    0.92
  -3   5  -4    1.68    0.30
  -3   5  -4    1.46    0.39
   3  -5   4    1.83    0.36
   3  -5   4    0.85    0.34
   3  -5   4    2.00    0.43
  -4   5  -4    8.38    0.92
   4  -5   4    9.65    1.14
   4  -5   4    9.42    0.90
   4  -5   4    8.85    0.99
  -5   5  -4    4.21    0.57
   5  -5   4    3.73    0.68
   5  -5   4    5.08    0.65
   5  -5   4    3.36    0.54
  -6   5  -4    3.64    0.93
   6  -5   4    6.13    0.72
   6  -5   4    6.54    0.80
  -7   5  -4   59.57    5.44
   7  -5   4   55.46    4.42
   7  -5   4   56.16    4.82
  -8   5  -4    2.11    0.83
   8  -5   4    2.19    0.60
  -9   5  -4    9.40    1.76
   9  -5   4   11.23    1.25
   9  -5   4   11.60    1.42
   9  -5   4    6.90    1.34
  10  -5   4    4.96    0.89
  10  -5   4    5.66    1.07
  11  -5   4    0.36    0.66
  11  -5   4    1.12    0.59
   9   4  -4   15.30    2.24
   9   4  -4   12.75    1.72
   8   4  -4    8.22    1.22
   8   4  -4    6.49    1.35
  -8  -4   4    4.75    1.21
   7   4  -4    2.27    0.62
   7   4  -4    1.30    0.74
   7   4  -4    2.11    0.78
  -7  -4   4    3.76    0.98
   6   4  -4    1.77    0.54
   6   4  -4    1.73    0.67
   6   4  -4    0.96    0.61
  -6  -4   4    0.95    0.65
   5   4  -4    3.06    0.79
   5   4  -4    4.60    0.80
   5   4  -4    5.61    1.05
  -5  -4   4    3.19    0.83
   4   4  -4  182.84   14.79
   4   4  -4  189.47   14.17
   4   4  -4  192.94   13.50
  -4  -4   4  165.13   13.44
   3   4  -4    9.18    1.04
   3   4  -4    7.46    1.17
   3   4  -4    7.68    1.17
  -3  -4   4   10.14    1.08
  -3  -4   4    9.50    1.29
   2   4  -4   17.52    1.62
   2   4  -4   13.48    1.60
   2   4  -4   14.86    1.44
  -2  -4   4   19.98    1.48
  -2  -4   4   14.83    1.73
   1   4  -4   74.07    5.94
   1   4  -4   78.36    5.62
  -1  -4   4   73.01    6.14
  -1  -4   4   71.60    5.60
  -1  -4   4   73.96    5.88
   0   4  -4    0.97    0.32
   0   4  -4    0.99    0.39
   0  -4   4    0.20    0.29
   0  -4   4    0.62    0.41
   0  -4   4    0.75    0.31
   0  -4   4    0.84    0.30
  -1   4  -4    0.88    0.28
  -1   4  -4    1.06    0.42
   1  -4   4    0.65    0.30
   1  -4   4    0.56    0.25
  -2   4  -4    0.79    0.32
  -2   4  -4    0.03    0.12
   2  -4   4    0.49    0.30
   2  -4   4    0.99    0.33
   2  -4   4    0.70    0.34
   2  -4   4    0.97    0.27
  -3   4  -4   12.77    1.12
  -3   4  -4   12.64    0.95
   3  -4   4   10.46    1.13
   3  -4   4   10.66    1.03
   3  -4   4    8.52    0.96
   3  -4   4    9.79    1.33
  -4   4  -4   63.23    5.60
  -4   4  -4   56.67    6.14
  -4   4  -4   70.24    5.06
   4  -4   4   74.70    5.20
   4  -4   4   75.17    5.18
   4  -4   4   71.34    5.70
  -5   4  -4   15.25    1.66
  -5   4  -4   12.52    1.24
   5  -4   4   13.82    1.36
   5  -4   4   12.30    1.17
   5  -4   4   13.96    1.23
  -6   4  -4    5.07    1.12
   6  -4   4    7.49    1.00
   6  -4   4    7.92    0.87
   6  -4   4    7.08    0.88
  -7   4  -4    0.70    0.58
   7  -4   4    0.88    0.44
  -8   4  -4   -0.13    0.66
   8  -4   4    0.35    0.36
   8  -4   4   -0.39    0.40
   8  -4   4   -0.28    0.39
   9  -4   4   28.29    2.43
   9  -4   4   28.64    2.67
   9  -4   4   25.78    2.68
  10  -4   4    0.44    0.52
  10  -4   4   -0.07    0.37
  11  -4   4   10.15    1.48
  11  -4   4    7.06    1.22
  10   3  -4    7.25    1.42
  10   3  -4    5.52    1.11
   9   3  -4    7.53    1.23
   9   3  -4    9.44    1.62
   8   3  -4   -0.10    0.57
   8   3  -4   -0.34    0.35
   8   3  -4   -0.37    0.48
  -8  -3   4   -0.04    0.65
   7   3  -4    1.96    0.71
   7   3  -4    2.62    0.85
   7   3  -4    2.61    0.67
  -7  -3   4    2.42    0.84
   6   3  -4    0.18    0.34
   6   3  -4    0.52    0.48
   6   3  -4    0.02    0.43
  -6  -3   4    0.54    0.54
   5   3  -4    8.40    1.16
   5   3  -4    7.10    1.13
   5   3  -4    8.71    1.08
  -5  -3   4    9.31    1.26
   4   3  -4   60.23    4.67
   4   3  -4   58.54    4.38
   4   3  -4   54.32    4.39
   4   3  -4   54.35    4.83
   3   3  -4   29.57    2.47
   3   3  -4   30.71    2.77
   3   3  -4   29.05    2.46
   3   3  -4   32.72    2.67
  -3  -3   4   32.22    2.91
  -3  -3   4   30.22    2.46
   2   3  -4    2.50    0.53
   2   3  -4    3.25    0.50
   2   3  -4    3.96    0.65
   2   3  -4    2.51    0.48
  -2  -3   4    4.25    0.59
  -2  -3   4    3.95    0.64
  -2  -3   4    3.37    0.63
   1   3  -4    6.87    0.90
   1   3  -4    5.12    0.69
   1   3  -4    5.74    0.71
   1   3  -4    5.04    0.84
  -1  -3   4    7.00    0.87
  -1  -3   4    6.85    0.74
   0   3  -4    0.24    0.27
   0   3  -4    0.02    0.18
   0   3  -4    0.44    0.25
   0  -3   4    0.11    0.22
   0  -3   4    0.30    0.23
   0  -3   4   -0.16    0.31
  -1   3  -4  277.72   21.57
  -1   3  -4  279.68   19.73
   1  -3   4  283.21   19.75
   1  -3   4  241.92   19.71
  -2   3  -4   -0.07    0.11
  -2   3  -4   -0.14    0.20
   2  -3   4    0.55    0.31
   2  -3   4    0.22    0.21
   2  -3   4    0.07    0.16
   2  -3   4   -0.08    0.21
  -3   3  -4   78.77    6.33
  -3   3  -4   92.12    6.98
  -3   3  -4   69.48    7.53
   3  -3   4   93.24    6.39
   3  -3   4   97.01    7.04
   3  -3   4   93.18    7.58
   3  -3   4   79.66    6.40
  -4   3  -4   13.75    1.09
  -4   3  -4   13.97    1.54
  -4   3  -4   13.41    1.26
   4  -3   4   15.02    1.21
   4  -3   4   11.08    1.27
   4  -3   4   12.91    1.15
  -5   3  -4    2.64    0.52
  -5   3  -4    4.16    0.83
   5  -3   4    2.95    0.50
   5  -3   4    4.93    0.64
   5  -3   4    4.38    0.70
  -6   3  -4    2.86    0.83
   6  -3   4    3.32    0.55
   6  -3   4    3.68    0.75
  -7   3  -4    7.16    1.31
   7  -3   4    7.37    1.06
   7  -3   4    6.29    0.88
  -8   3  -4    3.57    1.07
   8  -3   4    4.06    0.87
   8  -3   4    4.92    0.79
   8  -3   4    4.10    0.87
   9  -3   4    5.73    1.08
   9  -3   4   10.16    1.17
   9  -3   4    7.12    1.03
   9  -3   4    8.10    1.30
  10  -3   4    0.02    0.47
  10  -3   4    0.19    0.45
  10  -3   4   -0.07    0.55
  11  -3   4    0.83    0.64
  10   2  -4   28.32    2.91
  10   2  -4   25.07    2.49
   9   2  -4    1.38    0.58
   9   2  -4    1.26    0.80
  -9  -2   4    2.21    0.86
   8   2  -4   -0.05    0.42
   8   2  -4    0.49    0.59
   8   2  -4   -0.43    0.35
  -8  -2   4   -0.46    0.54
   7   2  -4   35.17    2.95
   7   2  -4   32.40    3.28
   7   2  -4   39.10    3.25
  -7  -2   4   36.33    3.51
   6   2  -4    2.42    0.65
   6   2  -4    2.36    0.51
   6   2  -4    3.07    0.76
  -6  -2   4    2.34    0.70
   5   2  -4    7.61    1.02
   5   2  -4    6.25    0.87
   5   2  -4    7.07    0.89
   5   2  -4    8.31    1.16
  -5  -2   4    7.81    0.86
  -5  -2   4    8.37    1.10
   4   2  -4    0.36    0.22
   4   2  -4   -0.04    0.19
   4   2  -4    0.72    0.36
   4   2  -4    0.47    0.28
  -4  -2   4    0.07    0.31
  -4  -2   4   -0.01    0.16
   3   2  -4    0.50    0.25
   3   2  -4   -0.09    0.24
   3   2  -4    0.60    0.32
   3   2  -4    0.29    0.20
  -3  -2   4    0.05    0.27
  -3  -2   4   -0.14    0.22
  -3  -2   4    0.22    0.11
   2   2  -4  121.63    9.51
   2   2  -4  134.36   10.44
   2   2  -4  128.91    9.51
   2   2  -4  141.26   10.00
  -2  -2   4  142.55    9.96
  -2  -2   4  125.46    9.49
  -2  -2   4  111.83   11.09
   1   2  -4   35.18    3.07
   1   2  -4   33.85    2.95
   1   2  -4   35.71    2.78
  -1  -2   4   37.70    2.77
   0   2  -4   12.73    1.33
   0   2  -4   14.68    1.21
   0   2  -4   14.60    1.20
   0  -2   4   13.51    1.17
   0  -2   4   13.32    1.18
  -1   2  -4    0.08    0.22
  -1   2  -4   -0.02    0.16
  -1   2  -4    0.27    0.24
   1  -2   4   -0.02    0.22
   1  -2   4   -0.10    0.26
   1  -2   4   -0.16    0.17
   1  -2   4    0.18    0.18
  -2   2  -4   26.53    2.10
  -2   2  -4   28.88    2.55
   2  -2   4   25.10    2.33
   2  -2   4   27.35    2.12
   2  -2   4   25.90    2.50
   2  -2   4   26.96    2.10
  -3   2  -4   64.79    5.98
  -3   2  -4   72.94    5.52
   3  -2   4   65.70    5.02
   3  -2   4   58.53    5.03
   3  -2   4   75.08    6.00
  -4   2  -4   24.58    2.33
  -4   2  -4   24.28    2.05
  -4   2  -4   23.03    1.81
   4  -2   4   21.09    1.86
   4  -2   4   22.72    2.10
   4  -2   4   22.22    1.89
  -5   2  -4   26.45    2.57
  -5   2  -4   23.04    2.24
  -5   2  -4   24.34    1.97
   5  -2   4   26.33    2.09
   5  -2   4   26.79    2.08
   5  -2   4   24.13    2.29
  -6   2  -4   68.19    6.01
   6  -2   4   62.67    4.99
   6  -2   4   64.86    5.49
  -7   2  -4   -0.03    0.53
   7  -2   4    0.44    0.43
   7  -2   4    0.05    0.32
   7  -2   4   -0.02    0.35
  -8   2  -4   11.58    1.78
   8  -2   4   12.02    1.32
   8  -2   4    8.06    1.34
   8  -2   4    9.21    1.40
   8  -2   4   11.72    1.30
   9  -2   4   -0.11    0.38
   9  -2   4   -0.33    0.42
   9  -2   4   -0.45    0.39
  10  -2   4    0.09    0.57
  10  -2   4   -0.07    0.44
  10  -2   4    0.81    0.52
  11   1  -4   -1.17    0.49
  10   1  -4   47.87    4.55
  10   1  -4   50.81    4.11
   9   1  -4    4.02    1.01
   9   1  -4    6.10    1.15
   9   1  -4    5.42    0.96
  -9  -1   4    7.71    1.40
   8   1  -4    0.11    0.42
   8   1  -4   -0.11    0.29
   8   1  -4   -0.41    0.37
   8   1  -4    0.03    0.28
  -8  -1   4   -0.29    0.43
   7   1  -4    4.66    0.94
   7   1  -4    5.52    0.82
   7   1  -4    6.37    0.82
   7   1  -4    6.54    1.03
  -7  -1   4    7.23    1.14
   6   1  -4    0.20    0.24
   6   1  -4    0.21    0.23
   6   1  -4   -0.21    0.22
   6   1  -4   -0.14    0.29
   6   1  -4    0.26    0.33
  -6  -1   4    0.11    0.34
   5   1  -4   53.83    5.36
   5   1  -4   62.85    4.59
   5   1  -4   63.63    4.90
   5   1  -4   61.91    5.07
   5   1  -4   57.51    4.59
  -5  -1   4   63.25    5.40
   4   1  -4    1.41    0.33
   4   1  -4    1.85    0.44
   4   1  -4    1.08    0.38
   4   1  -4    1.87    0.35
   4   1  -4    1.23    0.41
  -4  -1   4    1.80    0.42
  -4  -1   4    1.16    0.37
  -4  -1   4    1.70    0.30
   3   1  -4   21.50    1.88
   3   1  -4   22.58    2.12
   3   1  -4   24.65    2.05
   3   1  -4   24.37    1.89
  -3  -1   4   26.29    1.86
  -3  -1   4   21.94    2.00
   2   1  -4  119.78    8.93
   2   1  -4  101.00    8.50
   2   1  -4  124.11    9.35
   2   1  -4  115.11    8.51
  -2  -1   4  112.28    9.90
  -2  -1   4  123.02    8.90
   1   1  -4   -0.15    0.19
   1   1  -4    0.41    0.21
   1   1  -4   -0.35    0.20
   1   1  -4    0.27    0.28
  -1  -1   4   -0.01    0.18
  -1  -1   4   -0.03    0.20
  -1  -1   4    0.02    0.30
   0   1  -4   10.54    1.04
   0   1  -4   10.22    0.91
   0   1  -4    9.80    0.90
   0  -1   4   10.14    1.00
   0  -1   4    8.25    1.00
   0  -1   4   10.42    0.91
   0  -1   4   10.21    0.88
  -1   1  -4    8.85    0.95
  -1   1  -4    9.83    0.84
  -1   1  -4    7.26    0.98
  -1   1  -4    7.02    0.83
   1  -1   4   10.90    1.00
   1  -1   4   10.03    0.97
   1  -1   4   10.51    0.85
   1  -1   4    8.27    0.83
  -2   1  -4   16.69    1.57
  -2   1  -4   18.47    1.31
  -2   1  -4   15.21    1.44
   2  -1   4   12.54    1.50
   2  -1   4   15.00    1.31
   2  -1   4   15.07    1.28
  -3   1  -4  136.92   11.05
  -3   1  -4  124.65   10.23
  -3   1  -4  136.90    9.35
   3  -1   4  110.01   10.25
   3  -1   4  115.98    9.36
   3  -1   4  138.63   11.05
  -4   1  -4   51.87    4.25
  -4   1  -4   48.96    4.60
  -4   1  -4   50.95    3.82
   4  -1   4   45.37    3.85
   4  -1   4   53.55    3.89
   4  -1   4   51.51    4.26
  -5   1  -4    1.83    0.38
  -5   1  -4    0.96    0.49
   5  -1   4    1.77    0.41
   5  -1   4    2.57    0.50
   5  -1   4    1.97    0.51
  -6   1  -4    0.07    0.44
   6  -1   4    0.49    0.33
   6  -1   4    0.84    0.47
   6  -1   4    0.60    0.40
   6  -1   4   -0.14    0.30
  -7   1  -4    0.99    0.68
   7  -1   4    0.36    0.41
   7  -1   4    0.95    0.43
   7  -1   4    0.52    0.39
   7  -1   4    1.49    0.52
  -8   1  -4   40.89    4.03
   8  -1   4   39.51    3.50
   8  -1   4   37.61    3.57
   8  -1   4   41.34    3.30
   8  -1   4   35.81    3.21
   9  -1   4    0.63    0.48
   9  -1   4    0.42    0.48
   9  -1   4    0.82    0.67
  10  -1   4    8.24    1.45
  10  -1   4    9.30    1.25
  10  -1   4    7.27    1.19
  11   0  -4    3.64    1.04
  11   0  -4    3.02    0.81
  10   0  -4    4.75    0.82
  10   0  -4    4.22    0.81
  10   0  -4    3.71    0.97
 -10   0   4    4.13    1.22
   9   0  -4    2.02    0.71
   9   0  -4    1.25    0.48
   9   0  -4    1.66    0.43
   9   0  -4    2.12    0.70
  -9   0   4    2.33    0.78
   8   0  -4   22.56    1.94
   8   0  -4   23.25    2.23
   8   0  -4   21.23    1.92
   8   0  -4   21.57    2.18
  -8   0   4   22.71    2.42
   7   0  -4    1.54    0.38
   7   0  -4    2.00    0.57
   7   0  -4    0.97    0.34
   7   0  -4    1.87    0.53
  -7   0   4    1.57    0.52
   6   0  -4    4.73    0.79
   6   0  -4    6.47    0.88
   6   0  -4    4.66    0.62
   6   0  -4    5.32    0.83
   6   0  -4    4.73    0.66
   6   0  -4    6.40    0.73
  -6   0   4    5.19    0.87
   5   0  -4   25.94    2.35
   5   0  -4   26.84    2.11
   5   0  -4   23.39    2.10
   5   0  -4   26.94    2.29
   5   0  -4   30.31    2.51
   5   0  -4   25.89    2.10
  -5   0   4   27.26    2.50
   4   0  -4   17.11    1.67
   4   0  -4   20.53    1.82
   4   0  -4   20.42    1.55
   4   0  -4   22.10    1.79
   4   0  -4   19.09    1.56
  -4   0   4   17.04    1.79
  -4   0   4   18.50    1.68
   3   0  -4    1.45    0.35
   3   0  -4    0.48    0.19
   3   0  -4    0.17    0.22
   3   0  -4    0.31    0.18
   3   0  -4    0.54    0.20
  -3   0   4    0.32    0.22
  -3   0   4    0.52    0.25
  -3   0   4    0.01    0.19
   2   0  -4   11.91    0.99
   2   0  -4   12.56    1.08
   2   0  -4   12.19    1.13
   2   0  -4   10.05    0.96
  -2   0   4   11.40    0.94
  -2   0   4   11.72    1.10
  -2   0   4   11.20    1.05
   1   0  -4    8.09    0.77
   1   0  -4    8.37    0.79
   1   0  -4    8.45    0.91
  -1   0   4   10.25    0.89
  -1   0   4    8.41    0.79
   0   0  -4  260.13   19.37
   0   0  -4  260.77   19.36
   0   0  -4  283.31   21.17
   0   0  -4  271.57   22.63
   0   0   4  262.66   22.63
   0   0   4  258.09   19.37
  -1   0  -4    0.10    0.17
  -1   0  -4    0.35    0.24
  -1   0  -4    0.09    0.26
  -1   0  -4   -0.06    0.21
   1   0   4   -0.18    0.16
   1   0   4   -0.30    0.21
   1   0   4   -0.16    0.18
   1   0   4   -0.08    0.16
  -2   0  -4   56.34    3.96
  -2   0  -4   45.37    4.62
  -2   0  -4   50.36    4.32
   2   0   4   53.15    4.35
   2   0   4   54.47    4.64
   2   0   4   52.00    3.95
   2   0   4   53.43    3.96
  -3   0  -4   24.15    1.91
  -3   0  -4   20.49    1.65
  -3   0  -4   21.27    2.04
   3   0   4   17.97    1.86
   3   0   4   19.82    1.69
   3   0   4   24.76    1.74
   3   0   4   14.73    1.94
  -4   0  -4   13.30    1.39
  -4   0  -4   12.99    1.18
  -4   0  -4   12.94    1.52
   4   0   4   12.49    1.36
   4   0   4   12.28    1.20
   4   0   4   13.12    1.29
   4   0   4   14.98    1.27
   4   0   4   13.18    1.23
  -5   0  -4   15.08    1.35
  -5   0  -4   12.56    1.82
   5   0   4   17.35    1.64
   5   0   4   15.47    1.42
   5   0   4   13.25    1.38
   5   0   4   16.10    1.53
   5   0   4   16.20    1.44
  -6   0  -4    1.26    0.65
   6   0   4    1.89    0.57
   6   0   4    1.80    0.47
   6   0   4    1.79    0.49
   6   0   4    2.77    0.70
  -7   0  -4    0.21    0.65
   7   0   4   -0.30    0.32
   7   0   4   -0.07    0.46
   7   0   4    0.27    0.37
   7   0   4   -0.49    0.35
  -8   0  -4   17.95    2.60
   8   0   4   22.13    1.98
   8   0   4   17.13    1.94
   8   0   4   24.06    2.27
   8   0   4   20.74    2.17
   9   0   4    2.20    0.64
   9   0   4    1.38    0.65
   9   0   4    1.01    0.71
  10   0   4    0.31    0.71
  10   0   4    0.50    0.52
  10   0   4    0.71    0.59
  11  -1  -4    7.28    1.11
  11  -1  -4    7.17    1.28
  10  -1  -4    4.22    0.74
  10  -1  -4    6.51    1.11
  10  -1  -4    6.82    0.93
   9  -1  -4    0.68    0.34
   9  -1  -4    1.31    0.54
   9  -1  -4    0.08    0.42
   9  -1  -4    0.77    0.37
  -9   1   4    0.71    0.61
   8  -1  -4  122.08    9.23
   8  -1  -4  116.69    9.51
   8  -1  -4  108.45    8.65
   8  -1  -4  116.08    8.77
  -8   1   4  119.91   10.28
   7  -1  -4    0.01    0.21
   7  -1  -4    0.04    0.21
   7  -1  -4    0.60    0.25
   7  -1  -4    0.38    0.33
   7  -1  -4    1.06    0.43
  -7   1   4    0.21    0.40
   6  -1  -4    5.92    0.87
   6  -1  -4    6.06    0.69
   6  -1  -4    4.98    0.64
   6  -1  -4    5.78    0.80
   6  -1  -4    8.06    0.94
  -6   1   4    6.33    0.89
   5  -1  -4   -0.38    0.21
   5  -1  -4   -0.06    0.15
   5  -1  -4    0.05    0.19
   5  -1  -4   -0.01    0.14
   5  -1  -4    0.11    0.22
  -5   1   4   -0.28    0.24
  -5   1   4   -0.02    0.23
  -5   1   4   -0.15    0.30
   4  -1  -4   27.21    2.33
   4  -1  -4   28.39    2.31
   4  -1  -4   26.19    2.20
   4  -1  -4   26.67    2.03
   4  -1  -4   28.46    2.04
   4  -1  -4   25.65    2.38
  -4   1   4   26.43    2.39
  -4   1   4   24.74    2.18
  -4   1   4   25.20    2.35
   3  -1  -4  140.08   10.49
   3  -1  -4  137.92   11.14
   3  -1  -4  120.51    9.57
   3  -1  -4  138.53    9.56
   3  -1  -4  137.18   10.03
  -3   1   4  138.82   11.15
  -3   1   4  138.03   10.43
  -3   1   4  109.39   10.38
  -3   1   4  134.44   10.80
  -3   1   4  115.05    9.99
   2  -1  -4   15.78    1.29
   2  -1  -4   16.73    1.32
   2  -1  -4   17.08    1.49
   2  -1  -4   15.97    1.38
  -2   1   4   18.43    1.54
  -2   1   4   16.31    1.34
  -2   1   4   14.82    1.41
   1  -1  -4    0.02    0.12
   1  -1  -4    0.07    0.20
   1  -1  -4    0.38    0.19
  -1   1   4   -0.09    0.08
  -1   1   4    0.02    0.12
  -1   1   4   -0.19    0.20
  -1   1   4    0.08    0.11
  -1   1   4    0.08    0.19
   0  -1  -4   -0.01    0.21
   0  -1  -4    0.41    0.20
   0  -1  -4    0.23    0.23
   0  -1  -4    0.04    0.17
   0   1   4    0.07    0.16
   0   1   4    0.21    0.21
   0   1   4    0.26    0.18
   0   1   4    0.22    0.16
  -1  -1  -4    3.39    0.45
  -1  -1  -4    4.05    0.51
  -1  -1  -4    2.53    0.48
  -1  -1  -4    3.04    0.53
   1   1   4    2.84    0.48
   1   1   4    3.25    0.54
   1   1   4    2.69    0.42
   1   1   4    3.00    0.42
  -2  -1  -4   61.06    4.55
  -2  -1  -4   64.61    5.03
  -2  -1  -4   55.42    5.34
   2   1   4   60.42    5.01
   2   1   4   57.72    4.55
   2   1   4   59.62    5.33
   2   1   4   63.78    4.64
  -3  -1  -4   19.83    2.07
  -3  -1  -4   19.72    1.93
  -3  -1  -4   19.85    1.70
   3   1   4   20.43    1.71
   3   1   4   19.26    1.72
   3   1   4   21.93    2.04
   3   1   4   22.80    1.96
   3   1   4   19.88    1.79
  -4  -1  -4    4.10    0.61
  -4  -1  -4    2.08    0.65
   4   1   4    4.40    0.66
   4   1   4    3.50    0.57
   4   1   4    2.66    0.68
   4   1   4    3.69    0.60
   5   1   4   62.08    4.94
   5   1   4   64.40    4.80
   5   1   4   59.35    5.17
   5   1   4   56.27    4.68
  -6  -1  -4    1.19    0.68
   6   1   4    1.57    0.50
   6   1   4    2.06    0.61
   6   1   4    1.42    0.47
   6   1   4    1.68    0.69
  -7  -1  -4    6.94    1.34
   7   1   4    9.14    1.11
   7   1   4    8.43    1.28
   7   1   4    4.93    1.05
   7   1   4    8.73    1.15
   8   1   4   -0.75    0.47
   8   1   4    0.25    0.51
   8   1   4    2.00    0.68
   8   1   4    0.33    0.45
   9   1   4    1.22    0.83
   9   1   4    1.96    0.74
   9   1   4    1.14    0.67
  11  -2  -4   13.96    1.63
  11  -2  -4    8.68    1.12
  11  -2  -4    9.94    1.26
  10  -2  -4    1.99    0.70
  10  -2  -4    2.25    0.54
  10  -2  -4    2.56    0.50
  10  -2  -4    2.42    0.67
   9  -2  -4   -0.07    0.41
   9  -2  -4    0.27    0.28
   9  -2  -4   -0.05    0.21
   9  -2  -4   -0.26    0.33
  -9   2   4   -0.46    0.47
   8  -2  -4    3.65    0.74
   8  -2  -4    3.88    0.67
   8  -2  -4    2.99    0.48
   8  -2  -4    3.23    0.49
  -8   2   4    4.04    0.86
   7  -2  -4   -0.06    0.26
   7  -2  -4   -0.13    0.36
   7  -2  -4    0.49    0.36
  -7   2   4    0.19    0.35
   6  -2  -4   71.58    6.30
   6  -2  -4   71.60    5.71
  -6   2   4   72.74    6.35
   5  -2  -4   27.17    2.33
   5  -2  -4   30.11    2.40
   5  -2  -4   30.07    2.54
  -5   2   4   26.91    2.56
  -5   2   4   25.18    2.55
   4  -2  -4   22.39    1.95
   4  -2  -4   22.63    2.11
   4  -2  -4   26.85    2.04
  -4   2   4   24.28    2.20
  -4   2   4   25.05    2.14
  -4   2   4   21.67    1.93
   3  -2  -4  109.78    8.36
   3  -2  -4  116.90    8.40
   3  -2  -4  118.99    8.76
   3  -2  -4  119.84    9.19
  -3   2   4   97.76    9.51
  -3   2   4  123.50    8.75
   2  -2  -4    4.27    0.58
   2  -2  -4    5.38    0.51
   2  -2  -4    3.27    0.44
   2  -2  -4    4.04    0.43
  -2   2   4    4.46    0.41
  -2   2   4    4.71    0.52
  -2   2   4    5.86    0.73
   1  -2  -4    0.12    0.15
   1  -2  -4   -0.36    0.21
   1  -2  -4    0.09    0.17
   1  -2  -4   -0.22    0.12
   1  -2  -4    0.28    0.24
   1  -2  -4   -0.06    0.14
  -1   2   4    0.26    0.13
  -1   2   4    0.06    0.12
  -1   2   4   -0.02    0.19
   0  -2  -4    1.53    0.31
   0  -2  -4    0.76    0.32
   0  -2  -4    1.57    0.32
   0  -2  -4    1.32    0.31
   0  -2  -4    1.02    0.30
   0   2   4    1.45    0.29
   0   2   4    1.06    0.33
   0   2   4    1.20    0.34
   0   2   4    1.27    0.26
  -1  -2  -4    3.93    0.54
  -1  -2  -4    5.75    0.61
  -1  -2  -4    5.09    0.71
  -1  -2  -4    4.31    0.54
  -1  -2  -4    3.73    0.61
   1   2   4    3.16    0.47
   1   2   4    3.58    0.62
   1   2   4    3.32    0.47
   1   2   4    3.65    0.52
   1   2   4    4.61    0.66
  -2  -2  -4  142.50   10.26
  -2  -2  -4  123.58   12.00
  -2  -2  -4  154.98   11.29
   2   2   4  142.42   10.66
   2   2   4  150.85   10.46
   2   2   4  129.63   10.24
   2   2   4  129.84   12.02
  -3  -2  -4   13.92    1.30
  -3  -2  -4   16.19    1.60
   3   2   4   13.98    1.32
   3   2   4   13.92    1.29
   3   2   4   12.26    1.43
   3   2   4   14.14    1.33
  -4  -2  -4    2.06    0.44
  -4  -2  -4    1.10    0.55
   4   2   4    1.25    0.45
   4   2   4    1.58    0.43
   4   2   4    1.27    0.50
   4   2   4    0.43    0.36
  -5  -2  -4    1.61    0.68
   5   2   4    1.83    0.55
   5   2   4    1.29    0.45
   5   2   4    1.49    0.44
   5   2   4    1.46    0.63
  -6  -2  -4    0.51    0.56
   6   2   4    0.66    0.54
   6   2   4    0.55    0.45
   6   2   4   -0.21    0.36
   6   2   4    0.32    0.38
  -7  -2  -4   57.74    5.28
   7   2   4   45.10    4.32
   7   2   4   56.17    4.81
   7   2   4   54.04    4.57
   7   2   4   52.55    4.30
   8   2   4    1.33    0.58
   8   2   4    0.89    0.71
   8   2   4    2.49    0.72
   9   2   4    3.88    0.99
   9   2   4    6.36    1.21
   9   2   4    5.96    1.28
  11  -3  -4    0.32    0.34
  11  -3  -4   -0.20    0.29
  10  -3  -4    1.69    0.44
  10  -3  -4    2.16    0.76
   9  -3  -4   24.58    2.30
  -9   3   4   22.76    2.51
   8  -3  -4    0.28    0.41
  -8   3   4   -0.07    0.44
   7  -3  -4   11.56    1.27
   7  -3  -4   11.85    1.22
  -7   3   4   10.75    1.31
   6  -3  -4   29.89    2.29
   6  -3  -4   26.24    2.46
  -6   3   4   23.83    2.54
  -6   3   4   25.97    2.51
   5  -3  -4   14.43    1.42
   5  -3  -4   17.61    1.57
  -5   3   4   17.65    1.72
   4  -3  -4   17.73    1.74
   4  -3  -4   20.41    1.65
   4  -3  -4   19.64    1.57
  -4   3   4   18.44    1.86
   3  -3  -4   33.47    3.00
   3  -3  -4   37.61    2.82
   3  -3  -4   35.75    2.72
   3  -3  -4   35.47    2.75
   3  -3  -4   38.67    3.03
   3  -3  -4   37.77    3.19
  -3   3   4   35.79    3.26
   2  -3  -4    0.72    0.30
   2  -3  -4    2.20    0.39
   2  -3  -4    1.12    0.30
   2  -3  -4    1.81    0.33
   2  -3  -4    1.80    0.28
   2  -3  -4    1.47    0.26
  -2   3   4    2.01    0.53
  -2   3   4    1.83    0.32
   1  -3  -4  168.87   14.38
   1  -3  -4  176.62   13.45
   1  -3  -4  163.29   13.45
   1  -3  -4  169.58   12.30
   1  -3  -4  145.44   12.51
   1  -3  -4  183.88   12.35
  -1   3   4  179.33   12.27
  -1   3   4  158.66   13.42
   0  -3  -4    3.46    0.46
   0  -3  -4    3.50    0.49
   0  -3  -4    2.77    0.55
   0  -3  -4    3.18    0.53
   0  -3  -4    3.51    0.51
   0   3   4    3.02    0.53
   0   3   4    3.72    0.62
   0   3   4    3.95    0.49
   0   3   4    3.25    0.46
   0   3   4    2.94    0.39
  -1  -3  -4   14.95    1.30
  -1  -3  -4   14.44    1.28
  -1  -3  -4   15.37    1.51
  -1  -3  -4   16.17    1.51
   1   3   4   14.67    1.27
   1   3   4   11.91    1.24
   1   3   4   13.49    1.50
   1   3   4   15.62    1.29
   1   3   4   13.56    1.42
  -2  -3  -4   14.53    1.24
  -2  -3  -4   10.87    1.39
   2   3   4   12.46    1.20
   2   3   4   12.09    1.36
   2   3   4   13.64    1.21
   2   3   4   12.42    1.19
  -3  -3  -4    2.49    0.67
  -3  -3  -4    2.45    0.52
   3   3   4    4.12    0.62
   3   3   4    1.97    0.58
   3   3   4    2.47    0.54
   3   3   4    2.41    0.49
  -4  -3  -4   13.57    1.29
  -4  -3  -4   12.11    1.66
   4   3   4   10.86    1.30
   4   3   4   13.20    1.34
   4   3   4   11.32    1.36
   4   3   4   11.95    1.57
  -5  -3  -4    1.11    0.60
   5   3   4    1.21    0.48
   5   3   4    0.94    0.52
   5   3   4    1.41    0.48
   5   3   4    0.18    0.53
  -6  -3  -4   -0.30    0.61
   6   3   4    0.52    0.43
   6   3   4    1.05    0.56
   6   3   4    0.11    0.54
   6   3   4   -0.23    0.34
   7   3   4   15.23    2.01
   7   3   4   10.91    1.63
   7   3   4   11.56    1.54
   7   3   4   13.82    1.64
   8   3   4    1.27    0.77
   8   3   4    1.98    0.76
   8   3   4    1.46    0.89
  10  -4  -4    0.24    0.49
   9  -4  -4   57.81    4.81
   8  -4  -4    0.69    0.39
   7  -4  -4    6.12    0.84
   7  -4  -4    6.11    0.93
  -7   4   4    7.54    1.21
   6  -4  -4    1.08    0.38
   6  -4  -4    1.49    0.36
  -6   4   4    1.78    0.63
   5  -4  -4   26.36    2.11
   5  -4  -4   24.48    2.36
  -5   4   4   26.79    2.50
   4  -4  -4   66.31    5.64
   4  -4  -4   76.96    5.68
   4  -4  -4   65.49    6.08
   4  -4  -4   68.86    5.38
  -4   4   4   74.68    6.05
   3  -4  -4    0.34    0.17
   3  -4  -4    0.26    0.21
   3  -4  -4    0.15    0.20
   3  -4  -4    0.05    0.16
  -3   4   4   -0.07    0.31
   2  -4  -4    6.86    0.79
   2  -4  -4    5.95    0.61
   2  -4  -4    6.05    0.77
   2  -4  -4    5.88    0.74
   2  -4  -4    5.91    0.68
   2  -4  -4    5.06    0.61
  -2   4   4    6.84    0.98
  -2   4   4    5.97    0.71
   1  -4  -4    1.08    0.34
   1  -4  -4    0.52    0.29
   1  -4  -4    0.72    0.26
   1  -4  -4    0.80    0.27
   1  -4  -4    0.74    0.25
  -1   4   4    0.71    0.32
  -1   4   4    1.16    0.26
  -1   4   4    1.82    0.53
   0  -4  -4    0.30    0.33
   0  -4  -4   -0.24    0.21
   0  -4  -4   -0.11    0.21
   0  -4  -4   -0.08    0.26
   0  -4  -4    0.14    0.24
   0   4   4    0.04    0.15
   0   4   4   -0.22    0.17
   0   4   4   -0.44    0.22
  -1  -4  -4   55.13    5.07
  -1  -4  -4   52.31    4.34
   1   4   4   53.81    4.77
   1   4   4   62.21    4.42
   1   4   4   54.97    4.32
   1   4   4   56.62    4.43
   1   4   4   60.54    5.16
  -2  -4  -4   14.74    1.82
   2   4   4   16.24    1.55
   2   4   4   19.70    1.83
   2   4   4   18.24    1.58
   2   4   4   19.14    1.62
  -3  -4  -4    0.06    0.42
  -3  -4  -4   -0.15    0.31
   3   4   4   -0.14    0.28
   3   4   4    0.47    0.44
   3   4   4   -0.01    0.31
   3   4   4    0.13    0.34
  -4  -4  -4   80.66    6.85
   4   4   4   79.77    5.79
   4   4   4   78.94    6.42
   4   4   4   59.15    5.79
   4   4   4   76.12    5.98
  -5  -4  -4   -0.06    0.60
   5   4   4    0.54    0.44
   5   4   4    0.18    0.45
   5   4   4    0.04    0.40
   5   4   4    0.02    0.55
   6   4   4   -0.28    0.57
   6   4   4    0.77    0.49
   6   4   4   -0.15    0.44
   6   4   4    0.13    0.42
   7   4   4   -0.47    0.49
   7   4   4    0.60    0.63
   8   4   4    1.32    0.98
  11  -5  -4   -0.16    0.60
  10  -5  -4    0.48    0.53
   9  -5  -4    4.84    0.86
   8  -5  -4    0.06    0.36
   7  -5  -4   68.64    5.23
   7  -5  -4   64.96    5.82
  -7   5   4   61.95    5.86
   6  -5  -4   13.74    1.22
   6  -5  -4   13.10    1.39
  -6   5   4   11.60    1.67
   5  -5  -4    1.33    0.27
   5  -5  -4    0.96    0.37
  -5   5   4    1.76    0.66
   4  -5  -4   51.58    4.01
   4  -5  -4   49.95    3.62
   4  -5  -4   44.97    3.96
   4  -5  -4   45.75    4.29
   4  -5  -4   50.82    3.65
  -4   5   4   46.03    4.30
   3  -5  -4    2.79    0.51
   3  -5  -4    2.90    0.41
   3  -5  -4    3.02    0.51
   3  -5  -4    3.26    0.43
   3  -5  -4    3.77    0.49
  -3   5   4    2.79    0.72
   2  -5  -4    0.17    0.29
   2  -5  -4    0.19    0.32
   2  -5  -4   -0.05    0.19
   2  -5  -4    0.62    0.25
   2  -5  -4    0.27    0.22
  -2   5   4   -0.04    0.24
  -2   5   4    0.27    0.42
   1  -5  -4    2.77    0.48
   1  -5  -4    2.60    0.46
   1  -5  -4    3.08    0.51
   1  -5  -4    1.66    0.50
  -1   5   4    2.98    0.46
  -1   5   4    1.91    0.62
  -1   5   4    2.43    0.53
   0  -5  -4   26.78    2.22
   0  -5  -4   24.00    2.58
   0  -5  -4   25.36    2.19
   0  -5  -4   26.47    2.23
   0   5   4   27.79    2.45
   0   5   4   27.17    2.17
   0   5   4   27.49    2.18
   0   5   4   28.64    2.64
  -1  -5  -4   31.57    2.64
  -1  -5  -4   33.03    3.07
   1   5   4   33.21    2.93
   1   5   4   29.92    2.57
   1   5   4   31.80    2.62
  -2  -5  -4   -0.45    0.41
  -2  -5  -4   -0.41    0.27
   2   5   4   -0.59    0.29
   2   5   4   -0.13    0.25
   2   5   4   -0.29    0.34
  -3  -5  -4    0.03    0.57
  -3  -5  -4   -0.26    0.35
   3   5   4    0.28    0.50
   3   5   4    0.20    0.38
   3   5   4    0.24    0.38
   3   5   4    0.17    0.34
  -4  -5  -4    0.96    0.72
   4   5   4    1.56    0.56
   4   5   4    0.73    0.66
   4   5   4    2.14    0.66
  -5  -5  -4    2.24    0.86
   5   5   4    1.64    0.73
   5   5   4    2.45    0.71
   6   5   4   11.23    1.78
   6   5   4   13.65    1.77
   7   5   4    0.18    0.78
   9  -6  -4    4.58    0.83
   8  -6  -4    4.62    0.75
  -8   6   4    4.29    1.12
   7  -6  -4   21.61    1.91
  -7   6   4   21.82    2.43
   6  -6  -4    1.21    0.43
   6  -6  -4    1.47    0.34
  -6   6   4    0.27    0.53
   5  -6  -4    5.62    0.55
   5  -6  -4    4.30    0.76
  -5   6   4    8.14    1.27
   4  -6  -4   30.39    2.50
   4  -6  -4   33.55    2.80
   4  -6  -4   33.90    2.55
  -4   6   4   31.73    3.10
   3  -6  -4    0.72    0.28
   3  -6  -4    0.38    0.25
   3  -6  -4    0.52    0.36
   3  -6  -4    0.60    0.28
  -3   6   4    0.88    0.55
  -3   6   4    0.86    0.30
   2  -6  -4  124.25    8.72
   2  -6  -4  122.44    8.88
   2  -6  -4  120.55   10.26
   2  -6  -4  119.62    8.74
  -2   6   4  115.80   10.00
  -2   6   4  102.38    9.48
   1  -6  -4    0.96    0.37
   1  -6  -4    1.21    0.50
   1  -6  -4    1.36    0.41
   1  -6  -4    1.20    0.42
  -1   6   4    0.99    0.43
  -1   6   4    0.89    0.59
   0  -6  -4    6.56    1.07
   0  -6  -4    7.55    0.98
   0   6   4    6.91    0.83
   0   6   4    5.59    1.09
   0   6   4    7.70    1.13
  -1  -6  -4    2.46    0.74
  -1  -6  -4    3.02    0.66
   1   6   4    3.98    0.61
   1   6   4    3.48    0.89
   1   6   4    1.64    0.65
  -2  -6  -4    3.08    0.66
  -2  -6  -4    2.86    0.82
   2   6   4    3.36    0.93
   2   6   4    1.86    0.54
   2   6   4    3.02    0.84
  -3  -6  -4   16.72    2.24
  -3  -6  -4   18.14    1.77
   3   6   4   17.39    2.13
   3   6   4   17.06    1.76
  -4  -6  -4    3.17    1.00
   4   6   4    3.03    0.74
   4   6   4    2.02    0.83
   5   6   4    0.39    0.56
   5   6   4    0.30    0.69
   6   6   4    0.56    0.94
  -8   7   4    0.66    0.74
  -7   7   4    3.77    1.02
  -6   7   4    8.53    1.43
   5  -7  -4   25.96    2.55
   5  -7  -4   27.28    2.09
   5  -7  -4   25.28    2.06
  -5   7   4   23.67    2.69
   4  -7  -4    0.74    0.31
   4  -7  -4    1.21    0.34
  -4   7   4    1.40    0.64
   3  -7  -4    0.12    0.29
   3  -7  -4    0.84    0.52
  -3   7   4    0.31    0.56
   2  -7  -4    3.07    0.76
   2  -7  -4    3.45    0.64
  -2   7   4    3.77    0.95
  -2   7   4    3.59    0.69
   1  -7  -4   -0.08    0.43
   1  -7  -4    0.01    0.34
  -1   7   4   -0.34    0.50
  -1   7   4    0.28    0.36
   0  -7  -4   10.75    1.27
   0  -7  -4    9.69    1.45
   0   7   4   10.26    1.39
   0   7   4    8.94    1.13
   0   7   4   10.52    1.57
  -1  -7  -4    9.27    1.43
  -1  -7  -4    9.66    1.21
   1   7   4    6.65    1.07
   1   7   4    9.93    1.55
   1   7   4   10.09    1.46
  -2  -7  -4    0.68    0.64
  -2  -7  -4    1.26    0.59
   2   7   4    1.00    0.76
   2   7   4    1.12    0.66
  -3  -7  -4   53.27    5.45
   3   7   4   57.93    5.21
   3   7   4   60.99    5.35
   4   7   4    3.16    1.05
   4   7   4    2.72    1.21
   5   7   4    0.81    1.19
   5   7   4    2.04    0.86
   6   7   4   -1.05    0.77
  -9   8   4    0.09    0.83
  -8   8   4   33.41    3.60
  -7   8   4   13.83    2.13
   6  -8  -4    1.34    0.37
  -6   8   4    1.36    0.78
   5  -8  -4    8.17    0.91
  -5   8   4    6.71    1.41
   4  -8  -4    5.35    0.73
  -4   8   4    3.43    1.00
   3  -8  -4    4.67    0.76
   3  -8  -4    4.23    0.96
  -3   8   4    3.32    0.98
   2  -8  -4    9.82    1.49
   2  -8  -4   13.20    1.41
  -2   8   4   11.93    1.80
   1  -8  -4    7.03    1.01
   1  -8  -4    5.77    1.09
  -1   8   4    7.20    1.39
   0  -8  -4   24.28    2.12
   0  -8  -4   20.99    2.45
   0   8   4   21.61    2.30
   0   8   4   21.57    2.52
  -1  -8  -4    1.11    0.59
  -1  -8  -4    0.95    0.78
   1   8   4    1.34    0.65
   1   8   4    2.09    1.00
  -2  -8  -4    3.23    0.93
  -2  -8  -4    2.10    0.73
   2   8   4    2.84    1.08
   2   8   4    2.42    0.91
   3   8   4    1.82    0.88
   3   8   4    2.45    1.14
   4   8   4    0.07    0.76
   4   8   4   -1.16    0.91
   5   8   4   16.84    2.45
  -9   9   4    0.18    0.95
  -8   9   4   11.52    2.10
  -7   9   4    0.54    0.84
   6  -9  -4    1.91    0.48
  -6   9   4    2.56    1.00
   5  -9  -4   17.85    1.68
  -5   9   4   18.90    2.51
   4  -9  -4    6.18    1.14
   4  -9  -4    5.88    0.92
  -4   9   4    5.37    1.33
   3  -9  -4   44.53    3.33
   3  -9  -4   33.20    3.81
  -3   9   4   42.64    3.97
   2  -9  -4   12.03    1.45
   2  -9  -4   11.44    1.64
  -2   9   4   10.83    1.79
   1  -9  -4    2.41    0.86
   1  -9  -4    2.93    0.73
  -1   9   4    2.95    1.09
   0  -9  -4   -0.89    0.45
   0   9   4    0.66    0.90
  -1  -9  -4    7.21    1.24
  -1  -9  -4    6.42    1.41
   1   9   4    7.49    1.61
   2   9   4    3.62    1.19
   2   9   4    2.87    1.19
   3   9   4    1.13    1.11
   3   9   4   -0.53    0.77
  -9  10   4   -0.50    0.93
  -8  10   4    3.16    1.33
   7 -10  -4    1.62    0.55
  -7  10   4    0.86    0.98
   6 -10  -4   10.24    1.20
  -6  10   4    8.06    1.73
   5 -10  -4    0.72    0.45
  -5  10   4    0.26    0.89
   4 -10  -4    0.59    0.53
  -4  10   4    0.45    0.81
   3 -10  -4    0.71    0.55
   3 -10  -4   -0.36    0.70
  -3  10   4   -0.62    0.74
   2 -10  -4   -0.31    0.51
   2 -10  -4   -0.21    0.73
  -2  10   4    0.40    0.89
   1 -10  -4    4.32    1.17
   1 -10  -4    4.27    0.94
  -1  10   4    3.90    1.24
   0 -10  -4   23.10    2.40
   0  10   4   25.07    3.08
  -1 -10  -4    0.73    0.72
   1  10   4    1.49    1.04
   2  10   4    7.01    1.64
   8 -11  -4   15.86    1.47
  -8  11   4    8.86    2.18
   7 -11  -4    0.15    0.46
  -7  11   4   -1.06    0.97
   6 -11  -4    5.42    0.96
  -6  11   4    7.62    1.78
   5 -11  -4    0.18    0.57
  -5  11   4    2.14    1.16
   4 -11  -4    0.40    0.59
  -4  11   4    1.25    1.00
   3 -11  -4    4.19    0.94
  -3  11   4    4.40    1.43
   2 -11  -4    8.22    1.36
  -2  11   4    8.03    1.74
   1 -11  -4   10.98    1.68
  -1  11   4   13.80    2.20
   0 -11  -4    1.37    0.84
   0  11   4   -0.69    1.01
   1  11   4    1.36    1.27
   6 -12  -4   13.08    1.67
  -6  12   4   14.60    2.43
   5 -12  -4    0.05    0.62
  -5  12   4    0.50    1.02
   4 -12  -4   17.68    2.19
  -4  12   4   20.92    2.96
   3 -12  -4    3.89    0.97
  -3  12   4    3.51    1.27
   2 -12  -4   -0.93    0.69
  -2  12   4    0.05    1.12
   1 -13   5    6.51    1.40
   2 -13   5    0.98    0.83
   3 -13   5    1.02    0.87
   4 -13   5    1.78    0.81
   5 -13   5   -0.14    0.64
   6 -13   5    3.36    1.00
   0 -12   5    1.77    0.85
   1 -12   5    4.14    1.08
   2 -12   5    0.52    0.66
   3 -12   5    0.17    0.61
   4 -12   5    7.06    1.28
   5 -12   5    2.10    0.76
   6 -12   5    4.94    1.02
   7 -12   5    0.16    0.63
   8 -12   5   -0.37    0.57
   3  11  -5    8.75    2.06
   2  11  -5    3.09    1.17
   1  11  -5    2.74    0.95
   0 -11   5    2.46    0.87
   1 -11   5   17.80    2.15
   2 -11   5    2.33    0.77
   3 -11   5   47.35    4.01
   4 -11   5    1.13    0.63
   5 -11   5    0.59    0.48
   6 -11   5    0.15    0.57
   7 -11   5    1.07    0.58
   8 -11   5    2.27    0.75
   9 -11   5    0.75    0.64
   5  10  -5    7.67    1.80
   4  10  -5   -0.72    0.79
   3  10  -5   -0.61    0.90
   2  10  -5    1.29    0.88
   1  10  -5    5.40    1.28
  -1 -10   5    3.36    1.33
  -1 -10   5    5.00    1.04
   0  10  -5    3.93    1.16
   0 -10   5    6.54    1.11
  -1  10  -5    0.66    0.61
   1 -10   5    0.30    0.50
   2 -10   5    9.01    1.27
   3 -10   5    0.47    0.51
   4 -10   5    0.53    0.51
   5 -10   5    6.26    1.01
   6 -10   5   13.67    1.63
   7 -10   5    0.33    0.51
   8 -10   5    9.43    1.27
   9 -10   5   -0.12    0.51
   6   9  -5    0.88    0.80
   5   9  -5    5.64    1.44
   4   9  -5    0.82    0.84
   3   9  -5   14.29    2.01
   3   9  -5   13.39    2.08
  -3  -9   5   10.57    2.05
   2   9  -5   23.49    2.78
  -2  -9   5   17.62    2.61
   1   9  -5    0.62    0.70
  -1  -9   5    0.60    0.76
  -1  -9   5    0.00    0.48
   0   9  -5    5.85    1.34
   0  -9   5    6.26    1.03
  -1   9  -5    1.45    0.66
   1  -9   5    0.88    0.56
  -2   9  -5    0.41    0.53
   2  -9   5    0.62    0.45
   3  -9   5    8.21    1.18
   4  -9   5   12.88    1.52
   5  -9   5   38.78    3.25
   6  -9   5    0.29    0.41
   7  -9   5    1.70    0.59
   8  -9   5    8.79    1.19
   9  -9   5    0.17    0.53
  10  -9   5    6.49    1.06
  10  -9   5    5.92    1.12
   6   8  -5    2.24    1.14
   5   8  -5   11.24    2.13
   4   8  -5    6.77    1.38
   4   8  -5    9.26    1.57
  -4  -8   5   10.89    1.80
   3   8  -5   12.85    1.92
   3   8  -5    8.75    1.49
  -3  -8   5    6.41    1.46
   2   8  -5    6.61    1.37
   2   8  -5    8.51    1.55
  -2  -8   5    9.14    1.24
  -2  -8   5    9.65    1.68
   1   8  -5    1.84    0.79
  -1  -8   5    2.95    0.69
   0   8  -5   41.24    4.16
   0  -8   5   50.64    3.80
  -1   8  -5    0.86    0.54
   1  -8   5    0.55    0.43
  -2   8  -5   35.59    3.39
   2  -8   5   38.41    3.10
  -3   8  -5   14.86    1.72
   3  -8   5   12.48    1.48
   4  -8   5    0.67    0.45
   5  -8   5    0.46    0.45
   6  -8   5    2.88    0.68
   7  -8   5   11.25    1.33
   8  -8   5    7.17    1.02
   9  -8   5    2.62    0.75
   9  -8   5    1.57    0.62
  10  -8   5    9.01    1.23
  10  -8   5    7.58    1.25
   7   7  -5   -0.38    0.61
   7   7  -5   -0.68    0.67
   6   7  -5   18.78    2.03
   6   7  -5   11.31    2.05
   5   7  -5    3.48    0.82
   5   7  -5    3.00    1.06
   5   7  -5    1.69    0.92
  -5  -7   5    4.60    0.99
   4   7  -5    1.90    0.76
   4   7  -5    2.50    0.73
   4   7  -5    0.96    0.82
  -4  -7   5    2.43    0.98
   3   7  -5    7.13    1.30
   3   7  -5    8.98    1.47
   3   7  -5    7.09    1.06
  -3  -7   5    5.13    0.95
  -3  -7   5    4.41    1.09
   2   7  -5   34.12    2.86
   2   7  -5   28.52    3.09
   2   7  -5   30.59    3.18
  -2  -7   5   35.38    3.51
  -2  -7   5   37.03    2.88
   1   7  -5   20.38    1.90
   1   7  -5   19.87    2.20
  -1  -7   5   22.19    1.95
   0   7  -5    7.32    1.03
   0   7  -5    8.51    1.29
   0  -7   5    8.03    1.08
  -1   7  -5    1.31    0.42
  -1   7  -5    1.79    0.57
   1  -7   5    1.60    0.49
  -2   7  -5    8.59    0.98
  -2   7  -5    8.02    1.22
   2  -7   5    7.73    1.04
   2  -7   5    7.66    1.05
  -3   7  -5   11.47    1.35
   3  -7   5    9.29    1.15
   3  -7   5    8.10    1.04
  -4   7  -5    9.22    1.13
   4  -7   5    6.87    1.01
   5  -7   5   18.08    1.68
   6  -7   5    2.61    0.61
   7  -7   5   31.19    2.64
   8  -7   5    0.55    0.45
   9  -7   5    0.00    0.47
   9  -7   5   -0.14    0.42
  10  -7   5    3.57    0.80
  10  -7   5    6.00    1.05
   8   6  -5    0.62    0.78
   8   6  -5    1.31    0.63
   7   6  -5    3.59    0.85
   7   6  -5    0.49    0.76
   6   6  -5   25.94    2.45
   6   6  -5   29.69    2.92
   6   6  -5   22.38    2.83
  -6  -6   5   24.94    2.90
   5   6  -5    2.89    0.80
   5   6  -5    2.59    0.84
   5   6  -5    1.97    0.88
  -5  -6   5    2.51    0.71
   4   6  -5   16.25    1.97
   4   6  -5   11.57    1.53
   4   6  -5   14.68    2.00
  -4  -6   5   11.53    1.80
   3   6  -5   43.15    4.02
   3   6  -5   39.48    4.08
   3   6  -5   48.23    3.74
  -3  -6   5   45.47    3.68
  -3  -6   5   49.60    4.49
   2   6  -5    7.06    1.15
   2   6  -5    5.55    0.88
   2   6  -5    6.05    1.10
  -2  -6   5    4.49    1.08
  -2  -6   5    5.39    0.84
   1   6  -5   21.23    2.29
   1   6  -5   24.55    2.03
  -1  -6   5   23.01    2.04
   0   6  -5    0.02    0.25
   0   6  -5    0.37    0.42
   0  -6   5   -0.16    0.27
  -1   6  -5    3.77    0.75
  -1   6  -5    2.98    0.55
   1  -6   5    3.71    0.69
   1  -6   5    3.38    0.63
  -2   6  -5   81.73    7.12
  -2   6  -5  102.33    7.94
   2  -6   5   96.57    7.20
   2  -6   5  104.57    7.25
  -3   6  -5   29.62    2.28
  -3   6  -5   28.92    2.61
   3  -6   5   28.11    2.37
   3  -6   5   27.81    2.40
  -4   6  -5    3.29    0.63
   4  -6   5    3.38    0.62
   4  -6   5    3.28    0.57
  -5   6  -5    0.21    0.26
   5  -6   5    0.01    0.29
   5  -6   5    0.19    0.25
   6  -6   5    0.82    0.39
   7  -6   5   18.03    1.67
   8  -6   5    0.02    0.45
   8  -6   5    0.20    0.41
   9  -6   5   23.07    2.33
  10  -6   5    5.68    1.10
  10  -6   5    6.39    1.00
  11  -6   5   -0.27    0.58
   9   5  -5    2.21    0.90
   8   5  -5    0.37    0.60
   8   5  -5    0.88    0.71
   7   5  -5    1.10    0.60
   7   5  -5    2.29    0.90
   7   5  -5    2.06    0.92
  -7  -5   5    1.91    0.91
   6   5  -5   10.31    1.72
   6   5  -5   12.57    1.58
   6   5  -5   13.15    1.80
  -6  -5   5   12.55    1.81
   5   5  -5    2.97    0.88
   5   5  -5    5.34    1.07
   5   5  -5    3.83    0.74
  -5  -5   5    5.00    1.06
   4   5  -5    3.03    0.83
   4   5  -5    1.39    0.63
   4   5  -5    1.25    0.49
  -4  -5   5    3.76    0.94
   3   5  -5   -0.23    0.26
   3   5  -5    0.55    0.49
   3   5  -5    0.73    0.52
  -3  -5   5    0.54    0.35
  -3  -5   5    0.56    0.54
   2   5  -5    0.88    0.40
   2   5  -5    2.17    0.67
   2   5  -5    1.29    0.61
  -2  -5   5    1.54    0.68
  -2  -5   5    0.61    0.36
   1   5  -5   57.55    4.18
   1   5  -5   50.60    3.82
   1   5  -5   45.04    4.23
  -1  -5   5   52.25    3.84
  -1  -5   5   42.55    4.09
   0   5  -5   17.04    1.91
   0   5  -5   19.22    1.71
   0  -5   5   22.02    1.75
  -1   5  -5   59.33    4.87
  -1   5  -5   64.65    5.41
   1  -5   5   65.49    4.91
   1  -5   5   66.81    4.93
  -2   5  -5   18.56    2.05
   2  -5   5   23.29    1.91
   2  -5   5   23.99    1.88
  -3   5  -5    2.23    0.53
  -3   5  -5    2.47    0.41
   3  -5   5    3.34    0.55
   3  -5   5    2.21    0.44
  -4   5  -5    0.70    0.29
  -4   5  -5    0.35    0.21
   4  -5   5    0.99    0.33
   4  -5   5    0.66    0.32
  -5   5  -5    5.35    0.75
   5  -5   5    5.03    0.76
   5  -5   5    4.89    0.70
  -6   5  -5    1.11    0.60
   6  -5   5    1.06    0.40
  -7   5  -5   11.79    1.80
   7  -5   5   10.82    1.46
   7  -5   5   12.85    1.38
  -8   5  -5   16.42    2.41
   8  -5   5   19.36    1.94
   9  -5   5    1.03    0.63
   9  -5   5    1.28    0.53
  10  -5   5   -0.34    0.45
  10  -5   5    0.31    0.55
   9   4  -5   42.43    4.41
   9   4  -5   48.38    3.96
   8   4  -5    3.09    1.06
   8   4  -5    5.66    1.02
  -8  -4   5    5.57    1.24
   7   4  -5   14.91    1.73
   7   4  -5   14.70    1.98
   7   4  -5   21.27    2.44
  -7  -4   5   13.87    2.08
   6   4  -5    0.45    0.39
   6   4  -5    0.89    0.51
   6   4  -5    0.58    0.67
  -6  -4   5    0.14    0.59
   5   4  -5    4.57    0.81
   5   4  -5    5.97    1.03
   5   4  -5    3.68    0.89
  -5  -4   5    5.45    1.04
   4   4  -5   57.02    5.61
   4   4  -5   70.35    5.93
   4   4  -5   77.97    5.39
  -4  -4   5   70.75    5.30
  -4  -4   5   68.69    6.26
   3   4  -5   -0.74    0.34
   3   4  -5   -0.50    0.26
   3   4  -5   -0.19    0.23
  -3  -4   5    0.02    0.27
  -3  -4   5    0.27    0.52
   2   4  -5   12.16    1.40
   2   4  -5   13.60    1.16
   2   4  -5    6.60    1.24
  -2  -4   5   10.53    1.38
  -2  -4   5   12.30    1.12
   1   4  -5    4.27    0.81
   1   4  -5    5.56    0.74
   1   4  -5    5.77    0.94
  -1  -4   5    6.68    0.70
  -1  -4   5    6.77    0.94
  -1  -4   5    6.71    0.82
   0   4  -5   44.05    3.27
   0   4  -5   42.64    3.62
   0  -4   5   42.36    3.48
   0  -4   5   36.98    3.24
  -1   4  -5    0.92    0.46
  -1   4  -5    0.71    0.29
   1  -4   5    0.80    0.29
   1  -4   5    0.80    0.29
  -2   4  -5   -0.08    0.25
  -2   4  -5    0.19    0.19
   2  -4   5    0.02    0.18
   2  -4   5    1.06    0.39
   2  -4   5    0.16    0.25
  -3   4  -5   23.74    2.20
  -3   4  -5   24.19    1.94
   3  -4   5   24.32    2.00
   3  -4   5   24.84    2.01
  -4   4  -5  121.22    9.24
  -4   4  -5  123.51    8.40
   4  -4   5   96.09    8.44
   4  -4   5  114.79    8.49
  -5   4  -5    0.68    0.52
  -5   4  -5    1.48    0.39
   5  -4   5    0.67    0.34
   5  -4   5    1.06    0.32
  -6   4  -5   27.98    2.87
   6  -4   5   27.89    2.53
   6  -4   5   25.37    2.27
  -7   4  -5    3.79    0.95
   7  -4   5    4.41    0.88
  -8   4  -5    2.37    0.96
   8  -4   5    3.17    0.80
   8  -4   5    3.98    0.71
   9  -4   5   10.17    1.33
   9  -4   5   10.45    1.50
  10  -4   5    2.50    0.67
  10  -4   5    2.19    0.68
  10  -4   5    2.20    0.69
  10   3  -5    1.63    0.72
  10   3  -5    1.34    0.84
   9   3  -5   -0.11    0.47
   9   3  -5    0.76    0.69
   8   3  -5    1.68    0.61
   8   3  -5    3.07    0.96
   8   3  -5    3.00    0.92
  -8  -3   5    1.83    0.80
   7   3  -5    4.40    1.01
   7   3  -5    3.05    0.86
   7   3  -5    6.15    0.94
  -7  -3   5    7.05    1.23
   6   3  -5    0.88    0.54
   6   3  -5    0.52    0.36
   6   3  -5    1.25    0.59
  -6  -3   5    1.30    0.61
   5   3  -5   22.22    2.32
   5   3  -5   24.91    2.28
   5   3  -5   22.53    2.04
  -5  -3   5   25.17    2.42
   4   3  -5  108.29    7.00
   4   3  -5  101.26    7.38
   4   3  -5   85.04    6.94
   4   3  -5   95.77    7.69
  -4  -3   5   74.65    8.08
   3   3  -5    2.00    0.46
   3   3  -5    2.43    0.48
   3   3  -5    1.99    0.54
   3   3  -5    2.55    0.60
  -3  -3   5    2.08    0.54
  -3  -3   5    1.45    0.39
   2   3  -5   14.63    1.22
   2   3  -5   11.95    1.32
   2   3  -5    9.36    1.42
   2   3  -5   13.06    1.20
  -2  -3   5   12.67    1.28
  -2  -3   5   13.85    1.19
   1   3  -5    7.79    0.82
   1   3  -5    5.27    0.86
   1   3  -5    6.19    0.74
  -1  -3   5    5.98    0.73
  -1  -3   5    3.85    0.80
   0   3  -5   18.93    1.59
   0   3  -5   19.65    1.80
   0  -3   5   14.14    1.67
   0  -3   5   19.91    1.59
   0  -3   5   19.87    1.58
  -1   3  -5  131.26    9.53
  -1   3  -5  128.12   10.46
   1  -3   5  132.55    9.53
   1  -3   5  124.08    9.52
   1  -3   5  128.27   11.15
  -2   3  -5   43.28    3.00
  -2   3  -5   39.58    3.33
   2  -3   5   38.29    3.56
   2  -3   5   41.09    3.04
   2  -3   5   31.53    2.98
  -3   3  -5   11.54    1.13
  -3   3  -5    9.95    1.34
   3  -3   5   10.95    1.25
   3  -3   5    9.15    0.97
   3  -3   5   11.72    1.04
  -4   3  -5    1.09    0.27
  -4   3  -5    1.75    0.54
  -4   3  -5    0.76    0.33
   4  -3   5    0.32    0.29
   4  -3   5    0.89    0.27
  -5   3  -5    0.60    0.42
  -5   3  -5    0.66    0.25
  -5   3  -5    0.60    0.33
   5  -3   5    0.25    0.24
   5  -3   5    0.84    0.42
   5  -3   5    0.85    0.35
  -6   3  -5   29.27    2.91
  -6   3  -5   27.83    2.48
   6  -3   5   24.66    2.53
  -7   3  -5   -0.05    0.59
   7  -3   5    0.47    0.47
   7  -3   5   -0.47    0.29
  -8   3  -5   14.37    2.13
   8  -3   5   14.45    1.77
   8  -3   5   14.91    1.45
   8  -3   5    9.51    1.55
   9  -3   5   29.55    2.99
   9  -3   5   31.96    2.71
   9  -3   5   30.82    2.74
  10  -3   5   -0.57    0.50
  10  -3   5   -0.23    0.44
  10  -3   5   -0.49    0.43
  10   2  -5   10.82    1.85
  10   2  -5   18.59    1.94
   9   2  -5   -0.23    0.50
   9   2  -5    0.11    0.46
  -9  -2   5   -0.19    0.63
   8   2  -5   -0.94    0.47
   8   2  -5   -0.23    0.29
   8   2  -5    0.40    0.50
  -8  -2   5   -0.59    0.54
   7   2  -5   64.23    4.97
   7   2  -5   59.63    5.10
   7   2  -5   59.33    4.58
  -7  -2   5   50.84    5.32
   6   2  -5   35.28    2.79
   6   2  -5   37.82    3.09
   6   2  -5   31.49    3.10
  -6  -2   5   31.69    3.26
   5   2  -5    0.66    0.39
   5   2  -5    1.37    0.52
   5   2  -5    0.83    0.34
   5   2  -5    0.74    0.30
  -5  -2   5    1.51    0.34
  -5  -2   5    1.64    0.50
   4   2  -5   13.32    1.17
   4   2  -5    9.93    1.12
   4   2  -5   11.59    1.35
  -4  -2   5   13.31    1.35
  -4  -2   5   12.34    1.09
   3   2  -5    9.45    1.06
   3   2  -5    7.12    0.84
   3   2  -5    6.50    1.05
   3   2  -5    8.47    0.93
  -3  -2   5    8.50    0.95
  -3  -2   5    6.64    0.89
   2   2  -5  293.32   22.33
   2   2  -5  238.93   21.32
   2   2  -5  279.05   20.40
   2   2  -5  284.01   20.40
  -2  -2   5  283.51   21.31
  -2  -2   5  296.19   20.37
   1   2  -5    7.27    1.01
   1   2  -5    8.17    0.87
   1   2  -5    9.71    0.89
  -1  -2   5    9.25    0.86
  -1  -2   5    8.98    1.05
   0   2  -5   87.61    6.40
   0   2  -5   91.57    7.06
   0  -2   5   77.89    6.37
   0  -2   5   92.72    7.45
   0  -2   5   79.25    6.38
  -1   2  -5   27.05    2.42
  -1   2  -5   24.68    2.16
   1  -2   5   28.12    2.19
   1  -2   5   27.11    2.54
   1  -2   5   30.03    2.20
  -2   2  -5    0.59    0.36
  -2   2  -5    0.64    0.25
  -2   2  -5    0.46    0.37
   2  -2   5    0.77    0.26
   2  -2   5    0.28    0.29
   2  -2   5    0.58    0.25
  -3   2  -5    4.83    0.60
  -3   2  -5    4.16    0.66
  -3   2  -5    4.72    0.81
   3  -2   5    5.19    0.83
   3  -2   5    6.04    0.70
   3  -2   5    3.61    0.57
  -4   2  -5    7.13    0.76
  -4   2  -5    9.06    1.06
  -4   2  -5    7.75    1.17
   4  -2   5    7.96    0.91
   4  -2   5    9.30    1.13
  -5   2  -5    0.69    0.34
  -5   2  -5    0.73    0.31
  -5   2  -5    0.35    0.47
   5  -2   5    0.57    0.33
   5  -2   5    0.33    0.26
   5  -2   5    0.52    0.44
  -6   2  -5   18.99    2.15
   6  -2   5   16.45    1.88
   6  -2   5   20.23    1.72
  -7   2  -5    7.21    1.35
   7  -2   5    7.18    1.12
   7  -2   5    6.85    1.10
   7  -2   5    7.31    1.01
  -8   2  -5   -0.20    0.70
   8  -2   5    1.13    0.53
   8  -2   5    0.78    0.55
   8  -2   5    0.83    0.51
   8  -2   5    1.35    0.50
   9  -2   5    1.65    0.80
   9  -2   5    2.11    0.68
   9  -2   5    2.98    0.73
  10  -2   5    0.90    0.53
  10  -2   5    0.41    0.50
  10  -2   5   -0.24    0.64
  11   1  -5   -1.03    0.58
  10   1  -5   31.12    3.30
  10   1  -5   35.81    2.98
   9   1  -5   -0.69    0.45
   9   1  -5    0.31    0.58
   9   1  -5    0.44    0.39
  -9  -1   5   -0.96    0.61
   8   1  -5    4.07    0.96
   8   1  -5    5.11    0.79
   8   1  -5    5.30    1.04
  -8  -1   5    5.20    1.06
   7   1  -5    1.75    0.57
   7   1  -5    0.71    0.35
   7   1  -5    0.80    0.55
  -7  -1   5    0.69    0.49
   6   1  -5    7.62    1.03
   6   1  -5    5.00    0.74
   6   1  -5    6.22    0.81
   6   1  -5    5.79    0.95
  -6  -1   5    5.77    0.93
   5   1  -5   18.40    1.70
   5   1  -5   17.07    1.45
   5   1  -5   13.97    1.39
   5   1  -5   17.89    1.70
   5   1  -5   16.67    1.60
  -5  -1   5   14.85    1.65
   4   1  -5    7.49    0.96
   4   1  -5    6.39    0.76
   4   1  -5    6.57    0.77
   4   1  -5    7.02    0.89
  -4  -1   5    6.77    0.80
  -4  -1   5    5.93    0.63
   3   1  -5    5.20    0.66
   3   1  -5    5.09    0.78
   3   1  -5    4.93    0.76
   3   1  -5    5.78    0.70
  -3  -1   5    5.90    0.73
  -3  -1   5    5.73    0.62
  -3  -1   5    5.88    0.73
   2   1  -5   25.86    2.19
   2   1  -5   26.75    1.95
   2   1  -5   20.95    2.07
   2   1  -5   23.18    1.94
  -2  -1   5   23.68    2.05
   1   1  -5   17.15    1.36
   1   1  -5   15.60    1.37
   1   1  -5   13.94    1.52
  -1  -1   5   16.54    1.33
  -1  -1   5   16.12    1.48
   0   1  -5   11.54    1.30
   0   1  -5   15.75    1.21
   0   1  -5   14.76    1.18
   0  -1   5   13.31    1.29
   0  -1   5   11.85    1.14
  -1   1  -5   10.22    1.14
  -1   1  -5   11.29    0.98
  -1   1  -5    8.95    1.09
   1  -1   5   10.96    0.97
   1  -1   5   10.76    1.11
  -2   1  -5    1.78    0.36
  -2   1  -5    2.70    0.49
  -2   1  -5    2.02    0.48
   2  -1   5    3.06    0.45
   2  -1   5    3.19    0.58
   2  -1   5    2.19    0.39
  -3   1  -5  211.16   17.44
  -3   1  -5  246.49   18.79
  -3   1  -5  186.79   15.94
   3  -1   5  231.38   15.99
   3  -1   5  191.90   18.71
   3  -1   5  243.82   16.01
   3  -1   5  217.95   17.49
  -4   1  -5    0.94    0.29
  -4   1  -5    0.81    0.37
  -4   1  -5    1.36    0.48
   4  -1   5    0.61    0.31
   4  -1   5    0.79    0.36
   4  -1   5    0.37    0.27
  -5   1  -5   24.79    2.68
  -5   1  -5   27.33    2.47
   5  -1   5   27.11    2.51
   5  -1   5   26.36    2.23
  -6   1  -5    1.14    0.59
   6  -1   5    0.84    0.49
   6  -1   5    1.63    0.56
   6  -1   5    1.24    0.47
   6  -1   5    1.87    0.51
  -7   1  -5    0.06    0.57
   7  -1   5   -0.10    0.36
   7  -1   5    0.13    0.44
   7  -1   5    0.07    0.42
   7  -1   5    0.13    0.38
  -8   1  -5   14.92    2.35
   8  -1   5   15.66    1.79
   8  -1   5   13.96    1.84
   8  -1   5   16.88    2.02
   8  -1   5   16.43    1.64
   9  -1   5    5.34    1.15
   9  -1   5    4.04    0.92
   9  -1   5    4.46    0.88
  10  -1   5    0.45    0.76
  10  -1   5    2.69    0.73
  11   0  -5    0.35    0.45
  11   0  -5   -0.04    0.65
  10   0  -5    1.80    0.68
  10   0  -5    2.64    0.63
   9   0  -5    0.34    0.38
   9   0  -5    1.28    0.59
   9   0  -5    0.97    0.53
  -9   0   5    0.18    0.59
   8   0  -5   50.95    4.27
   8   0  -5   49.81    3.92
   8   0  -5   43.14    4.31
  -8   0   5   55.60    4.72
   7   0  -5    6.06    0.81
   7   0  -5    6.51    1.03
   7   0  -5    7.36    1.07
  -7   0   5    6.07    1.03
   6   0  -5    5.41    0.71
   6   0  -5    4.11    0.78
   6   0  -5    6.14    0.72
   6   0  -5    5.98    0.88
   6   0  -5    5.17    0.85
  -6   0   5    6.42    0.92
   5   0  -5  120.18    9.63
   5   0  -5  105.78    9.13
   5   0  -5  125.82    9.15
   5   0  -5  133.85   10.71
   5   0  -5  137.27   10.09
  -5   0   5  121.85   10.68
   4   0  -5    3.31    0.48
   4   0  -5    2.16    0.49
   4   0  -5    3.18    0.48
   4   0  -5    3.58    0.58
  -4   0   5    3.28    0.53
  -4   0   5    3.32    0.49
   3   0  -5    0.45    0.28
   3   0  -5    0.04    0.17
   3   0  -5    0.42    0.21
   3   0  -5    0.33    0.29
  -3   0   5    0.26    0.17
  -3   0   5    0.18    0.24
  -3   0   5    0.30    0.21
   2   0  -5    0.95    0.25
   2   0  -5    1.57    0.39
   2   0  -5    1.63    0.34
   2   0  -5    1.60    0.38
  -2   0   5    1.42    0.21
  -2   0   5    1.27    0.33
   1   0  -5   22.12    1.87
   1   0  -5   25.23    1.93
   1   0  -5   23.71    2.12
  -1   0   5   24.53    2.09
  -1   0   5   22.75    1.99
   0   0  -5   10.05    1.09
   0   0  -5   10.64    0.99
   0   0  -5   10.74    1.14
   0   0  -5   10.74    0.99
   0   0   5   10.70    0.96
   0   0   5   10.75    1.07
  -1   0  -5   25.06    2.26
  -1   0  -5   23.62    1.97
   1   0   5   24.65    1.95
   1   0   5   25.70    2.20
   1   0   5   22.86    2.24
  -2   0  -5   12.42    1.22
  -2   0  -5   10.84    1.26
  -2   0  -5   11.23    1.07
   2   0   5   11.21    1.07
   2   0   5   12.77    1.26
   2   0   5   10.90    1.21
  -3   0  -5    1.39    0.49
  -3   0  -5    1.89    0.38
  -3   0  -5    1.97    0.51
   3   0   5    1.75    0.46
   3   0   5    1.64    0.48
   3   0   5    1.50    0.39
   3   0   5    1.78    0.40
  -4   0  -5    0.41    0.26
  -4   0  -5    0.67    0.43
  -4   0  -5    1.17    0.46
   4   0   5    1.03    0.45
   4   0   5    0.36    0.31
   4   0   5    1.01    0.36
  -5   0  -5   41.08    4.06
   5   0   5   45.50    3.45
   5   0   5   46.43    3.42
   5   0   5   39.93    3.56
   5   0   5   37.95    3.72
  -6   0  -5    0.94    0.63
   6   0   5    2.88    0.69
   6   0   5    1.31    0.49
   6   0   5    0.94    0.42
   6   0   5    1.44    0.55
  -7   0  -5    1.56    0.88
   7   0   5    1.63    0.57
   7   0   5    2.11    0.56
   7   0   5    1.85    0.62
   7   0   5    0.77    0.57
   8   0   5   41.36    3.36
   8   0   5   40.96    3.63
   8   0   5   39.41    3.42
   8   0   5   35.06    3.69
   9   0   5    1.06    0.58
   9   0   5    0.17    0.64
   9   0   5    0.06    0.66
  11  -1  -5   -0.19    0.33
  11  -1  -5    0.62    0.63
  10  -1  -5   -0.06    0.33
  10  -1  -5    0.16    0.41
  10  -1  -5    0.44    0.56
  10  -1  -5    0.24    0.56
   9  -1  -5    3.64    0.60
   9  -1  -5    4.50    0.69
   9  -1  -5    3.12    0.82
   9  -1  -5    3.50    0.85
  -9   1   5    3.22    0.90
   8  -1  -5   41.92    3.70
   8  -1  -5   43.75    3.65
   8  -1  -5   39.85    3.31
   8  -1  -5   42.75    3.32
  -8   1   5   42.24    3.96
   7  -1  -5    2.78    0.50
   7  -1  -5    2.97    0.52
   7  -1  -5    2.61    0.62
   7  -1  -5    3.31    0.46
   7  -1  -5    3.97    0.73
   7  -1  -5    2.90    0.64
  -7   1   5    3.52    0.71
   6  -1  -5    0.68    0.23
   6  -1  -5    0.64    0.36
   6  -1  -5    0.13    0.17
   6  -1  -5    0.23    0.26
   6  -1  -5    0.19    0.30
   6  -1  -5    0.08    0.20
  -6   1   5    0.26    0.32
   5  -1  -5   15.29    1.30
   5  -1  -5   15.10    1.30
   5  -1  -5   12.75    1.47
   5  -1  -5   15.87    1.46
   5  -1  -5   17.10    1.51
  -5   1   5   15.73    1.51
  -5   1   5   16.18    1.43
  -5   1   5   16.13    1.54
   4  -1  -5   -0.30    0.19
   4  -1  -5    0.25    0.18
   4  -1  -5   -0.17    0.13
   4  -1  -5    0.01    0.17
   4  -1  -5   -0.13    0.19
  -4   1   5    0.05    0.19
  -4   1   5   -0.33    0.21
  -4   1   5    0.22    0.16
   3  -1  -5  331.50   24.04
   3  -1  -5  340.71   26.30
   3  -1  -5  346.80   24.09
  -3   1   5  337.89   26.20
  -3   1   5  337.42   25.10
  -3   1   5  290.92   27.04
   2  -1  -5   -0.09    0.23
   2  -1  -5    0.02    0.18
   2  -1  -5   -0.24    0.15
  -2   1   5    0.05    0.20
  -2   1   5    0.00    0.22
  -2   1   5   -0.02    0.13
   1  -1  -5   37.73    2.94
   1  -1  -5   37.57    3.30
   1  -1  -5   36.38    2.92
   1  -1  -5   38.76    3.25
  -1   1   5   40.07    3.21
  -1   1   5   42.45    3.04
  -1   1   5   34.86    2.91
  -1   1   5   38.62    3.31
   0  -1  -5  110.07    9.64
   0  -1  -5  121.20    8.30
   0  -1  -5   98.92    8.30
   0   1   5  117.16    8.27
   0   1   5  117.72    9.06
   0   1   5  111.24    9.63
   0   1   5  110.09    8.41
  -1  -1  -5    8.47    0.98
  -1  -1  -5   11.49    1.15
   1   1   5   10.71    0.98
   1   1   5   12.18    1.14
   1   1   5   10.48    0.98
   1   1   5   10.47    1.12
  -2  -1  -5   12.81    1.51
  -2  -1  -5   16.29    1.50
  -2  -1  -5   13.04    1.30
   2   1   5   14.77    1.30
   2   1   5   16.45    1.51
   2   1   5   14.55    1.30
   2   1   5   15.48    1.51
  -3  -1  -5   -0.03    0.30
  -3  -1  -5    0.23    0.23
  -3  -1  -5    0.13    0.27
   3   1   5    0.24    0.24
   3   1   5   -0.04    0.26
   3   1   5    0.43    0.29
   3   1   5   -0.14    0.29
  -4  -1  -5    0.39    0.54
  -4  -1  -5    1.38    0.42
   4   1   5    0.92    0.39
   4   1   5    1.36    0.53
   4   1   5    1.39    0.43
   4   1   5    0.42    0.32
  -5  -1  -5   25.79    2.94
   5   1   5   28.89    2.44
   5   1   5   30.04    2.58
   5   1   5   29.18    2.75
   5   1   5   29.13    2.48
  -6  -1  -5    2.86    0.81
   6   1   5    2.85    0.64
   6   1   5    2.57    0.74
   6   1   5    1.12    0.50
   6   1   5    2.51    0.67
  -7  -1  -5    0.44    0.65
   7   1   5    0.21    0.62
   7   1   5    0.37    0.45
   7   1   5    0.11    0.48
   7   1   5    0.97    0.63
   8   1   5    0.51    0.63
   8   1   5   -0.23    0.45
   8   1   5    0.10    0.47
   9   1   5    0.11    0.71
   9   1   5   -0.15    0.64
   9   1   5    0.61    0.60
  11  -2  -5   20.98    2.65
  11  -2  -5   32.38    2.50
  11  -2  -5   31.84    2.50
  10  -2  -5   -0.21    0.47
  10  -2  -5    0.11    0.29
  10  -2  -5    0.46    0.55
  10  -2  -5   -0.05    0.32
   9  -2  -5    8.00    0.90
   9  -2  -5    8.30    1.17
   9  -2  -5    8.83    0.99
   9  -2  -5    7.93    1.25
   8  -2  -5    0.61    0.40
   8  -2  -5    0.37    0.28
   8  -2  -5    0.69    0.47
  -8   2   5   -0.32    0.40
   7  -2  -5    0.69    0.24
   7  -2  -5    0.50    0.24
   7  -2  -5    0.43    0.30
   7  -2  -5    0.25    0.34
   7  -2  -5    0.07    0.35
  -7   2   5   -0.04    0.35
   6  -2  -5   41.56    3.19
   6  -2  -5   31.78    3.31
   6  -2  -5   39.34    3.09
  -6   2   5   40.84    3.39
  -6   2   5   32.43    3.32
   5  -2  -5    2.66    0.48
   5  -2  -5    2.22    0.39
   5  -2  -5    3.06    0.50
   5  -2  -5    3.54    0.39
  -5   2   5    3.68    0.49
  -5   2   5    3.45    0.66
  -5   2   5    1.75    0.39
   4  -2  -5    0.92    0.26
   4  -2  -5    0.92    0.24
   4  -2  -5    0.49    0.26
   4  -2  -5    0.63    0.19
  -4   2   5    0.88    0.24
  -4   2   5    0.70    0.37
   3  -2  -5   53.63    3.83
   3  -2  -5   48.64    3.46
   3  -2  -5   41.44    3.45
   3  -2  -5   43.14    3.59
  -3   2   5   44.94    3.71
  -3   2   5   43.70    3.55
  -3   2   5   45.41    3.98
   2  -2  -5    5.20    0.52
   2  -2  -5    4.20    0.52
   2  -2  -5    4.92    0.58
   2  -2  -5    4.22    0.65
  -2   2   5    4.16    0.44
  -2   2   5    4.83    0.59
  -2   2   5    5.14    0.80
  -2   2   5    4.85    0.45
   1  -2  -5   14.28    1.26
   1  -2  -5   13.83    1.34
   1  -2  -5   16.36    1.42
   1  -2  -5   14.65    1.24
   1  -2  -5   16.72    1.25
  -1   2   5   14.49    1.21
  -1   2   5   14.05    1.17
  -1   2   5   15.51    1.37
  -1   2   5   13.25    1.17
  -1   2   5   12.31    1.33
   0  -2  -5   57.51    3.95
   0  -2  -5   47.34    4.27
   0  -2  -5   48.75    4.49
   0  -2  -5   55.60    3.91
   0   2   5   53.80    4.28
   0   2   5   48.11    3.86
   0   2   5   55.18    4.51
   0   2   5   44.95    3.91
  -1  -2  -5    5.06    0.74
  -1  -2  -5    5.11    0.71
  -1  -2  -5    4.87    0.74
   1   2   5    4.52    0.61
   1   2   5    4.57    0.73
   1   2   5    4.97    0.73
   1   2   5    5.11    0.63
  -2  -2  -5  118.44    8.63
  -2  -2  -5  102.23    9.45
  -2  -2  -5  103.16   10.08
   2   2   5  124.43    8.80
   2   2   5  128.05    8.97
   2   2   5  117.33    8.63
   2   2   5  114.06   10.12
   2   2   5  118.50    9.47
  -3  -2  -5   -0.63    0.37
  -3  -2  -5    0.13    0.26
  -3  -2  -5   -0.13    0.40
   3   2   5   -0.26    0.26
   3   2   5    0.16    0.25
   3   2   5    0.08    0.29
   3   2   5   -0.04    0.25
  -4  -2  -5   17.54    1.72
  -4  -2  -5   18.87    2.12
   4   2   5   18.64    1.95
   4   2   5   21.51    1.81
   4   2   5   19.24    1.73
   4   2   5   18.22    1.78
  -5  -2  -5    1.67    0.70
   5   2   5    0.85    0.49
   5   2   5    1.10    0.63
   5   2   5    0.62    0.37
   5   2   5    0.75    0.41
  -6  -2  -5   12.74    1.87
   6   2   5    9.21    1.24
   6   2   5   10.32    1.41
   6   2   5    8.47    1.29
   6   2   5   11.05    1.54
   7   2   5   16.54    1.87
   7   2   5   16.18    2.09
   7   2   5   15.33    1.94
   7   2   5   13.35    1.76
   8   2   5   -0.10    0.67
   8   2   5    0.41    0.57
   8   2   5    0.60    0.58
   9   2   5   -0.74    0.61
   9   2   5    0.26    0.62
  11  -3  -5    0.14    0.37
  11  -3  -5    0.25    0.33
  10  -3  -5   -0.09    0.31
  10  -3  -5   -0.17    0.53
   9  -3  -5   43.89    3.80
   8  -3  -5   17.05    1.70
  -8   3   5   17.30    1.87
   7  -3  -5   -0.23    0.24
   7  -3  -5    0.02    0.29
  -7   3   5    0.15    0.31
  -7   3   5    0.21    0.47
   6  -3  -5   51.80    4.50
   6  -3  -5   47.18    4.09
  -6   3   5   55.37    4.57
   5  -3  -5    2.23    0.40
   5  -3  -5    2.33    0.37
  -5   3   5    3.18    0.70
   4  -3  -5    1.83    0.36
   4  -3  -5    1.92    0.33
   4  -3  -5    1.50    0.31
  -4   3   5    2.14    0.56
   3  -3  -5    5.02    0.51
   3  -3  -5    6.27    0.71
   3  -3  -5    5.40    0.60
   3  -3  -5    4.92    0.55
  -3   3   5    3.97    0.81
   2  -3  -5   12.57    1.42
   2  -3  -5   15.95    1.28
   2  -3  -5   17.17    1.46
   2  -3  -5   13.13    1.29
   2  -3  -5   15.68    1.28
   2  -3  -5   14.88    1.40
  -2   3   5   16.97    1.40
  -2   3   5   15.02    1.20
  -2   3   5   16.90    1.61
   1  -3  -5  130.26    9.47
   1  -3  -5  136.09    9.64
   1  -3  -5  131.04   11.01
   1  -3  -5  111.25    9.49
   1  -3  -5  119.63   10.36
  -1   3   5  134.98    9.44
  -1   3   5  133.81   10.34
   0  -3  -5    7.52    0.94
   0  -3  -5    8.96    0.86
   0  -3  -5    8.39    0.92
   0  -3  -5   10.36    1.01
   0  -3  -5    7.85    0.89
   0   3   5    8.54    0.81
   0   3   5    9.96    0.97
   0   3   5    7.61    0.73
   0   3   5    8.47    1.00
   0   3   5    6.06    0.75
  -1  -3  -5    1.31    0.44
  -1  -3  -5    1.64    0.39
  -1  -3  -5    1.89    0.50
   1   3   5    1.16    0.32
   1   3   5    1.09    0.42
   1   3   5    1.35    0.31
   1   3   5    1.34    0.33
   1   3   5    1.05    0.43
  -2  -3  -5    3.34    0.60
  -2  -3  -5    2.54    0.67
  -2  -3  -5    2.39    0.66
   2   3   5    2.36    0.49
   2   3   5    3.08    0.54
   2   3   5    2.98    0.54
   2   3   5    3.30    0.68
  -3  -3  -5    2.62    0.57
  -3  -3  -5    3.35    0.75
   3   3   5    3.27    0.67
   3   3   5    3.01    0.60
   3   3   5    2.81    0.54
   3   3   5    1.76    0.48
  -4  -3  -5   42.72    3.82
  -4  -3  -5   36.57    3.24
   4   3   5   35.99    3.16
   4   3   5   38.12    3.30
   4   3   5   41.59    3.58
   4   3   5   37.37    3.22
  -5  -3  -5    3.48    0.97
   5   3   5    3.93    0.95
   5   3   5    4.12    0.81
   5   3   5    4.33    0.87
   5   3   5    1.87    0.56
  -6  -3  -5    3.18    1.04
   6   3   5    4.88    0.90
   6   3   5    3.85    0.90
   6   3   5    4.32    1.01
   6   3   5    4.46    0.89
   7   3   5    8.50    1.27
   7   3   5    7.84    1.30
   7   3   5    8.21    1.33
   7   3   5    5.66    1.39
   8   3   5   -0.54    0.68
   8   3   5    0.18    0.64
  10  -4  -5    3.37    0.84
   9  -4  -5   20.17    2.00
   8  -4  -5   10.20    1.24
   7  -4  -5    1.50    0.43
  -7   4   5    3.20    0.83
   6  -4  -5   13.87    1.47
   6  -4  -5   16.18    1.39
  -6   4   5   16.40    1.75
   5  -4  -5    0.91    0.26
   5  -4  -5    0.54    0.25
   5  -4  -5    0.92    0.25
  -5   4   5    0.95    0.50
   4  -4  -5  128.78   10.47
   4  -4  -5  147.36   11.04
   4  -4  -5  149.24   11.78
   4  -4  -5  127.33   10.09
   4  -4  -5  135.71   10.06
  -4   4   5  138.20   11.54
   3  -4  -5    3.00    0.42
   3  -4  -5    3.24    0.44
   3  -4  -5    4.19    0.60
   3  -4  -5    3.79    0.51
   3  -4  -5    3.93    0.59
   3  -4  -5    3.17    0.48
  -3   4   5    3.96    0.82
  -3   4   5    3.29    0.45
   2  -4  -5    0.87    0.23
   2  -4  -5    0.59    0.24
   2  -4  -5    0.76    0.28
   2  -4  -5    1.04    0.37
   2  -4  -5    0.68    0.33
   2  -4  -5    0.67    0.27
  -2   4   5    1.44    0.53
  -2   4   5    0.47    0.28
  -2   4   5    0.80    0.21
   1  -4  -5   17.73    1.54
   1  -4  -5   17.40    1.52
   1  -4  -5   19.45    1.76
   1  -4  -5   17.98    1.73
   1  -4  -5   16.27    1.54
  -1   4   5   17.10    1.88
  -1   4   5   18.70    1.48
  -1   4   5   17.67    1.68
   0  -4  -5    8.79    0.96
   0  -4  -5    8.42    1.20
   0  -4  -5    6.73    0.98
   0  -4  -5    9.40    0.92
   0  -4  -5    8.05    0.93
   0   4   5    8.30    0.90
   0   4   5    7.77    0.74
   0   4   5    8.57    1.09
  -1  -4  -5   13.54    1.14
  -1  -4  -5   10.58    1.24
  -1  -4  -5   10.82    1.46
   1   4   5   10.85    1.07
   1   4   5   10.52    1.32
   1   4   5    7.75    1.06
   1   4   5   10.30    0.99
  -2  -4  -5    0.60    0.37
  -2  -4  -5    1.24    0.53
   2   4   5    1.61    0.55
   2   4   5    0.50    0.34
   2   4   5    0.53    0.36
   2   4   5    0.60    0.31
  -3  -4  -5    0.42    0.53
  -3  -4  -5    0.98    0.45
   3   4   5    0.23    0.54
   3   4   5    0.43    0.32
   3   4   5    0.31    0.35
   3   4   5   -0.06    0.31
  -4  -4  -5   51.59    5.10
   4   4   5   57.02    4.36
   4   4   5   50.21    4.37
   4   4   5   55.37    4.45
   4   4   5   55.29    4.83
  -5  -4  -5   10.14    1.67
   5   4   5    9.38    1.29
   5   4   5    8.17    1.46
   5   4   5    9.16    1.28
   6   4   5    0.48    0.55
   6   4   5    0.52    0.53
   6   4   5    0.05    0.69
   7   4   5   -0.36    0.64
   9  -5  -5    0.76    0.51
   8  -5  -5   11.65    1.27
  -8   5   5   12.38    1.81
   7  -5  -5   24.59    2.15
  -7   5   5   25.89    2.64
   6  -5  -5    0.47    0.25
   6  -5  -5    0.22    0.24
  -6   5   5   -0.25    0.43
   5  -5  -5    1.94    0.42
   5  -5  -5    2.10    0.42
   5  -5  -5    1.85    0.30
  -5   5   5    1.54    0.67
   4  -5  -5   13.59    1.19
   4  -5  -5   13.21    1.14
   4  -5  -5   14.28    1.31
   4  -5  -5   13.96    1.35
   4  -5  -5   11.20    1.27
  -4   5   5   15.30    1.62
   3  -5  -5    3.21    0.59
   3  -5  -5    2.20    0.48
   3  -5  -5    2.08    0.44
   3  -5  -5    2.93    0.44
   3  -5  -5    3.01    0.57
   3  -5  -5    3.43    0.47
  -3   5   5    3.12    0.49
  -3   5   5    4.02    0.86
   2  -5  -5    8.33    0.91
   2  -5  -5    8.54    0.94
   2  -5  -5    5.65    0.90
   2  -5  -5    7.30    0.84
   2  -5  -5    7.08    0.83
  -2   5   5    7.38    0.94
  -2   5   5   12.10    1.49
   1  -5  -5   20.78    1.74
   1  -5  -5   19.07    1.69
   1  -5  -5   17.49    1.94
   1  -5  -5   19.72    1.72
   1  -5  -5   19.60    1.95
  -1   5   5   19.04    1.87
  -1   5   5   21.14    1.66
  -1   5   5   22.02    2.12
   0  -5  -5    2.86    0.52
   0  -5  -5    1.68    0.46
   0  -5  -5    2.05    0.55
   0   5   5    2.10    0.70
   0   5   5    1.48    0.35
   0   5   5    1.82    0.54
   0   5   5    1.57    0.40
  -1  -5  -5   68.32    5.84
  -1  -5  -5   70.44    5.03
   1   5   5   54.61    5.45
   1   5   5   65.11    5.06
   1   5   5   63.15    4.94
  -2  -5  -5    2.42    0.73
  -2  -5  -5    2.48    0.62
   2   5   5    2.26    0.73
   2   5   5    0.80    0.40
   2   5   5    1.15    0.43
  -3  -5  -5    2.44    0.80
  -3  -5  -5    2.15    0.65
   3   5   5    1.55    0.50
   3   5   5    0.73    0.63
  -4  -5  -5    3.28    0.97
   4   5   5    3.54    1.02
   4   5   5    2.92    0.73
   5   5   5    4.03    1.10
   5   5   5    3.94    0.88
   6   5   5    1.96    0.92
   6   5   5    4.17    1.00
   7   5   5   -0.18    0.91
  -8   6   5    0.35    0.68
  -7   6   5   29.33    3.04
  -6   6   5    0.84    0.62
   5  -6  -5    0.36    0.25
   5  -6  -5    0.39    0.21
   5  -6  -5    0.05    0.26
   5  -6  -5    0.08    0.33
  -5   6   5    0.08    0.50
   4  -6  -5    2.75    0.45
   4  -6  -5    3.63    0.55
   4  -6  -5    4.40    0.70
   4  -6  -5    3.76    0.53
  -4   6   5    4.59    0.99
   3  -6  -5    9.92    1.09
   3  -6  -5    9.04    0.90
   3  -6  -5    5.16    0.96
   3  -6  -5    7.78    0.94
   3  -6  -5   10.81    0.91
  -3   6   5    7.32    1.28
   2  -6  -5  104.36    8.18
   2  -6  -5   99.43    7.01
  -2   6   5   82.68    7.58
  -2   6   5   84.08    8.01
   1  -6  -5    0.20    0.42
   1  -6  -5    0.53    0.35
  -1   6   5   -0.03    0.56
  -1   6   5    0.07    0.36
   0  -6  -5    2.41    0.65
   0  -6  -5    2.09    0.57
   0   6   5    2.16    0.62
   0   6   5    2.45    0.84
   0   6   5    2.23    0.46
  -1  -6  -5    7.60    1.12
  -1  -6  -5    7.60    1.21
   1   6   5    9.79    1.49
   1   6   5    9.42    1.32
   1   6   5    8.18    0.98
  -2  -6  -5    1.06    0.62
  -2  -6  -5    2.57    0.66
   2   6   5    3.93    1.10
   2   6   5    3.11    0.64
   2   6   5    3.12    0.84
  -3  -6  -5   28.86    3.02
   3   6   5   26.15    2.80
   3   6   5   27.67    2.51
  -4  -6  -5    6.76    1.45
   4   6   5    8.98    1.46
   5   6   5    2.12    1.04
   6   6   5   19.07    2.62
  -9   7   5    0.41    0.80
  -8   7   5    1.21    0.82
  -7   7   5    7.31    1.41
  -6   7   5    4.87    1.11
   5  -7  -5   34.63    2.79
   5  -7  -5   34.96    2.80
  -5   7   5   37.34    3.52
   4  -7  -5    7.13    1.05
   4  -7  -5    6.92    0.84
  -4   7   5    5.99    1.24
   3  -7  -5    8.22    1.22
   3  -7  -5    9.94    1.08
  -3   7   5    8.24    1.40
   2  -7  -5   27.95    2.36
   2  -7  -5   28.43    2.73
  -2   7   5   25.49    2.85
   1  -7  -5    0.11    0.43
   1  -7  -5   -0.12    0.34
  -1   7   5   -0.01    0.41
  -1   7   5   -0.67    0.57
   0  -7  -5    0.97    0.48
   0  -7  -5    1.10    0.64
   0   7   5   -0.08    0.62
   0   7   5    0.87    0.55
  -1  -7  -5    0.37    0.58
  -1  -7  -5    1.45    0.61
   1   7   5    1.14    0.85
   1   7   5    0.80    0.56
  -2  -7  -5    3.80    0.93
  -2  -7  -5    4.82    0.89
   2   7   5    5.25    1.25
   2   7   5    3.15    0.89
  -3  -7  -5   11.04    1.88
   3   7   5   18.17    2.33
   3   7   5   16.45    2.12
   4   7   5   -0.06    0.73
   4   7   5   -0.89    0.88
   5   7   5   -0.09    1.12
   5   7   5    0.78    0.79
  -9   8   5    1.28    0.92
  -8   8   5   11.83    2.02
  -7   8   5    7.21    1.60
   6  -8  -5    3.41    0.56
  -6   8   5    3.94    1.09
   5  -8  -5    0.21    0.32
  -5   8   5   -0.41    0.66
   4  -8  -5    1.67    0.67
   4  -8  -5    1.75    0.50
  -4   8   5    2.22    0.93
   3  -8  -5   17.49    2.00
   3  -8  -5   18.79    1.72
  -3   8   5   18.81    2.44
   2  -8  -5   12.71    1.79
   2  -8  -5   18.51    1.64
  -2   8   5   16.61    2.26
   1  -8  -5    0.45    0.54
   1  -8  -5    0.19    0.49
  -1   8   5    0.09    0.72
   0  -8  -5   53.91    4.39
   0  -8  -5   51.93    5.08
   0   8   5   53.05    5.06
   0   8   5   55.77    4.95
  -1  -8  -5    0.87    0.72
  -1  -8  -5    0.32    0.55
   1   8   5   -0.52    0.75
   1   8   5    0.15    0.62
  -2  -8  -5    3.04    0.86
   2   8   5    3.68    1.23
   2   8   5    4.16    1.14
   3   8   5   -0.30    0.99
   3   8   5   -0.09    0.78
   4   8   5    5.16    1.50
   4   8   5    6.55    1.65
  -9   9   5    0.28    0.98
  -8   9   5   30.19    3.43
   7  -9  -5    2.29    0.51
  -7   9   5    1.84    1.09
   6  -9  -5    0.31    0.36
  -6   9   5    2.00    1.03
   5  -9  -5    8.93    1.12
  -5   9   5   10.96    1.80
   4  -9  -5   20.71    1.87
  -4   9   5   17.38    2.51
   3  -9  -5   11.11    1.53
   3  -9  -5   12.08    1.41
  -3   9   5    7.13    1.57
   2  -9  -5    0.16    0.54
   2  -9  -5    1.42    0.69
  -2   9   5    0.75    0.78
   1  -9  -5    0.64    0.57
   1  -9  -5    2.37    0.70
  -1   9   5    1.97    1.00
   0  -9  -5    0.21    0.64
   0  -9  -5   -0.68    0.66
   0   9   5    0.59    0.81
  -1  -9  -5    0.72    0.57
   1   9   5    0.26    0.90
   2   9   5   14.59    2.34
   3   9   5    5.88    1.75
  -9  10   5    1.09    1.13
  -8  10   5    6.06    1.59
   7 -10  -5    0.38    0.46
  -7  10   5    0.78    0.99
   6 -10  -5   25.12    2.20
  -6  10   5   22.24    3.15
   5 -10  -5    8.62    1.18
  -5  10   5    7.90    1.70
   4 -10  -5   -0.22    0.41
  -4  10   5   -0.13    0.85
   3 -10  -5    0.54    0.55
  -3  10   5    1.66    1.04
   2 -10  -5    4.17    0.91
  -2  10   5    5.19    1.35
   1 -10  -5    1.27    0.75
  -1  10   5    0.51    0.98
   0 -10  -5    0.81    0.80
   0  10   5    2.89    1.27
   1  10   5    2.81    1.30
   2  10   5    0.91    1.29
   8 -11  -5    0.97    0.56
  -8  11   5    1.49    1.22
   7 -11  -5    1.44    0.62
  -7  11   5    0.07    1.05
   6 -11  -5    3.54    0.80
  -6  11   5    2.79    1.24
   5 -11  -5    0.33    0.58
  -5  11   5    0.62    1.12
   4 -11  -5    0.30    0.59
  -4  11   5    2.02    1.21
   3 -11  -5   22.58    2.30
  -3  11   5   23.62    3.13
   2 -11  -5    1.94    0.80
  -2  11   5    1.22    1.20
   1 -11  -5   15.53    2.04
  -1  11   5   17.89    2.60
   0 -11  -5    0.26    0.83
   0  11   5    1.86    1.17
   1 -13   6   13.81    2.02
   2 -13   6    4.24    1.06
   3 -13   6    0.29    0.76
   4 -13   6    2.52    0.92
   5 -13   6    0.78    0.83
   6 -13   6   -0.78    0.70
   1 -12   6    0.50    0.73
   2 -12   6    2.08    0.77
   3 -12   6    2.85    0.95
   4 -12   6    5.95    1.19
   5 -12   6   -0.65    0.55
   6 -12   6   20.94    2.37
   7 -12   6   -0.67    0.58
   3  11  -6    1.21    1.00
   2  11  -6   14.80    2.25
   1  11  -6    3.75    1.37
   0  11  -6   -0.49    0.66
   0 -11   6    0.04    0.64
   1 -11   6    5.10    1.09
   2 -11   6    5.20    1.00
   3 -11   6   12.62    1.66
   4 -11   6    0.18    0.54
   5 -11   6    0.45    0.62
   6 -11   6    1.07    0.64
   7 -11   6    0.30    0.64
   8 -11   6    5.73    1.06
   5  10  -6    0.62    1.10
   4  10  -6    1.84    1.06
   3  10  -6    3.55    1.13
   2  10  -6    3.89    1.17
   1  10  -6    2.65    0.98
  -1 -10   6    0.90    0.66
  -1 -10   6    1.00    0.95
   0  10  -6   33.79    3.55
   0 -10   6   37.33    3.22
  -1  10  -6    8.50    1.59
   1 -10   6    7.45    1.25
   2 -10   6    0.74    0.52
   3 -10   6    2.96    0.77
   4 -10   6    2.61    0.73
   5 -10   6    0.50    0.53
   6 -10   6    2.38    0.73
   7 -10   6    3.37    0.82
   8 -10   6    5.76    1.05
   9 -10   6    0.29    0.58
   6   9  -6   -0.80    0.87
   5   9  -6    5.04    1.60
   4   9  -6    5.18    1.41
   3   9  -6    4.45    1.23
   3   9  -6    2.33    0.89
  -3  -9   6    3.72    1.30
   2   9  -6   12.27    2.03
  -2  -9   6   11.41    2.10
   1   9  -6    5.62    1.34
  -1  -9   6    5.81    1.43
  -1  -9   6    6.24    1.10
   0   9  -6    2.64    0.86
   0  -9   6    2.63    0.75
  -1   9  -6    3.62    0.92
   1  -9   6    3.80    0.80
  -2   9  -6    8.13    1.40
   2  -9   6   12.13    1.43
   3  -9   6   20.66    2.00
   4  -9   6    9.91    1.34
   5  -9   6   32.05    2.80
   6  -9   6    0.94    0.55
   7  -9   6    1.50    0.54
   8  -9   6    1.03    0.61
   9  -9   6    1.03    0.58
  10  -9   6    1.60    0.72
   6   8  -6    3.67    1.20
   5   8  -6   20.25    2.89
   4   8  -6   -0.40    0.72
   4   8  -6   -0.33    0.71
  -4  -8   6    0.34    0.76
   3   8  -6   17.99    2.56
   3   8  -6   13.57    2.06
  -3  -8   6   16.76    2.33
   2   8  -6    0.08    0.62
  -2  -8   6   -0.27    0.78
  -2  -8   6    1.28    0.50
   1   8  -6    1.96    0.84
  -1  -8   6    2.00    0.57
   0   8  -6   13.14    1.81
   0  -8   6   15.43    1.70
  -1   8  -6    4.34    0.95
   1  -8   6    3.66    0.74
  -2   8  -6   24.79    2.40
   2  -8   6   21.85    2.13
  -3   8  -6    3.79    0.85
   3  -8   6    2.67    0.68
   4  -8   6    0.34    0.38
   5  -8   6   -0.57    0.37
   6  -8   6   -0.46    0.37
   7  -8   6   11.88    1.42
   8  -8   6   23.41    2.16
   9  -8   6    0.01    0.50
   9  -8   6   -0.36    0.51
  10  -8   6   13.08    1.78
   7   7  -6    8.30    1.44
   7   7  -6    6.88    1.52
   6   7  -6    7.60    1.26
   6   7  -6    6.42    1.39
   5   7  -6    1.75    0.76
   5   7  -6    1.83    0.93
   5   7  -6    0.48    0.71
  -5  -7   6    1.81    0.81
   4   7  -6    5.44    1.28
   4   7  -6    6.60    1.36
   4   7  -6    7.66    1.24
  -4  -7   6    9.31    1.53
   3   7  -6   51.82    4.72
   3   7  -6   61.01    5.34
   3   7  -6   63.35    5.19
  -3  -7   6   61.79    5.69
   2   7  -6    0.23    0.55
   2   7  -6   -0.05    0.36
   2   7  -6    1.04    0.69
  -2  -7   6    0.23    0.62
  -2  -7   6    0.75    0.50
   1   7  -6   23.23    2.65
   1   7  -6   28.98    2.38
  -1  -7   6   27.87    2.40
   0   7  -6    7.80    1.24
   0   7  -6    8.60    1.14
   0  -7   6    8.20    1.11
  -1   7  -6    0.47    0.35
  -1   7  -6    0.53    0.55
   1  -7   6   -0.16    0.34
  -2   7  -6    3.08    0.85
   2  -7   6    3.14    0.68
  -3   7  -6   -0.08    0.37
   3  -7   6    0.24    0.36
  -4   7  -6    5.36    0.88
   4  -7   6    5.23    0.84
   5  -7   6   10.93    1.28
   6  -7   6   18.83    1.80
   7  -7   6    6.09    0.95
   8  -7   6    0.77    0.48
   9  -7   6    1.36    0.70
   9  -7   6    0.40    0.52
  10  -7   6    4.42    0.97
  10  -7   6    5.55    0.97
   8   6  -6    3.53    0.98
   8   6  -6    3.04    1.20
   7   6  -6    0.34    0.56
   7   6  -6    1.20    0.87
   6   6  -6   -0.08    0.56
   6   6  -6    1.43    0.63
   6   6  -6   -0.72    0.71
  -6  -6   6    0.65    0.79
   5   6  -6    0.36    0.47
   5   6  -6   -0.26    0.51
   5   6  -6    0.50    0.64
  -5  -6   6    1.76    0.78
   4   6  -6   14.35    1.77
   4   6  -6   17.68    2.19
   4   6  -6   15.14    2.04
  -4  -6   6   20.40    2.34
   3   6  -6   18.79    1.95
   3   6  -6   17.74    2.28
   3   6  -6   23.40    2.33
  -3  -6   6   22.17    1.97
  -3  -6   6   22.62    2.44
   2   6  -6   32.56    2.97
   2   6  -6   28.88    2.99
   2   6  -6   31.66    2.65
  -2  -6   6   30.82    2.64
   1   6  -6    2.26    0.52
   1   6  -6    2.25    0.72
  -1  -6   6    2.40    0.61
   0   6  -6    0.17    0.30
   0   6  -6    0.58    0.44
   0  -6   6    0.15    0.31
  -1   6  -6    6.06    0.87
  -1   6  -6    7.67    1.19
   1  -6   6    6.92    0.95
  -2   6  -6  125.12    9.35
  -2   6  -6  128.80   10.34
   2  -6   6  113.39    9.39
   2  -6   6  135.05    9.41
  -3   6  -6   -0.35    0.31
  -3   6  -6    0.07    0.24
   3  -6   6    0.40    0.28
   3  -6   6    0.02    0.31
  -4   6  -6   62.83    5.36
   4  -6   6   64.48    4.94
  -5   6  -6    4.80    0.78
   5  -6   6    5.04    0.81
   6  -6   6    1.40    0.50
   7  -6   6    1.44    0.52
   8  -6   6    3.99    0.86
   8  -6   6    4.04    0.91
   9  -6   6    6.77    1.15
   9  -6   6    5.06    0.90
  10  -6   6    2.34    0.68
  10  -6   6    1.08    0.73
   9   5  -6   12.88    1.84
   8   5  -6   -0.21    0.69
   8   5  -6    0.42    0.61
   7   5  -6    1.67    0.68
   7   5  -6    1.06    0.75
  -7  -5   6    0.35    0.72
   6   5  -6   37.43    3.70
   6   5  -6   41.35    3.89
   6   5  -6   44.68    3.48
  -6  -5   6   35.83    3.93
   5   5  -6    7.15    1.28
   5   5  -6    3.14    0.88
   5   5  -6    6.95    1.02
  -5  -5   6    8.59    1.35
   4   5  -6    7.70    1.32
   4   5  -6    6.39    1.21
   4   5  -6    7.97    1.09
  -4  -5   6    7.62    1.30
   3   5  -6   -0.32    0.40
   3   5  -6    0.23    0.30
   3   5  -6    0.22    0.40
  -3  -5   6   -0.14    0.30
  -3  -5   6    0.02    0.46
   2   5  -6   -0.16    0.35
   2   5  -6   -0.25    0.24
   2   5  -6   -0.06    0.33
  -2  -5   6    0.07    0.29
   1   5  -6   23.07    1.92
   1   5  -6   23.63    2.23
  -1  -5   6   19.24    1.97
  -1  -5   6   22.41    1.92
   0   5  -6   42.94    3.35
   0   5  -6   42.02    3.72
   0  -5   6   40.09    3.35
  -1   5  -6    5.75    0.79
  -1   5  -6    7.20    1.13
   1  -5   6    5.50    0.80
  -2   5  -6    3.02    0.73
  -2   5  -6    1.47    0.40
   2  -5   6    1.93    0.50
   2  -5   6    2.24    0.52
  -3   5  -6   12.51    1.32
  -3   5  -6   11.14    1.09
   3  -5   6   11.23    1.18
   3  -5   6   12.74    1.17
  -4   5  -6   14.49    1.28
  -4   5  -6   14.50    1.48
   4  -5   6   14.41    1.37
   4  -5   6   15.65    1.43
  -5   5  -6    0.95    0.42
   5  -5   6    1.39    0.44
  -6   5  -6    8.51    1.52
   6  -5   6   12.03    1.32
  -7   5  -6   34.06    3.54
   7  -5   6   30.75    3.06
   7  -5   6   33.86    2.81
  -8   5  -6    1.84    0.79
   8  -5   6    2.79    0.78
   9  -5   6    8.79    1.20
   9  -5   6    7.84    1.34
  10  -5   6   -0.32    0.57
  10  -5   6   -1.06    0.40
   9   4  -6   27.63    2.95
   9   4  -6   22.74    2.42
   8   4  -6    5.74    1.31
   8   4  -6    5.75    1.05
  -8  -4   6    6.40    1.45
   7   4  -6    1.98    0.92
   7   4  -6    1.67    0.77
   7   4  -6    1.14    0.54
  -7  -4   6    2.20    0.94
   6   4  -6    1.80    0.75
   6   4  -6    0.84    0.69
   6   4  -6    1.45    0.56
  -6  -4   6    0.83    0.60
   5   4  -6    0.50    0.53
   5   4  -6    1.32    0.47
   5   4  -6    1.25    0.60
  -5  -4   6    1.29    0.63
   4   4  -6   75.36    5.78
   4   4  -6   62.28    5.37
   4   4  -6   71.59    5.98
  -4  -4   6   65.36    6.25
  -4  -4   6   73.62    5.40
   3   4  -6    0.56    0.34
   3   4  -6    1.40    0.56
   3   4  -6    1.12    0.58
  -3  -4   6    1.75    0.42
  -3  -4   6    0.92    0.48
   2   4  -6   39.91    3.92
   2   4  -6   41.95    3.52
  -2  -4   6   51.78    3.57
   1   4  -6  106.44    7.51
   1   4  -6   98.75    8.24
  -1  -4   6   97.44    8.22
  -1  -4   6   95.52    7.46
   0   4  -6    0.13    0.32
   0   4  -6    0.37    0.30
   0  -4   6   -0.09    0.24
  -1   4  -6    4.12    0.80
  -1   4  -6    4.79    0.68
   1  -4   6    2.63    0.53
   1  -4   6    4.82    0.66
   1  -4   6    5.53    0.83
  -2   4  -6   17.51    1.50
  -2   4  -6   17.64    1.73
   2  -4   6   17.07    1.52
   2  -4   6   16.57    1.53
  -3   4  -6    0.21    0.30
  -3   4  -6    0.03    0.15
   3  -4   6    0.44    0.23
   3  -4   6    0.44    0.31
  -4   4  -6   59.84    4.78
  -4   4  -6   58.84    4.30
   4  -4   6   55.80    4.38
   4  -4   6   51.46    4.34
  -5   4  -6   11.41    1.60
  -5   4  -6   10.74    1.18
   5  -4   6   10.04    1.21
  -6   4  -6   19.09    2.18
   6  -4   6   17.60    1.89
   6  -4   6   17.09    1.68
  -7   4  -6   -0.02    0.58
   7  -4   6    0.26    0.41
   7  -4   6    0.64    0.52
  -8   4  -6    1.11    0.76
   8  -4   6    1.49    0.56
   8  -4   6    1.31    0.62
   9  -4   6   13.07    1.77
   9  -4   6   12.57    1.56
  10  -4   6    0.84    0.55
  10  -4   6    0.46    0.71
  10  -4   6    1.06    0.60
  10   3  -6   10.03    1.79
  10   3  -6    9.88    1.51
   9   3  -6    4.19    1.12
   9   3  -6    4.10    0.95
   8   3  -6   -0.49    0.61
   8   3  -6    0.31    0.59
   8   3  -6    0.26    0.45
  -8  -3   6   -0.04    0.56
   7   3  -6    5.76    0.97
   7   3  -6    5.97    1.17
   7   3  -6    5.33    1.20
  -7  -3   6    7.15    1.21
   6   3  -6    5.51    0.89
   6   3  -6    6.56    1.16
   6   3  -6    5.41    1.14
  -6  -3   6    7.41    1.18
   5   3  -6    0.06    0.27
   5   3  -6    0.25    0.44
   5   3  -6    0.89    0.57
  -5  -3   6    0.85    0.60
   4   3  -6   15.36    1.59
   4   3  -6   19.20    1.67
   4   3  -6   15.86    1.94
   4   3  -6   18.40    1.90
  -4  -3   6   17.49    1.55
  -4  -3   6   19.98    1.91
   3   3  -6   30.38    2.37
   3   3  -6   31.21    2.40
   3   3  -6   24.65    2.52
   3   3  -6   22.26    2.59
  -3  -3   6   28.40    2.72
  -3  -3   6   32.11    2.34
   2   3  -6    0.64    0.40
   2   3  -6    0.38    0.29
   2   3  -6    0.82    0.44
   2   3  -6    0.29    0.27
  -2  -3   6    0.63    0.31
   1   3  -6   27.60    2.16
   1   3  -6   22.42    2.35
  -1  -3   6   24.70    2.09
  -1  -3   6   27.56    2.30
   0   3  -6    5.71    0.89
   0   3  -6    6.63    0.83
   0  -3   6    6.40    0.91
   0  -3   6    5.85    0.76
  -1   3  -6  111.62    8.35
  -1   3  -6  115.45    9.18
   1  -3   6  109.14    8.35
   1  -3   6  111.39    9.75
   1  -3   6  112.83    8.37
  -2   3  -6    1.57    0.50
  -2   3  -6    1.03    0.31
   2  -3   6    0.97    0.31
   2  -3   6    1.55    0.38
   2  -3   6    1.03    0.42
  -3   3  -6   63.55    4.86
  -3   3  -6   61.99    4.41
  -3   3  -6   50.34    5.20
   3  -3   6   52.86    4.40
   3  -3   6   58.57    4.41
  -4   3  -6    7.34    0.82
  -4   3  -6    6.96    1.01
  -4   3  -6    6.80    1.14
   4  -3   6    6.68    0.87
   4  -3   6    8.50    0.97
  -5   3  -6    0.23    0.34
  -5   3  -6    1.54    0.67
   5  -3   6    0.20    0.34
   5  -3   6    0.76    0.51
  -6   3  -6    3.33    0.70
  -6   3  -6    6.04    1.14
   6  -3   6    3.92    0.87
   6  -3   6    5.76    0.84
  -7   3  -6   12.22    1.91
   7  -3   6   14.14    1.75
   7  -3   6   12.62    1.47
  -8   3  -6    0.30    0.87
   8  -3   6    1.66    0.61
   8  -3   6    1.29    0.65
   8  -3   6    0.73    0.62
   9  -3   6   18.96    2.47
   9  -3   6   23.17    2.14
   9  -3   6   23.28    2.17
  10  -3   6    0.33    0.70
  10  -3   6    0.30    0.51
  10   2  -6    6.19    1.14
  10   2  -6    6.74    1.42
   9   2  -6    4.41    0.87
   9   2  -6    3.49    1.03
   8   2  -6    7.92    1.38
   8   2  -6   10.32    1.24
   8   2  -6    6.95    1.33
  -8  -2   6    8.39    1.42
   7   2  -6   92.48    7.06
   7   2  -6   85.75    6.32
   7   2  -6   79.14    6.71
  -7  -2   6   72.23    7.31
   6   2  -6    1.08    0.40
   6   2  -6    0.43    0.47
   6   2  -6    0.25    0.51
  -6  -2   6    0.97    0.44
   5   2  -6   15.09    1.55
   5   2  -6   21.34    1.89
   5   2  -6   16.47    1.56
   5   2  -6   15.06    1.71
  -5  -2   6   18.31    1.79
   4   2  -6    1.50    0.41
   4   2  -6    0.96    0.32
   4   2  -6    0.40    0.42
   4   2  -6    0.71    0.48
  -4  -2   6    0.79    0.29
  -4  -2   6    0.86    0.39
   3   2  -6   10.12    1.01
   3   2  -6   11.99    1.31
   3   2  -6   11.36    1.03
   3   2  -6    8.68    1.20
  -3  -2   6    8.97    1.10
   2   2  -6   87.75    7.37
   2   2  -6   94.38    7.00
   2   2  -6   93.35    7.71
   2   2  -6   96.78    7.02
  -2  -2   6   89.29    6.96
  -2  -2   6   98.67    7.34
   1   2  -6   18.39    1.51
   1   2  -6   15.50    1.45
   1   2  -6   15.99    1.67
  -1  -2   6   18.25    1.46
  -1  -2   6   15.44    1.58
   0   2  -6   19.81    1.65
   0   2  -6   17.96    1.84
   0  -2   6   19.09    1.61
   0  -2   6   19.06    1.83
  -1   2  -6   19.54    1.78
  -1   2  -6   20.54    1.59
   1  -2   6   17.30    1.77
   1  -2   6   16.51    1.55
  -2   2  -6    9.92    1.10
  -2   2  -6    8.85    1.15
  -2   2  -6    8.96    0.88
   2  -2   6    8.70    0.87
   2  -2   6    7.68    1.08
   2  -2   6    6.60    0.91
  -3   2  -6   44.02    4.62
  -3   2  -6   50.21    5.01
  -3   2  -6   61.23    4.25
   3  -2   6   59.57    4.30
   3  -2   6   62.16    4.28
  -4   2  -6    7.20    0.99
  -4   2  -6    6.43    1.11
   4  -2   6    7.37    0.88
   4  -2   6    8.97    1.16
  -5   2  -6   12.35    1.74
  -5   2  -6   13.08    1.44
   5  -2   6   14.42    1.52
   5  -2   6   12.52    1.30
  -6   2  -6   38.97    3.92
   6  -2   6   35.80    3.55
   6  -2   6   43.26    3.27
  -7   2  -6   -0.35    0.59
   7  -2   6    0.33    0.38
   7  -2   6   -0.45    0.41
   7  -2   6    0.35    0.54
   8  -2   6    8.81    1.46
   8  -2   6   10.93    1.55
   8  -2   6    9.83    1.32
   8  -2   6   10.86    1.37
   9  -2   6    0.81    0.60
   9  -2   6    0.13    0.52
   9  -2   6    0.49    0.54
  10  -2   6    0.20    0.59
  10  -2   6    0.95    0.61
  10   1  -6   25.06    2.52
  10   1  -6   18.94    2.07
   9   1  -6    6.15    1.23
   9   1  -6    6.76    1.05
   9   1  -6    8.47    1.39
   8   1  -6   -0.13    0.50
   8   1  -6   -0.17    0.47
   8   1  -6    0.44    0.38
  -8  -1   6    0.25    0.46
   7   1  -6    1.22    0.54
   7   1  -6    0.75    0.50
   7   1  -6    1.74    0.49
  -7  -1   6    1.50    0.59
   6   1  -6    8.35    1.03
   6   1  -6    8.60    1.26
   6   1  -6    7.94    1.19
  -6  -1   6    9.27    1.18
   5   1  -6   91.60    6.50
   5   1  -6   78.82    6.09
   5   1  -6   88.86    6.15
  -5  -1   6   68.22    7.03
   4   1  -6    0.21    0.34
   4   1  -6    1.04    0.41
   4   1  -6    1.05    0.31
   4   1  -6    0.70    0.34
  -4  -1   6    0.52    0.24
  -4  -1   6    0.90    0.32
   3   1  -6   19.33    1.57
   3   1  -6   15.89    1.68
   3   1  -6   20.93    1.59
   3   1  -6   17.27    1.77
  -3  -1   6   18.79    1.64
  -3  -1   6   19.00    1.49
  -3  -1   6   16.33    1.68
   2   1  -6   99.86    7.69
   2   1  -6  105.00    8.44
   2   1  -6  104.10    8.08
   2   1  -6  101.71    7.66
  -2  -1   6  104.97    8.02
   1   1  -6    0.12    0.21
   1   1  -6    0.60    0.30
   1   1  -6    0.00    0.30
  -1  -1   6    0.08    0.38
  -1  -1   6    0.29    0.20
  -1  -1   6    0.11    0.18
   0   1  -6    1.09    0.36
   0   1  -6    1.03    0.34
   0   1  -6    1.18    0.35
   0  -1   6    1.31    0.33
   0  -1   6    1.48    0.35
  -1   1  -6    0.81    0.36
  -1   1  -6    1.25    0.35
  -1   1  -6    0.85    0.36
   1  -1   6    0.99    0.35
   1  -1   6    1.27    0.33
  -2   1  -6    2.36    0.59
  -2   1  -6    3.38    0.62
  -2   1  -6    3.05    0.51
   2  -1   6    3.64    0.65
   2  -1   6    2.27    0.53
  -3   1  -6   78.32    6.38
  -3   1  -6   82.11    5.82
  -3   1  -6   83.74    6.86
   3  -1   6   68.69    5.80
   3  -1   6   71.23    6.40
  -4   1  -6   26.06    2.41
  -4   1  -6   21.26    1.89
  -4   1  -6   22.14    2.17
   4  -1   6   23.38    2.21
   4  -1   6   22.86    1.98
  -5   1  -6    4.88    0.85
  -5   1  -6    5.02    1.00
   5  -1   6    3.81    0.86
   5  -1   6    4.70    0.77
  -6   1  -6   -0.27    0.51
   6  -1   6   -0.11    0.37
   6  -1   6    0.42    0.39
   6  -1   6   -0.07    0.39
   6  -1   6    0.18    0.40
  -7   1  -6    2.20    0.82
   7  -1   6    0.16    0.55
   7  -1   6    0.47    0.53
   7  -1   6    0.73    0.46
   7  -1   6   -0.28    0.41
   8  -1   6   30.33    3.24
   8  -1   6   38.45    3.01
   8  -1   6   32.35    2.96
   9  -1   6    0.54    0.59
   9  -1   6    0.20    0.54
   9  -1   6    0.90    0.77
  11   0  -6    2.05    0.74
  11   0  -6    1.73    0.82
  10   0  -6    3.05    0.87
  10   0  -6    3.61    0.78
   9   0  -6    4.47    0.96
   9   0  -6    2.92    0.65
   9   0  -6    4.05    0.96
   8   0  -6   22.57    2.10
   8   0  -6   19.31    1.78
   8   0  -6   17.68    2.04
  -8   0   6   20.43    2.17
   7   0  -6    1.09    0.54
   7   0  -6    0.64    0.49
   7   0  -6    0.21    0.29
  -7   0   6    0.71    0.46
   6   0  -6    3.90    0.80
   6   0  -6    5.69    0.84
   6   0  -6    5.91    0.76
   6   0  -6    6.26    0.79
   6   0  -6    6.10    0.92
  -6   0   6    5.62    0.83
   5   0  -6   34.43    2.82
   5   0  -6   32.59    2.60
   5   0  -6   35.10    2.96
   5   0  -6   31.54    2.61
  -5   0   6   30.87    2.95
   4   0  -6   12.14    1.23
   4   0  -6   11.10    1.02
   4   0  -6   10.81    1.03
   4   0  -6   11.49    1.16
  -4   0   6    9.74    1.05
  -4   0   6   10.97    1.10
  -4   0   6   11.30    1.08
   3   0  -6    0.60    0.27
   3   0  -6    0.40    0.31
   3   0  -6   -0.05    0.19
   3   0  -6    0.16    0.28
  -3   0   6    0.23    0.15
  -3   0   6    0.11    0.24
  -3   0   6    0.14    0.25
   2   0  -6   15.29    1.32
   2   0  -6   15.90    1.37
   2   0  -6   12.56    1.49
  -2   0   6   15.99    1.24
  -2   0   6   16.65    1.40
   1   0  -6    7.30    0.78
   1   0  -6    5.17    0.86
   1   0  -6    7.66    0.83
  -1   0   6    7.28    0.83
  -1   0   6    7.57    0.69
  -1   0   6    6.60    0.70
   0   0  -6  123.11    8.42
   0   0  -6  115.39    8.43
   0   0  -6  111.67    9.76
   0   0  -6  100.44    9.21
   0   0   6  106.79    8.38
   0   0   6  120.96    9.76
   0   0   6  114.26    9.18
  -1   0  -6    7.78    0.89
  -1   0  -6    6.81    0.86
  -1   0  -6    5.97    0.90
   1   0   6    7.24    0.87
   1   0   6    7.90    0.84
   1   0   6    7.27    0.97
  -2   0  -6   35.64    2.80
  -2   0  -6   34.47    3.25
  -2   0  -6   37.14    3.12
   2   0   6   34.54    3.25
   2   0   6   33.73    3.09
   2   0   6   34.00    2.82
   2   0   6   36.53    2.80
  -3   0  -6   15.25    1.36
  -3   0  -6   14.60    1.63
  -3   0  -6   13.73    1.52
   3   0   6   16.64    1.41
   3   0   6   14.07    1.55
   3   0   6   14.38    1.39
  -4   0  -6    1.07    0.45
  -4   0  -6    1.16    0.37
  -4   0  -6    0.62    0.53
   4   0   6    1.10    0.51
   4   0   6    1.01    0.37
   4   0   6    0.69    0.36
  -5   0  -6    4.81    1.02
   5   0   6    6.07    0.87
   5   0   6    5.97    0.86
   5   0   6    5.51    1.01
   5   0   6    5.26    0.90
  -6   0  -6    0.07    0.57
   6   0   6    0.43    0.52
   6   0   6    0.08    0.41
   6   0   6    0.22    0.39
   6   0   6    0.65    0.46
  -7   0  -6    2.24    0.90
   7   0   6    2.75    0.72
   7   0   6    2.48    0.78
   7   0   6    2.36    0.81
   7   0   6    1.94    0.61
   8   0   6    7.75    1.24
   8   0   6   10.80    1.39
   8   0   6    8.29    1.53
   9   0   6    1.99    0.83
   9   0   6    4.04    1.09
   9   0   6    4.54    0.94
  11  -1  -6    4.43    0.85
  11  -1  -6    2.13    0.92
  10  -1  -6   15.39    1.97
  10  -1  -6   14.98    2.15
  10  -1  -6   14.19    1.48
   9  -1  -6    1.40    0.70
   9  -1  -6    0.88    0.40
   9  -1  -6    0.61    0.55
   8  -1  -6   58.22    4.89
   8  -1  -6   57.09    4.38
   8  -1  -6   54.76    4.74
  -8   1   6   55.42    5.20
   7  -1  -6   -0.27    0.35
   7  -1  -6    0.19    0.37
   7  -1  -6    0.44    0.32
   7  -1  -6   -0.15    0.21
  -7   1   6    0.17    0.34
   6  -1  -6   15.01    1.29
   6  -1  -6   17.09    1.47
   6  -1  -6   11.10    1.42
   6  -1  -6   13.98    1.26
   6  -1  -6   12.77    1.41
  -6   1   6   12.54    1.44
  -6   1   6   14.68    1.44
   5  -1  -6    0.23    0.21
   5  -1  -6    0.42    0.31
   5  -1  -6    0.17    0.31
   5  -1  -6    0.03    0.22
  -5   1   6   -0.09    0.26
  -5   1   6    0.35    0.31
  -5   1   6   -0.01    0.16
   4  -1  -6   14.14    1.44
   4  -1  -6   14.87    1.38
   4  -1  -6   15.13    1.28
   4  -1  -6   13.30    1.23
  -4   1   6   14.33    1.32
  -4   1   6   13.55    1.45
  -4   1   6   16.13    1.31
   3  -1  -6  125.27    9.08
   3  -1  -6  103.25    9.48
   3  -1  -6  113.74    8.68
   3  -1  -6  114.16    8.64
  -3   1   6  112.94    9.40
  -3   1   6  125.40    9.77
  -3   1   6  126.10    9.01
   2  -1  -6   17.09    1.30
   2  -1  -6   12.23    1.37
   2  -1  -6   14.82    1.23
  -2   1   6   14.70    1.26
  -2   1   6   12.20    1.33
  -2   1   6   14.31    1.16
   1  -1  -6    0.70    0.36
   1  -1  -6    0.79    0.29
   1  -1  -6    0.34    0.19
   1  -1  -6    1.08    0.30
  -1   1   6    0.69    0.33
  -1   1   6    0.90    0.23
  -1   1   6    0.80    0.23
  -1   1   6    0.43    0.21
  -1   1   6    0.59    0.28
   0  -1  -6    2.76    0.59
   0  -1  -6    3.17    0.54
   0  -1  -6    3.18    0.53
   0  -1  -6    3.98    0.57
   0   1   6    4.52    0.55
   0   1   6    4.67    0.59
   0   1   6    4.21    0.51
   0   1   6    3.96    0.64
  -1  -1  -6    0.80    0.35
  -1  -1  -6    0.30    0.32
  -1  -1  -6    0.97    0.36
   1   1   6    1.20    0.40
   1   1   6    0.79    0.29
   1   1   6    0.54    0.27
   1   1   6    0.88    0.32
  -2  -1  -6   37.59    3.11
  -2  -1  -6   40.64    3.64
  -2  -1  -6   38.83    3.43
   2   1   6   36.59    3.57
   2   1   6   38.23    3.12
   2   1   6   42.18    3.46
   2   1   6   40.61    3.10
  -3  -1  -6    4.08    0.81
  -3  -1  -6    3.15    0.57
  -3  -1  -6    3.46    0.75
   3   1   6    4.45    0.67
   3   1   6    3.98    0.78
   3   1   6    4.31    0.66
  -4  -1  -6    0.46    0.42
  -4  -1  -6    0.87    0.56
  -4  -1  -6    0.64    0.37
   4   1   6    0.56    0.36
   4   1   6    1.72    0.47
   4   1   6    0.57    0.38
   4   1   6    1.01    0.52
  -5  -1  -6   44.58    4.30
   5   1   6   44.34    3.60
   5   1   6   38.16    3.95
   5   1   6   45.74    3.66
   5   1   6   47.80    3.78
  -6  -1  -6    0.22    0.60
   6   1   6    0.71    0.48
   6   1   6    0.69    0.50
   6   1   6    0.17    0.40
   6   1   6   -0.36    0.47
   7   1   6    3.50    0.85
   7   1   6    3.77    0.92
   7   1   6    4.43    0.87
   7   1   6    2.64    0.87
   8   1   6    3.11    0.82
   8   1   6    3.13    0.86
   8   1   6    3.40    1.13
   9   1   6    2.04    0.75
   9   1   6    2.07    0.89
  11  -2  -6   20.33    2.17
  11  -2  -6   18.67    1.83
  10  -2  -6    5.24    1.11
  10  -2  -6    3.73    0.73
  10  -2  -6    7.88    1.18
   9  -2  -6   -0.17    0.27
   9  -2  -6    0.58    0.49
   9  -2  -6    0.57    0.47
   8  -2  -6    0.95    0.47
   8  -2  -6    0.20    0.27
   8  -2  -6    0.23    0.39
   7  -2  -6    0.08    0.32
   7  -2  -6    0.00    0.23
   7  -2  -6   -0.04    0.21
   7  -2  -6    0.18    0.39
  -7   2   6    0.14    0.32
  -7   2   6   -0.29    0.38
   6  -2  -6   68.62    5.18
   6  -2  -6   70.70    5.73
   6  -2  -6   64.19    6.00
   6  -2  -6   71.59    5.22
   6  -2  -6   70.28    5.52
  -6   2   6   73.34    6.04
  -6   2   6   65.78    5.94
   5  -2  -6    7.64    0.76
   5  -2  -6    8.60    0.99
   5  -2  -6    7.13    0.71
   5  -2  -6    7.80    0.93
  -5   2   6    6.38    0.81
  -5   2   6    7.48    1.07
   4  -2  -6   15.28    1.43
   4  -2  -6   14.96    1.52
   4  -2  -6   15.84    1.36
   4  -2  -6   15.44    1.32
  -4   2   6   16.67    1.65
  -4   2   6   17.38    1.38
   3  -2  -6   89.66    7.03
   3  -2  -6   99.16    7.08
   3  -2  -6  100.59    7.73
  -3   2   6   97.22    7.28
  -3   2   6   97.88    7.64
  -3   2   6   84.76    7.98
   2  -2  -6    1.84    0.38
   2  -2  -6    1.08    0.40
  -2   2   6    2.07    0.30
  -2   2   6    1.43    0.36
  -2   2   6    1.84    0.29
   1  -2  -6    1.12    0.41
   1  -2  -6    1.93    0.40
   1  -2  -6    1.04    0.26
  -1   2   6    1.34    0.30
  -1   2   6    1.69    0.41
  -1   2   6    1.50    0.34
  -1   2   6    0.94    0.25
   0  -2  -6    0.37    0.34
   0  -2  -6    0.16    0.26
   0  -2  -6   -0.01    0.26
   0   2   6    0.38    0.21
   0   2   6    0.36    0.28
   0   2   6   -0.04    0.23
   0   2   6    0.32    0.22
  -1  -2  -6    4.02    0.70
  -1  -2  -6    4.05    0.67
  -1  -2  -6    4.51    0.76
   1   2   6    4.24    0.60
   1   2   6    5.57    0.82
   1   2   6    4.79    0.75
   1   2   6    4.42    0.63
  -2  -2  -6  108.39    8.79
  -2  -2  -6  110.03    9.36
  -2  -2  -6  109.59    7.99
   2   2   6  107.99    7.97
   2   2   6  108.83    8.11
   2   2   6  113.04    8.78
   2   2   6   90.24    8.23
  -3  -2  -6    5.24    0.79
  -3  -2  -6    3.97    0.88
  -3  -2  -6    4.81    0.94
   3   2   6    4.88    0.74
   3   2   6    5.15    0.75
   3   2   6    4.99    0.74
   3   2   6    3.75    0.78
  -4  -2  -6    1.38    0.47
   4   2   6    0.49    0.36
   4   2   6    0.38    0.40
   4   2   6   -0.01    0.37
   4   2   6    0.31    0.47
  -5  -2  -6   -0.98    0.58
   5   2   6   -0.21    0.46
   5   2   6    0.00    0.39
   5   2   6    0.04    0.34
   5   2   6   -0.17    0.34
  -6  -2  -6   -0.98    0.67
   6   2   6    0.17    0.46
   6   2   6   -0.13    0.37
   6   2   6    1.09    0.56
   6   2   6   -0.10    0.54
   7   2   6   18.58    2.36
   7   2   6   14.60    1.79
   7   2   6   12.01    1.80
   7   2   6   15.90    1.85
   8   2   6    0.00    0.73
   8   2   6    0.49    0.63
  11  -3  -6    2.39    0.60
  10  -3  -6    0.50    0.53
  10  -3  -6    0.82    0.39
   9  -3  -6   17.27    1.83
   8  -3  -6    1.92    0.55
   7  -3  -6    2.31    0.55
   7  -3  -6    1.61    0.44
  -7   3   6    1.31    0.58
   6  -3  -6   30.07    2.58
   6  -3  -6   28.19    2.73
   6  -3  -6   33.39    2.68
  -6   3   6   33.12    2.94
   5  -3  -6    8.40    0.87
   5  -3  -6   10.79    1.01
   5  -3  -6   11.07    0.94
   5  -3  -6    9.04    1.03
  -5   3   6   12.75    1.30
   4  -3  -6    8.40    0.96
   4  -3  -6    9.56    0.89
   4  -3  -6    9.89    0.89
   4  -3  -6    8.08    0.79
  -4   3   6   10.26    1.33
   3  -3  -6   18.95    1.58
   3  -3  -6   19.07    1.62
   3  -3  -6   19.42    1.58
   3  -3  -6   20.00    1.80
  -3   3   6   20.39    1.99
  -3   3   6   19.36    1.69
   2  -3  -6   -0.08    0.19
   2  -3  -6    0.08    0.31
   2  -3  -6   -0.05    0.21
   2  -3  -6   -0.01    0.21
   2  -3  -6   -0.06    0.16
  -2   3   6   -0.73    0.30
  -2   3   6    0.00    0.20
  -2   3   6    0.18    0.17
   1  -3  -6  156.13   11.70
   1  -3  -6  173.80   13.63
   1  -3  -6  170.33   12.85
   1  -3  -6  141.34   11.74
   1  -3  -6  171.79   11.93
  -1   3   6  150.34   11.65
  -1   3   6  147.84   12.76
   0  -3  -6    0.56    0.39
   0  -3  -6    1.03    0.35
   0  -3  -6    1.31    0.39
   0  -3  -6    1.18    0.33
   0  -3  -6    0.83    0.33
   0   3   6    1.21    0.43
   0   3   6    0.04    0.19
   0   3   6    1.02    0.41
   0   3   6    1.05    0.25
   0   3   6    1.59    0.35
  -1  -3  -6    6.89    1.10
  -1  -3  -6    7.39    1.00
  -1  -3  -6    6.52    0.85
   1   3   6    6.26    0.94
   1   3   6    6.13    0.74
   1   3   6    6.38    0.80
   1   3   6    6.48    0.99
   1   3   6    7.22    0.86
  -2  -3  -6    4.73    0.85
  -2  -3  -6    4.12    0.89
  -2  -3  -6    5.37    0.78
   2   3   6    5.24    0.70
   2   3   6    5.26    0.88
   2   3   6    5.68    0.75
   2   3   6    4.09    0.68
  -3  -3  -6    4.72    0.78
  -3  -3  -6    4.32    0.94
   3   3   6    3.58    0.68
   3   3   6    5.38    1.01
   3   3   6    4.82    0.77
   3   3   6    4.33    0.72
  -4  -3  -6   12.81    1.79
   4   3   6   12.21    1.50
   4   3   6   11.30    1.42
   4   3   6   13.37    1.49
   4   3   6   12.31    1.64
  -5  -3  -6    1.31    0.72
   5   3   6   -0.23    0.39
   5   3   6    0.28    0.42
   5   3   6    0.64    0.52
   5   3   6    0.09    0.42
   6   3   6    0.88    0.74
   6   3   6    0.49    0.54
   6   3   6   -0.60    0.54
   7   3   6    0.55    0.62
   7   3   6    0.60    0.79
  10  -4  -6    0.32    0.50
   9  -4  -6   48.19    4.09
   8  -4  -6    0.40    0.37
  -8   4   6   -0.89    0.45
   7  -4  -6    2.27    0.52
  -7   4   6    3.12    0.85
   6  -4  -6    0.49    0.29
   6  -4  -6    0.16    0.27
   6  -4  -6    0.31    0.22
  -6   4   6    0.05    0.46
   5  -4  -6    9.95    1.01
   5  -4  -6   11.97    1.01
   5  -4  -6   11.52    1.10
   5  -4  -6    9.35    0.93
  -5   4   6   12.87    1.51
   4  -4  -6   48.83    3.73
   4  -4  -6   50.52    3.70
   4  -4  -6   42.91    3.72
   4  -4  -6   52.17    4.10
  -4   4   6   52.94    4.43
   3  -4  -6    1.87    0.42
   3  -4  -6    1.51    0.36
   3  -4  -6    2.57    0.40
   3  -4  -6    3.49    0.58
   3  -4  -6    3.26    0.56
  -3   4   6    1.84    0.66
  -3   4   6    2.42    0.45
   2  -4  -6    1.93    0.52
   2  -4  -6    2.19    0.41
   2  -4  -6    2.09    0.43
   2  -4  -6    1.85    0.46
   2  -4  -6    2.59    0.42
  -2   4   6    2.33    0.70
  -2   4   6    2.26    0.36
  -2   4   6    3.00    0.52
   1  -4  -6    1.81    0.42
   1  -4  -6    1.21    0.38
   1  -4  -6    1.22    0.36
   1  -4  -6    0.86    0.42
   1  -4  -6    1.95    0.45
  -1   4   6    0.54    0.51
  -1   4   6    1.80    0.36
  -1   4   6    1.30    0.41
   0  -4  -6    1.48    0.56
   0  -4  -6    1.94    0.48
   0  -4  -6    2.00    0.47
   0  -4  -6    2.18    0.55
   0   4   6    1.40    0.49
   0   4   6    1.76    0.44
   0   4   6    1.84    0.31
  -1  -4  -6   12.53    1.25
  -1  -4  -6   11.06    1.60
  -1  -4  -6   12.41    1.45
   1   4   6   12.06    1.14
   1   4   6   13.59    1.45
   1   4   6   12.82    1.23
   1   4   6   11.51    1.21
  -2  -4  -6    3.90    0.73
  -2  -4  -6    2.90    0.77
   2   4   6    4.76    0.67
   2   4   6    6.79    1.08
   2   4   6    3.77    0.65
   2   4   6    4.14    0.75
  -3  -4  -6    0.31    0.59
  -3  -4  -6    1.01    0.45
   3   4   6    0.93    0.54
   3   4   6    0.30    0.37
   3   4   6    0.07    0.36
  -4  -4  -6  130.04   11.30
   4   4   6  130.70    9.93
   4   4   6  118.48    9.59
   4   4   6  125.80   10.56
  -5  -4  -6    0.66    0.85
   5   4   6    0.40    0.66
   5   4   6    0.91    0.57
   6   4   6    0.65    0.74
   6   4   6    0.90    0.68
   7   4   6   -0.17    0.86
  -8   5   6    0.77    0.64
   7  -5  -6   53.78    4.30
  -7   5   6   53.42    4.94
   6  -5  -6    5.85    0.67
  -6   5   6    3.90    0.99
   5  -5  -6   -0.36    0.26
   5  -5  -6   -0.21    0.22
   5  -5  -6    0.03    0.21
   5  -5  -6    0.05    0.22
  -5   5   6   -0.46    0.44
   4  -5  -6   32.15    2.57
   4  -5  -6   33.91    2.88
   4  -5  -6   32.39    2.95
   4  -5  -6   30.02    2.94
   4  -5  -6   34.46    2.61
   4  -5  -6   35.79    2.65
  -4   5   6   34.37    3.23
   3  -5  -6    0.09    0.23
   3  -5  -6    0.17    0.27
   3  -5  -6   -0.09    0.25
   3  -5  -6   -0.15    0.31
   3  -5  -6    0.59    0.24
  -3   5   6   -0.45    0.42
  -3   5   6    0.17    0.25
   2  -5  -6    3.73    0.61
   2  -5  -6    5.22    0.74
   2  -5  -6    3.98    0.77
   2  -5  -6    4.66    0.65
   2  -5  -6    3.17    0.62
  -2   5   6    5.54    1.03
  -2   5   6    4.84    0.73
   1  -5  -6    0.75    0.35
   1  -5  -6    0.12    0.30
   1  -5  -6    0.84    0.51
  -1   5   6    0.17    0.58
  -1   5   6   -0.02    0.39
   0  -5  -6   10.15    1.29
   0  -5  -6    8.93    1.32
   0  -5  -6   10.40    1.20
   0   5   6   10.94    1.59
   0   5   6    9.32    0.94
   0   5   6   10.78    1.31
  -1  -5  -6    9.27    1.39
  -1  -5  -6   13.16    1.40
   1   5   6   10.75    1.06
   1   5   6   11.16    1.49
  -2  -5  -6   12.74    1.43
  -2  -5  -6    9.66    1.47
   2   5   6   11.47    1.57
   2   5   6    8.92    1.10
  -3  -5  -6    0.60    0.61
  -3  -5  -6    0.80    0.60
   3   5   6    0.83    0.63
   3   5   6   -0.04    0.41
  -4  -5  -6    0.74    0.57
   4   5   6    0.07    0.66
   4   5   6    0.22    0.50
   5   5   6    0.21    0.63
   5   5   6    0.80    0.81
   6   5   6   17.06    2.47
  -9   6   6    2.33    0.98
  -8   6   6   -0.37    0.65
  -7   6   6   32.35    3.31
  -6   6   6    2.01    0.80
   5  -6  -6    2.40    0.47
   5  -6  -6    2.80    0.56
   5  -6  -6    2.64    0.45
  -5   6   6    2.93    0.86
   4  -6  -6   17.25    1.50
   4  -6  -6   17.73    1.69
   4  -6  -6   15.17    1.65
  -4   6   6   18.05    2.01
   3  -6  -6    4.44    0.78
   3  -6  -6    4.15    0.68
   3  -6  -6    3.26    0.62
  -3   6   6    3.51    0.91
   2  -6  -6  128.38    8.96
   2  -6  -6   99.46   10.33
   2  -6  -6  116.36    9.82
  -2   6   6  134.99   10.29
  -2   6   6  123.26    9.70
   1  -6  -6   16.07    1.68
   1  -6  -6   17.15    1.51
  -1   6   6   13.05    1.57
  -1   6   6   14.25    1.96
   0  -6  -6   17.67    1.72
   0  -6  -6   18.35    1.95
   0   6   6   16.76    1.87
   0   6   6   19.45    2.38
  -1  -6  -6    3.86    0.87
  -1  -6  -6    0.65    0.54
   1   6   6    2.68    1.00
   1   6   6    3.66    0.84
  -2  -6  -6    8.25    1.22
  -2  -6  -6    7.46    1.32
   2   6   6    9.02    1.42
  -3  -6  -6    9.26    1.56
   3   6   6   10.88    1.69
   4   6   6    0.27    0.68
   5   6   6    6.18    1.32
  -9   7   6    0.80    0.82
  -8   7   6   -0.21    0.68
  -7   7   6    4.73    1.24
   6  -7  -6    4.35    0.61
  -6   7   6    3.44    1.00
   5  -7  -6   12.21    1.12
  -5   7   6    8.07    1.56
   4  -7  -6    2.01    0.53
   4  -7  -6    1.38    0.46
  -4   7   6    1.01    0.74
   3  -7  -6    4.54    0.76
   3  -7  -6    4.31    0.72
  -3   7   6    2.63    0.93
   2  -7  -6    5.93    0.88
   2  -7  -6    5.11    0.87
  -2   7   6    5.36    1.21
   1  -7  -6    0.09    0.42
   1  -7  -6    0.43    0.53
  -1   7   6    0.37    0.73
   0  -7  -6   15.14    1.73
   0  -7  -6   15.88    1.78
   0   7   6   15.18    2.19
   0   7   6   12.57    1.76
  -1  -7  -6   11.68    1.74
  -1  -7  -6   12.45    1.59
   1   7   6   13.45    1.76
   1   7   6   13.51    1.98
  -2  -7  -6    2.11    0.69
  -2  -7  -6    0.38    0.59
   2   7   6   -0.21    0.89
   2   7   6    0.38    0.69
   3   7   6   17.46    2.44
   3   7   6   13.58    2.08
   4   7   6    1.41    0.90
   4   7   6    2.09    1.15
   5   7   6    0.21    1.19
   5   7   6    0.09    1.03
 -10   8   6    3.27    1.30
  -9   8   6   -0.40    0.77
  -8   8   6   32.29    3.54
  -7   8   6   18.81    2.54
   6  -8  -6    1.31    0.42
  -6   8   6    1.09    0.83
   5  -8  -6   14.45    1.40
  -5   8   6   15.45    2.24
   4  -8  -6    3.46    0.66
  -4   8   6    4.31    1.16
   3  -8  -6    0.69    0.49
  -3   8   6   -0.31    0.70
   2  -8  -6    5.42    0.91
   2  -8  -6    5.52    0.95
  -2   8   6    5.13    1.31
   1  -8  -6    6.76    1.15
   1  -8  -6    8.04    1.30
  -1   8   6   11.00    1.74
   0  -8  -6   33.44    3.00
   0  -8  -6   32.91    3.36
   0   8   6   33.93    3.58
  -1  -8  -6    0.11    0.62
  -1  -8  -6    1.53    0.65
   1   8   6    0.21    0.82
   2   8   6    1.74    1.10
   2   8   6    1.18    0.81
   3   8   6    1.63    1.18
   3   8   6    1.44    0.91
   4   8   6   -0.97    1.16
 -10   9   6    0.22    1.12
  -9   9   6    7.76    1.68
  -8   9   6    3.82    1.34
   7  -9  -6    2.05    0.52
  -7   9   6    0.94    1.00
   6  -9  -6    1.73    0.52
  -6   9   6    0.22    0.91
   5  -9  -6   21.35    1.94
  -5   9   6   20.50    2.88
   4  -9  -6    0.67    0.50
  -4   9   6   -0.23    0.75
   3  -9  -6   31.27    2.69
  -3   9   6   28.00    3.24
   2  -9  -6    2.37    0.73
  -2   9   6    0.16    0.90
   1  -9  -6   -0.40    0.50
  -1   9   6   -0.37    0.85
   0  -9  -6    4.24    1.04
   0  -9  -6    5.12    1.19
   0   9   6    4.60    1.40
  -1  -9  -6    0.38    0.71
   1   9   6    2.86    1.18
   2   9   6    2.30    1.35
  -9  10   6    1.79    1.16
   8 -10  -6    1.16    0.51
  -8  10   6    1.71    1.21
   7 -10  -6    8.41    1.09
  -7  10   6    5.89    1.65
   6 -10  -6   10.63    1.34
  -6  10   6   10.88    2.02
   5 -10  -6    1.81    0.62
  -5  10   6    1.14    0.99
   4 -10  -6    0.75    0.58
  -4  10   6   -0.88    0.80
   3 -10  -6    0.05    0.59
  -3  10   6   -0.07    0.96
   2 -10  -6    1.18    0.72
  -2  10   6    1.20    0.93
   1 -10  -6   10.34    1.55
  -1  10   6    8.71    1.92
   0 -10  -6   13.87    1.91
   0  10   6   17.12    2.56
   1  10   6   -1.26    1.09
   7 -11  -6    0.71    0.59
  -7  11   6    1.40    1.25
   6 -11  -6    7.81    1.20
  -6  11   6    7.27    1.72
   5 -11  -6   -0.01    0.55
  -5  11   6    1.08    1.03
   4 -11  -6    0.09    0.60
  -4  11   6    0.65    1.17
   3 -11  -6    5.23    1.10
  -3  11   6    4.11    1.48
   2 -11  -6    0.74    0.78
  -2  11   6    2.21    1.33
   1 -11  -6   12.50    1.78
  -1  11   6   11.43    2.48
   2 -13   7   -0.08    0.74
   3 -13   7    1.60    0.89
   4 -13   7    1.07    0.82
   5 -13   7    0.00    0.74
   1 -12   7    2.92    1.00
   2 -12   7    0.68    0.72
   3 -12   7   -1.00    0.59
   4 -12   7    2.64    0.93
   5 -12   7    1.41    0.81
   6 -12   7   13.48    1.78
   7 -12   7    1.56    0.82
   3  11  -7    3.05    1.28
   2  11  -7    4.18    1.40
   1  11  -7    3.10    1.15
   0  11  -7    0.07    0.84
   0 -11   7    0.28    0.71
   1 -11   7   11.63    1.66
   2 -11   7    0.15    0.58
   3 -11   7   20.07    2.26
   4 -11   7    0.56    0.68
   5 -11   7    0.56    0.60
   6 -11   7    0.24    0.60
   7 -11   7    0.46    0.63
   8 -11   7    6.38    1.21
   4  10  -7   -0.14    0.92
   3  10  -7    0.49    0.89
   2  10  -7    1.33    0.82
   1  10  -7    5.74    1.42
   0  10  -7   17.95    2.47
   0 -10   7   21.84    2.16
  -1  10  -7    0.45    0.66
   1 -10   7    0.42    0.58
   2 -10   7    3.54    0.90
   3 -10   7    0.24    0.51
   4 -10   7    2.52    0.79
   5 -10   7    1.75    0.74
   6 -10   7    4.61    0.94
   7 -10   7    0.68    0.61
   8 -10   7   12.72    1.66
   9 -10   7   -0.13    0.62
   5   9  -7    5.44    1.39
   4   9  -7    0.23    0.76
   3   9  -7    4.40    1.22
  -3  -9   7    7.56    1.72
   2   9  -7   12.49    1.90
  -2  -9   7   13.70    2.10
   1   9  -7    2.53    0.99
  -1  -9   7    2.78    0.77
   0   9  -7   19.33    2.48
   0  -9   7   21.04    2.07
  -1   9  -7    2.16    0.80
   1  -9   7    2.65    0.77
  -2   9  -7    1.77    0.81
   2  -9   7    2.51    0.72
   3  -9   7   14.06    1.68
   4  -9   7   10.63    1.40
   5  -9   7   12.28    1.54
   6  -9   7    1.48    0.60
   7  -9   7    2.01    0.66
   8  -9   7    5.31    1.01
   9  -9   7   -0.22    0.53
   6   8  -7    3.46    1.40
   5   8  -7   11.75    2.00
   4   8  -7    2.56    1.05
   4   8  -7    3.04    1.17
  -4  -8   7    1.77    1.01
   3   8  -7    1.58    0.89
   3   8  -7    2.32    0.93
  -3  -8   7    1.78    1.03
   2   8  -7    0.59    0.63
  -2  -8   7    0.37    0.69
   1   8  -7   -0.36    0.54
  -1  -8   7    0.28    0.47
   0   8  -7   16.88    2.15
   0  -8   7   18.99    1.84
  -1   8  -7    5.16    1.09
   1  -8   7    5.08    0.92
  -2   8  -7   57.97    4.99
   2  -8   7   53.67    4.49
  -3   8  -7   11.05    1.56
   3  -8   7   10.80    1.40
   4  -8   7   -0.19    0.43
   5  -8   7    2.53    0.68
   6  -8   7    4.38    0.86
   7  -8   7    0.42    0.47
   8  -8   7    1.57    0.70
   9  -8   7    3.19    0.80
   9  -8   7    4.05    1.03
  10  -8   7    5.42    1.13
   7   7  -7    2.89    1.39
   7   7  -7    2.26    0.91
   6   7  -7   23.28    3.22
   6   7  -7   26.17    2.59
   5   7  -7   -0.66    0.63
   5   7  -7   -1.23    0.58
   5   7  -7    0.24    0.58
  -5  -7   7   -0.60    0.82
   4   7  -7    0.70    0.53
   4   7  -7    0.72    0.72
   4   7  -7    0.65    0.80
  -4  -7   7    0.32    0.80
   3   7  -7   21.41    2.49
   3   7  -7   18.48    2.60
   3   7  -7   22.25    2.03
  -3  -7   7   18.33    2.50
   2   7  -7    1.98    0.59
   2   7  -7    3.00    0.90
  -2  -7   7    1.61    0.60
  -2  -7   7    2.67    0.96
   1   7  -7    3.79    0.76
   1   7  -7    5.12    1.15
  -1  -7   7    3.90    0.77
   0   7  -7    2.53    0.61
   0   7  -7    2.52    0.79
   0  -7   7    2.21    0.64
  -1   7  -7    5.26    1.14
  -1   7  -7    3.51    0.70
   1  -7   7    4.90    0.84
  -2   7  -7   -0.01    0.41
   2  -7   7    0.59    0.43
  -3   7  -7    3.77    0.85
   3  -7   7    3.93    0.77
  -4   7  -7   25.65    2.41
   4  -7   7   24.05    2.21
   5  -7   7   32.19    2.76
   6  -7   7    1.07    0.55
   7  -7   7   23.51    2.19
   8  -7   7    0.31    0.49
   8  -7   7    0.29    0.56
   9  -7   7    0.05    0.62
  10  -7   7    2.27    0.79
  10  -7   7    2.90    0.81
   8   6  -7    0.05    0.88
   8   6  -7    1.34    0.63
   7   6  -7    2.04    0.72
   7   6  -7    5.52    1.35
   6   6  -7    7.24    1.61
   6   6  -7    4.21    1.28
   6   6  -7    5.52    1.10
  -6  -6   7    4.29    1.19
   5   6  -7    0.67    0.72
   5   6  -7   -0.04    0.46
   5   6  -7   -0.86    0.54
  -5  -6   7   -0.61    0.63
   4   6  -7   34.76    3.23
   4   6  -7   28.72    2.76
   4   6  -7   28.56    3.06
  -4  -6   7   33.64    3.32
   3   6  -7   31.82    3.60
   3   6  -7   43.02    3.30
   3   6  -7   41.66    3.63
  -3  -6   7   38.78    3.89
   2   6  -7    0.15    0.32
   2   6  -7   -0.08    0.50
  -2  -6   7   -0.14    0.32
   1   6  -7   22.24    2.24
   1   6  -7   18.87    1.90
  -1  -6   7   21.38    1.94
   0   6  -7   -0.11    0.38
   0   6  -7    0.00    0.28
   0  -6   7    0.28    0.30
  -1   6  -7    1.45    0.58
  -1   6  -7    1.68    0.49
   1  -6   7    2.36    0.56
  -2   6  -7   28.93    2.85
  -2   6  -7   30.32    2.50
   2  -6   7   30.18    2.56
  -3   6  -7   23.43    2.51
   3  -6   7   31.10    2.38
  -4   6  -7    8.45    1.23
   4  -6   7    9.12    1.15
   5  -6   7    0.29    0.37
   6  -6   7    1.47    0.52
   7  -6   7    7.23    1.10
   8  -6   7    3.37    0.90
   8  -6   7    3.09    0.80
   9  -6   7   11.14    1.50
   9  -6   7   13.74    1.78
  10  -6   7    6.06    1.09
  10  -6   7    8.59    1.41
   9   5  -7    5.91    1.38
   8   5  -7    0.22    0.75
   8   5  -7    1.10    0.70
   7   5  -7    0.19    0.65
   7   5  -7   -0.69    0.48
  -7  -5   7    0.75    0.66
   6   5  -7   12.73    1.92
   6   5  -7   15.93    2.07
   6   5  -7   10.35    1.56
  -6  -5   7   13.48    1.87
   5   5  -7   40.71    3.81
   5   5  -7   42.73    3.41
   5   5  -7   42.80    3.71
  -5  -5   7   33.15    3.85
   4   5  -7    5.58    1.14
   4   5  -7    5.86    1.02
   4   5  -7    5.05    1.09
  -4  -5   7    6.79    1.22
   3   5  -7    1.05    0.63
   3   5  -7   -0.13    0.31
   3   5  -7    0.52    0.51
  -3  -5   7    0.39    0.32
  -3  -5   7    0.55    0.66
   2   5  -7   19.97    2.13
   2   5  -7   22.67    1.88
   2   5  -7   21.21    2.12
  -2  -5   7   16.99    1.78
   1   5  -7   86.68    7.06
   1   5  -7   94.41    7.81
  -1  -5   7   97.25    7.07
   0   5  -7    0.81    0.39
   0   5  -7    0.81    0.48
   0  -5   7    0.03    0.30
  -1   5  -7   58.50    4.62
  -1   5  -7   64.66    5.19
   1  -5   7   55.93    4.61
  -2   5  -7   10.52    1.39
  -2   5  -7   10.56    1.13
   2  -5   7    9.06    1.13
  -3   5  -7   -0.06    0.16
  -3   5  -7   -0.44    0.35
   3  -5   7   -0.26    0.28
   3  -5   7   -0.08    0.24
  -4   5  -7    0.26    0.36
   4  -5   7   -0.11    0.27
  -5   5  -7    2.53    0.60
   5  -5   7    1.88    0.56
   6  -5   7    5.00    0.86
  -7   5  -7    6.88    1.47
   7  -5   7    8.65    1.29
   7  -5   7    5.86    1.02
   8  -5   7    7.77    1.17
   8  -5   7    8.91    1.37
   9  -5   7    2.71    0.94
   9  -5   7    3.65    0.87
  10  -5   7    1.87    0.69
  10  -5   7    0.46    0.76
   9   4  -7   36.19    3.47
   9   4  -7   41.10    3.99
   8   4  -7    0.86    0.66
   8   4  -7    0.66    0.55
   7   4  -7   11.94    1.50
   7   4  -7    9.41    1.61
   7   4  -7    5.86    1.37
  -7  -4   7   11.32    1.67
   6   4  -7    0.76    0.57
   6   4  -7    1.47    0.73
   6   4  -7    2.20    0.64
  -6  -4   7    4.50    0.92
   5   4  -7    5.15    1.05
   5   4  -7    7.14    1.21
   5   4  -7    6.21    0.95
  -5  -4   7    3.98    0.94
   4   4  -7   20.05    2.25
   4   4  -7   19.02    1.95
   4   4  -7   24.37    2.29
  -4  -4   7   23.54    2.39
   3   4  -7   11.97    1.74
   3   4  -7   13.48    1.74
   3   4  -7   14.30    1.45
  -3  -4   7   18.00    1.79
  -3  -4   7   15.66    1.43
   2   4  -7    8.68    1.06
   2   4  -7    7.29    1.18
   2   4  -7    9.48    1.33
  -2  -4   7    8.22    1.01
   1   4  -7   19.26    1.74
   1   4  -7   18.95    1.98
  -1  -4   7   19.06    1.70
   0   4  -7   15.51    1.46
   0   4  -7   14.37    1.67
   0  -4   7   16.23    1.46
  -1   4  -7    0.50    0.42
  -1   4  -7    0.91    0.38
   1  -4   7    2.02    0.52
   1  -4   7    0.79    0.37
  -2   4  -7    0.40    0.28
  -2   4  -7    0.66    0.43
   2  -4   7    0.89    0.37
  -3   4  -7    1.71    0.40
  -3   4  -7    0.93    0.46
   3  -4   7    1.42    0.44
   3  -4   7    1.61    0.43
  -4   4  -7   69.09    5.91
   4  -4   7   71.68    5.44
  -5   4  -7    1.24    0.46
  -5   4  -7    1.10    0.62
   5  -4   7    1.26    0.48
  -6   4  -7   18.41    2.39
   6  -4   7   18.06    1.99
  -7   4  -7    1.38    0.82
   7  -4   7    1.78    0.69
   7  -4   7    1.39    0.58
   8  -4   7    1.27    0.59
   8  -4   7    1.00    0.64
   9  -4   7    7.08    1.33
   9  -4   7    7.86    1.22
  10  -4   7    4.84    1.02
  10  -4   7    4.04    1.11
  10   3  -7    0.02    0.82
  10   3  -7   -0.41    0.55
   9   3  -7    0.15    0.68
   9   3  -7    0.34    0.60
   8   3  -7    0.57    0.79
   8   3  -7    0.50    0.66
   8   3  -7    1.27    0.63
   7   3  -7   26.93    2.64
   7   3  -7   25.60    2.62
   7   3  -7   19.70    2.20
  -7  -3   7   26.17    2.65
   6   3  -7    5.41    0.89
   6   3  -7    2.38    0.86
   6   3  -7    5.80    1.15
  -6  -3   7    5.38    1.00
   5   3  -7   10.57    1.52
   5   3  -7   11.90    1.58
   5   3  -7   11.28    1.33
  -5  -3   7   11.11    1.47
   4   3  -7   75.89    5.31
   4   3  -7   60.03    5.27
   4   3  -7   63.89    5.59
   4   3  -7   70.55    5.87
  -4  -3   7   68.43    6.07
   3   3  -7    0.42    0.45
   3   3  -7    0.59    0.29
   3   3  -7    0.39    0.32
   3   3  -7    0.74    0.48
  -3  -3   7    0.24    0.39
  -3  -3   7    0.49    0.29
   2   3  -7    9.69    1.30
   2   3  -7    8.60    1.08
  -2  -3   7    9.41    1.06
   1   3  -7    3.77    0.76
   1   3  -7    3.36    0.63
  -1  -3   7    2.98    0.57
   0   3  -7    3.56    0.77
   0   3  -7    4.34    0.66
   0  -3   7    4.00    0.65
   0  -3   7    3.66    0.66
  -1   3  -7   49.29    4.02
  -1   3  -7   47.33    3.61
   1  -3   7   40.32    4.14
   1  -3   7   47.61    3.61
  -2   3  -7   17.68    1.58
   2  -3   7   18.63    1.60
   2  -3   7   17.13    1.84
  -3   3  -7   25.99    2.13
  -3   3  -7   29.32    2.63
  -3   3  -7   24.40    2.36
   3  -3   7   23.66    2.15
   3  -3   7   23.71    2.14
  -4   3  -7    1.81    0.68
  -4   3  -7    2.22    0.63
   4  -3   7    2.55    0.56
  -5   3  -7    0.55    0.58
  -5   3  -7    0.67    0.47
   5  -3   7    0.57    0.53
  -6   3  -7    8.17    1.48
   6  -3   7    9.13    1.38
   6  -3   7    7.43    1.07
  -7   3  -7    1.28    0.65
   7  -3   7    0.05    0.49
   7  -3   7   -0.10    0.42
   8  -3   7   16.12    2.08
   8  -3   7   15.58    1.82
   9  -3   7   19.65    2.40
   9  -3   7   17.02    2.02
   9  -3   7   20.11    2.03
  10  -3   7    3.85    0.95
  10   2  -7   -0.54    0.47
  10   2  -7   -0.38    0.73
   9   2  -7   -0.15    0.47
   9   2  -7   -0.17    0.58
   8   2  -7   -0.30    0.39
   8   2  -7   -0.09    0.67
   8   2  -7   -0.12    0.53
   7   2  -7   41.73    3.55
   7   2  -7   35.74    3.10
   7   2  -7   34.98    3.37
  -7  -2   7   34.74    3.51
   6   2  -7    6.62    1.13
   6   2  -7    5.25    0.88
   6   2  -7   10.55    1.34
  -6  -2   7    4.63    0.92
   5   2  -7    0.99    0.50
   5   2  -7    0.55    0.44
   5   2  -7    1.38    0.48
  -5  -2   7    1.28    0.47
   4   2  -7   13.55    1.29
   4   2  -7   12.28    1.26
   4   2  -7   15.14    1.55
   4   2  -7   13.31    1.58
  -4  -2   7   13.91    1.41
  -4  -2   7   10.93    1.15
   3   2  -7    2.57    0.63
   3   2  -7    3.78    0.61
   3   2  -7    3.02    0.70
   3   2  -7    4.67    0.66
  -3  -2   7    2.47    0.45
  -3  -2   7    2.88    0.55
   2   2  -7  195.37   16.04
   2   2  -7  193.70   14.64
   2   2  -7  208.55   14.68
  -2  -2   7  197.67   15.29
  -2  -2   7  198.10   14.59
   1   2  -7    0.32    0.30
   1   2  -7    1.10    0.36
   1   2  -7    1.35    0.51
  -1  -2   7    0.58    0.30
  -1  -2   7    1.36    0.44
  -1  -2   7    0.81    0.31
   0   2  -7   50.88    4.03
   0   2  -7   54.00    4.46
   0  -2   7   50.12    4.59
   0  -2   7   52.28    3.99
  -1   2  -7   36.93    3.26
  -1   2  -7   34.80    2.91
   1  -2   7   38.06    2.93
   1  -2   7   36.61    3.35
  -2   2  -7    0.28    0.29
  -2   2  -7    0.35    0.39
  -2   2  -7    0.57    0.36
   2  -2   7   -0.16    0.31
   2  -2   7    0.25    0.28
  -3   2  -7    1.83    0.60
  -3   2  -7    1.11    0.43
  -3   2  -7    1.45    0.39
   3  -2   7    2.54    0.53
  -4   2  -7    2.29    0.52
  -4   2  -7    3.29    0.83
  -4   2  -7    2.43    0.61
   4  -2   7    3.22    0.75
   4  -2   7    1.47    0.44
  -5   2  -7    1.10    0.57
  -5   2  -7    0.92    0.48
   5  -2   7    0.39    0.36
   5  -2   7    1.78    0.62
  -6   2  -7    9.01    1.28
  -6   2  -7    6.61    1.30
   6  -2   7    7.24    1.05
   6  -2   7    6.12    1.16
  -7   2  -7    2.11    0.78
   7  -2   7    1.53    0.62
   7  -2   7    1.60    0.61
   7  -2   7    1.67    0.70
   7  -2   7    0.40    0.59
   8  -2   7    0.61    0.56
   8  -2   7    2.00    0.71
   8  -2   7    3.17    0.96
   9  -2   7    0.28    0.67
   9  -2   7   -0.58    0.51
   9  -2   7   -0.86    0.61
  10   1  -7   39.10    3.46
  10   1  -7   41.15    3.93
   9   1  -7    4.74    1.15
   9   1  -7    5.22    1.15
   9   1  -7    4.48    0.89
   8   1  -7   10.73    1.34
   8   1  -7    9.17    1.46
   8   1  -7   11.47    1.65
   7   1  -7    2.97    0.67
   7   1  -7    3.61    0.89
   7   1  -7    3.57    0.90
  -7  -1   7    3.39    0.74
   6   1  -7   -0.05    0.38
   6   1  -7    0.33    0.42
   6   1  -7    0.29    0.36
  -6  -1   7   -0.31    0.29
   5   1  -7   11.97    1.12
   5   1  -7   12.34    1.49
   5   1  -7    9.25    1.28
   5   1  -7   11.29    1.25
  -5  -1   7    9.02    1.12
   4   1  -7    3.01    0.57
   4   1  -7    4.12    0.76
   4   1  -7    3.14    0.59
   4   1  -7    3.90    0.76
  -4  -1   7    4.75    0.56
  -4  -1   7    3.86    0.55
   3   1  -7   18.50    1.57
   3   1  -7   10.27    1.56
   3   1  -7   14.88    1.35
   3   1  -7   14.07    1.37
  -3  -1   7   15.17    1.42
  -3  -1   7   15.97    1.29
  -3  -1   7   15.69    1.41
  -3  -1   7   13.09    1.39
   2   1  -7   28.91    2.52
   2   1  -7   26.77    2.20
   2   1  -7   26.77    2.24
  -2  -1   7   29.32    2.34
  -2  -1   7   28.61    2.42
  -2  -1   7   22.02    2.12
   1   1  -7   11.78    1.05
   1   1  -7    9.86    0.96
   1   1  -7    8.59    1.17
  -1  -1   7   11.13    1.10
  -1  -1   7    9.22    0.93
  -1  -1   7    8.40    0.96
   0   1  -7    7.58    0.89
   0   1  -7    7.71    1.04
   0  -1   7    7.50    0.86
   0  -1   7    7.17    0.85
  -1   1  -7    6.98    0.90
  -1   1  -7    9.34    1.01
  -1   1  -7    7.94    1.11
   1  -1   7    7.62    1.03
  -2   1  -7    2.98    0.63
  -2   1  -7    1.34    0.50
  -2   1  -7    1.69    0.45
   2  -1   7    2.50    0.62
   2  -1   7    1.52    0.39
   2  -1   7    1.65    0.50
  -3   1  -7  153.65   12.63
  -3   1  -7  167.00   13.86
  -3   1  -7  190.79   14.90
   3  -1   7  184.20   12.70
   3  -1   7  161.47   13.89
  -4   1  -7    0.26    0.32
  -4   1  -7    0.99    0.54
  -4   1  -7    1.52    0.53
   4  -1   7    1.00    0.51
   4  -1   7    1.22    0.46
  -5   1  -7   17.81    2.05
  -5   1  -7   15.78    1.84
   5  -1   7   20.06    1.73
   5  -1   7   16.57    1.90
   5  -1   7   16.93    1.69
  -6   1  -7    0.72    0.66
   6  -1   7    2.80    0.75
   6  -1   7    1.71    0.63
   6  -1   7    1.25    0.57
   6  -1   7    1.21    0.49
  -7   1  -7    1.19    0.85
   7  -1   7    1.33    0.62
   7  -1   7    0.33    0.61
   7  -1   7    0.42    0.52
   7  -1   7    1.52    0.61
   8  -1   7   11.65    1.51
   8  -1   7   10.14    1.69
   8  -1   7   11.76    1.55
   9  -1   7    3.40    1.12
   9  -1   7    2.13    0.76
   9  -1   7    2.65    0.87
  11   0  -7   -0.38    0.68
  10   0  -7    0.43    0.55
  10   0  -7   -0.22    0.45
   9   0  -7   -0.03    0.51
   9   0  -7    1.27    0.68
   9   0  -7    0.35    0.40
   8   0  -7   56.66    4.80
   8   0  -7   50.67    4.59
   8   0  -7   54.14    4.30
   7   0  -7    3.43    0.80
   7   0  -7    1.80    0.68
   7   0  -7    3.37    0.65
  -7   0   7    4.24    0.76
   6   0  -7    1.41    0.43
   6   0  -7    0.44    0.48
   6   0  -7    0.53    0.45
  -6   0   7    0.71    0.38
   5   0  -7   77.38    6.31
   5   0  -7   78.48    6.59
   5   0  -7   82.71    5.98
   5   0  -7   73.63    5.95
  -5   0   7   80.56    6.82
   4   0  -7    3.37    0.56
   4   0  -7    3.54    0.73
   4   0  -7    3.85    0.69
   4   0  -7    2.44    0.50
  -4   0   7    3.67    0.59
  -4   0   7    4.24    0.64
   3   0  -7   -0.13    0.30
   3   0  -7   -0.11    0.22
   3   0  -7    0.02    0.22
   3   0  -7   -0.28    0.26
  -3   0   7    0.21    0.19
  -3   0   7    0.38    0.35
  -3   0   7    0.30    0.23
   2   0  -7    0.21    0.21
   2   0  -7    0.41    0.36
   2   0  -7    0.40    0.29
  -2   0   7    0.09    0.17
  -2   0   7    0.44    0.20
  -2   0   7    0.50    0.31
   1   0  -7    2.21    0.54
   1   0  -7    3.27    0.53
   1   0  -7    3.83    0.58
  -1   0   7    4.14    0.54
  -1   0   7    2.70    0.54
  -1   0   7    4.18    0.48
   0   0  -7   62.59    5.10
   0   0  -7   59.00    4.46
   0   0  -7   47.53    4.86
   0   0   7   61.12    4.48
   0   0   7   54.00    5.06
   0   0   7   58.51    4.41
   0   0   7   61.75    4.88
  -1   0  -7   22.00    2.02
  -1   0  -7   19.23    1.79
  -1   0  -7   21.32    2.01
   1   0   7   19.07    1.99
   1   0   7   19.39    1.74
   1   0   7   22.00    2.01
   1   0   7   20.48    1.76
  -2   0  -7    5.10    0.86
  -2   0  -7    6.47    0.80
  -2   0  -7    5.24    0.84
   2   0   7    5.47    0.89
   2   0   7    2.93    0.69
   2   0   7    6.09    0.78
   2   0   7    6.66    0.78
  -3   0  -7    2.58    0.67
  -3   0  -7    1.80    0.48
  -3   0  -7    2.07    0.63
   3   0   7    2.15    0.59
   3   0   7    2.53    0.52
   3   0   7    2.75    0.57
  -4   0  -7    4.94    0.80
  -4   0  -7    5.34    1.00
  -4   0  -7    4.47    0.92
   4   0   7    4.92    0.96
   4   0   7    3.83    0.74
   4   0   7    6.16    0.87
  -5   0  -7   18.59    2.22
  -5   0  -7   22.17    2.44
   5   0   7   21.15    2.00
   5   0   7   22.22    2.00
   5   0   7   22.84    2.13
   5   0   7   23.60    2.32
  -6   0  -7    0.50    0.69
   6   0   7   -0.23    0.41
   6   0   7    0.59    0.56
   6   0   7    0.00    0.36
   6   0   7    0.62    0.63
   7   0   7    5.36    1.06
   7   0   7    5.90    1.00
   7   0   7    5.75    1.14
   7   0   7    4.56    0.92
   8   0   7    4.58    0.95
   8   0   7    4.69    1.29
   8   0   7    4.85    1.02
   9   0   7   -0.44    0.64
   9   0   7    0.47    0.59
  11  -1  -7    0.91    0.59
  11  -1  -7    2.00    0.74
  10  -1  -7   -0.18    0.42
  10  -1  -7    0.35    0.52
   9  -1  -7    4.74    0.81
   9  -1  -7    3.93    0.95
   9  -1  -7    6.17    1.05
   8  -1  -7   40.53    3.22
   8  -1  -7   43.33    3.52
   8  -1  -7   34.73    3.53
   7  -1  -7    5.25    0.98
   7  -1  -7    7.30    0.93
   7  -1  -7    8.21    1.14
   6  -1  -7    0.23    0.27
   6  -1  -7   -0.04    0.35
   6  -1  -7   -0.12    0.39
   6  -1  -7   -0.14    0.25
  -6   1   7   -0.26    0.34
  -6   1   7    0.10    0.24
   5  -1  -7    5.51    0.78
   5  -1  -7    6.44    0.93
   5  -1  -7    7.51    0.98
   5  -1  -7    5.78    0.74
  -5   1   7    7.96    0.99
  -5   1   7    5.30    0.78
   4  -1  -7    0.19    0.30
   4  -1  -7   -0.08    0.22
   4  -1  -7    0.50    0.36
   4  -1  -7    0.54    0.28
  -4   1   7    0.43    0.25
  -4   1   7    0.05    0.24
  -4   1   7    0.48    0.37
   3  -1  -7  132.61    9.06
   3  -1  -7  119.30    9.08
   3  -1  -7  122.70    9.94
  -3   1   7  125.03    8.93
  -3   1   7  113.87   10.18
  -3   1   7  117.04    9.83
  -3   1   7  124.11    9.39
   2  -1  -7    0.02    0.21
   2  -1  -7   -0.13    0.27
   2  -1  -7    0.22    0.26
  -2   1   7   -0.06    0.27
  -2   1   7   -0.03    0.16
  -2   1   7   -0.16    0.23
   1  -1  -7   27.46    2.37
   1  -1  -7   26.19    2.16
   1  -1  -7   26.23    2.18
  -1   1   7   28.23    2.23
  -1   1   7   29.39    2.12
  -1   1   7   24.69    2.35
  -1   1   7   25.11    2.10
  -1   1   7   24.38    2.35
   0  -1  -7   30.39    2.93
   0  -1  -7   34.17    2.69
   0  -1  -7   25.83    2.64
   0  -1  -7   34.82    2.98
   0   1   7   31.57    2.61
   0   1   7   32.96    2.60
   0   1   7   37.20    2.98
   0   1   7   33.35    2.90
  -1  -1  -7    8.64    1.21
  -1  -1  -7   10.51    1.14
  -1  -1  -7   10.99    1.20
   1   1   7    9.12    1.10
   1   1   7    8.38    1.01
   1   1   7   10.44    1.27
   1   1   7    9.66    0.97
  -2  -1  -7    5.20    0.90
  -2  -1  -7    6.31    0.90
  -2  -1  -7    7.42    1.01
   2   1   7    5.60    0.78
   2   1   7    5.99    0.79
   2   1   7    5.71    0.95
  -3  -1  -7    0.83    0.48
  -3  -1  -7    0.35    0.47
  -3  -1  -7    0.48    0.34
   3   1   7    0.55    0.31
   3   1   7   -0.16    0.28
   3   1   7    0.09    0.40
  -4  -1  -7    0.25    0.48
  -4  -1  -7   -0.01    0.50
   4   1   7   -0.17    0.41
   4   1   7    0.12    0.34
   4   1   7   -0.03    0.34
   4   1   7    0.45    0.39
  -5  -1  -7   45.96    4.82
   5   1   7   48.99    4.06
   5   1   7   46.24    4.50
   5   1   7   57.71    4.30
   5   1   7   52.61    4.16
  -6  -1  -7   10.60    1.68
   6   1   7    8.11    1.45
   6   1   7    7.59    1.17
   6   1   7    9.46    1.36
   6   1   7   10.03    1.31
   7   1   7   -0.37    0.49
   7   1   7    1.32    0.80
   7   1   7    0.33    0.53
   7   1   7   -0.06    0.57
   8   1   7    0.53    0.82
   8   1   7    0.11    0.57
   8   1   7   -0.37    0.60
  11  -2  -7   22.19    2.11
  10  -2  -7    1.26    0.70
  10  -2  -7    0.53    0.45
  10  -2  -7   -1.03    0.49
   9  -2  -7    7.42    1.22
   9  -2  -7    7.81    1.05
   9  -2  -7    9.80    1.35
   8  -2  -7    0.30    0.45
   8  -2  -7    0.00    0.32
   8  -2  -7    0.90    0.45
   7  -2  -7    4.00    0.74
   7  -2  -7    4.11    0.76
   7  -2  -7    3.16    0.59
  -7   2   7    2.73    0.73
   6  -2  -7   31.80    2.91
   6  -2  -7   33.79    2.63
   6  -2  -7   34.27    2.84
   6  -2  -7   34.05    2.59
  -6   2   7   29.45    2.99
   5  -2  -7    0.88    0.27
   5  -2  -7    0.50    0.33
   5  -2  -7    1.24    0.34
   5  -2  -7    1.55    0.45
  -5   2   7    0.59    0.46
  -5   2   7    1.11    0.34
   4  -2  -7    0.41    0.33
   4  -2  -7    0.52    0.33
   4  -2  -7    0.11    0.26
   4  -2  -7    0.12    0.19
  -4   2   7    0.08    0.20
  -4   2   7    0.09    0.19
  -4   2   7    0.60    0.42
   3  -2  -7   29.49    2.69
   3  -2  -7   33.65    2.47
   3  -2  -7   30.13    2.41
  -3   2   7   28.90    2.58
  -3   2   7   29.21    2.41
  -3   2   7   31.37    2.83
   2  -2  -7   14.22    1.28
   2  -2  -7   16.28    1.50
   2  -2  -7   14.08    1.30
  -2   2   7   12.67    1.21
  -2   2   7   15.22    1.40
  -2   2   7   14.31    1.19
   1  -2  -7    5.56    0.68
   1  -2  -7    3.97    0.74
   1  -2  -7    3.90    0.55
   1  -2  -7    4.26    0.65
  -1   2   7    5.44    0.76
  -1   2   7    4.76    0.63
  -1   2   7    4.26    0.54
  -1   2   7    3.20    0.52
   0  -2  -7   10.82    1.17
   0  -2  -7   10.14    1.31
   0   2   7    9.54    0.99
   0   2   7   10.75    1.19
   0   2   7   10.65    1.16
   0   2   7   10.64    1.00
  -1  -2  -7    2.54    0.56
  -1  -2  -7    1.81    0.56
  -1  -2  -7    1.94    0.53
   1   2   7    2.32    0.55
   1   2   7    2.66    0.63
   1   2   7    1.31    0.41
   1   2   7    2.65    0.50
  -2  -2  -7   70.17    6.01
  -2  -2  -7   64.39    5.13
  -2  -2  -7   65.21    5.67
   2   2   7   65.17    5.65
   2   2   7   66.23    5.19
   2   2   7   64.22    5.10
   2   2   7   68.13    5.27
  -3  -2  -7    0.51    0.35
  -3  -2  -7   -0.29    0.50
  -3  -2  -7   -0.34    0.35
   3   2   7    0.03    0.42
   3   2   7    0.31    0.36
   3   2   7    0.30    0.34
   3   2   7   -0.24    0.30
  -4  -2  -7   11.51    1.72
   4   2   7    9.53    1.28
   4   2   7   10.43    1.30
   4   2   7   11.70    1.34
   4   2   7   10.68    1.51
  -5  -2  -7    5.61    1.27
   5   2   7    7.86    1.31
   5   2   7    7.62    1.12
   5   2   7    7.00    1.07
   5   2   7    9.09    1.20
   6   2   7    1.40    0.62
   6   2   7    4.20    0.82
   6   2   7    4.38    1.07
   7   2   7   -0.15    0.53
   7   2   7    1.06    0.79
   8   2   7    2.96    1.28
  11  -3  -7    0.35    0.38
  10  -3  -7    1.03    0.72
  10  -3  -7    0.86    0.48
   9  -3  -7   22.93    1.88
   9  -3  -7   17.88    2.19
   8  -3  -7    7.21    1.13
   8  -3  -7   10.83    1.32
   8  -3  -7   10.93    1.11
  -8   3   7    9.96    1.45
   7  -3  -7    0.74    0.33
   7  -3  -7    0.88    0.28
   7  -3  -7    0.59    0.40
   7  -3  -7    0.23    0.39
  -7   3   7    0.50    0.57
   6  -3  -7   57.99    4.33
   6  -3  -7   48.35    4.02
   6  -3  -7   55.68    4.09
   6  -3  -7   53.99    4.47
  -6   3   7   50.61    4.73
   5  -3  -7    0.92    0.33
   5  -3  -7    0.83    0.35
   5  -3  -7    1.02    0.34
   5  -3  -7    0.75    0.26
  -5   3   7    0.16    0.45
   4  -3  -7    1.24    0.30
   4  -3  -7    1.18    0.35
   4  -3  -7    1.38    0.42
  -4   3   7   -0.10    0.40
  -4   3   7    0.67    0.20
   3  -3  -7    0.50    0.33
   3  -3  -7    1.02    0.31
   3  -3  -7    0.73    0.32
  -3   3   7    1.00    0.31
  -3   3   7    1.10    0.54
   2  -3  -7    5.59    0.73
   2  -3  -7    6.02    0.81
   2  -3  -7    5.22    0.88
  -2   3   7    7.30    1.15
  -2   3   7    6.81    0.71
  -2   3   7    7.60    0.89
   1  -3  -7  125.26    9.34
   1  -3  -7  126.38    9.41
   1  -3  -7  137.56   10.29
   1  -3  -7  124.20   10.81
  -1   3   7  132.98   10.21
  -1   3   7  119.63    9.40
  -1   3   7  127.86    9.27
  -1   3   7  116.11    9.58
   0  -3  -7    5.93    0.93
   0  -3  -7    4.62    0.73
   0  -3  -7    5.27    0.80
   0   3   7    4.37    0.63
   0   3   7    3.54    0.72
   0   3   7    4.07    0.75
   0   3   7    4.40    0.54
  -1  -3  -7    0.14    0.36
  -1  -3  -7    0.14    0.32
  -1  -3  -7    0.06    0.41
   1   3   7    0.21    0.26
   1   3   7    0.34    0.28
   1   3   7    0.34    0.25
   1   3   7    0.69    0.49
  -2  -3  -7    0.04    0.43
  -2  -3  -7    0.24    0.35
  -2  -3  -7    0.59    0.47
   2   3   7    0.30    0.29
   2   3   7    0.68    0.53
   2   3   7    0.50    0.36
   2   3   7    0.23    0.31
  -3  -3  -7   -0.48    0.47
  -3  -3  -7   -0.28    0.34
   3   3   7    0.11    0.47
   3   3   7   -0.45    0.27
   3   3   7    0.33    0.32
   3   3   7   -0.47    0.30
  -4  -3  -7   47.33    5.23
   4   3   7   57.95    4.67
   4   3   7   54.10    5.01
   4   3   7   65.10    4.55
  -5  -3  -7    7.32    1.54
   5   3   7    5.27    1.02
   5   3   7    8.65    1.22
   5   3   7    9.27    1.50
   6   3   7    1.87    0.95
   6   3   7    2.66    0.88
   7   3   7   18.50    2.51
   8  -4  -7    6.25    0.95
  -8   4   7    6.42    1.22
   7  -4  -7    1.05    0.47
  -7   4   7    1.78    0.70
   6  -4  -7    5.21    0.66
   6  -4  -7    6.82    0.85
   6  -4  -7    8.31    0.87
  -6   4   7    5.08    1.11
   5  -4  -7    0.23    0.28
   5  -4  -7   -0.04    0.29
   5  -4  -7    0.07    0.26
   5  -4  -7    0.47    0.26
  -5   4   7    0.19    0.43
   4  -4  -7   71.78    5.58
   4  -4  -7   71.58    5.54
   4  -4  -7   79.06    6.14
   4  -4  -7   75.06    5.62
  -4   4   7   71.97    6.48
   3  -4  -7    3.85    0.56
   3  -4  -7    4.17    0.61
   3  -4  -7    3.34    0.58
   3  -4  -7    4.03    0.72
  -3   4   7    4.79    1.01
  -3   4   7    3.94    0.62
   2  -4  -7    9.38    1.03
   2  -4  -7    7.16    1.03
   2  -4  -7    9.73    1.03
   2  -4  -7    9.96    1.01
   2  -4  -7   10.67    1.26
  -2   4   7   10.58    1.51
  -2   4   7   10.48    1.10
   1  -4  -7   49.01    4.02
   1  -4  -7   47.29    3.66
   1  -4  -7   44.92    4.09
   1  -4  -7   47.36    3.71
  -1   4   7   40.53    3.90
   0  -4  -7    0.08    0.41
   0  -4  -7   -0.25    0.31
   0  -4  -7    0.35    0.32
   0   4   7   -0.32    0.31
   0   4   7    0.10    0.19
  -1  -4  -7   -0.42    0.39
  -1  -4  -7    0.87    0.39
  -1  -4  -7    0.10    0.43
   1   4   7    0.16    0.42
   1   4   7    0.31    0.25
  -2  -4  -7    1.19    0.56
  -2  -4  -7   -0.25    0.40
   2   4   7    0.64    0.36
   2   4   7    0.00    0.48
  -3  -4  -7    3.36    0.86
  -3  -4  -7    2.05    0.68
   3   4   7    2.18    0.74
   3   4   7    1.18    0.53
  -4  -4  -7   21.14    2.70
   4   4   7   26.30    2.28
   4   4   7   23.02    2.56
   5   4   7    1.54    0.70
   5   4   7    1.12    0.82
   6   4   7   -0.04    0.77
  -9   5   7   -0.25    0.66
  -8   5   7    6.01    1.24
  -7   5   7   30.71    3.12
   6  -5  -7   -0.06    0.28
   6  -5  -7    0.30    0.27
  -6   5   7    0.58    0.59
   5  -5  -7    5.18    0.71
   5  -5  -7    5.94    0.86
   5  -5  -7    7.10    0.73
  -5   5   7    6.33    1.16
   4  -5  -7    0.31    0.36
   4  -5  -7    0.51    0.34
  -4   5   7    0.66    0.65
   3  -5  -7    0.73    0.43
   3  -5  -7    1.22    0.35
   3  -5  -7    0.48    0.40
  -3   5   7    0.64    0.63
   2  -5  -7   18.28    1.81
   2  -5  -7   17.73    1.63
   2  -5  -7   16.35    1.70
  -2   5   7   18.02    2.03
  -2   5   7   16.86    1.71
   1  -5  -7   23.82    2.33
   1  -5  -7   23.17    2.08
   1  -5  -7   22.49    2.27
  -1   5   7   21.66    2.21
  -1   5   7   26.05    2.57
   0  -5  -7    2.94    0.69
   0  -5  -7    2.74    0.63
   0  -5  -7    1.79    0.63
   0   5   7    2.67    0.72
  -1  -5  -7   59.91    5.47
  -1  -5  -7   59.89    4.73
   1   5   7   58.42    5.19
  -2  -5  -7    0.15    0.53
  -2  -5  -7   -0.30    0.39
   2   5   7   -0.75    0.48
  -3  -5  -7    4.46    1.07
   3   5   7    6.35    1.29
  -4  -5  -7    1.56    0.78
   4   5   7    0.00    0.62
   5   5   7    3.50    1.24
   6   5   7   17.65    2.62
  -9   6   7   10.05    1.75
  -8   6   7   -0.45    0.64
  -7   6   7   65.96    6.03
   6  -6  -7    0.34    0.31
   6  -6  -7    0.18    0.36
  -6   6   7    0.31    0.66
   5  -6  -7    1.58    0.42
   5  -6  -7    1.21    0.44
  -5   6   7    0.99    0.70
   4  -6  -7    1.35    0.42
   4  -6  -7    1.01    0.49
  -4   6   7    1.28    0.75
   3  -6  -7   25.21    2.80
   3  -6  -7   33.17    2.60
   3  -6  -7   32.82    2.84
  -3   6   7   29.99    3.15
   2  -6  -7   36.69    3.28
   2  -6  -7   42.04    3.71
   2  -6  -7   40.61    3.69
  -2   6   7   42.49    3.96
   1  -6  -7    0.04    0.33
   1  -6  -7    0.21    0.48
   1  -6  -7    0.38    0.37
  -1   6   7    0.12    0.42
  -1   6   7    0.61    0.73
   0  -6  -7    2.35    0.67
   0  -6  -7    2.42    0.66
   0   6   7    1.37    0.65
   0   6   7    2.15    0.94
  -1  -6  -7    0.14    0.49
  -1  -6  -7   -0.11    0.56
   1   6   7   -0.29    0.49
   1   6   7    1.51    0.92
  -2  -6  -7    1.19    0.63
  -2  -6  -7    0.26    0.50
   2   6   7    0.08    0.59
  -3  -6  -7   13.41    1.94
   3   6   7   11.94    1.84
   4   6   7   -0.34    0.69
   5   6   7   -0.46    0.72
 -10   7   7    3.25    1.17
  -9   7   7    1.29    0.92
  -8   7   7    1.08    0.86
   7  -7  -7    3.38    0.59
  -7   7   7    3.04    1.05
   6  -7  -7   -0.37    0.30
   6  -7  -7    0.60    0.42
  -6   7   7   -0.14    0.66
   5  -7  -7   56.44    4.73
   5  -7  -7   53.90    4.27
  -5   7   7   53.21    5.11
   4  -7  -7    4.85    0.89
   4  -7  -7    2.42    0.64
  -4   7   7    2.01    0.89
   3  -7  -7    2.81    0.63
  -3   7   7    4.10    1.24
   2  -7  -7   12.65    1.43
   2  -7  -7    9.93    1.29
  -2   7   7   11.31    1.79
   1  -7  -7    3.35    0.79
   1  -7  -7    4.90    0.88
  -1   7   7    3.61    1.10
   0  -7  -7    2.91    0.85
   0  -7  -7    3.77    0.85
   0   7   7    3.28    1.18
  -1  -7  -7    2.43    0.70
  -1  -7  -7    1.58    0.80
   1   7   7    1.89    1.01
   1   7   7    2.04    0.74
  -2  -7  -7   -0.78    0.71
   2   7   7    0.50    1.04
   2   7   7    0.96    0.66
   3   7   7    4.77    1.39
   3   7   7    5.46    1.55
   4   7   7    0.86    1.11
   4   7   7    2.60    1.08
 -10   8   7    0.72    1.06
  -9   8   7    3.26    1.26
  -8   8   7    5.78    1.43
   7  -8  -7    2.90    0.58
  -7   8   7    1.80    1.04
   6  -8  -7    0.92    0.41
  -6   8   7    0.74    0.90
   5  -8  -7    8.37    1.08
  -5   8   7    8.79    1.72
   4  -8  -7    1.74    0.55
  -4   8   7    0.54    0.86
   3  -8  -7    4.84    0.86
  -3   8   7    3.73    1.10
   2  -8  -7   22.19    2.02
  -2   8   7   17.53    2.57
   1  -8  -7    4.84    0.98
  -1   8   7    4.37    1.27
   0  -8  -7   47.63    4.14
   0   8   7   49.84    4.85
  -1  -8  -7    3.34    0.97
  -1  -8  -7    1.56    0.75
   1   8   7    3.23    1.26
   2   8   7    0.51    1.09
   3   8   7    1.15    1.27
  -9   9   7    0.37    1.10
   8  -9  -7   12.10    1.19
  -8   9   7    8.78    1.92
   7  -9  -7    2.94    0.63
  -7   9   7    1.24    1.05
   6  -9  -7    0.00    0.35
  -6   9   7    1.43    1.01
   5  -9  -7    1.90    0.64
  -5   9   7   -0.02    0.94
   4  -9  -7    2.43    0.71
  -4   9   7    1.24    1.03
   3  -9  -7   11.63    1.47
  -3   9   7   12.14    2.13
   2  -9  -7    0.46    0.50
  -2   9   7    1.14    0.96
   1  -9  -7    0.54    0.71
  -1   9   7   -0.09    0.86
   0  -9  -7    0.85    0.77
   0   9   7    0.48    1.03
   1   9   7    0.24    1.15
   8 -10  -7   10.70    1.23
  -8  10   7   10.15    2.04
   7 -10  -7    1.27    0.57
  -7  10   7    1.38    1.09
   6 -10  -7   26.12    2.25
  -6  10   7   18.87    3.18
   5 -10  -7    5.17    0.99
  -5  10   7    5.05    1.68
   4 -10  -7    1.17    0.60
  -4  10   7   -0.67    0.89
   3 -10  -7    1.51    0.73
  -3  10   7    1.61    1.21
   2 -10  -7    2.05    0.83
  -2  10   7    2.68    1.24
   1 -10  -7    2.04    0.85
  -1  10   7    2.78    1.28
   0 -10  -7    1.44    1.00
   0  10   7    2.97    1.48
   4 -11  -7    0.49    0.68
   3 -11  -7    7.44    1.37
   2 -13   8    0.51    0.92
   3 -13   8    0.52    0.99
   4 -13   8    3.20    1.03
   5 -13   8   -0.47    0.70
   1 -12   8    3.08    0.99
   2 -12   8    1.83    0.91
   3 -12   8    3.17    1.00
   4 -12   8    2.04    0.78
   5 -12   8    0.61    0.76
   6 -12   8   21.69    2.44
   3  11  -8   -1.42    0.98
   2  11  -8   10.89    2.26
   1  11  -8    0.39    0.78
   0  11  -8   -0.33    0.66
   1 -11   8    9.75    1.56
   2 -11   8    1.58    0.83
   3 -11   8    7.74    1.29
   4 -11   8    0.31    0.54
   5 -11   8    0.27    0.66
   6 -11   8    0.58    0.62
   7 -11   8    0.04    0.63
   4  10  -8    1.06    1.10
   3  10  -8    3.01    1.21
   2  10  -8    8.61    1.78
   1  10  -8    1.01    0.81
   0  10  -8   24.30    3.04
   0 -10   8   22.89    2.57
  -1  10  -8    2.33    0.88
   1 -10   8    4.22    0.97
   2 -10   8    1.11    0.75
   3 -10   8    3.53    0.88
   4 -10   8    0.81    0.64
   5 -10   8    0.73    0.60
   6 -10   8   -0.52    0.51
   7 -10   8    7.11    1.23
   8 -10   8    8.84    1.41
   5   9  -8    1.40    0.92
   4   9  -8    1.01    0.79
   3   9  -8    7.12    1.52
   2   9  -8    0.36    0.84
  -2  -9   8    1.17    1.14
   1   9  -8    8.36    1.58
  -1  -9   8   12.60    1.59
   0   9  -8    6.45    1.40
   0  -9   8    7.53    1.26
  -1   9  -8    2.65    1.00
   1  -9   8    3.85    0.93
  -2   9  -8   15.95    2.13
   2  -9   8   12.10    1.66
   3  -9   8   28.76    2.65
   4  -9   8   -0.42    0.48
   5  -9   8   24.69    2.34
   6  -9   8    0.27    0.55
   7  -9   8    1.69    0.71
   8  -9   8    0.92    0.63
   9  -9   8    2.38    0.89
   6   8  -8    1.71    1.13
   5   8  -8    8.54    1.70
   4   8  -8    1.70    0.92
  -4  -8   8    0.33    0.98
   3   8  -8   18.42    2.52
  -3  -8   8   20.73    2.66
   2   8  -8    0.87    1.06
  -2  -8   8    0.31    0.81
   1   8  -8    0.13    0.60
  -1  -8   8    0.50    0.51
   0   8  -8    4.27    1.19
   0  -8   8    5.19    1.00
  -1   8  -8   32.11    3.30
   1  -8   8   34.98    2.97
  -2   8  -8   10.92    1.73
   2  -8   8   10.45    1.38
  -3   8  -8   -0.11    0.48
   3  -8   8   -0.08    0.44
   4  -8   8    0.81    0.53
   5  -8   8   -0.22    0.44
   6  -8   8    0.12    0.49
   7  -8   8   13.32    1.65
   8  -8   8    7.99    1.23
   9  -8   8    2.09    0.98
   9  -8   8    3.39    0.89
   7   7  -8    6.45    1.54
   7   7  -8    8.64    1.47
   6   7  -8    3.86    1.38
   6   7  -8    3.68    0.95
   5   7  -8   -0.15    0.52
   5   7  -8   -0.22    0.76
  -5  -7   8    0.88    0.85
   4   7  -8    1.67    0.85
   4   7  -8   -0.19    0.47
   4   7  -8    1.61    0.77
  -4  -7   8    1.03    0.99
   3   7  -8   62.29    5.58
   3   7  -8   64.55    4.97
   3   7  -8   57.44    5.34
  -3  -7   8   59.58    5.81
   2   7  -8    1.44    0.73
   2   7  -8    2.93    0.72
  -2  -7   8    1.57    0.53
   1   7  -8   40.89    3.13
   1   7  -8   35.79    3.47
  -1  -7   8   31.31    3.01
   0   7  -8   19.55    2.17
   0   7  -8   18.84    1.86
   0  -7   8   19.90    1.89
  -1   7  -8    1.85    0.68
   1  -7   8    1.05    0.53
  -2   7  -8    4.76    1.07
   2  -7   8    4.88    0.86
  -3   7  -8    5.35    1.07
   3  -7   8    6.55    0.98
  -4   7  -8    3.22    0.82
   4  -7   8    4.29    0.84
   5  -7   8   18.84    1.87
   6  -7   8    1.38    0.58
   7  -7   8   11.03    1.46
   8  -7   8    0.07    0.59
   8  -7   8    0.26    0.60
   9  -7   8    0.30    0.74
   8   6  -8    0.85    0.85
   8   6  -8    2.61    1.10
   7   6  -8    0.20    0.73
   7   6  -8   -0.05    0.58
   6   6  -8    0.30    0.69
   6   6  -8   -0.01    0.54
  -6  -6   8   -1.36    0.71
   5   6  -8    3.75    0.88
   5   6  -8    3.78    1.13
   5   6  -8    4.50    1.13
  -5  -6   8    1.74    0.95
   4   6  -8    4.51    1.07
   4   6  -8    2.69    0.76
   4   6  -8    3.50    1.06
  -4  -6   8    4.34    1.05
   3   6  -8    3.65    0.75
   3   6  -8    4.29    1.03
   3   6  -8    4.06    1.03
  -3  -6   8    3.10    0.98
   2   6  -8   11.83    1.44
   2   6  -8   13.63    1.93
  -2  -6   8   11.68    1.43
   1   6  -8    2.91    0.86
   1   6  -8    3.71    0.78
  -1  -6   8    2.00    0.59
   0   6  -8    5.83    0.91
   0   6  -8    5.14    1.14
   0  -6   8    5.94    0.91
  -1   6  -8    1.45    0.65
  -1   6  -8    1.16    0.48
   1  -6   8    2.14    0.59
  -2   6  -8   65.56    5.15
  -2   6  -8   67.76    5.69
   2  -6   8   62.91    5.11
  -3   6  -8    1.29    0.55
   3  -6   8    1.44    0.51
  -4   6  -8   22.08    2.50
   4  -6   8   32.39    2.44
   5  -6   8    1.64    0.56
   6  -6   8    0.33    0.51
   7  -6   8    0.15    0.47
   7  -6   8    0.44    0.61
   8  -6   8    5.98    1.21
   9  -6   8    9.83    1.38
   9  -6   8    9.91    1.61
   8   5  -8    3.51    1.11
   8   5  -8    4.95    1.10
   7   5  -8   13.95    2.00
   7   5  -8   13.54    1.71
  -7  -5   8    9.68    1.73
   6   5  -8   54.58    4.76
   6   5  -8   49.65    4.19
   6   5  -8   46.34    4.49
  -6  -5   8   47.83    4.76
   5   5  -8    4.62    1.05
   5   5  -8    4.03    0.84
   5   5  -8    0.59    0.58
  -5  -5   8    3.42    0.95
   4   5  -8   10.04    1.61
   4   5  -8   10.60    1.35
   4   5  -8   10.09    1.58
  -4  -5   8   12.80    1.65
   3   5  -8   -0.15    0.56
   3   5  -8    0.78    0.63
   3   5  -8   -0.04    0.33
  -3  -5   8   -0.12    0.48
   2   5  -8    0.24    0.36
   2   5  -8    0.19    0.48
  -2  -5   8    0.06    0.33
   1   5  -8   25.05    2.57
   1   5  -8   23.91    2.24
  -1  -5   8   27.06    2.24
   0   5  -8    7.80    1.06
   0   5  -8    5.78    1.10
   0  -5   8    6.02    0.92
  -1   5  -8   33.89    2.94
  -1   5  -8   38.53    3.38
   1  -5   8   34.97    2.94
  -2   5  -8   -0.14    0.39
  -2   5  -8    0.34    0.29
   2  -5   8   -0.13    0.34
  -3   5  -8   15.43    1.68
   3  -5   8   14.02    1.59
  -4   5  -8   12.29    1.53
   4  -5   8   10.82    1.37
  -5   5  -8    1.77    0.62
   5  -5   8    2.32    0.61
   6  -5   8   10.79    1.41
  -7   5  -8    7.85    1.51
   7  -5   8    9.70    1.47
   8  -5   8   -0.10    0.63
   8  -5   8   -0.15    0.46
   9  -5   8    6.50    1.33
   9  -5   8    3.88    0.95
   9   4  -8   22.47    2.29
   9   4  -8   10.66    1.95
   8   4  -8    7.02    1.44
   8   4  -8    8.37    1.34
   7   4  -8    3.43    1.07
   7   4  -8    1.89    0.76
   7   4  -8    1.85    1.00
  -7  -4   8    1.84    0.88
   6   4  -8   -0.26    0.59
   6   4  -8    0.49    0.51
   6   4  -8    1.13    0.69
  -6  -4   8    0.03    0.50
   5   4  -8    2.34    0.64
   5   4  -8    3.66    0.90
   5   4  -8    2.49    0.85
  -5  -4   8    2.24    0.76
   4   4  -8   25.36    2.53
   4   4  -8   26.80    2.63
   4   4  -8   21.82    2.21
  -4  -4   8   26.57    2.58
   3   4  -8    8.60    1.30
   3   4  -8    5.47    1.13
   3   4  -8    8.15    1.04
  -3  -4   8    9.40    1.04
  -3  -4   8    6.21    1.07
   2   4  -8   35.68    3.35
   2   4  -8   33.55    2.98
  -2  -4   8   37.88    2.94
   1   4  -8   42.20    3.69
   1   4  -8   47.76    4.16
  -1  -4   8   48.30    3.68
   0   4  -8    2.58    0.57
   0   4  -8    2.65    0.73
   0  -4   8    2.94    0.67
   0  -4   8    2.00    0.52
  -1   4  -8    3.54    0.84
  -1   4  -8    6.20    0.87
   1  -4   8    5.79    0.88
  -2   4  -8    9.51    1.32
  -2   4  -8    8.74    1.10
   2  -4   8    8.95    1.11
  -3   4  -8   -0.11    0.27
  -3   4  -8    0.17    0.39
   3  -4   8   -0.20    0.28
  -4   4  -8   55.83    4.62
   4  -4   8   49.99    4.21
  -5   4  -8   10.20    1.64
  -5   4  -8   10.04    1.35
   5  -4   8   10.48    1.32
  -6   4  -8    6.93    1.33
   6  -4   8    6.36    1.24
  -7   4  -8    0.20    0.85
   7  -4   8    1.04    0.58
   7  -4   8    0.39    0.59
   8  -4   8    1.66    0.69
   8  -4   8    1.24    0.75
   9  -4   8   11.30    1.58
   9  -4   8   13.34    1.92
   9   3  -8    2.27    0.75
   9   3  -8    5.21    1.28
   8   3  -8    0.87    0.81
   8   3  -8   -0.53    0.42
   7   3  -8   14.42    1.97
   7   3  -8   11.71    1.81
   7   3  -8   14.96    1.79
   6   3  -8    1.43    0.83
   6   3  -8    2.26    0.64
   6   3  -8    1.40    0.70
  -6  -3   8    2.18    0.67
   5   3  -8    0.08    0.36
   5   3  -8    0.40    0.52
   5   3  -8    0.45    0.51
  -5  -3   8   -0.72    0.48
   4   3  -8   41.57    3.83
   4   3  -8   44.48    3.55
   4   3  -8   43.49    4.00
  -4  -3   8   44.49    4.06
   3   3  -8   12.64    1.72
   3   3  -8   16.20    1.82
   3   3  -8   15.17    1.49
   3   3  -8   14.48    1.45
  -3  -3   8   13.40    1.57
  -3  -3   8   14.20    1.35
   2   3  -8    2.41    0.66
   2   3  -8    1.88    0.51
  -2  -3   8    1.49    0.45
   1   3  -8    6.29    0.86
   1   3  -8    4.46    0.92
  -1  -3   8    5.43    0.79
   0   3  -8    4.40    0.87
   0   3  -8    4.96    0.74
   0  -3   8    5.16    0.74
   0  -3   8    4.21    0.74
  -1   3  -8   40.84    3.22
  -1   3  -8   33.80    3.51
   1  -3   8   41.83    3.21
   1  -3   8   42.31    3.70
  -2   3  -8    8.26    1.02
  -2   3  -8    8.60    1.33
   2  -3   8    9.03    1.10
  -3   3  -8   57.63    5.13
  -3   3  -8   52.16    4.31
  -3   3  -8   57.44    4.78
   3  -3   8   53.45    4.34
  -4   3  -8    6.51    1.05
  -4   3  -8    8.13    1.31
   4  -3   8    6.95    0.99
   4  -3   8    8.30    1.24
  -5   3  -8   -0.03    0.39
  -5   3  -8    0.63    0.56
   5  -3   8   -0.23    0.46
   5  -3   8    0.45    0.42
  -6   3  -8    0.27    0.69
   6  -3   8   -0.33    0.50
   6  -3   8   -0.07    0.40
  -7   3  -8    1.62    0.98
   7  -3   8    0.81    0.68
   7  -3   8    1.20    0.61
   8  -3   8    0.63    0.69
   8  -3   8    1.76    0.67
   8  -3   8    1.18    0.65
   9  -3   8    2.27    0.97
   9  -3   8    2.24    0.90
   9  -3   8    2.72    0.85
  10   2  -8    2.17    0.71
  10   2  -8    2.66    1.08
   9   2  -8    3.63    1.13
   9   2  -8    1.63    0.62
   8   2  -8    1.66    0.64
   8   2  -8    0.98    0.76
   8   2  -8    1.80    0.80
   7   2  -8   45.44    4.61
   7   2  -8   48.92    4.50
   7   2  -8   58.76    4.26
   6   2  -8    0.48    0.56
   6   2  -8    0.99    0.63
   6   2  -8   -0.46    0.30
  -6  -2   8    0.46    0.39
   5   2  -8   20.67    2.10
   5   2  -8   15.99    2.01
   5   2  -8   18.76    1.76
  -5  -2   8   18.88    1.88
   4   2  -8    0.15    0.31
   4   2  -8   -0.42    0.36
   4   2  -8   -0.50    0.37
  -4  -2   8    0.25    0.34
   3   2  -8   13.76    1.61
   3   2  -8   16.83    1.41
   3   2  -8   14.06    1.71
   3   2  -8   12.79    1.32
  -3  -2   8   11.10    1.19
  -3  -2   8   13.51    1.39
   2   2  -8   56.02    5.12
   2   2  -8   71.28    5.17
   2   2  -8   70.40    5.73
  -2  -2   8   69.58    5.09
   1   2  -8    6.48    1.07
   1   2  -8    4.23    0.77
  -1  -2   8    6.59    0.82
  -1  -2   8    6.47    0.82
   0   2  -8    7.97    1.24
   0   2  -8    8.71    1.02
   0  -2   8    8.57    1.00
   0  -2   8    8.79    1.03
  -1   2  -8    9.67    1.15
  -1   2  -8   11.71    1.40
   1  -2   8   10.86    1.11
   1  -2   8   10.87    1.23
  -2   2  -8    0.21    0.38
  -2   2  -8    1.30    0.43
  -2   2  -8    1.54    0.55
   2  -2   8    1.41    0.44
  -3   2  -8   25.67    2.92
  -3   2  -8   33.72    2.68
  -3   2  -8   33.27    3.16
   3  -2   8   36.93    3.04
  -4   2  -8   -0.15    0.35
  -4   2  -8    0.25    0.45
   4  -2   8    0.69    0.56
   4  -2   8    0.05    0.33
  -5   2  -8    4.18    0.85
  -5   2  -8    4.05    1.03
   5  -2   8    5.16    1.01
   5  -2   8    3.85    0.76
  -6   2  -8   38.52    3.31
  -6   2  -8   30.18    3.47
   6  -2   8   27.63    3.14
   6  -2   8   35.21    2.89
   7  -2   8   -0.13    0.48
   7  -2   8    0.63    0.69
   7  -2   8    0.08    0.46
   7  -2   8   -0.17    0.46
   8  -2   8   11.89    1.62
   8  -2   8   14.22    2.01
   8  -2   8   12.02    1.59
   9  -2   8    1.26    0.60
   9  -2   8    0.66    0.82
   9  -2   8    0.48    0.62
  10   1  -8   17.68    2.30
  10   1  -8   13.92    1.84
   9   1  -8    5.42    1.00
   9   1  -8    6.27    1.26
   8   1  -8    3.07    0.75
   8   1  -8    4.19    1.09
   8   1  -8    4.71    1.03
   7   1  -8    2.04    0.74
   7   1  -8    0.40    0.42
   7   1  -8    0.74    0.60
   6   1  -8   11.55    1.53
   6   1  -8   12.26    1.36
   6   1  -8    9.34    1.38
  -6  -1   8    9.97    1.20
   5   1  -8   41.65    4.21
   5   1  -8   45.30    4.08
   5   1  -8   51.07    3.83
  -5  -1   8   50.98    4.27
   4   1  -8    0.13    0.40
   4   1  -8   -0.27    0.25
   4   1  -8   -0.24    0.36
   4   1  -8    0.02    0.26
  -4  -1   8   -0.30    0.23
   3   1  -8   27.05    2.17
   3   1  -8   24.72    2.12
   3   1  -8   23.23    2.39
  -3  -1   8   26.29    2.25
  -3  -1   8   22.92    2.02
  -3  -1   8   24.67    1.96
   2   1  -8   72.15    5.51
   2   1  -8   78.45    5.58
   2   1  -8   65.36    6.08
  -2  -1   8   72.93    5.77
  -2  -1   8   69.65    5.44
  -2  -1   8   73.79    6.24
   1   1  -8   -0.01    0.28
   1   1  -8    0.00    0.36
   1   1  -8   -0.33    0.25
  -1  -1   8    0.09    0.23
  -1  -1   8   -0.16    0.22
  -1  -1   8   -0.36    0.28
   0   1  -8    4.16    0.67
   0   1  -8    3.23    0.70
   0  -1   8    3.54    0.61
  -1   1  -8    0.39    0.34
  -1   1  -8    0.29    0.37
  -1   1  -8    0.77    0.44
   1  -1   8    1.46    0.42
   1  -1   8    0.36    0.31
  -2   1  -8    0.56    0.42
  -2   1  -8    1.09    0.48
  -2   1  -8    0.88    0.42
   2  -1   8    0.71    0.48
   2  -1   8    1.46    0.41
  -3   1  -8   47.57    3.82
  -3   1  -8   52.12    4.26
  -3   1  -8   40.17    4.42
   3  -1   8   54.26    3.86
   3  -1   8   47.07    4.25
  -4   1  -8   42.33    3.69
  -4   1  -8   40.87    3.95
   4  -1   8   39.14    3.35
   4  -1   8   39.14    3.68
   4  -1   8   41.18    3.34
  -5   1  -8    3.85    0.83
  -5   1  -8    4.16    1.01
   5  -1   8    3.03    0.74
   5  -1   8    2.49    0.85
   5  -1   8    3.74    0.78
  -6   1  -8   -0.22    0.60
  -6   1  -8    0.09    0.65
   6  -1   8    0.43    0.54
   6  -1   8    0.24    0.46
   6  -1   8    0.16    0.56
   6  -1   8    0.37    0.43
   7  -1   8    0.68    0.58
   7  -1   8   -0.11    0.50
   7  -1   8    0.25    0.63
   7  -1   8    1.02    0.69
   8  -1   8    7.26    1.19
   8  -1   8    6.01    1.35
   8  -1   8    6.98    1.21
   9  -1   8    0.69    0.64
   9  -1   8    0.53    0.67
  10   0  -8    6.53    1.11
  10   0  -8    3.62    1.08
   9   0  -8    0.14    0.56
   9   0  -8   -0.89    0.56
   9   0  -8    0.02    0.43
   8   0  -8   20.37    2.36
   8   0  -8   20.59    2.28
   8   0  -8   22.06    2.01
   7   0  -8    1.16    0.46
   7   0  -8    1.19    0.61
   7   0  -8    0.82    0.61
   6   0  -8    0.44    0.43
   6   0  -8    0.21    0.31
   6   0  -8    0.03    0.44
   5   0  -8   25.23    2.43
   5   0  -8   21.81    2.30
   5   0  -8   27.92    2.18
   4   0  -8   12.57    1.31
   4   0  -8   15.49    1.57
   4   0  -8   12.90    1.53
   4   0  -8   13.46    1.29
  -4   0   8   14.00    1.42
   3   0  -8    0.42    0.29
   3   0  -8    0.07    0.35
   3   0  -8    0.03    0.25
  -3   0   8    0.27    0.23
  -3   0   8   -0.08    0.29
  -3   0   8    1.07    0.45
   2   0  -8    5.32    0.86
   2   0  -8    7.89    0.94
   2   0  -8    7.87    1.11
  -2   0   8    9.27    1.02
  -2   0   8    8.58    0.76
  -2   0   8    7.51    0.78
   1   0  -8    4.57    0.71
   1   0  -8    5.15    0.75
   1   0  -8    5.41    0.90
  -1   0   8    5.65    0.64
  -1   0   8    4.90    0.74
  -1   0   8    5.49    0.82
  -1   0   8    4.91    0.67
   0   0  -8   95.75    7.63
   0   0  -8   95.68    7.97
   0   0  -8   85.66    6.92
   0   0   8   86.26    6.95
   0   0   8   92.39    7.57
   0   0   8   95.12    6.88
   0   0   8   90.09    7.93
  -1   0  -8   -0.02    0.41
  -1   0  -8    0.64    0.37
  -1   0  -8   -0.09    0.32
   1   0   8    0.23    0.27
   1   0   8    0.69    0.33
   1   0   8    0.53    0.33
   1   0   8    0.34    0.42
  -2   0  -8   26.34    2.64
  -2   0  -8   29.43    2.39
  -2   0  -8   25.79    2.70
   2   0   8   27.59    2.36
   2   0   8   31.68    2.67
   2   0   8   26.85    2.34
  -3   0  -8   11.90    1.49
  -3   0  -8   11.54    1.42
  -3   0  -8    8.87    1.20
   3   0   8   10.62    1.48
   3   0   8    8.91    1.16
   3   0   8   10.47    1.21
  -4   0  -8    4.07    0.90
  -4   0  -8    4.32    0.99
   4   0   8    4.42    0.77
   4   0   8    4.89    1.01
   4   0   8    3.67    0.74
  -5   0  -8   20.69    2.41
  -5   0  -8   19.62    2.26
   5   0   8   22.08    2.00
   5   0   8   18.68    2.38
   5   0   8   22.10    2.00
   5   0   8   20.63    2.10
  -6   0  -8    0.41    0.75
   6   0   8   -0.13    0.43
   6   0   8   -0.13    0.55
   6   0   8   -0.50    0.55
   6   0   8   -0.74    0.37
   7   0   8   -0.30    0.46
   7   0   8   -0.32    0.53
   7   0   8    0.45    0.76
   8   0   8   -0.26    0.54
   8   0   8    0.62    0.86
   8   0   8    1.65    0.62
  11  -1  -8    6.60    1.35
  10  -1  -8    8.57    1.43
  10  -1  -8    6.31    1.07
   9  -1  -8   -0.99    0.56
   9  -1  -8    0.25    0.45
   9  -1  -8    0.04    0.51
   8  -1  -8   55.74    4.64
   8  -1  -8   65.46    5.06
   8  -1  -8   57.01    5.12
   7  -1  -8    2.07    0.69
   7  -1  -8    2.12    0.53
   7  -1  -8    0.83    0.50
   6  -1  -8    5.46    0.79
   6  -1  -8    6.40    0.98
   6  -1  -8    3.90    0.82
  -6   1   8    5.91    0.90
   5  -1  -8    1.69    0.40
   5  -1  -8    1.86    0.48
   5  -1  -8    2.00    0.59
   5  -1  -8    1.76    0.54
  -5   1   8    1.19    0.53
   4  -1  -8    5.34    0.74
   4  -1  -8    3.44    0.74
   4  -1  -8    4.16    0.63
   4  -1  -8    5.63    0.89
  -4   1   8    4.79    0.86
  -4   1   8    5.21    0.68
  -4   1   8    4.50    0.71
   3  -1  -8  104.56    7.22
   3  -1  -8  100.33    7.88
   3  -1  -8   89.97    7.13
  -3   1   8   95.88    8.08
  -3   1   8   88.05    7.75
  -3   1   8   96.76    7.02
  -3   1   8   93.46    7.38
   2  -1  -8    9.19    1.03
   2  -1  -8    8.10    1.11
   2  -1  -8    8.93    0.97
  -2   1   8    9.24    0.84
  -2   1   8    7.39    0.77
  -2   1   8    9.71    1.13
  -2   1   8    9.03    0.94
   1  -1  -8    1.55    0.35
   1  -1  -8    1.42    0.52
   1  -1  -8    1.15    0.39
   1  -1  -8    1.03    0.38
  -1   1   8    2.16    0.52
  -1   1   8    1.96    0.38
  -1   1   8    1.04    0.42
  -1   1   8    0.98    0.31
  -1   1   8    0.75    0.26
   0  -1  -8    0.70    0.45
   0  -1  -8    0.49    0.34
   0  -1  -8    0.14    0.34
   0   1   8    0.59    0.42
   0   1   8    0.85    0.30
   0   1   8    0.15    0.31
   0   1   8    0.69    0.32
  -1  -1  -8    3.98    0.72
  -1  -1  -8    2.37    0.64
  -1  -1  -8    2.78    0.61
   1   1   8    3.53    0.65
   1   1   8    3.36    0.59
   1   1   8    2.71    0.52
   1   1   8    2.55    0.66
  -2  -1  -8    5.60    0.95
  -2  -1  -8    4.71    0.77
  -2  -1  -8    4.73    0.89
   2   1   8    6.67    0.83
   2   1   8    5.82    1.01
   2   1   8    3.47    0.68
  -3  -1  -8    1.76    0.52
  -3  -1  -8    1.75    0.64
  -3  -1  -8    0.78    0.54
   3   1   8    1.71    0.50
   3   1   8    0.49    0.49
   3   1   8    1.29    0.46
  -4  -1  -8    5.61    1.10
  -4  -1  -8    4.65    1.08
   4   1   8    5.24    0.83
   4   1   8    5.02    0.87
   4   1   8    4.49    0.82
   4   1   8    4.45    1.06
  -5  -1  -8   89.00    8.61
   5   1   8  102.99    7.66
   5   1   8   96.92    7.34
   5   1   8   87.82    7.43
   5   1   8   98.25    8.13
  -6  -1  -8    2.88    1.12
   6   1   8    2.16    0.75
   6   1   8    2.85    0.67
   6   1   8    2.10    0.67
   6   1   8    2.36    0.79
   7   1   8    2.71    0.96
   7   1   8    2.86    0.81
   8   1   8    1.01    0.69
  10  -2  -8    2.05    0.80
  10  -2  -8    1.00    0.52
  10  -2  -8    1.99    0.93
   9  -2  -8   -0.10    0.50
   9  -2  -8   -0.62    0.57
   9  -2  -8    0.02    0.36
   8  -2  -8   -0.30    0.47
   8  -2  -8    0.52    0.47
   8  -2  -8    0.09    0.36
   7  -2  -8    3.17    0.75
   7  -2  -8    2.54    0.54
   7  -2  -8    2.38    0.68
  -7   2   8    2.83    0.72
   6  -2  -8   67.05    4.73
   6  -2  -8   53.96    4.40
   6  -2  -8   56.24    4.85
  -6   2   8   51.23    4.96
   5  -2  -8    4.20    0.64
   5  -2  -8    4.49    0.78
   5  -2  -8    3.09    0.57
   5  -2  -8    4.58    0.76
  -5   2   8    5.05    0.90
  -5   2   8    3.92    0.59
   4  -2  -8    4.74    0.68
   4  -2  -8    5.72    0.79
   4  -2  -8    4.42    0.77
  -4   2   8    5.92    0.99
  -4   2   8    5.33    0.65
  -4   2   8    6.28    0.73
   3  -2  -8   80.97    6.32
   3  -2  -8   70.09    5.69
   3  -2  -8   74.91    5.73
  -3   2   8   75.56    6.18
  -3   2   8   77.89    5.83
  -3   2   8   72.10    6.49
   2  -2  -8    0.27    0.37
   2  -2  -8    0.30    0.32
   2  -2  -8    0.53    0.33
  -2   2   8    0.49    0.23
  -2   2   8    0.70    0.37
  -2   2   8    0.53    0.26
   1  -2  -8   -0.23    0.26
   1  -2  -8   -0.05    0.23
   1  -2  -8    0.26    0.38
   1  -2  -8    0.57    0.31
  -1   2   8    0.06    0.16
  -1   2   8    0.27    0.24
  -1   2   8    0.09    0.30
  -1   2   8    0.49    0.32
  -1   2   8    0.41    0.36
   0  -2  -8    1.57    0.47
   0  -2  -8    0.62    0.41
   0  -2  -8    1.81    0.57
   0   2   8    0.80    0.32
   0   2   8    0.98    0.46
   0   2   8    1.97    0.56
   0   2   8    1.41    0.38
  -1  -2  -8    1.61    0.60
  -1  -2  -8    1.24    0.46
  -1  -2  -8    1.41    0.52
   1   2   8    1.31    0.43
   1   2   8    1.97    0.61
   1   2   8    1.51    0.44
   1   2   8    1.51    0.53
  -2  -2  -8    3.01    0.67
  -2  -2  -8    3.25    0.82
  -2  -2  -8    3.42    0.78
   2   2   8    3.94    0.90
   2   2   8    3.73    0.65
   2   2   8    4.41    0.71
   2   2   8    3.72    0.68
  -3  -2  -8    7.14    1.32
  -3  -2  -8    8.57    1.37
  -3  -2  -8    8.32    1.18
   3   2   8   11.89    1.59
   3   2   8    9.91    1.21
   3   2   8    9.30    1.21
   3   2   8    9.51    1.15
  -4  -2  -8    2.85    0.99
  -4  -2  -8    2.09    0.85
   4   2   8    3.15    0.71
   4   2   8    1.73    0.61
   4   2   8    1.30    0.70
   4   2   8    2.89    0.68
  -5  -2  -8    0.12    0.64
   5   2   8   -0.68    0.44
   5   2   8    0.64    0.51
   5   2   8   -0.63    0.48
   6   2   8    0.73    0.74
   6   2   8   -0.14    0.53
   7   2   8   17.59    2.51
  11  -3  -8    0.66    0.54
  10  -3  -8   -0.31    0.39
   9  -3  -8    3.57    0.67
   9  -3  -8    2.82    0.74
   8  -3  -8    3.44    0.75
   8  -3  -8    4.97    0.72
   8  -3  -8    4.04    0.87
  -8   3   8    3.97    0.96
   7  -3  -8    0.61    0.42
   7  -3  -8    0.40    0.36
   7  -3  -8    0.83    0.44
  -7   3   8    0.90    0.55
   6  -3  -8   18.46    1.83
   6  -3  -8   19.74    1.88
   6  -3  -8   18.38    1.70
  -6   3   8   21.92    2.12
   5  -3  -8   11.32    1.11
   5  -3  -8   11.96    1.09
   5  -3  -8    9.54    1.16
   5  -3  -8   10.24    1.27
  -5   3   8   12.37    1.56
   4  -3  -8    1.00    0.33
   4  -3  -8    1.17    0.38
   4  -3  -8    0.82    0.42
  -4   3   8    1.51    0.66
   3  -3  -8   10.66    1.13
   3  -3  -8   13.17    1.36
   3  -3  -8   11.36    1.18
  -3   3   8   15.03    1.71
  -3   3   8   11.69    1.21
   2  -3  -8    0.44    0.36
   2  -3  -8    0.33    0.42
  -2   3   8    0.41    0.33
  -2   3   8    0.83    0.58
   1  -3  -8  217.02   17.86
   1  -3  -8  258.33   20.72
   1  -3  -8  247.00   19.51
  -1   3   8  249.53   19.44
  -1   3   8  237.99   18.42
   0  -3  -8    5.08    0.93
   0  -3  -8    3.96    0.78
   0  -3  -8    5.60    0.82
   0   3   8    5.21    0.90
   0   3   8    4.37    0.56
   0   3   8    4.23    0.86
  -1  -3  -8    8.33    1.15
  -1  -3  -8    7.25    1.10
  -1  -3  -8    7.93    1.30
   1   3   8    8.42    0.88
   1   3   8    8.73    1.23
  -2  -3  -8    2.07    0.54
  -2  -3  -8    3.07    0.74
  -2  -3  -8    1.92    0.69
   2   3   8    1.79    0.48
   2   3   8    1.12    0.59
  -3  -3  -8    4.30    1.05
  -3  -3  -8    4.27    1.08
   3   3   8    4.66    1.00
   3   3   8    3.90    0.76
  -4  -3  -8    3.80    1.14
   4   3   8    4.30    0.82
   4   3   8    2.85    1.05
  -5  -3  -8    1.07    0.84
   5   3   8    1.63    0.91
   5   3   8    1.42    0.69
   6   3   8   -0.32    0.67
   6   3   8    0.54    0.69
  -8   4   8    0.10    0.61
   7  -4  -8    2.67    0.57
   7  -4  -8    2.62    0.54
  -7   4   8    1.59    0.75
   6  -4  -8    0.04    0.37
   6  -4  -8    0.09    0.29
  -6   4   8   -0.39    0.47
   5  -4  -8    5.10    0.78
   5  -4  -8    5.01    0.69
  -5   4   8    3.85    0.97
   4  -4  -8    9.33    1.03
   4  -4  -8   10.07    1.21
  -4   4   8    6.86    1.29
   3  -4  -8    4.64    0.85
   3  -4  -8    4.97    0.76
  -3   4   8    5.44    1.08
   2  -4  -8    0.12    0.30
   2  -4  -8    0.27    0.37
   2  -4  -8    0.11    0.38
  -2   4   8    0.13    0.58
  -2   4   8    0.41    0.37
   1  -4  -8   19.03    1.92
   1  -4  -8   16.80    1.82
   1  -4  -8   20.03    1.77
  -1   4   8   18.31    1.84
   0  -4  -8    2.56    0.69
   0  -4  -8    2.46    0.64
   0  -4  -8    2.70    0.62
   0   4   8    2.04    0.64
  -1  -4  -8   13.01    1.47
  -1  -4  -8   10.36    1.62
  -1  -4  -8   11.16    1.53
   1   4   8    9.70    1.48
   1   4   8   12.83    1.18
  -2  -4  -8    2.76    0.71
  -2  -4  -8    2.44    0.83
  -2  -4  -8    3.78    1.01
   2   4   8    3.52    0.87
   2   4   8    3.87    0.74
  -3  -4  -8    4.20    1.01
   3   4   8    2.46    0.89
  -4  -4  -8   23.63    2.82
   4   4   8   26.67    2.77
   5   4   8   -0.98    0.63
   6   4   8    0.36    0.95
  -9   5   8    1.84    0.89
  -8   5   8    0.10    0.66
   7  -5  -8   61.95    4.91
  -7   5   8   68.46    5.88
   6  -5  -8   19.16    1.66
   6  -5  -8   18.06    1.84
  -6   5   8   20.73    2.23
   5  -5  -8    6.49    0.94
   5  -5  -8    6.30    0.83
  -5   5   8    4.91    1.10
   4  -5  -8   14.15    1.42
   4  -5  -8   13.85    1.55
  -4   5   8   17.66    2.19
   3  -5  -8   -0.19    0.41
   3  -5  -8    0.48    0.38
  -3   5   8    0.81    0.70
   2  -5  -8    3.21    0.60
   2  -5  -8    3.62    0.72
   2  -5  -8    3.16    0.75
  -2   5   8    4.44    1.07
   1  -5  -8    0.22    0.52
   1  -5  -8    0.50    0.40
   1  -5  -8    0.67    0.40
  -1   5   8    0.80    0.78
  -1   5   8    0.52    0.46
   0  -5  -8   19.40    1.83
   0  -5  -8   21.66    2.16
   0  -5  -8   17.90    1.99
   0   5   8   16.60    1.94
  -1  -5  -8   50.64    4.85
  -1  -5  -8   60.54    4.38
  -1  -5  -8   49.31    4.94
   1   5   8   53.84    4.76
  -2  -5  -8   -0.71    0.58
  -2  -5  -8   -0.17    0.49
   2   5   8    0.08    0.61
  -3  -5  -8    0.84    0.83
   3   5   8    0.59    0.76
   4   5   8    1.26    0.96
   5   5   8    1.31    0.92
  -9   6   8    1.17    0.84
  -8   6   8   10.99    1.79
   7  -6  -8   36.05    3.09
   7  -6  -8   33.61    2.80
  -7   6   8   36.61    3.63
   6  -6  -8    1.58    0.52
   6  -6  -8    1.50    0.44
  -6   6   8    2.64    0.95
   5  -6  -8    2.51    0.62
   5  -6  -8    2.55    0.54
  -5   6   8    0.86    0.75
   4  -6  -8   15.13    1.56
   4  -6  -8   13.40    1.38
  -4   6   8   10.89    1.93
   3  -6  -8   -0.37    0.40
   3  -6  -8   -0.36    0.35
  -3   6   8    0.25    0.64
   2  -6  -8   27.80    2.72
   2  -6  -8   27.76    2.43
  -2   6   8   25.41    2.90
   1  -6  -8    0.00    0.49
   1  -6  -8    0.00    0.44
   1  -6  -8    0.22    0.56
  -1   6   8   -0.06    0.70
   0  -6  -8    2.93    0.77
   0  -6  -8    4.05    0.82
   0   6   8    1.84    0.74
   0   6   8    2.99    1.11
  -1  -6  -8    7.53    1.31
  -1  -6  -8   10.97    1.40
   1   6   8    6.95    1.63
   1   6   8    8.55    1.45
  -2  -6  -8    2.32    0.87
   2   6   8    2.38    0.93
   3   6   8    3.24    1.08
   4   6   8   -0.26    0.80
 -10   7   8   14.23    2.51
  -9   7   8   -0.03    0.96
  -8   7   8    0.98    0.89
   7  -7  -8    3.58    0.62
   7  -7  -8    2.91    0.66
  -7   7   8    2.32    1.06
   6  -7  -8    7.84    1.11
   6  -7  -8    6.52    0.90
  -6   7   8    5.80    1.35
   5  -7  -8   23.97    2.23
   5  -7  -8   26.76    2.52
  -5   7   8   27.37    2.92
   4  -7  -8    0.11    0.41
   4  -7  -8    0.05    0.59
  -4   7   8   -0.11    0.81
   3  -7  -8    0.79    0.61
   3  -7  -8    0.15    0.45
  -3   7   8    0.46    0.72
   2  -7  -8    0.28    0.46
  -2   7   8    0.62    0.87
   1  -7  -8   -0.27    0.51
  -1   7   8    0.01    0.77
   0  -7  -8   12.74    1.69
   0   7   8   20.48    2.54
  -1  -7  -8   11.60    1.56
   1   7   8   10.42    1.91
   2   7   8    2.04    1.29
   2   7   8    2.15    0.94
   3   7   8   10.95    2.10
   3   7   8    9.63    1.64
  -9   8   8   -0.08    0.77
   8  -8  -8   13.37    1.37
  -8   8   8   15.88    2.40
   7  -8  -8    5.34    0.83
  -7   8   8    4.58    1.39
   6  -8  -8    2.29    0.60
  -6   8   8    0.97    0.96
   5  -8  -8   25.39    2.22
  -5   8   8   22.76    2.98
   4  -8  -8    1.12    0.53
  -4   8   8    2.46    1.10
   3  -8  -8   -0.29    0.42
  -3   8   8    0.39    0.94
   2  -8  -8    1.57    0.69
  -2   8   8    1.78    1.02
   1  -8  -8    2.29    0.80
  -1   8   8    1.25    1.12
   0  -8  -8   33.58    3.09
   0   8   8   32.57    3.67
   1   8   8   -0.51    1.01
   2   8   8   -0.07    1.11
   8  -9  -8    0.99    0.48
  -8   9   8    1.86    1.16
   7  -9  -8    0.45    0.46
  -7   9   8   -0.65    0.89
   6  -9  -8    2.19    0.63
  -6   9   8    2.67    1.18
   5  -9  -8    8.78    1.19
  -5   9   8   10.98    1.92
   4  -9  -8   -0.61    0.49
  -4   9   8    0.36    0.94
   3  -9  -8   18.71    2.08
  -3   9   8   18.37    2.71
   2  -9  -8   -0.02    0.70
  -2   9   8    0.38    1.06
   1  -9  -8    2.77    0.95
  -1   9   8    2.12    1.23
   0  -9  -8    0.86    0.82
   0   9   8    2.97    1.29
  -7  10   8    1.07    1.28
   6 -10  -8   12.14    1.42
  -6  10   8    7.18    1.76
   5 -10  -8    3.99    0.92
  -5  10   8    2.71    1.36
   4 -10  -8    4.40    1.00
  -4  10   8    2.12    1.33
   3 -10  -8    0.38    0.59
  -3  10   8   -0.12    1.08
   2 -10  -8   -0.06    0.78
  -2  10   8   -0.77    1.12
   3 -13   9    1.31    0.89
   2 -12   9    1.63    0.79
   3 -12   9    1.38    0.73
   4 -12   9    0.54    0.82
   5 -12   9    4.27    1.09
   6 -12   9    6.05    1.29
   3  11  -9    2.69    1.45
   2  11  -9    3.53    1.22
   1  11  -9    1.15    0.90
   0  11  -9    1.03    0.88
   1 -11   9    5.10    1.15
   2 -11   9    1.44    0.73
   3 -11   9   32.74    3.10
   4 -11   9    5.28    1.11
   5 -11   9    0.42    0.61
   6 -11   9    2.42    0.89
   7 -11   9    1.96    0.79
   4  10  -9   -0.97    0.97
   3  10  -9    0.26    0.89
   2  10  -9    6.75    1.53
   1  10  -9    0.47    0.68
   0  10  -9    2.48    0.95
   0 -10   9    2.67    0.77
  -1  10  -9   -0.31    0.65
   1 -10   9    0.49    0.55
   2 -10   9    2.07    0.82
   3 -10   9    0.31    0.59
   4 -10   9    2.56    0.89
   5 -10   9    5.20    1.08
   6 -10   9    6.56    1.23
   7 -10   9   -0.54    0.56
   8 -10   9    7.12    1.25
   5   9  -9    1.40    1.12
   4   9  -9   -1.44    0.81
   3   9  -9   20.96    3.06
   2   9  -9   12.52    2.01
  -2  -9   9    9.20    1.74
   1   9  -9    0.85    0.70
   0   9  -9   17.25    2.48
   0  -9   9   21.95    2.11
  -1   9  -9    1.54    0.84
   1  -9   9    0.37    0.61
  -2   9  -9    0.00    0.54
   2  -9   9    0.35    0.55
   3  -9   9    7.82    1.27
   4  -9   9    6.72    1.14
   5  -9   9   10.01    1.45
   6  -9   9   -0.90    0.50
   7  -9   9    0.24    0.55
   8  -9   9    1.28    0.76
   6   8  -9   -0.13    0.90
   5   8  -9    3.69    1.20
   4   8  -9   14.57    2.19
  -4  -8   9   13.13    2.24
   3   8  -9    7.62    1.47
  -3  -8   9    4.22    1.19
   2   8  -9    3.23    1.17
  -2  -8   9   -0.43    0.75
   1   8  -9    5.59    1.22
  -1  -8   9    8.74    1.23
   0   8  -9   13.26    2.01
   0  -8   9   11.49    1.57
  -1   8  -9    2.21    0.84
   1  -8   9    2.22    0.67
  -2   8  -9   47.14    4.46
   2  -8   9   48.53    4.00
  -3   8  -9   -0.21    0.55
   3  -8   9   -0.22    0.44
   4  -8   9    1.03    0.63
   5  -8   9    1.31    0.68
   6  -8   9   -0.39    0.51
   7  -8   9    0.54    0.63
   8  -8   9   -1.26    0.56
   9  -8   9    4.40    1.06
   9  -8   9    1.83    0.91
   7   7  -9    0.10    0.83
   7   7  -9   -0.46    0.70
   6   7  -9   10.27    1.65
   6   7  -9   15.40    2.34
   5   7  -9    0.95    0.68
   5   7  -9    1.48    0.89
  -5  -7   9    0.84    1.04
   4   7  -9    1.44    0.86
   4   7  -9    2.86    0.80
   4   7  -9    2.65    0.99
  -4  -7   9    2.34    0.99
   3   7  -9    4.24    0.87
   3   7  -9    4.77    1.35
  -3  -7   9    5.72    1.32
   2   7  -9    8.27    1.43
   2   7  -9    7.76    1.18
   1   7  -9   18.89    2.35
   1   7  -9   10.37    1.49
  -1  -7   9   15.09    1.68
   0   7  -9   12.31    1.75
   0  -7   9   12.64    1.53
  -1   7  -9    2.31    0.94
   1  -7   9    2.74    0.70
  -2   7  -9    0.65    0.53
   2  -7   9    0.66    0.52
  -3   7  -9    1.48    0.64
   3  -7   9    1.44    0.62
  -4   7  -9    3.96    0.90
   4  -7   9    6.10    1.02
   5  -7   9   31.81    2.82
   6  -7   9    0.55    0.57
   7  -7   9   18.40    2.12
   8  -7   9    0.89    0.64
   8  -7   9    2.80    0.97
   9  -7   9    0.25    0.74
   9  -7   9    0.44    0.52
   8   6  -9    0.54    0.72
   7   6  -9    7.01    1.51
   7   6  -9    5.29    1.15
   6   6  -9   12.15    2.09
   6   6  -9   12.80    1.71
  -6  -6   9   12.90    2.03
   5   6  -9    0.67    0.70
   5   6  -9   -0.44    0.73
   5   6  -9    0.67    0.53
  -5  -6   9    0.16    0.74
   4   6  -9   16.96    2.18
   4   6  -9   15.86    2.22
   4   6  -9   14.84    1.75
  -4  -6   9   11.61    1.86
   3   6  -9   36.95    3.77
   3   6  -9   40.94    3.39
   2   6  -9    1.54    0.52
   2   6  -9    1.53    0.69
   1   6  -9    4.41    1.05
   1   6  -9    5.01    0.88
  -1  -6   9    3.85    0.77
   0   6  -9    0.34    0.55
   0   6  -9   -0.19    0.36
   0  -6   9    0.52    0.43
  -1   6  -9    0.42    0.46
  -1   6  -9    0.14    0.49
   1  -6   9    0.46    0.39
  -2   6  -9   20.60    2.18
   2  -6   9   19.23    1.91
  -3   6  -9   26.55    2.70
   3  -6   9   27.66    2.45
  -4   6  -9   22.52    2.32
   4  -6   9   22.29    2.11
   5  -6   9   -0.52    0.43
   6  -6   9    1.48    0.70
   7  -6   9    0.39    0.65
   7  -6   9    0.10    0.59
   8  -6   9   -0.21    0.71
   9  -6   9    6.91    1.21
   9  -6   9    7.48    1.45
   8   5  -9    0.67    0.79
   8   5  -9   -0.42    0.60
   7   5  -9    1.79    0.84
   7   5  -9    1.04    0.65
   6   5  -9   17.31    2.08
   6   5  -9   23.55    2.75
   6   5  -9   16.47    2.33
  -6  -5   9   15.62    2.25
   5   5  -9    7.53    1.45
   5   5  -9    7.14    1.43
   5   5  -9    8.08    1.22
  -5  -5   9    7.16    1.30
   4   5  -9    8.53    1.18
   4   5  -9    9.91    1.53
   4   5  -9    8.03    1.37
  -4  -5   9    6.00    1.19
   3   5  -9    3.91    0.80
   3   5  -9    3.73    0.94
  -3  -5   9    4.84    1.09
   2   5  -9    1.89    0.58
   2   5  -9    1.02    0.68
  -2  -5   9    0.62    0.42
   1   5  -9   53.25    5.11
   1   5  -9   62.63    4.65
  -1  -5   9   56.80    4.56
   0   5  -9    0.27    0.60
   0   5  -9    0.71    0.44
   0  -5   9    1.55    0.50
  -1   5  -9   36.35    3.09
  -1   5  -9   37.91    3.51
   1  -5   9   36.71    3.10
  -2   5  -9    9.75    1.21
  -2   5  -9    8.29    1.33
   2  -5   9    9.16    1.20
  -3   5  -9    1.12    0.65
   3  -5   9    0.34    0.38
  -4   5  -9    0.47    0.48
   4  -5   9    0.62    0.50
  -5   5  -9    3.34    0.79
   5  -5   9    1.26    0.59
   6  -5   9    0.90    0.67
   6  -5   9    0.69    0.55
   7  -5   9    2.58    0.98
   8  -5   9    0.76    0.81
   8  -5   9    1.07    0.61
   9  -5   9    3.32    0.92
   9  -5   9    1.66    0.97
   9   4  -9   15.79    2.44
   9   4  -9   18.21    2.29
   8   4  -9    3.98    1.07
   8   4  -9    4.81    1.24
   7   4  -9    9.96    2.00
   7   4  -9   15.26    2.20
   7   4  -9   15.71    1.87
   6   4  -9    0.81    0.53
   6   4  -9    0.00    0.71
   6   4  -9    0.24    0.66
   5   4  -9    0.85    0.69
   5   4  -9    1.18    0.53
   5   4  -9    0.90    0.64
  -5  -4   9    2.38    0.68
   4   4  -9    6.96    1.04
   4   4  -9    7.33    1.26
   4   4  -9    6.51    1.24
  -4  -4   9    7.39    1.16
   3   4  -9    9.60    1.42
   3   4  -9    6.93    1.10
  -3  -4   9   10.55    1.35
   2   4  -9   13.01    1.67
   2   4  -9    9.61    1.27
  -2  -4   9   10.63    1.26
   1   4  -9    9.30    1.51
   1   4  -9    7.58    1.09
  -1  -4   9    7.49    1.04
   0   4  -9   12.57    1.72
   0   4  -9   10.94    1.35
   0  -4   9   11.44    1.34
  -1   4  -9    0.40    0.51
  -1   4  -9   -0.10    0.32
   1  -4   9    0.08    0.36
  -2   4  -9    4.35    0.74
  -2   4  -9    4.42    0.92
   2  -4   9    4.73    0.79
  -3   4  -9    7.83    1.23
   3  -4   9    5.71    0.93
  -4   4  -9   58.61    4.92
   4  -4   9   53.08    4.46
  -5   4  -9   12.29    1.94
  -5   4  -9   14.60    1.82
   5  -4   9   13.14    1.81
   5  -4   9   16.94    1.76
  -6   4  -9   23.58    2.60
   6  -4   9   18.91    1.95
   6  -4   9   19.22    2.46
   7  -4   9    1.85    0.64
   7  -4   9    2.65    0.86
   8  -4   9    0.26    0.56
   8  -4   9   -0.38    0.78
   9  -4   9    1.27    0.90
   9  -4   9    3.18    0.83
   9  -4   9    0.61    0.63
   9   3  -9    0.50    0.79
   9   3  -9   -0.21    0.57
   8   3  -9    0.70    0.57
   8   3  -9    0.54    0.80
   7   3  -9   24.34    2.41
   7   3  -9   26.34    2.97
   7   3  -9   26.39    2.81
   6   3  -9   -0.25    0.55
   6   3  -9    0.04    0.41
   6   3  -9    0.62    0.61
   5   3  -9    5.36    1.10
   5   3  -9    5.15    1.11
   5   3  -9    5.67    0.94
  -5  -3   9    6.65    1.04
   4   3  -9   66.81    5.36
   4   3  -9   45.49    4.97
   4   3  -9   62.40    4.79
  -4  -3   9   64.26    5.39
   3   3  -9    7.98    1.13
   3   3  -9    5.47    1.10
  -3  -3   9    6.92    1.03
   2   3  -9   14.52    1.39
   2   3  -9   10.61    1.59
  -2  -3   9   12.25    1.25
   1   3  -9    4.03    0.74
   1   3  -9    4.06    0.89
  -1  -3   9    3.91    0.66
  -1  -3   9    2.68    0.62
   0   3  -9    0.17    0.35
   0   3  -9   -0.42    0.30
   0  -3   9    0.05    0.30
   0  -3   9    0.12    0.31
  -1   3  -9   10.67    1.20
  -1   3  -9    8.79    1.33
   1  -3   9   10.62    1.25
  -2   3  -9   11.94    1.36
  -2   3  -9    8.02    1.34
   2  -3   9   14.39    1.32
  -3   3  -9   15.82    1.76
   3  -3   9   15.25    1.57
  -4   3  -9    1.13    0.67
  -4   3  -9    1.89    0.65
   4  -3   9    2.00    0.76
  -5   3  -9    2.05    0.87
  -5   3  -9    1.80    0.67
   5  -3   9    1.65    0.70
   5  -3   9    2.13    0.64
  -6   3  -9   10.07    1.68
   6  -3   9   10.09    1.34
   6  -3   9    8.92    1.44
   7  -3   9   -1.05    0.60
   7  -3   9    0.96    0.61
   8  -3   9    3.51    0.93
   8  -3   9    5.62    1.05
   8  -3   9    3.25    1.07
   9  -3   9    3.64    1.05
   9  -3   9    3.84    0.98
  10   2  -9    0.03    0.75
   9   2  -9   -0.09    0.69
   9   2  -9    0.35    0.54
   8   2  -9    0.06    0.50
   8   2  -9   -0.22    0.74
   8   2  -9    0.32    0.67
   7   2  -9   38.75    3.31
   7   2  -9   39.86    3.70
   7   2  -9   37.16    3.73
   6   2  -9    7.37    1.27
   6   2  -9    5.75    1.16
   6   2  -9    7.44    1.07
   5   2  -9    0.73    0.58
   5   2  -9    0.57    0.58
   5   2  -9    1.50    0.50
  -5  -2   9    0.79    0.43
   4   2  -9    2.18    0.59
   4   2  -9    1.05    0.68
   4   2  -9    2.09    0.70
  -4  -2   9    1.61    0.50
   3   2  -9    2.15    0.56
   3   2  -9    1.41    0.57
  -3  -2   9    1.51    0.47
   2   2  -9  162.60   11.29
   2   2  -9  139.91   12.34
  -2  -2   9  143.23   11.16
  -2  -2   9  155.29   12.94
   1   2  -9    1.78    0.63
   1   2  -9    1.89    0.56
  -1  -2   9    2.84    0.58
  -1  -2   9    3.25    0.57
   0   2  -9   18.08    1.89
   0   2  -9   18.42    1.69
   0  -2   9   17.71    1.79
   0  -2   9   17.13    1.63
  -1   2  -9   21.43    2.41
  -1   2  -9   26.40    2.19
   1  -2   9   24.42    2.42
   1  -2   9   26.22    2.16
  -2   2  -9    4.63    0.95
  -2   2  -9    5.80    0.92
  -2   2  -9    4.51    0.92
  -3   2  -9    0.40    0.57
  -3   2  -9   -0.12    0.42
  -3   2  -9    0.69    0.40
   3  -2   9    0.37    0.36
   3  -2   9   -0.34    0.42
  -4   2  -9    4.51    1.04
  -4   2  -9    3.32    0.87
   4  -2   9    6.44    1.19
   4  -2   9    6.11    0.92
  -5   2  -9    1.89    0.68
  -5   2  -9    1.60    0.62
   5  -2   9    1.25    0.71
   5  -2   9    1.07    0.57
  -6   2  -9   28.79    3.08
   6  -2   9   24.81    2.77
   6  -2   9   29.35    2.50
   6  -2   9   22.99    2.42
   7  -2   9   12.40    1.87
   7  -2   9   10.47    1.53
   7  -2   9   14.12    1.64
   8  -2   9    1.76    0.80
   8  -2   9    2.83    0.89
   8  -2   9    1.84    0.93
  10   1  -9   17.12    2.22
  10   1  -9   26.30    2.64
   9   1  -9    1.63    0.85
   9   1  -9    0.11    0.50
   8   1  -9    6.71    1.29
   8   1  -9   10.19    1.66
   8   1  -9   12.18    1.45
   7   1  -9    1.83    0.57
   7   1  -9    1.23    0.77
   7   1  -9    0.11    0.53
   6   1  -9    3.49    0.69
   6   1  -9    2.26    0.78
   6   1  -9    3.14    0.89
   5   1  -9   14.41    1.55
   5   1  -9   18.40    1.83
   5   1  -9   14.78    1.98
   4   1  -9    1.08    0.45
   4   1  -9    0.92    0.59
   4   1  -9    1.42    0.63
  -4  -1   9    0.90    0.43
   3   1  -9    2.48    0.72
   3   1  -9    2.41    0.56
   3   1  -9    2.78    0.58
   2   1  -9   25.64    2.10
   2   1  -9   19.80    2.26
   2   1  -9   22.18    2.01
  -2  -1   9   23.80    2.10
   1   1  -9   14.12    1.56
   1   1  -9   16.99    1.45
  -1  -1   9   12.65    1.38
   0   1  -9    0.81    0.50
   0   1  -9    1.05    0.42
   0  -1   9    0.95    0.41
   0  -1   9    0.85    0.37
  -1   1  -9    8.24    1.16
  -1   1  -9    6.86    1.18
  -1   1  -9   10.51    1.23
   1  -1   9    9.34    1.28
   1  -1   9    7.90    1.09
   1  -1   9    9.25    1.09
  -2   1  -9    8.63    1.28
  -2   1  -9    5.44    0.94
  -2   1  -9    9.42    1.20
   2  -1   9    9.54    1.09
   2  -1   9    5.72    1.14
  -3   1  -9   46.40    4.01
  -3   1  -9   52.27    4.48
  -3   1  -9   54.59    4.76
   3  -1   9   53.25    4.09
   3  -1   9   48.55    4.47
   3  -1   9   46.25    4.00
  -4   1  -9    1.23    0.62
  -4   1  -9    0.94    0.60
   4  -1   9    1.29    0.48
   4  -1   9   -0.22    0.51
   4  -1   9    0.78    0.49
  -5   1  -9   19.87    2.59
  -5   1  -9   20.52    2.41
   5  -1   9   24.13    2.20
   5  -1   9   24.90    2.53
   5  -1   9   25.19    2.18
  -6   1  -9    3.72    1.10
   6  -1   9    5.44    1.02
   6  -1   9    5.14    1.17
   6  -1   9    5.46    0.96
   6  -1   9    5.77    1.15
   7  -1   9    0.58    0.55
   7  -1   9    0.93    0.70
   7  -1   9    1.05    0.84
   8  -1   9    0.81    0.68
   8  -1   9    0.84    0.73
   8  -1   9    0.38    0.79
  10   0  -9    0.64    0.67
  10   0  -9   -0.09    0.43
   9   0  -9    1.93    0.85
   9   0  -9    2.46    0.71
   9   0  -9    2.41    0.83
   8   0  -9   17.53    1.76
   8   0  -9   16.65    2.17
   8   0  -9   18.73    2.24
   7   0  -9    7.74    1.23
   7   0  -9    6.38    0.97
   7   0  -9    7.14    1.25
   6   0  -9    8.91    1.34
   6   0  -9    8.97    1.18
   6   0  -9   11.01    1.46
   5   0  -9   40.33    3.15
   5   0  -9   39.66    3.36
   5   0  -9   36.87    3.47
  -5   0   9   35.22    3.33
   4   0  -9    0.14    0.31
   4   0  -9    0.40    0.40
  -4   0   9   -0.09    0.41
   3   0  -9    2.75    0.57
   3   0  -9    4.42    0.70
   3   0  -9    2.53    0.66
  -3   0   9    1.40    0.46
   2   0  -9    0.33    0.34
   2   0  -9    0.38    0.40
   2   0  -9   -0.17    0.29
  -2   0   9    0.01    0.21
  -2   0   9   -0.16    0.34
  -2   0   9   -0.20    0.33
  -2   0   9   -0.16    0.21
   1   0  -9    3.68    0.79
   1   0  -9    3.53    0.68
  -1   0   9    4.38    0.75
  -1   0   9    4.53    0.81
  -1   0   9    3.49    0.56
  -1   0   9    5.32    0.69
   0   0  -9   96.14    7.91
   0   0  -9   89.77    7.19
   0   0  -9  103.37    8.26
   0   0   9   88.92    7.85
   0   0   9   89.13    8.21
   0   0   9   98.12    7.22
   0   0   9   94.64    7.12
  -1   0  -9   12.75    1.70
  -1   0  -9   19.04    1.69
  -1   0  -9   17.11    1.85
   1   0   9   17.14    1.56
   1   0   9   17.98    1.75
   1   0   9   17.69    1.57
   1   0   9   16.77    1.81
  -2   0  -9    0.25    0.48
  -2   0  -9    0.27    0.40
  -2   0  -9    0.93    0.45
   2   0   9    0.32    0.36
   2   0   9    0.92    0.41
   2   0   9    1.68    0.65
  -3   0  -9    1.17    0.62
  -3   0  -9    0.96    0.46
  -3   0  -9    0.50    0.50
   3   0   9    0.27    0.54
   3   0   9    0.96    0.46
   3   0   9    0.03    0.38
  -4   0  -9    1.58    0.78
  -4   0  -9    2.49    0.80
   4   0   9    2.48    0.64
   4   0   9    1.91    0.81
   4   0   9    2.09    0.66
  -5   0  -9   40.58    3.52
  -5   0  -9   38.00    3.69
   5   0   9   29.32    2.99
   5   0   9   32.72    3.17
   5   0   9   35.22    3.45
   5   0   9   37.22    3.06
   6   0   9   -0.49    0.54
   6   0   9    0.33    0.69
   6   0   9   -0.76    0.44
   6   0   9   -0.72    0.47
   7   0   9    4.23    0.92
   7   0   9    2.20    1.01
   8   0   9   11.22    1.66
  10  -1  -9    0.50    0.69
  10  -1  -9    0.07    0.51
   9  -1  -9    0.17    0.57
   9  -1  -9    1.09    0.54
   9  -1  -9    1.98    0.83
   8  -1  -9   37.75    3.68
   8  -1  -9   44.23    3.70
   8  -1  -9   39.13    3.31
   7  -1  -9   23.95    2.33
   7  -1  -9   21.90    2.30
   7  -1  -9   21.25    2.01
   6  -1  -9    0.26    0.45
   6  -1  -9    0.33    0.34
   6  -1  -9   -0.59    0.40
  -6   1   9   -0.26    0.39
   5  -1  -9    1.01    0.48
   5  -1  -9    0.64    0.46
   5  -1  -9    1.02    0.40
  -5   1   9    1.80    0.58
   4  -1  -9    1.74    0.58
   4  -1  -9    2.02    0.53
  -4   1   9    2.63    0.56
  -4   1   9    2.84    0.53
  -4   1   9    3.06    0.73
   3  -1  -9   53.41    4.19
   3  -1  -9   56.26    4.60
  -3   1   9   53.35    4.49
  -3   1   9   47.04    4.68
  -3   1   9   54.62    4.24
   2  -1  -9   -0.06    0.32
   2  -1  -9   -0.16    0.24
   2  -1  -9    0.14    0.38
  -2   1   9   -0.61    0.28
  -2   1   9    1.18    0.43
   1  -1  -9   37.76    3.10
   1  -1  -9   35.54    3.39
  -1   1   9   35.78    2.99
  -1   1   9   40.12    3.35
  -1   1   9   39.26    3.36
  -1   1   9   35.77    2.96
  -1   1   9   38.63    3.16
   0  -1  -9   51.47    4.69
   0  -1  -9   58.32    4.82
   0  -1  -9   53.01    4.28
   0   1   9   49.55    4.77
   0   1   9   53.48    4.63
   0   1   9   55.24    4.18
   0   1   9   54.07    4.22
  -1  -1  -9   -0.03    0.40
  -1  -1  -9    0.08    0.42
  -1  -1  -9    0.24    0.41
   1   1   9    0.37    0.37
   1   1   9   -0.59    0.42
   1   1   9    0.19    0.38
   1   1   9    0.31    0.44
  -2  -1  -9    1.82    0.63
  -2  -1  -9    1.74    0.73
  -2  -1  -9    2.99    0.71
   2   1   9    1.82    0.52
   2   1   9    2.61    0.77
   2   1   9    2.34    0.54
  -3  -1  -9    1.20    0.61
  -3  -1  -9    0.39    0.54
   3   1   9    0.05    0.39
   3   1   9    0.82    0.48
   3   1   9    0.76    0.53
  -4  -1  -9    1.28    0.71
  -4  -1  -9    1.14    0.61
   4   1   9    0.64    0.64
   4   1   9    1.03    0.55
   4   1   9    0.70    0.53
   4   1   9    0.75    0.51
  -5  -1  -9   26.00    3.00
   5   1   9   25.71    2.83
   5   1   9   26.66    2.59
   5   1   9   28.15    2.51
   6   1   9    2.82    0.98
   6   1   9    0.49    0.62
   6   1   9    3.24    0.88
   7   1   9   -0.20    0.79
  10  -2  -9   -0.26    0.63
  10  -2  -9   -0.16    0.45
   9  -2  -9    2.98    0.70
   9  -2  -9    1.67    0.75
   8  -2  -9    1.70    0.63
   8  -2  -9    1.78    0.57
   8  -2  -9    1.71    0.62
   7  -2  -9    4.23    0.92
   7  -2  -9    5.32    1.01
   7  -2  -9    5.93    0.85
  -7   2   9    5.43    1.03
   6  -2  -9   28.70    2.68
   6  -2  -9   32.00    2.99
   6  -2  -9   36.71    2.94
  -6   2   9   33.83    3.10
   5  -2  -9    1.93    0.50
   5  -2  -9    1.22    0.50
  -5   2   9    2.22    0.68
   4  -2  -9    0.61    0.45
   4  -2  -9    2.28    0.52
  -4   2   9    2.96    0.81
   3  -2  -9    1.98    0.50
   3  -2  -9    1.02    0.52
  -3   2   9    3.80    0.86
  -3   2   9    2.26    0.53
   2  -2  -9    5.39    0.96
   2  -2  -9    6.76    0.86
  -2   2   9    4.51    0.67
  -2   2   9    5.86    0.88
   1  -2  -9   23.36    2.17
   1  -2  -9   25.02    2.42
   1  -2  -9   23.44    2.26
  -1   2   9   24.62    2.17
  -1   2   9   25.74    2.34
  -1   2   9   24.54    2.32
   0  -2  -9    9.77    1.24
   0  -2  -9    9.62    1.40
   0  -2  -9    8.78    1.14
   0   2   9    8.83    1.27
   0   2   9    9.43    1.20
  -1  -2  -9   -0.33    0.35
  -1  -2  -9    0.13    0.41
  -1  -2  -9    0.07    0.48
   1   2   9   -0.50    0.39
  -2  -2  -9   47.72    4.15
  -2  -2  -9   43.12    3.59
  -2  -2  -9   37.66    3.92
   2   2   9   43.40    3.58
   2   2   9   43.25    3.95
  -3  -2  -9   -0.12    0.57
  -3  -2  -9    0.02    0.56
   3   2   9    0.67    0.71
   3   2   9    0.34    0.43
  -4  -2  -9    3.01    1.09
  -4  -2  -9    3.75    1.14
   4   2   9    6.94    1.32
   4   2   9    5.03    0.86
  -5  -2  -9   -0.26    0.78
   5   2   9    0.26    0.72
   5   2   9   -0.01    0.51
   6   2   9    1.19    0.86
   6   2   9    1.66    0.89
  10  -3  -9    0.26    0.43
   9  -3  -9   10.89    1.31
   9  -3  -9   11.59    1.49
   8  -3  -9    8.17    1.09
   8  -3  -9    8.39    1.20
   7  -3  -9    1.19    0.47
   7  -3  -9    1.60    0.58
  -7   3   9    1.38    0.69
   6  -3  -9  104.07    7.90
   6  -3  -9   91.83    7.23
  -6   3   9   89.93    8.18
   5  -3  -9    0.28    0.41
   5  -3  -9    1.02    0.41
  -5   3   9    0.50    0.58
   4  -3  -9    5.65    0.91
   4  -3  -9    5.90    0.84
  -4   3   9    5.76    1.15
   3  -3  -9    0.78    0.44
   3  -3  -9    0.26    0.34
  -3   3   9    0.85    0.69
  -3   3   9    0.58    0.39
   2  -3  -9   10.79    1.61
   2  -3  -9   15.83    1.49
  -2   3   9   14.20    1.51
  -2   3   9   18.06    2.16
   1  -3  -9   74.80    6.44
   1  -3  -9   77.07    6.29
   1  -3  -9   69.33    5.74
  -1   3   9   72.60    6.19
   0  -3  -9    1.31    0.48
   0  -3  -9    1.25    0.53
   0  -3  -9    1.26    0.57
   0   3   9    1.27    0.55
   0   3   9    1.55    0.34
  -1  -3  -9    1.03    0.46
  -1  -3  -9    1.52    0.58
  -1  -3  -9    1.28    0.68
   1   3   9    0.67    0.34
   1   3   9    1.22    0.57
  -2  -3  -9    5.93    1.20
  -2  -3  -9    4.07    0.90
  -2  -3  -9    4.73    0.88
   2   3   9    3.55    0.68
   2   3   9    3.68    0.89
  -3  -3  -9    2.06    0.81
  -3  -3  -9    0.75    0.79
   3   3   9    1.45    0.56
   3   3   9    1.38    0.80
  -4  -3  -9    9.59    1.63
   4   3   9    9.01    1.56
   5   3   9    0.87    0.84
   6   3   9    3.16    1.10
  10  -4  -9    1.26    0.54
   9  -4  -9    7.39    1.02
   9  -4  -9    9.56    1.23
   8  -4  -9    1.99    0.54
   8  -4  -9    2.94    0.70
  -8   4   9    3.26    1.02
   7  -4  -9   -0.20    0.35
   7  -4  -9   -0.30    0.33
  -7   4   9    0.50    0.66
   6  -4  -9    9.14    1.15
   6  -4  -9    7.67    0.97
  -6   4   9    7.05    1.32
   5  -4  -9    2.68    0.58
   5  -4  -9    3.52    0.73
  -5   4   9    3.86    1.05
   4  -4  -9   36.24    2.96
   4  -4  -9   37.62    3.27
  -4   4   9   33.41    3.51
   3  -4  -9   -0.23    0.33
   3  -4  -9   -0.13    0.40
  -3   4   9    0.41    0.65
   2  -4  -9    9.80    1.44
   2  -4  -9   10.50    1.32
  -2   4   9   14.50    1.86
  -2   4   9   10.25    1.33
   1  -4  -9   14.55    1.69
   1  -4  -9   14.88    1.62
   1  -4  -9   15.90    1.88
  -1   4   9   15.23    1.79
   0  -4  -9   -0.15    0.49
   0  -4  -9    0.29    0.51
   0  -4  -9    0.22    0.47
   0   4   9    0.97    0.62
  -1  -4  -9    9.02    1.50
  -1  -4  -9    8.96    1.37
  -1  -4  -9   10.71    1.37
   1   4   9    9.13    1.42
  -2  -4  -9    0.44    0.73
  -2  -4  -9    0.76    0.79
  -2  -4  -9    1.74    0.64
   2   4   9    2.02    0.81
  -3  -4  -9    1.12    0.83
   3   4   9    0.83    0.71
   4   4   9    3.54    1.23
   5   4   9    0.77    0.97
   8  -5  -9    2.94    0.65
   8  -5  -9    3.34    0.67
  -8   5   9    4.47    1.16
   7  -5  -9   13.93    1.41
   7  -5  -9   14.12    1.55
  -7   5   9   19.01    2.28
   6  -5  -9    0.94    0.39
   6  -5  -9    0.41    0.42
  -6   5   9    0.07    0.61
   5  -5  -9    0.43    0.47
   5  -5  -9    0.36    0.39
  -5   5   9    0.68    0.74
   4  -5  -9   16.98    1.77
   4  -5  -9   15.13    1.59
  -4   5   9   17.79    2.36
   3  -5  -9    0.23    0.41
   3  -5  -9    0.25    0.48
  -3   5   9    0.14    0.69
   2  -5  -9    2.46    0.78
   2  -5  -9    2.52    0.68
  -2   5   9    3.16    0.96
   1  -5  -9    8.12    1.28
   1  -5  -9    5.93    1.06
  -1   5   9    7.98    1.52
   0  -5  -9    2.04    0.73
   0  -5  -9    0.25    0.49
   0   5   9    0.81    0.56
  -1  -5  -9   76.93    6.29
  -1  -5  -9   92.18    7.16
  -1  -5  -9   73.34    7.26
   1   5   9   82.54    6.93
  -2  -5  -9    0.75    0.68
   2   5   9   -0.59    0.63
   3   5   9    0.65    0.87
   4   5   9    0.62    0.94
  -9   6   9    3.17    1.26
   8  -6  -9    1.40    0.44
  -8   6   9    1.56    0.97
   7  -6  -9   31.50    2.71
   7  -6  -9   28.83    2.46
  -7   6   9   26.11    3.13
   6  -6  -9   -0.32    0.42
   6  -6  -9    0.82    0.44
  -6   6   9   -0.25    0.56
   5  -6  -9    0.00    0.42
   5  -6  -9    0.26    0.41
  -5   6   9   -0.68    0.66
   4  -6  -9    0.11    0.48
   4  -6  -9    0.85    0.49
  -4   6   9   -0.20    0.76
   3  -6  -9    0.41    0.52
   3  -6  -9   -0.07    0.45
  -3   6   9    0.53    0.74
   2  -6  -9    8.94    1.41
   2  -6  -9   10.90    1.38
  -2   6   9   10.75    1.81
   1  -6  -9    5.46    1.21
   1  -6  -9    4.68    0.87
  -1   6   9    2.65    1.11
   0  -6  -9   -0.07    0.48
   0   6   9   -0.28    0.94
  -1  -6  -9    0.45    0.65
   1   6   9    0.56    0.66
   1   6   9    0.97    0.97
   2   6   9    0.49    0.75
   3   6   9    3.92    1.17
   4   6   9    2.13    1.15
  -9   7   9    0.07    0.88
   8  -7  -9   -0.03    0.40
  -8   7   9   -0.53    0.75
   7  -7  -9    4.73    0.91
   7  -7  -9    5.05    0.81
  -7   7   9    4.25    1.18
   6  -7  -9    6.16    0.97
   6  -7  -9    8.47    1.25
  -6   7   9    9.21    1.71
   5  -7  -9   52.88    4.46
   5  -7  -9   46.85    4.00
   4  -7  -9    7.22    1.20
   4  -7  -9    7.05    1.06
  -4   7   9    7.50    1.62
   3  -7  -9    0.74    0.67
   3  -7  -9    0.41    0.51
  -3   7   9    0.40    0.86
   2  -7  -9    5.16    0.95
  -2   7   9    6.44    1.58
   1  -7  -9    1.86    0.69
  -1   7   9    2.00    0.99
   0  -7  -9    0.59    0.66
   0   7   9    0.74    1.08
  -1  -7  -9    0.73    0.65
   1   7   9   -0.17    0.95
   2   7   9    4.41    1.59
  -9   8   9   -0.13    0.97
   8  -8  -9    3.48    0.72
  -8   8   9    2.78    1.22
   7  -8  -9    0.09    0.50
  -7   8   9    1.19    1.04
   6  -8  -9    0.67    0.55
  -6   8   9    2.11    1.12
   5  -8  -9    8.53    1.23
  -5   8   9    9.64    1.95
   4  -8  -9   -0.29    0.46
  -4   8   9   -0.50    0.87
   3  -8  -9    1.26    0.62
  -3   8   9    2.40    1.18
   2  -8  -9    5.26    1.07
  -2   8   9    9.15    1.87
   1  -8  -9   -0.16    0.61
  -1   8   9   -0.03    1.08
   0  -8  -9   27.45    2.80
   0   8   9   31.29    3.51
   1   8   9   -0.90    1.05
   7  -9  -9    1.02    0.56
  -7   9   9    0.88    1.15
   6  -9  -9    0.26    0.50
  -6   9   9   -1.52    0.83
   5  -9  -9    1.33    0.62
  -5   9   9    0.13    1.01
   4  -9  -9    6.73    1.16
  -4   9   9    6.25    1.62
   3  -9  -9    9.92    1.51
  -3   9   9   13.89    2.42
   2  -9  -9   -0.27    0.71
  -2   9   9   -0.67    1.02
   1  -9  -9    0.50    0.73
  -1   9   9   -0.17    1.08
   2 -12  10   -0.71    0.78
   3 -12  10    3.55    1.12
   4 -12  10    6.19    1.31
   5 -12  10   -0.33    0.66
   2  11 -10   11.21    2.15
   1  11 -10   -0.27    0.99
   0  11 -10   -0.77    0.82
   2 -11  10    8.80    1.50
   3 -11  10   17.61    2.17
   4 -11  10   -0.30    0.57
   5 -11  10    0.84    0.78
   6 -11  10    1.44    0.81
   4  10 -10    0.27    0.84
   3  10 -10    0.98    0.90
   2  10 -10   15.02    2.28
   1  10 -10    0.57    0.76
   0  10 -10   17.57    2.57
  -1  10 -10    3.24    1.10
   1 -10  10    2.32    0.91
   2 -10  10   -0.04    0.59
   3 -10  10    3.18    0.92
   4 -10  10    1.29    0.70
   5 -10  10    3.47    1.03
   6 -10  10    6.60    1.31
   7 -10  10   -0.60    0.65
   5   9 -10   -0.47    0.99
   4   9 -10    2.40    1.12
   3   9 -10    4.44    1.30
   2   9 -10    1.04    0.85
  -2  -9  10    1.24    1.05
   1   9 -10    4.56    1.31
   0   9 -10    3.23    1.19
  -1   9 -10    7.17    1.56
   1  -9  10    3.27    0.92
  -2   9 -10    2.02    0.90
   2  -9  10    3.30    0.89
   3  -9  10   13.05    1.69
   4  -9  10    4.51    0.99
   5  -9  10   15.94    1.98
   6  -9  10    0.05    0.59
   7  -9  10   -0.57    0.58
   8  -9  10    0.49    0.74
   5   8 -10    5.29    1.52
   4   8 -10    2.97    1.07
  -4  -8  10    4.15    1.39
   3   8 -10   10.67    1.77
  -3  -8  10   11.01    1.91
   2   8 -10    0.45    0.82
  -2  -8  10    0.23    0.77
   1   8 -10   -0.56    0.54
   0   8 -10    5.29    1.21
   0  -8  10    4.59    0.96
  -1   8 -10    1.63    0.74
   1  -8  10    0.93    0.54
  -2   8 -10   12.19    2.01
   2  -8  10   14.66    1.72
  -3   8 -10    1.43    0.81
   3  -8  10    1.73    0.70
   4  -8  10    1.74    0.76
   5  -8  10   -0.05    0.56
   6  -8  10    1.16    0.68
   7  -8  10    5.68    1.16
   8  -8  10    4.42    1.10
   8  -8  10    4.15    1.14
   6   7 -10    9.48    1.77
   6   7 -10    8.12    1.40
   5   7 -10   -0.07    0.51
   5   7 -10   -0.19    0.78
   4   7 -10    1.75    0.95
   4   7 -10    0.76    0.58
  -4  -7  10    0.97    0.86
   3   7 -10   12.91    1.92
   3   7 -10   14.64    1.80
  -3  -7  10   10.86    1.85
   2   7 -10    3.12    1.04
   2   7 -10    2.26    0.70
   1   7 -10   27.42    2.95
   0   7 -10    9.88    1.66
   0  -7  10   11.30    1.43
  -1   7 -10    2.46    1.02
   1  -7  10    0.19    0.47
  -2   7 -10   11.00    1.70
   2  -7  10   12.21    1.54
  -3   7 -10    3.82    1.08
   3  -7  10    5.36    1.01
  -4   7 -10    5.18    1.17
   4  -7  10    3.79    0.91
   5  -7  10   11.47    1.56
   6  -7  10   10.11    1.45
   7  -7  10    5.24    1.05
   8  -7  10    1.30    0.91
   7   6 -10   -0.76    0.56
   7   6 -10   -0.93    0.71
   6   6 -10    1.71    0.81
   6   6 -10    0.68    0.92
   5   6 -10   -0.25    0.86
   5   6 -10    0.86    0.56
   5   6 -10    0.43    0.76
   4   6 -10    7.10    1.43
   4   6 -10    7.24    1.21
  -4  -6  10    7.33    1.44
   3   6 -10    8.23    1.36
   3   6 -10   10.68    1.81
  -3  -6  10   10.16    1.59
   2   6 -10   17.69    2.19
   2   6 -10   15.88    1.84
   1   6 -10    1.63    0.58
   1   6 -10    0.83    0.66
  -1  -6  10    1.03    0.56
   0   6 -10    1.03    0.55
   0   6 -10    0.83    0.65
   0  -6  10    1.16    0.57
  -1   6 -10    1.04    0.63
   1  -6  10    1.84    0.57
  -2   6 -10   16.59    2.19
   2  -6  10   17.69    1.78
  -3   6 -10    0.86    0.63
   3  -6  10   -0.06    0.43
  -4   6 -10   45.65    4.10
   4  -6  10   43.15    3.71
   5  -6  10    2.07    0.73
   6  -6  10    0.68    0.60
   7  -6  10    0.47    0.77
   8  -6  10   -0.74    0.70
   8  -6  10   -0.71    0.53
   8   5 -10   -0.09    0.65
   8   5 -10   -1.01    0.72
   7   5 -10    5.18    1.39
   7   5 -10    4.08    1.00
   6   5 -10   45.73    4.43
   6   5 -10   43.82    3.86
   5   5 -10   -0.57    0.69
   5   5 -10   -0.21    0.57
   5   5 -10    0.19    0.49
   4   5 -10   10.10    1.41
   4   5 -10   11.44    1.74
  -4  -5  10   11.22    1.59
   3   5 -10   -0.71    0.54
   3   5 -10    1.50    0.57
  -3  -5  10   -0.03    0.63
   2   5 -10    2.68    0.83
   2   5 -10    3.22    0.78
   1   5 -10   49.28    3.83
   1   5 -10   45.23    4.26
  -1  -5  10   42.40    3.71
   0   5 -10    5.46    1.00
   0   5 -10    8.70    1.42
   0  -5  10    7.11    1.08
  -1   5 -10    2.66    0.69
  -1   5 -10    2.88    0.96
   1  -5  10    4.27    0.82
  -2   5 -10    1.56    0.64
   2  -5  10    0.92    0.50
  -3   5 -10    2.45    0.74
   3  -5  10    4.81    0.90
  -4   5 -10    7.21    1.33
   4  -5  10   11.59    1.38
   5  -5  10    2.18    0.71
   6  -5  10   12.66    1.87
   7  -5  10   17.78    2.08
   7  -5  10   18.70    2.51
   8  -5  10    0.84    0.64
   8  -5  10    0.11    0.78
   8   4 -10    6.98    1.52
   8   4 -10    6.69    1.33
   7   4 -10    2.76    0.80
   7   4 -10   -0.05    0.71
   6   4 -10    1.62    0.61
   6   4 -10    1.05    0.69
   6   4 -10    0.73    0.83
   5   4 -10    2.93    0.94
   5   4 -10    3.54    1.04
   5   4 -10    5.68    0.94
   4   4 -10    7.86    1.28
   4   4 -10    9.74    1.64
  -4  -4  10    8.68    1.29
   3   4 -10    1.73    0.70
   3   4 -10    2.08    0.68
  -3  -4  10    2.11    0.68
   2   4 -10   43.99    3.68
   1   4 -10   32.03    3.38
   1   4 -10   38.24    3.08
  -1  -4  10   34.94    2.95
   0   4 -10   -0.34    0.35
   0   4 -10    0.23    0.51
   0  -4  10    0.42    0.38
  -1   4 -10   12.28    1.76
  -1   4 -10   11.22    1.38
   1  -4  10    9.86    1.31
  -2   4 -10    0.99    0.61
  -2   4 -10    1.81    0.56
   2  -4  10    1.71    0.51
  -3   4 -10   -0.06    0.40
   3  -4  10    0.08    0.45
  -4   4 -10   11.52    1.61
   4  -4  10   10.69    1.41
  -5   4 -10   10.79    1.64
   5  -4  10   13.03    1.81
  -6   4 -10    4.68    1.33
   6  -4  10    8.20    1.20
   6  -4  10    6.78    1.32
   7  -4  10   -0.46    0.64
   7  -4  10    0.75    0.60
   8  -4  10    0.85    0.72
   8  -4  10    1.25    1.11
   9   3 -10    1.21    0.96
   9   3 -10    1.34    0.79
   8   3 -10   -0.76    0.46
   8   3 -10   -0.02    0.77
   7   3 -10    4.46    1.21
   7   3 -10    7.50    1.34
   7   3 -10    7.39    1.18
   6   3 -10    0.97    0.54
   6   3 -10    0.43    0.77
   6   3 -10    0.05    0.59
   5   3 -10    0.72    0.64
   5   3 -10    0.02    0.45
   5   3 -10    1.18    0.67
   4   3 -10   10.38    1.31
   4   3 -10    9.26    1.46
  -4  -3  10    9.78    1.27
   3   3 -10   15.41    1.70
   3   3 -10   12.66    1.82
  -3  -3  10   14.79    1.62
   2   3 -10    1.03    0.53
   2   3 -10   -0.67    0.46
  -2  -3  10   -0.35    0.35
   1   3 -10    2.17    0.68
   1   3 -10    2.70    0.81
  -1  -3  10    3.98    0.72
  -1  -3  10    2.84    0.66
   0   3 -10    3.72    0.85
   0   3 -10    5.11    0.88
   0  -3  10    4.50    0.77
   0  -3  10    4.57    0.81
  -1   3 -10   37.57    3.19
  -1   3 -10   37.37    3.58
   1  -3  10   39.70    3.20
  -2   3 -10    0.09    0.54
  -2   3 -10   -0.14    0.39
   2  -3  10   -0.30    0.36
  -3   3 -10   27.57    2.77
  -4   3 -10    1.42    0.81
  -4   3 -10    1.54    0.67
   4  -3  10    1.25    0.75
   4  -3  10    1.40    0.53
  -5   3 -10    0.33    0.67
  -5   3 -10    0.22    0.58
   5  -3  10   -0.51    0.42
   5  -3  10   -0.38    0.58
  -6   3 -10    7.06    1.58
   6  -3  10    7.73    1.22
   6  -3  10    6.62    1.39
   7  -3  10    8.85    1.37
   7  -3  10    8.45    1.62
   7  -3  10    8.11    1.31
   8  -3  10    1.23    0.70
   8  -3  10    0.27    0.62
   8  -3  10    0.38    0.67
   9   2 -10    0.38    0.63
   9   2 -10    0.28    0.74
   8   2 -10    0.99    0.59
   8   2 -10    1.19    0.83
   8   2 -10    1.42    0.83
   7   2 -10   51.31    5.21
   7   2 -10   63.96    4.77
   7   2 -10   58.16    5.14
   6   2 -10    1.22    0.70
   6   2 -10    1.80    0.61
   6   2 -10    0.82    0.68
   5   2 -10   11.95    1.70
   5   2 -10   13.35    1.59
   5   2 -10   13.63    1.81
   4   2 -10    2.03    0.72
   4   2 -10    3.98    0.78
   3   2 -10    1.03    0.48
   3   2 -10    1.27    0.67
  -3  -2  10    0.64    0.41
   2   2 -10   37.88    3.44
   2   2 -10   39.53    3.83
  -2  -2  10   44.74    3.75
   1   2 -10   50.97    4.63
  -1  -2  10   54.35    4.13
  -1  -2  10   50.90    4.64
   0   2 -10    7.90    1.09
   0   2 -10    5.31    1.10
   0  -2  10    9.84    1.14
   0  -2  10    7.50    1.04
  -1   2 -10   17.87    1.57
  -1   2 -10   11.06    1.70
  -2   2 -10    3.53    0.77
  -2   2 -10    3.58    0.87
   2  -2  10    4.99    0.83
   2  -2  10    4.93    1.01
  -3   2 -10    0.89    0.61
  -3   2 -10    0.99    0.61
   3  -2  10    0.66    0.64
   3  -2  10    0.17    0.40
  -4   2 -10    0.59    0.69
  -4   2 -10    0.99    0.60
   4  -2  10    1.53    0.78
   4  -2  10    0.75    0.46
  -5   2 -10   10.49    1.64
  -5   2 -10   11.11    1.80
   5  -2  10   11.02    1.47
   5  -2  10   11.07    1.47
   5  -2  10   12.28    1.76
  -6   2 -10   39.22    4.31
   6  -2  10   43.75    3.44
   6  -2  10   39.23    3.79
   6  -2  10   31.71    3.26
   7  -2  10    1.70    0.77
   7  -2  10    2.72    0.86
   7  -2  10    2.05    0.86
   8  -2  10    5.36    1.21
   8  -2  10    6.05    1.51
   8  -2  10    7.37    1.37
  10   1 -10   15.14    2.22
   9   1 -10    2.26    0.76
   9   1 -10    2.06    0.88
   8   1 -10    1.73    0.68
   8   1 -10    2.04    0.86
   8   1 -10    2.58    0.95
   7   1 -10    0.45    0.68
   7   1 -10   -0.34    0.55
   7   1 -10    0.40    0.47
   6   1 -10    2.97    0.88
   6   1 -10    2.25    0.69
   6   1 -10    0.74    0.68
   5   1 -10   53.16    4.72
   5   1 -10   54.51    4.54
   5   1 -10   48.95    4.20
   4   1 -10    4.57    0.84
   4   1 -10    4.15    0.93
  -4  -1  10    3.76    0.72
   3   1 -10   17.09    1.73
   3   1 -10   18.38    1.99
   2   1 -10   58.65    4.45
   2   1 -10   55.68    4.87
  -2  -1  10   53.28    4.82
   1   1 -10   -0.05    0.28
   1   1 -10   -0.18    0.42
  -1  -1  10    0.08    0.30
  -1  -1  10    0.27    0.29
   0   1 -10   -0.10    0.34
   0   1 -10    0.18    0.50
   0  -1  10   -0.18    0.31
   0  -1  10   -0.06    0.44
   0  -1  10    0.95    0.39
  -1   1 -10    1.43    0.62
  -1   1 -10    1.32    0.57
   1  -1  10    2.76    0.65
   1  -1  10    2.83    0.81
  -2   1 -10    1.40    0.54
  -2   1 -10    1.15    0.63
  -2   1 -10    1.21    0.62
   2  -1  10    1.26    0.70
   2  -1  10    0.64    0.39
   2  -1  10    1.64    0.51
  -3   1 -10    2.40    0.81
  -3   1 -10    3.51    0.90
   3  -1  10    1.99    0.64
   3  -1  10    3.13    0.87
   3  -1  10    2.15    0.59
  -4   1 -10    4.90    1.10
  -4   1 -10    5.65    1.23
   4  -1  10    8.27    1.12
   4  -1  10    3.33    0.75
   4  -1  10    6.56    1.23
  -5   1 -10    5.71    1.39
  -5   1 -10    4.03    1.18
   5  -1  10    7.92    1.17
   5  -1  10    6.42    1.35
   5  -1  10    6.78    1.10
   6  -1  10   -0.48    0.49
   6  -1  10   -0.57    0.58
   6  -1  10   -0.59    0.56
   6  -1  10   -0.05    0.65
   7  -1  10   -0.41    0.61
   7  -1  10   -0.83    0.76
  10   0 -10    2.47    0.95
  10   0 -10    1.94    0.74
   9   0 -10   -0.66    0.43
   9   0 -10   -0.52    0.64
   9   0 -10   -2.09    0.76
   8   0 -10    5.79    1.19
   8   0 -10    7.73    1.36
   8   0 -10    5.43    1.00
   7   0 -10   -0.17    0.54
   7   0 -10    0.12    0.59
   7   0 -10   -0.40    0.38
   6   0 -10    0.87    0.54
   6   0 -10    0.21    0.58
   6   0 -10    0.20    0.40
   5   0 -10   10.49    1.56
   5   0 -10   12.40    1.42
  -5   0  10   11.24    1.41
   4   0 -10    2.92    0.76
   4   0 -10    2.25    0.61
  -4   0  10    2.86    0.68
   3   0 -10    1.35    0.56
   3   0 -10    1.17    0.46
  -3   0  10    1.72    0.56
   2   0 -10    8.68    1.07
   2   0 -10    4.19    0.99
  -2   0  10   12.93    1.35
   1   0 -10    2.97    0.68
   1   0 -10    2.46    0.74
  -1   0  10    2.28    0.70
  -1   0  10    1.89    0.47
   0   0 -10  222.10   15.44
   0   0 -10  222.28   16.87
   0   0  10  198.16   15.29
   0   0  10  194.35   17.76
   0   0  10  204.36   16.79
  -1   0 -10    1.31    0.57
  -1   0 -10    1.62    0.64
  -1   0 -10    1.34    0.57
   1   0  10    3.03    0.75
   1   0  10    2.01    0.55
  -2   0 -10    6.93    1.13
  -2   0 -10    6.35    1.02
  -2   0 -10    4.48    0.97
   2   0  10    7.44    1.23
   2   0  10    4.61    0.82
   2   0  10    7.17    0.98
  -3   0 -10    5.01    1.13
  -3   0 -10    5.34    1.09
   3   0  10    6.86    1.27
   3   0  10    5.80    0.97
   3   0  10    7.72    1.05
  -4   0 -10   -0.06    0.76
  -4   0 -10    0.47    0.65
   4   0  10    1.18    0.56
   4   0  10    2.28    0.85
  -5   0 -10    2.79    0.96
  -5   0 -10    1.89    0.98
   5   0  10    3.11    0.88
   5   0  10    1.96    0.72
   5   0  10    4.21    1.13
   6   0  10   -0.46    0.69
   6   0  10    0.22    0.77
   7   0  10    4.06    1.25
  10  -1 -10    3.96    1.09
  10  -1 -10    3.50    0.86
   9  -1 -10    1.44    0.59
   9  -1 -10    1.37    0.78
   8  -1 -10   43.40    4.08
   8  -1 -10   43.15    4.19
   8  -1 -10   50.04    3.84
   7  -1 -10    3.91    0.92
   7  -1 -10    4.53    0.83
   7  -1 -10    2.22    0.79
   6  -1 -10    8.90    1.13
   6  -1 -10    5.20    1.01
   6  -1 -10    7.40    1.21
   5  -1 -10    0.70    0.42
   5  -1 -10    0.61    0.51
  -5   1  10    0.95    0.53
   4  -1 -10    0.12    0.41
   4  -1 -10    0.03    0.38
  -4   1  10   -0.09    0.45
   3  -1 -10    0.39    0.49
   3  -1 -10    2.82    0.63
  -3   1  10    2.40    0.74
  -3   1  10    1.31    0.51
   2  -1 -10    4.67    0.78
   2  -1 -10    1.99    0.65
  -2   1  10    3.71    0.72
   1  -1 -10    9.75    1.42
   1  -1 -10    9.15    1.21
  -1   1  10   10.03    1.31
   0  -1 -10    4.81    0.96
   0  -1 -10    6.04    0.88
   0  -1 -10    5.49    1.04
   0   1  10    7.22    1.09
   0   1  10    5.57    0.90
  -1  -1 -10    3.03    0.75
  -1  -1 -10    3.44    0.73
  -1  -1 -10    3.93    0.92
   1   1  10    6.22    1.01
  -2  -1 -10    7.28    1.23
  -2  -1 -10    7.21    1.22
  -2  -1 -10    8.60    1.17
   2   1  10    8.18    1.33
  -3  -1 -10    0.95    0.67
  -3  -1 -10    0.83    0.67
   3   1  10    0.66    0.68
  -4  -1 -10    0.02    0.56
  -4  -1 -10    1.95    0.74
   4   1  10    0.54    0.52
   4   1  10   -0.36    0.59
  -5  -1 -10   14.47    2.06
  -5  -1 -10   16.04    2.28
   5   1  10   19.15    2.41
   5   1  10   10.91    1.66
   6   1  10    0.78    0.74
  10  -2 -10    8.80    1.39
  10  -2 -10    7.30    1.19
   9  -2 -10    0.80    0.52
   9  -2 -10    0.84    0.72
   8  -2 -10    0.37    0.57
   8  -2 -10   -0.12    0.38
   7  -2 -10    0.17    0.37
   7  -2 -10    0.44    0.52
   6  -2 -10   98.80    7.14
   6  -2 -10   91.56    7.76
  -6   2  10   88.29    7.94
   5  -2 -10    3.22    0.66
   5  -2 -10    2.62    0.70
  -5   2  10    1.82    0.73
   4  -2 -10    4.76    0.77
   4  -2 -10    4.13    0.87
  -4   2  10    5.45    1.08
   3  -2 -10   20.14    1.89
   3  -2 -10   14.27    1.58
  -3   2  10   18.69    2.02
  -3   2  10   14.85    1.73
   2  -2 -10    0.12    0.36
   2  -2 -10    0.09    0.43
  -2   2  10    0.17    0.43
   1  -2 -10   -0.05    0.36
   1  -2 -10    0.84    0.54
   1  -2 -10    0.58    0.33
  -1   2  10    0.46    0.48
   0  -2 -10    0.49    0.55
   0  -2 -10    1.24    0.50
   0  -2 -10    1.22    0.58
   0   2  10    1.56    0.57
  -1  -2 -10    0.73    0.55
  -1  -2 -10    1.69    0.57
  -1  -2 -10    1.17    0.64
   1   2  10    0.78    0.60
  -2  -2 -10   56.21    5.28
  -2  -2 -10   49.23    5.06
  -2  -2 -10   55.32    4.63
   2   2  10   61.20    5.12
   2   2  10   61.83    4.67
  -3  -2 -10    4.80    1.10
  -3  -2 -10    3.84    0.99
   3   2  10    4.18    0.99
   3   2  10    3.41    0.78
  -4  -2 -10    0.90    0.88
  -4  -2 -10    0.57    0.85
   4   2  10    0.09    0.71
   4   2  10    1.78    0.67
   5   2  10   -1.02    0.66
   6   2  10    0.88    0.83
  10  -3 -10    1.10    0.56
   9  -3 -10    0.34    0.58
   9  -3 -10    0.50    0.43
   8  -3 -10   -0.01    0.45
   8  -3 -10    0.24    0.53
   7  -3 -10    1.11    0.43
   7  -3 -10    0.06    0.44
  -7   3  10    0.70    0.63
   6  -3 -10   66.31    5.69
   6  -3 -10   66.07    5.21
  -6   3  10   67.77    5.94
   5  -3 -10    4.36    0.92
   5  -3 -10    6.04    0.88
  -5   3  10    8.69    1.38
   4  -3 -10    1.81    0.53
   4  -3 -10    3.74    0.80
  -4   3  10    2.47    0.91
   3  -3 -10    5.93    0.94
   3  -3 -10    5.76    1.01
  -3   3  10    3.26    0.96
   2  -3 -10    0.85    0.48
   2  -3 -10    0.35    0.51
  -2   3  10    1.11    0.50
   1  -3 -10   36.48    3.04
   1  -3 -10   34.82    3.29
  -1   3  10   33.14    3.18
   0  -3 -10   -0.70    0.46
   0  -3 -10    0.89    0.54
   0  -3 -10    0.24    0.42
   0   3  10    1.08    0.55
  -1  -3 -10    9.79    1.31
  -1  -3 -10    8.89    1.48
  -1  -3 -10    5.90    1.04
   1   3  10    7.37    1.30
  -2  -3 -10    7.11    1.34
  -2  -3 -10    9.67    1.26
  -2  -3 -10    8.32    1.39
   2   3  10    6.73    1.22
  -3  -3 -10    3.51    1.11
  -3  -3 -10    1.51    0.93
   3   3  10    3.91    1.11
  -4  -3 -10   -0.79    0.86
   4   3  10    2.90    1.02
   5   3  10    0.85    0.97
  10  -4 -10    0.48    0.47
   9  -4 -10    9.09    1.17
   9  -4 -10    8.95    1.31
   8  -4 -10    0.27    0.53
   8  -4 -10   -0.07    0.43
   7  -4 -10    0.01    0.43
   7  -4 -10    1.01    0.50
  -7   4  10    0.86    0.63
   6  -4 -10    0.65    0.47
   6  -4 -10    0.34    0.38
  -6   4  10   -1.00    0.49
   5  -4 -10   11.21    1.47
   5  -4 -10   13.98    1.31
  -5   4  10    9.98    1.66
   4  -4 -10   51.53    3.87
   4  -4 -10   37.40    4.12
  -4   4  10   57.27    4.60
   3  -4 -10    0.27    0.50
   3  -4 -10    0.64    0.51
  -3   4  10    0.43    0.66
   2  -4 -10   -0.17    0.41
   2  -4 -10   -0.61    0.43
  -2   4  10   -0.39    0.74
   1  -4 -10    1.65    0.65
   1  -4 -10    1.76    0.68
  -1   4  10    0.85    0.57
   0  -4 -10    0.94    0.67
   0  -4 -10    2.45    0.71
   0   4  10    2.28    0.75
  -1  -4 -10   10.13    1.69
  -1  -4 -10    8.75    1.32
   1   4  10   11.97    1.65
  -2  -4 -10    1.03    0.87
   2   4  10    1.66    0.77
  -3  -4 -10    1.16    0.99
   3   4  10   -0.07    0.76
   4   4  10   29.88    3.24
   5   4  10    1.06    0.96
  10  -5 -10   -0.74    0.46
   9  -5 -10    1.39    0.56
   8  -5 -10    1.07    0.48
   8  -5 -10    1.75    0.59
  -8   5  10    0.67    0.82
   7  -5 -10   11.21    1.36
   7  -5 -10   17.03    1.61
  -7   5  10   11.66    1.92
   6  -5 -10    1.77    0.53
   6  -5 -10    2.56    0.70
  -6   5  10    0.63    0.81
   5  -5 -10    0.48    0.45
   5  -5 -10    1.13    0.59
  -5   5  10    1.05    0.84
   4  -5 -10   38.63    3.77
   4  -5 -10   44.77    3.52
  -4   5  10   42.75    4.18
   3  -5 -10   -0.46    0.42
   3  -5 -10   -0.29    0.45
  -3   5  10   -0.38    0.62
   2  -5 -10   -0.30    0.46
   2  -5 -10    0.05    0.44
  -2   5  10    0.14    0.80
   1  -5 -10    0.80    0.54
   1  -5 -10    1.01    0.75
  -1   5  10    1.12    0.93
   0  -5 -10    0.46    0.67
   0  -5 -10    1.39    0.69
  -1  -5 -10   24.87    3.28
  -1  -5 -10   29.21    2.61
   1   5  10   26.68    2.85
   2   5  10    0.80    0.83
   3   5  10   -0.55    0.82
   4   5  10    0.35    1.02
   9  -6 -10    0.51    0.42
   8  -6 -10   -0.38    0.47
   8  -6 -10   -0.30    0.36
  -8   6  10    0.53    0.78
   7  -6 -10    5.15    0.95
   7  -6 -10    5.86    0.89
  -7   6  10    3.55    1.20
   6  -6 -10    3.99    0.80
   6  -6 -10    5.38    0.97
  -6   6  10    5.62    1.35
   5  -6 -10    1.87    0.66
   5  -6 -10    2.00    0.60
  -5   6  10    1.35    0.94
   4  -6 -10    7.53    1.19
   4  -6 -10    8.04    1.15
  -4   6  10    7.50    1.53
   3  -6 -10    0.24    0.56
   3  -6 -10    1.32    0.66
  -3   6  10   -0.37    0.86
   2  -6 -10   21.83    2.26
   2  -6 -10   26.24    2.61
  -2   6  10   22.63    2.98
   1  -6 -10    2.71    0.99
   1  -6 -10    1.91    0.76
  -1   6  10    1.47    1.05
   0  -6 -10   10.22    1.41
   0   6  10    9.13    1.95
  -1  -6 -10    7.22    1.35
   1   6  10    7.02    1.64
  -9   7  10    0.70    1.02
   8  -7 -10    0.49    0.52
  -8   7  10    1.14    1.00
   7  -7 -10    0.54    0.47
   7  -7 -10    0.80    0.62
  -7   7  10    0.99    1.00
   6  -7 -10    2.62    0.77
   6  -7 -10    2.75    0.67
  -6   7  10    1.70    1.04
   5  -7 -10   26.98    2.46
   5  -7 -10   26.72    2.73
  -5   7  10   27.98    3.49
   4  -7 -10    0.81    0.64
   4  -7 -10    0.20    0.56
  -4   7  10    1.87    1.07
   3  -7 -10    7.06    1.20
   3  -7 -10    8.38    1.51
  -3   7  10   10.01    1.95
   2  -7 -10    1.27    0.65
   2  -7 -10    0.55    0.88
  -2   7  10    0.79    1.13
   1  -7 -10   -0.26    0.58
  -1   7  10   -0.05    0.95
   0  -7 -10   10.00    1.54
   0   7  10    9.70    2.09
   1   7  10    1.61    1.30
  -8   8  10    7.47    1.73
   7  -8 -10    2.96    0.77
  -7   8  10    2.20    1.06
   6  -8 -10   -0.91    0.65
   6  -8 -10    0.54    0.53
  -6   8  10    1.49    1.16
   5  -8 -10   20.29    2.06
  -5   8  10   21.17    3.00
   4  -8 -10    0.73    0.59
  -4   8  10   -0.35    1.13
   3  -8 -10   -0.36    0.58
  -3   8  10   -1.21    0.91
   2  -8 -10    1.19    0.78
  -2   8  10    2.10    1.21
   1  -8 -10    1.43    0.84
  -1   8  10    0.11    1.17
   0  -8 -10    7.42    1.35
   5  -9 -10    4.30    1.01
  -5   9  10    4.11    1.65
   4  -9 -10   -0.26    0.57
  -4   9  10    0.87    1.17
   3  -9 -10   24.09    2.47
   3 -12  11    1.26    0.80
   4 -12  11    1.38    0.88
   2  11 -11    6.98    1.70
   1  11 -11    0.63    1.02
   2 -11  11   -0.04    0.68
   3 -11  11   12.86    1.78
   4 -11  11    0.56    0.78
   5 -11  11    1.18    0.87
   3  10 -11    0.82    1.01
   2  10 -11    3.76    1.28
   1  10 -11    0.94    0.91
   0  10 -11   10.39    1.85
  -1  10 -11    1.03    0.83
   2 -10  11    1.88    0.87
   3 -10  11    1.79    0.78
   4 -10  11   -0.41    0.68
   5 -10  11   10.02    1.55
   6 -10  11    6.37    1.29
   4   9 -11   -0.28    0.91
   3   9 -11   13.68    2.20
   2   9 -11    4.11    1.13
   1   9 -11    4.16    1.43
   0   9 -11   14.19    2.41
  -1   9 -11    0.37    0.69
   1  -9  11    0.08    0.54
  -2   9 -11   -0.57    0.65
   2  -9  11    0.27    0.59
   3  -9  11    2.95    0.87
   4  -9  11    8.77    1.45
   5  -9  11   12.32    1.77
   6  -9  11    1.30    0.78
   7  -9  11    2.21    0.82
   5   8 -11    5.59    1.44
   4   8 -11    3.29    1.26
   3   8 -11    3.55    1.19
  -3  -8  11    3.66    1.36
   2   8 -11    1.01    0.91
   1   8 -11    0.85    0.93
   0   8 -11   20.03    2.67
  -1   8 -11    0.84    0.86
   1  -8  11    1.21    0.63
  -2   8 -11   16.15    2.26
   2  -8  11   16.74    1.98
  -3   8 -11    1.01    0.85
   3  -8  11    1.49    0.77
   4  -8  11    0.02    0.57
   5  -8  11    0.37    0.60
   6  -8  11    4.25    1.05
   7  -8  11    0.30    0.74
   6   7 -11   11.03    1.97
   5   7 -11   -0.37    0.60
   5   7 -11   -0.09    0.72
   4   7 -11    1.78    1.09
   4   7 -11    0.16    0.60
   3   7 -11    0.20    0.74
  -3  -7  11    0.65    0.74
   2   7 -11   13.69    2.16
   1   7 -11   19.12    2.64
   0   7 -11    2.05    0.88
   0  -7  11    2.44    0.76
  -1   7 -11    3.04    0.98
   1  -7  11    5.05    0.95
  -2   7 -11    0.96    0.82
   2  -7  11    1.61    0.67
  -3   7 -11    2.03    0.78
   3  -7  11    1.72    0.71
   4  -7  11    2.94    0.85
   5  -7  11   11.94    1.63
   6  -7  11    2.53    0.87
   7  -7  11   17.44    2.21
   7  -7  11   20.88    2.53
   7   6 -11    1.79    0.92
   7   6 -11    2.66    0.94
   6   6 -11    9.46    1.82
   6   6 -11    8.44    1.42
   5   6 -11    0.11    0.81
   5   6 -11    0.27    0.66
   4   6 -11   13.89    1.91
   4   6 -11   17.29    2.53
   3   6 -11   24.38    2.30
   3   6 -11   21.84    2.84
  -3  -6  11   21.68    2.69
   2   6 -11    0.28    0.80
   2   6 -11    1.01    0.68
   1   6 -11   11.98    1.98
   1   6 -11   13.48    1.71
   0   6 -11    0.38    0.67
   0  -6  11    0.83    0.55
  -1   6 -11    0.73    0.58
   1  -6  11    0.07    0.41
  -2   6 -11    1.98    0.78
   2  -6  11    1.42    0.57
  -3   6 -11    3.19    1.01
   3  -6  11    2.90    0.80
  -4   6 -11   13.77    1.94
   4  -6  11   14.79    1.81
   5  -6  11    0.47    0.62
   6  -6  11    2.14    0.89
   6  -6  11    2.30    0.83
   7  -6  11    1.57    0.85
   8  -6  11   -0.44    0.61
   8   5 -11    1.66    0.84
   7   5 -11   -0.86    0.65
   7   5 -11    0.20    0.60
   6   5 -11   17.00    2.00
   6   5 -11   13.54    2.17
   5   5 -11    5.34    1.12
   5   5 -11    5.25    1.25
   4   5 -11    6.32    1.11
   4   5 -11    4.22    1.14
   3   5 -11    1.90    0.64
   3   5 -11    2.34    0.95
  -3  -5  11    1.11    0.67
   2   5 -11    4.71    1.20
   2   5 -11    4.87    0.91
   1   5 -11   55.17    4.95
   1   5 -11   51.11    4.38
   0   5 -11   14.24    1.69
   0   5 -11   11.95    1.91
   0  -5  11   11.88    1.50
  -1   5 -11   30.54    3.26
   1  -5  11   35.96    2.93
  -2   5 -11   20.53    2.46
   2  -5  11   25.73    2.26
  -3   5 -11   -0.28    0.61
   3  -5  11    0.99    0.54
  -4   5 -11    0.31    0.68
   4  -5  11    0.19    0.48
   5  -5  11    0.77    0.66
   5  -5  11    1.94    0.79
   6  -5  11    2.26    0.78
   6  -5  11    4.46    1.22
   7  -5  11    6.22    1.18
   7  -5  11    4.34    1.17
   8  -5  11    3.02    0.94
   8   4 -11    1.19    0.72
   8   4 -11    1.45    1.04
   7   4 -11   16.40    1.98
   7   4 -11   15.28    2.32
   6   4 -11    1.02    0.60
   6   4 -11    1.40    0.80
   6   4 -11    1.47    0.93
   5   4 -11    0.39    0.51
   5   4 -11   -1.28    0.56
   4   4 -11    3.55    1.07
   4   4 -11    6.16    1.10
   3   4 -11    0.11    0.62
   3   4 -11    0.34    0.42
  -3  -4  11    0.73    0.54
   2   4 -11    5.83    1.39
   2   4 -11    7.72    1.17
   1   4 -11    5.09    1.06
   1   4 -11    5.84    1.00
   0   4 -11   11.57    1.48
   0   4 -11   13.09    1.90
   0  -4  11   11.49    1.46
  -1   4 -11    2.50    0.69
  -1   4 -11    1.31    0.64
   1  -4  11    1.40    0.53
  -2   4 -11    4.69    1.07
   2  -4  11    8.49    1.17
  -3   4 -11    1.43    0.74
   3  -4  11    1.76    0.60
  -4   4 -11   22.63    2.41
   4  -4  11   20.57    2.55
   5  -4  11    0.59    0.51
   5  -4  11    0.20    0.76
   6  -4  11    9.55    1.42
   6  -4  11   13.90    2.03
   7  -4  11    3.08    0.96
   7  -4  11    1.10    1.02
   8  -4  11   -0.08    0.68
   8  -4  11    0.68    0.75
   8   3 -11    0.49    0.63
   8   3 -11    1.18    0.85
   7   3 -11   20.73    2.63
   7   3 -11   22.73    2.15
   7   3 -11   15.29    2.42
   6   3 -11    0.27    0.65
   6   3 -11    0.08    0.51
   6   3 -11   -0.19    0.69
   5   3 -11    1.29    0.57
   5   3 -11    3.91    1.03
   4   3 -11   19.36    2.50
   4   3 -11   22.26    2.10
   3   3 -11    0.16    0.62
   3   3 -11    0.77    0.48
   2   3 -11    9.13    1.28
   2   3 -11    9.44    1.48
   1   3 -11    0.01    0.45
   1   3 -11   -0.54    0.46
   0   3 -11    0.39    0.49
   0   3 -11    0.14    0.40
   0  -3  11    0.61    0.41
  -1   3 -11   32.79    3.23
  -1   3 -11   36.26    2.88
   1  -3  11   29.21    2.78
  -2   3 -11   23.80    2.52
  -3   3 -11    6.06    1.27
   3  -3  11    6.84    1.30
  -4   3 -11   -0.35    0.56
   4  -3  11    0.80    0.73
   4  -3  11    0.38    0.49
  -5   3 -11   -0.27    0.83
  -5   3 -11    0.27    0.68
   5  -3  11   -0.51    0.63
   5  -3  11    0.81    0.60
   6  -3  11   10.07    1.50
   6  -3  11   10.03    1.78
   6  -3  11    8.85    1.38
   7  -3  11    0.74    0.82
   7  -3  11    1.52    0.86
   7  -3  11    0.52    0.62
   9   2 -11    0.41    0.55
   9   2 -11    0.46    0.79
   8   2 -11    0.53    0.76
   8   2 -11    0.90    0.58
   7   2 -11   28.45    3.04
   7   2 -11   28.28    2.65
   7   2 -11   25.81    3.10
   6   2 -11   30.97    3.18
   6   2 -11   29.09    2.80
   6   2 -11   32.76    3.17
   5   2 -11    8.05    1.18
   5   2 -11    5.57    1.24
   4   2 -11    0.79    0.63
   4   2 -11    2.31    0.67
   3   2 -11    4.99    0.98
   3   2 -11    7.77    1.28
   2   2 -11   24.71    2.32
   2   2 -11   25.20    2.61
   1   2 -11   -0.21    0.36
   1   2 -11    0.56    0.59
   0   2 -11   38.41    3.55
   0   2 -11   38.41    3.17
   0  -2  11   35.11    3.45
  -1   2 -11    7.25    1.37
  -1   2 -11   12.25    1.42
   1  -2  11   11.88    1.33
  -2   2 -11    0.01    0.56
   2  -2  11    0.75    0.43
   2  -2  11    0.45    0.60
  -3   2 -11    3.90    1.04
  -3   2 -11    4.81    1.04
   3  -2  11    4.44    0.87
   3  -2  11    6.70    1.27
  -4   2 -11   -0.47    0.71
  -4   2 -11    0.47    0.67
   4  -2  11   -0.02    0.49
   4  -2  11   -0.10    0.61
   4  -2  11    0.17    0.46
  -5   2 -11    1.88    1.00
  -5   2 -11    2.42    0.86
   5  -2  11    1.50    0.85
   5  -2  11    2.03    0.76
   5  -2  11    1.38    0.74
   6  -2  11   10.75    1.83
   6  -2  11   11.77    1.59
   7  -2  11    1.57    1.03
   7  -2  11    3.65    0.96
   9   1 -11   -0.28    0.75
   9   1 -11    0.75    0.60
   8   1 -11   11.05    1.72
   8   1 -11    4.98    1.08
   8   1 -11    5.55    1.31
   7   1 -11    5.42    1.25
   7   1 -11    5.03    1.24
   7   1 -11    6.17    1.09
   6   1 -11    4.25    1.02
   6   1 -11    4.28    1.08
   6   1 -11    2.97    0.78
   5   1 -11   24.39    2.60
   5   1 -11   23.23    2.24
   4   1 -11    4.86    1.12
   4   1 -11    4.29    0.86
  -4  -1  11    4.90    0.86
   3   1 -11    1.33    0.65
   3   1 -11   -0.31    0.39
   2   1 -11    4.35    0.91
   2   1 -11    4.45    0.83
   1   1 -11    4.29    0.79
   1   1 -11    3.32    0.85
  -1  -1  11    3.42    0.85
   0   1 -11    1.73    0.71
   0   1 -11    3.44    0.77
   0  -1  11    4.02    0.95
  -1   1 -11    0.34    0.53
  -1   1 -11    0.47    0.55
   1  -1  11    0.53    0.62
  -2   1 -11    2.11    0.85
  -2   1 -11    2.56    0.75
  -2   1 -11    1.48    0.61
   2  -1  11    2.69    0.69
   2  -1  11    3.28    0.94
  -3   1 -11   43.43    4.03
  -3   1 -11   38.13    4.12
   3  -1  11   42.89    4.01
   3  -1  11   46.98    3.63
  -4   1 -11    1.19    0.86
  -4   1 -11    2.71    0.83
   4  -1  11    2.05    0.88
   4  -1  11    2.81    0.73
  -5   1 -11   10.49    1.81
  -5   1 -11    8.82    1.61
   5  -1  11   11.59    1.55
   5  -1  11    6.59    1.47
   6  -1  11    1.63    1.00
   7  -1  11   -0.18    0.82
   9   0 -11    1.06    0.65
   9   0 -11   -0.45    0.67
   8   0 -11    9.36    1.64
   8   0 -11   10.62    1.51
   8   0 -11   11.59    1.75
   7   0 -11    3.71    1.06
   7   0 -11    3.72    0.94
   7   0 -11    2.39    0.73
   6   0 -11   11.66    1.82
   6   0 -11   13.05    1.78
   6   0 -11   15.76    1.71
   5   0 -11   82.00    7.55
   5   0 -11   95.27    6.93
   4   0 -11    4.01    0.91
   4   0 -11    5.80    0.95
  -4   0  11    3.60    0.85
   3   0 -11    2.02    0.64
   3   0 -11    1.58    0.60
  -3   0  11    3.79    0.78
   2   0 -11    1.02    0.62
   2   0 -11    0.78    0.45
  -2   0  11    0.06    0.47
   1   0 -11    2.85    0.70
   1   0 -11    2.35    0.81
  -1   0  11    2.19    0.72
   0   0 -11   65.50    5.76
   0   0 -11   65.49    5.27
   0   0  11   66.02    5.71
  -1   0 -11    1.33    0.62
  -1   0 -11    4.09    0.81
  -1   0 -11    4.79    0.92
   1   0  11    2.71    0.82
  -2   0 -11    3.55    0.93
  -2   0 -11    4.53    1.05
  -2   0 -11    4.92    1.00
   2   0  11    5.43    1.12
  -3   0 -11    0.93    0.76
  -3   0 -11    1.72    0.80
   3   0  11    1.75    0.86
  -4   0 -11    1.13    0.87
  -4   0 -11    2.57    0.98
   4   0  11    1.86    0.88
  -5   0 -11    4.86    1.16
   5   0  11    5.57    1.32
   5   0  11    3.75    0.96
   6   0  11    1.73    0.98
  10  -1 -11   -0.56    0.68
   9  -1 -11    0.69    0.79
   9  -1 -11    1.41    0.63
   8  -1 -11    6.41    1.03
   8  -1 -11    6.18    1.24
   7  -1 -11    2.57    0.69
   7  -1 -11    3.22    0.89
   6  -1 -11   -0.06    0.38
   6  -1 -11   -0.38    0.48
   5  -1 -11    1.98    0.72
   5  -1 -11    1.90    0.62
  -5   1  11    2.06    0.75
   4  -1 -11   -0.32    0.44
   4  -1 -11   -0.37    0.40
  -4   1  11    0.15    0.55
   3  -1 -11   14.01    1.76
   3  -1 -11   15.52    1.51
  -3   1  11   11.54    1.76
   2  -1 -11   -0.51    0.43
   2  -1 -11   -0.15    0.37
  -2   1  11    0.47    0.49
   1  -1 -11   14.24    1.65
   1  -1 -11   10.78    1.69
  -1   1  11   13.59    1.69
   0  -1 -11    7.45    1.02
   0  -1 -11    3.14    0.91
   0  -1 -11    8.77    1.22
   0   1  11    7.18    1.15
  -1  -1 -11    0.89    0.53
  -1  -1 -11    1.15    0.67
  -1  -1 -11    0.36    0.48
   1   1  11    0.20    0.58
  -2  -1 -11    2.27    0.77
  -2  -1 -11    1.16    0.74
   2   1  11    2.39    0.83
  -3  -1 -11   -0.55    0.67
  -3  -1 -11    1.03    0.73
   3   1  11    0.33    0.67
  -4  -1 -11    0.09    0.87
  -4  -1 -11    1.77    0.83
   4   1  11    0.45    0.78
   4   1  11    1.28    0.56
  -5  -1 -11    9.53    1.78
   5   1  11   10.02    1.87
   6   1  11    2.30    1.05
  10  -2 -11    0.07    0.80
   9  -2 -11    4.61    0.91
   9  -2 -11    5.02    1.03
   8  -2 -11   -0.50    0.43
   8  -2 -11    0.91    0.66
   7  -2 -11    0.98    0.55
   7  -2 -11    0.82    0.67
   6  -2 -11   26.44    2.30
   6  -2 -11   23.93    2.45
  -6   2  11   23.17    2.51
   5  -2 -11   -0.57    0.34
   5  -2 -11   -0.25    0.45
  -5   2  11    0.73    0.65
   4  -2 -11    0.12    0.37
   4  -2 -11    0.76    0.56
  -4   2  11    0.52    0.62
   3  -2 -11   20.31    1.83
   3  -2 -11   17.13    1.99
  -3   2  11   17.52    2.25
   2  -2 -11    8.40    1.16
   2  -2 -11    5.08    1.11
  -2   2  11   10.71    1.32
   1  -2 -11    1.44    0.68
   1  -2 -11    2.30    0.83
  -1   2  11    2.41    0.70
   0  -2 -11    3.01    0.83
   0  -2 -11    4.16    0.97
   0   2  11    5.05    1.05
  -1  -2 -11   -0.03    0.54
  -1  -2 -11    0.05    0.50
   1   2  11    0.62    0.61
  -2  -2 -11   58.63    5.31
  -2  -2 -11   58.86    5.47
   2   2  11   56.42    5.23
  -3  -2 -11    1.16    0.82
  -3  -2 -11    0.19    0.68
   3   2  11   -0.22    0.61
  -4  -2 -11    2.86    1.14
  -4  -2 -11    3.54    1.02
   4   2  11    2.93    0.91
   5   2  11    1.03    1.08
   9  -3 -11    6.51    1.15
   9  -3 -11    7.12    1.12
   8  -3 -11    0.39    0.50
   8  -3 -11   -0.05    0.55
   7  -3 -11   -0.20    0.51
   7  -3 -11    0.72    0.49
   6  -3 -11   37.31    3.59
   6  -3 -11   41.37    3.30
  -6   3  11   38.65    3.77
   5  -3 -11    0.81    0.55
   5  -3 -11    1.02    0.44
  -5   3  11    0.44    0.70
   4  -3 -11    1.08    0.56
   4  -3 -11    0.53    0.46
  -4   3  11    1.25    0.80
   3  -3 -11    0.83    0.50
   3  -3 -11    1.31    0.63
  -3   3  11    2.56    0.88
   2  -3 -11    3.02    0.83
   2  -3 -11    3.17    0.86
  -2   3  11    3.02    1.10
   1  -3 -11    7.68    1.35
   1  -3 -11    6.90    1.11
  -1   3  11    5.92    1.10
   0  -3 -11    7.18    1.32
   0  -3 -11    5.35    1.04
   0   3  11    7.07    1.19
  -1  -3 -11    4.51    1.04
  -1  -3 -11    3.55    1.05
   1   3  11    4.94    1.13
  -2  -3 -11    1.00    0.74
   2   3  11    0.81    0.78
  -3  -3 -11   -0.60    0.71
   3   3  11   -0.66    0.73
   4   3  11    9.35    1.88
   5   3  11    0.02    0.91
   9  -4 -11   20.36    1.97
   9  -4 -11   19.55    2.22
   8  -4 -11    1.21    0.53
   8  -4 -11    0.52    0.53
   7  -4 -11    0.16    0.43
   7  -4 -11    0.06    0.49
  -7   4  11    0.76    0.68
   6  -4 -11    3.04    0.71
   6  -4 -11    3.86    0.84
  -6   4  11    3.28    1.03
   5  -4 -11    0.75    0.48
   5  -4 -11    0.51    0.59
  -5   4  11    0.51    0.81
   4  -4 -11   73.88    5.96
   4  -4 -11   79.77    6.55
  -4   4  11   73.88    6.86
   3  -4 -11    1.68    0.66
   3  -4 -11    0.20    0.58
  -3   4  11    0.18    0.81
   2  -4 -11    3.21    0.84
   2  -4 -11    1.86    0.73
  -2   4  11    2.34    1.10
   1  -4 -11   25.61    2.57
   1  -4 -11   22.34    2.32
   0  -4 -11    0.27    0.62
   0  -4 -11    0.38    0.53
  -1  -4 -11    1.91    0.75
  -1  -4 -11    1.78    0.87
   1   4  11    1.57    0.83
  -2  -4 -11    0.40    0.89
   2   4  11    0.48    0.67
   3   4  11    1.36    0.90
   4   4  11    3.55    1.30
   9  -5 -11    0.76    0.50
   8  -5 -11    0.09    0.59
   8  -5 -11    0.50    0.42
   7  -5 -11    0.97    0.58
   7  -5 -11    1.64    0.54
  -7   5  11    0.65    0.88
   6  -5 -11    0.26    0.43
   6  -5 -11    0.48    0.53
  -6   5  11   -0.01    0.76
   5  -5 -11    0.14    0.49
   5  -5 -11    1.09    0.65
  -5   5  11    1.26    0.77
   4  -5 -11   11.37    1.53
   4  -5 -11   15.74    1.89
  -4   5  11   12.44    1.96
   3  -5 -11    0.06    0.52
   3  -5 -11    0.22    0.51
  -3   5  11   -0.04    0.65
   2  -5 -11    3.01    0.91
   2  -5 -11    1.15    0.67
  -2   5  11    1.15    1.06
   1  -5 -11   10.41    1.60
   1  -5 -11    6.02    1.14
  -1   5  11    8.51    1.72
   0  -5 -11    0.75    0.68
   0  -5 -11    0.32    0.69
   0   5  11    0.44    1.10
  -1  -5 -11   39.48    4.05
   3   5  11    3.71    1.33
   8  -6 -11   -0.18    0.42
   8  -6 -11   -0.32    0.56
  -8   6  11   -0.56    0.79
   7  -6 -11   10.89    1.43
   7  -6 -11    9.56    1.25
  -7   6  11    7.45    1.67
   6  -6 -11   -0.67    0.52
   6  -6 -11    0.01    0.53
  -6   6  11   -0.72    0.80
   5  -6 -11    1.91    0.72
   5  -6 -11    0.69    0.62
  -5   6  11    1.87    1.14
   4  -6 -11    0.23    0.54
   4  -6 -11    0.12    0.56
  -4   6  11    0.69    0.83
   3  -6 -11    6.08    1.23
   3  -6 -11    2.43    0.80
  -3   6  11    0.47    0.99
   2  -6 -11   14.54    2.03
   2  -6 -11   15.79    1.84
  -2   6  11   13.50    2.25
   1  -6 -11    1.29    0.70
   1  -6 -11    0.74    0.76
  -1   6  11   -0.30    1.00
   0  -6 -11   -0.15    0.78
   0  -6 -11    0.25    0.63
   0   6  11   -0.71    0.98
   1   6  11    1.83    1.32
  -8   7  11    1.17    1.02
   7  -7 -11    1.01    0.71
   7  -7 -11   -0.57    0.50
  -7   7  11   -0.07    0.91
   6  -7 -11    1.02    0.78
   6  -7 -11    0.81    0.60
  -6   7  11    0.63    0.94
   5  -7 -11   36.10    3.32
   5  -7 -11   29.84    2.95
  -5   7  11   35.48    3.77
   4  -7 -11    2.36    0.78
   4  -7 -11    1.39    0.75
  -4   7  11    2.72    1.31
   3  -7 -11    1.73    0.76
   3  -7 -11    1.53    0.92
  -3   7  11    0.25    1.06
   2  -7 -11    6.59    1.47
   2  -7 -11    5.08    1.11
  -2   7  11    6.25    1.75
   1  -7 -11    1.12    0.79
  -1   7  11    1.45    1.21
   0  -7 -11   -0.46    0.73
   0   7  11   -0.72    1.13
   6  -8 -11    0.43    0.82
  -6   8  11   -0.34    0.88
   5  -8 -11    4.28    1.14
   5  -8 -11    3.18    0.81
  -5   8  11    3.41    1.34
   4  -8 -11    1.45    0.72
  -4   8  11    1.29    1.30
   3  -8 -11    3.64    0.96
  -3   8  11    2.33    1.44
   2  -8 -11    3.33    1.01
   1  11 -12   -0.95    0.97
   4 -11  12    1.79    0.93
   2  10 -12    2.75    1.36
   1  10 -12    2.51    1.23
   0  10 -12   20.76    3.16
  -1  10 -12    2.77    1.26
   3 -10  12    9.12    1.54
   4 -10  12    0.76    0.82
   5 -10  12    0.51    0.81
   4   9 -12   -0.63    0.89
   3   9 -12    7.19    1.76
   2   9 -12   -1.41    0.72
   1   9 -12   10.46    2.10
   0   9 -12    2.29    0.95
  -1   9 -12    7.09    1.72
  -2   9 -12    1.50    0.99
   2  -9  12    1.09    0.78
   3  -9  12    7.34    1.37
   4  -9  12   -1.07    0.57
   5  -9  12   14.70    1.96
   6  -9  12    0.43    0.82
   5   8 -12   15.25    2.46
   4   8 -12   -0.14    0.85
   3   8 -12   12.69    2.18
   2   8 -12    1.24    0.97
   1   8 -12    0.51    0.78
   0   8 -12    6.27    1.37
  -1   8 -12   14.17    2.20
  -2   8 -12    5.05    1.24
   2  -8  12    4.16    1.00
   3  -8  12    0.00    0.61
   4  -8  12    1.29    0.74
   5  -8  12    0.71    0.81
   6  -8  12    0.09    0.84
   7  -8  12    9.43    1.65
   5   7 -12   -0.51    0.80
   4   7 -12    1.66    1.00
   3   7 -12    3.14    1.12
   2   7 -12   -0.20    0.70
   1   7 -12   33.30    3.59
   0   7 -12    4.35    1.12
  -1   7 -12    0.98    0.75
  -2   7 -12    8.31    1.46
   2  -7  12    6.55    1.16
  -3   7 -12    0.00    0.75
   3  -7  12    1.62    0.66
   4  -7  12    0.27    0.64
   5  -7  12    3.56    0.99
   6  -7  12    4.52    1.12
   6   6 -12    1.29    0.76
   6   6 -12    1.55    0.95
   5   6 -12    1.58    0.73
   5   6 -12   -0.13    0.74
   4   6 -12   -0.42    0.52
   4   6 -12    0.03    0.67
   3   6 -12    2.44    1.14
   3   6 -12    2.03    0.81
   2   6 -12    1.41    0.72
   2   6 -12    1.93    0.92
   1   6 -12    1.71    0.79
   0   6 -12    0.55    0.78
  -1   6 -12    1.37    0.85
   1  -6  12    2.78    0.84
  -2   6 -12    8.06    1.55
   2  -6  12   13.27    1.61
  -3   6 -12    1.10    0.67
   3  -6  12    0.87    0.56
  -4   6 -12   21.42    2.82
   4  -6  12   22.84    2.32
   5  -6  12    1.30    0.64
   6  -6  12   -0.23    0.70
   7  -6  12    1.04    0.72
   7  -6  12   -0.26    0.81
   7   5 -12   12.27    1.89
   7   5 -12   12.38    2.26
   6   5 -12   39.56    3.58
   6   5 -12   37.93    4.04
   5   5 -12    2.56    0.89
   5   5 -12    2.67    1.02
   4   5 -12   19.00    2.27
   4   5 -12   21.82    2.72
   3   5 -12    0.18    0.65
   3   5 -12    0.56    0.56
   2   5 -12    0.63    0.50
   2   5 -12   -0.21    0.62
   1   5 -12    7.18    1.21
   1   5 -12    8.01    1.44
   0   5 -12   14.76    2.01
  -1   5 -12   15.77    2.23
   1  -5  12   21.43    2.07
  -2   5 -12    2.17    0.84
   2  -5  12    3.81    0.85
  -3   5 -12    3.37    0.96
   3  -5  12    3.94    0.84
  -4   5 -12   -0.52    0.60
   4  -5  12    0.87    0.61
   5  -5  12   -0.71    0.67
   6  -5  12    7.88    1.57
   6  -5  12    8.41    1.36
   7  -5  12    4.32    1.28
   7  -5  12    6.05    1.24
   8   4 -12    5.62    1.21
   7   4 -12    5.14    1.37
   7   4 -12    3.40    1.06
   6   4 -12    0.66    0.65
   6   4 -12   -0.61    0.45
   5   4 -12    5.83    1.50
   5   4 -12    4.22    1.02
   4   4 -12   12.83    1.97
   4   4 -12   12.90    1.66
   3   4 -12    1.28    0.82
   3   4 -12    0.88    0.61
   2   4 -12   15.65    2.02
   2   4 -12   18.05    2.46
   1   4 -12   13.85    2.09
   1   4 -12   20.20    1.91
   0   4 -12    0.26    0.50
   0   4 -12    0.40    0.56
  -1   4 -12    1.40    0.73
  -2   4 -12    5.20    1.19
   2  -4  12    7.03    1.13
  -3   4 -12   -0.33    0.53
  -4   4 -12    5.41    1.21
   4  -4  12    5.89    1.33
   4  -4  12    8.90    1.26
   5  -4  12    3.52    0.93
   5  -4  12    2.83    1.08
   6  -4  12    5.43    1.38
   6  -4  12    7.72    1.28
   7  -4  12    1.11    0.81
   7  -4  12   -0.27    0.91
   8   3 -12   -0.79    0.84
   8   3 -12    0.09    0.65
   7   3 -12    3.71    1.27
   7   3 -12    4.44    1.05
   6   3 -12    2.65    1.03
   6   3 -12    3.24    0.87
   5   3 -12    1.21    0.62
   5   3 -12    1.16    0.75
   4   3 -12   14.34    2.25
   4   3 -12   20.32    1.96
   3   3 -12    7.62    1.40
   3   3 -12    6.24    1.08
   2   3 -12    1.79    0.67
   2   3 -12    2.15    0.85
   1   3 -12    8.15    1.20
   1   3 -12    4.94    1.16
   0   3 -12    2.34    0.92
   0   3 -12    5.08    0.91
  -1   3 -12   69.64    5.61
  -2   3 -12    5.74    1.18
   2  -3  12    4.12    1.08
  -3   3 -12    8.59    1.46
   3  -3  12    8.15    1.47
   3  -3  12    6.19    1.13
  -4   3 -12    1.33    0.79
   4  -3  12    1.25    0.88
   4  -3  12    4.37    0.93
   5  -3  12    0.05    0.70
   5  -3  12    0.05    0.61
   6  -3  12    0.58    0.75
   6  -3  12    1.24    0.98
   8   2 -12    0.88    0.89
   8   2 -12    1.59    0.76
   7   2 -12   24.57    3.12
   7   2 -12   26.30    3.02
   7   2 -12   30.47    2.73
   6   2 -12    2.36    0.93
   6   2 -12    4.78    0.96
   5   2 -12    8.03    1.27
   5   2 -12    7.17    1.48
   4   2 -12    2.01    0.72
   4   2 -12    2.49    0.92
   3   2 -12    1.81    0.79
   3   2 -12    1.21    0.63
   2   2 -12    0.84    0.54
   2   2 -12   -0.17    0.50
   1   2 -12    1.01    0.51
   1   2 -12   -0.31    0.49
   0   2 -12   14.23    2.13
   0   2 -12   20.13    1.86
  -1   2 -12    3.17    0.87
  -1   2 -12    2.24    0.91
   1  -2  12    2.79    0.92
  -2   2 -12    1.45    0.80
   2  -2  12    2.22    0.93
  -3   2 -12   -0.60    0.59
   3  -2  12    0.72    0.81
  -4   2 -12   -0.61    0.64
  -4   2 -12   -0.47    0.79
   4  -2  12   -0.16    0.71
  -5   2 -12    2.29    0.96
   5  -2  12    1.06    0.78
   6  -2  12   13.93    2.25
   9   1 -12    2.71    1.02
   8   1 -12    2.09    1.01
   8   1 -12    0.89    0.86
   8   1 -12    0.61    0.64
   7   1 -12    1.18    0.78
   7   1 -12    0.81    0.88
   7   1 -12    2.21    0.77
   6   1 -12    2.19    0.84
   6   1 -12    1.30    0.60
   5   1 -12   70.60    6.13
   5   1 -12   65.87    5.47
   4   1 -12    1.99    0.83
   4   1 -12    2.24    0.73
   3   1 -12    4.95    0.96
   3   1 -12    5.00    1.07
   2   1 -12   14.44    2.16
   2   1 -12   21.42    2.02
  -2  -1  12   23.99    2.18
   1   1 -12   -0.09    0.45
   1   1 -12    0.06    0.61
  -1  -1  12    0.32    0.63
   0   1 -12    2.95    0.76
   0   1 -12    2.28    0.81
   0  -1  12    3.04    0.92
  -1   1 -12   -0.19    0.59
  -1   1 -12    0.75    0.64
   1  -1  12   -0.17    0.59
  -2   1 -12    3.12    1.07
   2  -1  12    3.22    1.00
  -3   1 -12    8.32    1.56
  -3   1 -12   11.80    1.71
   3  -1  12   12.68    1.79
  -4   1 -12    9.71    1.74
  -4   1 -12    8.29    1.54
   4  -1  12   10.97    1.79
  -5   1 -12    1.69    1.07
   5  -1  12    1.51    0.94
   6  -1  12   -0.01    0.86
   9   0 -12    0.93    0.77
   9   0 -12   -0.08    0.58
   8   0 -12   -0.49    0.73
   8   0 -12    0.35    0.57
   7   0 -12   -0.12    0.48
   7   0 -12    0.47    0.66
   6   0 -12    3.85    0.87
   6   0 -12    3.15    0.97
   5   0 -12   34.02    3.26
   5   0 -12   42.34    3.72
   4   0 -12    6.59    1.08
   4   0 -12    6.20    1.18
  -4   0  12    9.48    1.34
   3   0 -12    0.60    0.49
   3   0 -12   -0.23    0.50
   2   0 -12    0.45    0.57
   2   0 -12    0.71    0.55
  -2   0  12   -0.01    0.51
   1   0 -12   -0.02    0.43
   1   0 -12    0.64    0.54
  -1   0  12    0.82    0.60
   0   0 -12   45.15    3.57
   0   0 -12   35.05    3.80
   0   0  12   41.81    3.79
  -1   0 -12   -0.10    0.55
  -1   0 -12    0.17    0.52
   1   0  12   -0.27    0.57
  -2   0 -12   23.71    2.54
   2   0  12   20.53    2.62
  -3   0 -12   13.16    1.95
  -3   0 -12   14.01    1.99
   3   0  12   14.97    2.13
  -4   0 -12    0.51    0.89
  -4   0 -12    3.40    1.04
   4   0  12    3.06    1.08
  -5   0 -12    1.80    0.93
   5   0  12    0.00    0.87
   9  -1 -12   -0.03    0.53
   9  -1 -12    0.95    0.85
   8  -1 -12   10.90    1.71
   8  -1 -12   11.71    1.58
   7  -1 -12   -0.32    0.61
   7  -1 -12   -0.24    0.46
   6  -1 -12    3.11    0.81
   6  -1 -12    2.26    0.82
   5  -1 -12    0.29    0.51
   5  -1 -12    0.93    0.67
  -5   1  12    0.20    0.54
   4  -1 -12    1.77    0.60
   4  -1 -12    0.57    0.56
  -4   1  12    0.48    0.64
   3  -1 -12   52.70    4.69
   3  -1 -12   57.42    4.27
  -3   1  12   44.34    4.72
   2  -1 -12    3.17    0.76
   2  -1 -12    3.27    0.90
  -2   1  12    3.43    0.84
   1  -1 -12   -0.38    0.55
   1  -1 -12    0.60    0.55
  -1   1  12    0.22    0.53
   0  -1 -12    2.42    0.84
   0  -1 -12    0.92    0.61
   0   1  12    2.56    0.87
  -1  -1 -12    5.85    1.09
  -1  -1 -12    5.88    1.33
   1   1  12    7.33    1.32
  -2  -1 -12    7.67    1.46
   2   1  12    6.63    1.33
  -3  -1 -12    0.17    0.82
   3   1  12    0.63    0.73
  -4  -1 -12    3.25    1.09
   4   1  12    2.49    1.05
  -5  -1 -12   13.45    2.26
   9  -2 -12   -0.16    0.61
   9  -2 -12    0.27    0.53
   8  -2 -12    0.55    0.57
   8  -2 -12   -0.31    0.59
   7  -2 -12    1.06    0.72
   7  -2 -12    0.17    0.52
   6  -2 -12    5.15    0.98
   6  -2 -12    4.68    1.02
   5  -2 -12   -0.07    0.54
   5  -2 -12    0.01    0.44
  -5   2  12    0.29    0.58
   4  -2 -12   11.78    1.40
   4  -2 -12    8.20    1.41
  -4   2  12   10.65    1.62
   3  -2 -12   34.68    3.11
   3  -2 -12   35.56    3.43
  -3   2  12   38.29    3.67
   2  -2 -12    0.01    0.50
   2  -2 -12    0.63    0.60
   1  -2 -12    1.10    0.70
   1  -2 -12   -0.09    0.49
  -1   2  12    0.02    0.51
   0  -2 -12   -0.10    0.52
   0  -2 -12   -0.02    0.56
   0   2  12   -0.24    0.62
  -1  -2 -12    1.97    0.87
  -1  -2 -12    1.15    0.71
   1   2  12    0.97    0.77
  -2  -2 -12   16.41    2.29
   2   2  12   18.42    2.44
  -3  -2 -12    4.08    1.18
   3   2  12    1.46    0.76
  -4  -2 -12    2.08    1.32
   4   2  12    2.15    1.06
   9  -3 -12    4.55    1.01
   9  -3 -12    5.53    1.12
   8  -3 -12   -0.07    0.62
   8  -3 -12    0.07    0.48
   7  -3 -12   -0.66    0.41
   7  -3 -12   -0.01    0.57
   6  -3 -12    2.14    0.73
   6  -3 -12    3.29    0.77
  -6   3  12    3.40    1.01
   5  -3 -12    8.92    1.33
   5  -3 -12    8.67    1.19
  -5   3  12    7.83    1.52
   4  -3 -12    0.22    0.53
   4  -3 -12    0.92    0.50
  -4   3  12   -0.62    0.69
   3  -3 -12    3.93    1.05
   3  -3 -12    6.49    1.11
  -3   3  12    4.05    1.13
   2  -3 -12    1.06    0.56
   2  -3 -12    0.92    0.65
  -2   3  12    0.60    0.85
   1  -3 -12   30.05    3.17
   1  -3 -12   33.66    2.96
   0  -3 -12    0.54    0.59
   0  -3 -12   -0.04    0.60
   0   3  12    0.53    0.59
  -1  -3 -12    9.42    1.62
  -1  -3 -12    7.11    1.41
   1   3  12    6.18    1.28
  -2  -3 -12    3.98    1.38
   2   3  12    6.28    1.33
  -3  -3 -12    0.34    1.04
   3   3  12    0.14    0.90
   4   3  12    0.65    0.87
   8  -4 -12    0.93    0.52
   8  -4 -12    0.67    0.66
   7  -4 -12    1.96    0.65
   7  -4 -12    2.08    0.75
   6  -4 -12    1.49    0.62
   6  -4 -12    0.43    0.56
  -6   4  12    0.57    0.75
   5  -4 -12    2.13    0.74
   5  -4 -12    0.64    0.54
  -5   4  12    1.16    0.89
   4  -4 -12   27.63    2.51
   4  -4 -12   27.62    2.74
  -4   4  12   22.97    3.12
   3  -4 -12    4.04    0.92
   3  -4 -12    5.99    1.17
  -3   4  12    5.87    1.39
   2  -4 -12   -0.14    0.60
   2  -4 -12    0.84    0.58
  -2   4  12    0.57    0.97
   1  -4 -12    3.41    1.04
   1  -4 -12    6.73    1.18
  -1   4  12    6.05    1.65
   0  -4 -12   -0.30    0.64
   0  -4 -12    0.84    0.78
  -1  -4 -12    4.23    1.26
  -2  -4 -12    1.10    0.91
   2   4  12    1.12    0.89
   3   4  12    0.96    1.02
   8  -5 -12    0.97    0.65
   8  -5 -12   -0.34    0.46
   7  -5 -12   16.04    2.00
   7  -5 -12   18.11    1.76
  -7   5  12   15.24    2.35
   6  -5 -12    4.94    0.96
   6  -5 -12    2.95    0.89
  -6   5  12    4.39    1.23
   5  -5 -12    2.77    0.89
   5  -5 -12    2.66    0.80
  -5   5  12    3.73    1.19
   4  -5 -12   22.70    2.23
   4  -5 -12   22.18    2.41
  -4   5  12   21.36    3.01
   3  -5 -12    0.59    0.73
   3  -5 -12    0.17    0.57
  -3   5  12    0.54    0.80
   2  -5 -12    1.19    0.68
   2  -5 -12    1.19    0.77
  -2   5  12   -0.34    0.94
   1  -5 -12   -0.34    0.64
   1  -5 -12   -1.71    0.67
  -1   5  12    0.09    1.11
   0  -5 -12    2.08    0.86
   0  -5 -12    3.65    1.09
   0   5  12    3.82    1.48
  -1  -5 -12   21.68    3.06
   7  -6 -12    4.98    1.05
   7  -6 -12    2.42    0.75
  -7   6  12    4.55    1.38
   6  -6 -12    0.82    0.59
   6  -6 -12   -0.43    0.60
  -6   6  12   -1.21    0.79
   5  -6 -12    1.45    0.75
   5  -6 -12    1.20    0.71
  -5   6  12   -0.14    0.93
   4  -6 -12    2.36    0.82
   4  -6 -12    4.19    1.07
  -4   6  12    2.56    1.20
   3  -6 -12   -0.53    0.63
   3  -6 -12   -0.13    0.64
  -3   6  12   -0.54    0.93
   2  -6 -12   24.34    2.53
   2  -6 -12   27.64    2.89
  -2   6  12   22.22    3.26
   1  -6 -12   -0.08    0.79
   1  -6 -12    0.07    0.68
  -1   6  12    1.40    1.27
   0  -6 -12    0.75    0.93
   0   6  12    0.23    1.27
   6  -7 -12    1.13    0.83
  -6   7  12   -0.63    0.99
   5  -7 -12    4.05    0.97
   5  -7 -12    3.71    0.94
  -5   7  12    3.94    1.42
   4  -7 -12   -0.11    0.69
   4  -7 -12    0.77    0.67
  -4   7  12    1.30    1.18
   3  -7 -12   -0.28    0.75
   3  -7 -12    0.59    0.69
  -3   7  12    0.88    1.17
   2  -7 -12    0.25    0.71
   1  10 -13    2.46    1.25
   0  10 -13    9.89    2.12
   4 -10  13    1.52    0.98
   3   9 -13    7.00    1.69
   2   9 -13    4.98    1.48
   1   9 -13    1.26    1.04
   0   9 -13    8.17    1.95
  -1   9 -13    0.98    0.98
   4  -9  13    1.09    0.81
   5  -9  13    7.46    1.49
   4   8 -13    5.59    1.59
   3   8 -13    6.90    1.87
   2   8 -13    2.97    1.08
   1   8 -13    2.42    1.13
   0   8 -13    9.90    1.94
  -1   8 -13   -0.13    0.68
  -2   8 -13   34.58    3.63
   4  -8  13   -0.67    0.78
   5  -8  13    0.78    0.77
   6  -8  13    1.31    0.98
   5   7 -13    0.48    0.89
   4   7 -13   -0.73    0.71
   3   7 -13    0.05    0.80
   2   7 -13    1.62    1.04
   1   7 -13    3.21    1.14
   0   7 -13    1.55    0.99
  -1   7 -13    6.76    1.58
  -2   7 -13   -0.57    0.67
  -3   7 -13    0.61    0.74
   3  -7  13    0.02    0.68
   4  -7  13    3.21    0.97
   5  -7  13    8.95    1.49
   6  -7  13    0.67    0.81
   6  -7  13    1.95    1.06
   6   6 -13    7.52    1.56
   5   6 -13    2.61    0.94
   5   6 -13    1.41    0.95
   4   6 -13    5.83    1.49
   4   6 -13    6.29    1.21
   3   6 -13   23.31    2.68
   3   6 -13   21.64    3.01
   2   6 -13    0.09    0.73
   1   6 -13    5.12    1.27
   0   6 -13   -0.37    0.62
  -1   6 -13    0.33    0.70
  -2   6 -13    3.94    1.12
  -3   6 -13   11.21    2.03
   4  -6  13   10.91    1.64
   5  -6  13    0.91    0.90
   6  -6  13    0.18    0.66
   6  -6  13    0.57    0.92
   7   5 -13    1.53    0.75
   6   5 -13    3.82    1.15
   6   5 -13    3.82    1.29
   5   5 -13   13.24    2.37
   5   5 -13   15.55    2.00
   4   5 -13    7.62    1.66
   4   5 -13   14.41    1.83
   3   5 -13    1.32    0.71
   3   5 -13    0.66    0.91
   2   5 -13    0.16    0.67
   2   5 -13    0.69    0.86
   1   5 -13    9.06    1.75
   0   5 -13    0.06    0.53
  -1   5 -13   16.93    2.47
  -2   5 -13    0.40    0.63
  -3   5 -13    0.02    0.62
  -4   5 -13    2.72    1.11
   4  -5  13    3.73    1.16
   5  -5  13    0.78    0.61
   5  -5  13    0.61    0.87
   6  -5  13    0.97    0.89
   6  -5  13    0.60    0.82
   7   4 -13   14.05    1.98
   7   4 -13   14.74    2.42
   6   4 -13    2.97    0.95
   6   4 -13    2.65    1.14
   5   4 -13   -0.35    0.80
   5   4 -13    0.26    0.56
   4   4 -13   14.17    1.79
   4   4 -13    8.77    1.90
   3   4 -13    5.07    1.37
   3   4 -13    6.91    1.17
   2   4 -13    2.88    0.81
   2   4 -13    1.80    0.84
   1   4 -13    3.78    1.14
   1   4 -13    6.03    1.08
   0   4 -13    2.77    1.09
  -1   4 -13    0.34    0.63
  -2   4 -13   -0.42    0.60
  -3   4 -13    6.71    1.53
   3  -4  13    7.90    1.52
  -4   4 -13    6.79    1.42
   4  -4  13    5.49    1.39
   5  -4  13    1.90    1.19
   6  -4  13   13.80    2.18
   8   3 -13    2.56    0.96
   7   3 -13    3.37    1.30
   7   3 -13    2.88    0.94
   6   3 -13    0.64    0.66
   6   3 -13    0.37    0.68
   5   3 -13   13.26    1.81
   5   3 -13   16.45    2.43
   4   3 -13   24.62    2.37
   4   3 -13   19.55    2.81
   3   3 -13    8.82    1.38
   3   3 -13    7.29    1.54
   2   3 -13   12.51    1.85
   2   3 -13   12.87    1.77
   1   3 -13    0.98    0.61
   1   3 -13   -0.57    0.53
   0   3 -13    0.32    0.69
   0   3 -13   -0.46    0.42
  -1   3 -13   26.98    2.94
  -2   3 -13    3.59    1.00
   2  -3  13    3.29    1.13
  -3   3 -13    1.85    0.97
   3  -3  13    3.09    1.09
  -4   3 -13    0.18    0.82
   4  -3  13    0.54    0.82
   5  -3  13    0.13    0.86
   6  -3  13    2.73    1.19
   8   2 -13    0.55    0.63
   8   2 -13    0.67    0.92
   7   2 -13    6.50    1.25
   7   2 -13    7.11    1.53
   6   2 -13    1.68    1.00
   6   2 -13    2.29    0.84
   5   2 -13    0.63    0.82
   5   2 -13    0.93    0.67
   4   2 -13    0.06    0.55
   4   2 -13    0.99    0.74
   3   2 -13    1.52    0.99
   3   2 -13    0.12    0.56
   2   2 -13   21.26    2.11
   2   2 -13   13.07    1.96
   1   2 -13    1.00    0.63
   1   2 -13    1.73    0.77
   0   2 -13    6.36    1.15
   0  -2  13    7.20    1.31
  -1   2 -13    4.63    1.12
   1  -2  13    5.54    1.28
  -2   2 -13   -0.52    0.64
   2  -2  13    0.39    0.80
  -3   2 -13   -0.58    0.76
   3  -2  13   -1.47    0.65
  -4   2 -13    0.82    0.83
   4  -2  13    0.12    0.76
   5  -2  13    0.52    0.87
   8   1 -13    4.96    1.10
   8   1 -13    3.06    1.26
   7   1 -13    0.70    0.67
   7   1 -13    1.29    0.90
   6   1 -13    3.14    1.00
   6   1 -13    1.36    0.69
   5   1 -13   10.10    1.49
   5   1 -13   10.95    1.73
   4   1 -13    1.11    0.60
   4   1 -13    0.42    0.71
   3   1 -13    0.85    0.68
   3   1 -13    2.72    0.77
   2   1 -13    4.28    0.90
   2   1 -13    2.51    0.82
  -2  -1  13    6.51    1.18
   1   1 -13    5.74    1.21
   1   1 -13    8.52    1.26
  -1  -1  13   12.23    1.61
   0   1 -13   -0.11    0.57
   0   1 -13   -0.06    0.57
   0  -1  13    0.30    0.69
  -1   1 -13    0.08    0.78
   1  -1  13   -0.27    0.66
  -2   1 -13    4.83    1.29
   2  -1  13    2.23    0.97
  -3   1 -13   32.38    3.36
   3  -1  13   30.55    3.29
  -4   1 -13    0.22    0.87
   4  -1  13    1.08    0.92
   5  -1  13    8.54    1.67
   8   0 -13    1.30    0.68
   8   0 -13    1.55    0.95
   7   0 -13    1.20    0.72
   7   0 -13    1.40    0.83
   6   0 -13    4.98    1.07
   6   0 -13    8.75    1.44
   5   0 -13   29.27    3.18
   5   0 -13   34.55    2.98
   4   0 -13    0.13    0.64
   4   0 -13    1.80    0.69
  -4   0  13    0.19    0.62
   3   0 -13    2.01    0.88
   3   0 -13    5.89    0.97
   2   0 -13    3.44    0.82
   2   0 -13    1.38    0.68
   1   0 -13    0.83    0.73
   1   0 -13    1.36    0.70
  -1   0  13    1.75    0.80
   0   0 -13    7.76    1.44
   0   0 -13    6.95    1.27
   0   0  13    8.52    1.41
  -1   0 -13    7.25    1.41
   1   0  13   10.06    1.61
  -2   0 -13    4.87    1.19
   2   0  13    3.42    1.09
  -3   0 -13   -0.99    0.70
   3   0  13   -0.52    0.83
  -4   0 -13    3.36    1.35
   4   0  13    1.53    1.04
   5   0  13    1.48    1.08
   8  -1 -13   24.93    2.73
   8  -1 -13   23.36    2.42
   7  -1 -13    4.66    1.15
   7  -1 -13    4.84    1.00
   6  -1 -13   -0.34    0.51
   6  -1 -13    0.40    0.58
   5  -1 -13    0.91    0.70
   5  -1 -13    2.12    0.69
   4  -1 -13    0.37    0.61
   4  -1 -13    0.56    0.56
  -4   1  13    0.16    0.67
   3  -1 -13   47.00    3.77
   3  -1 -13   44.73    4.16
  -3   1  13   39.64    4.20
   2  -1 -13   -0.83    0.42
   2  -1 -13    0.98    0.72
   1  -1 -13    9.10    1.46
   1  -1 -13   11.79    1.77
  -1   1  13   10.60    1.62
   0  -1 -13   25.63    2.71
   0   1  13   22.09    2.56
  -1  -1 -13    0.97    0.71
   1   1  13    0.76    0.68
  -2  -1 -13    1.77    1.02
   2   1  13    1.03    0.87
  -3  -1 -13    1.98    1.09
   3   1  13    0.92    0.92
  -4  -1 -13    1.29    1.11
   4   1  13    0.03    0.82
   8  -2 -13    1.85    0.83
   8  -2 -13    1.58    0.74
   7  -2 -13   -0.25    0.68
   7  -2 -13   -0.19    0.56
   6  -2 -13    1.75    0.83
   6  -2 -13    0.71    0.59
   5  -2 -13    1.54    0.62
   5  -2 -13    0.47    0.55
  -5   2  13    1.60    0.86
   4  -2 -13   -0.08    0.52
   4  -2 -13   -0.20    0.49
  -4   2  13    0.67    0.77
   3  -2 -13   10.41    1.33
   3  -2 -13    4.98    1.11
  -3   2  13    8.26    1.57
   2  -2 -13   -0.30    0.56
   2  -2 -13    1.43    0.76
   1  -2 -13    2.32    0.85
   1  -2 -13    3.18    0.88
   0  -2 -13    0.80    0.64
   0  -2 -13    1.95    0.88
   0   2  13    2.35    0.98
  -1  -2 -13    0.07    0.68
   1   2  13   -0.80    0.70
  -2  -2 -13   38.44    3.95
   2   2  13   38.07    3.86
  -3  -2 -13    1.15    0.94
   3   2  13    0.65    0.90
   8  -3 -13    2.62    0.89
   8  -3 -13    3.06    0.92
   7  -3 -13    0.49    0.55
   7  -3 -13   -0.02    0.50
   6  -3 -13   23.13    2.46
   6  -3 -13   22.05    2.22
   5  -3 -13   -0.42    0.55
   5  -3 -13   -0.19    0.43
  -5   3  13    1.00    0.72
   4  -3 -13    1.70    0.72
   4  -3 -13    2.44    0.85
  -4   3  13    2.15    1.03
   3  -3 -13   -0.52    0.48
   3  -3 -13   -0.20    0.66
  -3   3  13   -0.50    0.81
   2  -3 -13    0.95    0.66
   2  -3 -13    0.30    0.60
  -2   3  13    1.94    1.07
   1  -3 -13    5.39    1.11
   1  -3 -13    6.75    1.30
   0  -3 -13    2.49    0.90
   0  -3 -13    2.27    0.96
  -1  -3 -13    2.42    1.14
  -2  -3 -13    2.18    1.15
   2   3  13    0.62    1.04
  -3  -3 -13    0.32    1.01
   3   3  13    0.22    0.94
   8  -4 -13    1.36    0.78
   7  -4 -13   -0.20    0.47
   7  -4 -13   -0.05    0.57
   6  -4 -13    0.39    0.65
   6  -4 -13    2.12    0.71
  -6   4  13    2.73    1.05
   5  -4 -13    0.88    0.63
   5  -4 -13    1.72    0.89
  -5   4  13    2.75    1.19
   4  -4 -13   23.72    2.73
   4  -4 -13   29.43    2.61
  -4   4  13   24.45    3.31
   3  -4 -13    0.20    0.61
   3  -4 -13    0.16    0.61
  -3   4  13   -0.10    0.85
   2  -4 -13    6.52    1.23
   2  -4 -13    3.86    1.10
  -2   4  13    6.29    1.58
   1  -4 -13    5.45    1.24
   1  -4 -13    8.86    1.47
  -1   4  13    5.92    1.62
   0  -4 -13    1.03    0.79
   0  -4 -13   -0.31    0.74
  -1  -4 -13    0.93    0.85
   7  -5 -13    5.78    1.19
   6  -5 -13    0.04    0.58
   6  -5 -13    0.11    0.62
  -6   5  13    0.32    0.91
   5  -5 -13    0.82    0.61
   5  -5 -13    0.26    0.71
  -5   5  13    0.07    0.86
   4  -5 -13   15.88    1.87
   4  -5 -13   13.75    1.90
  -4   5  13   12.03    2.28
   3  -5 -13    0.29    0.69
   3  -5 -13    1.71    0.89
  -3   5  13    0.39    0.89
   2  -5 -13    0.60    0.79
   2  -5 -13    0.78    0.86
  -2   5  13    1.42    1.16
   1  -5 -13   -0.20    0.70
   1  -5 -13    1.37    0.76
  -1   5  13   -0.55    1.14
   0  -5 -13    0.69    0.80
   0   5  13    2.59    1.51
   6  -6 -13    0.21    0.66
  -6   6  13   -0.16    0.94
   5  -6 -13    0.85    0.78
   5  -6 -13    0.26    0.62
  -5   6  13   -0.04    1.00
   4  -6 -13    0.16    0.67
   4  -6 -13   -0.06    0.66
  -4   6  13    2.11    1.22
   3  -6 -13    1.78    1.03
   3  -6 -13    1.71    0.76
  -3   6  13    0.74    1.23
   2  -6 -13   17.16    2.11
  -2   6  13   14.97    2.90
   2   9 -14    1.47    1.14
   1   9 -14    0.32    0.93
   0   9 -14   -0.26    0.94
  -1   9 -14   -0.21    0.96
   3   8 -14   17.23    2.64
   2   8 -14    0.72    0.87
   1   8 -14   -0.09    0.99
   0   8 -14    0.73    0.87
  -1   8 -14    6.68    1.58
  -2   8 -14    7.35    1.81
   4   7 -14    4.30    1.51
   3   7 -14    5.47    1.51
   2   7 -14   -0.28    0.83
   1   7 -14   12.16    2.03
   0   7 -14    2.38    1.11
  -1   7 -14   -0.20    0.67
  -2   7 -14    1.25    0.88
   5   6 -14    2.55    1.17
   4   6 -14    1.29    1.05
   3   6 -14    4.50    1.34
   2   6 -14    4.39    1.25
   1   6 -14    4.84    1.48
   0   6 -14    0.89    0.74
  -1   6 -14    2.57    1.16
  -2   6 -14   12.54    2.30
  -3   6 -14    4.21    1.33
   5  -6  14    0.59    0.95
   6   5 -14   15.87    2.18
   5   5 -14   -0.51    0.58
   5   5 -14    0.82    0.95
   4   5 -14    6.14    1.59
   4   5 -14   13.80    1.74
   3   5 -14    1.43    1.01
   3   5 -14    1.26    0.78
   2   5 -14   -0.47    0.81
   1   5 -14    2.63    1.10
   0   5 -14    1.30    0.88
  -1   5 -14    8.05    1.72
  -2   5 -14   -1.04    0.66
  -3   5 -14    0.87    0.82
   4  -5  14    0.16    0.97
   5  -5  14   -0.12    1.03
   6   4 -14    1.48    0.90
   6   4 -14   -0.88    0.76
   5   4 -14    0.09    0.61
   5   4 -14    3.30    1.22
   4   4 -14   17.32    2.29
   4   4 -14   21.37    2.96
   3   4 -14    0.89    0.92
   3   4 -14    0.65    0.68
   2   4 -14    7.40    1.35
   2   4 -14    9.44    1.64
   1   4 -14    9.12    1.61
   0   4 -14   -0.14    0.66
  -1   4 -14    4.60    1.17
  -2   4 -14    0.19    0.69
   2  -4  14    0.77    0.87
  -3   4 -14   -0.55    0.94
   3  -4  14    0.00    0.86
  -4   4 -14    0.86    1.08
   4  -4  14    2.36    1.13
   5  -4  14    3.77    1.26
   7   3 -14    0.98    1.06
   7   3 -14    0.31    0.68
   6   3 -14    0.93    0.90
   6   3 -14    0.53    0.69
   5   3 -14    9.66    1.60
   5   3 -14    7.98    1.72
   4   3 -14   15.93    2.34
   4   3 -14   10.43    1.68
   3   3 -14    5.44    1.31
   3   3 -14    6.74    1.27
   2   3 -14    0.81    0.68
   2   3 -14    0.12    0.72
   1   3 -14    0.27    0.76
   1   3 -14    0.14    0.60
   0   3 -14    1.78    0.88
  -1   3 -14   35.60    3.80
   1  -3  14   40.69    3.85
  -2   3 -14   -0.55    0.75
   2  -3  14    0.19    0.87
  -3   3 -14   17.90    2.46
   3  -3  14   16.77    2.40
  -4   3 -14    2.05    1.02
   4  -3  14    1.12    1.08
   5  -3  14    0.50    0.98
   7   2 -14   13.65    1.92
   7   2 -14   13.30    2.13
   6   2 -14    1.64    0.84
   6   2 -14    3.49    1.15
   5   2 -14    4.54    1.36
   5   2 -14    3.89    0.95
   4   2 -14    0.78    0.70
   4   2 -14    0.92    0.81
   3   2 -14   -0.84    0.48
   3   2 -14   -0.05    0.66
   2   2 -14    6.08    1.36
   2   2 -14    8.48    1.33
   1   2 -14   14.44    1.76
   1   2 -14    7.83    1.66
  -1  -2  14   13.16    1.84
   0   2 -14    2.86    1.09
   0  -2  14    4.68    1.16
  -1   2 -14    2.55    0.97
   1  -2  14    1.25    0.92
  -2   2 -14    4.51    1.38
   2  -2  14    7.11    1.51
  -3   2 -14    3.22    1.25
   3  -2  14    0.54    0.90
  -4   2 -14   -0.27    0.95
   4  -2  14    0.57    0.86
   5  -2  14    1.79    1.30
   7   1 -14   -0.13    0.78
   7   1 -14    0.61    0.70
   6   1 -14    0.75    0.70
   6   1 -14    0.60    0.90
   5   1 -14    6.61    1.27
   5   1 -14    8.98    1.70
   4   1 -14    0.15    0.66
   4   1 -14    2.24    0.91
   3   1 -14   18.37    2.47
   3   1 -14   19.03    2.14
   2   1 -14   26.00    2.33
   2   1 -14   16.65    2.63
   1   1 -14   -0.19    0.53
   1   1 -14   -0.02    0.66
  -1  -1  14    0.99    0.77
   0   1 -14   -0.29    0.64
   0  -1  14    1.03    0.81
  -1   1 -14    2.33    1.00
   1  -1  14   -0.16    0.65
  -2   1 -14   -0.16    0.79
   2  -1  14    0.49    0.76
  -3   1 -14    7.95    1.72
   3  -1  14   13.22    2.13
  -4   1 -14    2.59    1.06
   4  -1  14    1.96    1.14
   7   0 -14    2.46    0.84
   7   0 -14    2.69    1.07
   6   0 -14    1.53    0.88
   6   0 -14    3.24    0.95
   5   0 -14    8.90    1.34
   5   0 -14    3.74    1.13
   4   0 -14    5.14    1.21
   4   0 -14    4.82    1.00
   3   0 -14    0.70    0.71
   3   0 -14    0.19    0.53
   2   0 -14    1.35    0.74
   2   0 -14    2.70    0.99
   1   0 -14    1.28    0.70
   1   0 -14    1.19    0.76
   0   0 -14   18.27    2.21
   0   0 -14   12.28    2.08
   0   0  14   17.63    2.23
  -1   0 -14    1.35    1.00
   1   0  14    0.66    0.89
  -2   0 -14   10.06    1.96
   2   0  14   12.65    1.99
  -3   0 -14    5.33    1.40
   3   0  14    4.94    1.17
  -4   0 -14    0.11    1.14
   4   0  14   -0.99    0.80
   7  -1 -14   -0.43    0.56
   7  -1 -14   -0.18    0.76
   6  -1 -14    6.87    1.40
   6  -1 -14    6.73    1.26
   5  -1 -14    1.10    0.62
   5  -1 -14    0.88    0.76
   4  -1 -14    0.47    0.57
   4  -1 -14    0.27    0.63
  -4   1  14   -0.99    0.74
   3  -1 -14   15.61    1.84
   3  -1 -14   15.57    1.99
  -3   1  14    9.27    1.77
   2  -1 -14    3.10    1.02
   2  -1 -14    3.27    0.95
   1  -1 -14    2.55    0.94
   1  -1 -14    4.16    1.15
   0  -1 -14    3.98    1.14
   0  -1 -14    3.16    1.15
  -1  -1 -14    4.17    1.30
   1   1  14    2.99    1.13
  -2  -1 -14    1.65    0.97
   2   1  14    3.44    1.19
  -3  -1 -14    1.66    1.20
   3   1  14    0.77    0.96
   7  -2 -14    0.01    0.53
   7  -2 -14    1.82    0.93
   6  -2 -14   11.32    1.77
   6  -2 -14    9.88    1.44
   5  -2 -14   -0.34    0.58
   5  -2 -14   -0.06    0.52
   4  -2 -14    1.75    0.74
   4  -2 -14    1.33    0.81
  -4   2  14    2.20    0.99
   3  -2 -14   16.56    2.03
   3  -2 -14   16.12    2.29
  -3   2  14   16.63    2.35
   2  -2 -14    0.22    0.70
   2  -2 -14    0.17    0.72
   1  -2 -14    0.65    0.86
   1  -2 -14    0.27    0.70
   0  -2 -14   -0.57    0.78
  -1  -2 -14   -0.58    0.64
  -2  -2 -14   20.10    2.60
   2   2  14    9.31    1.77
   7  -3 -14    0.22    0.62
   7  -3 -14    1.77    0.83
   6  -3 -14    7.95    1.26
   6  -3 -14    9.31    1.50
   5  -3 -14    1.17    0.74
   5  -3 -14    1.24    0.87
  -5   3  14    1.63    0.93
   4  -3 -14    0.35    0.66
   4  -3 -14   -0.40    0.57
  -4   3  14   -0.18    0.96
   3  -3 -14    2.67    0.93
   3  -3 -14    1.50    0.91
  -3   3  14    1.96    1.15
   2  -3 -14   -0.63    0.71
   2  -3 -14    0.17    0.72
  -2   3  14    2.56    1.21
   1  -3 -14   16.22    2.22
   1  -3 -14   15.20    1.96
   0  -3 -14   -0.90    0.80
  -1  -3 -14   -0.36    0.80
   6  -4 -14    0.27    0.68
   6  -4 -14    1.00    0.69
   5  -4 -14    0.76    0.68
   5  -4 -14    2.12    0.90
  -5   4  14    0.95    1.12
   4  -4 -14    9.22    1.41
   4  -4 -14   11.74    1.71
  -4   4  14    5.16    1.58
   3  -4 -14   -0.56    0.72
   3  -4 -14    0.02    0.67
  -3   4  14    0.53    1.15
   2  -4 -14   -0.41    0.75
   2  -4 -14   -0.08    0.74
  -2   4  14   -0.17    0.99
   1  -4 -14    1.80    0.93
   1  -4 -14    1.34    0.86
  -1   4  14    0.62    1.30
   5  -5 -14    0.47    0.81
  -5   5  14    1.98    1.17
   4  -5 -14   14.12    1.99
   4  -5 -14   11.11    1.65
  -4   5  14   10.84    2.17
   3  -5 -14   -0.31    0.76
  -3   5  14    0.50    1.19
   2  -5 -14    0.87    0.79
  -2   5  14    1.81    1.42
   2   8 -15    0.05    0.97
   1   8 -15    0.54    1.04
   0   8 -15    5.76    1.49
  -1   8 -15    0.44    0.91
   3   7 -15    1.33    1.17
   2   7 -15    5.58    1.50
   1   7 -15    7.38    1.71
   0   7 -15    1.02    0.77
  -1   7 -15    0.72    1.19
  -2   7 -15    0.73    0.94
   4   6 -15    4.38    1.22
   3   6 -15    2.84    1.06
   2   6 -15    0.51    1.01
   1   6 -15    8.87    1.70
   0   6 -15   -0.51    0.74
  -1   6 -15    0.94    0.98
  -2   6 -15    4.53    1.31
   4  -6  15    1.98    1.15
   5   5 -15    1.87    0.98
   4   5 -15    2.43    1.36
   3   5 -15   -0.10    0.81
   2   5 -15    1.24    1.02
   1   5 -15    3.39    1.22
   0   5 -15    2.39    1.04
  -1   5 -15   14.01    2.38
  -2   5 -15    3.46    1.17
  -3   5 -15   -1.32    0.85
   3  -5  15   -0.02    0.94
   4  -5  15    2.47    1.19
   5   4 -15    0.00    0.92
   5   4 -15    1.50    0.82
   4   4 -15    6.18    1.60
   4   4 -15   10.71    1.68
   3   4 -15   -0.38    0.74
   3   4 -15    0.84    0.80
   2   4 -15    1.91    1.01
   1   4 -15    1.08    0.91
   0   4 -15    3.80    1.30
  -1   4 -15   -0.59    0.71
   1  -4  15    0.42    0.87
  -2   4 -15    0.65    0.88
   2  -4  15   -0.44    0.89
  -3   4 -15    5.18    1.47
   3  -4  15    5.33    1.48
   4  -4  15   11.40    2.08
   6   3 -15    1.26    0.79
   5   3 -15    9.24    1.85
   5   3 -15    4.25    1.19
   4   3 -15   21.28    2.36
   4   3 -15   14.67    2.47
   3   3 -15   -0.14    0.58
   3   3 -15    0.39    0.63
   2   3 -15    7.73    1.62
   2   3 -15    8.17    1.33
   1   3 -15    1.22    0.90
   0   3 -15    1.41    1.04
   0  -3  15    0.89    1.08
  -1   3 -15    0.95    1.01
   1  -3  15    0.04    0.93
  -2   3 -15    5.88    1.62
   2  -3  15    8.64    1.79
  -3   3 -15    8.23    1.85
   3  -3  15    5.08    1.46
   4  -3  15   -0.96    0.83
   6   2 -15    7.75    1.46
   6   2 -15    5.97    1.59
   5   2 -15    2.52    1.16
   5   2 -15    3.46    1.00
   4   2 -15    1.64    0.91
   4   2 -15    0.80    0.81
   3   2 -15    2.19    0.86
   3   2 -15    2.13    0.94
   2   2 -15   16.44    2.40
   2   2 -15   18.84    2.16
   1   2 -15   -0.02    0.82
  -1  -2  15    0.18    0.96
   0   2 -15    6.17    1.49
   0  -2  15    8.08    1.60
  -1   2 -15    1.69    1.01
   1  -2  15    6.29    1.40
  -2   2 -15    2.15    1.13
   2  -2  15   -0.29    0.87
  -3   2 -15    0.35    0.98
   3  -2  15   -0.17    0.83
   6   1 -15    0.33    0.72
   6   1 -15   -0.03    0.75
   5   1 -15    1.39    0.94
   5   1 -15    0.53    0.78
   4   1 -15    3.60    1.20
   4   1 -15    5.42    1.17
   3   1 -15   -0.01    0.66
   3   1 -15   -0.21    0.82
   2   1 -15    7.21    1.29
   2   1 -15    5.99    1.48
   1   1 -15    1.16    0.87
   1   1 -15    1.10    0.88
   0   1 -15   -0.34    0.81
   0  -1  15    0.55    0.85
  -1   1 -15    1.06    0.95
   1  -1  15   -0.28    0.93
  -2   1 -15    0.45    0.97
   2  -1  15    0.60    0.85
  -3   1 -15   15.73    2.40
   3  -1  15   17.08    2.63
   6   0 -15    3.31    1.18
   6   0 -15    2.81    1.01
   5   0 -15   25.19    3.15
   5   0 -15   23.55    2.66
   4   0 -15    1.93    0.95
   4   0 -15    1.71    0.82
   3   0 -15    2.77    0.91
   3   0 -15    3.59    1.23
  -3   0  15    5.60    1.31
   2   0 -15    0.89    0.79
   2   0 -15    0.18    0.67
   1   0 -15    0.26    0.80
   1   0 -15    0.53    1.00
   0   0 -15    2.66    1.00
  -1   0 -15    0.68    0.91
   1   0  15    1.17    1.06
  -2   0 -15    3.48    1.26
   2   0  15    4.35    1.36
   6  -1 -15   -0.35    0.65
   6  -1 -15   -0.83    0.70
   5  -1 -15    0.67    0.71
   5  -1 -15   -0.07    0.61
   4  -1 -15    0.02    0.63
   4  -1 -15    0.59    0.75
   3  -1 -15   19.52    2.29
   3  -1 -15   18.95    2.59
  -3   1  15   20.06    2.72
   2  -1 -15   -1.00    0.70
   2  -1 -15   -0.14    0.75
   1  -1 -15    6.36    1.29
   1  -1 -15    4.30    1.13
   0  -1 -15    7.14    1.62
  -1  -1 -15   -0.19    0.83
   6  -2 -15    2.87    0.92
   6  -2 -15    4.53    1.22
   5  -2 -15    0.34    0.65
   5  -2 -15    0.20    0.80
   4  -2 -15    0.93    0.81
   4  -2 -15    0.58    0.78
  -4   2  15    2.39    0.99
   3  -2 -15   13.91    1.86
   3  -2 -15   12.57    2.02
  -3   2  15   10.77    1.97
   2  -2 -15    3.78    1.11
   2  -2 -15    2.84    1.12
  -2   2  15    2.15    1.12
   1  -2 -15    0.26    0.77
   1  -2 -15    0.65    0.83
   0  -2 -15   -0.26    0.82
   5  -3 -15   -0.30    0.79
   5  -3 -15   -0.21    0.65
   4  -3 -15    0.54    0.77
   4  -3 -15    0.87    0.74
  -4   3  15   -0.77    1.06
   3  -3 -15    0.76    0.90
   3  -3 -15    0.02    0.73
  -3   3  15   -0.33    1.06
   2  -3 -15    1.29    0.83
   2  -3 -15    1.09    0.84
  -2   3  15   -1.65    1.12
  -1   3  15   10.31    2.31
   1   7 -16    7.25    1.85
   0   7 -16    2.38    1.28
  -1   7 -16    0.68    1.09
   2   6 -16    7.69    1.92
   1   6 -16    2.81    1.14
   0   6 -16    0.29    1.06
  -1   6 -16    1.36    1.16
  -2   6 -16    7.02    1.68
   3   5 -16    0.14    0.97
   2   5 -16   -0.35    0.75
   1   5 -16    0.10    1.09
   0   5 -16    2.99    1.25
  -1   5 -16    1.32    1.21
  -2   5 -16   -1.66    0.89
   2  -5  16   -0.30    0.97
   3   4 -16    2.51    1.13
   2   4 -16    6.98    1.70
   1   4 -16    5.17    1.48
   0   4 -16   -0.28    0.69
   0  -4  16   -0.43    0.90
  -1   4 -16    3.55    1.35
   1  -4  16    0.90    1.13
  -2   4 -16   -0.47    1.11
   2  -4  16    1.81    1.21
   5   3 -16    0.47    0.80
   4   3 -16    4.42    1.36
   4   3 -16    5.21    1.29
   3   3 -16    3.78    1.30
   3   3 -16    6.86    1.32
   2   3 -16    0.99    0.97
   1   3 -16    0.57    0.74
   0   3 -16   -0.05    0.85
   0  -3  16    0.95    1.10
  -1   3 -16    8.92    2.00
   1  -3  16    9.76    1.87
  -2   3 -16    0.41    0.96
   2  -3  16   -0.58    0.93
   5   2 -16    1.40    0.92
   4   2 -16   -0.26    0.67
   4   2 -16   -1.05    0.67
   3   2 -16    0.30    0.82
   3   2 -16   -0.14    0.80
   2   2 -16    4.43    1.34
   1   2 -16    1.33    0.98
   0   2 -16    4.20    1.20
  -1   2 -16    1.78    0.94
   1  -2  16   -0.16    0.98
  -2   2 -16    4.04    1.46
   2  -2  16    2.69    1.26
   5   1 -16    3.24    1.06
   4   1 -16   -0.35    0.87
   4   1 -16    0.75    0.64
   3   1 -16    6.31    1.30
   3   1 -16    6.48    1.47
   2   1 -16   10.72    1.73
   2   1 -16   10.11    1.91
   1   1 -16    0.44    0.85
   0   1 -16    0.53    0.81
  -1   1 -16   -0.81    0.78
   5   0 -16    5.38    1.15
   4   0 -16    1.82    1.00
   4   0 -16    2.80    0.97
   3   0 -16    0.74    0.86
   3   0 -16   -0.36    0.70
   2   0 -16    0.59    0.83
   2   0 -16    0.12    0.80
   1   0 -16    0.43    0.86
   0   0 -16    6.77    1.68
   4  -1 -16   -0.54    0.65
   3  -1 -16    9.29    1.54
   3  -1 -16    8.03    1.65
  -3   1  16    6.03    1.66
   2  -1 -16    2.35    0.98
   2  -1 -16    1.85    1.13
   0   0   0    0.00    0.00
;
_shelx_hkl_checksum              7007
loop_
_space_group_symop_operation_xyz
'x, y, z'
'-x, -y, -z'
loop_
_atom_site_label
_atom_site_type_symbol
_atom_site_fract_x
_atom_site_fract_y
_atom_site_fract_z
_atom_site_U_iso_or_equiv
_atom_site_adp_type
_atom_site_occupancy
_atom_site_site_symmetry_order
_atom_site_calc_flag
_atom_site_refinement_flags_posn
_atom_site_refinement_flags_adp
_atom_site_refinement_flags_occupancy
_atom_site_disorder_assembly
_atom_site_disorder_group
C1 C 0.4699(6) 0.2572(6) -0.0671(5) 0.0439(15) Uani 1 1 d . . . . .
H1A H 0.5114 0.3667 -0.0434 0.053 Uiso 1 1 calc R U . . .
H1B H 0.4406 0.2252 -0.1519 0.053 Uiso 1 1 calc R U . . .
C2 C 0.3182(6) 0.1980(6) -0.0210(6) 0.0421(14) Uani 1 1 d . . . . .
H2 H 0.3508 0.2487 0.0629 0.050 Uiso 1 1 calc R U . . .
C3 C 0.1638(5) 0.2334(5) -0.0656(4) 0.0285(11) Uani 1 1 d . . . . .
H3A H 0.0709 0.1889 -0.0296 0.043 Uiso 1 1 calc R U . . .
H3B H 0.1928 0.3408 -0.0466 0.043 Uiso 1 1 calc R U . . .
H3C H 0.1299 0.1928 -0.1490 0.043 Uiso 1 1 calc R U . . .
N1 N 0.6055(4) 0.2066(4) -0.0265(3) 0.0177(8) Uani 1 1 d . . . . .
H1C H 0.6713 0.2715 0.0399 0.021 Uiso 1 1 calc R U . . .
H1D H 0.6707 0.2024 -0.0796 0.021 Uiso 1 1 calc R U . . .
N2 N 0.2786(4) 0.0361(4) -0.0282(3) 0.0190(8) Uani 1 1 d . . . . .
H2A H 0.2167 -0.0197 -0.0986 0.023 Uiso 1 1 calc R U . . .
H2B H 0.2180 0.0100 0.0253 0.023 Uiso 1 1 calc R U . . .
N3 N -0.1138(4) 0.2543(4) 0.5946(3) 0.0156(8) Uani 1 1 d . . . . .
N4 N -0.1627(4) 0.2122(4) 0.6778(3) 0.0148(8) Uani 1 1 d . . . . .
N5 N -0.2096(4) 0.1758(4) 0.7571(3) 0.0250(9) Uani 1 1 d . . . . .
N6 N -0.1414(4) 0.0138(4) 0.3878(3) 0.0224(9) Uani 1 1 d . . . . .
N7 N -0.2871(4) -0.0424(4) 0.3986(3) 0.0158(8) Uani 1 1 d . . . . .
N8 N -0.4280(4) -0.1045(4) 0.4037(3) 0.0192(8) Uani 1 1 d . . . . .
N9 N 0.2571(4) 0.3449(4) 0.5987(3) 0.0152(8) Uani 1 1 d . . . . .
N10 N 0.2874(4) 0.4261(4) 0.6977(3) 0.0153(8) Uani 1 1 d . . . . .
N11 N 0.3176(5) 0.5047(4) 0.7894(3) 0.0280(9) Uani 1 1 d . . . . .
N12 N 0.2072(4) 0.1628(4) 0.4005(3) 0.0140(8) Uani 1 1 d . . . . .
N13 N 0.1755(4) 0.1381(4) 0.2943(3) 0.0145(8) Uani 1 1 d . . . . .
N14 N 0.1430(4) 0.1116(5) 0.1949(3) 0.0281(9) Uani 1 1 d . . . . .
N15 N 0.6438(4) 0.4601(3) 0.6051(3) 0.0113(7) Uani 1 1 d . . . . .
N16 N 0.6742(4) 0.4774(4) 0.7120(3) 0.0165(8) Uani 1 1 d . . . . .
N17 N 0.7039(5) 0.4961(5) 0.8104(4) 0.0352(11) Uani 1 1 d . . . . .
N18 N 0.5880(4) 0.2898(4) 0.3979(3) 0.0120(7) Uani 1 1 d . . . . .
N19 N 0.5635(4) 0.1923(3) 0.3088(3) 0.0112(7) Uani 1 1 d . . . . .
N20 N 0.5403(4) 0.1025(4) 0.2242(3) 0.0182(8) Uani 1 1 d . . . . .
N21 N 0.9763(4) 0.4010(4) 0.4027(3) 0.0120(7) Uani 1 1 d . . . . .
N22 N 0.9398(4) 0.3496(4) 0.2962(3) 0.0131(8) Uani 1 1 d . . . . .
N23 N 0.9076(4) 0.2997(4) 0.1970(3) 0.0247(9) Uani 1 1 d . . . . .
Cu1 Cu 0.5000 0.0000 0.0000 0.01537(19) Uani 1 2 d S . P . .
Cu2 Cu 0.03550(5) 0.18505(5) 0.50223(4) 0.01239(14) Uani 1 1 d . . . . .
Cu3 Cu 0.42628(5) 0.30497(5) 0.50440(4) 0.01199(14) Uani 1 1 d . . . . .
Cu4 Cu 0.81139(5) 0.41745(5) 0.50920(4) 0.00971(14) Uani 1 1 d . . . . .
loop_
_atom_site_aniso_label
_atom_site_aniso_U_11
_atom_site_aniso_U_22
_atom_site_aniso_U_33
_atom_site_aniso_U_23
_atom_site_aniso_U_13
_atom_site_aniso_U_12
C1 0.020(2) 0.035(3) 0.077(4) 0.023(3) 0.000(3) 0.007(2)
C2 0.023(2) 0.031(3) 0.082(4) 0.033(3) 0.015(3) 0.011(2)
C3 0.022(2) 0.029(3) 0.034(3) 0.011(2) 0.003(2) 0.007(2)
N1 0.0150(16) 0.0194(19) 0.0156(19) 0.0020(15) 0.0043(14) 0.0033(15)
N2 0.0137(16) 0.0176(18) 0.022(2) -0.0001(15) 0.0071(14) 0.0025(15)
N3 0.0133(16) 0.0170(18) 0.022(2) 0.0093(15) 0.0101(14) 0.0082(15)
N4 0.0105(15) 0.0151(18) 0.021(2) 0.0052(16) 0.0048(15) 0.0062(14)
N5 0.0249(19) 0.034(2) 0.025(2) 0.0146(18) 0.0153(17) 0.0145(18)
N6 0.0132(16) 0.0204(19) 0.025(2) -0.0013(16) 0.0096(15) -0.0028(15)
N7 0.0138(17) 0.0153(18) 0.0173(19) 0.0054(15) 0.0016(14) 0.0040(15)
N8 0.0110(16) 0.0218(19) 0.028(2) 0.0140(16) 0.0041(15) 0.0058(15)
N9 0.0127(16) 0.0176(18) 0.0151(19) 0.0007(15) 0.0078(14) 0.0059(15)
N10 0.0165(17) 0.0165(18) 0.021(2) 0.0115(17) 0.0111(15) 0.0098(15)
N11 0.043(2) 0.031(2) 0.018(2) 0.0047(18) 0.0133(17) 0.0213(19)
N12 0.0063(14) 0.0189(19) 0.0151(19) 0.0017(15) 0.0041(13) 0.0032(14)
N13 0.0112(16) 0.0140(18) 0.022(2) 0.0082(15) 0.0041(14) 0.0065(14)
N14 0.0240(19) 0.045(3) 0.018(2) 0.0117(18) 0.0065(16) 0.0140(19)
N15 0.0072(15) 0.0111(17) 0.0117(19) -0.0012(14) 0.0021(13) 0.0008(13)
N16 0.0119(16) 0.0164(18) 0.017(2) -0.0006(15) 0.0060(14) 0.0019(14)
N17 0.035(2) 0.046(3) 0.018(2) 0.0019(19) 0.0081(17) 0.010(2)
N18 0.0083(15) 0.0138(17) 0.0110(18) 0.0002(14) 0.0016(13) 0.0025(14)
N19 0.0058(14) 0.0104(17) 0.0149(19) 0.0029(16) 0.0039(13) -0.0004(13)
N20 0.0169(17) 0.0186(19) 0.0164(19) 0.0013(16) 0.0055(14) 0.0045(15)
N21 0.0083(15) 0.0142(17) 0.0110(18) -0.0007(14) 0.0029(13) 0.0029(14)
N22 0.0076(15) 0.0127(17) 0.021(2) 0.0050(16) 0.0059(14) 0.0045(14)
N23 0.0165(17) 0.036(2) 0.014(2) -0.0013(17) 0.0043(15) 0.0046(17)
Cu1 0.0121(3) 0.0140(4) 0.0175(4) 0.0011(3) 0.0055(3) 0.0025(3)
Cu2 0.0074(2) 0.0131(3) 0.0168(3) 0.0038(2) 0.00538(19) 0.0029(2)
Cu3 0.0063(2) 0.0118(3) 0.0149(3) -0.0008(2) 0.00471(18) 0.00121(19)
Cu4 0.0060(2) 0.0105(3) 0.0110(3) 0.00099(19) 0.00367(18) 0.00139(19)
loop_
_atom_type_symbol
_atom_type_description
_atom_type_scat_dispersion_real
_atom_type_scat_dispersion_imag
_atom_type_scat_source
C C 0.0033 0.0016 'International Tables Vol C Tables 4.2.6.8 and 6.1.1.4'
H H 0.0000 0.0000 'International Tables Vol C Tables 4.2.6.8 and 6.1.1.4'
N N 0.0061 0.0033 'International Tables Vol C Tables 4.2.6.8 and 6.1.1.4'
Cu Cu 0.3201 1.2651 'International Tables Vol C Tables 4.2.6.8 and 6.1.1.4'
loop_
_geom_angle_atom_site_label_1
_geom_angle_atom_site_label_2
_geom_angle_atom_site_label_3
_geom_angle
_geom_angle_site_symmetry_1
_geom_angle_site_symmetry_3
C2 C1 N1 112.2(5) . .
C2 C1 H1A 109.2 . .
N1 C1 H1A 109.2 . .
C2 C1 H1B 109.2 . .
N1 C1 H1B 109.2 . .
H1A C1 H1B 107.9 . .
C1 C2 N2 110.3(4) . .
C1 C2 C3 116.5(5) . .
N2 C2 C3 113.5(4) . .
C1 C2 H2 105.1 . .
N2 C2 H2 105.1 . .
C3 C2 H2 105.1 . .
C2 C3 H3A 109.5 . .
C2 C3 H3B 109.5 . .
H3A C3 H3B 109.5 . .
C2 C3 H3C 109.5 . .
H3A C3 H3C 109.5 . .
H3B C3 H3C 109.5 . .
C1 N1 Cu1 109.3(3) . .
C1 N1 H1C 109.8 . .
Cu1 N1 H1C 109.8 . .
C1 N1 H1D 109.8 . .
Cu1 N1 H1D 109.8 . .
H1C N1 H1D 108.3 . .
C2 N2 Cu1 108.8(3) . .
C2 N2 H2A 109.9 . .
Cu1 N2 H2A 109.9 . .
C2 N2 H2B 109.9 . .
Cu1 N2 H2B 109.9 . .
H2A N2 H2B 108.3 . .
N4 N3 Cu2 126.6(3) . .
N4 N3 Cu4 127.1(3) . 1_455
Cu2 N3 Cu4 106.26(15) . 1_455
N5 N4 N3 178.3(4) . .
N7 N6 Cu2 124.9(3) . .
N8 N7 N6 175.7(4) . .
N7 N8 Cu3 106.2(3) . 2_556
N10 N9 Cu3 127.6(3) . .
N10 N9 Cu2 129.9(3) . .
Cu3 N9 Cu2 101.31(14) . .
N11 N10 N9 178.5(4) . .
N13 N12 Cu3 125.0(3) . .
N13 N12 Cu2 123.3(3) . .
Cu3 N12 Cu2 101.56(14) . .
N14 N13 N12 178.3(4) . .
N16 N15 Cu3 121.0(3) . .
N16 N15 Cu4 119.9(3) . .
Cu3 N15 Cu4 99.41(13) . .
N17 N16 N15 178.7(4) . .
N19 N18 Cu3 127.8(2) . .
N19 N18 Cu4 128.0(3) . .
Cu3 N18 Cu4 99.74(14) . .
N20 N19 N18 178.9(4) . .
N22 N21 Cu4 126.4(2) . .
N22 N21 Cu4 124.6(3) . 2_766
Cu4 N21 Cu4 100.72(13) . 2_766
N23 N22 N21 178.6(4) . .
N2 Cu1 N2 180.0 2_655 .
N2 Cu1 N1 84.37(13) 2_655 2_655
N2 Cu1 N1 95.63(13) . 2_655
N2 Cu1 N1 95.63(13) 2_655 .
N2 Cu1 N1 84.37(13) . .
N1 Cu1 N1 180.0 2_655 .
N6 Cu2 N3 98.09(14) . .
N6 Cu2 N9 166.06(13) . .
N3 Cu2 N9 95.85(13) . .
N6 Cu2 N12 88.92(13) . .
N3 Cu2 N12 166.46(14) . .
N9 Cu2 N12 77.52(12) . .
N12 Cu3 N18 100.16(13) . .
N12 Cu3 N15 175.91(14) . .
N18 Cu3 N15 80.02(12) . .
N12 Cu3 N9 79.03(13) . .
N18 Cu3 N9 170.68(15) . .
N15 Cu3 N9 100.12(13) . .
N12 Cu3 N8 87.72(13) . 2_556
N18 Cu3 N8 100.44(13) . 2_556
N15 Cu3 N8 96.27(13) . 2_556
N9 Cu3 N8 88.82(13) . 2_556
N12 Cu3 Cu4 140.28(9) . .
N18 Cu3 Cu4 40.39(9) . .
N15 Cu3 Cu4 40.44(9) . .
N9 Cu3 Cu4 140.56(9) . .
N8 Cu3 Cu4 94.70(8) 2_556 .
N18 Cu4 N15 79.23(12) . .
N18 Cu4 N21 100.08(12) . .
N15 Cu4 N21 171.10(14) . .
N18 Cu4 N21 161.01(14) . 2_766
N15 Cu4 N21 98.46(12) . 2_766
N21 Cu4 N21 79.28(13) . 2_766
N18 Cu4 N3 104.55(13) . 1_655
N15 Cu4 N3 100.44(13) . 1_655
N21 Cu4 N3 88.34(13) . 1_655
N21 Cu4 N3 94.42(13) 2_766 1_655
N18 Cu4 Cu3 39.87(9) . .
N15 Cu4 Cu3 40.15(8) . .
N21 Cu4 Cu3 139.95(9) . .
N21 Cu4 Cu3 137.85(9) 2_766 .
N3 Cu4 Cu3 100.16(8) 1_655 .
loop_
_geom_bond_atom_site_label_1
_geom_bond_atom_site_label_2
_geom_bond_distance
_geom_bond_site_symmetry_2
C1 C2 1.445(7) .
C1 N1 1.455(6) .
C1 H1A 0.9700 .
C1 H1B 0.9700 .
C2 N2 1.478(6) .
C2 C3 1.516(6) .
C2 H2 0.9800 .
C3 H3A 0.9600 .
C3 H3B 0.9600 .
C3 H3C 0.9600 .
N1 Cu1 2.020(3) .
N1 H1C 0.8900 .
N1 H1D 0.8900 .
N2 Cu1 2.012(3) .
N2 H2A 0.8900 .
N2 H2B 0.8900 .
N3 N4 1.216(5) .
N3 Cu2 1.956(3) .
N3 Cu4 2.262(4) 1_455
N4 N5 1.145(5) .
N6 N7 1.205(4) .
N6 Cu2 1.950(3) .
N7 N8 1.159(4) .
N8 Cu3 2.428(4) 2_556
N9 N10 1.220(5) .
N9 Cu3 2.003(3) .
N9 Cu2 2.019(3) .
N10 N11 1.141(5) .
N12 N13 1.218(5) .
N12 Cu3 1.983(3) .
N12 Cu2 2.032(3) .
N13 N14 1.138(5) .
N15 N16 1.234(5) .
N15 Cu3 1.999(3) .
N15 Cu4 2.011(3) .
N16 N17 1.133(5) .
N18 N19 1.212(4) .
N18 Cu3 1.989(3) .
N18 Cu4 2.011(3) .
N19 N20 1.137(4) .
N21 N22 1.223(4) .
N21 Cu4 2.014(3) .
N21 Cu4 2.034(3) 2_766
N22 N23 1.143(4) .
Cu1 N2 2.012(3) 2_655
Cu1 N1 2.020(3) 2_655
Cu3 N8 2.428(4) 2_556
Cu3 Cu4 3.0583(6) .
Cu4 N21 2.034(3) 2_766
Cu4 N3 2.262(4) 1_655
loop_
_geom_torsion_atom_site_label_1
_geom_torsion_atom_site_label_2
_geom_torsion_atom_site_label_3
_geom_torsion_atom_site_label_4
_geom_torsion
_geom_torsion_site_symmetry_1
_geom_torsion_site_symmetry_2
_geom_torsion_site_symmetry_3
_geom_torsion_site_symmetry_4
N1 C1 C2 N2 -43.9(6) . . . .
N1 C1 C2 C3 -175.2(4) . . . .
C2 C1 N1 Cu1 30.6(5) . . . .
C1 C2 N2 Cu1 35.0(5) . . . .
C3 C2 N2 Cu1 167.8(4) . . . .
