#------------------------------------------------------------------------------
#$Date: 2021-07-04 04:53:45 +0300 (Sun, 04 Jul 2021) $
#$Revision: 266976 $
#$URL: file:///home/coder/svn-repositories/cod/cif/1/56/33/1563376.cif $
#------------------------------------------------------------------------------
#
# This file is available in the Crystallography Open Database (COD),
# http://www.crystallography.net/
#
# All data on this site have been placed in the public domain by the
# contributors.
#
data_1563376
loop_
_publ_author_name
'Jin, Jianbo'
'Folgueras, Maria C.'
'Gao, Mengyu'
'Yu, Sunmoon'
'Louisia, Sheena'
'Zhang, Ye'
'Quan, Li Na'
'Chen, Chubai'
'Zhang, Rui'
'Seeler, Fabian'
'Schierle-Arndt, Kerstin'
'Yang, Peidong'
_publ_section_title
;
 A New Perspective and Design Principle for Halide Perovskites: Ionic
 Octahedron Network (ION).
;
_journal_issue                   12
_journal_name_full               'Nano letters'
_journal_page_first              5415
_journal_page_last               5421
_journal_paper_doi               10.1021/acs.nanolett.1c01897
_journal_volume                  21
_journal_year                    2021
_chemical_formula_moiety         'Au3.5 Cl23 Cs8 In1.5'
_chemical_formula_sum            'Au3.5 Cl23 Cs8 In1.5'
_chemical_formula_weight         2740.24
_chemical_name_common            'Cs8Au3.5In1.5Cl23 Yellow (Eg=2.37eV)'
_space_group_crystal_system      cubic
_space_group_IT_number           221
_space_group_name_Hall           '-P 4 2 3'
_space_group_name_H-M_alt        'P m -3 m'
_atom_sites_solution_primary     dual
_audit_creation_date             2021-05-09
_audit_creation_method
;
Olex2 1.3
(compiled 2020.11.12 svn.r5f609507 for OlexSys, GUI svn.r6272)
;
_cell_angle_alpha                90
_cell_angle_beta                 90
_cell_angle_gamma                90
_cell_formula_units_Z            1
_cell_length_a                   10.4849(2)
_cell_length_b                   10.4849(2)
_cell_length_c                   10.4849(2)
_cell_measurement_reflns_used    6843
_cell_measurement_temperature    293
_cell_measurement_theta_max      29.3540
_cell_measurement_theta_min      3.3440
_cell_volume                     1152.64(4)
_computing_cell_refinement       'CrysAlisPro 1.171.41.99a (Rigaku OD, 2021)'
_computing_data_collection       'CrysAlisPro 1.171.41.99a (Rigaku OD, 2021)'
_computing_data_reduction        'CrysAlisPro 1.171.41.99a (Rigaku OD, 2021)'
_computing_molecular_graphics    'Olex2 1.3 (Dolomanov et al., 2009)'
_computing_publication_material  'Olex2 1.3 (Dolomanov et al., 2009)'
_computing_structure_refinement  'SHELXL 2018/3 (Sheldrick, 2015)'
_computing_structure_solution    'SHELXT 2018/2 (Sheldrick, 2018)'
_diffrn_ambient_temperature      293
_diffrn_detector                 'Hybrid Pixel Array Detector'
_diffrn_detector_area_resol_mean 5.8140
_diffrn_detector_type            'Pilatus 200K'
_diffrn_measured_fraction_theta_full 0.996
_diffrn_measured_fraction_theta_max 0.984
_diffrn_measurement_details
;
List of Runs (angles in degrees, time in seconds):

  # Type    Start    End  Width  t~exp~   \w     \q     \k     \f   Frames
--------------------------------------------------------------------------
  1  \w    -10.00  34.00   0.50    2.00    --    2.33 -99.00   0.00   88
  2  \w    -12.00  36.00   0.50    2.00    --    2.33 -99.00  90.00   96
  3  \w     -6.00  19.00   0.50    2.00    --    2.33 -99.00  60.00   50
  4  \w    -44.00  25.00   0.50    2.00    --    2.33 -77.00 150.00  138
  5  \w    -11.00  28.00   0.50    2.00    --    2.33 -99.00 -60.00   78
  6  \w    -10.00  18.00   0.50    2.00    --    2.33 -99.00-150.00   56
  7  \w      8.00  34.00   0.50    2.00    --    2.33 -99.00-180.00   52
  8  \w    -14.00  16.00   0.50    2.00    --   -2.02  63.00 -13.00   60
  9  \w     36.00  64.00   0.50    2.00    --   -2.02  63.00 -13.00   56
 10  \w    -69.00  14.00   0.50    2.00    --   -2.02 -63.00-150.00  166
;
_diffrn_measurement_device       'four-circle diffractometer'
_diffrn_measurement_device_type  'ROD, Synergy Custom DW system, Pilatus 200K'
_diffrn_measurement_method       '\w scans'
_diffrn_orient_matrix_type
'CrysAlisPro convention (1999,Acta A55,543-557)'
_diffrn_orient_matrix_UB_11      -0.0305935000
_diffrn_orient_matrix_UB_12      0.0599745000
_diffrn_orient_matrix_UB_13      -0.0071722000
_diffrn_orient_matrix_UB_21      -0.0435089000
_diffrn_orient_matrix_UB_22      -0.0163729000
_diffrn_orient_matrix_UB_23      0.0490503000
_diffrn_orient_matrix_UB_31      0.0417813000
_diffrn_orient_matrix_UB_32      0.0268875000
_diffrn_orient_matrix_UB_33      0.0459290000
_diffrn_radiation_monochromator  mirror
_diffrn_radiation_probe          x-ray
_diffrn_radiation_type           'Mo K\a'
_diffrn_radiation_wavelength     0.71073
_diffrn_reflns_av_R_equivalents  0.0525
_diffrn_reflns_av_unetI/netI     0.0128
_diffrn_reflns_Laue_measured_fraction_full 0.996
_diffrn_reflns_Laue_measured_fraction_max 0.984
_diffrn_reflns_limit_h_max       14
_diffrn_reflns_limit_h_min       -13
_diffrn_reflns_limit_k_max       14
_diffrn_reflns_limit_k_min       -14
_diffrn_reflns_limit_l_max       14
_diffrn_reflns_limit_l_min       -13
_diffrn_reflns_number            17279
_diffrn_reflns_point_group_measured_fraction_full 0.996
_diffrn_reflns_point_group_measured_fraction_max 0.984
_diffrn_reflns_theta_full        25.242
_diffrn_reflns_theta_max         29.417
_diffrn_reflns_theta_min         2.747
_diffrn_source                   'Rotating-anode X-ray tube'
_diffrn_source_type              'Rigaku (Mo) X-ray Source'
_exptl_absorpt_coefficient_mu    19.402
_exptl_absorpt_correction_T_max  0.875
_exptl_absorpt_correction_T_min  0.608
_exptl_absorpt_correction_type   gaussian
_exptl_absorpt_process_details
;
CrysAlisPro 1.171.41.99a (Rigaku Oxford Diffraction, 2021)
Numerical absorption correction based on gaussian integration over
a multifaceted crystal model
Empirical absorption correction using spherical harmonics,
implemented in SCALE3 ABSPACK scaling algorithm.
;
_exptl_crystal_colour            yellow
_exptl_crystal_colour_primary    yellow
_exptl_crystal_density_diffrn    3.948
_exptl_crystal_description       octahedral
_exptl_crystal_F_000             1181
_exptl_crystal_preparation       'Slow cooling method'
_exptl_crystal_recrystallization_method 'Slow cooling in HCl solution'
_exptl_crystal_size_max          0.19
_exptl_crystal_size_mid          0.17
_exptl_crystal_size_min          0.12
_refine_diff_density_max         2.352
_refine_diff_density_min         -1.940
_refine_diff_density_rms         0.216
_refine_ls_extinction_method     none
_refine_ls_goodness_of_fit_ref   1.135
_refine_ls_hydrogen_treatment    undef
_refine_ls_matrix_type           full
_refine_ls_number_parameters     18
_refine_ls_number_reflns         373
_refine_ls_number_restraints     0
_refine_ls_restrained_S_all      1.135
_refine_ls_R_factor_all          0.0576
_refine_ls_R_factor_gt           0.0477
_refine_ls_shift/su_max          0.000
_refine_ls_shift/su_mean         0.000
_refine_ls_structure_factor_coef Fsqd
_refine_ls_weighting_details
'w=1/[\s^2^(Fo^2^)+(0.0441P)^2^+20.4380P] where P=(Fo^2^+2Fc^2^)/3'
_refine_ls_weighting_scheme      calc
_refine_ls_wR_factor_gt          0.1230
_refine_ls_wR_factor_ref         0.1294
_reflns_Friedel_coverage         0.000
_reflns_number_gt                329
_reflns_number_total             373
_reflns_threshold_expression     'I > 2\s(I)'
_cod_data_source_file            nl1c01897_si_005.cif
_cod_data_source_block           Cs16Au7In3Cl46
_cod_depositor_comments
'Adding full bibliography for 1563375--1563376.cif.'
_cod_original_cell_volume        1152.64(7)
_cod_original_formula_sum        'Au3.50 Cl23 Cs8 In1.50'
_cod_database_code               1563376
_shelx_shelxl_version_number     2018/3
_chemical_oxdiff_formula         'Cs Au In Cl'
_shelx_space_group_comment
;
The symmetry employed for this shelxl refinement is uniquely defined
by the following loop, which should always be used as a source of
symmetry information in preference to the above space-group names.
They are only intended as comments.
;
_shelx_estimated_absorpt_t_max   0.204
_shelx_estimated_absorpt_t_min   0.120
_reflns_odcompleteness_completeness 99.65
_reflns_odcompleteness_iscentric 1
_reflns_odcompleteness_theta     26.32
_olex2_refinement_description
;
1. Shared sites
{Au01, In1}
2. Uiso/Uaniso restraints and constraints
Uanis(Au01) = Uanis(In1)
3. Others
 Fixed Sof: Au01(0.05208) Cl07(0.10417) In1(0.01042)
;
_shelx_res_file
;
TITL jianbo01_t3_p1_0314_auto_a.res in Pm-3m
    jianbo01_t3_p1_0314_auto.res
    created by SHELXL-2018/3 at 17:53:47 on 09-May-2021
REM Old TITL Jianbo01_T3_P1_0314_auto in Pm-3m
REM SHELXT solution in Pm-3m: R1 0.182, Rweak 0.004, Alpha 0.183
REM <I/s> 0.000 for 0 systematic absences, Orientation as input
REM Formula found by SHELXT: Cl29 Cs8 Au3
CELL 0.71073 10.4849 10.4849 10.4849 90 90 90
ZERR 1 0.0002 0.0002 0.0002 0 0 0
LATT 1
SYMM -X,-Y,+Z
SYMM -X,+Y,-Z
SYMM +X,-Y,-Z
SYMM +Z,+X,+Y
SYMM +Z,-X,-Y
SYMM -Z,-X,+Y
SYMM -Z,+X,-Y
SYMM +Y,+Z,+X
SYMM -Y,+Z,-X
SYMM +Y,-Z,-X
SYMM -Y,-Z,+X
SYMM +Y,+X,-Z
SYMM -Y,-X,-Z
SYMM +Y,-X,+Z
SYMM -Y,+X,+Z
SYMM +X,+Z,-Y
SYMM -X,+Z,+Y
SYMM -X,-Z,-Y
SYMM +X,-Z,+Y
SYMM +Z,+Y,-X
SYMM +Z,-Y,+X
SYMM -Z,+Y,+X
SYMM -Z,-Y,-X
SFAC Au Cl Cs In
UNIT 3.5 23 8 1.5
EADP Au01 In1
EXYZ Au01 In1

L.S. 4 0 0
PLAN  1
SIZE 0.12 0.17 0.19
CONF
list 4
MORE -1
fmap 2 53
acta
REM <olex2.extras>
REM <HklSrc "%.\\Jianbo01_T3_P1_0314_auto.hkl">
REM </olex2.extras>

WGHT    0.044100   20.438000
FVAR       0.12931
PART 3
AU01  1    0.000000    0.000000    0.500000    10.05208    0.03066    0.03066 =
         0.07048    0.00000    0.00000    0.00000
PART 0
CS02  3    0.259848    0.259848    0.259848    10.16667    0.05132    0.05132 =
         0.05132   -0.00527   -0.00527   -0.00527
IN03  4    0.500000    0.500000    0.500000    10.02083    0.02534    0.02534 =
         0.02534    0.00000    0.00000    0.00000
PART 1
AU04  1    0.000000    0.000000    1.000000    10.02083    0.08149    0.08149 =
         0.08149    0.00000    0.00000    0.00000
PART 0
CL05  2    0.258708    0.500000    0.500000    10.12500    0.02118    0.03558 =
         0.03558    0.00000    0.00000    0.00000
CL06  2    0.000000    0.220085    0.500000    10.25000    0.04310    0.03555 =
         0.09322    0.00000    0.00000    0.00000
CL07  2    0.000000    0.000000    0.771915    10.10417    0.11792    0.11792 =
         0.07010    0.00000    0.00000    0.00000
PART 4
IN1   4    0.000000    0.000000    0.500000    10.01042    0.03066    0.03066 =
         0.07048    0.00000    0.00000    0.00000
HKLF 4




REM  jianbo01_t3_p1_0314_auto_a.res in Pm-3m
REM wR2 = 0.1294, GooF = S = 1.135, Restrained GooF = 1.135 for all data
REM R1 = 0.0477 for 329 Fo > 4sig(Fo) and 0.0576 for all 373 data
REM 18 parameters refined using 0 restraints

END

WGHT      0.0441     20.4380

REM Highest difference peak  2.352,  deepest hole -1.940,  1-sigma level  0.216
Q1    1   0.0000  0.0000  0.4152  10.12500  0.05    2.35
;
_shelx_res_checksum              86452
_shelx_hkl_file
;
   0   1   1   55.33    1.92
   1   1   1  849.50   21.10
  -1   1   1  765.37   20.77
   1  -1   1  778.74   20.76
   1   1   1  802.41   20.70
  -1  -1   1  865.20   20.72
   0   0   2   33.52    1.22
   0   0  -2   33.70    1.30
   0  -2   0   28.81    1.27
  -2   0   0   27.92    1.18
   2   0   0   26.54    1.17
   0   0  -2   31.12    1.09
  -2   0   0   30.79    1.20
   0  -2   0   34.20    1.20
   0   1   2  266.91    7.78
   1  -2   0  235.80    7.79
   0  -1   2  275.20    7.92
  -2   0  -1  237.92    8.06
   0  -1  -2  255.95    7.72
  -2   1   0  273.09    8.01
   0  -1  -2  274.43    8.05
   1   0   2  264.89    7.99
   1   2   0  258.99    7.79
  -1   2   0  267.13    7.83
   0  -2  -1  237.87    8.07
  -2  -1   0  284.16    7.91
   0   1   2  265.64    7.99
   0   2   1  272.02    7.87
   0   1  -2  239.22    7.88
  -1   0  -2  280.57    8.02
  -1  -2   0  257.62    7.68
   2   1   0  265.39    7.94
  -2  -1   0  249.52    7.91
   0  -1   2  273.01    7.75
   0  -2   1  276.32    7.95
  -1   2   0  226.93    8.08
  -1   0  -2  265.64    7.68
   1   0  -2  261.63    7.69
   1   0   2  264.48    7.68
   2  -1   0  247.15    7.91
  -2   0   1  257.79    7.82
   2   0   1  252.41    7.82
  -2   1   0  234.27    7.88
   0  -1  -2  269.70    7.75
   2  -1   0  227.18    7.90
   1   2   0  256.09    7.90
   2   1   0  259.60    7.87
   1   0   2  266.53    8.05
  -1  -2   0  252.84    7.91
   2   0   1  258.51    7.85
   0  -1  -2  251.15    7.86
  -2   0  -1  274.04    8.12
   0   2  -1  272.29    7.71
  -1  -2   0  284.31    7.89
  -2   0   1  258.30    7.75
  -2   0  -1  246.46    7.88
   2   0   1  228.67    7.88
  -1  -1  -2   42.69    1.70
   1   1   2   45.65    1.74
  -2   1  -1   43.40    1.82
   1   2   1   43.69    1.72
   1   1  -2   42.23    1.56
  -1   2  -1   41.84    1.71
   1  -1   2   41.70    1.78
   2   1   1   48.87    1.95
   1   2   1   38.93    1.88
  -1   1  -2   39.62    1.72
   1   2   1   43.68    1.64
   1  -2  -1   41.24    1.71
  -1  -2  -1   44.11    1.64
   1   1   2   44.72    1.78
  -1   2   1   41.21    1.74
   1  -1  -2   43.68    1.61
  -1   1  -2   50.62    1.63
  -1   1   2   42.62    1.59
   2  -1   1   44.91    1.69
  -1   2   1   38.69    1.82
   1  -1   2   46.17    1.61
  -2   1   1   42.37    1.68
  -2  -1   1   45.36    1.70
  -1  -2   1   46.56    1.70
   2   1   1   46.95    1.78
   2  -1   1   38.10    1.69
   1   2   1   43.23    1.67
  -2   1  -1   44.57    1.47
  -1  -1   2   47.10    1.56
  -1  -1  -2   47.07    1.56
  -1  -2  -1   42.48    1.78
   2  -1   1   43.28    1.50
   2  -2   0 4939.72  150.65
   2   0   2 4848.86  150.87
   0   2   2 4974.32  150.89
   0  -2  -2 5183.05  150.42
  -2   2   0 4853.70  150.70
   2   2   0 5053.49  150.83
   0  -2   2 5170.95  150.53
   0   2  -2 5430.46  150.56
   0   2   2 4889.74  150.74
   0  -2  -2 5118.15  151.15
  -2   0  -2 4793.44  150.53
   0  -2  -2 5300.54  150.65
   2   0   2 4677.96  150.51
   0  -2   2 5261.25  150.65
   2  -2   0 4668.92  150.78
  -2   2   0 4325.29  150.77
   2   0  -2 4934.02  150.54
  -2   0   2 4914.77  150.52
  -2  -2   0 4843.16  150.66
  -2  -2   0 4709.28  150.68
   2   0   2 4973.36  150.95
  -2   1  -2  118.41    4.27
  -2  -1   2  125.71    3.94
  -1   2  -2  122.85    4.20
  -2   2   1  114.64    3.95
  -2   2  -1  117.07    4.22
   2  -1   2  106.10    4.21
   1   2   2  119.36    4.14
  -1  -2   2  115.08    3.92
   1  -2  -2  127.34    4.38
  -1  -2  -2  107.48    4.52
  -2   2   1  122.62    4.03
   1   2   2  113.50    4.52
  -1   2   2  125.90    4.42
  -1  -2  -2  107.24    4.11
   2   2   1  116.15    4.39
   2  -1   2  122.50    4.01
  -2  -1   2  123.40    4.03
   1  -2  -2  131.57    4.09
  -2   1   2  122.77    4.05
  -2   1  -2  129.18    4.09
   1  -2   2  132.76    4.09
  -1   2  -2  124.14    4.22
   2  -1  -2  119.86    4.03
   2  -2   1  121.08    4.20
  -2  -1  -2  124.94    4.05
  -1   2   2  115.61    4.19
  -2   2   1  117.81    4.20
   2  -1   2  121.32    4.14
   1   2  -2  130.58    4.03
  -2  -2  -1  104.50    4.12
  -2  -2   1  124.76    4.11
   2   2   1  119.03    4.21
   1   2   2  120.10    4.01
  -2   2  -2 1747.71   53.31
  -2  -2  -2 1648.07   53.17
   2   2   2 1711.28   53.65
   2  -2  -2 1691.08   53.12
  -2   2   2 1890.71   53.27
  -2   2  -2 1699.93   53.14
  -2   2   2 1645.59   53.10
   2  -2  -2 1784.85   53.16
   2  -2   2 1622.95   53.10
  -2  -2  -2 1863.23   53.05
  -2  -2   2 1800.45   53.05
   0   0  -3  204.61    6.60
   0   0   3  206.13    6.66
   0   0  -3  203.31    6.78
  -3   0   0  218.27    6.54
   3   0   0  176.24    6.60
  -3   0   0  187.19    6.61
   0  -3   0  198.23    6.78
   0  -3   0  234.35    6.66
  -3   0   0  213.73    6.87
   0   0  -3  207.41    6.46
  -3   0   0  210.44    6.67
   0   1   3   10.63    0.66
   1   0   3    8.33    0.74
   0  -1   3   11.69    0.75
   1  -3   0   11.95    0.63
  -1   0  -3    8.70    0.70
   1   0  -3    9.08    0.71
   0  -1  -3   11.38    0.84
  -1   0   3   10.81    0.76
   0  -1  -3   10.55    0.58
  -1   0  -3    9.57    0.77
   0   3   1   12.56    0.69
   3   1   0   10.62    0.73
   0   1   3   10.92    0.81
   0   1  -3   10.05    0.74
   0  -1   3   11.24    0.76
  -1  -3   0   11.48    0.50
  -3  -1   0   12.90    0.70
   0  -1   3   10.29    0.53
   3  -1   0   10.34    0.74
  -1   0  -3   10.08    0.46
  -3   0   1   10.56    0.67
   0  -1  -3    9.34    0.52
  -3   1   0   11.67    0.73
   1   0   3    9.71    0.47
   0  -3   1   13.09    0.83
   1   0  -3    9.19    0.47
  -3  -1   0    9.86    0.71
  -1   3   0   11.08    0.89
   3   0   1    9.82    0.66
   1  -3   0    9.93    0.89
   3   0   1    9.40    0.63
   0   1   3   10.77    0.66
  -3   1   0   10.66    0.74
   0   3  -1   12.54    0.61
  -3   0  -1    9.47    0.59
   1   3   0   13.24    0.78
   3  -1   0    9.76    0.77
  -1   0  -3   10.42    0.66
  -3   0  -1   10.81    0.75
  -3   0  -1   10.44    0.87
   3   1   0   10.70    0.69
  -3   0   1   11.23    0.64
  -1  -3   0   13.61    0.74
   1   3   0   11.00    0.76
   1   0   3   10.19    0.80
   1   1   3  428.46   13.67
  -3   1  -1  435.07   13.91
   1  -3  -1  388.20   13.33
   1  -1   3  455.56   13.82
   1  -3   1  411.33   13.59
  -1  -1  -3  414.59   13.62
   1   1  -3  448.69   13.59
  -1   3  -1  424.95   13.64
   1   3   1  443.10   13.72
  -1   1   3  424.15   13.42
  -1   3   1  437.75   13.75
  -1  -3  -1  417.99   13.49
  -1  -3  -1  363.32   13.86
  -3  -1  -1  435.09   13.91
   1   1   3  458.85   13.86
   1   3   1  432.93   13.99
  -1  -1   3  425.73   13.68
   1   3   1  453.01   13.53
  -1   1  -3  406.10   13.77
   1  -3   1  431.40   13.88
  -3  -1   1  450.55   13.66
  -1   3   1  445.96   13.92
   3  -1   1  450.10   13.67
   1  -1  -3  431.48   13.40
  -3   1   1  430.48   13.62
   1  -1   3  423.46   13.38
   3  -1  -1  452.39   13.60
  -3   1   1  419.73   13.52
  -1  -1   3  464.09   13.39
   1   3   1  434.46   13.67
   1  -1   3  435.83   13.56
   3  -1   1  439.38   13.42
   1   1   3  438.71   13.76
  -1  -1  -3  485.27   13.38
  -1  -1  -3  419.62   13.81
  -1  -3  -1  451.70   13.81
  -1   1   3  431.80   13.38
   3   1   1  442.46   13.67
   1   3  -1  454.11   13.55
   2  -3   0    3.59    0.45
  -3   2   0    5.56    0.62
   0   2   3    4.71    0.69
  -2   0   3    5.53    0.58
   0  -2  -3    5.82    0.38
   0  -2   3    5.77    0.59
   2   0   3    5.91    0.67
   0   3   2    5.46    0.70
   0   2   3    4.90    0.41
  -2   3   0    4.60    0.52
   0   2  -3    4.42    0.50
   0  -2  -3    5.63    0.80
   0   3  -2    4.35    0.36
   0  -3  -2    4.06    0.68
   2   3   0    5.30    0.64
   3   2   0    5.64    0.65
   0   3   2    4.55    0.52
   0  -2  -3    5.27    0.69
   0  -2   3    5.45    0.53
   0   2   3    5.29    0.62
  -2   0  -3    5.31    0.67
   3   0  -2    4.58    0.50
   0  -2  -3    5.68    0.50
  -2   0   3    5.72    0.40
  -2   0  -3    5.34    0.40
   2   0   3    5.40    0.41
  -3   0  -2    5.36    0.48
   0  -3   2    4.52    0.57
  -3   0   2    5.00    0.48
   0  -2   3    5.99    0.50
   2  -3   0    3.88    0.59
   3  -2   0    3.67    0.60
  -2   3   0    3.16    0.67
  -3   2   0    4.22    0.57
   0  -3  -2    4.66    0.58
   2   0  -3    5.31    0.44
   3   0   2    4.94    0.50
   0  -2  -3    5.04    0.56
  -3  -2   0    4.20    0.55
  -2  -3   0    5.25    0.53
  -3   0  -2    5.64    0.73
   2   3   0    3.98    0.53
   3   2   0    4.96    0.52
  -3   0   2    4.74    0.39
  -2  -3   0    4.43    0.59
  -3   0  -2    5.50    0.53
   2   0   3    5.29    0.71
  -2   0  -3    5.41    0.56
   1   3   2   17.39    1.10
   2  -3  -1   17.78    0.83
  -2   3   1   17.47    0.85
  -3   1  -2   16.73    1.19
  -1   3  -2   19.31    1.09
   3  -2   1   15.44    1.05
   1  -2   3   15.73    1.04
  -3   2  -1   15.67    1.10
   2  -3   1   17.59    1.01
  -2  -1   3   19.18    0.90
  -1   2   3   17.01    0.71
   2   1   3   15.52    1.04
  -1  -3  -2   17.02    1.12
  -2   3  -1   17.12    1.05
  -3   2   1   15.93    0.96
  -2  -3  -1   18.23    1.00
  -1  -2  -3   15.23    0.91
  -2  -1  -3   15.45    1.05
   2  -1   3   16.68    1.13
  -1   3   2   20.38    1.28
   3   2   1   17.16    1.20
  -1  -3  -2   17.58    0.99
   1  -2  -3   18.76    1.29
  -1  -2   3   16.61    0.92
   1  -3  -2   17.63    1.15
  -1  -2  -3   13.23    1.31
  -1   2  -3   16.13    1.01
  -3  -2  -1   18.87    1.21
  -3  -1  -2   18.36    1.31
  -1  -3   2   17.90    0.72
  -2   3   1   18.53    1.00
  -1   2   3   17.37    1.15
   2   3   1   19.08    1.28
   1   2   3   18.27    1.11
  -2  -3  -1   17.77    0.92
   1   3   2   17.35    1.00
  -3   2   1   17.01    0.81
  -1  -3  -2   16.57    1.31
   1  -3   2   14.84    1.08
  -3   1  -2   16.63    0.95
  -2   1   3   16.64    0.87
   2  -1  -3   16.96    0.85
  -1   3   2   18.33    1.13
   3  -2   1   17.27    1.06
  -2  -1  -3   17.08    0.85
  -3   1   2   17.64    0.95
   2  -1   3   16.58    0.82
  -2   1  -3   14.95    0.86
   2  -3   1   21.13    1.16
  -1   2  -3   15.68    0.92
  -1   3  -2   18.16    1.11
  -3  -1   2   18.14    0.97
   3  -1  -2   18.76    0.99
  -3  -1  -2   16.47    0.95
   1  -2   3   15.82    0.87
   3  -1   2   17.64    0.96
  -1   2   3   17.45    0.97
   1  -2  -3   16.50    0.88
  -2  -1   3   17.76    0.85
  -2   3   1   15.03    1.18
  -3   2   1   16.90    1.04
   1  -2  -3   15.77    0.77
   3   2   1   16.52    1.03
   3  -2  -1   15.77    0.89
   3  -1   2   18.42    1.08
  -2  -3   1   19.07    1.07
  -3  -2   1   17.46    0.99
   2   3   1   16.90    0.99
   1   3   2   16.57    0.96
   2   3  -1   17.64    0.96
   3  -2   1   16.27    0.68
   1   3  -2   17.90    0.96
  -2  -3  -1   18.83    1.10
   1   2   3   16.52    0.83
   1   2  -3   16.61    0.82
  -1  -2  -3   16.39    1.15
   2  -1   3   17.83    1.01
   3  -1  -2   17.02    0.85
  -3   1  -2   19.12    0.82
  -3  -1  -2   18.89    1.03
   2  -3   2  223.82    7.95
  -2  -3  -2  231.33    7.98
  -2   3  -2  238.34    8.05
  -2   2  -3  205.04    8.01
  -2  -2  -3  239.08    8.01
  -3   2  -2  240.13    8.16
  -2  -2  -3  210.27    7.95
   3  -2  -2  230.57    7.64
  -2  -3  -2  233.60    7.86
   2   3   2  245.09    8.48
  -3  -2  -2  222.02    8.39
  -2   3   2  266.25    8.14
   2  -2  -3  245.74    8.10
   2  -3  -2  234.67    7.92
  -2   3  -2  214.49    8.20
   2  -2  -3  244.09    7.82
   2  -3  -2  267.97    8.03
   3  -2  -2  244.07    7.93
   2  -3   2  247.61    7.98
  -3   2   2  233.94    7.92
  -2   2  -3  256.19    7.89
   2  -2   3  237.33    7.78
  -2   3   2  200.00    8.14
   3  -2   2  241.28    7.90
  -2   2   3  240.81    7.83
  -3   2  -2  230.95    7.94
   2   3  -2  244.62    7.83
   3  -2   2  226.99    7.97
  -2  -3   2  256.72    7.91
  -2  -3  -2  256.11    7.90
  -2  -2  -3  246.56    8.39
  -2  -2   3  254.92    7.76
  -3   2  -2  244.22    7.43
  -2  -2  -3  248.21    7.73
   2   3   2  235.21    7.83
  -3  -2   2  235.53    7.82
  -2  -3  -2  259.42    8.19
  -3  -2  -2  254.49    7.83
   3   0   3    4.31    0.70
   0  -3  -3    4.24    0.36
  -3   3   0    5.16    0.62
   3  -3   0    4.59    0.55
   0   3   3    5.17    0.75
  -3  -3   0    4.69    0.47
   0   3   3    5.30    0.66
   0   3  -3    5.40    0.52
   3   3   0    6.09    0.75
   0  -3  -3    5.19    0.89
   0  -3  -3    5.16    0.59
   0  -3   3    5.91    0.63
  -3   0  -3    5.24    0.49
  -3   3   0    5.84    0.75
   3   0  -3    4.95    0.53
  -3   0   3    4.68    0.47
   3   0   3    3.98    0.48
   3  -3   0    6.47    0.79
  -3  -3   0    5.91    0.58
   3   0   3    5.05    0.79
  -3  -3   0    4.92    0.65
  -3   0  -3    4.37    0.58
  -3   3  -1  218.58    7.64
   1   3   3  227.34    7.75
   3  -1   3  222.82    7.74
  -1   3  -3  223.17    7.61
  -3  -3   1  221.99    7.02
  -1   3   3  209.00    7.85
  -3  -3  -1  223.50    7.41
   3  -3   1  208.28    7.48
  -3   3   1  216.90    7.34
  -3  -1  -3  218.27    7.81
  -1  -3  -3  226.04    7.35
   3   3   1  230.46    7.93
  -1  -3  -3  236.94    8.23
  -1  -3  -3  224.52    7.55
  -1  -3   3  223.52    7.22
  -1   3   3  220.35    7.69
   1   3   3  225.74    7.59
  -1   3   3  245.35    8.03
   1  -3  -3  219.93    7.88
  -1   3  -3  223.89    7.42
  -3  -3  -1  218.78    7.75
  -3   3   1  236.77    7.32
   3  -1   3  230.81    7.32
  -3   1  -3  222.69    7.37
  -1   3  -3  227.75    7.52
  -3   1   3  216.70    7.31
  -1   3   3  229.63    7.53
  -3  -1   3  226.43    7.30
  -3  -1  -3  218.10    7.32
   3  -1  -3  240.01    7.37
  -3   3   1  231.57    7.67
   3  -3   1  219.91    7.63
   1   3  -3  231.86    7.35
   3  -1   3  232.66    7.58
  -3  -1  -3  219.38    7.63
   3  -1   3  216.22    7.89
  -3  -3  -1  232.06    7.56
   3  -1  -3  222.92    7.10
   1   3   3  225.82    7.33
  -3   1  -3  236.63    7.36
  -3  -3   1  239.16    7.54
  -2   3  -3    2.04    0.65
  -3  -3  -2    1.50    0.54
   3  -3   2    1.68    0.57
  -3   3  -2    1.53    0.62
  -3   2  -3    1.14    0.69
  -3   2  -3    0.94    0.32
  -3  -2  -3    0.88    0.63
  -3   3   2    1.80    0.37
  -2  -3  -3    1.34    0.55
  -3  -3  -2    2.18    0.53
  -3  -3  -2    1.99    0.72
  -2  -3   3    2.06    0.41
  -3   3   2    2.00    0.53
  -2  -3  -3    2.36    0.58
   3  -2  -3    1.60    0.49
  -3  -2  -3    1.31    0.57
   3   3   2    3.34    0.82
   2  -3  -3    1.79    0.63
   2   3   3    2.12    0.57
  -3  -2  -3    0.66    0.70
   2  -3  -3    1.27    0.53
   3  -2  -3    1.22    0.48
  -3   3   2    1.85    0.64
  -2   3  -3    0.61    0.59
  -3  -2   3    0.86    0.45
  -3  -2  -3    0.80    0.43
  -3   2  -3    1.25    0.53
  -3   3  -2    1.22    0.56
   2  -3   3    1.55    0.52
   3  -2   3    1.70    0.50
  -2   3   3    0.72    0.56
   3  -3  -2    2.61    0.66
  -3   2   3    1.17    0.51
   3  -3   2    1.85    0.59
   2   3   3    1.22    0.40
  -2  -3  -3    1.77    0.48
  -3  -3  -2    2.34    0.59
  -3  -3   2    2.22    0.59
   2   3  -3    1.66    0.45
  -2  -3   3    1.73    0.48
   3  -2   3    1.69    0.58
  -3  -2   3    1.32    0.43
  -3  -2  -3    1.36    0.43
  -3   3  -3  117.68    4.76
  -3  -3  -3  119.98    4.67
   3  -3  -3  118.01    4.47
  -3  -3  -3  117.85    4.58
  -3   3  -3  129.10    4.67
   3  -3  -3  129.51    4.60
   3  -3   3  119.95    4.51
  -3   3   3  127.22    4.59
  -3  -3  -3  127.46    4.46
  -3   3  -3  125.28    3.90
  -3  -3   3  127.57    4.47
   4   0   0 9842.51  287.21
   0   0  -4 9885.52  287.26
   0   0  -4 9862.95  287.53
   0   0   4 9999.00  287.37
  -4   0   0 9874.32  287.10
   0   0  -4 9847.89  287.53
   0  -4   0 8814.22  287.46
   4   0   0 8048.18  287.25
  -4   0   0 8275.85  287.24
  -4   0   0 9592.54  287.63
   0  -4   0 9971.85  287.27
   0   0  -4 9575.88  287.06
  -4   0   0 9681.91  287.34
   0  -1   4   22.95    1.24
   1   0  -4   18.74    1.20
  -1   0  -4   21.03    1.21
  -1   0   4   19.06    1.10
   0  -1  -4   23.48    1.05
   0   1   4   22.49    1.16
   1   0   4   19.69    1.27
   1  -4   0   17.88    0.98
   0  -1  -4   21.20    1.34
  -4  -1   0   20.37    1.05
  -1   0  -4   21.20    1.35
   0  -1   4   22.56    1.27
   0  -1  -4   21.15    1.31
   4   1   0   23.68    1.19
   0   1  -4   21.46    1.25
   0   4   1   19.60    1.03
  -1   0  -4   22.54    0.81
   0  -4   1   18.52    1.25
   4  -1   0   16.94    1.20
  -4   1   0   18.08    1.13
  -4   0   1   20.15    1.11
   1  -4   0   16.69    1.32
  -4  -1   0   20.76    1.20
   4   1   0   18.15    1.20
   4   0   1   19.34    1.14
   0  -1   4   22.71    0.81
  -1   4   0   18.26    1.32
  -4   0  -1   24.45    1.46
   4   0   1   17.93    1.06
   0  -1   4   22.99    0.99
   0  -4   1   16.93    0.92
   4  -1   0   22.19    1.26
   0   1  -4   22.31    0.78
   0   1   4   19.32    1.10
   1   4   0   18.95    1.20
   1   0   4   20.32    1.28
   1   4   0   18.03    1.13
  -4   0   1   21.30    1.10
  -1  -4   0   16.23    1.05
  -4   0  -1   20.07    1.21
   4   1   0   21.98    1.13
  -4   1   0   20.59    1.25
  -1   0  -4   22.21    1.10
   0   4  -1   18.13    0.99
  -1   1  -4   17.37    1.15
  -1  -1   4   16.84    1.05
  -4   1  -1   18.83    1.37
   1   1   4   18.13    1.14
   1   1  -4   19.21    1.09
   1   4   1   15.83    1.08
  -1  -1  -4   15.44    1.21
  -1  -1  -4   18.87    1.05
   1  -1   4   18.96    1.24
   1  -4   1   16.12    0.98
  -1   1   4   16.24    1.17
  -1   1   4   17.16    0.94
   1  -1  -4   18.36    1.26
   1  -4  -1   14.97    0.78
  -1  -4  -1   14.69    0.87
  -1  -1   4   17.33    1.11
  -4  -1  -1   19.25    1.24
  -1   4   1   14.79    1.11
   1  -1   4   18.29    1.15
   1   4   1   16.08    0.88
   4   1  -1   16.45    0.91
   1   1   4   16.16    1.18
  -1  -1  -4   17.61    1.19
  -1   1  -4   18.19    1.18
  -4  -1   1   18.91    1.10
   1  -1   4   18.94    0.75
   1  -4   1   16.91    1.24
  -1   4   1   17.53    1.23
   4  -1   1   17.89    1.10
  -1   1  -4   20.70    0.88
  -4   1   1   16.30    1.01
   1  -1  -4   21.15    0.79
  -1  -1  -4   20.24    0.79
   4   1   1   18.00    1.09
  -4   1   1   18.70    1.04
  -1   1   4   17.10    0.89
   1   4  -1   14.52    0.93
   4  -1   1   19.13    1.29
   4  -1  -1   19.88    1.09
  -1  -4  -1   12.68    1.03
  -1  -1   4   19.36    0.76
   1  -4   1   15.15    0.74
   4  -1   1   17.27    0.89
   1  -1   4   20.40    1.02
   1   1   4   17.39    1.15
  -4  -1  -1   17.47    1.00
   4   1   1   16.89    1.07
   1   4   1   15.40    1.05
   2  -4   0   12.89    0.83
   0   4   2   12.11    1.15
   0  -4   2   13.63    0.92
   2   4   0   13.38    0.82
   2   0   4   13.89    1.09
   0  -2  -4   14.13    0.72
  -2   0   4   13.45    0.99
   0  -2   4   13.85    1.00
  -4   2   0   14.70    1.09
   0  -2  -4   13.74    1.15
   0   2   4   13.13    0.81
  -2   0  -4   15.09    1.08
  -2   4   0   12.65    0.85
   0   2   4   12.31    1.04
   2   4   0   12.40    1.07
   0  -2   4   15.97    0.99
   0   4   2   12.11    0.89
  -2   0  -4   16.12    1.14
   0   2  -4   14.35    0.95
   0  -4  -2   12.47    1.13
  -2  -4   0   13.08    0.68
   4   2   0   13.25    1.03
  -4   0  -2   13.90    0.92
   0  -4  -2   13.83    1.04
  -4  -2   0   13.06    1.01
  -2   0  -4   15.25    0.72
   4   0  -2   14.64    0.97
   4   0   2   13.23    0.91
   0  -2   4   14.22    0.82
   0  -2  -4   13.22    0.79
  -4   0   2   13.76    0.88
   2  -4   0   12.64    1.00
   2   0  -4   14.13    0.74
   4  -2   0   11.17    0.97
  -2   4   0   10.45    1.19
   2   0   4   14.44    0.71
  -4   2   0   11.71    0.96
  -2   0   4   14.63    0.68
   0  -4   2   14.05    1.04
  -4   0  -2   13.67    1.20
   2   4   0   13.62    0.99
  -2   0  -4   14.58    0.95
  -4   0  -2   13.20    1.02
   2   4   0   11.75    0.96
  -4   0   2   13.29    0.78
   0   4  -2   12.67    0.74
   2   0   4   14.67    1.15
   4   0   2   13.57    0.96
   0  -2  -4   13.86    0.95
  -4   0  -2   14.18    0.84
  -2  -4   0   13.62    0.92
   4  -2   0   13.81    1.05
   4   2   0   13.30    0.93
   4  -2   0   12.60    0.99
  -4   1  -2  117.07    4.62
  -2   1   4  126.59    4.52
   1   2   4  115.23    4.19
  -4   2   1  121.65    4.38
  -4   2  -1  113.61    4.49
  -1   2   4  123.69    3.96
   1  -4   2  116.44    4.23
   1  -2   4  121.69    4.42
  -2   4  -1  116.40    4.28
   2  -1   4  133.91    4.60
   2   4  -1  119.39    3.90
   2   4   1  117.08    4.23
  -1  -2  -4  111.99    4.11
   2  -4  -1  105.23    3.92
   1  -4  -2  108.70    3.72
   2  -4   1  114.24    4.21
  -2   4   1  113.55    3.94
  -2  -1  -4  113.05    4.36
   2   1   4  121.33    4.44
   1   4   2  119.64    4.44
  -1   2  -4  119.10    4.34
  -2   4   1  114.17    4.26
   1   4   2  117.48    4.19
  -1   4   2  120.60    4.56
  -4  -1  -2  122.33    4.77
  -1  -4  -2  110.69    4.15
  -1  -4  -2  115.96    4.65
  -1  -2  -4  122.49    4.90
  -4   2   1  119.38    3.83
  -4  -2  -1  118.58    4.46
   1  -4  -2  101.19    4.39
   2   4   1  115.19    4.60
  -2  -4  -1  114.03    4.03
  -1  -2   4  121.17    4.23
   4   2   1  119.54    4.56
  -1   2   4  117.21    4.50
   4   2  -1  117.80    4.22
  -2  -1   4  118.07    4.40
  -2   1  -4  124.76    4.53
   1  -2  -4  113.87    4.63
   1   2   4  120.44    4.45
  -4   2   1  117.14    4.32
   4  -2   1  119.06    4.34
  -4  -1  -2  121.00    4.23
  -2   4   1  102.62    4.57
  -4  -2   1  117.02    4.35
  -1   2  -4  121.49    4.06
   4  -1  -2  128.22    4.30
   1  -2  -4  129.85    4.05
  -1   4   2  112.78    4.42
   4   1   2  115.92    4.21
  -4  -1   2  123.11    4.20
   1  -2   4  112.57    3.97
  -1   4  -2  119.93    4.46
   2  -1   4  119.83    3.91
   4   1  -2  117.48    4.25
  -2  -1   4  122.76    3.92
  -1   2   4  120.23    4.05
   1  -4  -2  116.45    4.47
  -4   1  -2  115.95    4.19
   2  -1  -4  132.23    3.98
  -4   1   2  108.50    4.13
   4  -1   2  119.89    4.23
  -2   1   4  114.49    3.98
  -2   1  -4  117.51    4.03
   2  -4   1  122.32    4.36
   1  -4   2  120.75    4.49
  -2  -1  -4  124.96    3.96
   4   1   2  125.17    4.41
   1   2   4  119.77    3.92
   1   4  -2  125.23    4.09
   4  -2   1  113.75    3.87
  -2  -1  -4  128.79    3.94
  -4   1   2  122.52    4.05
  -2  -4  -1  113.62    4.32
   2   4  -1  117.06    4.18
   1   4   2  108.79    4.21
   2  -1   4  119.30    4.21
  -2  -1   4  121.61    3.93
  -4  -1  -2  127.36    4.84
   4   2   1  116.47    4.31
   4  -1  -2  125.40    4.14
   4  -2  -1  119.78    4.22
  -4  -1  -2  110.31    4.35
   1   4  -2  120.69    4.26
  -1  -2  -4  114.91    4.46
   4  -2  -1  110.92    4.24
   4  -1   2  125.61    4.15
   4  -2   1  116.03    4.54
  -1   4  -2  119.75    3.83
  -2  -1  -4  120.04    4.30
   2   4   1  113.61    4.26
   1   2  -4  124.61    3.93
  -4   1  -2  120.96    3.96
   4   2  -1  120.56    4.23
   2   1   4  122.62    4.50
  -4   1  -2  103.50    4.21
  -2  -1  -4  110.20    4.53
  -4  -1  -2  117.90    4.21
  -4   2  -2 2855.65   88.16
   2  -2   4 2922.53   88.07
  -2  -4  -2 2778.46   87.94
  -2   2   4 2869.17   88.22
  -2   4  -2 2788.87   87.92
   2  -4   2 2853.79   87.83
  -2  -2  -4 2767.46   87.82
   2   2  -4 2875.64   87.50
   2  -2  -4 2839.52   88.06
   2   4   2 2867.73   88.46
  -4  -2  -2 2862.71   88.40
  -2  -2   4 2901.26   87.78
  -2   4   2 2998.57   88.03
  -2   2  -4 2920.34   88.02
   2   2   4 2915.63   88.01
  -2  -4  -2 2835.90   87.69
  -4   2   2 2818.33   87.81
   4  -2  -2 2955.09   87.87
   2  -2   4 2830.26   87.52
  -4  -2   2 2905.83   87.81
   2  -2  -4 3002.05   87.59
  -4  -2  -2 2869.08   87.83
   4  -2   2 2770.70   87.78
  -2   4  -2 2710.83   88.20
  -4   2  -2 2762.92   87.87
   2  -4  -2 3072.11   87.87
   2  -4   2 2895.63   87.83
  -2   4   2 2582.38   88.13
   2   4   2 2782.85   87.73
   4  -2   2 2768.81   88.22
  -4  -2  -2 2771.35   87.79
  -2  -2  -4 3055.45   87.51
   2   4  -2 3087.61   87.71
   4   2   2 2785.16   87.97
   2   4  -2 2869.88   87.76
   2  -2   4 2753.89   87.75
  -2  -2   4 3089.27   87.54
  -2  -4  -2 2943.86   88.07
  -2  -2  -4 2824.30   88.25
  -4   3   0   86.82    3.44
   3  -4   0   80.06    3.18
   3   0   4   81.65    3.56
   0   4   3   85.25    3.65
  -3   4   0   81.84    3.28
   0  -3  -4   91.27    2.90
   0   3   4   86.47    3.69
  -3   0   4   88.89    3.43
   0  -4  -3   84.38    2.88
   0  -3   4   85.42    3.40
  -3   0  -4   84.97    3.61
   0   3   4   95.07    3.60
   4   3   0   90.06    3.59
   0   4  -3   84.07    2.99
   0  -3   4   88.32    3.24
   0   4   3   84.64    3.41
  -3   0  -4   88.35    3.62
   0  -3  -4   97.39    4.06
   0   3  -4   89.58    3.25
   0   4   3   86.43    3.89
   3   4   0   89.04    3.62
   0  -4  -3   76.57    3.68
  -3   0  -4   90.19    3.10
   0  -3   4   93.17    3.29
   3   0   4   92.30    3.10
  -4   3   0   78.94    3.47
   0  -4  -3   87.81    3.40
   4   0   3   83.49    3.19
   3   0  -4   95.62    3.16
  -4   0   3   85.54    3.17
  -4   0  -3   83.13    3.22
   0  -4   3   90.15    3.43
   0  -3  -4   94.90    3.28
   3  -4   0   78.02    3.44
  -3   0   4   89.38    3.05
   4  -3   0   78.26    3.43
   4   0  -3   86.48    3.26
  -4   0  -3   83.07    3.21
  -4  -3   0   79.22    3.32
   3   4   0   82.12    3.33
  -3  -4   0   80.71    3.39
  -4   0  -3   81.12    3.72
  -3   0  -4   88.97    3.40
   3   0   4   84.65    3.69
   4   3   0   84.37    3.39
  -3  -4   0   86.64    3.29
   0  -3  -4   98.93    3.49
   3  -1   4    4.48    0.88
  -3  -4  -1    4.46    0.70
  -3   4   1    4.30    0.61
   4  -3   1    7.38    0.84
  -4   1  -3    7.57    1.02
  -1  -3  -4    7.17    0.65
  -4  -1  -3    6.70    1.04
  -1   3  -4    5.82    0.86
  -4   3  -1    6.20    0.89
  -3  -1  -4    6.19    0.97
   3  -4   1    4.40    0.68
   3  -4  -1    4.41    0.59
   1  -3   4    5.41    0.83
  -3   4  -1    4.07    0.78
   4  -1   3    5.39    0.98
  -4   3   1    6.89    0.78
  -1   4   3    4.56    0.77
   3   4   1    4.05    0.91
  -4   3   1    6.70    0.56
   1   4   3    5.52    0.90
  -1   4  -3    4.02    0.60
  -1  -4  -3    5.00    0.73
   1  -4  -3    4.22    0.84
  -1   3  -4    6.91    0.76
  -1  -3   4    5.83    0.66
  -1  -3  -4    6.04    0.82
   1   3   4    6.59    0.88
  -1   4   3    3.76    0.91
   1  -3  -4    8.20    1.12
   1   4   3    5.55    0.76
  -1  -4  -3    5.20    1.02
  -3  -4  -1    3.90    0.58
  -3  -4  -1    4.53    0.66
  -3   1  -4    5.82    0.87
  -4  -3  -1    5.47    0.88
  -3   4   1    4.59    0.63
  -1  -3  -4    8.50    1.25
   4   3  -1    6.34    0.84
  -1   3   4    5.62    0.92
   4   3   1    6.29    0.97
  -1   3   4    6.64    0.70
  -4   1  -3    4.19    0.65
   3  -1   4    6.77    0.62
  -4  -1   3    5.85    0.65
   1  -3  -4    9.95    0.76
  -4   1   3    5.36    0.66
   1  -3   4    6.85    0.68
  -1   4  -3    5.25    0.79
   4  -1   3    4.96    0.69
  -3   1   4    7.02    0.66
  -4  -1  -3    5.99    0.70
   1  -4  -3    4.00    0.78
   4  -3   1    5.70    0.84
  -3  -1   4    7.13    0.60
   4  -1  -3    5.00    0.69
   3  -1  -4    7.56    0.68
  -4   3   1    5.10    0.83
   1  -4   3    3.89    0.81
  -1   3  -4    7.23    0.72
  -3  -1  -4    7.40    0.63
  -3   1  -4    7.27    0.69
  -1   4   3    5.73    0.78
   3  -4   1    4.35    0.80
  -3   4   1    2.81    0.83
   3  -1   4    5.63    0.74
   1   4  -3    5.50    0.68
   3   4  -1    5.35    0.74
   4  -1  -3    6.70    0.58
  -4  -1  -3    4.67    0.70
  -4   1  -3    5.05    0.58
   1  -3  -4    6.83    0.63
  -3  -1  -4    5.14    0.93
   3  -1   4    5.06    1.04
   3  -1  -4    7.13    0.40
  -4  -3   1    5.13    0.77
   3   4   1    5.79    0.74
   1   4   3    4.57    0.66
  -3  -1  -4    6.43    0.80
  -4  -1   3    7.15    0.56
   1   3   4    6.66    0.63
   4   3   1    6.80    0.85
   4  -3   1    6.09    0.40
  -1  -3  -4    6.50    0.96
  -3  -4   1    5.31    0.81
   1   3  -4    6.84    0.64
   4  -1   3    6.88    0.85
   3  -4   2    2.67    0.66
   2  -4   3    2.61    0.73
  -4   3  -2    1.88    0.75
  -2  -3  -4    4.37    0.69
  -3  -4  -2    2.26    0.68
  -4  -2  -3    2.46    0.66
  -4  -2  -3    2.26    0.87
  -3  -2  -4    3.33    0.77
  -3   4   2    3.00    0.44
  -2   3  -4    2.64    0.73
  -3   4  -2    2.57    0.73
   4  -3   2    2.90    0.69
   3  -2   4    2.80    0.78
  -2   3   4    2.53    0.27
  -4   2  -3    2.28    0.74
   3   4  -2    2.46    0.55
  -4   3   2    2.63    0.57
  -2   4  -3    2.49    0.68
  -4   3   2    2.25    0.55
   3   4   2    3.69    0.95
   2   3  -4    2.11    0.38
   2   4   3    2.43    0.96
  -2  -3   4    2.78    0.51
  -3  -4  -2    2.29    0.60
  -2  -3  -4    2.45    0.69
  -4  -3  -2    2.00    0.84
   2   3   4    1.48    0.63
  -2  -4   3    2.40    0.35
  -2   4   3    3.00    0.81
  -2  -4  -3    2.00    0.61
   2  -4  -3    3.46    0.76
   2   4   3    3.02    0.69
  -2   3  -4    2.03    0.65
   2  -3  -4    2.19    0.81
  -3  -2  -4    2.16    0.71
   4   3   2    1.61    0.75
   4  -2  -3    3.76    0.49
  -2  -4  -3    2.74    0.71
   3  -2  -4    2.44    0.61
  -4  -2  -3    2.43    0.92
  -3  -4  -2    2.83    0.82
  -3   4   2    2.86    0.72
  -3  -4  -2    2.16    0.66
   4  -2  -3    2.27    0.60
  -3  -2  -4    3.24    0.54
  -2   4  -3    2.95    0.78
  -3   4  -2    1.22    0.85
  -3   2   4    2.66    0.58
  -2   3  -4    1.99    0.64
   2  -3  -4    1.97    0.60
   3  -2  -4    1.93    0.53
  -3  -2   4    2.07    0.52
  -4   2   3    2.52    0.64
  -3   4   2    1.35    0.81
  -4   3  -2    2.40    0.75
   4  -2   3    2.97    0.62
   3  -2   4    2.03    0.52
   4  -3   2    1.62    0.66
  -4  -2   3    3.16    0.63
  -4  -2  -3    2.64    0.63
  -4   2  -3    3.14    0.67
   2  -4  -3    3.48    0.69
  -3   2  -4    2.57    0.61
  -2   3   4    1.24    0.61
   3  -4   2    2.77    0.76
   2  -4   3    2.73    0.67
   3  -4  -2    2.25    0.69
   4  -3  -2    2.68    0.71
   2  -3   4    1.42    0.55
  -4   3   2    1.25    0.67
  -2   4   3    1.64    0.73
   3   4  -2    2.36    0.66
   4  -2   3    1.96    0.64
  -4  -3  -2    1.68    0.59
  -3  -2  -4    2.28    0.51
   4  -3  -2    2.23    0.44
   3  -2   4    2.79    0.68
  -3  -4   2    2.26    0.70
  -3  -4  -2    2.49    0.67
  -4   2  -3    2.48    0.36
   3   4   2    1.70    0.57
  -4  -3   2    1.75    0.64
  -2   4  -3    3.35    0.23
   2   4  -3    3.31    0.63
   2   3   4    2.02    0.48
  -3  -2   4    2.44    0.55
  -3  -2  -4    1.77    0.82
   2   4   3    2.21    0.57
  -2  -3  -4    1.68    0.84
  -3  -3  -4    6.11    0.90
  -3  -3  -4    6.98    0.98
   3  -4   3    5.18    0.87
  -3  -4  -3    3.81    0.85
  -4   3  -3    5.17    0.90
   4  -3   3    6.65    0.97
  -3   3  -4    6.66    0.98
  -3   4  -3    5.12    0.91
   4  -3  -3    5.34    0.62
   3  -4  -3    4.20    0.74
   3  -3  -4    6.09    0.88
  -3  -3  -4    5.59    0.83
  -3  -4  -3    4.98    0.77
  -3   4   3    4.62    0.87
  -3  -4  -3    4.17    0.82
   3   4   3    4.13    1.05
  -4  -3  -3    7.40    0.89
  -4  -3  -3    5.53    1.11
   3  -4  -3    5.74    0.87
  -4  -3   3    5.15    0.76
   3  -3  -4    7.13    0.84
   3  -4   3    5.13    0.86
  -4  -3  -3    5.04    0.77
   3  -3   4    5.10    0.71
   4  -3   3    4.69    0.80
   4  -3  -3    5.92    0.85
  -4   3   3    5.22    0.84
  -4   3  -3    5.22    0.86
  -3   4  -3    2.70    0.90
  -3   4   3    2.44    0.94
  -3  -3  -4    6.12    0.73
  -3  -3  -4    5.14    1.11
  -3  -4   3    4.81    0.78
   3  -3   4    5.23    0.79
  -4  -3  -3    6.35    0.80
  -3  -3   4    7.02    0.79
  -3  -4  -3    5.94    0.83
  -4  -3   3    6.03    0.80
   4  -3   3    5.45    0.84
   4  -4   0 5077.70  157.50
   0  -4  -4 5148.08  156.92
  -4  -4   0 5090.32  157.22
  -4  -4   0 5193.09  157.52
  -4   4   0 4840.02  157.58
   4   0   4 5253.10  158.02
   0   4   4 5148.14  158.04
   0   4  -4 5230.76  157.26
   4   4   0 5237.48  157.96
   0   4   4 5195.32  157.78
   0  -4  -4 5410.29  158.44
  -4   0  -4 5131.67  157.34
   4  -4   0 5097.51  157.78
  -4   4   0 4953.40  157.84
   4   0  -4 5526.35  157.45
  -4   0   4 5096.39  157.25
   0  -4   4 5324.64  157.58
   4   0   4 5027.71  157.32
   0  -4  -4 5464.75  157.58
   4   0   4 5215.27  158.18
  -4   0  -4 5100.20  157.66
  -4  -4   0 5097.48  157.61
  -4   0  -4 5559.97  157.65
   1   4   4    2.55    0.89
   4  -4   1    2.34    0.73
  -4   4  -1    2.87    0.82
  -4  -1  -4    6.53    0.95
  -4  -1  -4    6.12    1.02
  -4  -4  -1    3.09    0.72
   4  -1   4    5.30    0.99
  -4   4   1    3.82    0.72
  -1  -4  -4    5.43    0.63
  -4  -4  -1    3.28    0.67
   4   4  -1    2.03    0.86
  -4   4   1    3.32    0.58
  -1   4   4    3.06    0.86
   1   4   4    2.63    0.78
  -1   4   4    3.06    1.02
  -1  -4  -4    5.35    1.20
   4   4   1    1.01    1.06
  -4  -1   4    3.79    0.67
  -1  -4   4    2.75    0.51
  -1   4  -4    2.77    0.67
  -1  -4  -4    4.22    0.78
   1  -4  -4    2.82    0.98
  -4   1  -4    2.42    0.65
  -4  -1  -4    4.80    0.66
  -4   1   4    2.46    0.64
  -4   4   1    4.07    0.91
   4  -1  -4    4.54    0.72
  -4  -1   4    4.79    0.65
   4  -1   4    4.54    0.68
   4  -4   1    4.30    0.89
  -4  -1  -4    2.44    0.83
   4  -1   4    3.82    1.11
  -4   1  -4    5.72    0.73
  -1  -4   4    2.56    0.80
   1   4   4    4.54    0.67
  -1  -4  -4    2.24    0.77
  -4  -4   1    4.05    0.88
   1   4  -4    4.15    0.66
   4  -1   4    4.30    0.79
  -2  -4  -4    9.83    0.96
  -4  -2  -4   11.36    1.25
  -4   4  -2    8.55    1.10
   4  -4   2    9.85    1.05
  -2  -4  -4    9.71    1.13
  -2   4  -4   12.16    1.18
  -4  -4  -2   10.43    1.01
  -4   2  -4   10.53    1.30
  -4   4   2    9.93    0.82
  -4  -2   4    8.77    0.72
  -4  -2  -4   11.37    1.46
  -4  -4  -2    8.40    1.15
  -2  -4  -4    7.58    1.41
  -2   4  -4    8.79    0.99
  -4   4   2    9.82    0.96
   2   4   4    8.74    1.04
  -4  -4  -2    8.72    0.93
  -2  -4  -4    8.69    0.97
   2  -4  -4    9.95    1.22
  -2  -4   4    9.72    0.76
  -4  -2  -4   11.67    1.19
   4   4   2    9.16    1.35
   4  -2  -4   11.29    0.94
  -2   4  -4   10.46    1.11
   4  -2  -4   11.61    0.99
   4  -4   2    8.61    1.06
  -4   2   4   15.88    1.09
   4  -4  -2    9.64    1.09
  -4   4   2   11.31    1.19
  -2   4   4    8.49    1.02
  -4   2  -4   16.13    1.16
   4  -2   4   10.95    0.93
   2  -4   4   15.96    1.14
  -4  -2  -4    9.25    0.91
  -4  -2   4   10.44    0.91
  -4   4  -2   10.53    1.20
   2  -4  -4   14.73    1.09
   2   4  -4   12.29    0.93
  -4  -2  -4   11.77    1.17
  -4  -2   4   14.31    1.01
   2   4   4   13.24    0.97
  -4  -4  -2    9.94    1.04
   4  -2   4   10.66    1.10
  -4  -2  -4   13.11    0.96
  -4  -4   2   11.16    1.06
  -4  -2  -4   10.35    1.47
  -4  -4  -2    8.78    1.08
  -4   2  -4   10.86    0.77
   4   4  -2    8.18    0.97
  -4   3  -4   43.08    2.51
  -3  -4  -4   39.95    2.24
  -4  -4  -3   37.20    2.17
  -3  -4  -4   38.10    2.28
   4  -4   3   39.88    2.28
  -4   4   3   41.38    1.73
  -4  -3  -4   47.59    2.53
  -4   4  -3   38.19    2.35
  -3   4  -4   41.96    2.36
  -3  -4   4   36.05    1.84
   4  -3  -4   43.32    2.05
  -4  -3  -4   45.97    2.36
   3  -4  -4   42.25    2.25
  -4  -3  -4   43.60    2.91
  -4   4   3   42.33    2.20
  -3  -4  -4   38.74    2.18
   4   4   3   41.60    2.73
  -4  -4  -3   39.87    2.17
  -4  -4  -3   33.53    2.54
  -4  -3  -4   41.72    2.13
  -4  -3   4   44.39    2.09
  -4   3   4   42.48    2.14
   3  -4   4   38.89    2.08
   4  -4   3   36.14    2.15
  -3   4   4   37.56    2.36
   4  -3  -4   48.95    2.19
   4  -4  -3   39.48    2.21
   3  -4  -4   45.86    2.19
  -4   3  -4   42.04    2.21
  -3   4  -4   37.20    2.40
   4  -3   4   43.93    2.11
  -4   3  -4   45.83    1.61
  -4  -3  -4   47.80    2.46
  -4  -3   4   44.77    2.08
  -4  -3  -4   44.45    2.86
   4  -3   4   44.10    2.29
   4  -4  -3   38.17    1.60
  -4  -4  -3   42.18    2.14
  -4  -3  -4   46.31    2.07
  -4  -4   3   41.42    2.15
  -4  -4  -4 2923.84   93.75
  -4   4  -4 2882.07   93.93
  -4  -4  -4 3078.78   93.89
   4  -4   4 2865.37   93.74
  -4  -4  -4 2900.43   93.65
  -4  -4  -4 3061.97   94.71
   4  -4  -4 2871.42   93.36
   4  -4  -4 3420.27   93.65
   4  -4   4 3050.21   93.49
  -4  -4  -4 3264.45   93.46
  -4  -4   4 3231.48   93.49
   0   0   5    5.77    0.76
   0   0  -5    5.34    0.85
  -5   0   0    6.14    0.53
   0   5   0    6.18    0.51
   0   0  -5    6.46    0.86
  -5   0   0    6.06    0.74
   5   0   0    4.30    0.68
   0  -5   0    5.88    0.65
   0  -5   0    5.00    0.85
  -5   0   0    7.55    0.94
  -5   0   0    5.62    0.70
   5   0   0    5.79    0.63
   0   1   5   48.96    2.15
   0  -1  -5   49.23    1.97
  -1   0  -5   44.89    2.12
   0  -1   5   48.98    2.23
   1   0  -5   47.91    2.27
   1  -5   0   48.55    1.93
  -1   0   5   45.06    2.06
   1   0   5   49.71    2.32
   0  -1  -5   46.30    2.36
   0   5   1   49.92    1.97
   0   1  -5   46.72    2.24
  -1   0  -5   48.91    2.34
  -5   0  -1   47.39    2.21
   0  -1   5   49.89    2.28
   0  -1  -5   51.58    2.37
  -1   0   5   45.20    2.28
  -5   1   0   51.15    1.85
  -5   0   1   46.21    2.09
   1  -5   0   43.80    2.39
  -1   5   0   42.69    2.37
   5  -1   0   47.93    2.21
  -5  -1   0   41.55    2.13
   0  -5   1   51.78    2.38
   5   0   1   46.56    2.13
   5   1   0   43.98    2.15
  -5   1   0   42.26    2.07
  -5   0   1   44.87    2.04
  -5   0  -1   48.69    2.47
   0   1   5   49.35    2.10
   5  -1   0   51.23    2.23
   5   1   0   49.30    2.11
   0  -5  -1   45.24    2.21
   1   5   0   40.50    2.16
   0  -5   1   45.85    1.85
   5   0   1   45.13    2.01
  -5   1   0   48.21    2.27
   0  -1   5   50.10    1.86
   1   0   5   46.69    2.28
   1  -5   0   51.26    2.02
   0  -1  -5   48.75    1.92
  -5   0  -1   47.15    2.22
  -5  -1   0   48.98    2.22
  -1   0  -5   46.36    1.97
  -1  -5   0   48.81    2.10
   1   1   5  474.11   15.22
  -1  -1  -5  477.07   15.45
   1  -5  -1  471.53   14.70
  -1   1   5  468.96   14.94
  -5   1  -1  470.76   15.62
  -1  -1   5  468.12   15.09
   1  -1   5  492.98   15.38
   1  -5   1  477.67   14.96
  -1   1  -5  469.13   15.16
   1  -1  -5  483.29   15.41
   1   5   1  491.43   15.29
   1   1  -5  462.75   15.16
  -1  -1  -5  441.59   14.99
  -1  -1   5  483.52   15.27
  -5  -1  -1  480.85   15.23
  -1   5   1  490.18   15.32
   1   5   1  497.63   14.82
   1  -1   5  494.41   15.31
  -1   1  -5  472.46   15.31
  -1  -1  -5  471.53   15.38
   5   1  -1  462.04   14.84
  -5   1   1  448.26   15.03
   5   1   1  464.58   15.13
  -1  -1  -5  469.96   14.51
  -5  -1   1  465.93   15.13
   1  -1   5  463.76   14.48
   1  -1  -5  508.10   14.52
   1  -5   1  490.04   15.50
  -1   5   1  473.32   15.49
  -1   1  -5  483.50   14.55
   5  -1   1  483.46   15.17
   1   1   5  476.58   15.20
   5  -1   1  451.79   14.83
   1   5   1  453.90   15.19
  -5  -1  -1  510.54   15.78
   1  -1   5  474.43   14.88
   1  -5   1  483.25   14.67
  -1   1   5  474.04   14.86
  -1  -1  -5  463.07   14.97
  -5  -1  -1  450.80   15.18
  -1  -5  -1  470.20   15.21
  -5   1   1  468.74   15.08
  -5   1  -1  454.76   15.33
  -5   1  -1  450.97   15.09
   5  -1  -1  474.47   15.11
   1  -1  -5  446.52   14.62
   1   5  -1  493.25   15.03
   5   1   1  454.49   15.06
  -5  -1   1  479.78   15.07
  -1  -5   1  445.29   14.84
   5  -1   1  472.12   15.52
  -1  -1   5  484.72   14.58
  -2   0   5  508.29   15.68
   2   0   5  474.64   15.82
   2   5   0  503.52   15.38
   0  -2   5  491.74   15.64
  -2   0  -5  472.24   15.66
   0  -2  -5  486.30   15.17
   0  -5   2  487.79   15.46
  -5   2   0  498.92   15.89
   0   2   5  498.55   15.37
   2  -5   0  484.27   15.32
  -5   0  -2  480.04   16.15
   0  -2  -5  501.44   15.92
   0   5   2  492.82   15.46
   0   2   5  492.84   15.86
  -2   0   5  488.47   15.88
  -2   0  -5  508.97   15.91
   0  -2   5  507.89   15.65
  -2  -5   0  477.46   15.00
   0   2  -5  466.95   15.57
   0   5   2  469.80   15.95
   2   5   0  521.69   15.95
   5   2   0  493.10   15.68
   5  -2   0  460.43   15.64
  -5   2   0  434.83   15.52
  -2   5   0  429.94   15.96
  -5   0   2  482.75   15.45
  -5  -2   0  443.43   15.59
   0  -5   2  508.68   15.76
   5   0  -2  502.33   15.58
  -5   0  -2  469.07   15.48
  -2   0   5  464.80   15.00
   0  -5  -2  531.09   15.78
  -2   0  -5  492.10   15.06
   5   0   2  495.07   15.53
  -5   0  -2  481.23   15.28
  -5   0  -2  498.83   15.67
   5  -2   0  486.31   15.75
  -2   0  -5  480.47   15.45
   2   5   0  498.04   15.66
   2   5   0  429.61   15.51
   2   0   5  496.00   15.90
  -5   0   2  492.90   15.29
  -2  -5   0  488.67   15.50
   5  -2   0  495.03   15.69
   0   2   5  482.14   15.02
  -5   0  -2  505.00   16.12
   5   0   2  488.17   15.51
   0   2  -5  517.70   15.04
   5   2   0  501.15   15.55
  -1  -2  -5   28.97    1.90
  -5   1  -2   34.30    2.09
  -1   2   5   31.95    1.95
  -5   2  -1   29.03    1.90
   1   5   2   29.75    1.82
  -1   2   5   30.70    1.47
   2  -5  -1   30.28    1.39
   2  -1   5   34.53    1.96
   2   5   1   33.69    1.72
   2   1  -5   32.95    1.72
  -1  -2  -5   31.25    1.53
  -1  -2   5   28.12    1.69
  -2   1   5   31.35    1.49
  -2   1  -5   32.95    1.86
   1  -2   5   29.80    1.76
   1  -5   2   30.68    1.64
  -2  -1  -5   30.13    1.73
   2  -5   1   32.42    1.62
   1   2   5   31.45    1.63
   2   1   5   33.07    1.86
   1  -5  -2   32.01    1.22
   2   5  -1   31.36    1.42
  -5  -2  -1   29.66    1.58
  -2   1   5   35.45    1.93
  -2   1  -5   32.07    1.92
  -1  -2   5   30.35    1.71
  -1   2  -5   31.47    1.80
  -5  -2  -1   30.60    1.76
   1   2   5   32.04    1.88
  -1   2   5   30.08    1.87
   5   2   1   31.35    1.85
   1   5   2   30.85    1.58
  -5  -1  -2   33.08    2.04
  -1   5   2   34.10    1.96
   2   5   1   28.81    1.93
  -2   5   1   30.63    1.71
  -2  -1  -5   31.76    1.90
   5   2  -1   28.59    1.58
   2   1   5   28.53    1.86
  -2  -1   5   32.55    1.84
  -2  -5  -1   33.31    1.45
   5  -2   1   31.43    1.76
   2  -1   5   32.26    1.28
  -2   1  -5   35.07    1.39
   1  -5  -2   32.52    1.93
  -5   1   2   28.51    1.58
   5   1  -2   31.46    1.73
  -5  -1   2   33.99    1.69
   1  -2   5   33.02    1.35
  -2  -1   5   32.70    1.27
  -5   1  -2   28.30    1.63
   1  -5   2   32.20    1.94
   5   1   2   30.69    1.69
   2  -5   1   35.76    1.82
  -2   5   1   26.75    1.95
  -2  -1  -5   31.61    1.31
  -2   1   5   34.05    1.36
   1  -2  -5   34.01    1.39
  -5  -1  -2   31.71    1.71
  -5  -2   1   28.85    1.70
   5  -1   2   34.36    1.72
   2  -1  -5   34.37    1.33
   5  -1  -2   35.39    1.78
  -5   2   1   28.22    1.68
   2  -1   5   31.63    1.60
   1   5  -2   32.58    1.53
  -2  -5  -1   32.31    1.77
   5  -2   1   29.01    1.89
   5   2  -1   30.80    1.64
  -5  -1  -2   34.74    1.63
   5  -2  -1   30.68    1.71
  -2  -1  -5   30.03    1.66
   5   2   1   30.39    1.69
   1  -2   5   33.94    1.57
   5  -1   2   35.15    2.14
   2   5  -1   32.72    1.66
   5  -1   2   35.69    1.60
  -1  -5  -2   30.81    1.86
  -5   1   2   30.90    1.54
   5   1   2   34.44    1.82
   1   5   2   30.22    1.72
  -2  -1  -5   32.89    1.29
   2   5   1   29.03    1.68
  -2  -1   5   34.25    1.33
  -5   1  -2   30.17    1.71
   2   1   5   33.91    1.89
   5  -2   1   28.90    1.33
  -5  -1  -2   33.03    1.81
  -1  -2  -5   29.73    1.82
   1   5  -2   33.00    1.75
   5  -1  -2   34.85    1.62
  -5  -1   2   30.84    1.54
  -5  -1  -2   33.60    2.17
   2   2  -5   13.85    0.97
  -2  -2  -5   11.98    1.06
   2  -5   2   13.29    1.09
  -2   2   5   12.06    1.26
   2   2   5   11.35    1.11
  -5   2  -2   12.51    1.31
  -2   2   5   12.86    0.80
   2   5   2   12.05    1.11
   2  -5  -2   13.29    0.68
   2  -2   5   15.25    1.29
   2   2   5   13.89    1.25
  -2  -5  -2   12.71    0.97
   2   5   2   13.61    1.45
  -2   2  -5   13.68    1.20
  -5  -2  -2   11.71    1.34
  -2   5   2   13.34    1.19
  -2  -2   5   13.43    1.08
  -2   2   5   12.36    1.30
   5  -2  -2   15.80    1.20
  -2  -2  -5   12.36    0.84
   2  -5   2   13.64    1.15
   2  -2   5   12.37    0.78
  -2   2   5   10.20    0.90
  -5   2   2   11.84    1.03
   2  -2  -5   13.99    0.85
  -2   5  -2   14.36    1.41
  -5  -2  -2   14.11    1.12
  -2   2  -5   13.17    1.00
   2  -5  -2   16.19    1.19
  -2  -2   5   12.30    0.79
  -5  -2   2   14.44    1.13
   5  -2   2   16.19    1.18
  -5   2  -2   11.07    1.06
  -2   5   2   12.99    1.31
  -2  -2  -5   12.53    1.29
   2   5  -2   11.86    1.07
  -5  -2  -2   12.55    1.01
  -2  -5  -2   14.63    1.25
  -2  -2   5   13.52    0.84
   5  -2   2   14.09    0.87
   5   2   2   10.99    1.11
   5  -2  -2   12.11    1.01
   5  -2   2   12.84    1.34
   2  -2   5   12.24    1.02
   2   5  -2   12.88    0.99
   2   5   2   11.24    1.01
  -3   0  -5   11.75    1.25
   0  -5   3   11.59    1.07
   0   5   3   11.08    1.30
   3   0   5   10.40    1.20
  -3   0   5   10.58    1.12
  -5   3   0   14.53    1.27
  -3   5   0   10.19    1.00
   3  -5   0   10.86    0.92
   0  -3   5   13.70    1.19
   0  -3  -5   11.55    0.70
  -3  -5   0   10.76    0.75
   0  -5  -3    8.36    1.29
   3   5   0   13.07    1.32
  -3   0  -5   10.79    1.20
   0  -3  -5   12.19    1.51
   0   3  -5   11.57    1.03
   0   5   3   12.58    1.12
   0   3   5   12.79    1.26
   5   3   0   13.67    1.27
   0   5   3    7.92    1.31
   0  -3   5   12.98    1.04
   3   0   5   10.37    0.79
   0  -3   5   10.94    0.97
   5  -3   0   11.34    1.25
  -5   3   0    8.74    1.18
   5   0  -3   11.41    1.06
  -5   0  -3   10.56    1.00
  -5  -3   0   10.77    1.17
  -5   0   3   11.15    0.95
   0  -3  -5   10.82    0.93
   0  -5   3   11.03    1.17
   0  -5  -3   11.06    1.19
  -3   0   5   10.83    0.75
  -3   5   0    5.71    1.32
   3  -5   0   11.13    1.26
   5   0   3   10.16    0.96
  -3   0  -5   12.44    0.83
   3   0  -5   11.21    0.85
   5  -3   0   12.67    1.14
  -5   0  -3    8.65    0.89
   3   5   0   10.66    1.07
  -3   0  -5   11.85    1.06
   0  -3  -5   14.33    1.14
  -5  -3   0    9.86    1.12
   0   5  -3   10.61    0.78
   5   3   0   14.16    1.14
  -5   0  -3   11.11    1.33
  -3  -5   0   13.07    1.04
   5  -3   0   12.48    1.19
   3   0   5   11.66    1.34
   3   5   0   12.40    1.17
   0   3  -5   11.59    0.83
   0   3   5   10.38    0.80
  -3   5  -1  283.94    9.93
   3  -5  -1  277.39    9.54
  -3   5   1  291.93    9.58
   3  -5   1  291.99    9.83
   3   1   5  291.56   10.18
  -5   3  -1  279.59   10.14
  -3  -1  -5  296.25   10.11
  -1  -3   5  292.46    9.98
   3  -1   5  293.08   10.25
   1   5   3  298.99   10.26
  -5   3   1  298.42    9.96
  -3   1   5  288.17   10.17
  -3   1  -5  286.55   10.16
  -1   3   5  295.20    9.36
  -1  -3  -5  297.75    9.61
   1  -5   3  290.69    9.91
   1  -3   5  295.92   10.08
  -5   1  -3  305.79   10.48
   1  -3  -5  288.34   10.48
  -3  -5  -1  292.91    9.59
  -1   3  -5  299.03    9.97
  -3   5   1  317.00    9.91
  -5   3   1  308.80    9.40
  -1  -3  -5  308.23   10.15
   1   5   3  306.91    9.93
  -1   3   5  296.23   10.24
  -5  -3  -1  320.28   10.18
  -1   5  -3  298.47    9.58
  -3   1  -5  305.24   10.27
   5   3  -1  296.33   10.01
   5   3   1  293.76   10.34
   1  -5  -3  296.03   10.27
  -5  -1  -3  298.12   10.61
   1   3   5  306.37   10.20
  -1  -3   5  308.92    9.83
  -1  -5  -3  297.37   10.57
  -1   5   3  304.67   10.47
  -1  -3  -5  293.11   10.77
   3   5   1  300.92   10.45
  -1   5   3  294.08   10.06
  -5  -1  -3  293.16    9.85
   5  -1   3  296.86    9.79
  -1  -3  -5  319.13    9.64
   5  -1  -3  322.02    9.93
  -1  -3   5  315.56    9.66
   3  -1   5  292.31    9.45
   1  -3  -5  318.41    9.60
   1  -5  -3  300.63   10.17
  -1  -5  -3  336.94   10.11
  -5   3   1  281.15   10.02
   3  -1  -5  313.01    9.55
   1  -3   5  284.82    9.54
  -5   1   3  278.59    9.74
  -3  -1   5  297.92    9.46
  -3  -1  -5  306.61    9.55
  -3   5   1  243.67   10.38
   5  -3   1  301.97   10.09
  -3   1  -5  288.36    9.61
   3  -5   1  314.74   10.14
  -5  -3   1  293.08   10.03
   1  -5   3  295.84   10.18
  -5   1  -3  283.96    9.83
  -1  -5   3  326.01   10.10
  -3   1   5  289.45    9.53
  -5  -1   3  296.43    9.79
  -5  -3   1  301.11    9.96
  -3  -1  -5  284.49    9.98
   5  -3   1  285.19   10.21
   1   5   3  281.15    9.83
  -3  -5  -1  305.23   10.02
   3   1   5  285.24   10.23
  -5  -1  -3  306.93   10.69
   1   5  -3  328.12    9.69
  -5  -1  -3  305.22    9.83
   3  -1   5  293.48    9.90
   5   3   1  298.69   10.02
   5  -1   3  290.62   10.07
   3   5   1  288.69    9.93
   1   5  -3  294.67    9.88
  -1  -3  -5  287.91   10.12
   5  -3  -1  294.30    9.86
  -5  -1   3  308.44    9.55
  -5   1   3  293.05    9.55
  -5   1  -3  301.87    9.55
   5  -1  -3  297.57    9.62
   5  -3   1  261.85    9.98
   3   5  -1  312.76    9.97
   5   3  -1  296.15    9.93
  -1   5  -3  310.06    9.35
   1   3   5  287.18    9.49
   1   3  -5  295.00    9.51
   3  -1   5  303.62   10.49
   5  -3   1  275.63    9.32
  -5   3  -2   27.56    1.93
  -3   5   2   27.21    1.20
  -3  -5  -2   26.07    1.69
  -5   3   2   30.43    1.66
  -2  -3  -5   30.57    1.63
   2   3  -5   29.75    1.40
  -5   2  -3   25.34    1.91
  -3   5  -2   25.80    1.71
   5  -3   2   25.85    1.76
  -2   3   5   30.25    1.20
   3  -2   5   28.59    1.89
   2  -3   5   28.58    1.85
   3  -5   2   24.01    1.60
  -5  -2  -3   25.79    2.04
  -2   3   5   24.96    1.93
   2  -5   3   28.70    1.69
  -3  -2  -5   28.53    1.77
  -3   2   5   28.69    1.97
   5   3   2   27.80    2.04
  -2   3   5   26.57    1.96
  -2   3  -5   32.26    1.84
   2   5   3   26.12    2.12
  -5  -3  -2   28.87    1.95
   2   3   5   26.52    1.79
   2  -3  -5   30.35    2.00
  -2  -5   3   24.50    1.03
   2   5   3   27.15    1.62
  -2  -3  -5   27.53    2.27
   3   5   2   25.05    2.03
  -2  -3   5   28.14    1.56
  -3   2  -5   29.30    1.91
  -3  -5  -2   26.28    1.51
  -2   5   3   27.78    1.95
  -3   5   2   25.48    1.68
  -3  -2   5   26.57    1.72
  -5  -2  -3   27.13    2.12
  -2  -3  -5   26.89    1.75
  -2  -5  -3   26.22    1.57
   5  -3  -2   29.21    1.78
  -5   3  -2   25.05    1.73
  -3   2   5   30.64    1.49
   5  -3   2   28.57    1.73
  -5  -2   3   27.50    1.60
   3  -5   2   27.72    1.77
   3  -5  -2   26.31    1.73
  -5   3   2   27.97    1.74
  -3  -2   5   26.43    1.35
   3  -2  -5   29.40    1.45
   2  -3  -5   34.45    1.58
  -5   2  -3   26.29    1.68
   2  -5   3   29.86    1.68
  -2   3  -5   30.26    1.62
   2  -5  -3   29.62    1.66
   5  -2   3   29.11    1.65
  -5  -3  -2   28.76    1.73
  -3  -2  -5   28.08    1.42
  -2   3   5   28.18    1.56
  -3   2  -5   32.81    1.56
  -3   5   2   21.51    1.88
  -2   5  -3   23.54    1.81
   2  -3   5   31.03    1.48
  -5  -3   2   28.35    1.70
  -2   5   3   24.59    1.83
   5  -2  -3   26.44    1.67
  -3   5  -2   21.59    1.95
  -5   2   3   26.00    1.60
   3  -2   5   28.61    1.38
  -5  -2  -3   26.41    1.60
  -5  -2  -3   27.18    1.66
  -3  -2   5   30.35    1.43
   5  -2   3   27.40    2.09
   5  -2   3   28.93    1.82
  -5  -3   2   28.62    1.65
   5  -2  -3   26.70    1.48
  -3  -2  -5   28.21    2.04
   5  -3   2   29.44    1.24
   5   3   2   32.06    1.87
   2  -3   5   28.22    1.64
  -3  -5  -2   22.61    1.70
   2   5   3   25.12    1.55
   3  -2   5   30.48    1.74
   3   5   2   27.06    1.62
   3   5  -2   27.14    1.64
  -2  -5  -3   25.48    1.84
   5  -3   2   29.28    1.97
   2   5  -3   26.42    1.50
  -5  -3  -2   29.32    1.67
  -2  -3  -5   31.76    2.06
   3   5  -2   28.77    1.60
   2   5  -3   26.01    1.59
  -3  -2  -5   30.93    1.42
  -3  -3  -5  162.14    6.48
  -3   5  -3  180.92    6.51
  -3   3   5  161.01    5.52
   3  -5   3  168.22    6.28
   3  -3   5  162.94    6.46
  -3  -5  -3  166.68    6.36
  -3   3   5  174.26    6.75
  -5   3  -3  170.59    6.63
  -3  -3  -5  173.50    6.33
   5  -3   3  153.45    6.38
  -3  -5  -3  174.04    6.14
  -3  -5   3  168.31    5.56
  -3  -3  -5  176.82    6.46
   3  -3  -5  166.26    6.40
   3   5   3  180.41    7.11
  -3   3  -5  182.13    6.52
  -3   5   3  180.23    6.54
  -3  -3   5  174.40    6.16
  -5  -3  -3  170.93    6.98
   3  -5   3  174.44    6.27
  -3   5   3  147.44    6.55
  -3   3  -5  156.11    6.29
  -3   5  -3  162.87    6.72
  -5   3   3  171.56    6.26
  -5  -3   3  173.64    6.20
  -5   3  -3  161.96    6.30
  -3   3   5  160.19    6.22
   3  -3   5  172.83    5.93
   3  -5  -3  183.49    6.32
   3  -3  -5  182.28    6.02
   5  -3   3  171.44    6.19
  -5  -3  -3  169.48    6.24
   5  -3  -3  187.28    6.32
   5  -3   3  176.15    6.42
  -3  -3  -5  184.39    6.99
   3   5   3  161.56    6.08
   5  -3   3  164.07    6.69
  -3  -5  -3  179.14    6.62
  -5  -3  -3  184.23    6.15
  -3  -3  -5  179.73    5.93
   3   5  -3  182.35    6.16
  -5  -3  -3  171.73    6.31
  -5  -3   3  187.13    6.20
  -3  -3   5  182.37    5.98
   3   5  -3  169.15    6.10
   3  -3   5  172.88    6.23
  -4   0  -5    1.58    0.98
   0  -4   5    1.83    0.87
  -5   4   0    2.94    0.85
   0  -5  -4    1.41    0.34
  -4  -5   0    2.17    0.69
   4   0   5    1.27    0.89
   4  -5   0    1.37    0.68
  -5   0  -4    0.56    0.74
   4   5   0    1.74    0.83
   0  -4  -5    2.03    0.37
  -4   5   0    1.22    0.77
   0   4   5    2.16    0.86
   5   4   0    1.82    0.94
   0  -4  -5    0.86    1.07
   0   5  -4    1.96    0.50
   0   5   4    3.47    0.87
   0   5   4    0.47    1.08
  -4   0   5    1.87    0.85
  -4   0  -5    2.18    0.89
   0  -5  -4    0.87    0.99
   0   4  -5    1.59    0.63
   0   4   5    2.48    1.03
   4   5   0    2.78    1.02
   0   5   4    2.17    0.96
   4   0  -5    0.92    0.65
   4  -5   0    1.06    1.00
  -5   4   0    1.30    0.99
   0  -5   4    1.20    0.80
  -5   0   4    1.53    0.63
   0  -4   5    1.47    0.77
  -4   0   5    1.68    0.55
   5   0  -4    1.93    0.77
   4   0   5    1.45    0.64
  -4   5   0    0.57    1.14
   0  -5  -4    1.92    0.87
  -4   0  -5    1.96    0.61
   5  -4   0    1.37    1.01
   5   0   4    1.52    0.69
  -5   0  -4    2.16    0.72
   0  -4  -5    2.10    0.80
   5   0   4    2.17    1.12
  -4   0  -5    2.46    0.81
   4   0   5    2.07    1.01
   0  -4  -5    1.75    0.82
  -5  -1  -4   21.32    1.82
   5  -4   1   14.96    1.36
  -4  -5  -1   18.24    1.30
  -4   5   1   18.24    1.23
  -1  -4  -5   16.95    1.07
   5  -1   4   18.18    1.68
  -5  -4   1   15.97    0.92
  -4  -1  -5   19.20    1.67
   1   5   4   16.28    1.58
  -5   4   1   16.62    1.28
  -4   5  -1   17.76    1.45
   4  -5   1   15.47    1.30
   4  -1   5   17.24    1.61
  -4  -1   5   20.44    1.29
  -1  -4   5   16.85    1.42
  -1  -5  -4   18.29    1.11
   1  -5   4   14.12    1.32
  -1   5   4   15.75    1.66
  -5   4  -1   16.09    1.50
  -4   1   5   17.54    1.58
  -4   5   1   17.64    1.21
  -1  -4   5   15.70    1.12
  -1  -4  -5   16.96    1.45
   4   5  -1   17.26    1.53
   1  -5  -4   20.94    1.76
   5   4   1   15.49    1.63
  -1   5  -4   18.24    1.19
   1   4   5   16.93    1.46
  -1   5   4   19.04    1.81
  -1  -5  -4   19.20    1.88
   4   5   1   18.91    1.81
   5   4  -1   15.77    1.50
  -4  -5  -1   17.36    1.18
  -1  -4  -5   13.59    1.76
  -4   1  -5   18.22    1.59
  -5   4   1   14.98    1.01
   1   5   4   16.87    1.39
  -1   4   5   16.27    1.53
   1  -4  -5   16.95    1.75
  -1   4  -5   14.99    1.28
  -1   5   4   17.25    1.51
   5  -4   1   15.27    1.43
   1  -4  -5   21.35    1.23
  -4  -1   5   17.80    1.10
   5  -1  -4   21.29    1.37
  -1  -4   5   18.40    1.32
  -4  -1  -5   18.98    1.20
  -5   4   1   16.69    1.51
  -1  -5   4   22.93    1.53
  -4   1  -5   17.49    1.20
  -5  -1   4   18.81    1.24
   5  -1   4   19.66    1.29
   4  -1   5   19.72    1.14
  -4   5   1   14.36    1.70
  -5   1  -4   20.60    1.35
   4  -5   1   17.85    1.51
  -5  -1  -4   21.30    1.34
  -1  -4  -5   19.44    1.29
  -1  -5  -4   21.87    1.46
   4  -1  -5   20.28    1.24
  -4   1   5   18.22    1.15
   1  -4   5   19.14    1.19
  -5   1   4   17.16    1.23
  -4  -5   1   18.94    1.49
  -4  -1  -5   16.16    1.73
   5  -1   4   17.50    1.42
   1   4   5   17.19    1.15
   1   4  -5   18.27    1.15
   5  -4  -1   14.59    1.23
   1   5   4   16.44    1.27
  -5   1  -4   21.03    1.19
   4  -1   5   21.25    1.80
  -5  -1   4   18.73    0.98
   1  -4  -5   15.55    1.12
   4   5  -1   18.35    1.37
   1   5  -4   20.45    1.34
  -1  -4  -5   19.50    1.63
   5   4   1   16.59    1.43
  -5  -4   1   17.94    1.41
   5  -4   1   14.07    0.77
  -5  -1  -4   22.55    1.46
  -4  -5  -1   18.87    1.40
  -4  -1  -5   18.41    1.49
   4  -1   5   18.82    1.42
  -5  -2   4  250.41    8.44
  -4   5   2  258.54    8.42
   2  -5   4  260.16    9.03
   4  -2   5  257.13    9.27
  -5   2  -4  255.54    9.44
  -4   5  -2  256.10    9.08
  -2  -4  -5  252.96    8.68
  -2  -4  -5  249.96    9.22
  -4  -2  -5  263.36    9.24
   5  -4   2  231.01    8.92
  -5   4   2  252.52    8.63
  -5  -2  -4  272.45    9.54
   4  -5   2  256.18    8.94
   2   4  -5  246.94    8.34
  -5   4  -2  250.27    9.19
  -2   4  -5  250.14    9.13
  -4  -5  -2  248.94    8.84
   5   4   2  245.67    9.47
   5  -2  -4  249.79    8.39
  -5   4   2  259.25    8.57
  -5  -2  -4  244.63    9.78
  -4   2  -5  262.00    9.30
  -2   4  -5  265.61    8.95
  -5  -2  -4  246.09    9.13
   2  -5  -4  269.62    9.23
  -2  -5  -4  276.71    8.97
   2   4   5  251.63    9.05
  -4   5   2  277.94    8.88
  -2  -5  -4  262.84    9.78
  -4  -5  -2  256.18    9.40
   2  -4  -5  254.58    9.29
  -2  -4   5  255.45    8.58
  -2  -4  -5  246.83    9.89
  -2   5   4  290.40    9.59
  -4  -2  -5  227.61    9.06
  -2   4   5  259.64    9.34
   4  -2  -5  233.84    8.76
  -4  -2  -5  239.04    9.75
   2   5   4  261.55    8.98
  -2   5  -4  260.24    8.80
  -2  -4  -5  254.98    9.01
   4   5   2  253.75    9.58
  -2  -5   4  253.19    8.26
  -4  -5  -2  254.04    8.69
  -5  -4  -2  259.11    9.36
  -2   5   4  250.86    9.04
  -4  -2   5  253.74    8.51
  -4   5   2  221.57    9.38
  -4   2   5  250.47    8.63
   5  -4   2  260.95    9.00
  -5   2  -4  257.35    8.89
   5  -2  -4  293.84    8.92
  -5   4   2  271.31    9.07
   4  -2  -5  270.38    8.68
  -4   5  -2  200.42    9.34
   4  -5   2  285.92    9.15
   5  -4  -2  273.67    9.08
   2  -5   4  275.90    8.86
  -5  -2  -4  251.08    8.76
   4  -2   5  250.42    8.54
  -2   4   5  237.85    8.77
  -5   2   4  262.72    8.78
   4  -5  -2  294.56    9.16
   2  -4  -5  264.53    8.67
  -2   5  -4  259.65    9.09
  -5  -2   4  263.46    8.71
  -5   4  -2  268.64    9.14
   2  -4   5  244.79    8.61
  -4  -2  -5  246.11    8.59
   5  -2   4  271.58    8.76
  -4   2  -5  233.79    8.70
   2  -5  -4  304.75    8.92
  -2   4  -5  255.65    8.85
   5  -2   4  259.98    9.05
   4  -2   5  261.58    9.58
   2   5   4  249.30    8.68
   4  -2   5  254.73    8.96
  -4  -2  -5  251.60    9.11
  -5   2  -4  277.41    8.35
  -4  -5  -2  260.24    9.02
   5  -4  -2  251.40    8.53
   2   5  -4  269.78    8.74
  -4  -2  -5  257.52    9.65
   5  -2  -4  259.86    8.48
   4   5  -2  285.30    8.96
  -4  -2   5  274.48    8.62
  -5  -4  -2  287.85    8.96
  -2   5  -4  276.20    8.08
  -5  -4   2  283.00    8.96
  -4  -2  -5  262.33    8.56
  -2  -4  -5  273.79    9.55
  -4  -5   2  276.58    8.98
  -5  -2  -4  263.00    9.01
   4  -2  -5  244.47    8.20
  -4  -5  -2  286.00    9.06
   2   4   5  237.79    8.48
   2   4  -5  252.57    8.51
   5   4  -3    2.78    0.95
   4   5  -3    4.12    0.93
  -5  -3  -4    5.55    1.07
  -5   3  -4    3.86    1.19
  -4  -3  -5    4.49    1.16
  -4  -3  -5    4.19    1.14
  -3  -4  -5    2.80    0.96
   5  -4   3    3.06    1.03
  -5   4  -3    3.59    1.14
  -3  -5  -4    5.02    1.17
  -4   3  -5    3.91    0.66
   3  -5   4    3.17    1.13
  -4  -5  -3    2.33    0.99
  -5  -3  -4    6.45    1.32
  -4   5  -3    5.53    1.20
  -5   4   3    2.99    0.74
  -4   3  -5    3.14    1.15
  -3   5  -4    3.61    1.25
  -3   4  -5    2.87    1.10
   4  -5   3    5.23    1.14
  -4  -3  -5    4.77    1.50
  -3  -5   4    3.37    0.61
  -5  -4  -3    1.34    0.95
   3  -4  -5    3.20    1.03
  -3   4  -5    3.68    1.06
  -4  -5  -3    5.14    1.07
  -4   5   3    3.96    1.05
  -5  -4  -3    3.13    1.22
  -3  -4  -5    4.57    1.12
   4  -3  -5    5.40    1.02
  -3  -5  -4    4.92    0.98
  -5  -3  -4    3.63    1.41
  -4  -3  -5    5.42    1.12
   5  -3  -4    6.40    0.74
  -3  -4   5    3.50    0.79
   3   5   4    3.51    1.37
  -5  -3  -4    4.47    1.06
  -3  -4  -5    3.74    1.04
   3  -5  -4    7.23    1.15
   4   5   3    4.87    1.45
  -3  -5  -4    2.29    1.07
  -4  -5  -3    4.40    0.92
  -3   4   5    3.91    1.36
  -3   5   4    2.46    1.17
  -4  -5  -3    3.08    1.29
  -3   5   4    3.75    1.17
  -5   4  -3    3.44    1.06
   5  -3  -4    4.02    1.06
   5  -4   3    3.37    1.04
   3  -4   5    4.08    0.90
   4  -3   5    4.04    0.90
  -4  -3   5    4.21    0.85
  -4  -3  -5    4.02    0.93
  -5  -4   3    2.52    0.96
   4  -3  -5    3.90    0.88
  -4   5   3    2.99    1.19
  -5   3   4    5.83    1.10
  -3   4  -5    2.49    1.01
   4  -5  -3    3.13    1.09
  -4   5  -3    2.56    1.18
   5  -3   4    4.57    1.01
   4  -5   3    4.14    1.08
  -5  -3  -4    4.04    0.93
  -5   3  -4    4.96    1.07
  -3   5  -4    4.37    1.22
  -5   4   3    3.59    1.05
   3  -5  -4    6.20    1.13
  -4   3  -5    4.38    0.99
  -3   4   5    3.40    1.04
   3  -5   4    5.09    1.08
   5  -4  -3    3.02    1.07
  -4   3   5    3.92    0.95
  -5  -4  -3    3.74    1.00
   3  -4  -5    3.43    0.89
  -5  -3   4    5.36    1.02
  -5  -3  -4    5.32    1.62
  -5  -4  -3    4.61    1.04
   3   5   4    4.24    0.91
  -5  -3   4    4.59    1.06
  -3  -4  -5    2.79    1.28
  -5  -4   3    3.77    0.99
  -5  -3  -4    5.59    0.97
  -4  -3  -5    4.63    1.45
  -4  -5   3    2.52    1.03
  -4  -3   5    4.19    0.89
  -4  -3  -5    4.51    0.86
   5  -4   3    3.69    1.11
  -4  -5  -3    3.05    1.05
   5  -3   4    4.25    1.09
  -5   3  -4    7.06    0.52
   3   5  -4    5.23    0.91
   4  -3   5    3.96    1.04
   5  -4   4    6.27    1.29
  -4   4  -5    4.74    1.34
   4  -5   4    4.12    1.12
  -5   4  -4    4.67    1.25
  -5   4   4    5.09    0.75
  -5  -4  -4    5.09    1.35
  -5  -4  -4    3.15    1.14
  -4   5  -4    4.32    1.21
  -4  -4  -5    5.59    1.19
  -4   5   4    3.08    0.37
  -5  -4  -4    5.42    1.22
  -5  -4  -4    6.95    1.18
  -4  -4  -5    5.16    1.64
  -5  -4  -4    2.95    1.40
  -4  -4  -5    4.56    1.13
  -4  -4   5    4.31    0.95
  -4  -5  -4    5.32    1.10
   4  -4  -5    5.29    1.05
  -4  -5  -4    4.33    1.47
  -4  -4  -5    5.34    1.23
  -4  -5  -4    3.32    1.16
  -4   5  -4    3.24    1.40
   4  -4   5    5.38    1.01
  -4   4   5    4.94    1.19
   4  -5   4    3.98    1.09
   4  -5  -4    4.67    1.16
  -5   4  -4    4.56    1.19
   4  -4  -5    6.22    1.07
  -4   4  -5    3.29    1.20
  -5  -4   4    5.09    1.07
   5  -4   4    4.50    1.11
  -5  -4  -4    3.82    1.03
  -4   5   4    3.73    1.28
   5  -4  -4    4.35    1.15
  -5   4   4    3.65    1.12
   4  -4   5    5.50    1.17
  -5  -4  -4    5.43    1.09
  -4   4  -5    6.20    0.51
  -4  -4  -5    6.72    1.59
  -4  -4  -5    5.93    1.02
  -4  -5   4    5.44    1.20
  -4  -4   5    5.09    1.06
  -5  -4   4    5.60    1.17
   5  -4   4    5.54    1.24
   0  -5  -5   48.82    1.76
  -5  -5   0   49.39    2.20
  -5   0  -5   58.66    3.17
  -5   5   0   53.22    2.63
   0   5   5   48.73    2.95
   0   5   5   51.33    2.77
   5   5   0   51.93    2.93
   0  -5  -5   53.01    3.19
  -5   0  -5   53.44    2.87
   0   5  -5   48.86    2.24
  -5   0   5   51.46    2.27
   5   0  -5   52.76    2.46
   5  -5   0   54.38    2.79
   5   0   5   53.03    2.36
   0  -5  -5   51.27    2.58
  -5   0  -5   49.73    2.36
   0  -5   5   50.95    2.58
  -5   0  -5   59.17    2.63
  -5   0  -5   44.99    2.57
   5   0   5   55.25    3.15
  -5   5   1  319.39   10.45
   5  -5   1  274.57   10.45
   1   5   5  312.73   11.06
   5  -1   5  307.15   11.03
  -5  -1  -5  329.01   11.26
  -5  -5  -1  283.75   10.28
  -1  -5  -5  306.91   10.02
  -5  -1   5  314.74   10.40
  -5   5  -1  306.02   10.70
  -1   5   5  311.43   11.23
  -5   5   1  323.92   10.25
   1   5   5  318.94   10.81
   5   5  -1  321.62   10.98
   1  -5  -5  310.58   11.18
  -1   5  -5  309.33   10.33
  -1   5   5  317.65   10.91
   5   5   1  304.96   11.22
  -1  -5  -5  314.92   11.51
  -5  -1   5  297.62   10.20
   5  -1   5  310.51   10.24
  -1  -5   5  323.38   10.54
  -5  -1  -5  296.33   10.31
   5  -5   1  330.44   10.87
  -5   1  -5  302.82   10.36
  -5   1   5  301.74   10.23
   5  -1  -5  336.99   10.42
  -1  -5  -5  331.62   10.56
   1   5   5  293.96   10.27
   1   5  -5  315.25   10.32
   5  -1   5  312.40   11.31
  -5  -1  -5  329.93   10.77
  -5  -5  -1  304.65   10.51
  -5  -1  -5  323.79   10.86
  -5  -5   1  329.48   10.75
  -5   1  -5  339.42   10.40
   5  -2   5   12.94    1.61
  -5   5  -2   16.26    1.60
  -5  -2   5   15.06    1.12
  -5  -5  -2   13.10    1.32
   5  -5   2   14.56    1.46
  -5  -2  -5   16.85    1.75
  -5   5   2   14.47    1.21
  -2  -5  -5   17.16    1.72
  -2  -5  -5   14.96    1.28
  -5  -5  -2   15.00    1.32
  -5   5   2   16.72    1.35
  -2  -5   5   17.24    1.10
  -2   5  -5   16.32    1.40
   2   5   5   17.58    1.58
  -2   5   5   15.62    1.68
  -5  -2  -5   12.80    1.86
  -2  -5  -5   16.41    1.48
   5  -2  -5   14.57    1.21
  -5  -2  -5   14.03    1.59
  -5  -5  -2   18.84    1.79
  -2  -5  -5   17.24    2.11
   5   5   2   18.67    1.97
   2  -5  -5   12.87    1.64
   5  -2  -5   15.47    1.35
  -2   5  -5   17.20    1.48
  -5  -2   5   14.28    1.22
   5  -5   2   17.25    1.63
  -2   5   5   16.01    1.47
  -5  -2  -5   15.50    1.29
   2  -5  -5   18.11    1.40
   2  -5   5   15.77    1.36
   5  -2   5   13.93    1.22
   5  -5  -2   20.25    1.72
  -5   2  -5   13.96    1.35
  -5   2   5   14.97    1.30
  -5   2  -5   12.95    1.06
   5  -2  -5   15.89    0.97
   2   5   5   15.38    1.25
  -5  -5  -2   17.16    1.58
  -5  -5   2   17.21    1.58
   5   5  -2   20.00    1.57
   5  -2   5   13.30    1.44
  -5  -2  -5   14.57    1.55
   2  -5  -5   17.46    1.10
  -5  -5  -2   14.63    1.46
   2   5  -5   13.95    1.22
  -5  -2  -5   17.20    1.27
  -5  -2   5   17.12    1.33
  -5  -2  -5   14.07    1.87
  -5  -2  -5   12.90    1.53
  -5   3  -5  216.03    8.40
  -5  -3  -5  221.89    8.37
  -5   5   3  231.20    7.35
  -5  -5  -3  207.22    7.89
  -3  -5  -5  208.20    8.19
  -3  -5  -5  214.59    7.79
  -5   5  -3  215.90    8.20
   3  -5   5  188.30    7.96
  -3   5  -5  212.50    8.19
   5  -5   3  202.88    7.97
  -3  -5   5  211.26    7.36
  -3  -5  -5  213.09    7.93
   5   5   3  218.78    8.75
  -5  -5  -3  211.79    8.57
   5  -3  -5  210.68    7.54
  -5  -3  -5  215.39    8.19
  -5  -3  -5  205.11    9.03
  -5   5   3  230.92    7.83
   3  -5  -5  222.32    8.09
  -3   5  -5  231.03    8.05
  -5  -5  -3  208.87    7.85
   5  -3   5  219.73    7.65
   5  -3  -5  237.84    7.83
   5  -5   3  229.88    8.02
   3  -5  -5  238.81    7.82
  -3   5  -5  215.60    8.10
  -5  -3  -5  215.46    7.72
   5  -5  -3  256.11    8.19
   3  -5   5  210.04    7.71
  -5  -3   5  224.71    7.63
  -3   5   5  204.24    7.98
  -5   3   5  225.89    7.78
  -5   3  -5  213.23    7.87
  -5  -5   3  239.37    7.98
   5  -3   5  224.70    8.12
  -5   3  -5  227.06    7.15
  -5  -3   5  227.45    7.70
   5   5  -3  253.11    8.06
   5  -5  -3  203.76    7.21
  -5  -3  -5  210.49    8.84
  -5  -3  -5  220.75    8.16
  -5  -5  -3  241.27    7.96
  -5  -3  -5  235.23    7.67
  -4   5  -5   21.57    2.02
  -5  -5  -4   23.40    1.92
  -5  -4  -5   19.95    1.92
   4  -5   5   23.05    2.00
  -5  -4  -5   22.90    1.99
  -4  -5  -5   23.70    1.99
  -5   5  -4   23.90    2.10
   5   5  -4   27.63    1.88
  -4  -5  -5   22.71    1.83
  -5   4  -5   22.48    2.11
   5  -5   4   23.65    1.92
  -4  -5   5   23.92    1.47
   5  -4  -5   21.22    1.51
  -4  -5  -5   24.35    2.64
  -5  -5  -4   22.33    2.38
  -5  -5  -4   23.13    1.83
  -5  -4  -5   21.85    1.87
   4  -5  -5   23.47    1.77
  -4  -5  -5   21.82    1.81
  -5  -4  -5   18.33    2.41
   5  -5  -4   26.68    1.94
   4  -5   5   22.80    1.71
  -4   5  -5   24.78    2.16
   5  -4  -5   26.26    1.80
   5  -5   4   20.68    1.76
  -5  -4  -5   20.93    1.70
   5  -4   5   22.19    1.69
   4  -5  -5   26.65    1.80
  -5   5   4   22.43    2.12
  -4   5   5   21.25    2.00
  -5   5  -4   17.61    2.07
  -5  -4   5   23.64    1.66
  -5  -5   4   26.36    1.85
   5  -4   5   23.99    1.95
  -5  -4   5   27.77    1.82
  -5  -5  -4   26.16    1.84
  -5  -4  -5   27.11    1.78
  -5  -4  -5   20.77    2.41
  -5  -4  -5   23.45    1.96
   5  -5   5  205.94    8.08
  -5  -5  -5  197.77    8.01
  -5  -5  -5  207.50    8.07
  -5   5  -5  216.38    8.34
  -5  -5  -5  218.92    9.10
  -5  -5  -5  205.52    7.92
  -5   5   5  194.16    8.20
   5  -5  -5  240.60    7.87
  -5  -5  -5  183.18    7.70
  -5   5  -5  175.95    8.25
   5  -5   5  219.62    7.72
  -5  -5  -5  217.43    9.07
  -5  -5  -5  236.43    7.79
   5  -5   5  227.93    8.08
  -5  -5   5  236.13    7.80
   0   0  -6   37.49    2.06
   0   0   6   38.14    1.98
   0   0  -6   38.68    2.06
   0   6   0   29.40    1.37
   0   0   6   35.32    2.02
  -6   0   0   35.32    1.41
   6   0   0   33.80    1.92
   0  -6   0   29.48    2.01
  -6   0   0   31.41    1.79
  -6   0   0   39.12    2.17
   6   0   0   32.13    1.73
   0  -6   0   25.81    1.58
  -6   0   0   36.29    1.87
  -1   0  -6   59.39    2.48
   0   1   6   59.95    2.52
  -1   0   6   50.28    2.38
   1  -6   0   47.62    2.13
   0  -6   1   50.72    2.25
   0  -1   6   65.37    2.66
   0  -1  -6   57.87    2.78
   1   0  -6   50.45    2.56
   1   0   6   55.29    2.63
   0  -1   6   54.33    2.59
   0  -1  -6   58.52    2.73
  -1   0   6   49.67    2.61
   0   1  -6   59.91    2.65
   0   6  -1   47.72    1.77
  -1   0  -6   57.39    2.69
   0   6   1   51.29    2.15
   1   0   6   48.17    2.58
   0   6   1   38.04    2.49
  -6   1   0   55.43    1.93
  -6   0  -1   55.02    2.40
  -1  -6   0   51.76    2.65
  -6  -1   0   50.86    2.49
  -6   0   1   51.20    2.39
   1  -6   0   46.03    2.70
   6   0   1   55.40    2.49
  -6   1   0   42.84    2.32
   6  -1   0   53.93    2.54
   6   1   0   52.01    2.54
   0  -6   1   52.73    2.67
  -1  -6   0   46.89    2.24
   1   0   6   67.88    2.80
   6   1   0   55.01    2.40
   0  -1  -6   58.11    2.19
  -6   0  -1   60.52    2.90
  -1   0  -6   56.72    2.26
   1  -6   0   44.42    2.14
   0  -6  -1   43.92    2.34
   6  -1   0   53.98    2.56
  -6  -1   0   57.78    2.54
   0   1   6   50.82    2.36
   6   0   1   45.21    2.24
   6  -1   0   53.40    2.21
  -6   1   0   55.94    2.63
  -6   0  -1   50.55    2.47
   0  -6   1   41.88    2.02
  -6   0   1   59.36    2.71
  -6   0   1   53.81    2.36
   1   6   0   42.52    2.44
   1  -6  -1    1.75    0.50
   1  -6   1    1.11    0.42
  -1   1  -6    1.68    0.74
  -1   1   6    1.93    0.67
   1  -6   1    1.51    0.65
   1   1   6    1.68    0.79
   6  -1   1    1.29    0.56
   1  -1   6    1.90    0.88
   1   6  -1    1.53    0.69
  -6   1  -1    2.79    1.07
  -1  -1  -6    1.79    0.64
  -1  -6   1    1.53    0.53
   6   1   1    0.55    0.61
  -1  -6  -1    0.50    0.68
   6   1  -1    1.66    0.69
  -1  -1   6    1.93    0.74
  -1  -1  -6    1.25    0.87
   1  -1   6    1.95    0.80
   6   1  -1    2.13    0.53
  -6  -1  -1    1.43    0.69
  -1   1  -6    1.38    0.75
  -1  -1  -6    1.67    0.82
   1   6   1    1.49    0.47
  -1   6   1    1.82    0.79
   1   1  -6    1.77    0.81
   1  -1  -6    2.47    0.88
   1   6   1    1.52    0.79
  -1  -1   6    1.35    0.74
   1  -6   1    1.97    1.08
  -6   1   1    1.52    0.72
   6  -1   1    1.76    0.81
  -6  -1   1    2.27    0.72
   6   1   1    1.68    0.75
   1   6   1    1.41    0.73
  -6  -1   1    2.30    0.72
  -6   1  -1    1.98    0.90
  -6  -1  -1    1.37    0.84
  -6   1   1    1.86    0.80
  -6  -1  -1    0.14    1.05
   6  -1   1    1.63    0.80
  -1  -6   1    2.59    1.02
  -1  -1  -6    1.61    0.64
   1  -1  -6    1.50    0.41
   1   1   6    1.72    0.77
  -1   1   6    1.81    0.58
   6  -1  -1    1.49    0.69
  -6   2   0 2009.59   58.98
  -6   0  -2 1963.47   59.34
   0  -6   2 1869.89   58.32
  -2   0   6 1865.76   58.27
   0  -2   6 1873.24   58.54
   0  -2  -6 1943.90   58.00
   2   6   0 1853.56   58.25
   0   2   6 1997.19   58.31
   0  -2  -6 1955.14   58.92
   2  -6   0 1835.04   58.12
  -2   0  -6 1936.90   58.52
   2   0   6 1987.71   58.79
  -6   0  -2 1835.03   58.77
   0   2   6 1891.92   58.84
   0   6   2 1852.06   58.91
   0   6   2 1895.15   58.29
   6   2   0 1946.98   58.49
  -2   0  -6 1934.82   58.82
   2   6   0 1915.36   58.89
   0   2  -6 1931.49   58.56
   0  -2   6 1918.71   58.58
  -2   0   6 1868.42   58.79
  -6   0   2 1882.74   58.37
   6  -2   0 1829.30   58.57
   0  -6  -2 2034.22   58.80
   6   0   2 1895.62   58.43
   0  -2   6 1818.64   57.73
  -6   0  -2 1846.68   58.40
   6   0  -2 1983.18   58.54
   0  -6   2 1993.73   58.76
  -6   2   0 1651.60   58.35
  -6  -2   0 1789.76   58.45
  -2   6   0 1699.16   58.97
  -2   0  -6 1877.89   57.78
   0  -2  -6 2033.15   57.78
   2   6   0 1684.71   58.42
  -2  -6   0 1876.78   58.35
  -6   0  -2 1958.13   59.11
   2   0   6 1953.62   58.84
  -6   0   2 1940.44   58.20
   6  -2   0 1990.43   58.72
  -2   0  -6 1918.16   57.68
  -6   0  -2 1909.31   58.57
  -2   0   6 1925.19   57.71
  -2   0  -6 1907.53   58.34
   2  -6   0 1842.99   58.11
   6   0   2 1827.41   58.32
   6   2   0 1934.14   58.44
   0   2  -6 1905.48   57.70
   0  -2   6 1970.45   58.05
   0   6  -2 1864.38   58.11
  -2   1   6   37.19    1.79
  -6   2   1   38.26    2.30
   1  -2   6   37.23    2.15
   2   1  -6   40.23    2.03
   1   2   6   38.20    1.96
   2   6  -1   32.27    1.69
  -6  -1  -2   36.69    1.81
  -2  -1   6   37.67    1.98
  -1  -2   6   34.21    1.98
  -1   2   6   38.43    1.82
   1   2  -6   39.65    1.98
   1  -6   2   32.69    1.86
   2  -6  -1   30.89    1.57
  -1  -2  -6   33.54    2.24
  -2   1   6   38.50    2.22
  -2   1  -6   40.96    2.17
   2   1   6   38.65    2.16
  -1  -2  -6   37.62    1.77
  -6   1  -2   39.47    2.49
  -6   2  -1   38.17    2.36
   1   6   2   35.92    2.11
   2  -6   1   33.09    1.79
  -2  -1  -6   37.10    1.98
   2  -1   6   44.72    2.37
   2   6   1   32.43    1.90
   1  -6  -2   30.73    1.42
  -1   2  -6   41.50    2.10
  -1   6   2   31.14    1.92
   1   2   6   36.49    2.21
   1   6   2   30.79    1.73
   6   2  -1   36.42    1.88
   1  -2   6   33.57    2.03
  -1   2   6   32.01    2.18
  -2  -1   6   37.07    2.13
   6   1  -2   36.31    1.59
  -1   6   2   31.97    2.12
  -6  -2  -1   38.09    2.00
   2   6   1   31.31    2.23
  -2   6   1   29.84    1.95
  -6  -1  -2   38.93    2.30
  -1  -2   6   32.09    1.99
  -2  -1  -6   39.60    2.26
  -1   2  -6   38.84    2.15
  -2   1  -6   42.74    2.31
   1  -2   6   36.07    1.41
  -1  -6  -2   37.13    2.16
  -1  -2   6   36.23    1.51
  -1  -2  -6   39.88    1.53
  -6  -1  -2   37.44    2.00
   6   1  -2   37.80    2.07
  -6  -1   2   40.98    2.02
  -6   1  -2   34.02    1.90
   6  -2   1   37.46    2.12
   1  -2  -6   41.75    1.49
  -6   1   2   32.11    1.89
  -1  -6   2   38.37    2.23
  -6   2   1   30.19    1.87
  -2   1  -6   36.89    1.60
  -2   6   1   32.34    2.29
   2  -1   6   36.81    1.41
  -6  -2   1   36.72    2.00
   6   1   2   38.98    2.06
   1  -6  -2   31.33    2.20
   6  -1   2   40.91    2.07
   6  -1  -2   38.88    2.06
   1  -6   2   33.09    2.25
  -2  -1  -6   39.70    1.47
   2  -1  -6   42.85    1.50
   6  -1   2   38.09    1.82
   6   2   1   37.42    1.99
   6  -2  -1   40.36    2.11
   6  -2   1   33.92    1.62
   2   6  -1   30.31    1.88
  -6   1   2   35.12    1.86
   6   2  -1   33.26    1.90
  -6  -1  -2   39.53    2.59
  -2  -1   6   37.94    1.46
   6  -2   1   37.30    2.29
   1  -2   6   41.18    1.85
   2  -6   1   30.24    1.41
  -2  -1  -6   35.14    1.94
   6  -2   1   40.38    2.23
   1   6  -2   31.51    1.73
  -1  -2   6   39.81    1.56
  -2   1   6   36.31    1.62
   2   6   1   32.52    1.94
  -2  -6  -1   26.83    1.88
   2   1   6   36.39    2.15
  -6   1  -2   32.90    2.01
   1   6   2   35.96    2.02
  -6  -1   2   39.80    1.90
   1   6  -2   34.23    2.00
  -2  -1  -6   40.51    1.44
  -1  -6  -2   32.46    2.11
   6   1   2   37.76    2.00
  -6  -1  -2   35.63    2.10
   2  -1   6   38.65    2.31
   2   2  -6  258.79    8.81
  -2  -2  -6  270.42    9.40
   2   6   2  254.25    9.11
  -2   2   6  268.04    8.59
  -2   2   6  279.90    9.48
   2   2   6  270.99    9.09
  -2  -2   6  261.05    9.01
  -2  -2  -6  265.49    8.93
  -2   2  -6  264.21    9.16
  -6   2  -2  264.57    9.56
   2  -6   2  261.29    8.91
   2  -6  -2  250.12    8.33
   2  -2   6  275.03    9.33
  -2   6   2  272.13    9.27
  -2  -2   6  256.15    9.06
   6   2  -2  247.33    8.70
   2   2   6  265.74    9.28
   2   6   2  271.48    9.69
  -6  -2  -2  323.10    9.62
  -2   2  -6  270.85    9.29
  -2  -6  -2  258.70    8.69
  -2   6  -2  279.53    9.60
   2  -2   6  250.06    8.36
  -2  -2  -6  262.11    8.46
  -2  -2   6  258.82    8.35
  -6   2  -2  265.89    9.05
  -6  -2   2  268.62    9.02
  -2   6   2  257.98    9.47
  -6   2   2  266.77    8.99
  -2   2  -6  250.86    8.55
  -2   2   6  241.58    8.51
   6  -2  -2  290.51    9.21
  -6  -2  -2  252.02    9.01
   2  -2  -6  267.17    8.44
   6  -2   2  281.81    9.13
   2  -2   6  269.22    8.90
   6   2   2  266.42    9.11
   6  -2   2  261.29    8.60
   2   6  -2  258.84    9.01
   2   6   2  257.23    9.00
  -6  -2  -2  266.16    8.87
   6  -2   2  259.18    9.55
  -6  -2  -2  280.25    9.99
   2   6  -2  284.17    8.95
  -2  -6  -2  273.01    9.24
   6  -2  -2  272.29    9.01
   0  -3  -6    3.94    0.57
   0  -3   6    3.69    0.93
  -3   0   6    5.74    1.05
   0  -6   3    5.22    0.94
  -6   3   0    4.23    1.04
   3   0   6    4.65    1.07
   0   3   6    4.47    0.69
  -3   0  -6    4.66    0.99
   6   3   0    5.38    0.90
   3  -6   0    5.08    0.79
   0   3  -6    5.10    0.89
   0  -3  -6    4.26    1.22
   0  -3   6    4.37    0.89
   0   6   3    6.17    1.18
   0   6   3    7.16    1.30
  -3  -6   0    5.16    0.54
  -3   0   6    5.97    1.20
  -3   0  -6    3.74    1.03
   6   3   0    4.00    0.95
   0   6   3    8.26    1.00
   0   3   6    4.56    0.99
   0  -3  -6    5.68    1.19
   3   6   0    7.06    1.24
  -6   0   3    4.69    0.87
  -6  -3   0    3.59    1.01
   6   0  -3    6.28    1.03
  -3   0   6    3.33    0.55
   0  -6   3    4.91    1.10
   3  -6   0    5.05    1.12
   0  -6  -3    6.05    1.13
  -6   3   0    5.02    1.05
  -3   6   0    4.86    1.33
   6  -3   0    3.85    1.09
  -6   0  -3    5.45    0.92
   6   0   3    5.72    0.95
  -3   0  -6    2.89    0.58
  -6   0  -3    5.12    1.26
  -3   0  -6    4.12    0.89
   0   3  -6    3.86    0.58
   3   0   6    5.65    1.16
  -6   0  -3    5.26    0.77
   0   3   6    3.68    0.56
   3   6   0    7.74    1.07
   3   6   0    4.18    0.95
   6  -3   0    4.03    1.01
  -6   0  -3    5.31    1.01
   0   6  -3    7.22    0.74
  -3  -6   0    6.09    0.89
   6  -3   0    3.89    0.96
   3  -6   1    0.87    0.68
   6   3  -1    0.83    0.68
   3  -6  -1    1.52    0.55
  -1   6  -3    0.69    0.43
   3   1   6    1.36    0.91
  -6  -1  -3    1.17    0.69
   6   3   1    0.95    0.74
   1  -3   6    0.85    0.84
  -1  -3   6    1.00    0.74
  -6   3  -1    0.85    0.90
  -1   3   6    1.07    0.51
   3  -1   6    0.43    0.95
   1   6  -3    0.73    0.64
  -3  -6  -1    1.10    0.72
   3   6  -1    0.67    0.69
  -3   6  -1    1.23    0.75
  -3   1  -6    1.16    0.89
  -3  -1  -6    0.85    0.84
   1  -6  -3    0.88    0.26
   1  -6   3    1.18    0.73
   6  -3   1    0.54    0.41
  -6   1  -3    1.05    1.05
  -1  -3  -6    0.46    0.55
  -6   3   1    1.00    0.86
   6   3  -1    0.95    0.82
   6   3   1    0.43    0.96
   1  -3  -6    1.37    1.04
   1   3   6    1.53    0.93
  -6  -1  -3    2.52    1.09
  -3  -1  -6    1.89    0.99
  -1  -3  -6    1.33    0.94
   3   6   1    1.34    0.99
  -3   1   6    0.94    1.04
  -3  -6   1    0.74    0.24
  -6   3   1    0.50    0.35
  -1  -3  -6    0.25    0.99
  -3  -6  -1    0.69    0.52
   1   6   3    1.30    0.81
  -3   1  -6    0.98    0.91
  -1   6   3    0.58    0.81
  -1   6   3    0.76    0.95
  -3   6   1    1.10    0.78
  -1   3  -6    1.79    0.82
  -1   6  -3    0.87    0.49
   1   6   3    1.65    0.92
  -3  -1   6    1.37    0.89
  -1  -3   6    1.18    0.70
  -1  -6  -3    1.91    1.07
  -6  -3  -1    1.14    0.83
  -1  -3  -6    1.88    0.95
  -1   3   6    2.17    0.92
  -3   1   6    1.09    0.88
  -6  -3   1    1.32    0.79
  -3   1  -6    1.50    0.56
   3  -1   6    0.27    0.47
   3  -1  -6    1.46    0.53
  -6  -1   3    0.95    0.71
   6  -1   3    1.06    0.78
  -1  -3  -6    1.19    0.56
  -3  -1   6    1.31    0.43
  -6   1   3    1.53    0.69
   1  -6   3    0.52    0.99
  -3   1   6    1.45    0.53
   1  -6  -3    0.92    0.97
  -6  -1  -3    0.68    0.77
  -6   1  -3    1.64    0.76
   6  -1  -3    1.70    0.88
   3  -6   1    0.58    0.82
  -3  -1  -6    1.03    0.48
  -6   3   1    1.15    0.82
   1  -3   6    1.07    0.53
   1  -3  -6    1.65    0.56
  -3   6   1    0.96    0.98
   6  -3   1    0.78    0.87
  -1  -6  -3    0.79    0.87
   6  -3   1    0.79    0.88
   1   3   6    1.88    0.48
   1   6  -3    0.67    0.73
   1   6   3    1.43    0.79
  -6   1  -3    1.09    0.84
   1   3  -6    0.98    0.43
  -6  -1   3    0.35    0.60
   6  -3  -1    0.49    0.76
  -3  -1  -6    0.65    0.47
   6  -3  -1    1.48    0.78
   3  -1   6    2.04    1.05
  -3  -1  -6    1.41    0.82
  -3  -1   6    0.87    0.49
   3   6   1    1.10    0.75
   6  -3   1    0.50    0.78
  -6  -1  -3    1.54    1.18
   1  -3   6    1.36    0.69
   3   1   6    1.26    1.01
  -1  -3   6    1.33    0.60
   6  -1   3    0.30    1.03
  -6  -1  -3    1.69    0.94
  -6   1   3    0.87    0.62
  -1  -3  -6    0.62    0.85
  -1  -6   3    0.85    0.91
   3  -2   6  100.67    4.36
  -3   6  -2   89.50    3.99
   3  -6   2   90.00    3.89
  -3   2   6   96.25    3.53
  -6   2  -3   89.70    4.43
  -3  -2  -6  102.65    4.12
   2   3  -6   97.52    3.69
  -2   3   6  103.26    4.53
  -3   2  -6   97.64    4.23
   2   6   3   95.31    4.16
   2  -6   3   90.98    3.92
  -6   3   2  103.70    4.06
   3  -6  -2   91.77    3.40
  -2  -3   6   94.67    4.02
  -2  -3  -6  100.03    3.86
  -6   3  -2   99.31    4.43
   2  -3   6  101.96    4.25
  -2   3   6   99.46    3.45
  -3   2   6   91.42    4.26
  -6  -2  -3   94.67    4.64
  -3  -2   6   88.21    4.03
  -3   2  -6  100.44    4.36
  -6  -2  -3   96.69    4.60
  -2   3  -6  106.15    4.24
  -2  -6  -3   93.43    3.82
  -2   3   6   97.06    4.40
  -2   6   3   93.25    4.31
  -6  -3  -2  102.94    4.36
  -2  -3  -6   92.28    4.76
  -2  -3  -6   93.50    4.19
   6   3  -2   91.68    3.86
  -2  -3   6   90.44    3.90
   2  -3  -6  102.73    4.45
   2   3   6  102.50    4.27
   3   6   2   93.62    4.61
  -3   6   2   89.69    4.02
   2   6   3   93.75    3.84
  -3  -6  -2   88.89    3.63
  -2  -6  -3   78.20    4.33
  -3  -2   6   97.56    3.45
   3  -2  -6  107.45    3.61
   6  -3   2   98.88    4.14
  -6  -3   2  100.95    4.06
   3  -2   6   91.99    3.46
  -2   3   6   93.75    3.66
  -6  -2   3   89.80    3.85
   2  -6   3   98.69    4.00
   2  -3  -6  112.30    3.66
  -6  -3  -2   97.98    4.06
   3  -6   2  100.39    4.14
  -6   2  -3   90.08    3.96
  -6   2   3   90.56    3.87
   6  -2   3   99.73    4.02
   6  -2  -3  103.39    4.10
   3  -6  -2  105.72    4.17
  -6   3   2   92.65    4.01
  -6  -2  -3   94.41    3.94
  -2   3  -6  102.53    3.74
  -2   6  -3   89.84    4.28
  -3  -2  -6  103.45    3.58
  -3   6   2   80.23    4.35
   6  -3  -2  105.11    4.24
  -6   3  -2   91.23    4.06
  -3   6  -2   90.67    4.54
  -2   6   3   90.29    4.25
   2  -6  -3  103.26    4.02
   2  -3   6  102.23    3.55
   6   3  -2  106.29    4.05
  -6  -3  -2   96.46    3.95
   6  -2  -3   96.62    3.81
   3  -2   6   96.03    3.93
  -6  -3   2  106.84    4.07
  -6  -3  -2   96.67    3.93
   6  -2   3   97.22    4.56
  -3  -2  -6   98.88    4.12
  -3  -6  -2   93.82    4.11
   3   6  -2   96.58    3.91
  -2  -6  -3   83.96    4.22
   2   6  -3   87.61    3.89
  -6  -2  -3   91.02    3.85
   6  -3   2  101.26    3.50
   6  -3  -2   93.48    3.94
  -3  -2   6   98.58    3.54
   3   6   2   93.43    3.94
   2   6   3   88.99    3.87
   6   3   2  105.40    4.22
  -2  -3  -6  103.04    4.40
  -3  -2  -6   91.99    4.38
   3   6  -2   94.45    3.93
   6  -3   2  102.17    4.50
   2  -3   6  100.79    3.90
   2   6  -3   92.40    3.77
  -3  -2  -6  104.54    3.53
  -6  -2  -3   94.68    4.20
  -6  -2  -3  100.95    4.89
  -6   3  -3    1.54    1.10
   6  -3   3    0.57    1.03
   3  -3   6    3.06    1.12
  -3  -6  -3    0.69    0.96
  -3  -3  -6    2.21    0.95
   3  -6   3    1.60    0.92
   3   6  -3    3.55    0.89
  -3   3   6    2.18    0.54
  -3   6  -3    3.16    1.10
  -6  -3  -3    1.89    0.81
   3  -3  -6    0.80    0.94
   3   6   3    2.16    1.27
  -3   6   3    4.69    1.10
  -6  -3  -3    1.29    1.22
  -3   3  -6    1.74    1.02
  -3  -3   6    2.61    0.85
  -3   3   6    1.92    1.14
  -3  -3  -6    1.41    0.99
  -3  -6  -3    1.67    0.81
  -3   3   6    3.19    1.16
   3  -3  -6    0.63    0.66
  -6  -3   3    1.63    0.86
  -3   3   6    0.87    0.83
   6  -3  -3    1.96    1.01
   6  -3   3    2.12    1.03
  -3  -3  -6    0.86    0.71
  -3  -3   6    1.19    0.65
  -3   3  -6    0.56    0.82
  -6   3   3    3.06    0.97
  -6   3  -3    1.77    0.97
   3  -6   3    2.74    1.05
  -6  -3  -3    1.58    0.90
   3  -6  -3    2.01    1.03
   3  -3   6    1.33    0.67
  -3  -3  -6    2.16    1.14
   3   6   3    2.85    0.88
   3   6  -3    2.98    0.93
   6  -3  -3    1.64    0.85
  -6  -3  -3    1.71    0.91
   3  -3   6    1.04    0.94
  -3   6  -3    3.27    1.19
  -6  -3   3    3.05    0.97
  -3   6   3    2.77    1.14
   6  -3   3    1.41    1.17
   0  -4   6   19.01    1.61
   0  -4  -6   21.18    0.98
  -4   0   6   20.04    1.59
   4   0   6   22.46    1.92
  -6   4   0   20.92    1.68
   0  -6   4   19.90    1.56
   4  -6   0   13.92    1.22
  -4   6   0   20.98    1.46
   0   6   4   18.08    1.82
   0  -6  -4   15.05    0.87
  -4   0  -6   24.02    1.90
   0   6   4   15.63    1.89
   0   4   6   20.42    1.74
   0   4  -6   22.66    1.48
   6   4   0   18.53    1.77
   0  -4  -6   24.77    2.20
  -4  -6   0   18.50    1.08
   0  -6  -4   14.95    1.71
   4   6   0   15.85    1.69
  -4   0  -6   24.16    1.90
   0   6  -4   15.84    1.00
   0   6   4   17.98    1.52
  -6   4   0   17.50    1.70
   6   0   4   20.62    1.49
  -6  -4   0   20.06    1.65
  -4   0  -6   25.31    1.33
   6  -4   0   17.04    1.66
   0  -6  -4   17.85    1.64
   6   0  -4   23.39    1.62
   0  -4   6   18.12    1.40
  -6   0   4   19.58    1.40
  -6   0  -4   19.30    1.46
  -4   0   6   21.66    1.19
   4  -6   0   14.09    1.59
   0  -6   4   17.75    1.63
  -4   6   0   11.72    1.84
   0   6  -4   19.99    1.17
   4   6   0   18.29    1.52
  -6   0  -4   20.12    1.34
  -4   0  -6   21.86    1.61
   6   4   0   19.49    1.55
   6  -4   0   20.62    1.62
   4   0   6   22.51    1.96
   6  -4   0   20.30    1.62
   0  -4  -6   22.24    1.56
   4   6   0   12.67    1.44
   0   4  -6   22.83    1.27
   0   4   6   19.19    1.20
  -4  -6   0   16.90    1.39
   4  -1   6   28.57    2.12
  -4  -1   6   24.04    1.59
  -6   4  -1   23.42    1.93
   1  -6   4   20.25    1.64
  -4  -1  -6   29.78    2.06
   1   6   4   22.72    1.89
   4  -6   1   21.29    1.54
  -6  -1  -4   25.82    2.19
  -1  -6   4   22.69    1.70
   4  -6  -1   19.97    1.36
   1  -4   6   20.55    1.72
  -1   6   4   18.89    2.04
  -4   1   6   24.08    1.87
  -1  -4  -6   24.35    1.31
  -4   6  -1   19.79    1.64
  -4   6   1   22.83    1.46
  -1  -4   6   24.07    1.77
  -6   4   1   23.67    1.74
  -4   1  -6   29.18    2.06
  -6  -1  -4   24.03    2.27
  -4  -6  -1   19.66    1.31
  -1  -4   6   21.47    1.52
   1   6   4   17.80    1.58
  -1   6  -4   21.59    1.30
  -1   4  -6   26.76    1.71
  -1  -4  -6   25.45    2.34
  -4   6   1   15.67    1.47
   1  -4  -6   23.98    2.17
  -1  -6  -4   19.92    2.08
  -1  -4  -6   23.03    1.86
   6   4  -1   21.40    1.80
   6   4   1   25.84    2.11
   4   6   1   18.60    1.96
  -1   6   4   21.06    1.74
   1   4   6   20.51    1.82
  -1   6   4   20.51    2.08
   1  -6  -4   21.37    1.96
  -4  -6   1   19.70    1.08
   4   6  -1   18.87    1.84
  -6   4   1   20.20    1.20
  -4   1  -6   31.06    2.18
  -1   4   6   19.52    1.84
  -6   1  -4   23.56    1.68
   6  -1  -4   27.82    1.74
  -4  -1   6   26.06    1.34
  -1  -4   6   26.24    1.52
   1  -4  -6   30.10    1.51
   1  -6   4   20.83    1.83
  -6  -1  -4   30.97    1.77
   4  -1  -6   29.45    1.54
  -4   6   1   20.16    2.12
  -4   1   6   22.00    1.36
  -1  -6  -4   27.03    1.82
   4  -6   1   20.85    1.80
  -1  -4  -6   26.03    1.55
   6  -4   1   20.02    1.82
  -6   1   4   23.08    1.55
  -4  -1  -6   26.09    1.43
  -6  -1   4   29.91    1.68
  -6  -4   1   26.14    1.86
  -6   4   1   22.43    1.83
   1  -4   6   22.82    1.40
   1  -6  -4   22.00    1.83
   4  -1   6   26.23    1.39
   6  -1   4   28.68    1.71
  -4   1  -6   25.29    1.51
  -1  -6   4   29.74    1.89
  -1  -4  -6   25.12    1.85
  -6   1  -4   28.06    1.43
   1   4  -6   25.23    1.36
  -6   1   4   26.19    1.35
   6   4   1   19.90    1.69
  -1   6  -4   21.14    1.13
   1   6   4   19.84    1.56
  -6  -1  -4   27.56    1.64
   6  -4   1   22.93    1.80
   6  -4   1   23.04    1.88
  -4  -6  -1   19.89    1.59
   4   6  -1   18.60    1.61
  -6  -1  -4   26.94    2.41
   4  -1   6   28.02    2.30
   6  -4   1   18.51    1.04
  -6  -4   1   21.62    1.75
   1   6  -4   24.90    1.43
  -6  -1   4   26.82    1.34
   6   4  -1   19.76    1.67
  -4  -1  -6   27.20    1.88
   1   6  -4   20.39    1.61
   4   6   1   21.12    1.62
   6  -4  -1   24.30    1.64
   1   4   6   23.53    1.34
  -4  -2  -6 1227.94   36.07
  -4   6  -2 1110.56   35.79
   2   4  -6 1123.83   35.13
  -4   2   6 1124.41   36.13
  -6   4  -2 1075.90   36.02
  -6  -2  -4 1165.14   36.51
  -6   2  -4 1155.40   36.41
  -6   4   2 1189.93   35.50
  -4   6   2 1189.46   35.03
   4  -6   2 1050.74   35.55
   2  -4   6 1144.87   35.95
  -2  -4  -6 1146.42   35.36
   6  -4   2 1025.24   35.75
  -2  -4   6 1128.23   35.74
   4  -2   6 1175.00   36.21
   2  -6   4 1080.27   35.65
  -2   6   4 1127.11   36.02
  -2   4   6 1143.97   36.19
   2   6   4 1140.63   35.64
  -4  -6  -2 1064.62   35.29
  -2  -4  -6 1144.60   35.90
   2  -4  -6 1167.00   36.26
  -4   2  -6 1192.62   36.22
  -2  -4   6 1095.19   35.36
  -2  -6  -4 1074.66   36.49
  -2  -6  -4 1139.57   35.62
   4  -2  -6 1074.61   35.59
  -4  -2  -6 1017.97   36.53
  -2   6  -4 1134.77   35.40
   6   4  -2 1109.25   35.73
   6   4   2 1158.23   36.37
   2   4   6 1118.06   35.91
   4   6   2 1167.89   36.65
  -4   6   2 1139.36   35.65
  -2  -4  -6 1162.10   36.99
   2  -6  -4 1123.33   35.98
  -2   4  -6 1189.63   35.80
  -2   6   4 1210.77   36.37
  -6   4   2 1128.97   35.05
  -6  -4  -2 1161.24   36.10
  -6  -2  -4 1086.91   36.68
   4  -2  -6 1245.40   35.31
  -6  -4  -2 1115.09   35.77
  -2   4  -6 1181.20   35.44
  -6  -2  -4 1143.43   35.55
  -4   6  -2  978.07   36.38
   4  -2   6 1127.97   35.12
  -4   6   2 1009.38   36.35
  -6   4   2 1188.12   35.91
  -2   6   4 1126.95   35.96
  -6   2  -4 1123.64   35.67
   6  -2  -4 1265.64   35.75
   2  -6   4 1181.40   35.58
  -4   2  -6 1190.31   35.45
  -2   6  -4 1153.46   36.00
   6  -4  -2 1195.05   35.87
  -6   4  -2 1187.37   36.01
  -4   2   6 1207.16   35.31
  -4  -2   6 1158.69   35.10
  -6  -2   4 1175.33   35.48
  -2   4   6 1101.05   35.38
  -6   2   4 1164.06   35.55
   2  -4   6 1104.68   35.22
   2  -4  -6 1261.93   35.35
   4  -6   2 1177.20   35.82
   4  -6  -2 1228.71   35.87
   6  -4   2 1154.48   35.78
   2  -6  -4 1280.28   35.66
   6  -2   4 1152.76   35.52
  -4  -2  -6 1167.04   35.26
  -6  -4   2 1143.84   35.74
   2   6  -4 1128.96   35.50
   6  -4  -2 1141.70   35.34
  -6  -2   4 1151.24   35.15
  -4  -2  -6 1226.58   35.18
  -4  -2  -6 1133.17   35.86
  -6  -4  -2 1222.64   35.72
  -6  -4   2 1202.92   35.73
   4   6  -2 1115.37   35.59
  -2   6  -4 1092.24   34.70
  -2  -4  -6 1182.27   36.26
  -4  -2   6 1203.04   35.22
  -6  -2  -4 1171.03   35.66
  -4  -2  -6 1105.30   36.44
   4  -2  -6 1041.21   34.63
   6  -4   2 1129.35   36.17
   4  -2   6 1130.97   35.65
   6  -4   2 1112.07   34.83
   4   6   2 1060.17   35.53
   6   4   2 1117.26   35.88
   2   6  -4 1200.35   35.42
   4  -2   6 1192.82   36.55
  -4  -6  -2 1065.08   35.71
   6  -2   4 1089.94   35.83
   4   6  -2 1174.63   35.70
   6  -2  -4 1123.78   35.21
   2   6   4 1039.81   35.44
  -6   2  -4 1132.28   34.98
  -4  -6  -3    3.76    1.12
   6  -4   3    2.03    1.02
   3   6  -4    5.29    0.96
   4   6  -3    6.01    1.10
  -4  -3  -6    2.17    1.09
  -6  -3  -4    2.20    1.33
  -6   4  -3    4.16    1.24
   4  -6   3    4.15    1.08
  -3  -6  -4    3.75    1.16
   4  -3   6    2.92    1.13
  -3   6  -4    5.19    1.27
   6  -3   4    2.29    1.23
   3  -4   6    2.14    1.21
  -6  -3  -4    3.25    0.98
  -4  -3  -6    3.27    1.12
  -6   3  -4    3.14    1.26
   3  -6   4    4.24    1.15
  -3  -4  -6    3.79    1.03
  -3   4  -6    4.23    1.32
  -6   4   3    3.34    0.87
  -4   6  -3    5.54    1.25
  -6  -4  -3    4.77    1.05
  -4   3  -6    4.17    1.27
  -3  -4  -6    3.31    1.24
  -6  -3  -4    2.73    1.08
  -4   6   3    4.80    1.18
  -3   4  -6    3.26    1.17
  -3  -6   4    3.92    0.47
  -4  -6  -3    5.40    1.39
  -3   4   6    3.60    1.35
  -4  -6  -3    4.78    0.96
  -6  -4  -3    5.07    1.34
  -3  -4  -6    3.05    1.12
  -4  -3  -6    4.24    1.62
  -6  -3  -4    2.43    1.50
   4  -3  -6    2.74    1.02
  -6  -4  -3    3.22    1.04
  -4  -3  -6    1.85    1.03
  -6  -3   4    3.38    0.52
  -3  -4   6    4.17    0.92
  -3  -6  -4    3.38    0.99
  -3   6   4    4.55    1.29
   3  -4  -6    3.47    1.15
   3   6   4    5.58    1.50
  -4  -6  -3    4.85    1.20
   4   6   3    4.44    1.52
  -3   4   6    3.00    1.27
  -4  -3   6    3.93    1.02
  -4   3   6    3.72    1.26
   4  -6   3    5.96    1.25
  -6   4   3    5.60    1.18
   3  -6  -4    4.66    1.12
  -3   4  -6    2.45    0.96
  -4  -3  -6    2.53    0.82
  -6  -3   4    2.70    0.98
   6  -3   4    2.24    0.95
  -4   6  -3    4.15    1.29
  -6   4  -3    5.49    1.20
  -6  -3  -4    3.25    1.00
  -3   4   6    3.56    1.00
   3  -4  -6    4.94    0.92
   3  -6   4    3.35    1.02
  -4   6   3    4.48    1.39
   3  -4   6    3.51    0.89
   4  -6  -3    5.56    1.22
   6  -4   3    4.96    1.16
  -6  -4  -3    4.35    1.06
   6  -3  -4    2.26    1.05
  -6  -4   3    4.85    1.09
  -6   3   4    2.81    0.99
  -6   3  -4    3.36    1.11
   4  -3   6    2.34    0.80
   4  -3  -6    3.14    0.86
  -4  -3   6    1.60    0.78
   6  -4  -3    3.93    1.16
  -6  -3  -4    3.89    1.02
   6  -4   3    4.39    1.27
   3   6   4    4.61    0.98
  -3   6  -4    4.58    1.28
  -3  -4  -6    6.95    1.53
  -6  -4  -3    6.63    1.18
  -6  -4   3    4.63    1.16
   3  -4   6    4.25    1.07
  -6  -3   4    5.04    1.10
  -4  -3   6    3.65    0.90
   4  -3   6    1.89    1.08
  -4  -3  -6    2.44    0.80
   6  -3  -4    3.21    0.83
  -3   6   4    4.23    1.25
   6  -3   4    2.67    1.16
   6  -3   4    2.43    1.39
  -4  -3  -6    2.91    1.40
   3   6  -4    2.81    0.89
  -4  -4  -6   18.55    1.66
   6  -4   4   14.57    1.68
   4  -6   4   10.63    1.48
  -4   4   6   16.14    1.95
  -6  -4  -4   12.82    1.74
  -6   4  -4   15.02    1.79
  -4  -4  -6   14.24    1.63
  -4   4  -6   17.92    1.86
  -4   4   6   13.05    0.77
  -4  -6  -4   12.30    1.55
  -4   6  -4   12.58    1.69
  -6   4   4   13.26    1.18
  -6  -4  -4   11.88    1.50
  -4   4  -6   16.47    1.81
  -4  -4  -6   18.74    2.40
  -4  -6  -4   12.24    1.35
  -6  -4  -4   17.23    2.12
  -4  -6   4   11.45    0.89
  -4  -6  -4   13.80    1.94
  -4   6   4   13.77    1.66
   4   6   4   17.17    2.20
   4  -4  -6   13.94    1.52
  -4  -4  -6   13.99    1.58
  -4  -4   6   13.10    1.32
  -4   4   6   14.37    1.55
  -4  -4   6   13.94    1.22
   4  -6   4   13.66    1.56
   6  -4   4   13.78    1.48
  -6   4   4   14.47    1.54
  -6  -4  -4   13.11    1.48
  -4   4  -6   12.64    1.53
  -4   6   4   11.23    1.69
   4  -4   6   14.94    1.32
  -4   6  -4   13.14    1.86
  -6   4  -4   14.58    1.61
   4  -6  -4   13.92    1.58
   4  -4  -6   18.93    1.44
   6  -4  -4   13.92    1.56
  -4  -4  -6   13.74    1.31
  -6  -4   4   15.03    1.47
  -4  -6  -4   11.03    1.53
   4  -4   6   15.23    1.56
  -6  -4  -4   16.29    2.39
  -4  -4  -6   16.34    2.09
   4   6  -4   16.04    1.47
   6  -4   4   19.25    1.79
   6  -4   4   14.79    1.93
  -6  -4  -4   16.22    1.54
  -6  -4  -4   13.80    1.42
  -6  -4   4   15.14    1.53
  -6   0  -5  135.20    6.04
   0  -5   6  124.09    5.42
   5   0   6  143.77    5.93
  -6  -5   0  133.86    4.92
  -6   5   0  142.69    5.46
   5  -6   0  120.79    5.10
   0   6   5  140.65    5.91
  -5   6   0  140.56    5.29
  -5   0  -6  156.86    6.10
  -5   0   6  130.55    5.36
   0   5   6  138.10    5.90
   0   6  -5  127.15    4.79
   0   5   6  145.15    5.73
   0   6   5  133.89    5.53
  -5  -6   0  120.70    4.83
   0  -5  -6  150.38    6.28
   6   5   0  136.73    5.83
   0  -6  -5  128.84    5.94
  -5   0  -6  140.90    5.85
   0   5  -6  146.64    5.15
   5   6   0  133.90    5.92
  -5   0  -6  143.51    5.11
   6   0   5  131.43    5.13
   0  -6  -5  133.94    5.42
  -6   5   0  130.75    5.66
   0  -5  -6  155.06    5.40
   0  -6   5  135.47    5.44
  -6   0   5  134.59    5.04
   6   0  -5  150.61    5.37
   0  -5   6  146.65    5.37
  -5   0   6  139.05    4.93
  -6   0  -5  133.17    5.17
  -5   6   0  105.56    5.95
  -5   0  -6  138.83    5.50
   0   5  -6  144.93    5.07
  -6   0  -5  140.71    5.18
   0   5   6  133.16    5.01
  -6   0  -5  132.40    5.52
   0  -5  -6  157.27    5.49
   5   0   6  142.34    6.11
   6  -5   0  139.90    5.47
   5   6   0  136.94    5.54
  -5   0  -6  163.71    5.65
  -6   5   1    0.75    0.95
   6   5   1    1.44    1.12
  -5   6  -1    2.18    1.00
   5   6  -1    1.26    0.98
  -1  -6  -5    0.58    0.60
   6  -5   1    1.08    0.39
  -6  -1  -5    0.60    1.31
  -6   1  -5    0.66    0.71
  -5  -1  -6    1.99    1.36
  -1  -5   6    2.10    1.13
  -5   1  -6    1.90    0.97
   1   6   5    1.50    1.18
  -6   5  -1    1.00    1.16
  -5  -1  -6    1.64    1.10
   5  -1   6    1.66    1.23
  -1  -5  -6    1.75    0.60
   5  -6   1    2.48    0.98
  -5  -6  -1    1.85    0.91
  -5   6   1    1.59    0.90
  -6  -5  -1    1.50    0.93
   1  -6   5    0.55    0.99
  -1   6  -5    1.21    0.55
  -5   1  -6    3.83    1.46
  -6  -1  -5    1.63    0.94
   5   6   1    1.11    1.22
   1   5   6    0.84    1.09
   1   6   5    1.77    1.07
  -6  -5   1    1.72    0.57
  -5  -6  -1    0.98    0.72
   6   5  -1    2.20    1.21
  -5  -1   6    0.77    0.89
  -5   6   1    0.89    0.83
   1  -5  -6    1.78    1.35
  -5   1  -6    1.20    1.16
  -1   6   5    1.02    1.19
   5   6  -1    1.31    1.23
  -1   5   6    2.24    1.12
   1  -6  -5    0.40    1.13
  -6  -1  -5    3.16    1.38
   6   5   1    1.64    1.32
  -1   5  -6    1.25    0.85
  -6  -5  -1    1.87    0.85
  -5   1   6    1.30    1.09
  -1  -5  -6    2.76    1.43
  -6   5   1    1.38    0.75
  -1   6   5    0.90    1.09
  -1  -6  -5    0.75    1.28
  -1   6  -5    0.92    0.75
  -1   5   6    2.43    1.40
   6  -1  -5    2.59    1.02
   1  -5   6    1.15    0.82
  -5  -1   6    1.02    0.75
   5  -1   6    1.09    0.79
   5  -1  -6    2.20    0.89
  -6   1   5    0.96    0.89
  -6   1  -5    1.17    0.91
   1  -5  -6    2.71    0.89
  -1  -5  -6    2.37    0.97
  -5   1  -6    2.52    0.85
  -5   1   6    1.85    0.84
  -6  -1   5    2.45    0.92
   6  -5   1    2.77    1.25
  -5   6   1    2.78    1.42
   5  -6   1    1.40    1.21
   6  -1   5    1.20    0.88
  -6  -1  -5    0.40    0.91
  -5  -1  -6    2.36    0.83
  -1  -5   6    1.24    1.00
  -6   5   1    0.90    1.13
  -1  -6   5    1.76    1.10
   1   5   6    0.66    0.75
  -6  -5   1    2.15    1.18
  -1  -6  -5    1.41    1.09
   1   5  -6    1.04    0.75
   1   6   5    1.54    0.83
  -6  -1  -5    1.67    1.15
   1   6  -5    0.53    0.82
  -1  -5  -6    1.18    1.08
   1  -5  -6    0.51    0.78
  -5  -1  -6    1.24    1.07
   5  -1   6    1.83    1.47
   6  -5  -1    0.79    0.89
   6  -5   1    2.17    1.12
  -5  -6   1    1.30    1.09
  -5   2  -6    4.33    0.88
  -6   2  -5    2.54    0.68
   5  -2   6    3.56    1.29
  -5  -2  -6    3.04    1.23
  -5  -6  -2    1.94    0.96
   6  -5   2    1.47    1.00
   5  -6   2    1.32    0.94
  -5  -2  -6    5.03    1.34
  -6  -5  -2    3.70    0.96
  -6   5   2    3.37    0.95
  -2   6  -5    2.04    0.44
  -2  -5   6    2.96    1.06
  -6   2  -5    4.22    1.53
  -6  -2  -5    2.93    1.03
   6  -2   5    2.23    1.33
  -6  -2  -5    2.13    1.35
  -6   5  -2    2.35    1.26
  -2  -6  -5    1.90    0.79
   2  -6   5    3.12    1.09
  -5   6  -2    2.42    1.14
  -2  -5  -6    3.83    0.88
   5   6  -2    1.85    0.99
  -5   6   2    2.66    0.83
  -2  -5  -6    3.38    1.24
  -2   5  -6    4.48    1.08
  -2  -5   6    2.64    0.77
  -2  -5  -6    2.76    1.12
  -5  -6  -2    2.17    0.98
  -5   2  -6    4.17    1.33
  -5   2   6    3.60    1.35
   5   6   2    1.54    1.35
  -2   6   5    1.82    1.38
  -6  -2  -5    3.08    1.43
   6   5  -2    2.88    1.13
   2   6   5    2.12    1.08
  -2  -5  -6    4.50    1.65
  -5  -6  -2    1.87    0.85
   2  -5  -6    4.13    1.34
   2  -6  -5    2.70    1.21
   2   5   6    3.71    1.22
   6  -2  -5    2.24    0.66
  -5   6   2    1.26    0.91
  -2   5   6    3.40    1.23
  -5  -2  -6    2.83    1.50
  -5  -2  -6    3.11    1.24
  -6  -2  -5    3.81    1.21
  -2   6   5    2.21    1.29
   5   6  -2    2.54    1.19
   6   5   2    3.40    1.39
  -2  -6  -5    1.31    1.40
  -2   6  -5    1.71    0.85
  -6  -2   5    5.35    0.87
   5  -2  -6    3.66    0.94
  -2  -6  -5    2.76    1.06
  -6   5   2    3.86    0.85
  -6   5   2    2.17    1.16
   5  -2   6    4.03    0.86
  -6  -5   2    1.90    1.11
  -6   2   5    2.65    0.98
  -6   2  -5    2.08    0.95
   6  -5  -2    3.10    1.22
   5  -6  -2    1.54    1.17
  -6   5  -2    2.53    1.29
   2  -6   5    2.54    1.02
   5  -2  -6    4.13    0.95
   6  -2  -5    3.01    1.02
   6  -5   2    2.27    1.21
   6  -2   5    3.46    0.97
   5  -6   2    2.44    1.22
  -5   2   6    3.69    0.93
  -6  -2   5    2.58    0.89
  -5  -2  -6    3.84    0.90
   2  -6  -5    3.06    1.00
  -5   6   2    1.24    1.30
  -6  -5  -2    1.86    1.05
   2  -5   6    2.98    0.92
   2  -5  -6    4.21    0.96
  -5   6  -2    1.22    1.30
  -5   2  -6    2.92    0.95
  -6  -2  -5    2.62    0.95
  -5  -2   6    4.16    0.83
   2   5   6    2.69    0.77
  -5  -2  -6    3.57    1.43
  -6  -5  -2    2.28    1.16
  -5  -2   6    3.56    0.89
   2   6  -5    2.18    0.86
  -5  -6   2    2.11    1.15
  -6  -2  -5    3.10    1.22
  -2  -5   6    5.19    1.13
  -5  -2  -6    4.29    0.91
   2   5  -6    3.41    0.79
   6  -5  -2    2.34    0.84
  -2  -6  -5    4.09    1.13
   5  -2   6    0.91    1.35
   5  -2   6    2.84    1.12
   6  -2   5    1.54    1.08
  -6  -2   5    3.98    0.67
  -2  -6   5    3.24    1.15
  -5  -6  -2    1.68    1.17
  -2  -5  -6    2.62    1.27
  -5  -2  -6    2.00    1.07
  -2  -5  -6    4.38    1.00
  -6  -5   2    2.90    1.17
   2   6   5    2.02    0.86
   6   5  -3    2.77    1.02
   6  -5   3    3.02    1.11
  -3  -6  -5    0.88    0.85
  -6   5   3    3.38    0.84
  -3  -5  -6    3.24    1.01
  -5  -3  -6    1.84    1.14
  -5   6  -3    2.48    1.20
  -6  -5  -3    2.42    1.03
   5  -6   3    2.40    1.04
   5  -3   6    3.78    1.32
  -6  -3  -5    2.37    1.35
   5   6  -3    1.03    0.97
  -3  -6  -5    0.35    1.15
  -6  -3  -5    1.70    1.11
  -5  -3  -6    2.90    1.23
  -6   5  -3    1.20    1.19
  -5  -6  -3    1.51    0.99
  -6   3  -5    4.32    1.36
  -5   3  -6    3.00    0.72
  -3   5  -6    3.99    1.29
  -6   3  -5    2.81    0.54
   3  -6   5    0.95    1.11
  -5   6   3    2.03    0.65
   5   6   3   -0.10    1.30
  -5   6   3    0.93    0.99
  -6  -5  -3    2.07    1.28
   6  -3  -5    1.97    0.66
  -3   6  -5    0.77    0.97
  -5  -6  -3    1.67    0.88
   3  -5  -6    3.01    1.20
  -3  -5  -6    3.02    1.23
  -6  -5  -3    2.21    1.01
  -6  -3  -5    2.21    1.09
  -6  -3  -5    2.65    1.49
   3  -6  -5    1.09    1.05
  -3  -6  -5    0.92    1.00
  -3   5  -6    2.73    1.08
  -5  -6  -3    1.74    0.97
   5  -3  -6    2.98    0.95
  -3  -5  -6    3.69    1.17
  -3  -5   6    1.75    0.78
  -5  -3  -6    1.79    1.39
  -3  -6   5    1.05    0.55
  -5  -3  -6    2.95    1.14
  -5  -6  -3    1.44    1.30
  -5   3  -6    1.71    1.18
  -3   5   6    2.67    1.44
  -5   6  -3    0.82    1.31
  -6   5  -3    2.26    1.22
   5  -6  -3    2.30    1.20
  -6  -5  -3    1.74    1.07
  -5   3   6    3.28    0.96
   3  -5   6    2.55    0.94
  -6  -5   3    2.27    1.07
   5  -6   3    2.03    1.19
  -5  -3   6    2.30    0.83
  -6  -3  -5    2.35    0.99
   3  -5  -6    3.37    1.04
  -6   3   5    0.78    1.01
  -6  -3   5    3.20    0.94
   6  -3   5    2.20    0.99
   6  -3  -5    2.90    1.11
   5  -3   6    2.38    0.94
   5  -3  -6    3.78    1.03
   6  -5   3    1.86    1.12
  -6   5   3    2.75    1.24
   3  -6   5    2.12    1.07
   3  -6  -5    1.20    1.08
   6  -5  -3    0.78    1.10
  -5   3  -6    3.57    1.04
  -6   3  -5    1.08    1.01
  -5   6   3    1.70    1.40
  -5  -3  -6    2.93    0.91
  -5  -3  -6    2.47    1.38
   5  -3   6    3.33    1.50
  -3   6   5    1.88    1.13
  -5  -6   3    2.16    1.14
  -3   5   6    1.32    0.96
  -6  -5  -3    2.07    1.11
  -6  -5   3    2.38    1.11
   3   6   5    2.47    0.92
  -5  -3  -6    3.35    0.91
  -6  -3  -5    3.30    1.66
   3   6  -5    1.53    0.88
  -6  -3   5    0.98    1.05
  -3   6  -5    3.40    1.21
  -6  -3  -5    1.53    0.93
   5  -3  -6    2.97    0.63
  -5  -3   6    2.12    0.95
  -3  -5  -6    3.07    1.38
   6  -3   5    1.70    1.20
  -3   5  -6    2.31    1.06
   5  -3   6    3.73    1.27
   6  -3  -5    2.84    0.75
  -5  -6  -3    1.01    1.11
  -6   5  -4   74.86    4.04
   4  -6   5   71.00    3.67
  -4  -6  -5   62.25    3.41
  -5  -6  -4   60.04    3.52
  -4  -6  -5   65.00    3.72
  -5   6  -4   69.51    3.79
   5  -6   4   71.93    3.62
   6  -4   5   70.93    3.85
  -6   5   4   72.96    2.93
  -4  -5  -6   81.20    3.67
  -6  -4  -5   66.65    3.90
  -4   5   6   92.10    4.54
  -6  -5  -4   72.21    3.65
  -6   4  -5   69.49    4.02
  -4   5  -6   84.04    4.08
  -4   6  -5   68.77    3.84
  -5  -4  -6   68.47    3.79
  -5   4  -6   81.08    4.05
   6  -5   4   77.80    3.83
   4   6  -5   77.58    3.49
  -5  -4  -6   74.07    3.86
  -4  -5  -6   73.18    3.86
  -4  -6  -5   70.82    3.54
  -6  -4  -5   71.63    4.51
  -4  -5  -6   78.55    3.75
  -4   5  -6   86.64    4.03
  -6  -5  -4   69.46    3.62
  -5  -6  -4   66.32    3.43
   4  -5  -6   78.01    3.64
  -4  -6   5   68.74    2.87
  -5  -6  -4   64.96    4.15
  -5  -4  -6   74.93    3.79
  -5  -4   6   70.45    3.48
   5  -4  -6   76.77    3.39
  -6  -4  -5   64.65    3.69
  -6  -5  -4   75.60    4.33
  -5   4  -6   76.65    3.96
  -4  -5   6   68.91    3.17
  -5  -4  -6   82.38    4.78
  -5   6  -4   62.20    4.01
   5  -4  -6   85.47    3.51
   6  -5  -4   89.01    3.81
   4  -5   6   78.16    3.39
  -5   6   4   72.82    4.00
   5  -4   6   74.23    3.30
  -4   5  -6   77.84    3.87
  -4   6   5   73.15    3.91
   6  -5   4   80.40    3.64
   6  -4  -5   74.81    3.59
  -6  -4   5   72.69    3.35
  -6  -4  -5   70.66    3.45
  -5  -4   6   75.57    3.28
  -6  -5   4   81.23    3.58
  -6   4  -5   67.64    3.63
  -4   5   6   77.50    3.79
   5  -6  -4   86.62    3.74
  -4   6  -5   65.78    3.98
  -6  -5  -4   75.34    3.63
   5  -6   4   74.77    3.62
   4  -6  -5   72.08    3.52
   6  -4   5   66.49    3.43
   4  -5  -6   95.63    3.62
   4  -6   5   67.06    3.44
  -5  -4  -6   71.34    3.41
  -6   4   5   79.04    3.59
   6  -4   5   76.30    3.88
   6  -4  -5   68.29    3.13
  -4  -6  -5   64.23    3.86
  -4  -5  -6   87.04    4.56
   6   5  -4   87.67    3.73
  -5   4  -6   75.03    2.67
  -6  -4  -5   68.42    3.64
   5   6  -4   81.89    3.65
  -5  -4  -6   85.97    3.41
  -6  -4  -5   74.76    3.42
  -5  -6  -4   68.98    3.68
   6  -4   5   83.08    4.38
   4  -5   6   81.15    3.69
  -6  -4  -5   75.10    4.66
   5  -6  -4   57.67    2.58
  -4   5  -6   72.07    2.55
  -5  -4  -6   77.04    4.52
  -6  -5   4   81.91    3.66
   6  -5   4   80.79    3.89
   5  -4   6   79.50    3.83
  -5  -4  -6   83.22    4.08
  -5  -4   6   85.16    3.47
  -6  -5  -4   81.77    3.58
  -6  -4   5   82.99    3.59
  -6  -5  -5    1.59    1.33
  -6   5  -5    1.57    1.70
   5  -6   5    2.93    1.47
   5  -5   6    2.68    1.57
  -6   5   5    0.35    0.77
  -5  -5  -6    1.27    1.40
   5   6  -5    3.26    1.27
  -5   5  -6    1.38    1.59
  -5  -6  -5    2.33    1.31
  -5   6  -5    2.67    1.56
  -6  -5  -5   -0.08    1.50
  -5  -5  -6    1.72    1.48
   6  -5   5    2.48    1.51
  -5  -6   5    0.96    0.89
  -6  -5  -5    0.36    1.91
  -5  -5  -6    0.08    1.37
  -5   5  -6    2.82    1.54
  -5  -6  -5    3.45    1.91
  -6  -5  -5    4.58    1.49
  -5  -5   6    1.34    1.08
  -5  -5  -6    1.68    1.91
   5  -5  -6    2.91    1.18
  -5  -6  -5    1.94    1.30
  -5  -5  -6    2.16    1.43
  -5  -6  -5    1.92    1.37
  -6  -5  -5    0.56    1.25
  -5   5   6    0.24    1.57
  -6  -5   5    1.66    1.23
  -5   6   5    3.41    1.71
  -5  -5  -6    0.64    1.20
  -6  -5  -5    1.27    1.27
   6  -5  -5    0.53    1.32
   6  -5   5    1.82    1.26
  -5   6  -5    1.16    1.61
   5  -5  -6    1.00    1.32
   5  -6   5    2.11    1.34
   5  -6  -5    4.40    1.47
  -5   5  -6   -0.61    1.65
  -5  -5   6    1.01    1.17
   5  -5   6   -0.44    1.24
   6  -5   5    2.20    1.53
   5  -5   6    1.30    1.40
  -6  -5   5    1.76    1.35
  -6  -5  -5    1.96    1.95
  -5  -5  -6    1.94    1.85
  -6  -5  -5    1.53    1.31
   0   6   6  755.99   25.30
  -6   0  -6  818.53   25.55
  -6   6   0  799.25   24.62
  -6   0   6  752.05   24.64
  -6   0  -6  756.65   25.11
   0   6   6  797.17   25.01
   0   6  -6  757.79   24.14
   6   6   0  720.43   25.21
   0  -6  -6  773.48   25.57
   0  -6  -6  791.74   24.68
  -6   0   6  749.68   24.12
  -6   0  -6  776.36   24.37
   0  -6   6  754.88   24.60
   0  -6  -6  774.79   24.70
  -6   0  -6  818.24   24.57
   0   6  -6  760.84   24.31
   0   6   6  698.47   24.22
  -6   0  -6  814.97   24.86
  -6  -1  -6    9.80    1.85
  -1  -6  -6   10.18    0.84
  -6   6  -1    7.24    1.36
  -6   6   1    9.75    1.24
   6   6  -1    7.10    1.29
  -6   1  -6   12.58    1.90
  -6   1  -6    8.39    1.14
  -6  -6  -1    6.74    1.15
  -6  -1   6    9.90    1.26
   6  -6   1    6.54    1.21
  -6  -6  -1    6.43    1.11
   6   6   1    8.94    1.75
   1   6   6    5.96    1.43
  -6   1  -6    8.41    1.64
  -6   6   1    5.44    1.03
  -1  -6  -6    9.43    1.98
   1  -6  -6    7.72    1.64
  -6  -6  -1    7.45    1.05
  -1   6   6    9.70    1.77
   6   6  -1    4.03    1.49
  -1   6   6    7.08    1.48
  -1   6  -6    6.73    1.10
  -6   1   6    9.32    1.58
   6  -1  -6   11.96    1.39
  -6  -1  -6    8.92    1.22
   1  -6   6    8.62    1.21
   1  -6  -6   12.26    1.29
  -1  -6   6    9.38    1.42
   6  -6   1    5.84    1.47
  -6   1   6    9.06    1.15
   6  -1   6   10.71    1.28
  -1  -6  -6    8.57    1.41
  -6   1  -6    8.96    1.26
  -6  -1   6    9.72    1.13
  -6  -1  -6   11.33    1.46
  -6  -1  -6    8.04    1.53
  -1  -6  -6    6.60    1.44
   1   6   6    8.13    1.14
   6  -6   1    5.05    0.46
   1   6  -6    8.71    1.13
   1  -6  -6    6.74    1.16
   6  -1   6   10.57    1.88
  -6  -6   1    8.47    1.51
   6  -6   2   55.68    3.08
  -6   6  -2   64.68    3.40
  -6  -6  -2   60.14    3.03
   6  -2   6   61.75    3.64
  -2  -6  -6   68.28    2.79
  -6  -2  -6   64.21    3.78
  -2   6   6   62.12    3.85
  -6  -2   6   62.30    2.78
  -6   6   2   73.77    2.94
  -6  -2  -6   51.60    3.76
   2  -6  -6   59.47    3.52
  -2  -6  -6   67.44    4.15
  -6  -2  -6   59.72    3.44
   2   6   6   65.45    3.36
  -2   6  -6   66.46    3.09
  -6  -6  -2   59.04    2.99
  -6   6   2   65.73    2.98
   6  -2  -6   53.21    2.72
   6   6   2   65.24    3.94
  -2  -6  -6   60.12    3.30
   6   6  -2   65.88    3.57
  -2   6   6   69.37    3.64
  -6  -2  -6   63.16    3.02
   6  -2   6   58.50    2.87
  -2  -6   6   68.22    3.26
  -6   2  -6   57.02    3.07
  -6   2   6   62.74    3.00
   6  -6   2   71.33    3.45
   6  -6  -2   78.97    3.58
   6  -2  -6   64.16    3.05
   2  -6   6   63.70    3.03
  -6  -2   6   64.24    2.87
  -2  -6  -6   69.27    3.22
   2  -6  -6   73.29    3.13
  -6  -2   6   68.29    3.08
   6  -2   6   58.17    3.89
  -6  -2  -6   61.00    3.43
   2   6   6   55.46    2.84
  -6  -2  -6   56.52    3.95
  -2  -6  -6   64.51    3.66
  -6  -2  -6   59.93    3.28
  -6  -6  -2   63.70    3.17
   6  -2   6   53.98    3.23
  -6  -2  -6   68.02    2.95
   6   6  -2   64.09    3.26
   2  -6  -6   64.72    2.61
   6  -6  -2   57.83    2.81
  -6   2  -6   58.81    2.70
  -6  -6   2   72.31    3.45
   2   6  -6   57.76    2.84
  -6  -6  -2   72.90    3.47
   6  -6   3   31.38    2.30
  -6   3  -6   38.43    2.91
  -3  -6  -6   32.71    2.06
  -6  -3  -6   41.80    2.94
  -6   6  -3   32.66    2.49
  -6   6   3   35.56    1.87
  -6  -6  -3   29.72    2.20
   3  -6   6   30.68    2.40
  -3   6  -6   35.83    2.36
  -6  -3  -6   33.15    2.57
  -3   6   6   36.06    2.75
   6   6   3   30.13    2.87
  -6  -3  -6   32.49    3.09
  -6  -6  -3   31.86    2.14
  -3  -6  -6   30.94    2.30
  -6   6   3   31.05    2.14
   6  -3  -6   33.60    1.92
   3  -6  -6   33.64    2.46
  -6  -6  -3   30.40    2.67
  -3  -6   6   28.96    1.68
   6  -3  -6   41.25    2.33
  -3   6  -6   32.38    2.39
  -6   6  -3   26.56    2.76
   6  -3   6   35.28    2.14
  -6   3   6   37.18    2.25
   6  -6   3   32.69    2.42
   6  -6  -3   32.30    2.42
  -6   6   3   29.75    2.81
  -3   6   6   30.10    2.31
   3  -6   6   32.41    2.15
  -6  -3   6   33.54    2.01
  -6   3  -6   32.58    2.31
   3  -6  -6   37.14    2.22
  -6  -3  -6   32.50    2.10
  -6  -3  -6   36.91    2.50
  -6  -3  -6   35.28    2.10
  -3  -6  -6   33.87    2.91
  -6  -6   3   38.49    2.47
   6  -3   6   31.60    2.49
  -6  -6  -3   34.38    2.36
  -6  -3  -6   36.27    3.21
  -6   3  -6   36.70    1.66
   6  -3  -6   34.22    1.74
   6  -6  -3   29.32    1.71
  -3   6  -6   31.06    1.26
   6   6  -3   32.07    2.35
  -6  -3   6   36.79    2.20
  -6  -3  -6   32.41    2.59
  -4  -6  -6  455.74   16.40
  -6   4  -6  484.26   16.70
  -6  -4  -6  456.60   16.39
  -6  -4  -6  467.29   16.50
  -6   6   4  500.34   15.12
   6  -6   4  471.86   16.18
  -4  -6  -6  487.04   15.96
  -6   6  -4  463.31   16.42
  -6  -6  -4  424.95   16.02
  -4   6  -6  481.61   16.56
   4  -6   6  481.47   16.29
  -4   6  -6  508.38   16.39
  -6  -4  -6  459.69   16.30
   6  -4  -6  462.48   15.44
  -6  -4  -6  488.45   17.67
  -6  -6  -4  450.42   15.98
  -4  -6  -6  451.65   16.04
  -6  -6  -4  471.13   16.98
   4  -6  -6  480.57   16.05
  -4  -6   6  446.17   15.30
   6  -4  -6  552.84   16.07
   6  -6   4  493.41   16.06
  -6   6   4  424.76   16.63
  -6  -4   6  465.89   15.61
   6  -6  -4  516.34   16.16
  -6   6  -4  375.25   16.67
   4  -6   6  476.53   15.81
   4  -6  -6  530.19   15.95
  -4   6   6  460.29   16.22
  -4   6  -6  466.56   16.42
   6  -4   6  478.54   15.76
  -6  -4  -6  462.53   15.82
  -6  -6  -4  522.07   16.16
  -6  -6   4  505.02   16.15
   6   6  -4  495.98   16.17
  -6  -4   6  510.31   15.91
  -4  -6  -6  480.69   17.20
  -6  -4  -6  525.37   15.86
  -6  -4  -6  510.59   16.48
   6  -4   6  504.69   16.40
   6  -6   4  477.11   16.31
  -6   4  -6  478.59   14.88
  -6  -4  -6  475.79   17.49
   6  -4  -6  485.40   15.36
   5  -6   6   -0.16    1.42
   6  -5   6    0.41    1.48
  -6   5  -6    0.75    1.51
  -6  -5  -6    1.06    1.38
  -6  -5  -6   -0.69    1.49
  -5   6  -6    0.99    1.55
   6  -6   5    2.14    1.46
  -6  -6  -5    0.56    1.28
   6   6  -5    1.77    1.26
  -5  -6  -6   -0.07    1.24
  -6   6  -5    0.18    1.50
  -6  -6  -5    0.69    1.34
  -6  -6  -5    0.25    1.63
  -5  -6  -6   -0.13    1.91
  -5   6  -6   -0.82    1.46
  -6  -5  -6    0.08    1.30
  -5  -6  -6    0.66    1.37
  -6  -6  -5    1.40    1.25
  -5  -6  -6    0.29    1.28
  -6  -5  -6    0.95    1.91
  -5  -6   6    0.86    0.85
  -6  -5  -6   -0.47    1.36
  -5   6  -6    0.46    1.47
   6  -6  -5    0.31    1.40
  -6   5   6   -0.86    1.54
   6  -6   5    0.92    1.37
  -6  -6   5   -0.85    1.35
   5  -6  -6    1.02    1.28
   6  -5  -6    0.35    1.31
  -5   6   6    0.59    1.51
  -6   6  -5   -1.12    1.78
  -6   5  -6   -0.10    1.61
  -6  -5  -6   -0.13    1.22
   5  -6   6    0.39    1.19
   6  -5   6    1.13    1.17
  -6   6   5   -1.26    1.67
  -6  -6  -5   -0.85    1.42
  -6  -5   6   -1.81    1.20
  -6  -5   6    1.01    1.36
   6  -5   6    0.08    1.40
  -6  -5  -6    1.31    1.23
   5  -6   6    1.31    1.40
   6  -6   5    0.15    1.42
   6  -5   6    1.66    1.84
  -6  -6  -5    0.67    1.39
  -5  -6  -6    0.64    1.88
  -6  -6   5   -0.59    1.54
  -6  -5  -6   -0.54    1.76
   6  -6   6   17.40    2.18
  -6  -6  -6   16.03    1.94
  -6  -6  -6   16.22    2.06
  -6   6  -6   17.72    2.19
  -6  -6  -6   15.13    1.90
  -6  -6   6   14.56    1.49
  -6  -6  -6   15.85    2.65
   6  -6   6   17.20    1.82
  -6  -6  -6   16.30    1.87
  -6   6  -6   13.72    2.24
   6  -6  -6   18.95    1.94
  -6  -6   6   15.68    1.75
  -6   6   6   14.94    2.21
   6  -6   6   20.22    2.20
  -6  -6  -6   17.85    2.14
  -6  -6  -6   17.94    2.69
   0   0   7  165.16    6.06
   0  -7   0  156.13    5.57
   0   0  -7  161.40    6.21
   0   0   7  168.30    6.28
   0   0  -7  163.00    6.21
   0   7   0  165.71    5.34
  -7   0   0  146.11    5.85
  -7   0   0  159.65    5.89
  -7   0   0  170.42    6.31
   0  -7   0  160.27    5.68
   0   0   7  166.37    6.00
   7   0   0  154.37    5.72
   7   0   1    2.26    0.70
   0   1   7    1.55    0.82
   0  -7  -1    3.19    0.87
   1  -7   0    3.67    0.69
   7  -1   0    2.46    0.64
   0  -7   1    3.21    0.58
  -1   0  -7    1.54    0.77
  -1   0   7    2.39    0.85
   1   0   7    2.24    0.96
  -1  -7   0    3.45    0.76
   0   1  -7    1.82    0.90
  -1   0  -7    2.31    0.97
   0  -7   1    3.55    0.81
   0  -1   7    1.83    0.87
   7   1   0    2.37    0.75
   1  -7   0    2.98    0.68
   0   1  -7    1.98    0.92
   0  -1  -7    2.15    0.91
  -1   0  -7    1.90    0.95
   0   7   1    2.35    1.00
  -1   0   7    1.39    0.87
   0  -1  -7    1.40    0.92
   1   0   7    2.05    0.98
  -7   1   0    2.82    0.36
   0   7  -1    2.85    0.30
   0  -1   7    2.55    0.96
   0   7   1    2.29    0.60
   1   0  -7    1.70    0.94
  -7   0  -1    1.53    0.70
   7   0   1    2.00    0.92
   0  -7   1    1.73    1.11
  -7  -1   0    2.92    0.93
  -7   1   0    2.93    0.89
  -7   0   1    3.26    0.85
   0  -1  -7    2.04    0.59
   1   7   0    2.12    0.91
  -7   0  -1    1.48    0.85
  -7   0   1    3.69    0.84
   1   0   7    2.02    0.93
  -7   1   0    1.71    0.86
  -7  -1   0    1.59    0.89
  -7  -1   0    3.11    1.14
  -7   0  -1    2.08    1.12
  -7   0   1    1.53    0.90
   0   1   7    1.88    0.79
   1   1   7  127.94    4.95
   1  -7  -1  119.18    4.29
   1   1  -7  129.99    4.93
  -1   1  -7  127.79    4.80
  -1  -1  -7  123.98    5.17
   1  -7   1  122.70    4.54
  -1  -1  -7  126.41    4.62
  -1  -1   7  120.27    4.77
  -1   1   7  128.49    4.71
  -7   1  -1  131.08    5.58
   1  -1  -7  129.11    5.16
   1   7   1  129.76    5.03
   1  -1   7  125.45    5.06
   1  -1   7  124.61    5.01
   1   7   1  119.46    4.29
  -7  -1  -1  126.63    4.61
  -7   1  -1  130.86    4.59
  -1   1  -7  126.28    5.06
  -1  -1  -7  128.26    5.16
  -1   7   1  125.04    5.05
  -1  -1   7  122.67    5.02
  -7  -1   1  127.31    4.83
  -7   1   1  118.92    4.74
   7  -1   1  124.43    4.88
   1  -7   1  120.79    5.21
   7   1   1  118.08    4.85
  -1  -7   1  134.75    5.21
   7  -1   1  114.98    4.46
  -7  -1  -1  128.25    5.00
   1   7   1  115.52    4.88
  -1  -1  -7  122.75    4.55
   7   1  -1  125.46    4.72
   7   1   1  115.98    4.67
   1  -1  -7  118.83    4.11
   1   1   7  119.44    4.81
  -7  -1   1  133.44    4.81
  -7  -1  -1  127.88    5.48
  -1  -7  -1  117.36    4.76
  -1   1   7  119.81    4.50
  -7   1   1  122.73    4.79
   1  -7  -1  123.64    4.77
  -1  -7   1  116.63    4.44
  -7   1  -1  120.45    5.06
   1  -7   1  114.30    4.24
   2   0   7   41.44    2.45
  -7   2   0   40.88    2.57
  -2   0  -7   39.92    2.16
   0   2   7   39.87    2.06
   2   7   0   35.58    1.96
  -2   0   7   38.25    1.99
   0  -2   7   35.58    2.18
  -7   0  -2   33.55    2.65
   2  -7   0   35.62    1.81
   0  -2  -7   39.03    2.46
   0  -7   2   36.47    2.00
  -2   0   7   38.90    2.36
  -2   0  -7   36.46    2.33
   0   7   2   33.13    2.34
  -7   0  -2   38.40    2.30
   0   7   2   38.70    1.96
   2   7   0   38.84    2.44
  -7   2   0   35.85    1.45
   0  -2   7   37.78    2.22
   0   2  -7   40.12    2.29
  -7  -2   0   35.51    2.14
   0  -7  -2   40.40    2.45
   7   0   2   37.59    2.23
   7   0  -2   41.26    2.34
  -2   7   0   36.48    2.58
  -7   0   2   38.01    2.06
   0  -2   7   35.10    1.26
  -7   2   0   32.22    2.12
   0  -7   2   38.31    2.42
   0  -2  -7   33.77    1.29
  -7   0  -2   37.53    2.08
  -2   0  -7   34.31    1.25
  -2   0   7   36.71    1.30
   0  -2   7   38.51    1.72
   7  -2   0   35.65    2.22
  -7   0  -2   39.97    2.59
   2   7   0   31.97    2.14
  -7   0  -2   35.51    2.18
   0  -2  -7   36.45    1.86
  -2   0  -7   37.61    1.97
  -7   0   2   38.99    2.19
   2   0   7   36.24    2.33
   0  -7  -2   35.74    2.29
   2  -7   0   34.65    1.78
  -7   0   2   39.09    1.94
  -7  -2   0   35.08    2.16
   7   2   0   38.46    2.10
   7   0   2   33.86    1.94
  -2  -7   0   36.29    1.99
   7  -2   0   33.71    1.77
  -7   2  -1    3.64    1.17
   7  -2   1    4.57    0.70
   1  -7   2    5.25    0.90
  -1  -2  -7    3.98    0.75
   7  -1   2    4.00    0.83
   1   2   7    4.70    0.98
   7   2   1    5.22    0.97
   7   1   2    3.92    0.90
  -1  -7  -2    5.07    1.02
   1   7  -2    5.04    0.86
  -2  -1  -7    4.26    1.05
  -2  -7  -1    4.58    0.90
   7   2  -1    5.24    0.90
  -7   1  -2    4.57    1.33
  -2  -1  -7    3.94    0.92
   2  -1   7    3.88    1.08
  -7   2   1    5.09    1.20
  -2   1   7    5.03    0.84
  -2   1  -7    4.90    0.99
  -1   2   7    5.71    0.84
  -2  -1   7    3.50    0.93
   1  -2   7    4.79    1.11
   2  -7   1    3.79    0.82
   2  -7  -1    4.28    0.67
   1  -7  -2    4.81    0.56
   2   7  -1    4.85    0.92
   2   1   7    5.35    1.11
  -1  -2   7    4.46    0.98
  -2  -1  -7    3.48    1.09
   1   2  -7    3.44    0.90
   2   7  -1    4.79    0.83
   7   2  -1    4.15    0.81
  -2   1   7    5.11    1.17
   2   7   1    5.97    1.28
   1   2   7    5.16    1.10
  -2   7   1    6.79    1.06
  -2   1  -7    3.66    1.07
   1  -2   7    5.26    1.07
   2   7   1    4.74    1.02
   1   7   2    5.51    0.81
  -1  -2   7    4.29    0.97
  -1   7   2    7.23    0.99
   2   1  -7    5.26    0.97
  -7  -1  -2    4.61    1.05
  -2  -1   7    5.59    1.07
  -1   7   2    5.33    1.15
   1   7   2    4.68    1.10
   7   1  -2    4.19    0.57
  -7  -2  -1    4.89    0.88
  -1   2  -7    4.12    1.02
  -1  -2  -7    5.16    1.14
  -7   1   2    4.24    0.95
   7  -2   1    5.86    1.16
   7   1  -2    4.52    1.02
   1  -2  -7    3.92    0.43
   7   1   2    4.35    0.98
   1  -2   7    4.55    0.40
  -7   1  -2    4.04    0.95
   7  -1   2    4.05    1.00
   7  -1  -2    5.52    1.15
  -7   2   1    4.27    0.96
  -7  -2   1    5.06    1.01
  -2  -1  -7    3.56    0.42
  -7  -1  -2    4.02    0.94
  -7  -1   2    4.24    0.99
  -2   1  -7    5.50    0.49
   1  -7  -2    5.51    1.30
   1  -7   2    3.00    1.18
  -1  -2  -7    4.03    0.45
  -7  -2  -1    2.51    0.97
  -2  -1  -7    2.78    0.86
  -1  -7   2    4.99    1.20
   1   7  -2    4.59    1.04
  -7  -1  -2    3.22    1.05
  -7  -1  -2    5.21    1.39
   2   7   1    4.76    1.00
  -7  -1   2    5.58    0.91
  -1  -2  -7    4.24    0.85
  -2   7   1    6.85    1.33
   1   7   2    4.49    1.05
   2  -7   1    4.62    0.52
  -1  -7  -2    5.06    1.17
  -1   2  -7    3.76    0.41
  -7  -2   1    2.28    0.93
   2  -1   7    4.74    1.15
  -2   1   7    4.86    0.72
   7  -2   1    4.72    1.05
   7  -2  -1    3.84    0.94
  -1  -2   7    3.60    0.57
   1  -2   7    4.33    0.80
   2   1   7    3.95    1.04
  -7   1   2    5.31    0.90
   2   7   2  175.14    6.42
  -7   2  -2  162.89    6.89
   2   2  -7  172.15    6.19
  -2  -2  -7  165.87    6.10
  -2   2   7  180.78    6.78
   2  -2   7  179.01    6.65
  -2   2   7  177.43    5.97
  -2  -2  -7  167.51    6.68
   2   2   7  179.48    6.41
   2  -7   2  172.58    6.19
  -2  -2   7  170.28    6.36
  -2   2  -7  168.21    6.44
   7   2  -2  180.12    6.35
   2  -7  -2  165.55    5.59
   2   7   2  153.66    6.81
  -2   7   2  180.43    6.63
  -2  -2   7  175.78    6.51
  -2   2  -7  174.94    6.62
   7   2  -2  166.36    5.93
  -7  -2  -2  173.51    6.49
   2   2   7  176.07    6.65
   2  -2   7  157.10    5.47
   7  -2   2  171.37    6.40
  -7   2  -2  174.25    6.38
   2  -2  -7  178.06    5.58
  -2   7  -2  178.59    6.94
  -7   2   2  172.33    6.31
  -2   2   7  170.18    5.61
   7  -2  -2  191.37    6.60
  -2  -2   7  157.33    5.45
  -7  -2  -2  175.96    6.36
  -2   7   2  173.50    6.92
  -7  -2   2  173.89    6.33
  -2  -2  -7  174.23    5.57
   7  -2   2  162.24    6.52
   7  -2   2  170.73    5.92
   2   7  -2  171.11    6.37
  -7  -2   2  179.19    6.19
   2  -2   7  170.61    6.07
  -2  -7  -2  169.82    6.44
   2  -2  -7  162.23    5.49
   2   7  -2  180.46    6.24
   7  -2  -2  168.40    6.26
   7  -2   2  161.93    6.81
  -7  -2  -2  164.02    6.48
  -2  -2  -7  159.72    6.21
   7   2   2  172.39    6.39
  -7  -2  -2  171.41    7.21
  -2  -2   7  166.62    5.43
   2   7   2  161.65    6.32
  -3   0  -7    3.17    1.00
  -7   3   0    2.60    1.10
   0   3   7    3.11    0.73
   3  -7   0    4.30    0.66
   0  -7   3    3.25    0.89
   3  -7   0    2.56    0.72
   0   7  -3    3.71    0.72
  -3  -7   0    4.21    0.84
   0  -3   7    1.57    0.95
  -7   0  -3    1.81    1.22
   3   0   7    3.48    1.13
   7   3   0    1.95    0.85
  -3   0   7    3.23    0.86
   0   7   3    2.22    1.08
   0   3  -7    2.84    0.91
   0  -3  -7    3.40    1.20
   0  -3   7    3.42    0.90
   3   7   0    3.36    1.09
   0   7   3    2.52    1.18
  -3   0   7    3.05    1.04
   0  -3  -7    2.74    1.18
   0   3   7    1.93    1.00
  -3   0  -7    1.61    1.03
   7   3   0    2.99    1.00
  -7   0  -3    2.59    1.07
   0   7   3    2.86    0.93
  -3   0   7    2.65    0.51
   0  -7  -3    2.75    1.17
  -7   0   3    2.42    0.84
  -7   0  -3    2.52    0.89
   7   0  -3    3.72    1.05
  -7   3   0    2.70    1.04
   0  -7   3    1.36    1.08
  -3   0  -7    2.13    0.51
  -7  -3   0    3.42    1.08
   7   0   3    2.31    0.94
   0  -3   7    2.77    0.53
   0  -3  -7    3.03    0.54
   0  -3   7    2.89    0.71
  -7   0  -3    3.21    1.28
  -7   0  -3    2.41    1.01
   3   7   0    1.97    0.92
   0   3  -7    2.67    0.48
  -3   0  -7    2.42    0.80
   0   3   7    3.12    0.50
   7  -3   0    2.61    1.09
   3   0   7    3.88    1.10
   7  -3   0    3.08    1.01
  -3   7   0    3.69    1.32
   1  -3   7   72.20    3.48
  -3   1   7   73.08    3.55
  -1  -3  -7   70.46    3.69
  -1   3   7   76.06    2.86
   3  -7  -1   63.48    2.76
  -7   3   1   77.03    3.52
  -7   1  -3   72.61    3.92
   1  -7  -3   67.86    2.41
   3   7  -1   68.66    2.77
  -7   3  -1   71.49    3.71
   3   1   7   70.39    3.51
   3  -7   1   63.28    2.98
   1   3  -7   71.61    3.15
  -3  -1  -7   74.51    3.42
   1   7   3   68.11    3.56
   1  -7   3   70.70    3.19
  -3   1  -7   70.19    3.42
   1   3   7   69.63    3.04
  -1  -3   7   73.79    3.37
  -1  -3  -7   70.25    2.85
  -3   1   7   71.74    3.02
  -3  -1   7   69.46    3.22
   3  -1   7   74.83    3.69
  -7  -1  -3   75.46    3.79
  -1  -3  -7   62.92    3.86
  -3   1  -7   76.77    3.72
   1   7   3   70.78    3.14
  -1  -3   7   71.64    3.27
  -3  -7  -1   70.57    2.72
  -1   3  -7   72.75    3.38
   7   3  -1   69.35    3.24
  -1   7   3   71.43    3.28
   1   3   7   72.41    3.56
  -3   7   1   79.05    3.38
  -1   3   7   71.42    3.61
  -3   1   7   70.81    3.67
  -1   7   3   67.97    3.71
   3   7  -1   72.69    3.66
   3   7   1   70.78    3.80
   1  -3  -7   71.12    3.82
   7   1  -3   64.52    2.60
  -3  -1   7   73.84    3.55
  -3  -1  -7   74.84    3.64
  -7   1  -3   69.21    3.21
  -7  -1   3   72.65    3.20
  -7  -3   1   68.42    3.31
  -7  -1  -3   71.54    3.27
   7  -3   1   70.17    3.44
   3  -7   1   80.15    3.48
   7  -1  -3   81.96    3.48
  -7   1   3   72.49    3.19
   1  -7  -3   75.31    3.68
   1  -3   7   70.39    2.61
   1  -7   3   68.82    3.56
  -1  -3  -7   70.46    2.77
  -3  -1  -7   67.71    2.62
  -3  -1   7   66.79    2.52
  -1  -3   7   66.74    2.74
  -3   7   1   60.38    3.72
   1  -3  -7   75.83    2.69
   3  -1  -7   74.45    2.70
   7  -1   3   70.81    3.28
  -7   3   1   67.04    3.31
  -1  -7  -3   78.75    3.52
  -1  -7   3   81.31    3.62
   3  -1   7   64.62    2.57
  -7  -1  -3   68.81    3.01
   7  -3  -1   72.91    3.43
   1   7  -3   66.99    2.95
   1  -3   7   70.91    3.00
  -3  -1   7   73.60    2.64
   3   7   1   66.33    3.21
  -3  -7  -1   73.69    3.27
  -7  -1  -3   71.70    3.49
   7   3  -1   69.84    3.26
   3   1   7   73.81    3.63
   7  -3   1   64.43    2.72
  -3  -1  -7   70.97    3.27
   7   3   1   61.84    3.17
  -7  -1  -3   74.94    4.04
  -1  -7  -3   67.17    3.49
  -7   1   3   69.29    2.95
   7  -3   1   65.04    3.53
  -1  -3   7   69.59    2.72
   7  -3   1   74.81    3.57
   3  -1   7   75.02    3.77
  -7  -1   3   71.36    2.95
   1   7  -3   69.33    3.29
   3   7  -1   67.92    3.28
   1   7   3   67.38    3.25
  -3  -1  -7   72.75    2.59
  -7   2  -3   -0.43    1.19
  -7  -2  -3    0.48    0.78
   3   7  -2    0.47    0.47
   3  -2   7   -0.28    1.14
  -7  -2  -3   -0.29    1.45
  -3  -2  -7   -0.07    1.04
  -3  -7  -2   -0.29    0.97
  -7   3  -2    0.77    1.15
  -3   2  -7   -0.32    1.00
   7   3   2   -0.12    0.87
  -2  -3  -7    0.24    0.74
  -2   3   7    0.66    0.59
  -3  -2  -7    1.31    0.96
   3  -7   2    0.38    0.84
   3   7  -2    0.75    0.81
   2  -3   7    0.79    1.08
   7   3  -2    0.16    0.87
   7  -3   2    0.14    0.58
   3  -7  -2   -0.16    0.54
  -2  -3   7   -0.11    0.88
  -2  -7  -3    0.14    1.00
  -7  -3  -2    0.78    0.74
   2  -7   3    0.15    0.87
  -2   3  -7    1.03    1.06
   2   7  -3   -0.89    0.93
  -7   3   2    0.51    1.03
   2   7   3    0.50    0.96
  -3   2   7   -0.09    0.68
  -2  -3  -7    0.15    1.05
  -2  -3  -7   -0.60    1.32
   2   7   3   -0.17    0.78
   2  -3  -7   -0.29    1.11
  -3  -2   7   -0.06    0.96
   7   3  -2    0.47    0.79
  -2   3   7   -0.31    1.06
  -2   3  -7   -0.06    0.99
   3   7   2    0.52    1.21
   7   2  -3    0.39    0.65
   2   3   7    0.41    0.97
  -2   7   3    0.14    1.09
  -2   3   7    0.53    1.07
  -7  -3  -2    1.11    0.98
  -3   2   7   -0.15    1.03
  -3   7   2   -0.18    0.94
  -2  -3   7    0.31    0.80
   2   3  -7   -0.28    0.72
  -7  -2  -3   -0.08    1.17
  -3   2  -7    0.28    1.09
  -3  -7  -2   -0.51    0.67
   7  -3  -2    0.30    1.04
  -7  -3  -2    0.16    0.95
  -2  -3  -7    0.38    0.57
   2  -7   3    1.37    0.98
  -7  -2   3    0.10    0.86
   7  -2  -3    1.18    1.03
   7  -3   2    0.06    1.08
  -7  -3   2   -0.05    0.90
  -3  -2   7    0.45    0.49
  -7   2   3    0.45    0.93
   3  -7  -2   -0.33    1.08
   3  -7   2   -0.16    1.10
   2  -3  -7   -0.07    0.58
  -7   2  -3    0.38    0.95
   3  -2  -7    0.52    0.60
   7  -2   3    0.31    0.96
  -7  -2  -3    0.26    0.90
  -3  -2  -7    0.48    0.56
  -3   2  -7   -0.03    0.67
   2  -3   7    0.40    0.53
  -7   3  -2   -0.36    1.02
   2  -7  -3    0.96    0.98
   3  -2   7    0.47    0.53
  -2  -3   7    0.44    0.51
  -7   3   2   -0.28    0.97
  -3   2   7    0.03    0.68
   2  -3   7   -0.04    0.81
   7  -3   2    0.75    1.11
  -3   7  -2    0.09    1.24
   2   7  -3    1.10    0.90
   7  -2  -3    0.77    0.78
   3  -2   7    0.28    0.83
  -2  -7  -3   -0.06    1.04
   7  -3  -2   -0.39    0.91
   7  -2   3    0.69    1.24
  -2  -3   7    0.77    0.67
  -2  -7   3    0.12    1.15
   3   7   2    0.74    0.88
  -3  -2  -7    0.72    0.92
  -7  -2   3   -0.83    0.80
  -7  -2  -3   -0.25    1.00
   3  -2   7   -0.15    1.17
   7  -3   2    0.31    1.18
   2   7   3    0.37    0.88
  -7  -2  -3    0.80    1.36
  -3   7   2    1.40    1.23
   3   7  -2   -0.16    0.96
  -2  -3  -7   -0.16    0.62
  -3   3   7   48.68    1.97
  -3   3  -7   38.96    2.60
   3  -7   3   40.86    2.40
   3  -3   7   45.13    2.77
  -3  -3  -7   47.04    2.51
  -3   3   7   46.31    2.96
  -7   3  -3   41.58    2.90
  -3  -3  -7   43.10    2.71
   3  -3  -7   42.51    2.70
  -3   3  -7   43.25    2.74
  -3  -3   7   42.69    2.44
  -7  -3  -3   44.76    2.91
  -3   3   7   43.76    2.93
  -3   7   3   44.35    2.70
   7   3  -3   40.85    2.23
   3   7   3   39.88    3.09
  -3  -7  -3   41.88    2.23
  -7  -3  -3   40.15    2.44
  -3   7  -3   42.06    2.95
   3  -7  -3   46.11    2.57
   3  -3   7   42.04    1.94
  -3   3   7   42.73    2.17
   3  -3  -7   43.10    2.04
  -3   7   3   42.11    2.90
  -7  -3   3   45.99    2.49
  -3  -3  -7   41.63    2.04
  -3  -3   7   39.94    1.88
   7  -3  -3   47.84    2.69
   3  -7   3   46.46    2.55
  -3   3  -7   43.78    2.22
  -7   3   3   44.96    2.52
  -7   3  -3   43.26    2.59
   7  -3   3   42.16    2.54
   3   7  -3   45.09    2.48
   7  -3  -3   42.49    2.38
   3   7   3   42.06    2.40
  -3  -7  -3   38.22    2.51
  -7  -3  -3   42.32    2.33
   3  -3   7   46.62    2.48
  -7  -3  -3   44.68    3.38
   7  -3   3   43.48    3.00
   3   7  -3   46.59    2.43
  -7  -3  -3   47.63    2.49
  -3  -3  -7   45.72    2.94
  -7  -3   3   47.67    2.57
  -4   0   7   91.68    3.92
   0  -4   7   82.86    3.87
   4   0   7   81.50    4.09
   4  -7   0   83.60    3.46
  -7   4   0   87.94    3.99
  -4   0  -7   81.16    3.99
   0   7   4   92.14    4.31
   0  -7   4   85.54    3.76
  -4   7   0   90.15    3.60
   0   7   4   94.35    3.90
   0   4  -7   81.24    3.70
   0   7   4   95.97    4.58
  -4   0  -7   84.88    4.16
   0   4   7   91.61    4.19
  -4  -7   0   81.79    3.05
   7   4   0   82.71    4.02
   4   7   0   86.45    4.30
  -4   0   7   89.42    4.27
   0  -4  -7   83.10    4.48
   0  -7   4   96.90    4.15
   7   0  -4   92.15    3.90
  -7   0   4   86.47    3.59
  -7   0  -4   80.67    3.66
   0  -4  -7   87.63    3.25
   0  -7  -4   97.93    4.16
   0  -4   7   79.49    3.21
  -4   7   0   59.90    4.18
  -4   0  -7   76.73    3.25
  -4   0   7   80.39    3.15
  -7   4   0   76.84    3.91
   7   0   4   84.82    3.72
  -7  -4   0   74.70    3.82
   7  -4   0   83.76    3.93
  -7   0  -4   93.93    3.50
   7   4   0   83.99    3.83
   0   4  -7   80.97    3.17
   0   4   7   79.19    3.15
  -4   0  -7   82.41    3.76
   7  -4   0   82.46    3.85
   4   7   0   91.87    4.03
   4   7   0   75.26    3.68
   0   7  -4   96.34    3.36
   4   0   7   90.46    4.33
  -4  -7   0   87.55    3.67
  -1   7  -4    2.07    0.60
   7   4   1    0.80    0.99
   4   1   7    1.16    1.15
  -1  -7   4    1.62    0.96
   1  -4   7    3.05    1.25
  -7   4   1    1.40    1.06
  -7  -1  -4    1.82    0.84
   4  -7   1    0.98    0.85
  -7   1  -4    1.85    1.38
   4  -1   7    0.91    1.18
  -4  -7  -1    2.99    0.96
  -1  -4   7    1.18    1.04
   7  -4   1    0.44    0.49
  -4   1  -7    0.41    1.16
   4   7  -1    1.87    1.01
  -1  -4  -7    1.11    0.64
   7   4  -1    0.52    0.92
   1   7  -4    2.17    0.79
  -4  -1  -7    1.15    1.09
  -7   4  -1    1.94    1.18
   1  -7   4    0.80    0.95
  -4   7  -1    0.75    0.92
  -7   1  -4    1.49    0.64
   4  -7  -1    1.57    0.76
  -1  -4  -7    0.81    1.31
  -4  -1   7    1.15    1.20
  -1  -4  -7    1.81    1.02
  -4   1   7    1.81    1.25
   4   7   1    1.58    1.28
  -4   7   1    2.84    0.98
  -1  -4   7    0.86    0.80
   7   4   1    0.66    1.09
  -1   7   4    0.52    1.22
   1  -4  -7    1.49    1.23
  -4   1   7    3.76    1.21
  -1  -7  -4    2.22    1.19
   4   7  -1    1.85    1.21
  -1   7  -4    1.85    0.63
   1   4   7    2.36    1.18
   1   7   4    0.91    0.94
  -4   1  -7   -0.15    1.06
  -4  -1  -7    0.83    1.20
   1   7   4    1.52    1.45
  -4  -7   1    1.28    0.39
  -7   4   1    0.39    0.51
  -1   4   7    1.66    1.14
  -4  -7  -1    1.17    0.62
  -7  -1  -4    1.10    1.20
   7   4  -1    0.13    0.97
  -1   4  -7    0.59    0.90
  -1   7   4    1.13    1.01
   1   7   4    2.01    1.22
  -1   7   4    1.41    1.27
  -4   7   1   -0.10    1.26
  -7  -1  -4    2.09    1.04
   1  -7  -4    1.13    1.28
  -1  -4  -7    0.88    0.80
  -7  -4   1    0.30    1.01
  -7   4   1    1.70    1.13
  -7   1   4    1.78    0.90
   7  -1   4    0.96    0.98
   7  -1  -4    2.17    1.06
  -4  -1  -7    1.16    0.62
   1  -7   4    1.27    1.21
  -4  -1   7    1.30    0.60
  -1  -4   7    0.48    0.81
  -7   1  -4    1.85    0.97
   4  -1   7    1.08    0.67
  -4   1  -7    0.44    0.68
   1  -4   7    1.36    0.71
   1  -4  -7    0.26    0.72
   4  -7   1    1.14    1.15
  -7  -1   4    0.92    0.91
  -4   1   7    0.03    0.69
   4  -1  -7    0.35    0.74
   7  -4   1    0.50    1.16
   7  -4  -1    0.85    1.07
   4  -1   7    1.51    1.39
  -7  -4   1    1.39    1.11
  -4  -1  -7   -0.06    1.06
  -7  -1   4    1.18    0.70
  -1  -4  -7    1.55    1.00
   7  -4   1    0.67    1.05
   1   7   4    1.85    0.96
   1   7  -4    1.37    0.98
   1   4  -7    0.96    0.63
   4   7   1    0.49    0.92
  -4  -1  -7    0.37    0.62
  -1  -7   4    2.36    1.23
  -4  -1   7    0.65    0.68
   1   4   7    0.85    0.60
   7  -4  -1    0.84    0.93
   7  -4   1    2.71    1.19
  -7   1   4    0.92    0.72
   1  -4   7    0.41    0.83
  -1  -7  -4    3.19    1.20
  -7  -1  -4    2.07    1.46
   2   4  -7   24.61    1.57
  -4   2  -7   23.80    2.10
   2  -4   7   26.16    2.09
   2  -7   4   26.36    1.93
  -7  -2  -4   23.63    2.39
  -2   4   7   22.83    2.27
  -7   4   2   26.68    1.87
   4  -2   7   27.83    2.29
  -7   2  -4   23.70    2.32
   4  -7   2   22.31    1.79
  -4  -2  -7   24.38    1.99
  -2  -4  -7   26.45    1.63
  -4   2   7   24.56    2.16
  -7   4  -2   22.69    2.13
  -2  -4   7   23.14    1.95
  -4   7  -2   25.89    1.96
  -4   2   7   24.80    1.50
  -2   4   7   24.22    1.09
  -2   7  -4   23.43    1.58
   2   7   4   23.80    1.79
  -4   2  -7   25.06    2.22
  -2  -4   7   21.94    1.68
  -7  -4  -2   27.23    2.08
  -2   4  -7   22.85    1.98
  -4   7   2   23.15    1.84
  -2  -4  -7   22.75    2.44
  -4  -7  -2   21.79    1.50
  -7  -2  -4   25.80    2.43
  -2  -4  -7   27.60    2.10
  -4  -2   7   24.08    2.00
  -2   7   4   24.34    2.08
  -2   7   4   23.28    2.25
   2  -4  -7   24.53    2.24
   7   4  -2   23.44    1.85
   4   7   2   24.27    2.38
  -2  -7  -4   23.32    2.31
   2   4   7   27.74    2.16
  -2   4   7   24.63    2.20
  -2  -4  -7   27.53    1.57
   4  -2  -7   26.10    1.52
  -2  -7  -4   25.96    2.00
  -4  -2  -7   25.88    1.52
  -7  -2  -4   23.17    1.80
  -4  -2   7   26.61    1.38
  -7  -2   4   26.42    1.80
   7  -2  -4   27.00    1.98
   2  -7   4   25.40    1.88
   7  -4   2   25.06    2.05
   7  -4  -2   29.16    2.17
   4  -2   7   23.66    1.36
   2  -4   7   26.31    1.48
   2  -4  -7   28.61    1.56
  -4   7  -2   23.89    2.45
  -2  -4   7   26.46    1.61
  -7   2  -4   24.36    1.93
  -7   2   4   25.60    1.86
  -7   4  -2   24.50    2.09
   7  -2   4   23.51    1.82
  -7  -4  -2   23.63    1.99
  -7   4   2   21.93    1.95
   2  -7  -4   28.53    1.92
  -7  -4   2   22.35    1.92
  -4   7   2   23.46    2.38
   4  -7   2   24.45    2.03
   4  -7  -2   25.10    2.02
  -2  -7   4   27.97    2.13
   2   7  -4   23.27    1.82
  -4  -2  -7   25.98    2.01
   2   7  -4   23.79    1.67
   4   7  -2   22.22    1.84
   7  -2   4   26.44    2.13
  -7  -2   4   25.45    1.53
   2   7   4   23.94    1.79
   4   7  -2   25.11    1.89
   2  -4   7   25.86    1.76
  -4  -2  -7   26.88    1.45
   7   4  -2   29.75    2.05
  -7  -2  -4   21.27    1.68
   7  -4  -2   23.32    1.85
   7  -4   2   25.04    2.12
  -7  -4  -2   24.20    1.75
   7  -4   2   26.98    2.25
  -7  -2  -4   24.94    2.59
   7   4   2   22.04    1.94
  -2  -7  -4   21.58    2.09
   7  -4   2   23.28    1.28
  -4  -7  -2   23.97    1.88
   4  -2   7   28.95    2.41
  -2  -4  -7   26.45    2.22
   7  -2   4   22.11    2.28
   4   7   2   20.52    1.77
  -7  -4   2   22.10    1.90
  -7  -4  -2   26.78    1.97
   4  -2   7   24.26    1.88
  -4  -2   7   26.24    1.50
  -3  -7  -4    3.80    1.21
  -4   3   7    3.90    0.75
   4   7  -3    3.24    1.04
   3   7  -4    3.06    0.96
  -4  -3  -7    2.46    1.13
   4  -3   7    3.92    1.31
  -7   3  -4    2.82    1.42
   4  -7   3    2.78    1.10
  -7  -3  -4    2.55    1.45
  -3  -4  -7    3.21    1.00
  -7   4  -3    2.02    1.35
  -7  -4  -3    1.34    0.90
  -4  -7  -3    1.48    1.02
  -7  -3  -4    3.08    1.00
  -3   4   7    2.73    0.49
  -7   4   3    1.96    0.92
  -4   7  -3    3.12    1.14
   3  -4   7    2.18    1.22
   3  -7   4    1.97    1.03
  -7  -4  -3    2.40    1.28
  -3   7   4    1.79    1.26
   4  -3  -7    1.81    1.04
  -4   3   7    1.83    1.45
   3   7   4    3.10    1.54
  -7  -3  -4    2.20    1.28
  -3   4   7    3.16    1.39
  -4  -3   7    1.81    1.04
  -3   4   7    2.01    1.32
  -3  -7  -4    2.88    0.94
   3  -4  -7    3.15    1.22
   7   4  -3    2.07    0.98
   4   7   3    2.31    1.50
  -4   3  -7    3.09    1.25
  -3   4  -7    2.52    1.18
  -3  -4   7    2.17    0.91
  -4  -3  -7    2.54    1.13
  -3  -4  -7    1.90    1.03
  -4  -7  -3    2.18    0.82
  -4   7   3    3.68    1.18
  -4   3   7    2.79    1.33
  -7  -4  -3    3.25    1.08
  -3  -4  -7    1.05    0.77
   3  -4   7    2.67    0.79
   3  -4  -7    2.85    0.86
   4  -7  -3    3.92    1.26
  -7  -3   4    1.53    0.99
   4  -3  -7    2.64    0.85
  -7  -3  -4    3.33    1.04
  -7   4   3    2.58    1.20
  -4  -3   7    3.18    0.75
  -3  -4   7    1.76    0.72
  -4  -3  -7    2.94    0.84
  -7  -4   3    3.30    1.09
  -4   3  -7    1.36    0.98
   7  -3   4    1.00    1.08
   7  -3  -4    2.87    1.20
  -4   3   7    3.59    1.02
   4  -3   7    2.50    0.77
   4  -7   3    2.58    1.17
  -7   3   4    1.92    1.09
  -7   3  -4    3.58    1.21
   7  -4   3    2.13    1.12
  -7   4  -3    4.03    1.23
   7  -4  -3    2.58    1.26
   3  -7   4    2.67    1.09
   3  -7  -4    3.81    1.19
   7  -4  -3    2.31    1.03
   7  -4   3    2.29    1.38
  -3  -4  -7    1.62    1.31
  -7  -3  -4    3.37    1.07
  -4  -3  -7    1.89    0.77
  -4  -3  -7    3.22    1.43
   4   7  -3    3.41    1.04
   7  -3  -4    2.44    0.90
   4   7   3    3.63    1.07
   3   7   4    2.12    0.95
  -4  -3   7    2.69    0.85
  -7  -4   3    3.66    1.19
  -7  -4  -3    3.05    1.12
   3   7  -4    2.54    1.02
  -4   7   3    3.14    1.38
  -7  -3   4    2.23    1.13
  -4   7  -3    2.54    1.30
  -3   7   4    3.41    1.36
  -4  -3  -7    1.20    1.15
  -3   4   7    3.40    0.95
   7  -3   4    3.38    1.27
   4  -3   7    2.46    1.06
   3  -4   7    3.64    1.09
  -3   4  -7    2.39    0.94
   7  -3   4    3.63    1.57
  -3   7  -4    4.90    1.40
  -4  -4  -7   47.74    2.80
   4  -4   7   50.96    3.09
  -4   4   7   52.75    3.32
  -7   4   4   45.78    2.39
   4  -7   4   45.77    2.75
  -4  -4  -7   44.14    3.05
  -7   4  -4   53.64    3.41
  -7  -4  -4   40.85    3.22
  -4   7  -4   50.93    3.05
   7  -4   4   36.71    2.86
  -4   4   7   52.25    1.92
  -7  -4  -4   46.95    3.40
  -4   4  -7   48.09    3.11
  -4   7   4   50.95    3.07
  -4  -4   7   45.01    2.60
  -4  -7  -4   47.54    2.60
  -7  -4  -4   43.06    2.85
  -4   4   7   49.46    3.30
   4   7   4   56.88    3.68
  -4  -7  -4   53.28    3.59
  -4  -4  -7   48.05    3.00
   4  -4  -7   41.69    2.76
  -7   4   4   51.35    2.86
  -7  -4  -4   43.51    2.68
  -7   4  -4   50.84    2.99
   7  -4  -4   51.04    2.95
   4  -4   7   46.70    2.35
   4  -4  -7   46.85    2.45
   7  -4   4   47.82    2.82
  -4   4   7   48.11    2.71
  -4   4  -7   42.20    2.74
  -4   7   4   46.53    3.18
  -4  -4   7   42.92    2.25
  -4   7  -4   47.15    3.30
   4  -7   4   55.38    2.93
   4  -7  -4   55.43    2.93
  -7  -4   4   48.15    2.68
  -4  -4  -7   44.64    2.44
  -7  -4   4   56.46    2.93
   7  -4   4   51.99    3.15
  -7  -4  -4   53.85    2.83
   4   7   4   46.89    2.60
  -4  -4  -7   45.95    3.38
  -4  -7  -4   52.44    3.05
  -7  -4  -4   50.45    2.77
   7  -4  -4   47.35    2.56
   7  -4   4   47.47    3.34
   4   7  -4   53.80    2.79
   4  -4   7   49.04    2.84
  -7   0  -5   -0.08    1.02
   0   7  -5    1.54    0.81
   5   7   0    1.95    1.13
   5  -7   0    0.09    1.07
   0  -5   7    1.40    1.23
  -5   7   0    1.31    1.08
  -7   5   0    1.47    1.25
   5   0   7    0.08    1.48
  -5   0  -7    2.81    1.49
  -7  -5   0    0.91    0.80
   7   5   0    0.52    1.11
   0  -7   5    3.19    1.22
   0   7   5    0.70    1.31
  -5  -7   0    1.73    0.69
   0  -7  -5    0.91    1.52
   5   7   0    2.43    1.48
   7   5   0    2.01    1.28
   0   5  -7    1.67    1.00
   0   5   7    3.06    1.32
   0   7   5    3.24    1.22
   0  -5  -7    0.70    1.72
  -5   0   7    1.16    1.14
   0   7   5    0.59    1.70
  -5   0  -7    1.49    1.36
  -7   5   0    0.20    1.44
  -7  -5   0   -0.20    1.49
  -7   0  -5    1.58    1.00
   7   0  -5    2.38    1.14
   0  -7   5    1.34    1.36
  -5   0  -7    0.94    0.88
  -5   0   7    1.23    0.85
   7   0   5    1.47    1.07
   0  -7  -5    2.16    1.36
  -7   0   5    1.10    0.98
   0   5   7    1.25    0.84
   5   0   7    0.54    1.50
   0   7  -5    2.19    1.09
   0   5  -7    0.90    0.82
   0  -5  -7    0.20    1.10
   7  -5   0    1.81    1.28
   7  -5   0   -1.05    1.27
  -5   0  -7    1.48    1.09
  -1   7   5  101.04    5.02
  -7   5   1  104.12    4.36
  -7  -5   1   92.73    3.63
   5  -1   7  106.04    4.93
  -5   1  -7  113.00    4.97
  -1  -7  -5  104.51    3.66
  -7  -5  -1   94.12    4.02
  -7  -1  -5  110.02    5.30
  -7   5  -1  103.18    4.64
  -5  -1  -7   97.93    4.75
   1  -5   7  100.94    4.56
   1  -7   5   97.92    4.39
  -1  -5  -7  102.49    3.62
  -5   1   7  101.74    4.63
  -1  -5   7   98.72    4.48
  -5   7  -1  110.13    4.47
  -5   7   1  109.80    4.03
  -1  -7   5  104.68    4.47
   1   7   5  102.19    4.88
   5  -7   1   97.47    4.16
  -5  -7   1   88.32    3.52
   1   7   5  102.64    5.31
   5   7   1   96.46    5.04
  -1   7   5  103.20    5.09
   5   7  -1  100.53    4.90
  -1   7  -5  100.22    3.80
  -1   7   5  107.44    4.65
   7   5   1   97.13    4.89
   1   7   5  101.34    4.47
  -5   1  -7  105.66    4.98
  -1  -5  -7   99.27    5.31
   1  -5  -7   99.54    5.08
  -7   5   1  102.33    3.76
   1   5   7  101.33    4.71
   7   5  -1   98.87    4.63
  -5   7   1  102.47    4.18
  -1  -7  -5   94.30    5.07
  -1   5  -7  102.47    4.26
   1  -7  -5  106.04    4.94
  -7  -1  -5   92.76    5.05
  -5  -7  -1   87.29    3.80
  -1   5   7  101.65    4.75
   1  -5   7   94.73    3.89
  -5   1  -7   90.78    3.99
  -7  -1  -5  100.03    4.27
  -1  -5  -7  104.21    4.15
  -7  -1   5  104.20    4.15
   1  -5  -7  112.27    4.02
  -5  -1  -7   97.73    3.93
  -5  -1   7   95.96    3.75
   7  -5   1  112.83    4.72
  -5   7   1   87.44    5.06
  -1  -5   7  104.49    4.18
  -7   1   5  101.59    4.17
  -1  -7  -5  111.99    4.59
  -1  -7   5  112.08    4.59
  -7   5   1  111.05    4.70
   5  -1  -7  105.41    4.08
   5  -7   1  110.34    4.71
   7  -1  -5  108.04    4.44
  -7   1  -5   94.94    4.30
  -5   1   7   97.14    3.89
   5  -1   7   98.85    3.87
  -7  -5   1   99.47    4.53
   7  -1   5  101.65    4.22
  -7   1   5   97.00    3.67
   7  -5   1   88.81    3.45
   1   7   5   96.14    4.18
  -7  -5   1  109.48    4.55
   1   7  -5   94.50    4.23
   1   5   7   97.86    3.83
  -5  -1  -7  104.91    3.85
  -5  -1   7  110.83    3.95
  -7   1  -5  102.96    3.90
   1   5  -7   99.23    3.84
  -5  -7  -1  101.04    4.31
   5   7  -1  103.52    4.54
  -5  -1  -7   95.48    4.49
  -7  -1  -5   99.95    4.17
   7  -5   1  103.50    4.64
  -1   7  -5  101.75    3.64
   7  -5  -1   97.44    4.23
   7  -5  -1   96.30    4.44
   5  -1   7  101.16    5.09
  -1  -5  -7  108.77    4.63
   7  -5   1   94.13    4.55
   1   7  -5  109.65    4.01
   7   5   1   98.12    4.54
  -5   2   7   13.40    1.79
  -2  -5  -7   13.46    1.89
  -5  -2  -7   10.71    1.71
   5  -2   7   13.19    1.83
  -7   2  -5   15.41    2.03
   2   5  -7   10.68    1.11
  -2  -7  -5   12.94    1.18
  -7  -2  -5   15.04    2.01
   7   5   2    8.70    1.56
   2  -5   7   15.58    1.79
  -5  -2  -7   12.17    1.72
  -2  -5   7   11.60    1.64
  -7   5   2   13.52    1.42
   2  -7   5   12.03    1.58
  -2  -5  -7   12.40    1.18
  -7  -2   5   11.45    1.21
  -7   5  -2   12.02    1.77
  -7  -5  -2   12.37    1.35
  -5   7  -2   13.01    1.66
   5  -7   2   12.58    1.46
  -5   7   2   14.80    1.16
  -5   2  -7   11.13    1.73
   7   5   2   10.96    1.80
  -5   2  -7   14.78    1.92
  -5  -2  -7    9.89    1.85
  -7  -2  -5   12.39    1.64
  -7  -2  -5   13.28    2.13
  -2   7   5   14.71    1.96
  -7   5   2   11.47    1.06
  -5  -2   7   10.77    1.63
   2  -5  -7   12.20    1.81
   5   7  -2   12.36    1.74
  -2  -5  -7   11.22    1.53
   2   7   5   11.94    1.57
  -2   7   5   11.43    1.67
   2   5   7    9.82    1.58
  -5  -7  -2   13.19    1.26
  -2   5   7   11.76    1.82
   7   5  -2   11.82    1.63
  -2   7   5   12.92    2.10
  -2  -5  -7   14.73    2.26
  -2  -7  -5   16.68    2.19
   5  -2  -7   11.61    1.38
  -2   5  -7   10.83    1.50
   5   7   2   12.58    2.01
   2  -7  -5   13.36    1.69
  -5   7   2   10.94    1.39
  -2  -5   7   12.36    1.23
  -2   7  -5   13.67    1.30
   5  -2   7   12.87    1.16
  -5  -2   7   13.30    1.14
  -2  -7  -5   12.72    1.62
   2  -7   5   11.73    1.47
  -5   2  -7   13.05    1.36
   5  -2  -7   13.96    1.31
  -7  -2  -5   12.31    1.41
  -7  -2   5   12.22    1.35
   7  -5  -2   13.16    1.73
  -5   2   7   12.56    1.27
  -5  -2  -7   12.91    1.25
  -7  -5   2   10.26    1.51
  -7  -5  -2   10.51    1.55
   2  -7  -5   13.75    1.51
  -7   5   2   13.93    1.68
  -7   5  -2   12.59    1.71
   5  -7   2   14.16    1.75
   7  -2  -5   12.12    1.53
   7  -5   2   11.49    1.61
  -5   7   2   12.64    2.03
  -2  -7   5   13.84    1.73
   7  -2   5   11.38    1.43
   5  -7  -2   14.76    1.75
  -7   2  -5   13.23    1.58
  -5   7  -2    8.31    1.85
   2  -5   7   12.70    1.27
   2  -5  -7   11.89    1.27
  -2  -5  -7   13.81    1.37
  -2  -5   7   14.28    1.43
  -7   2   5   12.35    1.44
  -7  -5  -2   13.49    1.64
   7  -2   5   11.21    1.73
   2   7  -5   13.21    1.47
  -7  -5   2   15.44    1.70
   2   7  -5   15.76    1.37
  -5  -7  -2   12.17    1.41
  -5  -2  -7   12.82    1.18
  -7  -2   5   11.06    1.03
   5   7  -2   13.34    1.63
   7  -5  -2   11.00    1.26
   7  -5   2   13.54    1.75
  -5   2  -7   12.83    1.38
  -7   2  -5   15.08    1.09
   7  -5   2   13.04    1.80
   2   7   5   12.17    1.38
  -2   7  -5   13.43    0.79
  -7  -2  -5   16.16    1.54
  -2  -5  -7   11.40    1.70
  -5  -2  -7    9.97    1.60
  -5  -2   7   13.29    1.25
   5  -2   7   13.12    2.01
   7  -5   3   53.30    3.25
  -5  -3  -7   59.26    3.45
  -5   3   7   58.12    3.59
  -3  -7  -5   52.59    2.79
  -3   5   7   54.85    3.68
  -7  -3  -5   59.80    3.85
  -7   5   3   63.53    2.82
   5  -3   7   60.56    3.54
  -3  -5  -7   62.02    3.62
  -7  -5  -3   56.35    3.08
  -3  -5  -7   62.46    2.99
   5  -7   3   56.07    3.10
  -7   3  -5   59.83    3.83
  -7  -3   5   59.13    2.40
  -7   5  -3   59.82    3.55
  -5  -3  -7   60.51    3.54
   3  -7   5   57.34    3.24
  -5   7  -3   58.34    3.32
  -3   5  -7   58.90    3.45
  -5  -3   7   57.46    3.23
  -7  -5  -3   52.23    3.09
  -3   7  -5   61.39    3.06
  -5   3  -7   61.07    3.66
  -5  -3  -7   62.09    4.14
  -5  -7  -3   52.93    2.83
  -5   7   3   61.39    3.18
  -3  -5  -7   64.41    3.43
  -3   5   7   59.04    3.65
  -7  -3  -5   59.12    4.02
  -3  -7  -5   55.83    3.09
  -3   7   5   62.74    3.62
   5   7   3   56.38    3.95
   3  -5  -7   56.31    3.40
   7   5  -3   60.12    3.25
  -5  -3  -7   57.26    3.42
   5  -3  -7   56.72    3.04
  -7  -3  -5   55.09    3.33
  -7  -5  -3   58.37    3.51
  -3  -5  -7   57.58    4.18
  -3  -5   7   55.74    2.79
   3   7   5   64.54    4.06
  -3   5  -7   60.58    3.40
   5  -3   7   58.59    2.70
   3  -7   5   57.71    3.09
   3  -7  -5   63.26    3.19
  -3   7   5   56.01    3.40
  -5  -3  -7   59.19    2.85
  -5  -3   7   55.91    2.61
  -7  -3  -5   55.39    3.02
  -7  -5  -3   57.23    3.23
  -3   5  -7   60.06    3.07
   7  -3  -5   66.84    3.31
   7  -5  -3   64.66    3.37
  -7  -3   5   58.88    2.94
   5  -3  -7   66.32    2.93
  -7  -5   3   63.97    3.28
  -5   7  -3   55.23    3.82
   3  -5   7   53.61    2.76
   3  -5  -7   70.32    2.95
  -5   7   3   60.02    3.77
  -7   5  -3   64.16    3.54
   7  -3   5   60.86    3.08
   5  -7   3   72.85    3.48
   5  -7  -3   71.86    3.44
  -3   7  -5   59.10    3.52
   7  -5   3   64.64    3.32
  -3   5   7   57.55    2.99
  -7   3  -5   51.91    3.20
  -7   5   3   70.07    3.45
  -7   3   5   57.35    3.10
   5  -3   7   54.70    3.13
   7  -3   5   57.39    3.88
  -5  -3  -7   64.08    2.81
  -7  -5  -3   69.75    3.34
   5  -3  -7   51.29    2.18
   3   7   5   53.24    2.93
  -7  -3  -5   63.32    3.05
  -7  -3   5   66.33    3.22
  -7  -3   5   60.18    2.62
   7  -3   5   54.17    3.34
   7  -3  -5   53.85    2.70
   3   7  -5   63.52    3.01
   3  -5   7   64.88    3.21
  -5  -3   7   67.37    2.90
   3   7  -5   52.14    2.89
  -5   3  -7   64.80    2.80
  -5  -3  -7   63.85    3.72
  -3  -5  -7   65.02    3.83
  -7  -5   3   69.35    3.35
   5  -3   7   67.62    4.00
   7  -5   3   60.68    3.69
  -5  -3  -7   57.29    3.87
  -5  -3  -7   56.44    3.46
  -3  -7  -5   59.58    3.64
   5   7  -3   58.74    3.16
  -7  -3  -5   58.56    3.10
  -5  -7  -3   57.80    3.17
  -7  -5  -3   59.14    3.13
   5  -4   7    3.40    1.73
  -7  -5  -4    0.62    1.30
  -5   4  -7    0.25    0.76
  -7  -5  -4    1.70    1.20
   4   7  -5    1.63    1.18
  -7   5   4    2.18    1.00
  -4  -7  -5   -1.07    1.35
  -5  -7  -4    0.08    1.22
   5  -7   4    1.21    1.37
  -7  -4  -5   -0.10    1.49
  -5  -4  -7    0.90    1.41
  -4  -5  -7    2.23    1.39
  -4   7  -5    1.31    1.52
  -5  -4  -7   -1.35    1.78
   7   5  -4    0.96    1.24
  -5   4   7   -0.29    0.72
   4  -7   5    0.14    1.35
  -4   5  -7    1.19    1.52
  -4  -7  -5   -1.07    1.37
  -7  -4  -5   -0.48    1.31
   5   7  -4    0.65    1.25
  -5   7  -4    1.13    1.48
   7  -4   5   -0.58    1.58
  -7   4  -5    1.87    1.71
  -7   5  -4    2.08    1.63
  -7   4   5    0.82    0.95
   7  -5   4    0.08    1.41
  -7  -5  -4    0.71    1.26
  -4   5   7    1.96    1.65
  -7  -4  -5    0.36    1.79
  -7  -5  -4    0.10    1.58
  -5   4   7    0.77    1.62
  -5  -4  -7   -0.13    1.70
  -4  -7   5    0.85    0.53
  -5   4  -7   -0.09    1.50
  -7  -4  -5    0.16    1.28
  -4   5  -7    0.56    1.43
  -4   5   7    4.59    1.89
  -4  -7  -5    1.16    1.19
  -5   7   4    1.55    1.35
   5   7   4    0.24    1.83
  -5  -7  -4    1.53    1.44
  -5  -4  -7    0.56    1.37
  -4  -5   7    0.63    0.98
  -5  -7  -4    0.34    1.13
   5  -4  -7    0.17    1.09
  -4  -5  -7   -0.09    1.37
  -4  -5  -7    1.41    1.26
  -5  -7   4    0.59    0.57
  -5  -4  -7    1.03    1.38
   4  -5  -7   -0.62    1.38
  -5  -4   7    0.18    1.16
  -4  -5   7    0.17    0.99
   4  -5  -7   -0.14    1.12
  -7   4   5    1.19    1.31
  -7   4  -5    0.80    1.37
   5  -4  -7    0.39    1.15
   4  -5   7    0.94    1.06
   7  -5   4   -0.06    1.51
  -7  -5   4    0.63    1.32
   4  -7   5    0.12    1.33
  -5  -4  -7    0.80    1.04
  -5  -4   7    1.14    0.96
  -7  -5  -4    0.21    1.36
   7  -5  -4    0.27    1.59
  -7  -4   5   -0.21    1.12
  -7  -4  -5    1.22    1.16
   5  -4   7    0.71    1.04
   5  -7   4    1.78    1.46
   5  -7  -4    0.56    1.52
   4  -7  -5    1.54    1.41
  -5   7   4   -0.40    1.72
  -7   5  -4    1.23    1.47
  -4  -5  -7   -0.43    1.08
  -5   4   7    0.81    1.29
   7  -4   5   -0.40    1.27
   7  -4  -5    0.51    1.40
  -5   4  -7   -0.62    1.46
  -5   7  -4   -0.21    1.81
  -7   5   4    1.08    1.45
  -5  -4  -7    2.27    1.83
   5  -4   7    1.40    1.63
   7  -5   4    1.66    1.53
   4  -5   7    1.03    1.36
  -5  -4   7    0.33    1.16
  -4   5  -7    1.14    1.23
  -7  -5  -4    0.36    1.40
  -4   7  -5    2.06    1.57
  -7  -4  -5    1.00    1.30
  -7  -4   5    1.76    1.36
   7  -5   4    0.20    1.59
   7  -5  -4    2.27    1.20
   7  -4   5    3.16    1.85
  -4   7   5    1.73    1.49
   7  -4   5   -0.96    1.58
   5  -4   7   -0.98    1.38
  -7  -5   4   -0.32    1.56
  -5  -4  -7    0.96    1.08
  -7  -4  -5    1.88    2.06
  -4   5   7    1.74    1.27
  -4  -5  -7   -0.11    1.90
   7  -4  -5    0.87    1.01
  -5  -7  -5   85.59    4.39
  -5  -7  -5   71.49    3.96
  -7  -5  -5   76.49    4.52
   7  -5   5   81.48    4.35
  -5  -5  -7   81.83    4.44
  -7   5   5   89.62    3.42
  -5  -5  -7   86.18    4.35
  -5   7  -5   96.32    4.62
   7   5  -5  101.65    4.36
  -7   5  -5   91.19    4.72
  -5   5   7   97.65    5.02
  -5   5  -7   91.85    4.69
  -7  -5  -5   75.38    4.20
   5  -7   5   85.47    4.25
  -7  -5  -5   80.60    4.25
  -5  -7   5   77.53    3.17
  -5  -5  -7   87.21    5.41
  -5  -7  -5   81.46    4.01
  -5  -5  -7   80.29    4.27
  -7  -5  -5   90.69    5.13
   5  -5  -7   87.68    3.99
  -5  -5   7   84.77    3.83
  -5  -7  -5   92.77    5.19
  -5   5  -7   97.14    4.80
  -5   7   5   82.61    4.60
   7  -5   5   92.90    4.19
   7  -5  -5  101.61    4.41
   5  -5  -7   91.57    3.91
  -5   5  -7   81.18    4.39
   5  -7   5   92.52    4.16
   5  -7  -5   96.24    4.23
  -5   7  -5   81.21    4.76
  -7  -5  -5   81.82    4.09
  -5  -5  -7   83.61    3.98
   5  -5   7   89.65    3.78
  -5  -5   7   85.51    3.69
  -7  -5   5   86.68    3.99
  -5   5   7   86.53    4.23
   5  -5   7   90.49    4.39
  -7  -5  -5   99.39    4.25
   5   7  -5   93.12    4.21
  -5  -7  -5   79.14    4.33
   7  -5   5   92.31    4.58
  -5   5  -7   81.23    2.95
  -7  -5  -5   90.03    5.47
   7  -5  -5   83.88    3.80
  -5  -5  -7   95.94    5.31
   7  -5   5   96.10    4.98
  -5  -5  -7   88.74    4.80
  -7  -5   5   98.30    4.29
  -7  -5  -5   90.31    4.32
  -6   7   0   25.26    1.92
  -6   0   7   16.76    1.85
  -7   0  -6   15.28    2.31
  -6   0  -7   22.13    2.39
  -7   6   0   21.64    1.94
   0   6   7   22.15    2.35
   0  -7   6   20.38    2.00
  -7  -6   0   16.80    1.44
  -7   0   6   23.77    2.01
   0   7   6   25.98    2.49
   0   6   7   23.53    2.23
  -6  -7   0   16.75    1.34
   0  -7  -6   16.73    2.36
   6   7   0   18.53    2.33
   0   7   6   21.35    2.07
   0  -6  -7   23.40    2.55
   7   6   0   25.02    2.44
  -6   0  -7   19.77    2.21
  -7   0  -6   15.82    2.11
   0  -7  -6   18.36    1.99
   0  -7   6   18.80    2.01
  -7   0  -6   19.34    1.78
  -7   0   6   18.56    1.62
  -6   0  -7   20.02    1.68
  -7  -6   0   16.61    2.06
  -6   0   7   23.29    1.58
   0   7  -6   16.92    1.70
   0   7  -6   18.33    1.36
  -6   0  -7   21.74    1.96
  -7   0  -6   18.79    2.00
   0   6  -7   23.47    1.66
  -6   0  -7   22.58    2.02
   0   7   6   18.43    1.70
  -7   0  -6   16.73    1.65
   0  -6  -7   23.15    1.89
   7  -6   0   19.79    1.87
   6   7   0   22.40    2.06
   0   6   7   18.85    1.54
  -6   7   1    0.27    1.05
  -6  -1  -7   -0.46    1.51
  -1  -6  -7    0.66    0.59
   6   7  -1    0.44    1.28
  -6  -1  -7    0.36    1.20
   1   7  -6    0.86    0.86
  -6  -7  -1    1.27    1.03
   1  -7   6   -0.07    1.18
   6  -7   1    0.23    1.02
  -7   6   1    0.22    1.13
  -7   1  -6   -0.04    0.87
  -6   1  -7    0.21    0.97
  -7  -1  -6   -0.10    1.57
  -1  -6   7    0.75    1.28
  -6   7  -1    0.80    1.22
  -6   1  -7    2.60    1.58
  -1  -7  -6    0.30    0.55
  -6  -1   7    1.20    1.01
  -1   7  -6    0.21    0.66
   7  -6   1    0.41    0.40
  -7   6  -1   -1.16    1.47
   6  -1   7   -0.09    1.50
  -7  -1  -6   -0.74    1.09
  -1   6  -7    0.64    0.95
   7   6   1   -0.50    1.42
   1  -6  -7    1.04    1.47
  -1   6   7   -0.20    1.52
  -1  -6  -7    0.45    1.61
   7   6  -1   -0.53    1.40
  -1   7   6    1.20    1.57
  -6   1  -7    0.36    1.44
  -7  -6  -1    0.05    0.89
  -6   1   7   -1.18    1.26
  -6  -7  -1    0.80    0.82
  -7   6   1    0.41    0.82
   1   7   6   -0.66    1.31
  -1   7  -6    0.46    0.77
  -7  -1   6    0.59    0.96
   1   6   7    0.55    1.35
   1  -7  -6    0.27    1.35
   6   7   1    0.32    1.47
   6   7  -1   -0.37    1.38
  -1   6   7    0.42    1.43
  -1   7   6    0.08    1.35
  -7  -1  -6    1.19    1.47
  -6   7   1    0.24    0.98
   7  -1  -6    0.03    0.69
  -1  -7  -6    0.11    1.53
  -7   1  -6   -0.06    1.11
  -6  -1   7   -0.18    0.86
  -6  -1  -7    0.05    0.94
  -1  -7   6   -0.64    1.40
   1  -6   7    0.70    0.98
   1  -6  -7    0.09    1.00
  -7  -1   6    0.31    0.97
  -1  -7  -6   -0.87    1.30
  -7  -6   1   -0.22    1.32
   7  -6   1    1.48    1.39
   6  -1   7    0.57    0.91
   7  -1   6    0.20    1.10
   7  -1  -6   -0.82    1.27
  -1  -6  -7   -0.44    1.20
   6  -7   1    0.75    1.28
  -7   1   6    0.19    1.05
  -6   1   7    1.49    1.01
  -6   1  -7   -0.05    0.97
  -1  -6   7   -0.17    1.18
   6  -1  -7    0.35    1.07
  -7  -1  -6    0.48    1.04
  -6   7   1    0.46    1.61
   1  -6  -7    0.24    0.82
   7  -6   1    0.93    1.29
  -7  -6   1    0.07    1.31
  -6  -1  -7    0.29    1.24
  -6  -7   1   -0.34    1.30
   1   6  -7    0.42    0.85
   1   7   6   -0.52    1.04
   7  -6  -1    1.02    1.05
  -7  -1  -6    0.08    1.29
   1   6   7   -0.04    0.85
  -1  -6  -7    0.51    1.25
   6  -1   7   -1.14    1.64
   1   7  -6   -0.10    1.05
  -6   2   7   81.72    4.22
  -2  -7  -6   82.47    3.31
  -6  -2  -7   78.65    4.35
  -7  -2   6   81.74    3.44
  -7  -6  -2   69.89    3.58
  -6   2  -7   78.97    4.48
  -7   6  -2   78.12    4.09
  -2  -6  -7   82.72    3.32
   6  -7   2   74.73    3.74
   2   6  -7   76.61    3.26
  -6   7  -2   83.36    4.05
  -7   6   2   90.39    3.65
  -6   7   2   88.73    3.38
  -2  -6   7   87.71    4.09
   6  -2   7   80.31    4.41
  -7  -2  -6   78.85    4.56
   2  -7   6   80.47    4.04
  -2   7   6   82.88    4.66
  -2  -7  -6   82.04    4.80
  -6   2  -7   82.47    4.44
   7   6  -2   80.67    4.19
  -2   7  -6   88.55    3.68
  -7  -2  -6   70.25    4.63
  -2   6  -7   78.11    3.72
  -6  -7  -2   76.17    3.50
  -7   6   2   75.67    3.40
  -2   6   7   87.15    4.42
   6   7   2   85.68    4.79
   7   6   2   80.82    4.57
   2   6   7   82.03    4.11
   7  -2  -6   73.73    3.06
  -6   7   2   92.73    3.79
   2   7   6   81.37    4.00
  -2  -6  -7   78.40    4.78
  -7  -2  -6   78.32    4.18
  -7  -6  -2   73.31    3.65
   6   7  -2   87.33    4.36
   2  -7  -6   85.34    4.27
   6  -2  -7   72.54    3.47
   2  -6  -7   73.41    4.18
  -2   7   6   84.68    4.30
  -6  -2  -7   63.40    4.43
  -6  -2  -7   76.04    4.22
   6  -2   7   76.95    3.40
   7  -2   6   75.81    3.59
   7  -2  -6   85.85    3.87
  -7  -2   6   75.38    3.49
  -6   2  -7   67.41    3.64
  -6  -2   7   79.89    3.35
   2  -7  -6   90.64    3.78
  -7  -2  -6   81.25    3.75
   6  -2  -7   78.97    3.62
   2  -7   6   86.05    3.75
  -6   2   7   82.50    3.55
  -6  -2  -7   81.95    3.60
  -6   7   2   70.54    4.51
  -6   7  -2   68.21    4.57
   7  -6   2   87.05    4.13
   7  -6  -2   91.06    4.20
   6  -7   2   92.25    4.17
   6  -7  -2   91.03    4.16
  -7  -6  -2   72.47    3.95
  -7   2   6   86.19    3.77
  -2  -7   6   90.96    4.02
  -2  -6  -7   79.10    3.67
  -2  -6   7   87.87    3.80
  -7   2  -6   80.37    3.89
  -2  -7  -6   90.54    3.98
  -7  -6   2   75.69    3.95
   2  -6   7   72.83    3.46
   2  -6  -7   78.47    3.52
   2   7  -6   83.79    3.67
  -7  -2  -6   80.85    4.97
   2   7   6   77.94    3.60
  -6  -2   7   88.45    3.61
   6   7  -2   87.55    4.10
  -7  -2  -6   82.60    3.90
  -7  -2  -6   79.80    4.19
  -6  -7  -2   82.42    4.05
  -6  -2  -7   78.49    4.12
  -7   2  -6   84.76    3.28
  -6  -7  -2   82.98    3.90
   2   6  -7   73.07    3.36
  -6   2  -7   79.78    3.43
   7  -6   2   82.13    4.19
   7  -6  -2   67.04    3.39
  -2  -6  -7   77.14    4.25
   6  -2   7   78.87    4.63
  -7  -6   2   89.81    4.11
   7   6  -2   84.05    4.05
  -2   7  -6   86.42    2.93
   7  -6   2   81.89    4.22
  -6  -7   2   86.45    4.11
  -7  -6  -2   95.66    4.16
   2   6   7   75.09    3.36
  -6  -2  -7   80.46    4.13
  -6  -2  -7   83.44    3.48
  -7  -2   6   75.57    2.92
   2   7  -6   98.61    3.68
  -3  -6  -7    3.17    1.17
   3   7  -6    0.52    1.09
  -3  -7  -6    2.64    1.08
  -6  -7  -3    2.05    1.25
  -7   3  -6    2.31    0.71
  -7   6  -3    2.29    1.58
   7   6  -3    4.02    1.45
  -6   3  -7    2.20    0.88
  -3  -6   7    1.74    1.38
  -7  -3  -6    0.20    1.56
   6  -3   7    1.62    1.62
  -7   6   3    2.58    1.05
   3  -7   6    1.18    1.42
   7  -6   3    1.50    1.38
  -7  -3  -6   -0.14    1.31
  -6  -3  -7    2.32    1.59
   6   7  -3    1.14    1.34
  -3  -7  -6   -0.42    1.74
  -7   3  -6    2.20    1.73
   6  -7   3    1.78    1.27
  -6   7  -3    2.09    1.51
  -6   7   3    2.38    0.87
  -6  -3  -7    2.79    1.46
  -6  -3  -7    1.82    1.73
  -3  -7  -6    1.97    1.86
  -3   7   6    5.07    2.02
  -6  -7  -3    1.52    1.28
  -3   7   6    4.04    1.70
  -3  -6  -7    0.90    1.90
  -6   7   3    1.83    1.28
  -7  -6  -3    3.05    1.22
   7   6  -3    3.82    1.49
   6   7   3    0.12    1.68
  -6   3   7    4.51    1.71
  -6   3  -7    2.91    1.62
   6   7  -3    5.08    1.58
  -7  -3  -6    2.50    1.73
   7  -3  -6    0.97    0.68
  -7  -6  -3    1.34    1.21
  -3  -6   7    2.31    0.93
  -7  -3  -6    1.38    1.47
  -3   7  -6    0.78    1.25
  -3  -7  -6    2.71    1.29
  -6  -3  -7    2.26    1.37
  -6  -7  -3    1.76    1.07
   6  -3  -7    0.40    1.12
   3  -7  -6    2.36    1.40
   3  -6  -7    4.03    1.52
  -3  -6  -7    1.96    1.34
  -3   6   7    2.29    1.64
  -3   6  -7    1.02    1.30
  -6   7   3    2.60    1.69
   7  -6   3    1.23    1.45
  -6   3  -7    2.69    1.28
   3  -6   7    4.04    1.20
   6  -7   3    3.22    1.53
   6  -3  -7    1.86    1.23
   6  -7  -3    2.91    1.53
  -6  -3  -7    3.22    1.20
   6  -3   7    1.74    1.06
   7  -3   6    2.23    1.22
   3  -6  -7    4.30    1.25
  -6   7  -3    1.31    1.70
  -7  -6   3    1.88    1.37
  -7  -3  -6    1.34    1.26
  -7  -3   6   -0.10    1.13
  -6  -3   7    2.97    1.07
   7  -6  -3    1.67    1.46
  -7  -6  -3    3.36    1.39
   7  -3  -6    2.76    1.34
   3  -7   6    1.02    1.25
   3  -7  -6    1.61    1.29
  -6   3   7    5.11    1.26
  -7   3   6    0.70    1.30
  -7   3  -6    1.89    1.40
  -7  -3  -6    2.54    1.91
   6  -7  -3    1.58    0.83
  -6  -3  -7    1.39    1.68
   7  -6   3    2.22    1.58
  -3  -7  -6    2.96    1.40
  -7  -6  -3    2.50    1.47
  -6  -3  -7    3.52    1.16
  -6  -3   7    3.68    1.20
  -7  -3  -6    2.33    1.52
  -7  -3  -6    0.78    1.24
  -7  -3   6    2.08    1.34
  -3  -6  -7    4.17    1.30
   3   7   6    2.94    1.12
   3   7  -6    2.23    1.15
  -3  -6   7    4.02    1.38
   6  -3   7    1.58    1.41
  -7  -6   3    1.65    1.50
  -7  -3   6    1.91    0.78
   7  -3   6    2.16    1.53
  -6  -3  -7    2.23    1.44
   3  -7  -6    1.73    0.66
  -3  -6  -7    3.82    1.69
   6  -3   7    3.95    1.95
  -3  -7   6    2.48    1.43
  -6   4  -7   15.01    2.21
  -7  -4  -6   13.84    2.14
   6  -7   4   12.81    1.83
  -4  -7  -6   12.03    1.61
   4   7  -6   11.54    1.69
  -4  -6  -7   17.51    1.81
  -6  -4  -7   13.47    2.04
   7  -6   4   14.64    1.90
  -6   7  -4   11.65    1.96
  -7   6   4   16.17    1.34
  -7   4  -6   15.19    2.22
  -6  -4  -7   12.33    1.96
  -7  -6  -4   15.26    1.81
  -7   6  -4   16.54    2.21
  -7  -4  -6   11.52    1.86
  -4   6  -7   18.12    2.23
  -4  -7  -6   13.08    2.10
   4  -7   6   12.64    1.91
  -6  -7  -4   12.51    1.80
  -6  -4   7   10.33    1.83
  -4   7  -6   14.64    1.86
  -4  -7   6   12.85    1.05
  -4   6  -7   18.07    2.09
  -7  -6  -4   15.16    1.79
  -6  -4  -7   16.03    1.94
  -4   6   7   16.91    2.37
   4  -6  -7   16.08    1.90
  -4  -6  -7   18.70    1.97
   6  -4  -7   13.51    1.48
  -7  -4  -6   13.26    2.48
  -6   4   7   13.05    2.27
  -6   4  -7   13.88    2.11
  -7  -4  -6   13.22    1.92
  -4  -6   7   14.73    1.37
  -4   7   6   18.84    2.30
  -4   6   7   16.62    2.47
  -6  -4  -7   14.22    2.71
  -4  -6  -7   13.25    2.01
  -6  -7  -4   10.70    1.64
  -7  -6  -4   17.82    2.34
  -6  -7  -4   15.31    2.24
  -4  -7  -6   14.47    1.78
  -6  -4   7   16.68    1.50
  -7  -4   6   17.38    1.61
  -7  -4  -6   14.15    1.70
  -4   7   6   15.11    1.96
   7  -4  -6   15.05    1.88
   6  -4  -7   19.86    1.81
  -7   4  -6   13.33    1.88
  -6  -4  -7   13.84    1.60
  -7   4   6   15.33    1.83
   7  -6   4   16.09    1.97
   7  -6  -4   14.85    2.06
  -4   6  -7   16.92    1.99
  -6   7   4   11.86    2.25
   7  -4   6   14.02    1.74
  -6   7  -4    8.14    2.21
   6  -7  -4   15.60    2.04
   4  -6   7   13.58    1.58
   4  -6  -7   19.16    1.74
  -7  -6  -4   12.71    1.89
   4  -7   6   13.00    1.76
   4  -7  -6   15.88    1.90
   6  -7   4   14.42    1.94
  -4   7  -6   12.29    1.93
  -7  -6   4   17.58    1.98
   6  -4   7   16.16    1.60
   7  -4   6   15.99    2.56
  -6  -4  -7   16.49    2.46
  -6  -4  -7   16.56    1.61
  -4   6   7   13.16    1.80
  -6  -4  -7   15.01    2.14
  -7  -4  -6   14.92    2.14
   6   7  -4   16.52    1.89
  -6  -4  -7   16.63    2.12
  -7  -6  -4   14.65    1.96
   6  -4   7   15.68    1.97
   7  -4  -6   14.20    1.42
  -7  -6   4   14.89    2.06
   7  -6   4   17.63    2.21
   6  -7  -4   10.52    1.01
   4  -6   7   16.44    1.92
  -4   6  -7   12.53    0.66
   7  -4   6   14.15    2.08
  -6   4  -7   14.82    1.04
  -7  -4   6   16.89    1.84
   6  -4  -7   13.70    1.17
  -4  -6  -7   15.72    2.43
  -6  -7  -4   14.99    1.85
   7   6  -4   18.35    1.94
  -7  -4  -6   16.24    2.59
   7  -6   4   15.83    2.28
  -6  -4   7   17.69    1.69
  -7  -4  -6   15.03    1.72
  -6  -5  -7    0.69    1.49
  -7   6  -5    1.83    1.53
  -5  -7  -6    2.63    1.32
  -5  -6  -7   -0.84    1.46
   7   6  -5    3.70    1.46
   7  -6   5    0.49    1.49
  -7  -6  -5    1.30    1.41
   6  -7   5    1.94    1.46
   6   7  -5    2.56    1.47
  -6  -5  -7    0.25    1.48
   5   7  -6    2.28    1.28
  -6   5  -7    2.50    1.75
   7  -5   6    2.03    1.63
  -6   5   7    1.62    0.58
  -7   6   5    3.09    0.81
   5  -7   6    2.72    1.61
  -6   7  -5    1.96    1.66
  -7  -6  -5    0.73    1.28
  -5   6  -7    0.87    1.61
  -5  -7  -6    3.03    1.54
   5  -6   7    2.63    1.65
  -7   5   6    2.38    0.84
  -5   7  -6    2.67    1.59
  -7  -5  -6    2.42    1.51
  -6  -7  -5    0.94    1.31
  -7   5  -6    1.34    1.60
  -7  -5  -6    2.37    1.48
  -6  -5  -7   -0.15    2.01
  -7  -6  -5    2.41    1.37
  -5  -7  -6    3.42    1.60
  -6   5   7   -1.29    1.80
  -7  -5  -6    2.27    1.46
  -6  -7   5    2.32    0.85
  -6  -7  -5    1.47    1.45
  -7  -6  -5    1.59    1.38
  -5  -6  -7    0.43    2.08
  -7  -5  -6    1.39    1.80
  -6  -7  -5    1.90    1.75
  -6   5  -7    0.98    1.65
  -7  -6  -5    2.98    1.80
   5  -6  -7    1.07    1.19
  -5   6  -7    1.10    1.55
  -5  -7  -6    1.51    1.98
  -6  -5  -7    2.97    1.50
   6  -5  -7    2.09    1.03
  -7  -5  -6    1.37    1.45
  -5  -6  -7    1.48    1.47
  -5  -7   6    1.94    0.77
  -6  -5  -7    0.77    1.38
  -6  -7  -5    2.01    1.34
  -5  -6   7    0.65    0.91
  -5   7  -6    2.67    1.59
  -5  -6  -7    1.61    1.28
  -5   6   7    2.14    1.91
  -6  -5   7    2.29    1.23
  -5  -7  -6    2.82    1.31
  -6   5  -7    1.00    1.57
   5  -7  -6    2.22    1.40
  -6   7  -5    1.88    1.72
  -5  -6   7    2.06    1.10
  -5  -6  -7    0.60    1.16
   6  -7   5    1.73    1.37
   6  -7  -5    0.73    1.43
  -6  -5  -7    1.83    1.20
  -6  -5   7    2.23    1.09
   5  -7   6    2.34    1.39
   7  -6   5    1.57    1.41
  -7   6   5    1.66    1.77
  -7   6  -5   -0.73    1.82
   5  -6   7    1.57    1.18
  -5   6   7    3.54    1.53
  -7  -6  -5   -0.23    1.49
   5  -6  -7    2.16    1.29
  -7  -5   6    1.80    1.25
  -6   7   5   -0.62    1.67
   7  -5   6    0.91    1.30
  -7  -5  -6    1.22    1.28
   6  -5   7    2.43    1.23
   6  -5  -7    0.65    1.30
   7  -5  -6    1.72    1.51
  -6   5   7    3.96    1.58
   7  -6  -5    0.82    1.46
  -7  -6   5    1.78    1.39
   7  -6   5    2.54    1.91
   6  -5   7    2.45    1.55
  -6  -5  -7    1.92    1.26
  -6  -5   7    2.22    1.31
  -5  -6  -7    1.82    1.86
   5  -6   7    1.06    1.44
  -7  -6  -5    0.33    1.50
  -7  -6   5    0.93    1.52
  -5   7   6    0.91    1.52
  -7  -5  -6    2.26    1.34
  -7  -5   6    2.19    1.43
  -6  -5  -7    1.97    2.09
   7  -5   6    2.53    1.61
   6  -7   5    2.04    1.52
   7  -5  -6    2.24    1.03
  -5  -7  -6    1.70    1.89
  -7  -6  -5    0.45    1.94
  -7  -5  -6    0.74    1.87
   7  -6   5    1.96    1.56
  -5   7  -6    4.07    1.68
  -5   6  -7    1.85    1.51
   7  -5   6    3.17    2.00
   6  -6   7   35.27    2.87
  -6  -6  -7   26.55    2.47
  -6   6   7   37.50    3.36
  -7  -6  -6   27.07    2.69
  -6  -7  -6   31.72    2.56
   7  -6   6   28.21    2.69
   6  -7   6   32.03    2.70
  -6  -7  -6   31.26    2.71
  -6  -6  -7   29.50    2.74
  -7   6  -6   34.70    3.05
  -7  -6  -6   31.31    2.71
  -6   6  -7   33.65    2.93
  -6   7  -6   35.08    2.99
  -6  -7  -6   32.85    2.59
  -6   6  -7   32.13    3.03
  -7  -6  -6   32.36    2.62
  -6  -6  -7   26.52    3.39
  -6  -6  -7   29.20    2.55
  -6  -7   6   28.45    1.84
  -6  -6   7   30.25    2.13
  -7  -6  -6   36.14    3.52
  -6  -7  -6   37.71    3.56
   6  -7   6   33.56    2.52
  -6  -6  -7   30.63    2.50
   6  -6   7   31.20    2.34
  -7  -6  -6   28.68    2.50
   6  -6  -7   29.65    2.40
  -7   6   6   26.86    2.91
  -7   6  -6   22.31    2.95
   6  -7  -6   39.18    2.67
   7  -6   6   32.87    2.52
  -6   6   7   31.40    2.86
  -6   6  -7   28.37    2.92
  -6   7   6   27.68    2.84
  -6   7  -6   31.31    3.09
  -7  -6   6   33.44    2.42
   7  -6  -6   37.44    2.73
  -6  -7   6   31.18    2.41
  -6  -7  -6   26.44    2.48
  -6  -6   7   30.79    2.24
  -7  -6   6   38.81    2.77
  -6  -7  -6   36.15    3.62
   7   6  -6   40.96    2.79
  -6  -6  -7   29.57    2.77
  -7  -6  -6   41.01    2.73
   7  -6   6   38.09    2.94
   6  -6   7   36.22    2.82
   6  -7   6   39.48    2.91
  -7  -6  -6   29.00    3.49
  -7  -6  -6   35.27    2.86
  -6  -6  -7   26.79    3.31
   6   7  -6   40.17    2.69
   7  -6   6   32.93    3.14
  -7   7   0    1.54    1.18
   7   7   0    3.08    1.45
  -7   0  -7    3.38    1.68
   0   7   7    2.72    1.73
  -7   0  -7    2.53    1.13
  -7   0   7    3.02    1.24
  -7   0  -7    1.82    1.48
   0   7   7    2.05    1.46
   7   7   0   -0.10    1.67
  -7   7   0    3.40    1.01
   0  -7  -7    2.56    1.49
  -7   0  -7    2.35    1.13
  -7   0   7    2.05    1.05
   7  -7   0    3.28    1.32
   0   7   7    1.46    1.10
  -7   0  -7    3.54    1.36
   0  -7  -7    3.93    1.22
   0   7  -7    2.45    1.08
  -7  -1   7   25.48    2.04
  -7   7  -1   25.85    2.24
  -1   7   7   23.92    2.73
  -7   1   7   26.35    2.35
  -7   1  -7   31.91    2.94
  -7   7   1   31.11    2.07
  -1  -7  -7   25.21    1.18
  -7  -1  -7   29.39    2.85
  -7  -7  -1   21.48    1.76
  -7   1  -7   26.09    2.56
  -7  -1  -7   22.66    2.51
   1   7   7   29.45    2.49
  -1   7  -7   24.56    1.82
   7  -1  -7   23.31    1.67
   7   7  -1   24.89    2.60
   7   7   1   23.50    2.72
  -7   7   1   27.56    1.85
  -1  -7  -7   27.36    2.91
   1  -7  -7   25.17    2.58
  -1   7   7   27.08    2.53
  -7  -1   7   24.62    1.79
   7  -7   1   29.71    2.50
   1  -7  -7   32.49    2.06
  -7   1   7   29.64    1.98
  -1  -7   7   25.17    2.25
  -7   7   1   23.93    2.82
   1  -7   7   29.61    1.97
  -7  -1  -7   26.02    1.98
  -1  -7  -7   25.37    2.21
  -7   1  -7   28.53    2.16
   7  -1   7   26.88    1.93
   7  -1  -7   28.67    2.17
  -7  -7   1   27.35    2.40
   1   7   7   25.62    1.87
   1   7  -7   26.64    1.94
  -7  -1  -7   27.43    2.19
   7   7  -1   23.81    2.27
  -7   1  -7   26.26    1.89
   7  -1   7   23.85    2.89
  -1  -7  -7   21.07    2.21
   1  -7  -7   24.52    1.83
   7  -7  -1   23.33    1.93
  -7  -1  -7   25.87    2.33
  -7   7   2    1.42    1.09
  -2   7  -7    1.40    0.66
  -7   7  -2    0.52    1.45
  -7  -2  -7    0.22    1.51
  -7  -7  -2    1.01    1.09
  -2  -7  -7    0.32    0.89
   2  -7   7    2.89    1.62
  -7  -2  -7    2.95    1.79
   7  -7   2   -0.61    1.39
   7   7  -2    0.32    1.30
  -7   2  -7    0.75    0.92
   7  -2  -7    1.01    0.87
  -7  -7  -2   -0.06    1.23
   7   7   2    2.69    1.92
  -7   2   7    1.05    1.57
   2  -7  -7    0.63    1.56
  -7   2  -7    1.85    1.61
   2   7   7    2.20    1.46
  -7  -7  -2    1.63    1.10
  -7  -2  -7    2.39    1.56
  -7   7   2    2.06    1.09
  -2   7   7    1.35    1.81
   7   7  -2    3.29    1.70
  -2  -7  -7    0.12    2.05
  -2   7  -7    2.13    1.19
  -7  -2  -7    4.47    1.74
  -2   7   7   -0.37    1.57
   7  -2  -7    2.67    1.35
   7  -7   2   -0.29    1.64
   7  -7  -2   -0.07    1.63
  -7   7   2   -0.95    1.95
  -2  -7  -7    1.56    1.38
  -7   2  -7    1.25    1.24
  -7   7  -2    0.13    1.92
  -7   2   7    2.03    1.20
  -7  -2  -7    1.43    1.19
  -7  -2   7    2.17    1.11
   2  -7   7    2.53    1.28
   2  -7  -7    2.02    1.29
  -2  -7   7    1.56    1.44
   7  -2   7    3.09    1.23
   2   7  -7    1.04    1.04
  -7  -7  -2   -0.14    1.63
  -7  -7   2   -0.37    1.65
  -7  -2  -7    3.24    1.59
   2   7   7    2.03    1.04
  -7  -2  -7    1.40    1.14
  -7  -2   7    1.59    1.24
   2  -7  -7    1.24    0.80
   7  -7  -2    1.13    1.02
  -2  -7  -7    1.26    1.61
   7  -2   7    1.06    1.83
  -7   3   7   25.64    2.58
  -3  -7  -7   19.42    1.64
   3  -7   7   17.53    2.10
   7  -3   7   20.63    2.45
  -7  -3  -7   12.85    2.21
  -7  -7  -3   14.97    1.79
   7  -7   3   14.04    1.87
  -7  -3  -7   15.00    1.95
  -7   7   3   16.12    1.43
  -3  -7   7   15.23    2.04
  -7   7  -3   18.27    2.14
   7   7   3   15.54    2.48
  -7  -3  -7   16.46    2.09
  -7  -7  -3   15.12    1.69
  -7   7   3   17.27    1.65
  -3  -7  -7   18.59    2.71
   7  -3  -7   16.16    1.36
  -7  -3  -7   17.37    2.61
  -3   7  -7   18.41    1.85
  -3   7   7   16.64    2.30
   3  -7  -7   19.22    2.11
   7   7  -3   19.21    2.23
  -3  -7  -7   17.34    2.03
  -7   3  -7   12.58    2.15
   7  -3   7   16.45    1.64
   7  -3  -7   16.79    1.84
  -3  -7  -7   19.03    1.93
  -7  -7   3   12.65    1.87
  -3  -7   7   20.22    2.06
  -7   3   7   22.00    1.85
  -7  -3  -7   18.47    1.79
  -7   3  -7   19.32    1.95
   7  -7   3   17.33    2.06
   7  -7  -3   20.39    2.19
  -7  -7  -3   15.66    2.01
  -7   7   3   13.54    2.31
  -7  -3   7   20.20    1.62
  -7   7  -3   12.50    2.38
   3  -7   7   19.21    1.79
   3  -7  -7   19.42    1.87
  -7  -7   3   16.93    2.11
   7  -3   7   18.13    2.16
  -7  -3  -7   19.22    1.77
  -7   3  -7   16.44    1.22
  -7  -3   7   19.89    1.86
   7  -7  -3   15.68    1.35
   7   7  -3   18.56    2.02
  -7  -3  -7   21.03    2.72
  -3  -7  -7   15.16    2.30
  -7  -7  -3   20.16    1.91
  -7  -7  -3   18.09    2.10
  -3   7  -7   16.55    0.84
  -7  -3  -7   15.32    2.13
   7  -7   4    1.70    1.40
  -4  -7  -7    0.47    1.69
  -7   7   4    3.23    0.84
  -4  -7  -7    2.31    1.23
  -7  -4  -7    1.08    1.60
  -7   7  -4    3.43    1.66
  -7  -4  -7    4.43    1.62
   7   7  -4    2.59    1.44
   4  -7   7    3.10    1.54
  -7  -4  -7    2.12    1.48
  -7   4  -7    1.51    1.65
   7  -4  -7    3.61    0.96
  -4   7   7    5.85    1.90
  -4  -7  -7    2.68    1.34
   7   7  -4    4.33    1.65
  -7   4  -7    1.63    1.69
  -7  -7  -4    2.02    1.36
  -4  -7   7    2.71    0.82
  -4   7  -7    1.97    1.48
  -7  -4  -7    1.59    1.40
  -7  -7  -4    2.34    1.28
  -7  -4  -7    0.90    1.90
   4  -7  -7    4.06    1.44
   7  -7   4    2.50    1.47
   7  -7  -4    3.93    1.60
  -7  -7  -4    1.49    1.41
   7  -4  -7    4.49    1.42
  -7  -7   4    1.70    1.42
   4  -7   7    2.24    1.29
   4  -7  -7    3.29    1.37
  -7  -4   7    3.49    1.13
  -7  -4  -7    3.28    1.27
   7  -4   7    2.95    1.28
  -7   7  -4    1.31    1.92
  -7   7   4    1.61    1.83
  -7  -4   7    4.41    1.48
  -7  -4  -7    1.07    1.24
  -4   7   7    2.77    1.50
  -7  -7   4    1.23    1.63
  -4   7  -7    3.12    1.49
  -7  -4  -7    2.08    2.05
   7  -7   4    3.11    1.65
  -7  -7  -4    2.99    1.61
  -7  -4  -7    1.23    1.66
   7  -4  -7    2.59    0.88
   7  -4   7    3.85    1.65
  -4  -7  -7    3.07    1.90
  -7   7  -5   25.11    2.67
  -7   5  -7   24.13    2.73
  -7  -5  -7   21.20    2.51
   5   7  -7   23.65    2.25
  -5  -7  -7   18.85    2.11
  -7  -5  -7   22.16    2.53
   5  -7   7   20.89    2.45
  -5   7   7   27.79    3.11
   7  -7   5   21.89    2.39
  -5   7  -7   25.38    2.72
   7  -5   7   25.59    2.68
  -7  -7  -5   12.70    2.20
  -5  -7  -7   20.77    2.55
  -7  -7  -5   20.50    2.31
  -5   7  -7   25.61    2.64
  -7  -5  -7   21.39    3.18
  -7  -5  -7   27.00    2.56
  -7  -7  -5   23.68    2.31
  -5  -7  -7   25.03    2.34
  -7  -5   7   20.46    2.19
  -5  -7  -7   22.56    3.21
  -5   7   7   27.53    2.88
  -7   5  -7   25.08    2.77
  -7  -7  -5   23.06    2.89
  -5  -7   7   19.88    1.56
  -5   7  -7   25.82    2.68
   7  -5   7   27.65    2.20
  -7   7   5   18.61    2.71
  -7   7  -5   15.64    2.65
  -7  -5   7   24.06    2.00
   7  -7   5   18.20    2.29
   7  -7  -5   21.67    2.44
   5  -7   7   21.85    2.12
   5  -7  -7   23.00    2.20
  -7   5   7   18.70    2.48
  -7  -5  -7   24.58    2.17
  -5   7   7   24.72    2.60
  -7  -7  -5   19.51    2.32
  -7   5  -7   14.96    2.49
   7  -5  -7   33.82    2.43
  -7  -7   5   20.51    2.19
  -7  -5  -7   22.39    3.19
  -7  -5  -7   26.46    2.19
   7  -5   7   28.18    2.67
   7  -5  -7   23.26    1.72
   7  -7   5   23.74    2.59
   5  -7   7   25.80    2.56
  -7  -5   7   26.96    2.30
   7   7  -5   23.90    2.39
  -5  -7  -7   20.49    3.06
  -7  -5  -7   21.49    2.53
  -7  -7  -6    0.77    1.85
  -6  -7  -7    1.15    1.58
   7   7  -6    4.88    1.82
   6  -7   7    4.38    1.98
   7  -6   7    5.63    2.01
  -7   6  -7    4.48    2.13
  -7   7  -6   -0.21    1.97
  -7  -6  -7    4.70    1.78
   6   7  -7    5.26    1.70
   7  -7   6    3.14    1.86
  -6   7  -7    5.39    2.06
  -7  -6  -7    2.87    1.94
  -7  -7  -6    2.09    1.68
  -6  -7  -7    1.85    2.43
  -6  -7  -7    4.10    1.87
  -7   6  -7    2.58    2.08
  -7  -7   6    3.76    1.24
  -6  -7   7    3.61    1.15
  -6   7  -7    2.13    1.91
  -7  -6   7    1.17    1.40
  -7  -6  -7    4.46    2.53
  -6   7   7    5.14    2.29
  -7  -6  -7    4.35    1.86
  -7  -6  -7    4.08    1.77
  -7  -7  -6    2.62    1.69
  -7  -7  -6    1.30    2.20
  -6  -7  -7    3.22    1.68
  -7  -7  -6    2.31    1.85
   7  -7   6    0.90    1.72
   7  -7  -6   -0.28    1.81
   6  -7  -7    3.89    1.70
  -6  -7   7    1.86    1.47
  -6  -7  -7   -0.24    1.62
  -7  -6   7    5.04    1.58
  -7   6  -7   -0.12    2.04
  -7   6   7    2.85    2.03
  -7  -7  -6    0.34    1.66
  -7  -6  -7    4.28    1.74
  -7  -7   6    1.11    1.61
   6  -7   7    4.21    1.66
  -7   7   6    1.00    2.07
  -7   7  -6   -1.89    2.32
   7  -6   7    3.30    1.61
   7  -6  -7    6.15    1.84
   6  -7   7    2.46    1.84
   7  -6  -7    3.62    1.23
   7  -7   6    5.00    1.99
   7  -6   7    3.39    1.99
   7  -7   6    6.48    2.39
  -7  -7  -6    2.13    2.43
  -7  -6  -7    2.88    2.46
  -6  -7  -7    2.51    2.30
  -6   7   7    2.63    1.96
  -6   7  -7    1.75    1.94
   7  -6   7    5.00    2.27
   7  -7   7    9.08    2.08
   7   7  -7    9.55    1.93
  -7   7  -7    9.51    2.30
  -7  -7  -7    7.33    1.87
  -7  -7  -7    9.70    2.17
  -7   7  -7    6.52    2.17
  -7  -7  -7   13.03    2.92
  -7  -7  -7    7.12    1.97
  -7  -7   7    7.80    1.39
  -7  -7  -7    5.95    1.82
  -7  -7   7    6.97    1.70
  -7   7   7    9.00    2.35
   7  -7  -7    9.26    1.95
  -7   7  -7    8.08    2.31
   7  -7   7    9.56    1.88
   7  -7   7    9.13    2.22
   7  -7   7    7.84    2.47
  -7  -7  -7    8.17    2.70
   0   0   8 2010.69   59.84
   0   0  -8 1939.87   60.03
   0  -8   0 1879.84   59.26
   0   0   8 2048.55   60.20
   0   8   0 1910.53   58.88
   0   8   0 2003.11   60.14
  -8   0   0 1763.42   59.63
   0  -8   0 1843.49   59.34
   8   0   0 1958.10   59.53
  -8   0   0 1952.53   59.70
  -8   0   0 2035.56   60.20
   0   0   8 2021.07   59.75
   8   0   1    1.84    0.96
   1  -8   0    3.64    0.87
   0  -8   1    3.47    0.82
  -1   0  -8    4.42    0.99
   1   0   8    2.64    1.19
   0  -8  -1    3.42    1.05
   0   1   8    3.69    1.17
   1  -8   0    2.33    0.86
   8  -1   0    3.74    0.96
   0  -8   1    4.98    1.01
   0  -1   8    4.73    1.27
   0  -8  -1    3.45    0.81
  -1  -8   0    4.77    0.99
  -1   0   8    3.77    1.16
  -8   0  -1    5.40    1.65
  -8   1   0    3.65    1.56
   8   0  -1    2.43    1.01
   8   1   0    3.99    1.03
   1   0  -8    3.56    1.32
  -1   8   0    3.58    0.83
   0  -1  -8    1.05    1.16
   0   8   1    5.81    1.37
   1   0   8    3.80    1.31
   0   1  -8    5.05    1.38
  -1   0  -8    3.46    1.33
  -8   0  -1    3.24    0.80
   0  -1   8    5.23    1.26
   0   1  -8    2.66    1.18
  -1   8   0    6.21    1.29
  -1   0   8    3.93    1.35
   0   8   1    4.22    0.81
  -1   0  -8    3.65    1.31
  -8   1   0    2.60    1.17
   0  -8   1    4.80    1.53
   8   0   1    4.63    1.26
  -8  -1   0    1.86    1.20
  -8   0   1    3.91    1.12
  -8   0  -1    3.77    1.43
   1   8   0    4.19    1.27
   1   0   8    3.36    1.19
  -8   0  -1    3.78    1.20
   0  -1  -8    3.43    0.76
  -8  -1   0    3.18    1.24
  -8   0   1    6.21    1.19
  -8   1   0    1.95    1.23
  -8  -1   0    2.05    1.41
  -8   0   1    2.80    1.22
   0   1   8    2.81    1.03
   1  -8  -1    3.04    0.74
   8   1  -1    2.64    1.03
   1  -8   1    1.77    0.89
   1  -8   1    1.67    0.65
   1   1   8    0.87    1.10
  -1  -1   8    1.34    1.09
   1  -8  -1    1.52    0.92
  -1  -8  -1    1.91    0.95
   1  -1   8    4.99    1.33
   8  -1   1    3.34    0.88
   8   1   1    1.25    0.95
  -1   1   8    3.40    1.08
  -8   1  -1    3.98    1.53
  -1  -1  -8    5.72    1.01
  -1   1  -8    2.70    1.26
  -1   8   1    1.99    0.89
  -1  -1  -8    3.68    1.23
   1  -1  -8    2.80    1.30
   1   1  -8    3.30    1.17
   1  -1   8    3.90    1.27
   1   8   1    1.39    1.16
  -8  -1  -1    4.20    0.86
  -8   1  -1    0.99    0.78
  -1  -1   8    3.66    1.24
  -1   8   1    1.48    1.13
  -1   1   8    3.43    1.31
  -1  -1  -8    4.74    1.31
   1   8   1    0.83    0.61
  -8   1   1    2.15    1.08
   8  -1   1    3.12    1.21
  -8  -1   1    2.23    1.08
   1  -8   1    1.71    1.44
   8   1   1    1.39    1.15
  -8  -1   1    3.94    1.15
  -8   1  -1    2.44    1.31
  -8  -1  -1    3.55    1.24
   1   8   1    2.03    1.14
  -1  -1  -8    3.99    0.86
  -1   1   8    2.19    0.87
  -8  -1   1    1.83    1.30
  -8   1   1    3.91    1.12
   1   1   8    1.37    1.05
  -8  -1  -1    2.75    1.40
  -1  -8   1    2.83    1.41
  -2  -8   0    5.56    1.03
  -2   0   8    5.93    1.16
   2   0   8    6.51    1.39
   0  -8   2    5.36    1.06
  -2   0  -8    7.22    1.19
   2  -8   0    5.14    0.84
  -8   2   0    6.35    1.55
   0   2  -8    7.48    1.27
   2  -8   0    5.12    0.93
  -8   0  -2    7.74    1.75
   0  -8  -2    5.23    0.75
   0   2   8    7.89    1.20
   0  -2   8    8.46    1.38
   8   2   0    5.34    1.06
   0  -8  -2    3.66    1.12
   0  -2  -8    7.81    1.46
   0   8   2    6.39    1.47
   0   2  -8    6.57    1.35
   2   8   0    4.11    1.05
   0   8   2    4.10    1.34
  -2   8   0    4.56    1.19
   0  -2   8    6.79    1.27
  -8   0  -2    7.03    1.13
   0   8   2    4.15    0.94
  -2   0   8    5.19    1.27
   2   8   0    3.88    1.33
  -2   0  -8    6.83    1.41
   0  -8  -2    4.07    1.42
  -8   0   2    5.31    1.20
   8   0   2    5.62    1.32
  -8  -2   0    6.97    1.35
   0  -8   2    5.43    1.48
  -8   2   0    3.41    1.25
   8   0  -2    4.89    1.36
  -8   0  -2    4.53    1.19
  -8   0  -2    8.00    1.63
   8   0   2   10.18    1.18
  -8   0  -2    7.30    1.33
   2   0   8    5.13    1.31
   0  -2  -8    8.76    1.01
   2   8   0    4.73    1.31
   8  -2   0    7.05    0.97
  -8   0   2    4.22    1.04
   8  -2   0    6.24    1.30
  -8  -2   0    6.58    1.35
  -8   0   2    7.57    1.28
  -8   2   1   20.23    2.07
  -1  -2  -8   18.77    1.92
  -8   1  -2   17.68    2.13
   2  -1   8   17.72    1.87
  -2  -1  -8   19.25    1.56
  -8   2  -1   15.83    2.03
   1   2   8   15.90    1.57
   2   1   8   17.14    1.73
   2   8  -1   11.50    1.30
  -1   2   8   17.39    1.45
   2  -8   1   13.36    1.30
   1  -2   8   15.79    1.76
   1   2  -8   16.71    1.63
   2   1  -8   16.40    1.66
  -8  -1  -2   15.57    2.22
   2   8   1   13.78    1.52
   1  -8  -2   12.68    0.99
  -1  -2   8   15.32    1.60
   1  -8   2   14.57    1.42
   2  -8  -1   12.33    1.10
  -2  -1   8   16.11    1.53
  -2   1  -8   21.07    1.75
  -1  -2  -8   20.19    1.39
  -2   1   8   16.41    1.44
   1   8   2   15.58    1.73
  -2  -1  -8   15.54    1.85
   1   8   2   12.34    1.20
  -8   2  -1   16.84    1.25
  -1  -2   8   17.62    1.69
  -2  -1   8   18.67    1.82
  -2   1  -8   17.51    1.89
  -1   2  -8   16.24    1.71
  -2  -1  -8   18.19    1.86
  -8   1  -2   16.39    1.57
  -1   8   2   13.65    1.38
  -2   8   1   10.87    1.54
  -1  -2  -8   17.90    1.87
   1  -2   8   15.67    1.60
  -8  -1  -2   15.51    1.55
  -2   1   8   16.82    1.85
   2   8   1   10.21    1.79
  -1   8   2   14.41    1.79
   2   8  -1   13.39    1.82
   8  -1   2   16.22    1.70
  -8  -2   1   15.80    1.62
  -8  -1  -2   16.36    1.68
  -2  -8   1   19.94    1.95
   8  -1  -2   15.09    1.78
   1  -8  -2   16.70    2.07
   8  -2   1   14.56    1.75
  -8   1  -2   17.82    1.68
  -8   1   2   17.60    1.58
   1  -8   2   16.39    1.96
  -8  -1   2   16.84    1.62
  -8   2   1   13.51    1.53
  -1  -8  -2   14.34    1.85
  -1  -8   2   15.65    1.87
   8   1   2   21.07    1.78
   8   1  -2   19.61    1.84
   1   8  -2   14.93    1.69
   1   8   2   15.82    1.70
  -1  -8  -2   12.71    1.47
   2   8   1   15.71    1.65
   8  -1   2   17.13    1.39
   1  -2   8   13.07    1.25
   8  -2  -1   18.29    1.69
   8  -2   1   16.35    1.77
  -8  -2   1   16.39    1.61
  -1  -2  -8   18.79    1.45
  -8  -2  -1   16.85    2.12
   1  -2  -8   17.43    1.13
   2  -8   1   10.83    0.91
  -2  -8  -1   11.51    1.36
  -2  -1  -8   16.74    1.50
   2   1   8   14.97    1.61
   1  -8  -2   10.67    1.54
  -8  -1  -2   17.11    2.15
  -2   1   8   15.26    1.23
  -8   1   2   18.35    1.53
  -8  -2  -1   18.18    1.73
   2  -1   8   17.06    1.85
   2  -8  -1   11.10    1.36
  -8  -1   2   16.78    1.50
   8  -2   1   13.67    1.23
   8   2  -1   16.08    1.53
  -8  -1  -2   16.14    1.78
   8   1   2   19.42    1.66
   8   2   1   15.63    1.53
   2  -8  -2  593.45   19.61
  -2  -2  -8  628.09   21.01
  -8   2  -2  690.82   21.46
   2   8   2  655.95   20.63
   2  -2   8  688.68   20.93
   2   2  -8  638.28   20.42
  -2   2   8  708.29   20.15
  -2   2  -8  633.95   20.60
   2  -8   2  611.39   20.20
  -2  -2  -8  665.67   20.23
   2   2   8  715.52   20.66
  -2  -2   8  633.59   20.48
   2   2   8  630.76   20.82
  -2  -2   8  697.16   20.79
  -2   2  -8  635.29   20.85
  -2   8   2  642.58   20.79
  -8  -2  -2  690.36   20.58
   8   2  -2  607.52   19.88
   8  -2  -2  686.73   20.78
  -8  -2   2  671.07   20.56
  -2  -8   2  729.89   21.02
  -2  -2  -8  618.67   19.39
  -2  -2  -8  580.09   19.41
  -8  -2  -2  660.52   20.58
  -2  -2   8  605.72   19.44
  -8   2   2  646.80   20.51
  -8   2  -2  622.99   20.56
   2  -2   8  605.46   19.33
   8  -2   2  659.86   20.65
  -2  -8  -2  746.27   21.04
   2  -2  -8  685.83   19.44
   8  -2   2  634.44   20.02
   2   8  -2  589.65   20.52
   8   2  -2  654.97   20.48
   2   8   2  579.52   20.48
   8  -2  -2  656.18   20.53
   8  -2   2  668.64   20.92
  -8  -2  -2  658.29   20.73
  -8  -2   2  662.02   20.35
  -2  -8  -2  632.02   20.55
   2  -2  -8  545.41   19.35
  -8  -2  -2  684.47   21.67
   2   8  -2  641.78   20.41
   8   2   2  628.83   20.53
  -2  -2  -8  647.57   20.45
  -3  -8   0    7.12    1.19
  -8   3   0    8.91    1.68
   0   3   8   11.92    1.24
   3  -8   0    5.82    1.04
  -3   0   8    9.03    1.31
   3   0   8    8.08    1.62
   3   8   0    6.33    1.07
  -3   0  -8   12.65    1.58
   0  -8  -3    5.66    1.42
   0  -8   3    9.38    1.35
   0  -8  -3    8.13    0.77
  -8   0  -3    8.30    1.89
   0  -3   8    8.12    1.48
   0  -3   8   10.61    1.45
   0   8   3    8.15    1.68
  -8   0  -3    8.51    1.53
  -3   0  -8   11.25    1.71
   3   8   0    6.91    1.56
   0  -3  -8    8.86    1.75
  -3   0   8    6.97    1.53
   0   3  -8    9.33    1.46
   0   3   8    8.54    1.62
   0   8   3    8.12    1.27
   0   8   3    4.34    1.51
   8   0  -3    9.59    1.56
  -8  -3   0    6.55    1.45
  -8   3   0    4.81    1.44
   0  -8  -3    4.88    1.56
   0  -8   3    7.00    1.59
   0  -3   8    9.46    0.71
   0  -3  -8   11.48    0.81
  -8   0   3    7.23    1.24
  -8   0  -3    7.84    1.31
   8   0   3   10.51    1.53
  -3   0  -8   10.54    0.69
   3   8   0    6.45    1.40
   3  -8   0    6.62    0.89
   0  -3   8    8.93    1.06
  -8   0  -3    8.69    1.48
   8   3   0    9.23    1.36
  -8   0  -3    7.56    1.79
  -8   0   3   11.27    1.39
  -3   0   8    8.76    0.70
  -8  -3   0    8.60    1.49
   8  -3   0    9.03    1.03
   8  -3   0    9.52    1.62
   3   0   8    7.14    1.50
  -3   8   0    6.04    1.95
   3   8  -1    1.15    0.80
  -3  -8  -1    0.28    1.00
   3  -8   1    1.57    0.49
   8   3  -1    1.09    1.08
   3  -1   8    1.52    1.42
   3  -8  -1    1.79    0.77
  -3  -1  -8    1.64    1.11
  -3   1   8    1.45    0.94
   8  -3   1    1.16    0.73
  -3   1  -8    1.03    1.19
  -1  -8  -3   -0.44    1.22
   3  -8   1    0.88    0.86
  -1  -3  -8    3.26    0.85
   1   3   8    1.69    1.00
  -3  -1   8    2.06    1.07
  -8   3  -1    5.47    1.58
   8   3   1    3.10    1.11
   1  -8  -3    1.48    0.51
  -1   3   8    1.82    0.87
   1  -3   8    2.42    1.33
  -8   3   1    0.91    1.30
  -1  -3   8    2.79    1.26
   3   8  -1    1.65    1.07
   3   1   8    3.12    1.27
  -1  -8   3    1.51    1.07
   1   8  -3    0.92    0.89
  -8   1  -3    1.31    1.45
   1  -8   3    1.32    0.98
  -1   8   3    1.32    1.06
   1   8   3    2.32    1.28
   1  -3  -8    1.05    1.33
  -3   1  -8    0.95    1.25
   3   8   1    0.89    1.39
   1   8   3    2.11    0.97
  -1  -3  -8    1.57    1.40
  -1  -3   8    2.80    1.17
   1   3   8    1.54    1.27
   8   3  -1    2.18    1.00
  -8  -1  -3    2.18    1.31
   1   8   3    1.10    1.37
  -3   8   1    1.29    1.14
  -1   3   8    2.86    1.31
  -1  -3  -8    1.38    1.38
  -1   8   3    2.33    1.35
   1   3  -8    2.21    1.10
  -3   1   8    1.90    1.31
  -3  -1  -8    0.94    1.21
   8   1  -3    1.07    0.46
  -3  -1   8    1.69    1.31
   3   8  -1    1.07    1.31
  -1   3  -8    2.64    1.23
  -3   1  -8    1.82    0.66
   3  -8   1    0.81    1.24
  -1  -3  -8    2.08    0.61
  -8   1  -3    2.99    1.17
  -8   1   3    1.74    1.10
   1  -3  -8    2.51    0.58
   8  -1   3    2.49    1.17
   8  -1  -3    2.28    1.26
  -3  -1  -8    1.49    0.57
  -8  -3   1    1.68    1.12
   1  -8  -3    1.13    1.37
   1  -8   3    0.76    1.39
  -8   3   1    1.05    1.18
   8  -3   1    1.55    1.28
  -8  -1  -3    2.06    1.13
  -8  -1   3    1.61    1.08
   1  -3   8    1.63    0.50
   1  -3   8    1.67    0.95
   3  -1   8    1.21    1.42
  -8  -1  -3    4.71    1.77
  -3   1   8    1.70    0.71
  -8  -1  -3    1.30    1.25
  -1   3  -8    2.01    0.52
  -3  -1  -8    3.11    1.12
  -8  -1   3    2.15    0.94
  -3   8   1    1.59    1.44
   1   8  -3    1.36    1.09
  -8   1   3    1.61    0.93
   3   8   1    0.55    1.04
  -8  -3   1    3.48    1.23
  -8  -3  -1    0.73    1.18
   1   8   3    2.12    1.13
   3   1   8    1.49    1.22
   8  -3   1    2.61    1.35
  -1  -3   8    1.15    0.68
   8  -3  -1    2.31    1.21
  -1  -8  -3    1.83    1.38
  -1  -8   3    2.07    1.37
  -2  -8  -3    4.49    1.22
  -8   3   2    1.88    1.29
  -3  -8  -2    4.83    1.18
  -2  -3  -8    2.78    0.96
   2  -8  -3    2.84    0.49
  -8   2  -3    2.74    1.48
  -8   3  -2    2.12    1.39
   3  -2   8    3.72    1.49
  -3   2   8    3.55    1.35
  -2   3   8    2.53    0.83
   2   8   3    3.73    1.34
  -2  -3   8    2.49    1.19
  -3   2  -8    2.27    1.24
   2  -3   8    2.64    1.30
   3  -8  -2    2.50    0.69
   3  -8   2    3.54    1.06
   2   8  -3    4.07    1.05
   3   8  -2    3.71    1.10
   3   8  -2    3.51    0.70
  -3  -2   8    1.46    1.11
   8   3  -2    1.61    1.07
  -3  -2  -8    0.11    1.07
   2  -8   3    3.65    1.06
   3   2   8    3.27    1.22
   8   3   2    1.14    1.18
  -8  -2  -3    2.44    1.25
  -2  -3   8    1.95    1.07
  -8  -3  -2    4.71    1.21
  -3   8   2    4.50    1.33
   2  -3  -8    4.07    1.44
   2   3   8    2.63    1.30
  -2   8   3    2.94    1.23
  -2  -3  -8    3.26    1.38
   8   2  -3    2.56    0.78
   8   3  -2    2.09    0.95
  -2  -3  -8    2.73    1.46
  -3   2  -8    0.08    1.30
  -3  -2  -8    3.31    1.30
  -2   8   3    1.76    1.37
  -3  -2   8    3.31    1.24
  -2   3  -8    1.33    1.15
  -2   3   8    3.68    1.44
   3   8   2    2.48    1.51
   2   3  -8    1.53    0.97
   3  -2   8    2.29    0.59
   3  -8   2    3.27    1.30
   3  -8  -2    3.74    1.34
  -3   2   8    1.78    0.68
  -8   3   2    3.95    1.24
   2  -8   3    4.76    1.24
   2  -8  -3    5.02    1.25
   3  -2  -8    1.86    0.68
  -8   3  -2    2.37    1.17
  -2  -3  -8    2.19    0.66
  -2  -3   8    3.08    0.57
  -2  -3  -8    1.69    0.69
   8  -2   3    2.12    1.14
   8  -2  -3    3.02    1.26
  -8   2  -3    2.84    1.18
  -8   2   3    1.47    1.09
  -8  -3   2    1.07    1.11
  -8  -3  -2    2.21    1.18
   8  -3  -2    2.21    1.34
  -2  -3   8    2.34    0.72
  -8  -2  -3    3.99    1.15
  -8  -2   3    2.70    1.09
   8  -3   2    2.70    1.34
   2  -3   8    2.14    0.58
   2  -3  -8    1.95    0.65
  -3  -2  -8    1.63    0.63
  -3  -2   8    2.62    0.56
  -2  -3   8    2.86    0.60
   3  -2   8    1.94    1.47
  -2  -8  -3    4.03    1.40
   2   8   3    3.11    1.13
   3   8  -2    1.27    1.08
   2   8  -3    2.86    1.16
  -8  -2  -3    1.52    1.66
  -3   8   2    2.54    1.41
  -2  -3  -8    1.64    1.15
  -8  -3   2    0.81    1.12
  -8  -3  -2    2.35    1.31
  -2  -8   3    3.07    1.40
  -8  -3  -2    1.86    1.62
   8  -3   2    0.43    1.34
   8  -3   2    2.26    1.31
   8  -3  -2    2.04    1.11
   2  -3   8    2.56    1.04
  -8  -2  -3    2.60    1.28
   3   8   2    2.74    1.16
  -3   8  -2    4.01    1.53
  -3  -2  -8    1.92    1.11
  -8  -2   3    3.00    1.02
  -3   2  -8    1.82    0.70
   3   8  -3    1.24    1.05
  -8  -3  -3    1.05    0.94
  -3  -8  -3   -0.36    1.22
  -3   3   8    1.42    1.40
   8   3  -3    2.11    1.14
   3  -3   8    3.30    1.41
  -8   3  -3    1.72    1.44
   3  -8   3    1.60    1.08
   3   8  -3    1.28    0.54
  -3   3   8    2.41    0.81
  -3   3  -8    4.01    1.34
  -3  -3   8    3.00    1.27
  -3  -3  -8    1.93    1.03
  -8   3   3    2.22    1.23
   8   3  -3    2.66    0.97
   3   8   3    2.10    1.48
  -3   8   3    1.61    1.26
  -3   3  -8    2.45    1.29
  -3  -3   8    1.80    1.13
  -8  -3  -3    2.50    1.35
   3  -3  -8    3.54    1.38
   3  -8   3    1.34    1.25
   3  -8  -3    1.81    1.22
   3  -3   8    2.35    0.68
  -3  -3   8    3.10    0.67
  -3  -3  -8    3.16    0.75
  -8  -3   3    2.42    1.18
  -8  -3  -3    2.68    1.17
   8  -3   3    3.52    1.31
   3  -3  -8    3.74    0.81
  -8   3   3    1.49    1.19
  -8   3  -3    0.20    1.24
   8  -3  -3    4.00    1.44
  -3   8   3    0.48    1.39
  -3  -3   8    2.37    0.48
  -3   3  -8    3.82    0.84
   3   8   3    2.84    1.09
   3   8  -3    1.94    1.11
  -8  -3   3    1.92    1.05
  -3  -3  -8    1.24    1.20
  -8  -3  -3    1.14    1.31
  -3   8  -3    3.35    1.53
   8  -3  -3    1.08    1.06
   3  -3   8    1.74    1.08
   8  -3   3    1.98    1.53
  -8  -3  -3    3.52    1.85
  -3   3   8    2.04    0.81
   4   0   8 1251.17   38.17
   4  -8   0 1105.33   37.05
  -8   4   0 1237.92   37.96
   0   8   4 1237.50   38.34
  -4   0  -8 1227.93   37.85
   0  -8  -4 1133.12   36.37
   0  -8   4 1166.25   37.47
  -4   0   8 1250.37   37.32
  -4  -8   0 1154.36   37.34
   0  -4   8 1218.52   37.77
   0   4   8 1191.94   38.08
  -8   0  -4 1093.29   38.11
  -4   0  -8 1229.64   38.25
   0  -4  -8 1134.94   38.50
   0   8   4 1117.46   38.37
  -4   0   8 1181.82   38.14
   0   4  -8 1164.70   37.61
   8   4   0 1229.08   37.82
   0   8   4 1291.90   37.66
   4   8   0 1244.78   38.38
  -8  -4   0 1087.40   37.57
   0  -4   8 1172.90   36.67
  -8   0   4 1238.00   37.39
  -8   0  -4 1189.66   37.52
   0  -8   4 1275.36   38.02
   8   0  -4 1350.95   37.85
   0  -8  -4 1287.18   38.01
   0  -4  -8 1345.65   36.79
  -4   0   8 1174.58   36.67
  -4   0  -8 1175.71   36.82
  -4   8   0  899.71   38.16
   8   0   4 1257.90   37.55
  -4   0  -8 1234.21   36.63
   0   4   8 1161.91   36.63
   0   4  -8 1202.04   36.63
   4   8   0 1008.06   37.41
   8   4   0 1156.24   37.66
   8  -4   0 1239.90   37.98
  -8   0   4 1244.08   37.29
   8  -4   0 1189.27   37.73
   0  -4   8 1183.11   37.01
  -8   0  -4 1200.16   37.78
   4   0   8 1277.89   38.27
  -4   0   8 1224.95   36.68
   4  -8   0 1193.48   36.78
   0   8  -4 1178.05   36.95
   1   8  -4    5.48    1.08
  -1  -4   8    1.74    1.32
   8   4  -1    3.36    1.24
  -4   1  -8    1.61    1.35
  -8  -1  -4    3.45    1.02
  -4  -8  -1    5.15    1.19
   8   4   1    3.01    1.27
   4   1   8    2.54    1.50
  -8   1  -4    4.13    1.76
   4  -8   1    4.97    1.12
  -4   1   8    5.82    1.41
  -8   4  -1    3.69    1.45
   4  -8  -1    3.82    0.91
   4   8  -1    5.18    1.34
  -1  -4  -8    2.86    0.80
  -1  -8  -4    4.45    1.47
   1   4  -8    3.59    1.10
  -4   1   8    4.71    1.07
   8  -4   1    2.68    0.76
   1  -8   4    2.76    1.22
  -1  -8   4    3.16    1.27
   1  -4   8    4.65    1.36
  -8   4   1    4.74    1.43
  -4  -1  -8    1.64    1.35
   4  -1   8    3.47    1.62
  -4  -8  -1    3.28    0.76
   8   1  -4    2.26    0.63
   4   8  -1    6.52    1.69
   4   8   1    6.64    1.86
   1  -4  -8    1.91    1.45
   1   8   4    4.41    1.79
  -1   8   4    3.58    1.63
  -1  -4  -8    4.71    1.60
  -8  -1  -4    2.58    1.54
  -4   1   8    4.20    1.62
  -1   8   4    2.80    1.70
  -4  -1   8    3.57    1.41
   8   4  -1    1.31    1.30
  -4   8   1    5.05    1.29
   1   8   4    4.45    1.25
   1   4   8    3.55    1.50
  -1  -4  -8    3.79    1.78
  -1   4  -8    1.69    1.26
  -1   8   4    4.24    1.33
  -4   1  -8    3.01    1.46
   1   8   4    6.77    1.61
  -4  -1  -8    4.37    1.49
  -1   4   8    5.16    1.49
  -1  -4   8    7.12    1.22
  -4   1  -8    0.48    0.89
  -4   1   8   -0.05    0.93
  -8  -4   1    3.66    1.29
  -1  -8   4    2.27    1.55
  -8  -1  -4    2.36    1.23
   8  -1   4    2.79    1.24
   8  -1  -4    4.74    1.45
  -4  -1  -8    1.25    0.74
  -4  -1   8    2.95    0.70
  -8   1  -4    2.43    1.28
  -8   1   4    3.54    1.23
  -1  -8  -4    2.85    1.49
   1  -8   4    1.68    1.48
   1  -4  -8   -0.91    0.97
   1  -4   8    1.03    0.80
   8  -4   1    2.69    1.45
  -8   4   1    4.28    1.38
   4  -8   1    5.74    1.49
  -8  -1   4    2.98    1.29
   8  -4  -1    2.86    1.35
   8  -4   1    3.59    1.53
  -4   1   8    3.18    0.68
  -8  -1  -4    4.80    1.80
  -8   1   4    1.04    0.90
   1  -4   8    4.84    1.10
  -1   4   8   -0.38    0.87
  -4  -1  -8    1.38    0.73
  -4  -1   8    2.26    0.81
  -8  -1   4    4.66    0.97
   4   8   1    4.50    1.25
  -8  -4   1    4.58    1.42
  -8  -1  -4    1.87    1.44
  -4  -1  -8    4.26    1.34
   4  -1   8    3.40    1.70
   1   8  -4    4.67    1.32
   8  -4   1    3.81    1.47
   1   8   4    3.90    1.23
  -4   8   1    2.53    1.64
  -1   4  -8   -0.43    0.86
   4   8  -2    4.03    1.25
   8   4  -2    6.54    1.42
  -4  -8  -2    3.89    1.20
  -8   4  -2    5.45    1.62
  -8   4   2    8.25    1.42
  -8  -2  -4    7.11    1.16
   4  -2   8    7.37    1.63
  -2  -4  -8    7.59    1.07
   4  -8   2    4.48    1.15
   2   8   4    5.88    1.55
   8  -4   2    5.92    0.86
  -2   4   8    4.94    1.68
  -4   2   8    7.05    1.10
  -8   2  -4    7.00    1.89
  -2  -4   8    6.69    1.51
   2  -4   8    7.56    1.56
  -4  -2  -8    7.86    1.49
   2  -8   4    6.29    1.31
  -4   2  -8    7.35    1.54
   2   8  -4    6.53    1.17
  -2   4   8    4.88    0.69
  -8  -2  -4    5.60    1.79
  -2  -8  -4    5.19    1.45
   8   4   2    3.72    1.30
   2   4  -8    7.18    1.12
  -4   2   8    8.25    1.62
  -4  -8  -2    5.84    0.96
  -2   8   4    3.86    1.38
  -2  -4  -8    4.99    1.71
   8   2  -4    5.39    0.86
  -4   8   2    3.89    1.31
  -2   8   4    3.08    1.47
   2  -4  -8    6.89    1.55
   4   8  -2    2.88    1.59
  -4  -2   8    6.76    1.44
   2   8   4    3.23    1.20
   2   4   8    5.48    1.55
  -2   8  -4    5.68    0.96
   8   4  -2    6.09    1.24
  -2  -4  -8    7.37    1.47
  -2  -4   8    6.00    1.25
  -4   2  -8   11.00    1.82
   4   8   2    4.26    1.68
  -8  -2  -4    7.01    1.75
  -2   4  -8    7.09    1.46
  -2   4   8    7.11    1.65
   2  -8   4    6.98    1.45
   2  -8  -4    6.11    1.43
  -4  -2  -8    8.91    0.98
  -4  -2   8    7.31    0.83
  -8  -4   2    7.69    1.43
  -8  -4  -2    8.28    1.44
   8  -2  -4    6.39    1.43
  -4   2   8    5.14    1.06
   2  -4   8    7.15    0.85
   2  -4  -8    8.22    0.96
  -8   2   4    5.40    1.28
  -8   2  -4    5.77    1.33
   4  -2  -8    8.39    0.99
   8  -2   4    6.95    1.40
  -4   2  -8    5.80    1.10
  -2  -4   8    7.74    1.08
  -8  -2  -4    8.20    1.37
  -8  -2   4    7.06    1.31
   8  -4   2    7.28    1.56
   8  -4  -2    5.34    1.56
   4  -8   2    6.08    1.50
   4  -8  -2    4.29    1.45
  -2  -4  -8    6.46    1.01
  -8   4   2    3.94    1.34
  -8   4  -2    4.67    1.44
   4  -2   8    7.35    0.87
   8  -4   2    7.28    1.58
  -8  -2   4    8.04    1.15
  -4  -2  -8    7.96    0.91
   8  -4  -2    7.51    1.43
   2  -4   8    5.64    1.21
   4   8  -2    6.12    1.35
  -4  -2   8    6.08    0.91
   2   8   4    2.99    1.19
   2   8  -4    5.77    1.32
  -8  -2  -4    6.88    1.96
  -8  -4  -2    4.78    1.30
   4   8   2    5.68    1.26
  -4   8   2    4.13    1.61
  -2  -8   4    5.35    1.60
   8  -2   4    7.14    1.91
  -8  -4   2    5.70    1.44
   8  -4   2    7.19    1.62
  -8  -2  -4    5.94    1.67
  -4   8  -2    6.83    1.71
  -4  -2  -8    6.32    1.48
   4  -2   8    5.05    1.71
  -2  -8  -4    5.54    1.54
  -8  -3  -4    5.96    1.91
  -3  -8  -4    3.01    1.40
   4  -3   8    5.32    1.64
  -8   4   3    4.55    1.32
  -4   3   8    3.45    0.95
   4   8  -3    0.06    1.39
   8   4  -3    4.17    1.33
  -4  -8  -3    2.33    1.35
  -8  -4  -3    1.70    1.09
  -8  -3  -4    5.74    1.26
   4  -8   3    3.94    1.26
   3  -4   8    4.42    1.64
  -4   3  -8    6.07    1.63
   3   8  -4    3.26    1.26
  -8   3  -4    3.79    1.78
  -8   4  -3    4.59    1.69
   3  -8   4    2.41    1.35
  -4  -3  -8    4.95    1.39
  -3  -4   8    4.16    1.49
  -3  -4  -8    3.80    1.20
  -3   4   8    2.71    0.71
  -4  -8  -3    3.37    1.04
   4  -3  -8    3.60    1.38
  -3   4   8    2.94    1.73
   3   8   4    3.52    1.84
  -3   8   4    3.90    1.58
  -8  -3  -4    4.16    1.78
  -3  -4  -8    4.50    1.93
   4   8   3    2.18    1.81
   3  -4  -8    6.29    1.62
   8   3  -4    4.70    1.06
  -4   8   3    0.96    1.32
  -4   3  -8    4.22    1.66
  -3  -4   8    2.01    1.14
  -3   4  -8    5.02    1.50
   8   4  -3    3.13    1.19
  -4  -3  -8    6.19    1.59
  -8  -4  -3    3.10    1.52
  -4   3   8    2.49    1.65
  -4  -3   8    5.82    1.41
  -3   8   4    3.52    1.52
  -3  -4  -8    3.27    1.40
  -3   4   8    3.74    1.66
  -4   3  -8    5.01    1.19
  -3  -4   8    3.74    0.88
  -3  -4  -8    3.28    1.02
  -8  -4   3    3.94    1.35
  -8  -4  -3    5.10    1.44
   4  -3   8    4.71    0.90
  -4  -3  -8    5.17    1.02
   4  -3  -8    5.98    1.10
  -4  -3   8    3.54    0.82
   8  -3   4    3.93    1.38
   8  -3  -4    3.92    1.46
  -8  -3   4    4.71    1.40
  -8  -3  -4    3.61    1.38
   3  -8   4    1.64    1.42
   3  -4  -8    6.03    1.04
  -8   3   4    2.07    1.35
  -8   3  -4    4.82    1.51
   8  -4   3    5.00    1.57
   8  -4  -3    5.38    1.57
  -4   3   8    3.43    1.08
   4  -8   3    3.02    1.50
   4  -8  -3    4.35    1.57
  -8   4   3    5.24    1.53
  -8   4  -3    4.14    1.53
   3  -4   8    5.19    0.93
   3  -8  -4    4.05    1.54
   8  -4  -3    4.24    1.35
  -8  -3  -4    5.46    2.12
   4  -3   8    5.78    1.86
   3   8   4    3.39    1.25
  -8  -4  -3    3.57    1.40
  -8  -4   3    5.06    1.56
   3   8  -4    3.51    1.27
   4   8   3    4.26    1.21
   4   8  -3    3.28    1.27
  -4   8   3    2.79    1.63
  -8  -3  -4    3.11    1.38
  -8  -3   4    2.18    1.51
  -4   8  -3    2.30    1.66
  -8  -3   4    4.78    1.12
   8  -3  -4    2.73    1.14
   4  -3   8    2.92    1.29
  -4  -3  -8    4.32    1.51
  -8  -3  -4    2.36    1.57
  -8  -4  -3    4.62    2.06
   8  -3   4    5.93    1.94
   8  -4   3    4.49    1.77
   3  -4   8    3.99    1.34
  -8   4   4  800.11   24.93
  -8  -4  -4  743.43   26.31
   4  -4   8  814.91   25.83
   4  -8   4  734.37   25.21
  -4   4   8  822.47   24.20
  -4  -4  -8  829.04   25.45
  -8   4  -4  796.21   26.24
  -4   4   8  824.93   26.16
  -4  -4  -8  755.86   25.83
   4   8   4  785.95   26.65
  -4   8   4  792.16   25.69
  -4  -4   8  760.89   25.17
  -4  -4  -8  758.42   25.66
   4  -4  -8  747.47   25.45
  -4   4  -8  820.33   25.96
  -4   4   8  835.09   26.28
  -4  -8  -4  722.90   24.93
  -8  -4  -4  830.14   26.24
   8   4  -4  736.38   25.00
  -8  -4  -4  671.43   25.38
   4  -4   8  791.85   24.54
  -8  -4   4  787.61   25.18
  -8  -4  -4  737.16   25.26
  -8   4  -4  785.81   25.62
  -4   8   4  712.67   25.88
   8  -4   4  828.21   25.45
   8  -4  -4  894.65   25.70
   4  -4  -8  881.37   24.81
  -4   8  -4  708.07   26.03
  -8   4   4  813.66   25.46
  -4  -4  -8  794.72   24.76
  -4   4   8  765.11   24.89
  -4   4  -8  770.56   25.00
   4  -8  -4  856.68   25.44
   4  -8   4  788.58   25.33
  -4  -4   8  730.58   24.41
   4   8   4  713.66   25.06
   4  -4   8  767.32   25.32
  -8  -4  -4  839.98   25.33
  -8  -4   4  880.66   25.54
   4   8  -4  695.72   25.07
  -8  -4  -4  779.55   25.26
  -4  -8  -4  725.32   25.53
   8  -4  -4  802.64   25.15
   8  -4   4  825.61   26.34
   4   8  -4  806.62   25.28
  -4  -4  -8  785.10   26.29
   8   5   0    9.49    1.58
   5  -8   0   13.44    1.49
  -8   5   0   14.12    1.93
   0   8   5   15.45    2.19
   0  -5   8   13.76    1.88
   0  -8   5   12.62    1.73
  -5   0  -8   10.12    1.93
   5   0   8    8.20    1.97
   8   5   0    9.86    1.77
  -5   0  -8    8.29    1.83
   0   8   5   13.72    1.78
   5   8   0   16.71    2.34
   0  -5  -8   10.09    2.11
   8   0  -5    6.64    0.57
   0   5   8   11.04    1.92
   8   0  -5    7.17    0.60
  -5  -8   0   10.39    0.93
  -5   8   0   18.69    1.64
  -5   0   8   13.13    2.15
  -8   0  -5    9.49    1.88
   0   8   5   14.37    2.34
   8   0  -5   11.17    1.78
   0  -5   8    9.77    1.15
   0  -5  -8    9.77    1.21
  -8  -5   0    8.11    1.78
   0  -8   5   13.87    2.08
  -8   0   5   13.19    1.56
  -8   0  -5   13.92    1.71
  -5   0  -8    7.75    1.20
  -5   0   8    9.88    1.12
  -5   8   0    8.56    2.25
   0  -8  -5   12.40    1.95
   8   0   5   13.15    1.70
   0   8  -5   12.89    1.73
   0   5  -8    7.92    1.08
   8  -5   0   10.31    1.84
   0   5   8    9.77    1.10
   0   8  -5   14.00    1.32
  -5   0  -8    8.73    1.62
   5   0   8   14.13    2.20
   5  -8   0   12.73    1.12
   5   8   0   14.31    1.84
  -8   0  -5   12.28    1.30
   8  -5   0    9.42    1.64
   0   8   5   12.49    1.71
  -1  -8  -5    2.10    0.73
   5  -1   8    2.62    1.66
  -8   1  -5    3.61    0.92
  -1  -5   8    2.63    1.52
  -8   5   1    5.48    1.49
   1   8   5    1.17    1.62
   8   5  -1    2.48    1.33
  -8  -1  -5    3.26    1.06
  -8   5  -1    4.68    1.64
   5  -8   1    2.12    1.12
  -1  -5  -8    4.75    0.80
  -5  -8  -1    3.14    1.20
  -1  -8   5    3.06    1.40
   1   8  -5    1.09    1.00
  -1   8  -5    2.23    0.79
  -5   8  -1    2.46    1.27
  -5  -1  -8    5.61    1.64
   1  -5   8    2.62    1.53
  -8  -1  -5    5.08    1.91
   8  -5   1    1.77    0.67
   1  -8   5    2.88    1.38
  -5   1  -8    3.38    1.61
   5   8  -1    2.45    1.38
   8   5   1    2.54    1.30
  -1   5  -8    5.33    1.33
   8   5   1    3.22    1.51
   5   8   1    0.53    1.73
  -5  -1   8    1.91    1.51
  -1   8   5    1.13    1.70
  -5   1   8    3.59    1.65
   5   8  -1    0.48    1.56
  -8  -1  -5    2.39    1.68
  -5   8   1    1.63    1.16
  -1  -8  -5    2.69    1.74
  -5  -1  -8    5.35    1.70
  -1   8   5    2.76    1.82
  -8   5   1    2.87    0.79
  -1  -5  -8    3.70    1.85
   1   8   5    1.20    1.32
   1   5   8    2.62    1.55
  -5   1  -8    3.38    1.58
   1  -5  -8    3.08    1.61
   8   5  -1    2.70    1.45
   1   8   5    1.89    1.88
  -5   1   8    3.25    1.46
  -5  -8   1    1.94    0.53
  -1   8   5    2.22    1.37
  -5  -8  -1    2.65    0.82
  -1   5   8    2.61    1.61
  -1   8  -5    2.48    0.79
  -8   5   1    2.66    1.52
  -5  -1  -8    3.52    0.97
  -5  -1   8    3.07    0.94
   8  -1  -5    1.48    1.40
  -8   1   5    3.03    1.28
  -8  -5   1    2.33    1.36
  -1  -5  -8    2.31    1.10
  -8   1  -5    1.63    1.32
  -1  -8  -5    2.14    1.51
   8  -1   5    1.16    1.33
  -8  -1  -5    2.21    1.32
  -1  -5   8    2.33    1.20
  -5   8   1    0.94    1.73
   5  -8   1    1.59    1.45
  -1  -8   5    1.18    1.58
   1  -5   8    3.84    1.00
   1  -5  -8    4.54    1.04
   8  -5   1    3.06    1.56
  -5   1   8    3.72    1.01
  -5   1  -8    3.61    1.06
  -8  -1   5    2.39    1.21
  -8  -1  -5    4.45    1.97
   8  -5   1    4.89    1.60
  -1   5   8    2.93    0.96
  -5  -1  -8    4.02    1.45
   8  -5  -1    3.70    1.42
   1   8   5    1.35    1.29
  -8  -5   1    3.39    1.45
  -5  -1  -8    4.20    0.93
  -5  -1   8    3.92    1.00
   1   5   8    3.01    0.89
   1   5  -8    2.87    0.87
   1  -5   8    5.56    1.24
   1   8  -5    0.73    1.15
   8  -5  -1    3.31    1.25
  -8   1   5    4.38    0.97
   5  -1   8    6.35    1.91
   8  -5   1    3.15    1.43
  -1   5  -8    3.30    0.98
  -8   2  -5   51.97    3.68
  -8  -5   2   49.88    2.05
  -2   5   8   51.22    3.65
  -2  -8  -5   44.12    2.35
   5  -2   8   55.00    3.51
  -8  -2  -5   49.93    3.65
   5  -8   2   45.95    2.77
  -8   5   2   60.28    2.95
   2   5  -8   52.96    2.60
  -5   2   8   47.09    3.25
  -8   5  -2   54.72    3.41
   2  -5   8   49.77    3.32
  -2   8   5   54.47    3.78
  -5  -2  -8   56.52    3.39
   2  -8   5   46.87    2.97
  -2  -5  -8   57.68    2.54
  -5   2  -8   57.91    3.49
  -2  -5   8   51.63    3.16
  -5   2   8   56.67    2.55
  -5   8  -2   52.45    3.04
  -2  -8   5   56.12    3.11
   5  -2  -8   52.54    2.98
   2   5   8   57.04    3.40
  -2  -5   8   51.65    2.74
  -5  -2  -8   42.63    3.47
  -5   2  -8   56.36    3.56
  -2   8   5   46.68    3.41
  -2   8  -5   43.03    2.39
  -2   8   5   48.63    3.19
  -8  -2  -5   43.44    3.54
  -2   5   8   58.18    3.58
  -2   5  -8   57.47    3.13
  -5  -8  -2   45.31    2.44
   5   8   2   44.81    3.64
  -2  -5  -8   55.09    3.95
  -5  -2   8   51.19    3.25
   2  -5  -8   54.41    3.52
  -5   2   8   52.93    3.59
  -2  -5  -8   52.17    3.32
  -5   8   2   46.80    2.90
   8   5  -2   49.93    3.10
   2   8   5   50.65    2.98
   5   8  -2   52.38    3.47
  -2  -8  -5   42.97    3.47
  -2  -8   5   56.51    3.26
  -8   5   2   55.46    3.27
  -8  -2  -5   47.31    2.87
  -8  -2   5   52.17    2.82
  -8   5  -2   55.08    3.34
   2  -8   5   51.79    2.91
   2  -8  -5   54.79    2.97
   8  -5   2   56.29    3.31
   8  -5  -2   58.18    3.41
  -5  -2  -8   57.08    2.60
  -5  -2   8   51.62    2.33
   8  -2   5   51.57    2.94
  -2  -5  -8   58.70    2.71
   8  -2  -5   56.58    3.18
  -2  -5   8   57.22    2.74
   2  -5   8   51.51    2.47
   2  -5  -8   61.33    2.63
  -5   8   2   49.27    3.66
  -5   8  -2   44.24    3.63
  -8   2   5   44.56    2.80
  -8   2  -5   47.64    2.99
   5  -8   2   51.74    3.13
   5  -8  -2   58.00    3.24
  -2  -8  -5   51.45    3.18
   5  -2   8   53.06    2.45
   5  -2  -8   57.83    2.72
  -8  -5   2   52.98    3.09
  -8  -5  -2   51.25    3.09
  -5  -2   8   59.10    2.57
   5   8  -2   51.75    3.13
  -5  -2  -8   56.51    2.47
   2   8   5   40.54    2.71
   2   8  -5   43.09    2.78
  -8  -5  -2   55.07    3.08
  -8  -5   2   56.50    3.19
  -5  -2  -8   53.52    3.26
   8  -5   2   57.84    3.41
  -8  -2   5   51.36    2.37
   8  -5  -2   59.99    3.22
   2  -5   8   56.74    2.90
   8  -2   5   61.15    4.03
   8   5   2   49.99    3.21
   8  -5   2   50.65    3.37
  -8  -2  -5   48.96    2.78
   5  -2   8   53.15    3.69
  -2  -8  -5   42.52    3.30
  -2  -5  -8   60.49    3.46
  -5  -8  -2   44.21    2.87
   2   8  -5   46.79    2.67
   5   8  -3   -0.29    1.39
  -8  -3  -5   -1.12    1.93
  -5  -8  -3   -0.44    1.30
  -8  -3  -5    2.02    1.21
  -8  -5  -3    3.60    1.29
   5  -8   3    2.28    1.33
  -5   3  -8    0.81    1.78
   3   8  -5    1.81    1.26
  -5  -3  -8    0.19    1.68
   3  -5   8    2.21    1.67
   5  -3   8    2.36    1.67
  -5  -3  -8    0.81    1.47
  -8   3  -5    1.44    1.72
   3  -8   5    0.63    1.41
  -8   5  -3    1.60    1.69
  -3  -5  -8    2.77    1.24
  -3  -5   8    1.80    1.46
  -5   8  -3    2.31    1.56
  -8   5   3    1.89    1.23
  -3  -8  -5    0.19    1.62
  -3  -5  -8    0.65    1.41
  -3  -5  -8    0.28    1.64
  -5  -3  -8   -0.13    1.67
  -8  -3   5    1.65    0.84
  -3   8   5    1.86    1.70
  -3  -8  -5    1.41    1.85
   5   8   3    0.12    1.94
   5  -3  -8    2.73    1.36
  -8  -3  -5    1.96    1.38
   8   5  -3    0.56    1.25
  -3   8  -5    1.10    1.17
  -5   3  -8    0.98    1.73
  -3  -5  -8    1.56    1.77
  -3  -5   8    2.09    1.14
  -3   5   8    1.92    1.83
  -3   8   5    1.88    1.55
  -3   5  -8    2.01    1.51
  -5  -3  -8   -0.09    1.51
  -5   8   3    1.67    1.48
  -8  -5  -3    1.83    1.64
   3  -5  -8    1.27    1.48
  -5  -8  -3    1.06    1.09
  -3   8   5    6.97    2.12
  -8  -3  -5   -1.64    2.21
  -3   5   8    2.60    1.81
  -5  -3   8    3.13    1.53
  -5   3   8    2.55    1.80
  -8   5   3    0.64    1.46
   3  -5   8    0.76    1.03
   3  -5  -8    0.57    1.13
  -8   5  -3    2.20    1.57
  -8  -5   3    1.23    1.40
  -8  -5  -3    1.31    1.39
   5  -3  -8    0.26    1.09
  -5   3   8   -1.39    1.41
   8  -3   5    2.60    1.49
   8  -3  -5    2.39    1.58
  -8  -3   5    0.51    1.26
  -8  -3  -5    0.84    1.35
   5  -8   3    0.91    1.55
   5  -8  -3    0.55    1.48
  -5  -3  -8    0.72    1.16
  -5  -3   8   -0.07    1.00
  -5   3  -8   -0.67    1.60
  -8   3   5    1.27    1.42
  -8   3  -5    1.11    1.44
   8  -5   3    2.45    1.56
   8  -5  -3    1.28    1.58
   5  -3   8    1.60    1.02
   3  -8   5    0.06    1.38
   3  -8  -5    0.25    1.42
   3   8  -5    1.69    1.19
  -3  -5  -8    1.96    1.62
  -3  -5   8    3.04    1.26
   3  -5   8    1.87    1.42
  -5  -3  -8    2.26    1.01
   8  -5  -3    1.37    1.31
  -5  -3   8    1.36    1.14
  -3  -8   5    3.91    1.71
  -8  -5  -3    2.62    1.55
  -8  -5   3    2.52    1.63
   3   8   5    2.18    1.26
   5  -3   8    0.85    1.78
  -8  -3  -5    0.51    1.30
  -8  -3   5    0.39    1.44
  -3  -8  -5    3.79    1.64
   5  -3   8   -0.97    1.60
   8  -3   5    0.85    1.61
  -5  -3  -8    0.91    1.56
  -8  -3   5    1.04    0.97
   8  -3   5    1.14    1.83
  -5   8   3    2.94    1.75
  -5   8  -3    3.30    1.80
  -3  -5  -8    3.87    1.19
   8  -5   3    3.18    1.83
  -4  -8  -5   12.38    1.97
  -8  -4  -5    9.82    1.68
   5  -8   4    9.27    1.79
   4  -5   8   11.83    2.05
   5  -4   8   14.90    2.13
   4  -8   5   12.75    1.87
  -5  -4  -8   10.69    1.86
  -8   5   4    9.93    1.38
  -4  -5  -8   10.52    1.74
  -8   4   5    9.65    1.47
  -5   4   8   11.46    1.06
  -8   4  -5   12.77    2.31
  -5  -4  -8    7.29    1.92
  -8   5  -4    9.61    2.12
  -5   8  -4   15.26    1.99
  -5  -8  -4   12.56    1.88
  -8  -4  -5   11.05    2.21
  -5   8   4   15.79    2.04
  -4   8  -5   16.02    1.76
  -5   4   8   12.84    2.47
   4  -5  -8    8.61    1.73
  -4   5   8   10.90    2.23
  -4  -5   8   13.36    1.56
   5   8   4   15.74    2.71
  -4  -8  -5   13.77    1.72
  -8  -4  -5   11.96    2.47
  -5  -4  -8    8.88    2.34
  -4  -5  -8    9.07    1.91
  -8  -5  -4   10.48    1.73
  -8  -4  -5   10.19    1.83
  -5   4  -8    8.69    2.06
  -4   5  -8   10.22    1.95
  -8  -5  -4   10.70    2.14
   8   5  -4   12.26    1.73
   5  -4  -8    8.54    1.58
  -5  -4  -8    7.86    1.83
  -5  -8  -4    9.91    1.53
  -4   8   5   13.85    2.21
   4   8   5   12.35    2.52
  -5  -4   8   12.04    1.72
  -4  -5  -8    8.87    1.75
  -5   4   8    9.32    2.13
  -5  -4  -8   11.72    2.02
  -4   5   8   12.00    2.29
   4  -5  -8   10.67    1.47
  -8  -4  -5   13.36    1.79
   4  -5   8    9.65    1.34
  -8   5  -4   12.98    2.20
  -8   4   5   16.53    1.93
  -8   4  -5   13.79    1.99
  -4  -5   8    6.10    1.20
  -4  -5  -8    7.48    1.45
  -5  -4  -8   10.56    1.47
  -4   8  -5   15.49    2.20
   8  -5   4   12.03    2.01
  -8  -5  -4    8.61    1.73
  -8  -4   5   10.43    1.63
  -5   4   8    9.49    1.77
   5  -4   8   10.20    1.39
   5  -8   4   11.73    2.02
   5  -8  -4   13.15    2.10
  -5  -4   8    8.97    1.24
   8  -4   5   11.30    1.82
   8  -4  -5   12.49    1.98
   5  -4  -8   10.16    1.47
  -8   5   4   12.76    2.03
  -5   4  -8    8.42    1.75
   8  -5  -4   12.17    2.04
  -8  -5   4    6.91    1.70
   4  -8   5   15.06    1.94
   4  -8  -5   16.05    1.96
  -5   8   4   14.95    2.23
  -4  -5  -8   10.15    2.23
   4  -5   8   10.41    1.81
  -5  -4  -8   12.01    2.41
  -8  -4  -5   15.98    1.89
  -8  -4   5   13.72    1.90
   4   8  -5   15.95    1.89
  -8  -5  -4   12.77    1.65
   8  -5  -4    7.65    1.57
   8  -4  -5   11.92    1.52
  -8  -5  -4   14.05    1.97
  -8  -5   4   13.91    2.04
   8  -5   4   11.51    2.30
  -4   5  -8    7.75    1.57
   5  -4  -8    7.87    0.85
  -4   5   8    8.59    1.61
  -5   4  -8    9.43    1.26
  -5  -4  -8   10.75    2.04
   5   8  -4   13.33    1.80
   8  -4   5   10.14    2.40
   8  -4   5   12.46    2.07
   5  -4   8   11.47    1.88
  -5   8  -4    9.28    2.26
   5  -4   8   14.14    2.43
  -4   8   5   11.66    2.09
  -8  -5  -5    5.02    1.51
  -8   5   5    5.56    1.14
  -5   5  -8    6.41    0.90
   8   5  -5    6.64    1.68
   5  -8   5    3.11    1.62
  -5  -8  -5    1.11    1.43
  -8   5  -5    7.10    2.11
  -5  -5  -8    6.78    1.68
  -5  -5  -8    4.84    1.90
  -8  -5  -5    6.77    1.72
  -5   5  -8    8.52    2.01
   5   8  -5    3.09    1.56
  -8  -5  -5    4.64    1.89
  -5   5   8    6.47    2.09
  -5  -8  -5    4.86    2.02
  -5   5   8    5.24    2.06
   5  -5  -8    6.01    1.52
  -8  -5  -5    4.41    1.61
  -5   5  -8    6.87    1.99
  -5  -8  -5    5.10    1.44
  -8  -5  -5    6.65    2.10
  -5  -5  -8    5.52    2.35
  -5  -5   8    5.74    1.41
  -5  -5  -8    5.22    1.77
  -5  -5  -8    5.84    1.77
  -8   5   5    6.12    1.85
  -8   5  -5    1.79    1.72
  -5  -5  -8    5.85    1.38
  -5  -5   8    5.27    1.17
  -8  -5  -5    7.21    1.66
  -8  -5   5    5.14    1.53
  -5   5   8    4.03    1.55
   5  -8   5    3.84    1.71
   5  -8  -5    2.96    1.68
   8  -5   5    5.55    1.74
   8  -5  -5    4.44    1.79
  -5   5  -8    5.65    1.57
   5  -5   8    6.39    1.33
   5  -5  -8    7.31    1.47
  -5   8   5    5.56    1.88
   8  -5  -5    6.21    1.42
  -5   8  -5    4.80    1.90
   8  -5   5    7.09    2.30
  -8  -5  -5    4.53    1.70
  -8  -5   5    5.47    1.82
   5  -8  -5    2.69    0.62
   8  -5   5    5.57    1.99
  -8  -5  -5    4.17    2.36
  -5  -5  -8    5.51    2.16
   5  -5   8    5.31    1.75
   8   6   0    5.91    1.61
   0  -6   8    6.33    1.66
   0  -8   6    8.28    1.65
  -8   6   0    9.51    1.71
  -8   0  -6   11.42    2.26
  -6   8   0   10.21    1.49
  -8  -6   0    8.48    1.13
  -6   0  -8   11.86    2.04
   6   8   0    7.30    1.73
  -6   0   8   10.48    1.64
  -6   0  -8   12.83    1.77
   6   8   0    4.49    1.91
   0  -8  -6   11.30    2.06
  -6  -8   0    8.91    0.97
  -6   8   0    7.39    1.36
   0  -6  -8   10.34    2.04
  -6   0  -8    9.83    1.90
   0   6   8    6.68    1.75
   0   8   6    8.78    1.80
  -8   6   0    8.30    1.06
   0   8   6   10.12    2.01
   8   6   0    7.53    1.76
   0  -6   8    7.50    1.23
  -8  -6   0    7.47    1.80
  -8   0  -6    7.90    1.51
  -8   0   6    8.70    1.45
   0  -6  -8   11.27    1.35
  -6   0  -8    9.14    1.36
   0  -8  -6    6.00    1.74
   0  -8   6    7.53    1.84
  -6   0   8   10.26    1.29
   0   8   6    6.00    1.41
   0   8  -6    7.09    1.53
   0   6   8    9.02    1.19
   8  -6   0    8.40    1.75
   8  -6   0   10.91    1.67
  -8   0  -6   11.24    1.39
  -8   0  -6    8.70    1.71
   0   6  -8   10.83    1.30
   0   8  -6    8.77    1.08
  -1   8  -6    2.36    0.83
   6   8  -1    1.41    1.43
   6  -8   1    1.72    1.20
  -1  -8  -6    2.64    0.60
  -8  -1  -6    3.59    1.23
  -8   1  -6    4.23    1.07
  -1  -6   8    3.80    1.62
   1   8   6    3.97    1.84
  -8  -1  -6    3.28    1.88
   1  -8   6    0.50    1.41
   8  -6   1    1.48    0.59
  -1  -8   6    1.79    1.45
  -1  -6  -8    3.70    0.67
  -6   8  -1    3.53    1.38
  -8   6   1    3.03    1.38
  -6  -1  -8    4.03    1.74
  -6   8   1    5.14    1.22
  -6  -1  -8    3.53    1.52
  -8   6  -1    2.05    1.57
   1  -6   8    1.26    1.55
  -6   1  -8    3.78    1.79
   8   6   1    1.20    1.35
   6  -1   8    2.49    1.74
  -6   1  -8    3.70    1.35
   1   8  -6    1.83    1.04
  -6  -1   8    2.54    1.62
  -8  -1   6    3.69    1.30
  -8  -1  -6    0.23    1.64
   1  -6  -8    3.27    1.73
  -1  -6  -8    2.15    1.84
   1  -8  -6    3.27    1.58
  -8  -6   1    2.57    0.80
  -8   6   1    1.59    0.94
  -1   6  -8    3.41    1.31
   1   8   6    0.55    1.42
   1   6   8    2.48    1.66
  -6   1  -8    1.10    1.55
  -6  -8   1    2.01    0.72
  -1  -8  -6    2.23    1.71
   8  -1  -6    0.35    0.60
   6   8  -1    1.65    1.67
  -1   8   6   -0.44    1.78
  -6  -8  -1    2.63    0.90
   6   8   1    0.59    1.87
  -1   6   8    2.26    1.64
  -8  -6  -1    2.72    1.05
  -1   8   6    0.93    1.58
   8   6  -1   -0.54    1.56
  -1   8  -6    1.86    0.89
  -6   8   1    1.76    1.17
  -6   1   8    3.22    1.56
   8   6   1    1.32    1.66
  -8  -1   6    2.35    1.28
  -8  -1  -6    2.64    1.38
  -6   8   1    3.44    1.92
   8  -6   1    1.53    1.62
   8  -1   6    2.42    1.33
  -6  -1  -8    2.60    1.15
  -6  -1   8    1.70    0.97
  -8  -6   1    1.56    1.62
  -1  -6  -8    0.28    1.43
  -8   1  -6    1.79    1.38
  -8   1   6    1.38    1.30
   6  -8   1    3.49    1.65
  -1  -8  -6    2.52    1.65
  -1  -6   8    0.35    1.44
  -1  -8   6    0.76    1.61
  -6   1   8    1.80    1.09
  -6   1  -8    2.53    1.16
   8  -1  -6    2.19    1.49
   1  -6   8    1.85    1.07
   1  -6  -8    2.93    1.15
  -8   6   1    3.30    1.72
  -1  -6  -8    3.87    1.51
  -1   6   8    2.77    1.07
  -1   6  -8    3.04    1.05
  -6  -1  -8    3.61    1.53
   1   8   6    2.31    1.22
   1   8  -6    2.96    1.34
   1   6  -8    2.85    0.97
  -8  -6   1    2.19    1.61
   8  -6   1    3.59    1.56
   1   6   8    3.92    1.06
   8  -6  -1    4.74    1.53
  -6  -1  -8    2.69    1.09
  -6  -1   8    1.90    1.16
  -8   1   6    2.55    0.79
   8  -6   1    0.85    1.43
   6  -1   8    1.65    1.84
   8  -6  -1    2.06    1.26
  -8  -1  -6    1.81    1.49
   6  -2   8  316.86   11.38
   2   6  -8  290.08    9.88
  -2  -8  -6  286.02    9.76
  -8  -2  -6  309.04   11.67
  -8  -6  -2  263.54   10.22
  -8   6   2  319.21   10.31
  -6  -2  -8  310.49   11.32
   2  -6   8  285.76   10.86
   2  -8   6  284.83   10.68
  -8   6  -2  305.41   10.95
  -2  -6  -8  287.98    9.74
  -6   2  -8  313.19   11.38
  -2   8   6  316.77   11.74
  -6   2   8  282.94   11.00
  -2  -6   8  308.55   10.89
  -6   8  -2  330.14   10.80
  -8  -2   6  284.06   10.02
  -2  -8   6  315.91   10.83
  -6   8   2  320.13    9.84
   6  -8   2  262.89   10.30
   2   8   6  289.50   10.69
  -8  -6  -2  255.07   10.34
   2   6   8  310.17   11.06
  -6  -8   2  233.98    9.33
  -6   2  -8  311.34   11.48
   8   6   2  291.66   11.41
  -8   6   2  276.68    9.69
  -6  -2  -8  230.65   11.21
   6  -2  -8  269.35   10.22
  -2   8  -6  284.57   10.04
  -2   6   8  290.57   11.18
  -8  -2  -6  249.99   11.45
  -2   6  -8  292.12   10.50
  -2   8   6  298.20   11.03
  -6  -2   8  286.31   10.98
  -6   8   2  314.26   10.54
  -2  -6  -8  334.59   12.15
   2  -6  -8  285.22   11.06
   8   6  -2  268.32   10.79
   6   8  -2  290.71   11.21
  -2  -8  -6  301.85   11.73
  -6  -8  -2  261.02    9.95
   6   8   2  297.43   11.77
  -8  -2  -6  263.05   10.93
   8  -2  -6  332.04   10.78
  -6   2   8  336.12   10.16
   6  -2  -8  338.41   10.39
   2  -8   6  293.76   10.44
   2  -8  -6  332.66   10.56
  -8  -2  -6  288.40   10.46
  -8  -2   6  299.76   10.25
  -6  -2  -8  315.53   10.20
  -6  -2   8  303.70    9.85
  -6   2  -8  315.72   10.37
   8  -6   2  317.40   10.98
   8  -6  -2  338.26   11.10
  -8  -6   2  317.19   10.91
  -2  -6  -8  327.36   10.41
  -6   8   2  310.44   11.80
  -6   8  -2  279.77   11.74
  -2  -6   8  314.13   10.40
   6  -8   2  322.88   10.85
   6  -8  -2  332.00   10.91
  -8  -6  -2  295.03   10.87
  -2  -8  -6  319.04   10.76
   2  -6   8  291.73   10.03
   2  -6  -8  333.79   10.19
  -2  -8   6  322.74   10.81
  -8   2   6  299.11   10.41
  -8   2  -6  281.74   10.63
   6  -2   8  297.58    9.99
   8  -2   6  296.16   10.38
  -6  -8  -2  272.91   10.45
  -8  -2  -6  304.72   10.51
  -8  -6  -2  315.23   10.81
  -6  -2   8  315.99   10.12
  -2  -6  -8  299.14   11.04
   6   8  -2  293.48   10.78
   2   8  -6  288.33   10.34
  -6  -2  -8  307.13   11.03
  -8  -6   2  329.91   10.90
   2   8  -6  330.52   10.35
  -2  -8  -6  255.67   11.21
   8  -6  -2  304.19   10.76
  -2   8  -6  272.06    9.39
   6  -2   8  308.76   11.67
   8  -6   2  292.28   10.99
   8  -6   2  301.50   11.01
   2   8   6  268.08   10.24
  -6  -2  -8  321.60   11.24
  -8   2  -6  309.53    9.83
  -6   2  -8  331.88   10.42
  -8  -2  -6  295.00   11.08
  -6  -2  -8  314.69   10.02
  -8  -6  -3    3.64    1.40
   6  -3   8    2.04    1.73
   8   6  -3    4.48    1.65
   6   8  -3    3.28    1.47
  -8  -3  -6    1.02    1.78
   3   8  -6    3.13    1.26
   6  -8   3    4.25    1.46
  -8  -3  -6    1.19    1.27
  -3  -8  -6    3.69    1.09
  -6  -3  -8    2.55    1.62
  -8   6   3    2.40    1.20
  -6   3  -8    3.32    1.06
  -6  -3  -8    3.13    1.60
   3  -8   6    3.55    1.52
  -6   8  -3    6.98    1.75
  -3  -6  -8    4.93    1.20
  -8   3  -6    2.97    1.95
  -3  -6   8    2.49    1.59
  -6  -8  -3    4.81    1.51
  -8   6  -3    4.19    1.75
  -3  -8  -6    2.47    1.73
   8   6  -3    3.47    1.52
   6   8  -3    7.54    1.95
  -3  -6  -8    2.71    1.50
  -3   8   6    2.15    1.70
  -3   6   8    1.63    1.94
   6   8   3    3.77    2.13
  -8  -6  -3    3.24    1.30
  -6  -3  -8    1.50    1.78
  -3  -8  -6    3.81    2.04
  -6   8   3    4.36    1.55
  -6  -8   3    2.00    0.56
   3  -6  -8    2.71    1.55
  -8  -6  -3    2.44    1.31
  -3  -6   8    3.04    1.08
   6  -3  -8    1.31    1.29
  -8  -3  -6    2.52    1.44
  -6   3  -8    2.12    1.69
  -6   3   8    4.47    1.82
  -3   8  -6    3.05    1.25
  -8  -3  -6    2.98    1.92
  -6  -3  -8    1.62    1.53
  -3   6  -8    1.06    1.53
  -3  -6  -8    1.92    2.09
  -6  -8  -3    2.67    1.16
  -6  -3   8    2.72    1.56
  -3   8   6    4.13    1.99
  -3   6   8    1.98    1.68
  -8  -6   3    1.73    1.56
   8  -6   3    2.32    1.53
   6  -3   8    1.67    1.06
   6  -3  -8    1.76    1.23
  -8  -6  -3    1.37    1.51
   3  -6   8    2.17    1.13
   3  -6  -8    2.65    1.20
   8  -3   6    2.91    1.38
   8  -3  -6    0.75    1.42
   6  -8   3    5.65    1.68
   6  -8  -3    5.79    1.66
  -6   8   3    3.34    1.91
  -6   8  -3    3.27    1.99
  -8  -3  -6    3.43    1.36
  -8  -3   6    3.38    1.28
  -6  -3  -8    2.23    1.18
  -6  -3   8    3.51    1.03
   3  -8   6    2.02    1.44
   3  -8  -6    2.24    1.47
  -8   3   6    3.11    1.50
  -8   3  -6    2.18    1.52
   8  -6  -3    3.93    1.82
   6  -3   8    3.60    2.07
  -3  -6  -8    5.02    1.85
   8  -6   3    3.36    1.79
  -8  -3  -6    4.67    2.35
  -6  -3  -8    3.16    1.16
  -6  -3   8    2.98    1.24
  -3  -6   8    2.79    1.44
  -8  -6   3    4.33    1.69
   3  -6   8    2.33    1.46
  -8  -3  -6    4.49    1.42
  -8  -3   6    6.07    1.66
   8  -6  -3    3.04    1.43
   3   8   6    2.27    1.19
   3   8  -6    2.68    1.22
   6  -3   8    2.57    1.60
   8  -3   6    2.91    1.65
  -8  -6  -3    2.73    1.62
   8  -3   6    2.08    1.99
  -8  -3  -6    1.27    1.61
  -6  -3  -8    1.98    1.53
  -3  -8  -6    5.16    1.67
  -3  -6  -8    2.65    1.33
  -3  -8   6    2.21    1.66
  -8  -3   6    1.97    0.90
   6  -4   8    8.71    1.98
   6   8  -4    9.13    1.75
  -4  -8  -6    6.71    1.33
  -8  -6  -4    8.68    1.59
  -8  -4  -6    7.70    1.64
  -8  -4  -6    7.95    2.03
   4   8  -6    8.78    1.56
  -4  -8  -6    8.43    1.89
  -4  -6   8   10.23    1.98
   4  -8   6    5.67    1.69
  -6  -4  -8    6.21    1.87
  -8   6   4    7.23    1.23
  -4  -6  -8   15.80    1.73
  -6   8  -4    8.86    1.92
  -6   4   8    7.67    1.01
  -8   4  -6    8.96    2.11
  -6  -8  -4    6.15    1.59
  -8   6  -4    7.93    2.00
  -6  -4  -8   11.66    2.05
   6  -8   4    9.14    1.71
   8   6  -4    9.01    1.75
  -6   4   8    7.95    2.03
  -4   6   8   11.37    2.19
  -4  -6  -8    6.89    1.80
  -4   8   6   12.78    2.38
  -4   8   6   11.41    2.14
  -4  -8  -6    8.27    1.59
  -8  -4  -6    6.15    2.20
  -4  -6  -8    6.17    1.57
   8   6  -4    7.40    1.64
  -6  -4  -8    9.82    2.35
  -4   8  -6    7.84    1.56
  -8  -6  -4    8.94    1.70
  -6   4  -8   10.76    2.09
  -8  -4  -6    7.35    1.73
  -6  -8   4    5.50    0.65
  -4  -6   8    6.18    1.22
  -4   6  -8    8.20    1.86
   6   8   4    6.55    2.37
   6  -4  -8   14.44    1.65
  -8  -6  -4    6.92    1.98
  -6  -4  -8    6.42    1.79
  -6   8   4    6.81    1.60
   4  -6  -8    7.87    1.74
  -6  -8  -4    9.22    1.49
  -6  -4  -8    7.61    1.92
  -6  -4   8    6.91    1.61
  -8  -6  -4    8.08    1.58
  -4   6   8   12.50    2.40
  -8   4   6   11.08    1.80
  -8   4  -6    7.42    1.74
  -4  -6   8    4.73    1.24
  -4  -6  -8    5.48    1.42
   4  -6  -8    9.19    1.49
   4  -6   8    5.61    1.30
  -8  -6   4    4.71    1.63
  -8  -6  -4    5.61    1.67
  -6   8   4    7.72    2.07
   6  -8   4    8.16    1.76
   6  -8  -4    8.39    1.76
  -6  -4   8    8.81    1.31
  -6  -4  -8    7.95    1.41
  -8  -4   6    7.41    1.44
  -8  -4  -6    6.84    1.54
   6  -4   8    9.20    1.39
   8  -4   6   11.01    1.77
   6  -4  -8   10.97    1.57
   8  -4  -6   12.08    1.89
   4  -8   6    9.40    1.75
   4  -8  -6    9.24    1.78
  -6   8  -4    5.35    2.02
  -6   4   8    7.56    1.75
  -6   4  -8    4.71    1.74
   8  -6   4    8.18    1.83
   8  -6  -4    5.90    1.84
  -4   8   6   11.37    2.08
  -4  -6  -8    9.50    2.18
  -6   4  -8    8.25    1.02
   8  -6   4   10.92    2.22
   6  -4   8   10.34    2.21
  -6  -4  -8   11.73    2.51
  -6  -4   8    9.10    1.53
  -8  -6  -4    4.70    1.70
  -8  -6   4    6.13    1.85
  -8  -4  -6   10.40    1.72
  -8  -4   6   11.13    1.84
   8  -6  -4    8.83    1.59
  -6  -4  -8    7.69    1.37
  -8  -4  -6   11.61    2.61
  -8  -4   6    5.83    1.14
   6  -4  -8    5.88    0.80
   4  -6   8    7.64    1.65
  -6  -4  -8    8.92    1.93
  -8  -4  -6    7.86    1.87
   8  -4  -6    7.98    1.28
   8  -4   6    7.14    1.83
   6  -4   8    5.11    1.70
   8  -4   6    7.96    2.25
  -4   6   8    7.99    1.64
   6  -8  -4    6.45    0.92
   6   8  -5   11.13    2.04
  -6  -8  -5   11.69    2.02
  -8   5  -6   15.17    2.58
   5  -8   6   12.31    2.02
  -8   5   6   11.94    1.36
  -6  -5  -8   15.47    2.21
   8   6  -5   13.02    2.04
  -5  -6  -8   14.34    2.02
  -8   6   5   13.91    1.38
  -5  -8  -6    9.26    2.11
   5   8  -6   11.13    1.93
  -5  -8  -6    9.72    1.71
  -8   6  -5   14.69    2.37
  -8  -5  -6   12.06    2.02
   8  -6   5   11.85    2.22
  -8  -5  -6   18.03    2.49
  -6   5  -8   18.80    2.58
  -8  -6  -5   11.71    1.90
  -8  -5  -6   13.92    2.12
  -6   8  -5   11.86    2.22
  -5   6  -8   18.65    2.51
   6  -8   5   13.47    2.09
  -6  -5  -8   18.93    2.45
  -5  -6  -8   14.75    2.50
  -8  -6  -5   11.91    2.26
   8  -5   6   14.06    2.34
  -5   6   8   15.77    2.64
  -6   5   8   10.45    2.37
  -6   5  -8   18.29    2.64
  -6  -5   8   12.08    1.83
  -5  -6  -8   14.82    2.26
  -5  -6  -8   15.67    2.97
  -8  -6  -5   16.63    2.12
  -6  -8   5   11.24    0.93
  -5   6   8   17.24    2.65
  -5   8  -6   15.08    2.18
  -5  -8  -6   12.58    1.90
  -8  -5  -6   17.54    2.84
  -5   6  -8   15.59    2.44
  -8  -5  -6   13.09    2.12
  -5  -8  -6   16.46    2.90
   6  -5  -8   15.01    1.73
   5  -6  -8   14.90    1.96
  -8  -6  -5   13.27    2.08
  -8  -6  -5   12.73    2.52
  -6  -5  -8   14.21    2.15
  -5  -6  -8   13.66    2.04
  -5  -6   8   12.70    1.59
  -6  -5  -8   13.85    2.71
  -6  -8  -5   11.57    1.86
  -6  -5  -8   16.76    2.28
  -6  -5   8   14.04    1.54
  -8  -5   6   17.46    1.87
  -6   8   5   12.34    2.54
   8  -5   6   20.17    2.13
   8  -5  -6   20.14    2.27
   6  -5   8   18.04    1.76
   6  -5  -8   19.59    1.92
  -5  -6   8   13.87    1.61
  -8  -6   5   10.06    1.81
  -8  -6  -5    9.23    1.89
   6  -8   5   11.17    2.06
   6  -8  -5   11.40    2.05
   5  -6   8   15.36    1.72
  -5   8  -6   18.12    2.55
   5  -6  -8   15.24    1.79
  -5  -6  -8   12.15    1.78
  -6   5   8   12.39    2.08
  -6  -5  -8   15.95    1.83
   5  -8   6   16.40    2.10
   5  -8  -6   15.92    2.11
   8  -6   5   13.46    2.18
   8  -6  -5   11.02    2.17
  -6   5  -8   15.69    2.24
  -8  -5  -6   13.91    1.94
   8  -6   5   15.04    2.70
  -6  -5  -8   15.50    2.80
  -8  -5   6   19.85    2.31
   8  -6   5   15.01    2.41
   5  -6   8   14.03    2.16
  -8  -6  -5   11.78    2.12
  -8  -6   5   13.22    2.26
   6  -5   8   20.47    2.43
  -6   5  -8   16.06    0.95
   8  -5  -6   16.03    1.73
  -5   6   8   14.38    2.06
   6  -5  -8   14.97    1.28
   8  -6  -5   13.87    1.78
  -5   8   6   13.36    2.33
  -8  -5  -6   15.11    2.36
  -5  -6  -8   13.64    2.72
   6  -5   8   19.41    2.80
  -5   6  -8   13.84    2.08
   8  -5   6   20.39    2.87
  -8  -6  -5   14.60    3.07
  -8  -5  -6   16.68    3.07
   8  -5   6   18.05    2.36
  -6   8  -5    7.93    2.29
  -8  -5  -6   16.21    2.08
   8  -6   6  127.05    6.01
  -6  -8  -6  101.49    5.29
  -8  -6  -6  115.92    6.02
  -6   6   8  146.03    6.72
   6  -8   6  125.61    5.81
  -6  -6  -8  126.60    6.12
  -6  -6  -8  130.55    5.80
  -8  -6  -6  124.12    5.91
  -8   6  -6  131.38    6.39
  -6   6  -8  132.27    6.35
  -6   8  -6  137.10    6.24
  -8  -6  -6  122.38    5.88
  -6  -6   8  124.53    5.24
  -6  -6  -8  121.54    5.86
  -6  -8  -6  121.34    5.53
  -6  -8   6   97.81    4.30
  -6   6   8  150.47    6.75
  -6  -6  -8  130.29    7.21
  -8  -6  -6  125.72    6.75
  -6  -8  -6  127.30    6.83
   6  -6  -8  130.99    5.35
  -6   6  -8  146.91    6.56
  -8  -6   6  129.13    5.42
  -8  -6  -6  119.00    5.62
   8  -6   6  133.13    5.65
   8  -6  -6  150.54    5.95
   6  -6   8  129.31    5.26
   6  -6  -8  149.27    5.56
  -8   6   6  118.82    6.20
  -8   6  -6  102.33    6.27
   6  -8   6  137.52    5.69
   6  -8  -6  139.80    5.69
  -6   6   8  127.20    5.83
  -6   6  -8  126.47    6.07
  -6   8   6  126.13    6.26
  -6   8  -6  132.12    6.55
  -6  -6  -8  126.77    5.51
  -6  -6   8  120.27    5.06
  -6  -6  -8  128.19    6.34
  -8  -6  -6  141.35    5.75
  -8  -6  -6  131.10    5.91
   8  -6   6  139.29    6.26
   6  -6   8  134.61    5.97
   8  -6  -6  124.16    5.20
  -6  -8  -6  125.20    6.09
  -6  -8  -6  113.30    6.68
   6   8  -6  132.51    5.82
   6  -8   6  139.47    6.03
  -8  -6  -6  121.58    7.12
  -6  -6  -8  135.82    7.05
   8  -6   6  133.78    6.59
  -8  -6   6  148.54    5.96
   8   6  -6  147.59    6.03
   0  -8   7   13.30    2.03
   0   8   7   11.87    2.35
  -8   7   0   14.45    1.87
  -8   0   7   16.16    1.96
   7   8   0   12.67    2.07
  -8   0  -7   13.09    2.45
  -7   0  -8   19.29    2.55
  -7   8   0   13.90    1.82
  -7   0   8   12.00    1.83
   0  -8  -7   14.02    2.37
  -7  -8   0   11.60    1.28
  -8   0  -7    9.51    2.03
   8   7   0   15.31    2.38
  -7   0  -8   13.44    2.18
   0  -7  -8   14.01    2.41
   0   8   7   10.56    2.06
  -8   7   0   15.95    1.45
  -7   8   0   15.27    1.63
   7   8   0    9.60    2.32
   0   7   8   17.14    2.26
  -8  -7   0   11.57    2.08
   0  -7   8   18.60    1.68
   0  -7  -8   21.41    1.80
  -8   0  -7   13.20    1.77
  -8   0   7   15.71    1.68
  -7   0  -8   17.52    1.75
  -7   0   8   16.63    1.60
   0   8   7   12.77    1.64
   0   8  -7   13.08    1.69
   0   7   8   14.73    1.56
   0   7  -8   15.61    1.59
  -7   0  -8   17.49    1.90
  -8   0  -7   14.43    2.03
   8  -7   0   16.29    2.09
   8  -7   0   16.48    1.90
   0  -7  -8   17.88    1.81
   0   8  -7   12.51    1.33
   0  -8  -7   10.06    1.72
  -8   0  -7   12.63    1.54
  -8  -1  -7   -0.25    1.32
  -7   1  -8    0.06    1.26
  -1   7   8    1.41    1.81
  -1  -7   8    1.31    1.60
   1   8  -7    1.17    1.07
  -7  -1   8    1.21    1.32
  -7   8   1    0.80    1.21
  -7   8  -1    1.21    1.46
  -8  -1  -7    1.71    1.93
  -7  -1  -8    1.78    1.84
  -8   1  -7   -0.12    1.87
  -1   8  -7    0.95    0.81
  -7   1  -8    4.04    2.02
  -7  -1  -8    2.33    1.48
   8  -7   1    0.28    0.36
  -8   7   1    0.23    1.35
   1  -8   7   -0.55    1.51
  -8   7  -1    0.22    1.45
   7   8  -1    2.20    1.59
  -8   1  -7    1.87    1.05
  -1   7  -8    1.47    1.19
  -8  -1   7    1.67    1.25
  -7   1   8    2.25    1.52
   8  -1  -7    0.84    0.81
   8   7   1    1.06    1.91
   7   8  -1    1.11    1.81
   1  -8  -7    1.95    1.73
  -1   8  -7    1.27    1.05
  -8  -1  -7    0.24    1.52
  -1   8   7    1.30    1.91
  -8  -7  -1    1.38    1.09
  -8   1  -7   -0.61    1.64
   7   8   1    0.75    1.93
  -8   1   7    1.57    1.45
  -1  -7  -8    0.25    1.87
  -7   8   1    0.22    1.15
  -7   1  -8    0.54    1.65
   1   8   7    1.60    1.63
   1   7   8    0.28    1.62
  -7  -8  -1    0.82    1.04
  -1  -8  -7    2.25    1.91
   1  -7  -8   -0.21    1.74
  -1   7   8    0.40    1.68
  -1   8   7    1.87    1.77
  -7  -8   1    0.38    0.83
  -7  -1  -8    1.16    1.42
   8   7  -1    0.10    1.66
  -8   7   1   -0.04    1.13
  -8  -7  -1   -0.26    1.06
  -1  -8  -7    1.29    1.61
  -1  -8   7   -0.94    1.64
   8  -7   1   -0.32    1.68
  -7  -1  -8    1.36    1.22
   1  -8   7    3.17    1.31
   8  -1  -7    0.07    1.39
   8  -1   7    0.69    1.28
  -8  -7   1   -1.18    1.70
  -7  -1   8    0.43    1.06
   7  -8   1    0.76    1.57
  -7   8   1   -0.39    1.97
   1  -7  -8    0.77    1.24
  -1  -7  -8    1.13    1.44
  -8   1   7    1.54    1.25
  -8   1  -7    2.34    1.40
  -1  -7   8   -0.54    1.49
  -7   1   8    1.42    1.19
  -7   1  -8    0.50    1.16
  -8  -1   7    0.66    1.17
  -8  -1  -7    1.98    1.37
   1  -8  -7    3.03    1.42
   1  -7   8    1.24    1.25
  -1  -7  -8    1.29    1.45
   8  -7   1    1.33    1.51
  -1   7   8   -0.16    1.13
   7  -8  -1    1.28    1.25
  -1   8  -7    0.78    1.33
  -1   7  -8   -0.32    1.20
  -8  -7   1    0.31    1.66
  -8  -1  -7    2.81    1.58
   1   8   7    0.41    1.22
   1   8  -7    1.06    1.28
  -7  -1  -8    1.65    1.53
   1   7   8    0.10    1.07
   1   7  -8    1.31    1.15
  -7  -1  -8    1.68    1.11
  -7  -1   8    1.74    1.23
   8  -7   1    1.61    1.67
  -1  -8  -7    0.40    1.45
   7  -1   8    0.12    1.99
   1  -8  -7    0.32    1.12
  -1   8   7    0.26    1.29
  -7   1   8    0.35    0.34
   8  -7  -1    1.44    1.25
  -7   2  -8    8.36    1.34
  -7  -2  -8   11.95    1.93
   8   7  -2    7.39    1.81
  -8   7  -2   13.26    1.94
  -8  -2  -7   11.21    2.36
   2   7  -8    9.71    1.18
  -7   8  -2   13.22    1.96
   7  -8   2    8.98    1.78
  -2  -7   8   12.41    2.05
  -2  -8  -7   11.97    1.14
  -7  -2  -8    9.69    2.18
  -8   7   2   13.75    1.60
  -2  -7  -8   10.17    1.09
  -8  -2   7    9.15    1.38
   2  -8   7   13.03    2.00
  -7   8   2   14.40    1.44
  -8  -2  -7   12.08    1.74
   7  -2   8    7.96    2.15
  -7   2  -8    8.26    2.23
   8   7   2    9.06    2.29
   2  -8  -7   14.44    2.14
   7   8   2   10.90    2.44
  -8  -2  -7    9.06    2.21
  -8   7   2   11.41    1.38
   7  -2  -8    8.47    1.34
   8   7  -2    9.38    1.95
  -7   2  -8    8.82    2.00
  -8   2  -7    8.17    1.90
   2   8   7   13.72    2.04
   2   7   8   13.09    2.09
  -2  -7  -8    8.67    2.38
  -8  -7  -2   10.00    1.57
  -7  -2  -8    8.45    2.02
  -8  -2  -7    8.53    1.89
  -2  -8  -7   11.63    2.49
  -7  -2  -8   13.66    2.25
  -7  -8  -2    9.67    1.39
  -7   8   2   12.07    1.61
  -2   7   8   12.47    2.19
  -7   2   8   13.69    2.16
  -2   8   7   11.27    2.13
   7   8  -2   12.76    2.25
  -2   8  -7    9.73    1.44
  -2   7  -8    8.63    1.56
  -8  -7  -2    9.70    1.53
  -2   8   7   13.26    2.48
   2  -7  -8    8.13    1.96
   2  -8  -7   15.05    1.80
  -8  -7   2    6.52    1.84
  -8  -7  -2    8.21    1.89
   7  -2  -8    9.69    1.69
   8  -2   7   10.79    1.64
   7  -8   2   14.63    2.11
   7  -8  -2   12.92    1.99
   8  -2  -7   13.52    1.91
  -8   7   2    7.89    2.22
  -8   7  -2    7.74    2.25
  -7   8   2    8.65    2.32
  -7   8  -2   10.96    2.48
  -2  -8  -7   14.88    1.97
   8  -7   2   11.12    2.04
  -2  -7  -8    9.44    1.70
   2  -7   8    9.91    1.54
   2  -7  -8    7.80    1.53
  -8   2   7   12.88    1.68
  -8   2  -7   11.80    1.79
  -2  -8   7   11.86    1.95
  -2  -7   8   10.65    1.78
   2  -8   7   11.99    1.68
  -8  -2  -7   12.17    1.74
  -8  -2   7   10.14    1.49
  -7   2   8   12.11    1.61
  -7   2  -8    6.18    1.52
   7  -2   8   11.42    1.51
  -7  -2  -8    8.73    1.49
  -7  -2   8    8.83    1.33
   8  -7  -2   13.22    2.16
   8  -7   2    8.68    1.87
  -7  -2  -8    7.42    1.88
  -7  -2  -8   10.95    1.47
  -7  -2   8   14.34    1.69
   7   8  -2   16.66    2.09
  -8  -2   7   15.79    1.87
  -2   8  -7   11.56    0.97
  -8  -7   2    9.58    2.05
   2   8   7    9.87    1.51
  -7  -8  -2   13.67    1.79
   8  -7   2   12.77    2.11
  -8  -2  -7   10.91    1.55
  -8   2  -7   11.46    1.22
   2   7   8    9.64    1.38
   2   7  -8    9.42    1.38
   2   8  -7   14.10    1.59
   2  -8  -7   10.63    1.31
  -8  -2  -7   10.46    1.93
   7  -8  -2   12.67    1.44
  -2  -8  -7    9.59    1.97
   8  -7  -2    6.82    1.33
   7  -2   8    8.84    2.34
  -2  -7  -8   11.13    2.04
   2   8  -7   12.71    1.63
  -8  -7  -2   10.36    2.04
  -7  -3  -8    1.83    1.53
   7   8  -3   -0.44    1.65
   8   7  -3    0.63    1.55
  -8  -3  -7    2.11    1.42
   3   8  -7    0.76    1.24
  -8   7  -3    1.78    1.67
  -8  -3  -7    0.12    1.89
  -3  -8  -7    1.36    1.05
  -3   7  -8    2.59    0.63
  -7  -3  -8    2.10    1.75
  -7   8  -3    3.37    1.71
  -7   8   3    2.66    0.97
   3  -8   7    1.44    1.58
  -7   3  -8    1.47    0.92
   7  -3   8    0.53    1.85
  -3  -7  -8    2.56    1.13
  -7  -8  -3    1.34    1.27
  -3  -7   8    1.30    1.67
  -3  -8  -7    0.62    1.86
  -8   7   3    0.93    1.11
  -8   3  -7   -0.24    1.91
   7  -8   3    0.07    1.36
  -8  -7  -3    0.96    1.27
  -3   8   7    1.63    1.94
  -7   8   3    1.55    1.31
  -7  -3  -8    1.15    1.79
   3  -7  -8    2.60    1.68
  -8   3  -7    0.11    1.64
  -3  -7  -8    2.53    2.13
   8   7  -3    1.15    1.56
  -7   3  -8    1.34    1.76
  -3  -8  -7    1.08    1.97
  -8  -3  -7    2.19    2.03
  -8  -7  -3    2.23    1.26
  -8  -3  -7    1.20    1.43
  -7  -3  -8    1.12    1.57
   7   8  -3    0.62    1.63
  -7   3   8    1.69    1.76
  -7  -8  -3    1.08    1.19
  -3   8  -7    1.50    1.29
  -3   7  -8    2.01    1.42
  -7  -3   8   -1.09    1.72
  -3   7   8    1.61    1.80
   7   8   3    0.82    2.08
  -3   8   7    3.88    1.91
   7  -3  -8    0.58    1.07
   8  -7   3    0.16    1.60
  -7   3  -8    2.05    1.42
  -7   3   8    1.04    1.30
  -8  -7   3    1.13    1.50
  -8  -7  -3    0.17    1.62
   7  -8  -3    1.75    1.59
   7  -3   8    1.53    1.19
   8  -3   7    0.29    1.35
   8  -3  -7    0.56    1.52
   7  -3  -8    1.10    1.36
  -8   7   3   -0.48    1.85
  -8   7  -3    0.67    1.88
   3  -7   8    0.63    1.27
   3  -7  -8    0.85    1.33
  -7   8   3    0.63    1.93
  -7   8  -3    0.42    1.90
   3  -8   7    3.26    1.52
   3  -8  -7    1.36    1.41
  -8  -3  -7    2.36    1.40
  -8  -3   7    0.64    1.25
  -7  -3  -8    0.55    1.23
  -7  -3   8    0.23    1.09
  -8   3   7    1.45    1.48
   8  -7  -3    3.59    1.69
  -8   3  -7    2.11    1.52
   7  -8   3    2.08    1.67
   8  -7   3    1.35    1.71
  -8  -3  -7    0.92    2.17
  -3  -7  -8    2.10    1.79
  -8  -7  -3    0.54    1.74
  -8  -7   3    1.79    1.72
  -3  -8  -7    2.96    1.50
  -8  -3   7    2.08    0.71
  -7  -3  -8    2.58    1.25
  -7  -3   8    1.67    1.37
  -3  -7   8    2.33    1.56
  -3  -8   7    2.99    1.61
  -8  -3  -7    1.29    1.31
  -8  -3   7    1.14    1.50
  -8  -3  -7    0.20    1.75
   3   8   7    3.10    1.29
   7  -3   8    0.38    2.03
  -3  -8  -7    0.43    1.72
  -7  -3  -8    0.40    1.71
   7  -8  -3    1.56    0.97
  -3  -7  -8    2.52    1.44
   7  -4   8    6.61    2.25
   7  -8   4    7.57    1.84
   7   8  -4    9.17    1.91
  -8  -4  -7    7.78    1.86
   8   7  -4    7.45    1.91
  -7  -8  -4   10.08    1.79
  -8   7  -4    9.36    2.17
   4   8  -7    8.40    1.65
  -4  -8  -7    7.32    1.53
  -8  -4  -7    7.11    2.20
   4  -7   8   10.04    2.13
  -7  -4  -8    8.99    2.18
  -4  -8  -7    5.11    2.08
   4  -8   7    7.67    1.96
   8  -7   4   10.48    2.06
  -4  -7  -8    9.71    1.64
  -7   8  -4    8.76    2.03
  -4  -7   8    9.73    2.09
  -7  -4  -8    4.68    1.90
  -7  -4  -8   13.31    2.14
  -8   7   4    7.64    1.26
  -8   4  -7    5.71    2.28
  -8  -7  -4    8.48    1.72
  -4   8   7    7.33    2.22
   4  -7  -8   11.24    1.91
  -7  -4   8    6.28    1.88
  -4  -7  -8    8.05    1.84
  -7   4   8    9.72    2.26
   7   8  -4   10.49    2.18
  -4  -7   8    7.98    1.22
  -7   4  -8   10.11    2.33
  -8  -4  -7    7.82    1.98
  -4   8  -7    7.26    1.84
  -7  -4  -8    8.86    2.45
  -8  -7  -4    9.20    1.71
  -8  -4  -7    6.01    2.43
  -4  -8  -7    4.77    1.69
   8   7  -4   10.54    2.02
  -4   7  -8   10.86    2.02
  -7  -4  -8    7.82    1.95
  -7  -8  -4    3.32    1.52
   7  -4  -8    9.38    1.35
  -4   7   8   12.02    2.57
  -4   7   8   10.75    2.30
  -7   8  -4    6.85    2.29
  -8   4   7   11.93    1.95
  -8   4  -7    7.44    1.85
  -4  -7  -8   12.72    1.82
  -8  -7   4    7.75    1.88
  -8  -7  -4    6.99    1.90
   7  -8  -4   10.58    2.04
   4  -7   8    9.72    1.62
   4  -7  -8    9.70    1.66
   7  -8   4    7.62    1.95
   7  -4   8    8.90    1.55
   7  -4  -8   10.90    1.80
   8  -4   7    9.45    1.73
   8  -4  -7   10.66    1.90
   4  -8   7    7.46    1.77
   4  -8  -7    7.23    1.80
  -8  -4   7    8.79    1.58
  -8  -4  -7    7.83    1.70
  -7  -4   8    9.46    1.47
  -7  -4  -8   10.33    1.69
  -8   7   4    9.11    2.44
  -8   7  -4    6.98    2.38
   8  -7  -4    6.85    1.98
  -7   8   4    4.69    2.17
   8  -7   4    6.86    1.98
  -7  -4  -8   13.03    1.63
  -8  -4  -7    3.90    2.38
   8  -7   4   11.73    2.35
  -7  -4  -8   11.78    2.67
  -4  -7   8   11.29    1.94
  -8  -7   4    8.07    2.08
  -7  -4   8   11.36    1.78
  -8  -4  -7    9.17    1.70
  -8  -4   7   10.18    1.89
   4  -7   8    9.05    2.00
  -7   4  -8    7.67    0.96
  -4  -7  -8    8.88    2.23
  -8  -7  -4    5.71    1.90
   7  -4   8    6.51    2.04
   8  -4   7    5.03    1.98
  -4  -8  -7    6.00    2.24
  -8  -4  -7    9.32    2.10
  -7  -4  -8    9.35    2.11
   8  -4   7   12.27    2.76
  -4  -8  -7   13.06    2.03
  -4  -8   7   10.68    2.07
   7   8  -5    2.57    1.72
   8  -5   7    2.37    1.98
   8  -7   5   -1.90    1.92
  -7  -8  -5   -0.19    1.67
   8   7  -5    1.28    1.80
  -8  -7  -5    2.22    1.57
  -5  -8  -7    0.84    1.44
  -8  -5  -7   -1.06    2.03
   5   8  -7    0.97    1.59
  -8   7  -5    0.42    2.02
   5  -7   8    1.79    1.87
   5  -8   7    2.06    1.81
  -7   5  -8    1.63    2.12
  -7  -5  -8    0.39    1.89
  -5  -7  -8    1.81    1.61
  -8   5  -7    1.68    2.19
  -7  -5  -8   -2.03    2.12
  -7   8  -5    2.02    2.04
  -8  -7  -5    0.10    1.90
  -5  -8  -7   -0.24    2.02
  -8  -5  -7    0.19    1.70
   7  -8   5    4.57    1.95
  -5  -7  -8    0.81    1.61
  -7  -5  -8    0.48    2.29
  -8  -7  -5    0.69    1.66
  -5   7   8    5.56    2.41
  -5  -7  -8    0.55    1.91
  -5   8   7    3.08    2.21
  -7   5   8    2.27    2.24
  -5   7   8    2.13    2.21
  -8  -7  -5    3.24    2.21
  -8  -5  -7    1.38    2.27
  -5  -8  -7    2.08    1.64
  -7  -8   5    0.44    0.89
  -7  -5  -8   -1.18    1.95
  -7  -5   8   -0.38    1.59
  -7   5  -8   -0.35    2.07
   8   7  -5    5.05    2.00
  -5   8  -7    0.81    1.89
  -5  -7   8    0.71    1.10
  -5   7  -8   -0.59    1.90
  -5  -7  -8   -0.93    2.61
  -8  -5  -7    0.50    1.71
  -8  -7  -5    1.76    1.62
  -5  -8  -7    0.91    2.37
  -7  -5  -8   -0.51    1.74
  -7  -8  -5    1.96    1.60
  -8  -5  -7   -0.20    1.70
   5  -7  -8    2.35    1.63
  -7  -5   8   -0.35    1.35
   5  -7   8   -0.62    1.59
  -7  -8   5   -1.88    1.81
   5  -7  -8   -1.30    1.61
  -5  -7   8   -0.71    1.41
  -5  -7  -8   -0.99    1.63
   7  -8   5   -0.08    1.80
  -8  -7   5   -1.92    1.90
  -8  -7  -5   -1.17    1.95
   5  -8   7    1.33    1.64
   5  -8  -7    3.12    1.67
  -7   8   5   -1.68    2.35
  -7  -8  -5   -0.74    1.98
  -7  -5  -8    1.03    1.52
  -8  -5   7    2.52    1.44
  -8  -5  -7    2.69    1.61
   8  -5   7    1.71    1.63
   8  -5  -7    3.48    1.82
   7  -5   8    1.20    1.51
   7  -5  -8    2.78    1.73
  -7   8  -5   -0.56    2.29
   7  -8  -5    1.73    1.87
  -8   7   5   -1.43    2.26
  -7   5   8   -2.16    2.01
  -8   7  -5   -2.39    2.37
   8  -7   5    1.83    1.85
   8  -7  -5    0.62    1.89
  -7   5  -8   -2.55    2.33
  -5   8  -7    4.15    2.04
  -8  -5  -7    0.17    2.59
   8  -7   5    1.36    2.11
   8  -7   5    1.38    2.05
  -7  -5  -8    0.61    1.48
  -7  -5   8    1.41    1.71
  -8  -7   5   -1.37    2.22
  -8  -5  -7    2.99    1.72
  -8  -5   7    4.28    1.92
   8  -5   7    3.40    2.39
  -8  -7  -5    2.54    1.89
   7  -8   5    2.44    1.96
   5  -8   7    2.51    1.94
  -5   7  -8    0.36    1.71
  -7  -5  -8   -0.22    2.05
  -8  -5  -7    0.77    1.97
  -8  -7  -5   -0.35    2.67
   8  -5   7    0.68    1.94
   7  -5   8    0.64    1.86
  -5  -8  -7    0.41    2.36
   8  -5  -7    0.30    1.18
  -5   8   7    3.42    1.94
   7  -5  -8    1.70    1.05
   5  -7   8    1.84    1.77
  -7  -5  -8    2.72    2.43
  -5  -7  -8    0.13    2.32
  -5   7   8    0.41    1.79
  -7  -8  -6    4.53    1.75
   7  -6   8    5.65    2.11
  -8  -6  -7    8.47    2.08
   7  -8   6    4.02    1.90
  -6  -8  -7    5.95    1.74
  -7  -6  -8    6.56    2.06
  -8  -7  -6    3.54    1.88
   6   8  -7    7.17    1.87
  -8  -6  -7    5.88    2.03
   6  -7   8    7.69    2.08
   6  -8   7    8.41    2.05
   8   6  -7    9.92    2.10
   8   7  -6    6.12    2.04
  -7  -6  -8    2.83    1.99
  -6  -7  -8    4.89    1.79
   7   8  -6    6.66    1.95
  -8   7  -6    5.00    2.22
   8  -7   6    5.92    2.03
  -6   8  -7    6.57    2.15
   8  -6   7    7.23    2.14
  -7   8  -6    6.53    2.31
  -8  -7  -6    5.17    1.95
  -7  -8  -6    3.19    1.90
  -8  -6   7    5.18    1.65
  -6   7   8    7.27    2.47
  -8  -7   6    6.88    1.46
  -6   8   7    6.48    2.56
  -7  -6  -8    4.67    2.02
  -8  -7  -6    7.14    2.51
  -7  -6  -8    5.46    2.57
  -6   8  -7    9.09    2.24
  -7   6  -8    5.23    2.31
  -6  -7  -8    5.95    2.17
  -6   7  -8    7.17    2.30
  -6   7   8    9.11    2.50
  -7  -8  -6    9.24    2.61
  -6  -8  -7    6.99    1.80
  -6  -7   8    5.57    1.36
  -8  -6  -7    5.64    1.97
  -8  -7  -6    3.88    1.81
  -7  -6  -8    4.34    1.90
  -7  -8  -6    7.88    1.89
  -8  -6  -7    4.89    2.66
  -7   6   8    8.55    2.54
  -6   8   7   11.69    2.75
  -7  -6   8    6.88    1.64
  -8  -6  -7    7.06    1.99
  -6  -7  -8    4.90    1.80
  -6  -8   7    5.09    1.65
  -6  -8  -7    5.24    1.80
  -7  -8   6    5.60    1.80
  -7  -8  -6    6.10    1.97
   6  -8   7    8.73    1.92
   6  -8  -7    9.39    1.96
  -8   7   6    6.13    2.43
  -8  -7  -6    2.73    1.88
  -7   6  -8    3.99    2.03
  -6  -7   8    4.42    1.56
  -6  -7  -8    2.04    1.76
  -8   7  -6    3.35    2.28
  -8  -7   6    3.60    1.76
  -7  -6   8    4.28    1.51
  -7  -6  -8    5.11    1.77
  -8  -6   7    7.28    1.69
  -8  -6  -7    7.80    1.88
   6  -7   8    3.57    1.68
   6  -7  -8    4.43    1.80
   8  -6   7    9.67    2.01
   8  -6  -7    8.60    2.08
   7  -8  -6    3.34    1.89
   7  -6   8    5.49    1.76
   7  -6  -8    2.12    1.78
  -8   6   7    6.91    2.27
   8  -7   6    6.31    1.97
  -8   6  -7    2.13    2.19
   8  -7  -6    7.37    2.12
  -7   8  -6    5.43    2.33
   7  -8   6    6.91    1.94
  -7   8   6    5.06    2.33
  -7   6   8    4.86    2.10
  -7  -6  -8    7.54    2.68
   8  -6   7    6.68    2.56
   8  -7   6    9.78    2.56
   8  -7   6    9.08    2.37
   7  -8   6    5.88    2.13
   8  -6  -7    6.50    1.45
   6  -7   8    6.73    2.19
  -8  -6   7    8.60    2.11
  -6   8  -7    9.20    2.28
   7  -6  -8    6.89    1.24
  -6  -7  -8    7.53    2.71
  -8  -6  -7    6.47    2.71
   6  -8   7    9.95    2.21
  -6   7  -8    5.27    2.05
   8  -7  -6    7.45    1.65
  -7  -8  -6    4.36    2.48
   7  -6   8    6.04    2.17
  -8  -6  -7    5.68    1.91
  -6  -8  -7    7.65    2.53
  -8  -7  -6    3.35    2.66
   8  -6   7    5.77    2.22
  -6   7   8    8.47    2.12
  -6   8   7    6.59    2.23
   7   7  -8    2.51    1.80
   7  -8   7    0.20    1.87
  -8  -7  -7    0.10    1.68
   7   8  -7    2.91    1.85
   8   7  -7    0.57    1.77
   7  -7   8    1.97    2.00
  -7  -8  -7    1.41    1.59
   8  -7   7    0.61    1.95
  -7  -7  -8    0.44    1.67
  -8  -7  -7    2.19    1.88
  -7  -7  -8    1.01    1.98
  -7  -8  -7   -0.76    1.93
  -8   7  -7   -0.12    2.11
  -7   8  -7    0.11    2.07
  -7   7  -8    1.58    2.18
  -8  -7  -7    0.20    1.81
  -7   7   8   -0.89    2.27
  -7  -7  -8    0.30    1.78
  -7  -8  -7   -0.09    1.68
   7  -8   7    0.36    1.73
   7  -8  -7    1.69    1.81
  -7  -8   7   -0.65    1.59
  -7  -8  -7    0.29    1.81
  -7  -7  -8   -0.43    1.75
  -7  -7   8    1.91    1.48
  -8  -7   7    1.91    1.56
  -8  -7  -7   -0.09    1.79
  -7   7   8    3.12    2.13
  -8   7   7   -1.74    2.23
  -8   7  -7    0.96    2.14
   8  -7   7    2.00    1.88
   8  -7  -7   -0.70    1.93
   7  -7   8    2.40    1.74
   7  -7  -8    0.07    1.84
   7  -7   8    1.73    2.04
   8  -7   7    2.22    2.45
   7  -8   7    1.21    1.97
   7  -7   8    2.89    2.29
   8  -7  -7    1.98    1.36
  -7   8   7    5.06    2.25
   8  -7   7    3.11    2.11
  -7   8  -7   -0.39    2.02
  -7   7  -8    1.89    2.01
  -8   0  -8  391.45   13.78
  -8   0   8  349.61   12.25
  -8   8   0  396.78   12.16
  -8  -8   0  291.26   11.42
  -8   0  -8  335.54   13.00
   0   8   8  354.67   12.80
   8   8   0  317.29   13.10
   0  -8  -8  371.93   13.29
  -8   8   0  337.93   11.63
   0  -8   8  383.30   11.93
  -8   0  -8  360.64   12.16
  -8   0   8  365.60   11.77
  -8  -8   0  291.73   12.35
   0   8   8  307.98   11.71
   0   8  -8  341.81   11.89
   0   8  -8  370.95   11.46
   0  -8  -8  331.08   11.95
  -8   0  -8  372.64   12.04
   8   8   0  331.53   12.69
   8  -8   0  314.35   12.09
  -8  -1  -8    4.83    1.62
   1   8  -8    6.78    1.23
  -8   1  -8    1.99    1.33
  -1   8  -8    4.83    1.03
  -8   8   1    4.01    1.52
  -8   8  -1    6.21    1.79
   8   8  -1    4.94    1.99
  -8  -1   8    2.51    1.47
  -8  -1  -8    3.40    2.19
  -8   1  -8    6.19    2.25
  -1   8   8    4.94    2.25
  -8   1   8    2.85    1.78
  -8  -1  -8    2.04    1.88
  -8   8   1    2.87    1.39
  -1  -8  -8    3.38    2.24
   8   8  -1    2.50    2.06
   8   8   1    2.73    2.22
  -8  -8   1    1.81    1.13
  -8   1  -8    1.47    1.86
   1   8   8    3.86    2.00
  -8  -8  -1    3.62    1.30
   1  -8  -8    3.90    1.99
  -1   8   8    3.34    2.05
   8  -8   1    5.04    2.04
  -8  -1  -8    4.83    1.60
  -8  -1   8    3.40    1.35
  -1  -8  -8    4.35    1.77
  -8  -8   1    3.10    1.90
  -1  -8   8    1.33    1.78
  -8   1   8    4.98    1.52
  -8   1  -8    4.81    1.64
  -8   8   1    5.68    2.41
   1  -8   8    6.19    1.61
   1  -8  -8    3.94    1.53
   1   8   8    2.13    1.34
   1  -8  -8    5.75    1.35
  -1  -8  -8    4.10    1.71
   8  -8   1    4.70    1.82
  -1   8   8    1.81    1.45
  -1   8  -8    0.94    1.45
   1   8  -8    1.84    1.36
  -8  -1  -8    4.26    1.81
  -8  -8   1    6.11    2.06
   8  -8  -1    3.29    1.46
   8   8  -2    3.68    1.83
  -2   8  -8    5.45    0.89
  -8   2  -8    5.99    1.18
   2   8  -8    6.15    1.28
  -8   8   2    3.69    1.32
  -8   8  -2    6.31    1.82
  -8  -2  -8    5.58    2.23
   2  -8   8    4.23    1.94
  -8   2  -8    9.70    2.47
  -8  -2  -8    5.07    1.70
  -2  -8  -8    5.40    0.86
  -8   2   8    7.18    1.90
   8   8   2    1.48    2.15
   2  -8  -8    4.73    1.90
  -2  -8  -8    3.75    2.12
  -8  -2  -8    4.75    2.00
  -2   8  -8    3.80    1.36
  -8   8   2    4.04    1.38
   2   8   8    2.77    1.83
  -8   2  -8    5.14    1.93
  -2   8   8    1.82    2.14
  -8  -2  -8    7.14    1.96
  -8  -8  -2    4.93    1.37
  -2   8   8    4.17    2.10
   8   8  -2    3.29    2.05
   8  -8   2    4.89    1.92
   8  -8  -2    4.21    1.91
  -8  -8   2    3.14    1.76
  -8  -8  -2    5.19    1.95
   8  -2  -8    8.29    1.79
   8  -2   8    5.09    1.48
  -2  -8  -8    3.46    1.70
  -8   8  -2    2.90    2.19
  -8  -2  -8    3.52    1.50
  -2  -8   8    6.81    1.99
  -8  -2   8    2.09    1.30
   2  -8   8    3.59    1.52
   2  -8  -8    2.92    1.57
  -8   2   8    4.82    1.59
  -8   2  -8    3.85    1.63
  -8   8   2    4.69    2.20
   8  -8   2    6.16    1.84
  -8  -2  -8    4.90    1.91
  -8  -8  -2    4.16    1.93
  -8  -8   2    5.85    2.00
  -8  -2   8    5.83    1.62
   2   8   8    3.15    1.39
   2   8  -8    4.21    1.42
   8  -8   2    8.59    1.99
   8  -2   8    2.76    2.30
  -8  -2  -8    6.09    1.43
  -2  -8  -8    5.08    1.86
   8  -8  -2    4.27    1.25
   8   8  -3   -2.25    1.94
  -8   3  -8    1.35    0.97
   3   8  -8    1.09    1.23
  -8  -8  -3   -0.40    1.46
  -8   8  -3    0.18    1.81
  -8  -3  -8   -0.71    2.07
   3  -8   8    1.38    1.81
  -3  -8  -8   -0.04    1.11
  -8  -3  -8   -0.89    1.78
  -3  -8  -8   -1.74    2.25
  -8   3   8    2.56    1.89
  -3  -8  -8    0.57    2.27
  -8  -3  -8    0.60    2.09
  -8   3  -8   -0.12    1.86
  -8  -3  -8   -0.44    1.65
  -8  -8  -3    1.27    1.42
  -3   8  -8    1.10    1.49
  -3   8   8   -0.11    2.05
   3  -8  -8    0.37    1.68
  -8   8   3    1.22    1.35
   8   8  -3    1.43    2.00
   8   8   3   -0.41    2.25
  -8   3  -8    0.31    1.58
  -8  -8   3   -0.35    1.79
  -8  -8  -3   -0.10    1.80
  -8   8   3   -0.93    2.24
  -8   8  -3    1.29    2.19
   8  -3   8   -0.12    1.47
   8  -3  -8   -1.77    1.79
  -3  -8  -8    0.81    1.70
   8  -8   3   -0.74    1.96
   3  -8   8    0.49    1.51
   3  -8  -8    0.49    1.55
  -3  -8   8    1.47    1.78
   8  -8  -3   -1.29    2.06
  -8   3   8   -0.18    1.51
  -8  -3  -8    0.84    1.45
  -8  -3   8    0.83    1.29
  -8  -3  -8    0.64    1.88
   8  -8   3    1.35    1.89
  -8  -3  -8    0.70    1.44
  -8  -3   8    0.80    1.61
   8  -8  -3   -0.86    1.17
  -3  -8  -8   -0.64    1.95
  -8  -4  -8  220.23    9.67
  -8  -8  -4  212.76    9.09
   8  -8   4  214.32    9.14
  -8  -4  -8  242.95    9.88
   4  -8   8  236.64    9.47
  -4  -8  -8  242.69    8.67
  -8   4  -8  254.33   10.31
  -8   4   8  267.16   10.01
  -8   8  -4  259.93    9.70
  -4  -8   8  244.68    9.56
  -8   4  -8  229.37    9.95
  -8  -4  -8  226.16    9.66
  -8  -8  -4  219.90    8.91
  -4   8  -8  235.35    9.23
  -4   8   8  264.47   10.17
  -8  -4  -8  217.60   10.55
   8   8  -4  233.91    9.70
  -4  -8   8  270.66    9.39
   8  -4   8  243.66    8.76
  -8  -4  -8  245.60    9.06
  -8  -4   8  238.80    8.58
   8  -8   4  250.72    9.38
   8  -8  -4  247.04    9.31
  -8   8  -4  204.72   10.26
   4  -8   8  239.12    8.80
   4  -8  -8  269.94    8.97
   8  -4  -8  276.60    9.23
  -8   8   4  219.79   10.02
  -8  -8   4  222.26    9.18
  -8  -8  -4  198.54    9.23
  -4  -8  -8  262.18    9.18
   4   8  -8  245.07    8.97
  -8  -4  -8  261.58    8.94
  -8  -4   8  266.42    9.14
  -8  -4  -8  239.78    9.81
  -8  -4  -8  240.38    9.54
   8   8  -4  231.27    9.51
   4  -8   8  246.13    9.29
  -4  -8  -8  235.79    9.98
   8  -8   4  239.73    9.74
  -8  -4  -8  256.80   11.00
  -4  -8  -8  210.23   10.01
   8  -8   5    7.24    2.09
  -8  -5  -8    5.83    2.14
   5   8  -8    9.78    1.96
   5  -8   8    6.70    2.10
  -8  -5  -8    4.18    2.11
  -5  -8  -8    8.12    1.86
  -8   8  -5   10.83    2.45
  -8  -8  -5    4.60    1.90
   8   8  -5   11.49    2.25
  -5   8   8   12.20    2.84
  -8  -8  -5    6.27    2.09
  -8  -5   8    5.33    1.94
  -5  -8  -8    6.68    1.95
  -8  -5  -8    6.25    2.69
  -8   5  -8    2.93    2.39
  -5   8  -8    9.60    2.26
  -8  -5  -8    9.58    2.33
  -8  -5  -8    5.35    2.06
  -8  -8  -5    9.70    1.98
  -8   5   8   11.47    2.60
  -5   8   8    9.13    2.64
   8   8  -5    9.65    2.35
   8  -8   5   12.28    2.32
  -8  -8   5    3.07    1.99
  -8  -8  -5    2.83    1.98
   5  -8   8   11.72    2.00
   8  -8  -5    9.02    2.20
   5  -8  -8   10.25    1.94
   8  -5   8    9.21    1.90
   8  -5  -8   10.39    2.09
  -8   5   8    7.17    2.28
  -8  -5   8    6.71    1.62
  -8  -5  -8   11.02    1.97
  -8   5  -8    4.64    2.28
  -8   8   5    5.15    2.67
  -8   8  -5    3.05    2.35
  -5  -8  -8    7.36    2.08
  -8  -5  -8    6.84    2.90
   8  -8   5   10.41    2.55
  -8  -5  -8    7.34    1.91
  -8  -5   8    6.07    2.02
   8  -8   5   10.45    2.46
   5  -8   8    8.51    2.23
   8  -5   8    8.98    2.31
  -5  -8  -8    7.37    2.67
  -5  -8   8    7.79    2.26
  -8  -8  -6    1.33    1.69
   8   8  -6    6.29    2.10
   6  -8   8    4.84    2.11
   6   8  -8    8.05    1.98
  -8  -6  -8    2.76    1.92
   8  -8   6    5.88    2.10
  -6  -8  -8    3.01    1.67
   8  -6   8    4.32    2.18
  -6   8   8    4.14    2.53
  -8   6  -8    4.02    2.28
  -8  -8  -6    6.16    2.04
  -6   8  -8    4.14    2.29
  -6   8   8    4.19    2.47
  -8   6   8    7.10    2.44
  -8  -8  -6    5.84    1.92
  -6  -8  -8    6.21    2.00
  -8  -6   8    5.90    1.70
   6  -8  -8    7.28    1.99
   6  -8   8    7.75    1.92
  -6  -8  -8    2.73    1.72
  -8  -8   6    3.69    1.81
  -8  -8  -6    3.57    1.97
  -8   6   8    4.78    2.29
  -8   8   6    9.51    2.62
  -8   8  -6    1.49    2.26
  -8   6  -8    3.52    2.35
  -8  -6   8    4.35    1.52
  -8  -6  -8    3.75    1.75
   8  -6   8    4.63    1.85
   8  -6  -8    5.06    2.01
   8  -8   6    3.66    1.90
   8  -8  -6    5.44    2.06
  -6  -8   8    3.58    1.57
   8  -6   8    6.93    2.65
   8  -8   6    5.36    2.32
   6  -8   8    6.75    2.17
   8  -8   6    7.23    2.39
  -6   8  -8    6.04    2.18
   8  -6   8    8.27    2.32
  -6  -8  -8    4.99    2.58
  -6   8   8    6.55    2.26
   8   7  -8    3.37    2.04
  -8  -8  -7   -0.84    1.83
   8   8  -7    1.83    2.08
   7   8  -8    1.32    1.95
  -8  -7  -8   -0.68    1.97
   8  -8   7    1.34    2.07
  -8   7   8    4.91    2.60
  -8   8  -7    0.98    2.29
  -7   8   8    2.64    2.69
  -8   7  -8    3.74    2.61
  -8  -8  -7    1.17    1.96
  -8   7  -8    0.27    2.27
  -7  -8   8   -0.42    1.77
  -7  -8  -8   -1.74    2.18
  -8  -8  -7   -2.54    2.14
  -8  -8   7    0.45    1.75
  -8  -7   8    1.35    1.63
  -8  -7  -8    0.89    1.85
  -8   8  -7   -0.15    2.47
  -8   7   8    1.33    2.29
   8  -7  -8    2.12    2.11
  -8   8   7    0.59    2.48
   8  -8   7    1.90    2.03
   8  -8  -7   -0.65    2.10
   7  -8  -8    0.96    1.94
   7  -8   8    2.85    2.30
  -7   8   8    2.43    2.27
  -7   8  -8   -0.64    2.26
  -8  -8  -8   66.64    4.33
  -8   8   8   74.94    4.92
  -8   8  -8   79.57    5.31
  -8  -8   8   62.55    3.80
   0  -9   0    0.98    0.84
   0   0   9    2.77    1.31
   0  -9   0    2.58    0.94
   9   0   0    1.68    1.05
   0   0  -9    1.62    1.34
   0   9   0    3.15    1.38
   0   9   0    1.90    0.57
   0   0   9    0.86    1.29
  -9   0   0    2.23    1.30
   0   0   9    0.86    1.11
  -9   0   0    1.79    1.16
  -9   0   0    1.45    1.38
   0  -1  -9   18.46    2.04
  -9   0  -1   20.01    2.43
  -9   1   0   17.92    2.34
  -1   0  -9   17.51    1.98
   1   0   9   20.17    1.95
   0   1   9   20.12    1.82
   1   0  -9   21.11    2.08
   0   1  -9   16.96    1.86
   0  -1   9   19.42    1.91
  -1   0   9   21.43    1.92
   1  -9   0   17.13    1.42
   0  -9   1   16.92    1.48
   0  -9  -1   18.99    1.37
   1   0   9   17.26    2.01
   0  -1   9   18.69    1.98
   0   9   1   18.20    1.29
  -1   0   9   17.09    2.00
  -1   9   0   18.88    1.30
  -1   0  -9   17.05    1.97
   0   9   1   16.85    2.03
  -9   0  -1   17.86    1.23
  -1   9   0   18.99    2.06
   0   1   9   14.56    1.95
  -9  -1   0   15.45    1.83
  -9   0   1   15.87    1.73
  -9   1   0   14.63    1.79
   0  -9   1   16.77    2.15
   9   0   1   17.11    1.92
  -1  -9   0   14.75    1.43
   1  -9   0   17.33    1.40
   9   0  -1   16.14    1.62
   9  -1   0   15.32    1.48
   9   0   1   15.62    1.55
  -9  -1   0   19.32    1.83
   0  -9  -1   15.71    1.58
  -9   0  -1   17.65    1.82
   0   1   9   18.54    1.66
  -9  -1   0   19.13    2.16
  -9   0   1   17.49    1.64
  -9   0   1   19.83    1.97
   1   0   9   16.32    1.82
  -9   0  -1   19.05    2.12
  -1   0   9   17.53    1.65
  -9   1   0   21.44    2.01
   1   9   0   13.30    1.86
   9   1   0   20.11    1.74
  -1   1  -9  149.33    6.57
   1   1  -9  152.96    6.47
  -9   1  -1  173.07    7.32
   1   1   9  180.93    6.60
   1   9   1  162.98    6.58
   1  -1   9  176.25    6.63
  -1   1   9  184.33    6.35
  -1  -1   9  169.85    6.43
   1  -9  -1  152.39    5.67
   1  -9   1  150.98    5.93
  -1  -1  -9  159.87    6.70
   1  -1  -9  163.62    6.81
   1  -1   9  167.48    6.67
   1   1   9  155.23    6.78
  -1  -1   9  161.57    6.62
  -1   1   9  157.96    6.77
  -1   9   1  169.54    5.93
  -1   9  -1  165.93    5.47
  -1   1  -9  157.15    6.66
  -1  -1  -9  158.85    6.79
  -9   1  -1  163.11    5.51
  -1   9   1  174.42    6.77
  -9  -1   1  162.60    6.39
   1  -9   1  165.98    6.93
  -9   1   1  162.78    6.35
  -1  -9   1  179.91    6.92
   9  -1   1  173.00    6.65
   1   9   1  149.80    6.50
   1  -9  -1  151.39    6.08
   9   1   1  161.65    6.27
  -9  -1  -1  169.59    6.50
  -9  -1   1  170.28    6.31
   9  -1   1  158.72    6.02
  -9  -1   1  151.75    6.64
   1   1   9  152.42    6.25
  -1   1   9  157.00    5.95
  -9  -1  -1  173.65    7.03
  -9   1   1  166.02    6.39
   1  -1   9  166.56    6.62
   9  -1  -1  159.05    6.09
   9   1  -1  167.20    6.31
  -1  -9  -1  161.56    6.18
   1  -9   1  156.12    5.63
  -2   0  -9  208.42    8.33
   0   2  -9  197.22    8.06
  -9   0  -2  226.04    9.15
   0   2   9  238.52    7.87
   2   0   9  234.74    8.35
   2  -9   0  208.50    7.45
   0  -2   9  216.74    8.13
  -2   0   9  215.13    7.83
   0  -2  -9  223.03    8.52
   0  -9   2  214.31    7.68
   0  -9  -2  210.94    7.16
  -2   0  -9  213.61    7.85
   2   9   0  215.98    7.81
   0   9   2  232.26    8.60
  -9   2   0  228.68    8.67
   0  -2   9  212.20    8.13
   0   9   2  234.34    7.58
  -2   0   9  209.20    8.41
  -2   0  -9  212.88    8.36
  -9   0  -2  216.98    7.66
   0   9   2  201.20    8.44
   2   9   0  218.81    8.50
  -2   9   0  223.93    8.23
  -9  -2   0  196.92    7.98
  -9   0   2  218.48    7.92
  -9   0  -2  212.46    7.95
   0  -9  -2  234.33    8.60
   0  -9   2  239.21    8.61
  -9   2   0  184.26    7.82
   9   0   2  220.76    8.12
   9   0  -2  234.52    8.31
  -2  -9   0  212.62    7.64
   2   9   0  182.65    7.95
   0  -9  -2  209.33    7.92
  -9  -2   0  224.97    8.15
   0  -2  -9  202.23    7.32
  -9  -2   0  212.48    8.56
  -9   0  -2  217.10    8.08
  -9   0   2  215.03    8.00
   2   0   9  214.34    8.21
   9   2   0  210.37    7.95
   9  -2   0  208.11    7.55
  -9   0  -2  228.96    8.64
   2  -9   0  206.87    7.32
   9   0   2  203.91    7.74
  -9   2  -1   11.64    2.03
   9   2   1    7.47    1.34
   1  -9  -2    7.60    0.91
   9   1   2    9.51    1.45
  -2  -1   9   10.87    1.54
   1  -9   2    9.91    1.39
   9  -2   1    6.84    1.12
  -2  -9  -1    9.68    1.35
   9   2  -1    9.27    1.42
  -9  -1  -2   10.32    2.16
   9   1  -2   10.11    1.44
  -1  -9  -2   10.47    1.49
   2  -1   9   10.08    1.67
  -1   2   9   11.88    1.39
   2  -9  -1    9.73    1.11
   1   2   9   10.06    1.47
  -9   2   1   10.59    1.95
  -2   1   9   12.25    1.46
   1  -2   9   10.72    1.77
  -1  -2   9   12.41    1.64
   2  -9   1    8.77    1.22
  -2  -1  -9   11.65    1.41
   2  -9  -1    9.37    1.29
  -9   1  -2    7.42    1.99
  -1  -9   2   10.02    1.35
   2   1   9   11.42    1.67
  -2   1  -9    9.40    1.52
   9  -2  -1    9.49    1.28
   1  -9  -2    7.80    1.43
   1   9   2   12.15    1.75
  -1  -2  -9   10.48    1.75
   2   9  -1   10.10    1.32
   1   2  -9    8.88    1.52
  -1   2  -9   10.10    1.65
  -2   1  -9    9.83    1.73
   1   9   2    9.53    1.14
  -1  -2  -9    7.78    1.68
   1   9   2    9.75    1.92
  -1   9   2   10.71    1.77
  -9   1  -2   10.73    1.30
  -1   9  -2    8.57    0.65
   2   9   1    8.75    1.45
   2   9  -1   12.46    1.87
  -9   2  -1    8.66    0.93
  -1  -2   9    8.08    1.52
  -9  -1  -2   11.45    1.36
  -2  -1   9   11.24    1.74
  -2   1   9    8.62    1.75
  -1   9   2    9.57    1.33
  -2  -1  -9   13.55    1.91
  -2   9   1    9.36    1.60
  -2  -1  -9   11.49    1.78
  -1  -9  -2   11.73    1.99
  -9   1  -2    8.86    1.50
   9  -1   2   11.07    1.65
  -9   1   2    8.26    1.48
   9  -2   1   12.30    1.79
  -9   2   1    8.86    1.53
  -1  -9   2   13.85    2.00
   9  -1  -2   10.36    1.75
   1  -9  -2    9.63    1.93
   1  -9   2    8.13    1.90
  -9  -2   1    8.72    1.53
  -9  -1  -2   10.52    1.58
  -9  -1   2    9.60    1.54
   2  -1   9   10.64    1.76
  -9   1   2    9.19    1.41
  -1  -2  -9    9.34    1.26
   1   9   2    9.78    1.59
   2   9   1    7.96    1.55
   2  -9   1    8.45    0.86
  -9  -1  -2   13.85    1.79
  -9  -1   2   10.14    1.40
   1  -2  -9    9.00    0.87
   1   9  -2    8.36    1.51
  -2  -1  -9   12.64    1.39
  -2   1   9   11.00    1.16
  -9  -2   1    8.17    1.58
  -9  -1   2   10.23    1.76
   2   1   9   10.28    1.65
  -9  -2  -1   10.41    2.02
  -9  -2  -1    9.53    1.69
  -9  -1  -2   11.38    2.06
   9  -1   2   10.42    1.32
  -2  -9   1    9.90    1.89
   2   2   9    1.10    1.23
  -2  -9  -2   -1.58    1.24
   9  -2   2    0.37    0.86
  -2  -2   9   -0.13    1.17
   9   2  -2    0.52    1.08
  -9   2  -2   -0.31    1.68
   2  -9  -2    0.89    0.68
   2  -2   9   -0.48    1.46
  -2  -2  -9    0.10    0.93
  -2   2   9    1.06    1.02
   2  -9  -2   -0.71    1.29
   2  -9   2    1.19    1.00
   9   2   2   -0.74    1.15
  -2  -2  -9    0.17    1.32
   2   9   2   -0.34    1.27
   2   2  -9   -0.68    1.16
   2   9  -2   -0.76    1.04
  -2   9   2    0.17    1.10
  -2   2  -9    0.24    1.26
  -2   9   2   -0.55    1.38
  -2  -2   9   -0.67    1.31
  -2  -2  -9   -0.95    1.47
  -9  -2  -2    0.32    0.98
  -9   2  -2   -0.15    1.01
   9  -2   2   -0.14    1.26
   9  -2  -2   -0.66    1.33
  -9   2   2   -0.77    1.37
  -9   2  -2   -0.67    1.32
  -9  -2  -2    0.60    1.10
  -9  -2   2    1.16    1.23
  -2  -2  -9    0.85    1.05
   2  -2   9   -1.40    1.52
   2   9   2    0.70    1.18
   2   9  -2   -0.28    1.17
  -2  -9   2   -0.64    1.60
  -2  -9  -2   -0.32    1.65
  -9  -2  -2   -0.30    1.40
  -9  -2  -2    0.43    1.58
  -9  -2   2    0.11    1.17
   9   3   0    6.19    1.40
  -9   0  -3    5.61    1.90
   3   0   9    5.58    1.65
  -9   3   0    4.03    1.71
   9  -3   0    5.04    1.02
  -3  -9   0    5.46    1.17
  -3   0   9    3.48    1.31
   0   3   9    4.69    1.17
   0  -9   3    5.58    1.31
   0  -9  -3    3.96    0.78
   3  -9   0    3.87    1.09
  -3   0  -9    5.50    1.45
   0   3  -9    6.76    1.49
   3   9   0    4.70    1.14
   0  -3   9    5.71    1.51
   0  -9  -3    4.76    1.56
   3  -9   0    4.86    0.91
   0   9   3    5.00    1.73
   3   9   0    6.07    1.73
  -3   9   0    6.88    1.55
   0  -3   9    6.22    1.47
  -9   0  -3    2.85    1.36
   0  -3  -9    3.80    1.66
   0   3   9    5.87    1.65
   0   9   3    5.14    1.25
   0   9   3    1.81    1.68
  -3   0   9    3.82    1.64
  -3   0  -9    2.28    1.57
  -9   0  -3    4.02    1.35
  -9   0   3    3.45    1.33
   9   0  -3    4.36    1.58
   9   0   3    4.84    1.58
   0  -9  -3    2.78    1.69
   0  -9   3    6.70    1.86
  -9  -3   0    5.01    1.64
  -9   3   0    3.69    1.58
   3   9   0    4.22    1.51
  -9   0  -3    5.56    1.47
   0  -3   9    4.12    0.96
   9  -3   0    5.99    1.66
   0  -3  -9    4.67    1.10
  -9  -3   0    3.44    1.54
  -9   0   3    4.96    1.35
  -9   0  -3    8.06    1.91
   3   0   9    3.95    1.56
  -3  -1  -9  110.69    5.09
   3   9  -1  113.16    4.06
   1   3   9  126.17    4.46
   3   1   9  121.26    5.00
  -9   3   1  124.71    5.12
  -1   3   9  118.20    4.15
  -9   1  -3  120.11    5.74
  -9   3  -1  133.82    5.46
   3  -1   9  127.41    5.17
   3  -9  -1  109.88    3.96
   3  -9   1  107.18    4.23
   1   3  -9  116.81    4.61
   1  -9  -3  108.67    3.54
   1  -3   9  112.31    4.91
  -1  -3  -9  118.74    5.21
  -1  -3   9  114.46    4.78
  -3   1   9  123.50    4.35
   1  -9   3  113.50    4.46
   1   9   3  123.55    5.07
  -3  -1  -9  115.80    4.60
  -1   9   3  132.27    5.65
  -3  -1   9  120.82    4.62
  -3   1  -9  110.01    4.69
  -1  -9   3  113.72    4.51
   1   3   9  123.87    5.19
   1   9   3  120.69    4.36
  -1  -3   9  114.60    4.71
  -9   3  -1  112.23    3.82
  -1  -3  -9  105.09    5.28
   1  -3  -9   96.36    5.03
  -9   1  -3  112.89    4.78
  -1   3   9  107.67    5.09
  -3  -1   9  119.88    5.06
  -1   9   3  127.07    4.64
  -3   1  -9  116.53    5.14
  -3   1   9  117.05    5.24
  -3  -1  -9  110.69    5.12
  -1   3  -9  119.97    4.90
   1   9   3  115.59    5.45
  -1   9   3  112.95    5.21
  -9  -1  -3  114.26    4.77
   3   9   1  115.77    5.37
  -3   9   1  115.74    4.80
   3   9  -1  132.09    5.45
   9  -3   1  123.91    5.02
  -9  -3   1  126.25    4.84
   3  -9   1  129.88    4.83
   1  -9  -3  119.26    5.20
   1  -9   3  122.09    5.23
  -9  -1  -3  111.49    4.63
  -9  -1   3  119.67    4.63
  -9   1  -3  112.31    4.68
  -9   1   3  111.23    4.56
  -1  -9  -3  123.90    5.16
  -1  -9   3  126.74    5.14
  -9   3   1  113.87    4.74
  -3  -9   1  130.79    5.23
   9  -1   3  118.73    4.76
   9  -1  -3  128.07    5.00
  -1  -9  -3  117.53    4.90
   1   9   3   96.03    4.61
   1   9  -3  104.20    4.71
   9   3   1  108.85    4.68
   3   9   1  104.66    4.65
  -1  -3   9  107.40    3.68
   1  -3   9  106.62    4.04
   9  -3  -1  113.28    4.86
   9  -3   1  109.05    4.94
  -9  -3   1  116.33    4.65
   1  -3  -9  101.25    3.90
  -9  -3  -1  112.40    4.80
   9   3  -1  108.40    4.65
  -9  -1  -3  118.95    4.94
  -1  -3  -9  111.12    4.38
  -9  -3  -1  115.90    5.54
   3   1   9  116.65    4.91
  -3  -1  -9  111.18    4.45
  -9  -1   3  124.45    4.30
   9  -3   1  108.81    4.04
   1  -9  -3  104.56    4.89
  -3   1   9  115.35    3.85
   3  -1   9  114.64    5.08
  -9   1   3  116.25    4.34
  -9  -1  -3  126.41    5.70
   3  -9  -1  117.09    4.34
  -3  -9  -1  115.51    4.53
  -2  -9  -3   10.08    1.68
   9   2  -3   10.48    1.62
  -3  -9  -2   10.09    1.58
   2  -9  -3    9.26    0.78
   3   9  -2   12.78    1.11
  -3  -2  -9   12.55    1.61
  -2  -3   9    9.22    1.68
  -9   2  -3   12.12    2.26
   2   3  -9   13.42    1.56
  -9   3   2   16.01    1.91
   3  -2   9   12.11    2.00
  -9   3  -2   10.96    2.08
   3  -9  -2   11.31    1.05
  -2   3   9   13.70    1.30
  -3  -2   9   10.61    1.65
   3   2   9   10.67    1.75
   2  -3   9   12.15    1.89
   3  -9   2   12.34    1.47
   2  -9   3   12.50    1.57
  -3   2   9   14.41    1.43
   2   9   3   12.44    1.84
  -3   2  -9   12.40    1.78
  -2  -3  -9   13.42    1.42
   3   9  -2   10.55    1.61
  -2  -3  -9   12.77    1.89
   9   2  -3   11.35    1.04
  -3   9   2   11.14    1.76
  -2   9   3   12.09    1.65
  -3  -2  -9   12.34    1.92
   2   3   9   10.31    1.80
  -2   3  -9   14.96    1.90
  -9  -2  -3   13.56    1.82
  -2  -3   9   12.04    1.66
  -3  -2   9   11.88    1.76
  -2   9   3    7.25    1.78
  -3   2  -9   12.77    1.91
  -3   2   9   11.37    2.11
   3   9   2   10.70    2.12
  -2  -3  -9    8.00    1.85
   2  -3  -9   13.28    1.91
   2  -3   9   11.78    0.75
   2  -3  -9   13.79    0.89
   3  -9  -2   14.02    1.82
   9  -3   2   15.04    1.92
   3  -9   2   13.53    1.80
   2  -9  -3   14.25    1.83
   9  -2   3   10.57    1.75
   9  -2  -3   10.98    1.83
  -9   2  -3   10.32    1.69
  -9   2   3   10.16    1.65
  -3  -2  -9   12.88    0.83
   9  -3  -2   14.20    1.91
  -9  -3   2   11.54    1.68
  -9  -3  -2   11.68    1.72
  -9   3   2   12.30    1.75
  -9   3  -2   11.16    1.77
   2  -9   3   14.52    1.85
  -2  -3  -9   13.37    0.88
  -9  -2  -3   11.80    1.64
  -9  -2   3   13.19    1.71
  -3  -2  -9   13.63    0.89
  -3  -2   9   12.82    0.91
  -3  -9  -2   13.74    2.09
  -3  -9   2   14.71    2.11
  -2   3  -9   12.55    0.82
   3   9   2   11.40    1.66
   2  -3   9   12.30    1.45
  -9  -2  -3   14.78    2.44
  -2  -9   3   12.39    2.03
  -9  -3   2   14.21    1.64
  -2  -9  -3   14.16    2.08
   2  -3  -9   12.10    0.95
   2   9   3   10.49    1.68
   2   9  -3    9.68    1.60
   3   9  -2   10.02    1.61
  -9  -2   3   12.93    1.52
  -3  -2  -9   13.48    1.69
   9  -3  -2   12.84    1.72
   9  -3   2   12.09    1.96
   3  -2   9   15.72    2.14
   2   9  -3   12.26    1.56
   9   3  -2   13.63    1.74
   9   3   2   13.99    1.78
  -9  -3  -2   11.64    1.84
  -2  -3  -9   12.05    1.58
  -9  -3  -2   11.74    2.28
   9  -3   2   15.04    1.34
  -9  -2  -3   11.89    1.84
  -9  -3  -3   72.84    4.68
  -9   3   3   81.56    3.97
   3  -3   9   79.23    4.18
  -9   3  -3   78.67    4.60
   3  -9   3   67.33    3.56
  -3  -3  -9   77.66    3.58
  -3  -3  -9   66.27    4.12
  -3  -3   9   75.94    3.87
   3   9  -3   72.90    2.81
  -3   3  -9   73.17    3.83
  -3  -3  -9   63.22    4.34
   3  -3  -9   67.85    3.92
  -3  -3   9   77.02    3.86
  -3   3  -9   75.17    4.14
   3   9   3   76.95    4.62
   9   3  -3   68.60    3.23
  -3   9   3   80.05    4.16
  -9  -3  -3   72.78    3.87
   3  -3   9   67.70    2.69
   3  -3  -9   75.93    2.88
   9  -3   3   75.82    3.91
   9  -3  -3   84.50    4.12
  -9  -3   3   81.20    3.84
  -9  -3  -3   76.51    3.83
  -3  -3  -9   71.38    2.88
  -3  -3   9   66.64    2.66
   3  -9   3   87.60    3.98
   3  -9  -3   90.62    4.01
  -3  -9  -3   90.73    4.32
  -3  -9   3   86.02    4.28
  -3  -3  -9   70.52    2.91
  -9   3   3   82.67    3.90
  -9   3  -3   73.50    3.92
  -3  -3   9   70.69    2.93
  -3  -3  -9   74.21    3.87
   3  -3   9   67.16    3.48
   9   3  -3   76.89    3.84
   3   9   3   67.12    3.63
   3   9  -3   72.52    3.77
  -9  -3  -3   69.42    3.99
   9  -3   3   70.10    4.15
  -9  -3   3   77.17    3.54
   9  -3  -3   68.18    3.67
  -3  -9  -3   72.03    3.85
  -9  -3  -3   65.61    4.58
   3   9  -3   82.42    3.80
   4   0   9    6.27    1.75
   4  -9   0    4.33    0.90
   0  -9  -4    4.55    0.65
   9  -4   0    4.98    1.00
  -9   0  -4    6.22    2.22
  -4   0  -9    3.83    1.63
   4  -9   0    5.45    1.16
  -9   4   0    5.81    1.75
   0  -9   4    8.40    1.54
  -4   0   9    6.19    1.41
   0  -4   9    6.37    1.71
   9   4   0    5.89    1.43
   0  -9  -4    3.37    1.73
   0  -4  -9    4.30    1.77
  -9   0  -4    4.23    1.62
   0   9   4    3.84    1.89
   0   4   9    7.08    1.80
   0   9   4    3.29    1.42
   4   9   0    5.31    1.81
  -4   0  -9    4.13    1.75
  -4   0   9    6.49    1.80
  -4   9   0    7.73    1.50
   0   9   4    6.59    1.89
   0  -9  -4    5.32    1.90
  -9   0   4    6.03    1.40
  -9   0  -4    6.05    1.44
   9   0  -4    4.02    1.65
   9   0   4    5.09    1.59
   0  -9   4    5.24    1.92
  -4   0  -9    6.53    0.86
  -9  -4   0    4.77    1.57
   0  -4  -9    5.75    0.86
   0  -4   9    5.50    0.76
   0  -4   9    4.80    1.15
  -4   0  -9    5.63    0.74
   0   9   4    2.95    1.49
   0   9  -4    3.51    1.49
  -4   0   9    5.55    0.78
   4   9   0    4.69    1.60
  -9   0  -4    5.63    1.62
  -9   0   4    4.08    1.34
   4   0   9    6.30    1.75
   9  -4   0    6.00    1.66
  -4   9   0    4.83    1.94
   4  -9  -1    7.78    1.14
   9   4  -1    5.87    1.49
  -4  -9  -1    9.86    1.44
  -1  -4   9    6.68    1.70
   4  -1   9    9.87    1.94
  -4  -1  -9    8.55    1.69
   1  -9   4    6.96    1.54
  -1   4   9    8.11    1.01
  -9   1  -4    8.85    2.18
  -9   4   1    8.52    1.68
   4  -9   1    6.29    1.35
   4  -9  -1    5.44    1.23
  -4   1  -9    7.34    1.65
  -9   4  -1    9.89    2.02
  -4   1   9    8.47    1.38
   4   1   9    7.31    1.87
  -1  -9   4    8.52    1.55
  -4  -1   9    8.67    1.60
   9   4   1    4.27    1.52
   1  -4   9   10.58    1.90
  -1  -9  -4    9.64    1.84
   1   9  -4    8.65    1.35
  -1   4  -9    8.35    1.64
  -4   9   1    7.21    1.57
   4   9   1    5.82    1.95
  -1  -4  -9    7.29    1.91
   1  -4  -9    6.25    1.85
   1   9   4    8.69    1.91
   1   9   4    7.04    1.96
  -1   9   4   10.00    2.07
  -1  -4   9    6.61    1.45
   1   9   4    8.57    1.50
   1   4   9    8.95    1.86
   4   9  -1    6.95    1.85
  -9  -1  -4    9.98    1.87
  -1   4   9    5.80    1.73
   9   4  -1    7.19    1.50
  -4   1  -9    8.17    1.95
  -1   9   4   11.42    1.71
  -4  -1  -9    8.69    1.86
  -1   9   4    8.69    2.01
  -4  -1   9    8.87    1.76
   1   4  -9   10.34    1.49
  -9   1  -4    6.44    1.75
  -4   1   9    8.11    1.98
  -1  -4  -9    6.76    0.91
  -1  -4   9    7.73    0.87
  -1  -4  -9    9.09    0.91
   9  -1   4    7.03    1.70
   9  -1  -4    7.06    1.86
  -9   1   4    8.53    1.55
  -9   1  -4    9.39    1.58
   1  -4   9    8.06    0.82
   1  -4  -9    8.26    0.91
  -1  -9  -4    9.46    1.99
  -4   1   9    7.75    1.03
  -9  -4   1    8.62    1.67
  -1  -9   4    8.28    2.00
   9  -4   1    8.10    1.82
  -4   1  -9    7.85    1.04
  -9   4   1    7.49    1.72
  -4  -1  -9    7.99    0.94
  -4  -1   9    7.22    0.85
   4  -9   1    7.66    1.75
  -9  -1  -4    9.41    1.60
  -9  -1   4    8.89    1.60
  -4  -1   9    7.41    0.90
  -9   1   4    8.05    1.27
  -1   4   9    7.67    0.81
  -9  -1  -4   11.59    2.33
  -1   4  -9    7.78    0.80
  -9  -1  -4    8.69    1.77
   1   9   4    3.07    1.51
   1   9  -4    6.01    1.52
  -1  -4   9    5.82    1.00
  -4  -1  -9    8.10    1.52
   4   9   1    5.10    1.48
  -9  -4   1    9.28    1.69
   9  -4   1    7.18    1.08
  -4   1   9    8.04    0.90
   1  -4   9    8.50    1.31
   9  -4   1    7.53    1.75
   9  -4  -1    5.16    1.61
   4  -1   9    9.35    2.04
  -4   9   1    7.99    2.03
   2   9   4  132.15    5.80
  -2   4   9  123.74    4.39
   2   4  -9  122.98    5.02
  -2   9   4  154.35    6.53
  -4  -2  -9  118.48    5.82
  -9  -2  -4  127.46    6.48
  -9   4   2  139.14    5.52
   4  -2   9  138.98    5.92
   4  -9   2  128.59    5.15
  -9   2  -4  132.72    6.41
  -9   4  -2  139.12    6.09
   2  -4   9  131.62    5.72
  -2  -4  -9  127.49    5.96
   2  -9   4  122.13    5.30
  -4  -2  -9  122.64    5.39
  -4   2   9  146.02    4.92
  -2  -4   9  124.71    5.52
  -2  -4  -9  128.53    4.83
  -4   2  -9  130.54    5.64
  -4  -2   9  133.28    5.42
  -2  -9   4  130.26    5.37
   2   4   9  129.82    5.78
  -2  -4   9  125.17    5.31
  -2   9  -4  126.44    4.54
  -4   2  -9  124.83    5.90
  -2  -4  -9  104.88    6.06
  -2   4   9  133.05    6.09
   2  -4  -9  117.86    5.80
  -4  -2   9  140.36    5.80
  -2   9   4  134.78    6.05
   9   4  -2  112.10    5.11
  -2   4  -9  129.47    5.59
  -2   9   4  134.65    5.58
  -4   2   9  132.43    6.09
   9   2  -4  114.11    4.45
   4   9   2  128.06    6.33
  -2  -4  -9  125.64    5.81
  -9  -2  -4  129.98    5.96
  -4   9   2  138.11    5.60
   4   9  -2  148.24    6.27
   9  -2   4  129.68    5.47
   9  -2  -4  141.07    5.75
   4  -9   2  139.26    5.64
   4  -9  -2  146.53    5.70
  -9  -4  -2  118.06    5.37
   9  -4   2  136.93    5.73
   9  -4  -2  139.50    5.84
  -2  -4  -9  123.79    4.56
  -4   9   2  111.44    6.08
  -4   9  -2  116.09    6.21
  -9  -2  -4  125.27    5.39
  -9  -2   4  136.85    5.37
  -2  -4  -9  111.50    4.59
   2  -4   9  117.48    4.29
   2  -4  -9  131.74    4.47
  -2  -4   9  113.84    4.59
   2  -9   4  138.97    5.48
   2  -9  -4  150.28    5.60
  -4  -2  -9  113.19    4.44
  -4  -2   9  106.46    4.25
  -4   2   9  117.74    4.57
  -4   2  -9  119.24    4.60
  -9   2   4  135.80    5.48
  -9   2  -4  125.73    5.56
  -9  -4   2  128.38    5.41
  -2  -9  -4  141.94    5.80
  -2  -9   4  141.63    5.86
  -2  -4   9  109.10    4.26
  -9   4   2  125.37    5.53
  -9   4  -2  126.37    5.62
   2   9  -4  134.68    5.21
  -2   4  -9  118.86    4.41
   4   9   2  116.71    5.33
   4   9  -2  117.28    5.32
  -9  -4  -2  133.21    5.45
  -9  -4   2  143.11    5.63
   9   4  -2  125.48    5.52
  -9  -4  -2  125.10    5.70
   2   9  -4  125.79    5.42
   9  -4   2  133.35    5.89
   9  -4  -2  126.68    5.52
   2  -4   9  127.93    5.08
  -9  -2  -4  128.73    5.76
  -4  -2  -9  135.19    5.59
  -2  -4   9  119.17    4.40
  -2  -9  -4  128.45    5.74
   2   9   4  113.98    5.28
  -4  -9  -2  127.15    5.38
  -9  -2   4  134.71    4.91
  -9  -4  -2  131.76    6.53
   9  -4   2  129.29    5.93
   9   4   2  115.56    5.54
   4  -2   9  139.43    6.17
  -9  -2  -4  158.09    6.91
  -2   4   9  115.99    4.40
   9  -4   2  124.71    4.68
   4   9  -2  131.02    5.59
  -9  -3  -4    2.75    1.97
  -3  -9  -4    0.17    1.62
   3   9  -4    2.33    1.31
  -9   4   3    1.26    1.36
  -4  -9  -3    0.54    1.42
  -3   4   9    1.39    0.79
   9   4  -3    0.23    1.45
  -9  -3  -4    4.92    1.30
   9   3  -4    2.41    1.42
   4  -3   9    1.29    1.78
  -4  -3  -9    2.99    1.52
   4  -9   3    2.33    1.42
   3  -4   9    0.18    1.73
  -9   3  -4    3.55    1.99
  -9   4  -3    1.67    1.85
  -3  -4   9    1.22    1.56
   4   9  -3    0.43    1.42
  -4   3   9    2.90    1.73
  -4   3  -9    2.42    1.61
   3  -9   4    2.02    1.50
  -4  -3   9    3.41    1.64
  -3  -4  -9    2.52    1.24
  -3   4   9    0.96    1.80
  -4   3   9    2.79    1.08
  -3  -4  -9    1.34    1.60
   4  -3  -9    1.23    1.56
  -3  -4  -9    1.03    1.82
   9   3  -4    2.77    1.10
  -3   9   4    1.49    1.73
   3  -4  -9    0.91    1.53
   4   9   3   -0.75    2.05
  -3   9  -4    2.18    1.08
   9   4  -3    1.00    1.22
  -9  -3  -4    2.25    1.66
  -3  -4   9    1.68    1.33
  -4   9   3    0.91    1.54
  -4   3  -9    3.60    1.87
  -3   9   4    3.07    1.73
  -4  -3   9    3.00    1.45
  -9  -4  -3    4.18    1.66
  -3   4  -9    2.71    1.68
  -3   4   9   -0.43    1.96
  -4  -3  -9    1.46    1.71
   4  -3   9    1.27    0.84
   4  -3  -9    1.47    0.98
  -3  -4  -9    1.41    0.98
  -3  -4   9    1.10    0.75
   9  -3   4    1.67    1.60
   9  -3  -4    2.45    1.74
  -9  -4   3    2.55    1.47
  -9  -4  -3    2.04    1.42
   9  -4   3    2.14    1.67
   9  -4  -3    1.87    1.69
  -9  -3   4    0.20    1.46
  -9  -3  -4    1.36    1.42
   3  -4   9    1.37    0.85
  -9   3   4    0.49    1.58
  -9   3  -4    0.24    1.61
   3  -4  -9    1.12    0.93
  -4  -3  -9    1.99    0.98
  -4  -3   9    2.05    0.79
   4  -9   3    1.36    1.60
   4  -9  -3    2.70    1.67
  -9   4   3    1.86    1.50
  -9   4  -3    3.20    1.63
   3  -9   4    0.47    1.65
   3  -9  -4    1.86    1.68
  -3  -4   9    1.41    0.71
   4  -3   9    3.11    2.07
  -4   3   9    2.67    1.05
   3   9   4    1.99    1.38
   3   9  -4    2.81    1.48
  -9  -4  -3    1.92    1.45
  -9  -4   3    1.84    1.60
   4   9   3    1.59    1.34
   4   9  -3    2.63    1.40
  -9  -3  -4    1.56    1.48
  -9  -3   4    3.07    1.74
   4  -3   9    2.37    1.47
  -9  -4   3    1.01    1.33
  -3  -4  -9    0.65    1.53
  -9  -4  -3    0.61    1.63
   9  -3   4    1.36    1.91
  -4   9  -3    1.80    1.75
   9  -4   3    1.57    1.83
  -9  -4  -3    2.30    2.10
   9  -4   3    2.27    1.77
  -9  -3  -4    1.91    2.17
   9  -4  -3    0.14    1.39
   3  -4   9    1.18    1.38
  -9  -3  -4    1.04    1.60
  -4  -3  -9    1.69    1.57
  -9  -3   4    3.10    1.28
  -3  -4  -9    2.58    1.05
  -3  -4   9    2.81    1.08
  -4   3  -9    1.76    1.07
  -3  -9  -4    2.85    1.76
  -3  -9   4    2.63    1.88
  -4   9   3    3.06    1.81
  -9   4   4    5.26    1.49
   4   9  -4    8.13    1.75
  -4  -9  -4    3.81    1.66
   9   4  -4    8.19    1.73
  -9  -4  -4    8.08    1.43
   4  -4   9    7.77    2.16
  -4   4   9    7.36    0.97
   4  -9   4    5.86    1.69
  -9   4  -4    6.91    2.24
  -9  -4  -4    6.93    2.31
  -4   4  -9   10.45    2.04
  -4  -4   9    5.18    1.81
  -4  -4  -9   10.13    1.73
   4   9   4    6.92    2.44
  -4   9   4    6.71    2.04
  -4  -4  -9    8.94    1.97
  -9  -4  -4    6.35    1.95
   4  -4  -9    7.97    1.83
   9   4  -4    5.51    1.38
  -4   4   9    4.69    2.07
  -4  -4   9    8.83    1.64
  -4   4  -9    7.82    2.10
  -4   4   9    6.17    2.12
   4  -4   9    9.16    1.16
  -4  -4   9    6.00    0.99
  -4  -4  -9    7.25    1.26
  -9  -4   4    8.01    1.63
  -9  -4  -4    9.18    1.71
   9  -4   4    7.07    1.92
   9  -4  -4    8.94    2.04
   4  -4  -9    8.63    1.30
   4  -9   4    6.03    1.84
   4  -9  -4    6.73    1.90
  -9   4   4    6.08    1.79
  -9   4  -4    5.20    1.84
  -4   9  -4    8.95    2.12
  -4  -4   9    5.47    0.65
  -9  -4  -4   10.08    1.82
  -9  -4   4    8.52    1.96
   4   9   4    5.34    1.57
   4   9  -4    7.56    1.64
  -9  -4   4    5.89    1.50
  -4  -4  -9    6.43    1.85
  -9  -4  -4    5.66    1.85
  -4   4   9    6.90    1.34
   9  -4  -4    7.61    1.59
  -4   9   4   10.44    2.30
   4  -4   9    7.24    1.62
   9  -4   4    6.99    2.22
  -9  -4  -4    3.79    2.47
  -4   4  -9    7.47    1.36
   5   0   9   27.03    2.73
   5  -9   0   21.83    1.78
  -9   5   0   25.44    2.41
   0   9   5   23.56    2.70
   0  -5   9   22.28    2.40
  -5   0  -9   29.44    2.58
   0  -9   5   21.02    2.20
  -5   0   9   26.85    2.07
   0   5   9   26.19    2.69
   0   9   5   24.39    2.33
   9   5   0   22.02    2.33
   0   9   5   24.02    2.79
  -9   0  -5   20.19    2.49
  -5   0  -9   26.82    2.70
   0  -5  -9   24.75    2.71
  -5   0   9   24.08    2.55
   5   9   0   20.00    2.68
  -9   5   0   24.91    1.31
  -5   9   0   25.76    2.12
  -9  -5   0   28.30    2.49
   0  -9  -5   21.96    2.50
   0  -9   5   27.33    2.63
  -9   0  -5   22.66    2.21
  -9   0   5   22.84    2.06
  -5   9   0   20.89    2.91
   9   0  -5   23.13    2.39
   9   0   5   25.06    2.23
   0  -5   9   19.70    1.48
   0  -5  -9   24.13    1.57
  -5   0   9   23.13    1.53
  -5   0  -9   22.91    1.63
   0   9   5   22.34    2.23
  -5   0  -9   23.27    1.45
   0   5   9   21.44    1.43
   0   5  -9   22.56    1.43
   5   9   0   20.92    2.19
   9  -5   0   23.91    1.54
   9   5   0   23.06    2.27
   0   9  -5   21.83    2.20
   9  -5   0   26.33    2.54
   0  -5   9   25.46    1.80
   5   0   9   28.26    2.87
  -9   0   5   24.29    1.91
   0   9  -5   25.84    1.74
  -5   0   9   23.79    1.54
   5  -9   0   21.12    1.33
   1   9   5  123.97    5.78
   5  -9  -1  113.25    4.57
  -1  -9  -5  106.38    4.04
   5  -1   9  124.56    5.80
   5  -9   1  112.43    4.75
  -9  -1  -5  120.27    6.27
  -9   5   1  133.37    5.29
  -9   1  -5  126.80    6.37
  -9   5  -1  131.63    5.65
   1  -5   9  121.08    5.47
  -5  -1  -9  111.50    5.37
   1  -9   5  115.73    5.11
  -1  -5   9  120.63    5.35
  -5   1  -9  126.00    5.54
   1   5  -9  121.70    4.93
  -1  -9   5  118.00    5.14
  -5   1   9  136.28    4.84
  -5  -1   9  132.94    5.11
  -1   9   5  131.97    6.10
   1   9   5  126.90    5.24
   1   5   9  130.41    5.76
  -1   9   5  123.82    5.98
  -5   1  -9  129.26    5.91
  -1   5   9  128.10    5.84
  -5  -1  -9  116.07    5.73
  -1   9   5  128.36    5.44
   9   5  -1  113.02    5.25
  -9  -1  -5  113.29    5.86
  -1  -5  -9  105.44    5.93
  -5  -1   9  123.76    5.68
   1  -5  -9  117.42    5.87
  -5   1   9  123.19    5.85
  -1   5  -9  123.29    5.23
   5   9   1  118.71    6.07
   1   9   5  129.11    6.17
  -5   9   1  124.00    5.11
   5   9  -1  128.96    5.94
  -9  -5   1  116.19    5.25
  -9   5   1  135.39    5.55
   9  -5   1  126.23    5.53
  -1  -5   9  113.27    4.26
  -1  -5  -9  134.64    4.39
  -9  -1   5  124.49    5.01
  -9  -1  -5  116.46    5.14
  -1  -9  -5  126.68    5.52
  -1  -9   5  128.47    5.57
  -9   1   5  126.47    5.07
  -9   1  -5  122.58    5.23
   1  -5   9  111.18    4.21
  -5  -1  -9  111.78    4.38
  -5  -1   9  110.89    4.18
   1  -5  -9  128.17    4.37
   5  -9   1  139.82    5.57
  -5   9   1  103.62    5.96
   9  -1   5  124.74    5.17
   9  -1  -5  140.49    5.53
  -1   5  -9  110.58    4.24
   1   9   5  115.52    5.10
   1   9  -5  112.93    5.11
  -5  -1  -9  115.28    4.21
  -1   5   9  111.79    4.24
  -5  -1   9  123.15    4.32
   1   9  -5  122.11    4.71
  -9  -5   1  134.78    5.45
  -9  -1  -5  122.82    4.73
   9  -5   1  128.71    5.69
   9  -5  -1  133.56    5.61
   9  -5   1  111.28    4.21
   9   5  -1  130.76    5.50
   1  -5   9  118.71    4.71
  -5  -1  -9  125.81    5.33
   9  -5   1  110.77    5.34
  -1  -5   9  113.57    4.40
   5  -1   9  126.44    5.92
   5   9  -1  125.53    5.48
  -5   1   9  114.23    3.92
  -1  -9  -5  111.35    5.77
  -9   1   5  118.98    4.44
   9   5   1  115.86    5.33
  -5  -9  -1  114.40    4.96
   2   9  -5    2.62    1.34
   5  -2   9    3.73    1.99
   9   5  -2    5.74    1.64
  -5   2   9    3.75    1.72
  -5  -9  -2    5.47    1.46
   5  -9   2    4.96    1.40
  -9  -2  -5    4.94    1.27
   5   9  -2    5.49    1.68
   9   5   2    3.32    1.57
  -5   2  -9    4.11    1.75
  -9   5   2    5.13    1.59
  -9  -2  -5    4.71    2.15
  -2  -5   9    6.18    1.81
  -2  -5  -9    5.09    1.10
  -5   2   9    4.02    1.26
  -9   2  -5    4.00    2.08
  -9   5  -2    7.04    1.98
   2  -5   9    5.07    1.87
  -2  -9   5    4.35    1.64
   2  -9   5    4.43    1.57
  -5  -2  -9    6.32    1.67
  -2  -9  -5    3.63    0.98
  -2  -9  -5    3.32    1.73
  -5   2   9    3.81    2.02
   2   9   5    3.49    2.23
  -5  -9  -2    2.94    0.97
   5   9  -2    7.37    1.94
  -5   9   2    4.53    1.57
   2   9   5    4.86    1.52
   2   5   9    7.50    1.92
  -2  -5   9    4.37    1.31
  -2  -5  -9    2.95    2.06
  -2   9   5    5.05    1.96
   5   9   2    4.68    2.18
   2  -5  -9    2.99    1.79
   9   5  -2    3.36    1.51
  -5   2  -9    4.33    1.94
  -2   9  -5    3.78    0.98
   9   2  -5    2.86    0.91
  -9  -2  -5    1.39    1.95
  -2   5   9    6.18    2.03
  -2   9   5    7.20    2.14
  -2   9   5    4.19    1.71
   5  -2  -9    2.65    1.47
  -5  -2  -9    2.35    1.57
  -2   5  -9    4.10    1.53
  -5  -2   9    3.35    1.71
   2   5  -9    6.13    1.35
  -9   5   2    6.20    1.85
  -9   5  -2    3.38    1.74
  -2  -5   9    3.00    1.28
  -5  -2  -9    2.28    1.03
  -5  -2   9    3.16    0.94
   2  -9   5    7.18    1.65
   2  -9  -5    6.41    1.68
   5  -2   9    3.79    0.98
   2  -5   9    3.83    0.97
   2  -5  -9    3.81    1.06
   5  -2  -9    3.39    1.22
   9  -2   5    4.38    1.61
   9  -2  -5    2.62    1.71
  -9  -5   2    3.54    1.61
  -9  -5  -2    5.62    1.69
  -5   2   9    2.06    1.22
  -9   2   5    7.00    1.70
  -9   2  -5    2.78    1.57
  -5   2  -9    1.74    1.27
   5  -9   2    6.12    1.91
   5  -9  -2    3.26    1.82
  -2  -5  -9    4.18    1.28
   9  -5   2    4.93    1.85
   9  -5  -2    9.07    2.05
  -9  -2  -5    4.34    1.60
  -9  -2   5    4.12    1.54
  -9  -2  -5    4.56    2.26
   2  -5   9    5.17    1.46
  -5  -2  -9    4.38    1.71
  -2   5  -9    3.37    1.07
  -5  -2  -9    3.90    1.01
  -5  -2   9    4.86    1.12
   9  -5  -2    4.62    1.73
   2   9   5    2.39    1.46
   2   9  -5    1.02    1.35
  -9  -2   5    5.06    1.11
  -9  -5  -2    5.12    1.71
  -9  -5   2    6.11    1.86
   9  -5   2    2.68    1.78
  -2  -9   5    5.35    1.91
  -2  -9  -5    4.29    1.85
  -5   9   2   -0.12    1.92
  -5   9  -2    4.69    2.10
   5  -2   9    5.69    2.14
   9  -5   2    5.44    1.88
  -3   5   9   95.68    5.25
  -9  -3   5   92.00    3.71
  -5   3   9  101.20    5.11
  -9  -3  -5   94.73    5.52
   5  -3   9   99.44    5.08
  -9   5   3   96.33    4.22
   5  -9   3   89.90    4.35
   3  -5   9   98.48    4.90
  -9   3  -5  102.74    5.56
   3  -9   5   94.50    4.58
  -9   5  -3   95.71    5.16
  -5  -3  -9  103.19    4.84
  -3  -5  -9   92.74    4.07
  -5   3   9  106.52    3.83
  -5   3  -9   96.53    4.97
  -3  -5   9   94.58    4.72
  -3   9   5  121.28    5.80
  -3  -5   9   87.61    4.20
  -9  -3  -5   76.24    4.59
  -3   9  -5   98.43    4.10
  -3   9   5   99.24    5.15
  -5  -3  -9   76.26    5.06
   5  -3  -9   87.64    4.50
  -3   5  -9   95.57    4.79
  -5  -3  -9   91.45    4.94
   5   9   3   92.47    5.57
  -3   5   9  100.65    5.33
  -5  -3   9   95.41    4.67
  -5   9   3   96.30    4.71
  -3  -5  -9   80.19    5.36
  -3   9   5   99.92    4.89
  -5  -9  -3   86.76    3.94
  -3  -5  -9   94.06    4.84
   3  -5  -9   90.17    4.85
  -5   3  -9  104.92    5.34
   9   5  -3   84.88    4.36
  -9  -3  -5   98.35    5.36
   9   3  -5   82.33    3.81
   5   9  -3  106.12    5.32
  -5   9   3   92.44    5.28
  -5   9  -3   85.89    5.35
  -9  -5   3   88.60    4.45
  -9  -5  -3   83.99    4.48
   9  -3   5   91.74    4.48
   9  -3  -5  104.71    4.78
  -3  -9  -5  100.22    4.83
   3  -9   5  101.39    4.65
   3  -9  -5  113.22    4.74
  -3  -9   5  105.31    4.96
  -9  -3  -5   92.80    4.49
  -9  -3   5   95.97    4.36
   9  -5   3  103.99    4.88
   9  -5  -3  107.34    4.99
  -9   5   3  102.71    4.79
  -9   5  -3  101.98    4.93
  -5  -3  -9   91.48    3.89
  -5  -3   9   81.56    3.55
   5  -3  -9   96.60    3.94
   3  -5   9   87.65    3.64
   3  -5  -9  102.11    3.86
  -5   3   9   90.05    4.10
  -5   3  -9   87.35    4.15
  -3  -5  -9   98.92    4.01
  -3  -5   9   99.84    4.07
   5  -9   3  103.28    4.81
   5  -9  -3  106.78    4.83
  -9   3   5  104.09    4.64
  -9   3  -5   92.21    4.72
  -3  -5   9   77.84    3.55
  -3  -5  -9   87.86    3.94
   5  -3   9   85.43    3.63
  -3  -9  -5   89.12    4.89
   5   9  -3   97.34    4.73
  -9  -5  -3   98.33    4.64
   3   9   5   89.50    4.35
   3   9  -5   92.79    4.47
  -9  -3  -5   99.04    4.45
  -9  -3   5  110.88    4.82
   9   5  -3   95.52    4.75
  -5  -9  -3   89.70    4.54
  -5  -3  -9   97.08    4.90
   9  -5   3  101.39    5.06
  -9  -3   5  101.66    3.96
   9  -5  -3   92.30    4.60
   3  -5   9  103.83    4.50
   3   9  -5   97.54    4.36
  -9  -5  -3   92.54    5.78
   9  -3   5   95.43    5.44
   9  -5   3   87.90    4.98
  -9  -3  -5   93.30    5.83
   5  -3   9   99.53    5.32
  -9  -3  -5   92.96    4.28
  -9  -5   3  114.12    4.90
   4   9  -5   12.55    1.83
  -4  -9  -5   10.78    2.07
  -9  -4  -5   13.67    2.55
   5   9  -4   13.45    1.99
   5  -4   9   13.42    2.28
   5  -9   4   11.76    1.94
   4  -5   9   14.92    2.31
  -9   5   4   14.36    1.68
   4  -9   5   11.54    1.96
  -5   4   9   12.13    1.15
  -4  -5  -9   14.56    1.84
  -5   4  -9   15.25    2.29
  -9   4  -5   15.73    2.63
  -5  -4  -9   15.16    2.05
  -9   5  -4   13.51    2.44
  -4  -5   9   13.85    2.19
  -9  -5  -4    9.90    2.37
  -9   4   5   12.38    1.69
   4  -5  -9   11.45    1.95
  -4  -5  -9   14.03    2.31
  -5   4   9   14.11    2.57
   5   9   4    9.45    2.59
  -4   9  -5   15.50    1.85
  -4   9   5   15.42    2.34
  -5   9   4   13.38    2.14
  -5  -4  -9   11.76    2.17
  -5  -4   9   14.49    1.96
  -5  -4  -9    9.74    2.44
  -5  -9  -4   12.10    1.60
  -9  -5  -4   12.46    1.97
  -9  -4  -5   12.51    2.08
  -5   4   9   12.17    2.34
  -4  -5   9   13.19    1.71
   5  -4  -9   11.66    1.87
  -5   4  -9   13.91    2.44
  -9  -4  -5   14.64    2.54
   9   4  -5   13.65    1.63
  -4   5  -9   10.84    2.18
  -9  -5  -4   18.07    2.42
   9   5  -4   10.77    1.76
  -5  -4  -9   13.03    2.14
   4   9   5   14.23    2.78
  -4   5   9   12.27    2.44
  -4   9   5   11.77    2.21
  -4  -5  -9   14.33    2.16
  -4   5   9   12.47    2.47
   5  -4  -9   15.36    1.63
  -5  -4  -9   11.81    1.57
  -5  -4   9   10.46    1.26
  -9  -4   5   14.89    1.86
  -9   5   4   12.69    2.07
  -9   5  -4   12.01    2.22
   9  -5   4   17.62    2.31
  -4  -5  -9   16.93    1.65
   4  -5   9   14.47    1.42
   4  -5  -9   14.95    1.61
  -9  -5   4   15.64    2.00
  -9  -5  -4   14.65    2.02
   9  -4   5   11.06    2.03
   9  -4  -5   13.35    2.19
  -9  -4  -5   11.34    1.92
   5  -9   4   15.35    2.24
   5  -9  -4   15.93    2.24
   9  -5  -4   14.83    2.27
   4  -9   5   11.00    2.06
   4  -9  -5   13.19    2.12
  -5   4   9   12.96    1.72
  -5   4  -9   16.14    1.81
  -9   4   5   12.70    2.12
  -9   4  -5   13.95    2.24
  -4  -5  -9   13.15    1.59
  -4  -5   9   11.81    1.29
   5  -4   9   13.13    1.38
  -4  -9   5   15.24    2.45
  -9  -5  -4   14.44    2.07
   4  -5   9   15.72    2.05
   9  -5  -4   15.36    1.98
  -9  -5   4   15.12    2.28
  -5   9   4   12.68    2.34
  -9  -4  -5   12.73    1.96
  -9  -4   5   12.18    2.18
   4   9   5   11.57    1.74
   4   9  -5   10.90    1.84
  -9  -4  -5   18.73    1.96
   9  -4  -5   12.38    1.66
   5  -4   9   17.65    2.59
   5  -4   9   11.15    1.94
  -9  -5  -4   16.86    1.86
   9  -4   5   15.47    2.27
  -9  -4   5   11.58    1.53
  -5  -4  -9   13.34    2.16
  -5  -9  -4   13.46    2.00
   9  -4   5   11.15    2.54
   9  -5   4   12.97    2.49
  -4  -9  -5   15.05    2.30
  -5   9  -4   14.66    2.48
  -9  -5  -5   83.24    5.24
  -9   5   5   85.83    3.88
   5  -5   9   92.51    4.94
   5  -9   5   87.94    4.53
  -5  -5  -9   98.26    4.68
  -5   5   9   92.46    5.33
  -9   5  -5  101.36    5.41
  -5  -5  -9   82.53    4.96
  -9  -5  -5   78.48    4.63
   5   9   5   99.45    5.81
  -5   5  -9   98.56    5.31
  -5  -5   9   91.23    4.32
  -5  -5  -9   86.17    4.75
  -5   5   9  106.34    5.57
  -5  -5  -9   88.64    5.66
  -5  -9  -5   84.99    4.25
   5  -5  -9   81.40    4.43
  -9  -5  -5   86.60    5.23
   9   5  -5   82.15    4.22
  -5   5  -9   87.35    4.40
  -5  -5   9   81.31    3.65
  -5  -5  -9   84.98    4.06
  -9  -5   5   87.58    4.31
  -9  -5  -5   83.52    4.44
   9  -5   5   98.44    4.73
   9  -5  -5  105.47    4.97
   5  -5   9   85.98    3.81
   5  -5  -9   99.47    4.14
  -5   9   5   86.19    5.14
  -5   9  -5   90.32    5.39
  -9   5   5  104.16    4.83
  -9   5  -5  101.42    5.06
   5  -9   5  103.99    4.80
   5  -9  -5  104.89    4.77
  -5   5   9   89.31    4.25
  -9  -5  -5  101.48    4.67
  -5  -5  -9   87.48    5.00
   9  -5   5   97.75    5.07
   5  -5   9   90.20    4.58
   9  -5  -5   92.14    4.36
  -9  -5  -5   93.92    4.50
  -5  -9  -5   80.98    4.71
   5   9  -5   94.40    4.65
  -5   5  -9   77.34    3.61
   9  -5   5   93.55    5.46
  -5  -5  -9   89.02    5.37
  -9  -5   5  112.70    4.98
   5  -5   9  102.16    5.49
  -5  -5  -9   96.40    5.58
   6  -9   0   78.35    3.61
   0   9   6   80.96    4.72
  -9  -6   0   65.73    3.22
  -9   0  -6   90.89    5.19
  -9   6   0   85.04    4.14
  -6   0  -9   71.79    4.36
   0  -6   9   71.79    4.07
   0  -9   6   76.35    3.96
   0   6   9   78.79    4.43
   0   9   6   81.29    4.22
  -9   0  -6   58.47    4.28
  -6   0  -9   79.55    4.53
   9   6   0   69.76    4.25
  -6  -9   0   64.96    2.79
  -6   0   9   79.53    4.54
   0  -6  -9   67.66    4.50
   6   9   0   83.79    4.89
  -9   6   0   78.19    3.04
  -6   9   0   83.85    3.83
   0  -6   9   67.04    3.18
   0  -6  -9   74.80    3.30
   0  -9  -6   80.24    4.36
   0  -9   6   82.66    4.31
  -9   0  -6   87.19    4.03
  -9   0   6   85.49    3.79
  -6   0   9   66.26    3.14
  -6   0  -9   66.29    3.33
  -9  -6   0   69.49    4.07
   9  -6   0   64.54    2.91
   0   9   6   70.83    3.77
   0   9  -6   77.22    3.89
   0   9  -6   82.82    3.32
   0   6   9   70.53    3.16
   0   6  -9   65.67    3.10
  -6   0  -9   66.91    3.10
   9  -6   0   79.67    4.23
  -9   0   6   74.18    3.37
   9  -6   0   64.98    3.80
  -9   0  -6   79.80    4.28
  -6   0  -9   82.34    4.29
  -9   0  -6   90.90    3.56
  -6   0   9   76.39    3.28
   9   6   0   70.30    4.08
   9  -6   1   -0.02    0.73
  -6   1  -9   -1.11    1.99
  -1   9  -6    0.80    0.86
  -1  -6   9   -0.17    1.67
  -9  -1  -6    1.19    1.18
   9   6  -1    0.09    1.63
   1   6  -9    0.39    1.33
  -9  -1  -6    0.13    2.08
  -1  -9   6    0.54    1.53
   1   9   6    0.64    1.87
  -1  -9  -6    0.89    0.45
   6  -1   9   -1.92    2.27
  -9   6   1    0.94    1.52
  -6   1   9    0.52    1.55
  -9   6  -1    0.08    1.74
   6  -9   1    0.06    1.30
   1  -6   9    1.78    1.74
   1   9  -6    0.15    1.09
  -6  -1  -9    3.76    1.79
  -6  -1  -9    0.28    1.68
  -6   1  -9    0.53    1.43
   6   9  -1    1.38    1.63
   9   6   1   -0.85    1.64
   1  -9   6   -2.19    1.80
   1  -6  -9    0.99    1.78
  -6   1   9    3.09    1.99
  -1   6  -9    1.72    1.41
  -9   6   1   -0.15    0.75
  -9  -1  -6   -0.13    1.93
  -9  -6  -1    0.74    1.06
  -6  -1   9    0.30    1.69
   9   6  -1   -1.31    1.64
   1   9   6    1.31    1.65
   1   6   9   -0.20    1.70
   6   9  -1    1.72    1.98
  -6   1  -9    1.42    1.71
  -6   9   1    0.33    1.33
  -6  -1  -9    1.07    1.75
  -1   6   9   -0.21    1.84
  -1   9   6    1.50    1.74
   6   9   1   -0.13    2.15
   9   1  -6    1.41    0.69
  -6  -9  -1    1.01    0.87
  -1  -6  -9    1.36    1.89
  -6  -9   1    1.04    0.50
  -1   9   6    1.18    2.02
   9   6   1    1.34    1.79
  -9  -6   1    0.62    0.84
  -9  -1   6    1.77    1.40
  -9  -1  -6    1.62    1.45
   9  -1  -6    2.42    1.74
   9  -1   6    2.38    1.56
  -9   6   1    1.01    1.66
  -1  -9  -6    0.91    1.74
  -9  -6   1    1.06    1.60
  -1  -9   6    0.60    1.81
  -6  -1  -9    0.58    1.07
  -6  -1   9   -0.39    1.00
  -9   1  -6    0.60    1.51
  -9   1   6    0.57    1.40
   6  -9   1    1.59    1.77
   1  -6   9   -0.31    1.08
   1  -6  -9   -0.45    1.15
   9  -6   1   -1.02    1.79
  -6   1   9    0.31    1.08
  -6   1  -9    0.39    1.12
   9  -6   1    1.92    1.79
   9  -6  -1    2.44    1.71
  -1   6   9    0.24    1.05
  -1   6  -9    0.16    1.05
   1   9   6    1.88    1.46
   1   9  -6    0.90    1.32
  -9  -1  -6    2.05    1.79
  -9  -6   1   -0.08    1.73
  -6  -1  -9    0.18    0.94
  -6  -1   9    1.38    1.16
  -6  -1  -9    0.76    1.50
   1  -6   9    0.65    1.32
   6  -1   9    1.73    2.15
  -9   1   6    1.61    0.92
   9  -6   1    0.90    1.56
  -6   9   1    2.69    2.11
   6  -9   2   -0.26    1.34
   2   9  -6    0.50    1.21
  -6   2  -9    0.93    1.80
  -9  -2  -6    0.57    1.26
  -2  -9  -6    0.78    0.90
  -6  -9  -2    0.82    1.27
  -9  -2  -6   -0.91    2.20
  -6   2  -9   -0.46    1.38
  -2  -6   9   -0.51    1.59
  -2  -6  -9   -0.13    0.88
  -2  -9  -6   -2.38    1.99
  -9   6   2    0.48    1.38
  -2   6   9    0.12    2.00
  -9   2  -6    0.13    2.00
  -2  -9   6   -0.32    1.54
   2  -6   9    0.46    1.68
  -9   6  -2    0.09    1.81
  -6  -2  -9    2.65    1.80
   2  -9   6   -0.32    1.52
  -6   2   9   -0.57    1.28
  -6  -2  -9   -0.10    1.72
   6   9  -2    0.46    1.64
   6  -2   9   -0.84    1.90
  -2   9   6    0.62    2.10
  -6  -2   9   -0.28    1.70
  -9  -2   6   -0.41    1.16
   6  -2  -9    0.74    1.32
  -6   9   2    0.22    1.44
  -6   2   9    0.23    1.91
   2  -6  -9    0.41    1.68
   6   9  -2   -0.45    1.75
   6   9   2   -0.28    2.07
   2   9   6   -0.94    1.64
  -9  -2  -6    1.00    1.47
   2   6   9    0.59    1.63
  -9  -6  -2    0.37    1.15
  -6  -9  -2    1.28    0.96
  -9  -2  -6    0.66    1.89
  -6   2  -9    1.81    1.86
  -2   6   9    0.33    1.84
   9   6  -2    0.35    1.51
  -2   9   6   -0.46    1.72
  -2   9  -6    0.58    0.94
  -2  -6  -9    0.66    1.94
  -6   2   9    2.59    1.76
  -2   6  -9    1.18    1.45
   2   6  -9    0.09    1.05
  -6  -2  -9    0.88    1.63
   2  -9   6    0.53    1.46
   2  -9  -6    1.64    1.61
  -6  -2  -9    0.77    1.08
  -6  -2   9    0.97    0.96
   6  -2  -9    0.98    1.26
   6  -2   9   -0.39    1.04
  -9   6   2   -0.17    1.80
  -9   6  -2    2.08    1.80
  -2  -9  -6    0.48    1.69
   9  -2   6   -0.66    1.46
   9  -2  -6    0.77    1.71
  -9  -6   2   -1.13    1.68
  -9  -6  -2    1.09    1.65
   2  -6   9    0.63    1.08
   2  -6  -9    0.59    1.15
  -2  -9   6    1.25    1.78
   6  -9   2   -0.70    1.91
   6  -9  -2   -1.99    1.95
  -9   2   6    3.56    1.54
  -9   2  -6    0.32    1.44
  -2  -6  -9   -0.22    1.37
   9  -6   2   -1.01    1.78
   9  -6  -2   -1.21    1.88
  -9  -2  -6    0.28    1.46
  -9  -2   6    0.30    1.33
  -2  -6   9   -1.72    1.50
  -9  -2  -6    1.61    1.77
   9  -6   2   -0.66    1.75
  -6  -2  -9    1.18    1.62
  -2   6  -9   -0.55    1.14
   9  -6  -2    0.97    1.56
  -6  -2  -9    0.46    1.03
  -6  -2   9    1.09    1.12
   2  -6   9   -0.60    1.45
  -9  -6  -2   -0.93    1.84
  -9  -6   2    1.06    1.82
   2   9   6   -1.08    1.35
   2   9  -6    0.34    1.30
   6  -2   9   -0.48    2.05
   9  -6   2    2.77    1.76
  -6   9   2   -0.13    1.89
  -6   9  -2   -0.68    2.01
   6  -3   9   -1.47    1.89
   3   9  -6    3.03    1.32
  -3  -9  -6    1.40    1.77
  -9  -3  -6    1.85    1.37
  -6  -9  -3    2.10    1.43
  -3  -9  -6    1.21    1.07
   6   9  -3    1.04    1.56
  -9  -3  -6    2.81    2.00
  -6   3  -9    1.59    1.80
  -9   6   3    1.70    1.30
   3  -6   9    0.65    1.81
  -6   3   9    2.03    1.13
  -3  -6   9    0.61    1.72
   6  -9   3    2.73    1.52
  -6  -3  -9    0.98    1.74
   3  -9   6    0.16    1.60
  -9   3  -6    2.64    2.09
  -6  -3  -9    3.01    1.88
  -9   6  -3   -0.89    1.91
  -9  -3   6    1.24    0.90
  -3  -9   6    1.05    1.55
  -6  -3  -9    1.79    1.73
  -6   3  -9    1.81    1.15
  -3  -6  -9   -0.32    1.18
  -3   9   6    0.51    2.10
  -9  -3  -6    0.13    2.30
  -3  -6  -9    2.18    1.68
   6   9   3    1.12    2.06
  -6  -3  -9   -0.28    1.80
   9   6  -3    0.76    1.51
   3  -6  -9    2.06    1.72
  -6   9   3    1.77    1.55
   6  -3  -9    2.93    1.35
  -9  -6  -3    0.32    1.39
  -3  -6   9    1.33    1.14
   6   9  -3    0.44    1.90
  -9  -3  -6    2.11    1.56
  -9  -6  -3    2.02    1.37
  -3   6   9   -1.23    2.18
  -6   3  -9    2.99    1.95
  -3   9  -6    1.40    1.17
  -6  -3  -9    0.84    1.72
  -3   6  -9    1.65    1.52
  -6  -9  -3    1.18    1.09
  -3   6   9   -0.69    1.85
  -3  -6  -9    1.12    2.06
  -3   9   6    0.29    1.75
  -6   3   9    2.51    1.88
  -6  -3   9    1.78    1.60
  -3  -6   9    2.40    1.42
   3  -6   9    2.48    1.20
   3  -6  -9    2.40    1.22
  -9   6   3    2.79    1.79
  -9   6  -3    1.97    1.77
  -3  -6  -9    2.03    1.32
   6  -3   9    0.61    1.12
   6  -3  -9    1.16    1.30
  -9  -6   3    0.94    1.50
  -9  -6  -3    1.58    1.58
   9  -3   6    1.09    1.52
   9  -3  -6    2.27    1.75
   6  -9   3    1.94    1.68
   6  -9  -3    2.46    1.75
  -6   3   9    0.19    1.50
  -6   3  -9    0.53    1.62
  -9  -3  -6    0.59    1.53
  -9  -3   6    0.18    1.43
   9  -6   3    1.00    1.70
   9  -6  -3    1.89    1.85
   3  -9   6    2.09    1.61
   3  -9  -6    1.31    1.67
  -9   3   6    0.72    1.60
  -9   3  -6    0.69    1.61
  -6  -3  -9    1.89    1.17
  -6  -3   9    1.18    1.01
   9  -6   3    0.89    1.72
   9  -6   3    1.73    1.76
   3  -6   9    1.01    1.53
  -9  -3   6    1.51    0.98
   9  -6  -3    1.08    1.51
  -6  -3  -9    1.68    1.14
  -6  -3   9    2.65    1.29
  -3  -9  -6    2.06    1.75
  -9  -6  -3    2.88    1.68
  -9  -6   3    3.09    1.87
  -3  -9   6    3.27    1.87
  -9  -3  -6   -0.06    1.52
  -9  -3   6    0.83    1.73
   3   9   6    1.56    1.32
   3   9  -6    1.15    1.35
  -9  -3  -6    2.91    1.95
   9  -3   6    2.27    2.20
   6  -3   9    0.73    2.05
  -3  -6  -9    2.05    1.78
  -6   9   3    2.26    2.03
  -6   9  -3   -1.38    2.10
  -6  -3  -9    1.69    1.73
  -9   4   6   36.58    2.58
  -9  -6  -4   35.22    2.84
  -4  -9  -6   39.29    2.51
   6  -4   9   49.68    3.66
  -9  -4  -6   45.32    3.88
   6  -9   4   47.22    3.05
  -6  -4  -9   33.23    3.33
  -4   6   9   45.50    3.82
   4  -6   9   44.04    3.39
  -9   6   4   46.59    2.58
   4  -9   6   48.75    3.26
  -6  -4  -9   44.73    3.33
  -4  -6  -9   45.24    2.85
  -9   4  -6   48.39    3.92
  -9   6  -4   44.12    3.54
  -6   4   9   46.00    3.62
  -4   9   6   54.32    4.06
  -4  -6   9   45.70    3.41
  -4  -6  -9   35.73    3.40
  -9  -6  -4   40.28    3.04
  -9  -4  -6   42.52    3.27
  -4   9  -6   48.35    3.00
  -4  -6   9   43.13    2.62
  -6   4  -9   46.80    3.73
   6   9   4   53.25    4.32
  -6   9   4   51.92    3.27
  -4   6  -9   43.86    3.33
  -6  -4  -9   41.61    3.38
  -6  -4   9   44.54    3.12
  -6  -4  -9   31.36    3.60
  -4   6   9   49.34    3.79
  -6  -9  -4   41.35    2.67
  -4   9   6   56.13    3.71
  -4  -6  -9   40.13    3.16
   6  -4  -9   36.02    2.77
  -9  -4  -6   44.92    4.05
   4  -6  -9   36.88    3.03
   9   6  -4   39.21    2.99
   6   9  -4   56.86    3.81
  -9  -6   4   39.88    2.98
  -9  -6  -4   36.64    2.97
   6  -4   9   34.69    2.38
   6  -4  -9   42.89    2.69
   9  -4   6   48.10    3.05
   9  -4  -6   56.12    3.41
  -4  -6  -9   45.01    2.72
  -9  -4   6   45.44    2.86
  -9  -4  -6   45.44    3.10
  -6  -4  -9   37.48    2.64
  -6  -4   9   38.56    2.30
  -4  -6   9   48.63    2.87
  -4  -9  -6   57.62    3.43
  -9   4   6   53.94    3.25
  -4  -9   6   56.27    3.55
   9  -6   4   44.86    3.27
   9  -6  -4   50.07    3.54
   4  -6   9   41.09    2.42
   4  -6  -9   42.20    2.59
  -6   4   9   41.48    2.97
  -6   4  -9   35.80    2.99
   6  -9   4   51.90    3.39
   6  -9  -4   55.78    3.42
  -9   4  -6   54.87    3.50
   4  -9   6   48.77    3.13
   4  -9  -6   51.79    3.24
  -6   9   4   38.87    3.70
  -6   9  -4   39.52    3.75
  -4  -6   9   31.54    2.26
  -4  -6  -9   34.60    2.68
  -6   4  -9   39.74    2.25
  -9  -6  -4   48.48    3.24
  -9  -6   4   55.58    3.52
  -4  -9  -6   48.24    3.58
  -9  -4  -6   54.74    3.19
  -9  -4   6   55.04    3.37
   6  -4   9   41.86    3.15
   9  -4   6   42.85    3.48
  -9  -4  -6   48.96    3.65
  -6  -9  -4   43.70    3.15
  -6  -4  -9   46.51    3.49
  -9  -4   6   44.79    2.38
   6   9  -4   45.06    3.29
   4  -6   9   43.70    3.10
   9  -6  -4   44.78    3.03
   9  -4   6   37.45    3.87
   9  -6   4   40.59    3.55
  -9  -6  -4   42.93    2.91
   6  -4   9   52.50    4.01
  -4  -6  -9   44.58    3.71
  -6  -4  -9   40.89    3.50
  -9  -4  -6   49.03    3.07
   4   9  -6   54.31    3.11
  -9   6  -5    3.18    2.25
  -5  -9  -6    0.22    1.92
   6   9  -5    1.23    1.89
  -9  -5  -6    0.48    2.13
  -6  -9  -5   -0.29    1.67
   5   9  -6    1.81    1.73
   6  -5   9    1.46    2.19
  -9  -5  -6    1.36    1.60
   9   6  -5    2.48    1.95
  -9  -6  -5    1.09    1.60
   9   5  -6    1.28    1.90
  -5  -9  -6    1.30    1.45
   5  -9   6    1.46    1.84
   6  -9   5   -0.66    1.76
  -6  -5  -9   -0.09    1.86
  -5  -6  -9    1.74    1.73
  -9  -5  -6    1.84    1.86
  -6  -5  -9   -0.75    2.04
  -5  -6  -9   -0.93    2.10
  -9   5  -6    0.61    2.23
  -5  -6   9    1.29    1.97
  -5   6  -9    1.64    2.01
  -9  -6  -5    0.97    2.07
  -6  -9  -5    0.28    1.53
   5  -6  -9    2.10    1.67
  -5  -6  -9    2.81    2.08
  -6   5   9    3.84    2.43
  -5  -6  -9    2.32    2.73
  -5   9   6    5.30    2.36
  -5  -9  -6    2.13    1.64
  -9  -5  -6    3.19    2.50
  -5  -6  -9    1.97    1.83
  -5   9  -6   -1.79    1.82
  -9  -6  -5    0.37    1.62
  -9  -5  -6    1.11    1.78
  -6   5  -9    0.24    2.17
   6  -5  -9    1.89    1.52
  -5  -6   9    2.09    1.41
  -5   6  -9    1.73    2.13
  -9  -6  -5   -0.37    2.07
  -6  -5  -9    4.03    2.64
   9   6  -5    2.43    1.78
  -6  -5   9    1.14    1.60
  -5   6   9    2.84    2.38
  -6  -5  -9    1.75    1.88
  -9  -6  -5    0.26    1.68
  -5   6   9    1.26    2.33
  -6  -5  -9    1.91    2.05
  -6   5   9   -0.24    2.25
  -9   5   6    2.06    1.95
  -9   5  -6    1.34    1.96
  -5  -6  -9    1.68    1.56
  -5  -6   9    0.84    1.23
  -6   5  -9    0.42    1.79
  -9  -6   5    2.63    1.79
  -9  -6  -5    0.34    1.74
   6  -9   5    2.00    1.91
   6  -9  -5    4.62    1.93
   5  -9   6    2.44    1.85
   5  -9  -6    3.78    1.92
  -6  -5   9    1.33    1.21
  -6  -5  -9    0.44    1.52
  -9  -5   6    1.75    1.66
  -9  -5  -6    1.61    1.75
   9  -5   6    0.07    1.82
   9  -5  -6    3.21    2.04
   6  -5   9    1.87    1.46
   6  -5  -9    2.15    1.59
   9  -6   5    2.31    2.00
   9  -6  -5    4.89    2.08
  -6   5   9    0.50    1.72
   5  -6   9    1.53    1.40
   5  -6  -9    0.44    1.55
  -5   6  -9    3.13    1.79
  -5   9   6    1.63    2.12
  -5   9  -6    2.06    2.20
   9  -6  -5    1.56    1.67
   6  -5   9    2.54    2.40
  -5  -6  -9    5.63    2.55
  -6  -5  -9    0.44    2.32
  -9  -6  -5    1.83    2.00
  -9  -6   5    0.52    2.06
  -9  -5  -6    2.62    1.89
  -9  -5   6    2.35    2.00
   9  -6   5    1.80    2.25
  -6   9   5    1.55    2.27
  -6  -5  -9    0.33    1.91
  -9  -5  -6    2.78    2.10
   9  -5   6    3.46    2.18
   9  -5  -6    1.17    1.41
   6  -5   9    0.59    1.94
  -9  -6  -5    0.18    2.77
   9  -5   6    1.58    2.39
  -6   9  -5    2.03    2.23
   9  -6   5    3.52    2.47
  -9  -5  -6    1.75    2.83
   5  -6   9    0.75    2.02
  -5   6   9    2.43    1.70
  -9  -6  -6   -1.62    2.17
   6   9  -6    0.09    1.82
   9   6  -6   -0.20    1.84
   6  -9   6    1.78    1.77
  -6  -6  -9    2.73    1.85
  -6  -9  -6   -0.71    1.48
  -6  -9  -6    1.72    1.65
  -6   6   9    2.93    2.51
   9   6  -6    0.66    1.70
  -6   9  -6    0.19    1.99
  -6   6  -9    1.19    2.18
  -9  -6  -6    1.62    1.79
  -9  -6  -6    0.98    2.36
  -6  -6   9    2.34    1.47
  -6  -6  -9    1.95    1.78
  -9  -6  -6    0.97    1.78
  -6   6   9    2.14    2.26
   6  -9   6    1.97    1.80
   6  -9  -6    2.46    1.88
  -6  -6   9    0.66    1.32
  -6  -6  -9    1.10    1.52
  -9  -6   6   -0.21    1.60
  -9  -6  -6   -1.03    1.85
   9  -6   6   -0.47    1.96
   9  -6  -6    1.19    2.02
   6  -6  -9    0.92    1.61
  -6  -6  -9    1.05    2.41
   6  -6   9    1.54    2.32
  -9  -6  -6   -0.16    1.93
  -9  -6   6   -0.18    2.19
  -6   9   6    1.14    2.20
   9  -6   6    2.65    2.13
   6  -6   9   -0.09    2.03
  -6   6   9    0.93    1.79
  -6   6  -9   -0.18    1.76
   9  -6   6   -1.83    2.44
  -6   9  -6    0.39    2.16
   9  -6  -6    0.25    1.47
   0   9  -7    0.04    1.18
   0  -9   7    3.18    1.82
  -7   0  -9   -1.18    1.80
  -9   0  -7   -1.14    1.37
   0   9   7    1.70    2.10
  -9   0  -7    0.68    2.38
  -7   9   0    2.90    1.60
  -9   7   0    2.16    1.69
  -7   0  -9    2.76    2.06
   0  -7   9    1.70    1.85
  -9   0   7   -3.00    1.85
   0  -9  -7   -3.11    2.41
  -7   0   9   -0.34    1.95
   9   7   0    1.35    1.91
   0  -7  -9   -1.56    2.45
  -9   0  -7   -0.12    1.75
   0   7   9    3.39    2.03
   0   9   7    2.38    1.94
  -7   0  -9   -0.58    2.00
  -7   9   0    1.19    1.40
  -7  -9   0    0.33    0.88
  -9   7   0    1.34    1.12
   7   9   0    0.78    2.11
   0  -7   9    0.05    1.25
   0  -7  -9    1.98    1.42
  -9   0   7    1.27    1.48
  -9   0  -7    1.52    1.69
  -7   0   9    1.63    1.24
  -7   0  -9   -0.06    1.30
  -9  -7   0    0.46    1.89
   0   9   7    1.13    1.45
   0   9  -7    0.92    1.50
   9  -7   0    2.45    1.93
   0   7   9    0.05    1.17
   0   7  -9    0.28    1.21
   9  -7   0   -2.35    1.85
  -9   1   7   60.44    3.59
  -7   1   9   44.67    3.28
  -9  -7  -1   40.94    2.68
  -1   9   7   51.21    4.07
  -9  -1  -7   49.89    4.23
  -9   1  -7   50.45    4.22
  -7  -1  -9   57.89    3.96
  -9   7   1   62.66    3.23
   1  -7   9   50.27    3.48
  -9   7  -1   56.42    3.42
   1  -9   7   44.66    3.27
  -7   1  -9   50.72    3.84
  -1  -7   9   52.96    3.48
  -1  -9   7   48.02    3.30
  -7   9  -1   50.49    3.23
  -7   9   1   57.66    2.77
  -9  -1   7   48.17    2.97
   1   9   7   55.04    3.57
   1   7   9   52.81    3.72
  -7  -1  -9   32.46    3.19
  -7   1  -9   47.46    3.75
  -7  -1  -9   45.63    3.74
   9   7   1   46.18    3.75
  -1   7   9   50.86    3.71
  -7  -9   1   40.00    2.06
  -1   9   7   51.54    3.61
  -9  -1  -7   36.72    3.53
  -7  -9  -1   41.74    2.39
  -9   7   1   47.14    2.39
   7   9   1   48.40    4.10
   9   7  -1   46.56    3.65
  -7  -1   9   47.62    3.58
  -7   1   9   59.98    4.02
   7   9  -1   45.41    3.91
  -1  -7  -9   44.70    3.91
  -7   9   1   52.10    3.02
   1  -7  -9   46.10    3.70
  -1  -9  -7   50.14    4.04
  -9   1  -7   39.37    3.44
  -7   1   9   48.81    2.69
  -7   1  -9   46.43    2.87
   1  -9   7   52.43    3.03
   1  -9  -7   62.79    3.23
   9  -7   1   51.07    3.62
  -1  -9  -7   47.69    3.41
  -1  -9   7   50.30    3.51
  -9  -1   7   48.82    2.91
  -9  -1  -7   48.50    3.13
   7  -9   1   49.68    3.52
  -7  -1  -9   44.83    2.74
  -7  -1   9   49.00    2.55
  -7   9   1   49.39    4.18
  -9   1   7   55.58    3.11
  -9   1  -7   52.62    3.31
   9  -1  -7   58.63    3.49
   9  -1   7   49.58    3.06
   1  -7   9   47.11    2.64
   1  -7  -9   49.60    2.73
  -9  -7   1   44.39    3.36
  -7  -1  -9   56.91    3.48
  -1   9   7   42.63    3.04
  -1   9  -7   49.84    2.32
  -9  -7   1   54.98    3.61
  -1   7   9   44.10    2.61
  -1   7  -9   44.69    2.65
  -7   1  -9   56.06    3.10
   1   9   7   46.17    2.95
   1   9  -7   49.72    3.02
  -7  -1  -9   50.83    2.63
  -7  -1   9   51.52    2.78
  -1   9  -7   46.87    3.12
   1   7   9   42.24    2.51
   1   7  -9   44.31    2.54
  -9   1  -7   51.37    2.63
   9  -7   1   54.84    3.62
   1  -9  -7   36.98    2.71
   7  -1   9   49.99    3.96
   9  -7  -1   52.35    3.46
  -9  -1  -7   60.19    3.71
   9  -7  -1   45.26    2.94
  -7  -1  -9   45.63    3.32
   9   7   1   43.55    3.41
   9  -7   1   42.83    3.23
  -9  -1  -7   54.43    3.01
   7   9  -1   50.50    3.58
  -1  -7  -9   46.94    3.13
   1   9  -7   53.78    2.76
  -7  -2  -9    7.46    2.04
  -7   2  -9    6.29    1.44
  -7   2  -9    7.74    2.32
   2   9  -7    9.03    1.47
  -9  -2  -7    9.22    1.71
  -7  -9  -2    6.29    1.62
  -2  -7   9    6.93    2.01
  -9  -2  -7    6.66    2.58
  -2  -9   7    6.32    1.98
  -2  -9  -7    7.25    0.93
  -7  -2  -9    9.60    2.17
   2  -9   7    9.06    1.97
  -2  -7  -9    9.37    1.02
  -9   7   2    7.96    1.66
  -7   9  -2    8.65    1.99
   7  -2   9    6.11    2.30
  -2  -9  -7    3.53    2.09
   7  -9   2    7.65    1.70
  -9   7  -2    6.90    2.00
   7   9  -2    4.12    1.91
  -9  -7  -2    8.89    1.53
  -7   2   9    8.99    2.31
  -2  -9  -7    7.87    2.35
   7  -2  -9    6.92    1.57
   7   9   2    3.93    2.36
  -2  -7  -9   10.72    2.49
  -7  -2   9    9.39    2.12
  -9  -2  -7    3.49    2.13
   2   9   7    6.44    1.95
   2   7   9    6.81    2.14
  -9  -7  -2    5.92    1.59
  -2   9   7    6.26    2.43
  -9  -2  -7    5.75    1.92
  -7   2  -9    9.93    2.29
   2  -7  -9    7.26    2.01
   7   9  -2    7.89    2.31
  -7   9   2    5.88    1.74
  -2   7   9    8.05    2.25
  -2   9   7    6.24    2.14
  -7  -9  -2    6.46    1.26
  -7  -2  -9    3.97    1.89
   9   7   2    6.49    2.31
   9   7  -2    5.98    2.01
  -9  -2   7    6.45    1.36
  -7   2   9    8.19    2.05
  -2   7  -9    7.84    1.69
  -7   9   2    7.45    2.38
   7  -2  -9    7.50    1.66
  -7   2   9    6.30    1.48
  -7   2  -9    9.18    1.62
   7  -2   9    5.58    1.38
  -7   9  -2   10.16    2.58
  -7  -2  -9    8.03    1.48
  -7  -2   9    7.89    1.32
   9  -2   7    5.77    1.71
   9  -2  -7    7.33    1.94
  -9  -7   2    5.68    1.89
  -9  -7  -2    6.86    1.88
   7  -9   2    9.54    2.06
   7  -9  -2   10.51    2.10
   2  -7   9    8.26    1.49
   2  -7  -9    6.69    1.55
  -9   2   7    7.70    1.84
  -9   2  -7    8.08    1.90
  -2  -7  -9    4.50    1.67
  -2  -9  -7    4.81    1.92
  -2  -7   9    5.64    1.85
   9  -7   2    9.93    2.20
   9  -7  -2    9.43    2.15
   2  -9   7    6.69    1.78
   2  -9  -7    5.27    1.77
  -2  -9   7    6.91    2.13
  -9  -2   7    5.98    1.62
  -9  -2  -7    4.98    1.70
  -2  -7  -9    9.88    1.98
   7  -9  -2    8.25    1.42
  -9  -2  -7    6.73    2.06
  -2   7   9    5.44    1.45
  -2   7  -9    6.42    1.47
  -7  -2  -9    7.86    2.02
   9  -7   2   10.31    2.13
  -9  -7  -2    8.27    2.06
  -9  -7   2    9.22    2.16
  -7  -2  -9    7.31    1.38
  -7  -2   9    7.83    1.55
   9  -7  -2   11.31    1.98
   9  -7   2    6.28    1.90
   2   9   7    4.23    1.47
   2   9  -7    6.24    1.62
   2  -7   9    8.21    1.72
  -9  -2  -7    5.57    1.58
  -9  -2   7    8.42    1.95
   2  -9  -7    5.77    1.29
   7  -2   9    5.60    2.52
  -7  -3  -9   28.93    3.21
  -3   7   9   29.37    3.48
   7  -3   9   35.97    3.44
   7  -9   3   31.23    2.67
  -9  -3  -7   32.87    3.54
  -3  -9  -7   30.68    2.03
   3  -9   7   29.82    2.80
  -7  -3  -9   30.90    3.24
  -9   3  -7   35.83    3.53
  -3  -7  -9   33.13    2.06
  -9   7  -3   36.14    3.15
  -7   3   9   39.44    3.36
  -7   3  -9   34.89    3.43
  -3  -7   9   33.04    2.95
  -3  -9   7   32.57    2.87
  -7   9  -3   36.30    2.97
  -7   3   9   37.69    2.12
  -9  -7  -3   26.53    2.43
  -3   9   7   36.93    3.64
  -9  -7  -3   26.94    2.54
  -9  -3  -7   25.30    2.89
  -7   3  -9   30.29    3.31
   7   9   3   35.01    3.77
  -7  -3  -9   29.81    3.01
  -7   9   3   34.91    2.74
  -7  -3  -9   25.19    3.16
  -3   7   9   29.43    3.22
  -7  -9  -3   30.70    2.30
  -3   7  -9   26.43    2.60
  -3   9   7   33.76    3.25
  -7  -3   9   33.85    2.97
  -7   3   9   40.51    3.55
   9   7  -3   22.66    2.78
  -3  -7  -9   32.71    3.65
   3  -7  -9   29.49    2.87
   7   9  -3   35.33    3.38
  -9  -3  -7   29.92    3.60
  -3  -9  -7   33.02    3.59
  -9   3   7   36.58    2.81
  -9   3  -7   33.27    2.95
  -9  -3  -7   31.39    2.65
  -9  -3   7   31.10    2.44
   9  -7   3   30.40    2.93
   9  -7  -3   32.19    3.01
  -7  -3  -9   32.67    2.42
  -7  -3   9   30.76    2.05
   7  -9   3   37.48    3.05
   7  -9  -3   34.70    2.99
   3  -7   9   33.41    2.33
   3  -7  -9   34.95    2.44
  -3  -7  -9   32.93    2.62
  -3  -7   9   32.02    2.65
  -7   9   3   34.05    3.51
  -7   9  -3   28.27    3.46
  -3  -9  -7   33.13    2.83
  -3  -9   7   32.64    2.94
   3  -9   7   34.16    2.69
   3  -9  -7   39.37    2.79
   7  -3   9   25.16    2.21
   7  -3  -9   28.25    2.57
  -9  -7   3   27.82    2.69
  -9  -7  -3   29.16    2.78
   9  -3   7   33.92    2.63
   9  -3  -7   32.81    2.84
  -9  -7  -3   33.95    2.93
  -9  -7   3   39.88    3.19
  -7  -3  -9   32.82    2.29
  -7  -3   9   35.36    2.47
  -9  -3  -7   37.09    2.64
  -9  -3   7   45.20    3.06
   7   9  -3   33.83    2.90
   3   9   7   33.54    2.49
   3   9  -7   33.66    2.52
   3   9  -7   38.43    2.59
  -7  -9  -3   28.36    2.61
  -7  -3  -9   34.75    3.12
  -9  -3  -7   33.92    2.67
  -9  -3  -7   30.93    3.11
  -7  -3  -9   33.75    3.20
  -7   3  -9   31.67    2.10
   9  -7   3   39.18    3.19
  -3  -9  -7   29.37    3.00
   3  -7   9   31.89    2.66
   9  -7  -3   36.47    2.80
   9   7  -3   33.37    3.01
   9  -3   7   31.18    3.72
   7  -3   9   33.31    3.63
   9  -7   3   32.81    3.13
   7  -9  -3   28.93    2.03
  -3  -7  -9   33.20    3.19
  -9  -3  -7   27.38    3.88
  -3  -9  -7   28.57    3.24
   7  -4   9    1.33    2.19
  -7  -4  -9   -0.34    2.05
   7  -9   4    0.24    1.82
   7   9  -4   -0.10    1.84
   9   7  -4    0.30    1.83
  -9   7  -4    0.62    2.16
  -9  -4  -7   -2.58    1.93
   4   9  -7   -1.30    1.66
  -9  -7  -4    3.25    1.63
  -4  -9  -7    0.75    1.92
  -4  -9  -7   -2.42    1.60
  -9  -4  -7   -1.12    2.25
  -9   4  -7   -1.08    2.40
   4  -9   7    1.18    1.81
  -7  -4  -9    3.12    2.14
  -4  -7   9    0.19    1.96
  -4  -7  -9   -0.58    1.60
  -7   9  -4    0.38    2.11
  -4   9   7    3.62    2.44
  -4  -7  -9    2.67    1.85
  -9  -4  -7    1.21    2.45
   4  -7  -9   -1.23    1.82
  -4  -7   9    1.21    1.24
  -7  -4  -9    0.63    2.25
   7   9  -4    4.51    2.30
  -7   4  -9   -0.87    2.20
  -7  -4  -9    0.12    1.98
  -9  -4  -7    0.33    1.78
  -9  -7  -4    0.09    1.60
  -7  -4  -9   -0.44    1.97
  -4   7  -9    2.32    1.95
   9   7  -4    2.59    1.96
  -7  -9  -4   -0.39    1.44
   7   9   4    1.65    2.53
  -4   7   9    2.32    2.24
  -4   7   9    0.40    2.21
  -4   9   7    0.45    2.11
  -7  -4   9   -1.25    1.97
  -7   4   9   -1.70    2.31
  -9  -7  -4   -0.48    1.69
  -4  -7   9    0.91    1.24
  -9   4   7   -0.15    1.78
  -4  -7  -9   -0.21    1.58
  -9   4  -7    2.19    1.89
   4  -7   9    0.81    1.49
   4  -7  -9    1.25    1.50
  -7   9  -4   -2.07    2.60
   7  -9   4    0.24    2.10
   7  -9  -4    0.16    2.02
  -9  -7  -4   -1.56    1.86
   7  -4   9    0.96    1.40
   7  -4  -9    0.99    1.60
  -9   7   4   -0.88    2.30
   9  -4   7    0.41    1.69
   9  -4  -7    0.08    1.88
  -9   7  -4   -2.18    2.63
   4  -9   7    0.07    1.79
   4  -9  -7    0.57    1.86
  -9  -7   4    1.98    1.84
  -9  -4  -7    5.30    1.78
  -9  -4   7    4.01    1.58
  -7  -4  -9    0.72    1.49
  -7  -4   9    2.21    1.32
  -7   9   4   -2.60    2.65
  -7   4   9   -0.08    1.78
   9  -7   4   -1.28    2.30
   9  -7  -4   -1.90    2.37
  -7   4  -9   -2.06    2.13
   9  -7   4   -0.67    2.37
  -4  -7  -9    2.19    1.68
  -4  -7  -9   -2.64    2.55
  -9  -4  -7    1.76    2.66
  -7  -4  -9    1.24    1.50
   4  -7   9   -1.10    1.85
  -7  -4   9   -0.61    1.63
  -9  -7  -4    1.61    2.08
  -9  -7   4    0.82    2.08
   9  -7  -4    2.83    1.77
  -9  -4  -7    1.67    1.74
  -9  -4   7    2.87    1.96
  -4  -9  -7   -2.18    2.34
   9  -4   7    0.84    2.40
  -9  -4  -7    1.80    2.12
  -7  -4  -9   -1.24    2.02
  -4  -7   9    2.42    1.90
  -4  -9  -7    1.23    1.93
  -4  -9   7    4.15    2.19
   7  -4   9    0.67    2.43
  -9  -5  -7   42.34    3.45
  -9  -7  -5   29.46    3.33
   7  -9   5   40.59    3.18
  -5  -9  -7   38.02    2.70
  -9  -5  -7   44.65    3.77
   5  -9   7   42.20    3.33
  -7  -5  -9   41.60    3.43
  -5  -7  -9   45.01    3.00
  -5   7   9   49.02    4.09
  -9   7  -5   42.72    3.68
  -9  -7  -5   36.65    3.06
  -7   9  -5   47.03    3.63
  -5  -7   9   48.05    3.59
  -7   5   9   44.97    3.86
  -5  -7   9   35.92    2.46
  -7   5  -9   44.33    3.90
  -9  -5  -7   46.52    3.55
  -9  -7  -5   41.87    3.26
  -5   7  -9   44.69    3.57
  -7  -5   9   41.90    3.09
  -7  -9  -5   38.59    2.89
  -5   7   9   52.45    4.15
  -5   9   7   55.49    4.08
  -5  -7  -9   41.45    3.30
  -7   5   9   53.11    4.11
  -5  -9  -7   38.71    3.05
  -9  -5  -7   40.63    3.99
   9   7  -5   44.87    3.39
   5  -7  -9   45.17    3.18
   7   9  -5   46.58    3.79
  -9  -7  -5   37.32    3.16
   7  -5  -9   50.35    3.14
   9  -5   7   45.89    3.19
   9  -5  -7   53.52    3.47
  -9  -5   7   45.62    2.91
  -9  -5  -7   48.77    3.25
  -7  -5  -9   44.08    2.95
  -7  -5   9   37.96    2.49
  -5  -7  -9   39.92    2.99
  -5  -7  -9   48.98    3.09
   9  -7   5   45.86    3.39
   9  -7  -5   45.11    3.43
  -5  -9  -7   48.86    3.39
  -5  -9   7   46.89    3.59
  -9   7   5   35.59    3.83
  -9   7  -5   31.65    3.84
   5  -7  -9   45.37    2.86
  -5  -7   9   35.52    2.51
   7  -9   5   46.75    3.38
   7  -9  -5   47.00    3.32
  -7   5   9   40.73    3.16
  -7   5  -9   36.03    3.40
   5  -9   7   49.46    3.16
   5  -9  -7   51.36    3.15
  -9  -7   5   38.41    3.05
  -7   9   5   37.14    3.76
  -7   9  -5   33.01    3.74
  -9  -7  -5   45.36    3.36
  -9  -7   5   51.99    3.70
  -9  -5  -7   50.42    3.26
  -9  -5   7   49.32    3.44
   9   7  -5   47.36    3.56
   7  -5   9   43.21    3.43
   9  -5   7   40.78    3.57
   5   9  -7   47.16    3.21
  -7  -5  -9   39.77    3.63
  -9  -5  -7   45.56    3.35
   9  -7   5   50.61    3.89
   5  -7   9   45.56    3.39
   9  -7  -5   42.71    2.94
  -5  -9  -7   36.74    3.80
   7   9  -5   51.51    3.51
   9  -5   7   40.79    4.11
   7  -9   5   48.56    3.55
   9  -7   5   45.89    3.91
   7  -5   9   47.12    4.17
  -5  -7  -9   40.11    3.92
  -7  -5  -9   48.75    4.37
  -7  -9  -6    0.65    1.55
  -9  -7  -6    0.44    1.90
   7  -9   6   -0.93    1.86
   7   9  -6    2.02    1.95
   6   9  -7    1.15    1.77
  -6  -9  -7    0.56    1.48
   9   7  -6    3.52    1.97
   6  -7   9    4.14    2.22
  -9  -6  -7    0.46    1.90
   6  -9   7    2.79    1.95
   9   6  -7    0.50    1.90
  -7  -6  -9    1.32    1.93
  -6  -7  -9    1.37    1.69
  -9  -7  -6    2.46    1.89
  -7   6   9    2.16    2.28
  -6   7   9    2.09    2.34
  -6  -9  -7    2.36    1.74
  -6   9   7    2.22    2.51
  -7   6   9    1.31    2.37
  -7   6  -9    2.19    2.34
  -6   7  -9    1.07    2.28
  -9  -6  -7    2.06    1.87
  -9  -7  -6    0.80    1.81
  -7  -6   9    0.81    1.54
  -9  -6  -7    1.83    1.93
   9   7  -6    3.98    1.98
  -7  -9  -6    1.64    1.66
  -6   7   9    1.06    2.38
  -7  -9   6    1.08    1.74
  -7  -9  -6   -1.13    1.94
   7  -9   6    3.06    1.96
   7  -9  -6    4.82    2.03
   6  -9   7    1.65    1.82
   6  -9  -7    2.66    1.91
  -6  -7  -9    2.30    1.71
  -6  -7   9    0.97    1.35
  -9  -7   6    2.14    1.71
  -9  -7  -6    1.21    1.86
  -7  -6   9    1.91    1.32
  -7  -6  -9    2.27    1.67
  -9  -6   7    1.97    1.57
  -9  -6  -7    2.87    1.83
  -9   6   7    2.00    2.27
   9  -6   7    1.62    1.91
   9  -6  -7    2.28    2.07
  -9   6  -7   -1.77    2.47
   7  -6  -9    0.41    1.75
   9  -7   6    2.13    1.99
   9  -7  -6    1.53    2.00
  -7   6   9    0.53    1.93
   6  -7  -9    0.71    1.76
  -9   7   6    2.01    2.44
  -9   7  -6    1.07    2.37
  -6   9  -7    3.72    2.22
   6  -7   9    4.34    2.19
   9  -7   6    4.26    2.54
  -6  -7  -9    0.45    2.43
   9  -7  -6    1.97    1.58
  -9  -7  -6    1.82    2.08
  -9  -7   6    1.43    2.14
  -7   9   6    2.18    2.35
  -9  -6  -7    1.69    1.87
  -9  -6   7    1.88    2.09
   9  -7   6    2.93    2.32
   7  -9   6    3.30    2.19
   6  -9   7    1.69    2.06
  -6  -9  -7    3.87    2.59
   9  -6   7    1.53    2.10
   7  -6   9    0.10    2.13
  -7   6  -9    0.21    1.92
  -7   9  -6    1.71    2.26
   9  -6   7    1.67    2.52
  -6   7   9    1.61    1.91
  -6   7  -9    3.24    1.93
  -6   9   7    2.66    2.16
   7  -9   7   13.19    2.52
   7   9  -7   14.93    2.57
  -7  -9  -7   12.91    2.30
  -7   7  -9   15.37    3.05
  -9  -7   7   16.23    2.19
  -7  -9   7   10.85    2.24
  -7  -9  -7    5.76    2.27
  -9   7   7    7.43    2.88
  -9   7  -7    5.94    2.81
  -7  -7  -9   12.14    2.28
  -9  -7  -7   13.49    2.36
  -7   9   7   17.24    3.08
  -7   7  -9   14.22    2.79
   7  -7   9   11.11    2.72
  -7   9  -7   13.32    3.00
  -8   0  -9    7.16    1.85
   0   9  -8    7.56    1.40
  -9   8   0   11.69    2.09
  -9   0  -8    7.88    1.72
   0  -9   8    6.50    2.09
  -8   0   9    6.47    2.02
  -8   9   0    8.89    1.93
  -9   0  -8    9.03    2.70
  -8   0  -9   11.62    2.82
   0  -8  -9    8.20    2.56
  -8   9   0   12.13    1.79
   9   8   0   13.80    2.76
  -9  -8   0    7.36    1.57
  -9   0  -8    8.02    2.37
  -9   0   8    7.72    2.01
  -9   8   0   12.39    1.62
   0   8   9   14.65    2.59
   0   9   8   13.07    2.47
   8   9   0    9.40    2.65
  -8   0  -9    8.02    2.33
  -8  -9   0    6.89    1.26
   0  -9  -8    7.74    2.50
  -9   0  -8    2.34    1.86
   0  -8   9   10.40    1.75
   0  -9   8   11.25    1.94
   0  -8  -9   15.64    1.92
   0  -9  -8   12.79    2.07
  -9   0   8    9.39    1.85
  -9   0  -8    8.58    2.04
  -8   0   9   11.40    1.76
  -8   0  -9   11.61    2.00
   8  -9   0    9.23    1.96
   0   9   8    6.60    1.72
   0   9  -8    8.72    1.84
   0   8   9    9.26    1.65
   0   8  -9    9.02    1.67
   9  -8   0   14.48    2.40
   0  -9  -8    7.05    1.79
   9  -8   0    8.14    1.96
  -1   9  -8    2.08    1.08
   8   9  -1    0.22    2.01
  -8   1  -9    1.61    1.38
  -9   8   1    0.66    1.59
  -1  -8   9    1.06    2.10
  -9  -1  -8    2.31    1.60
   1   9  -8    3.04    1.36
  -9   8  -1    2.74    1.88
  -9   1  -8    3.07    1.32
  -1  -9   8    0.55    1.92
  -1   8  -9    2.47    1.08
  -9  -1  -8    3.50    2.49
  -8   9  -1    0.64    1.81
  -9   1  -8    1.31    2.41
  -8  -1  -9    1.30    2.35
  -1   9   8   -0.95    2.25
   1  -9   8    0.47    1.94
  -8   1  -9    2.25    2.39
  -8  -1  -9    0.57    1.73
   9   8  -1    1.22    1.96
  -9   1   8    2.50    1.80
  -8   9   1    0.06    1.50
   9   8   1    0.53    2.21
  -9  -1  -8    0.68    1.96
   8   9  -1   -0.53    2.57
  -9   8  -1    1.45    1.28
   1  -8  -9    0.92    2.00
   8   9   1    1.45    2.42
  -9   1  -8    1.89    2.03
  -9  -8  -1    0.57    1.33
   1   9   8   -0.93    1.92
   1   8   9    0.33    2.00
  -1  -9  -8    4.65    2.35
  -8  -1  -9   -0.65    1.95
  -8   1  -9    0.98    2.06
   9   8  -1    0.74    2.04
   1  -9  -8    4.42    2.22
  -9   8   1    0.75    1.32
  -1   8   9    1.37    2.11
  -1   9   8    0.44    2.05
  -8  -9  -1    1.50    1.17
  -8   9  -1    1.96    1.50
  -9  -1   8    2.08    1.55
  -8   1   9   -0.55    1.85
  -1  -8  -9    1.56    2.26
   1  -9   8    2.93    1.74
   1  -9  -8    1.62    1.76
  -9  -8   1    0.39    1.93
  -9  -1  -8    4.07    1.78
  -9  -1   8    0.81    1.53
  -1  -9   8    0.53    2.22
  -8  -1   9    0.80    1.38
  -8  -1  -9    0.27    1.57
  -9   1   8    0.32    1.73
  -9   1  -8    2.42    1.77
  -9   8   1    1.84    2.35
  -8   1   9   -0.11    1.53
  -8   1  -9   -0.81    1.73
   1  -8   9    1.37    1.54
   1  -8  -9   -1.15    1.65
  -8   9   1    0.84    2.38
   8  -9  -1    3.67    1.55
  -1  -8  -9    2.33    1.76
   8  -9   1    3.01    1.73
  -1   9   8    0.07    1.62
  -1   9  -8    0.94    1.62
  -1   8   9    1.48    1.44
  -1   8  -9    1.15    1.47
   1   9   8    2.32    1.50
   1   9  -8    1.47    1.51
   9  -8   1    5.01    2.16
   1   8   9    2.80    1.44
  -8  -1  -9    2.21    1.40
   1   8  -9    0.99    1.35
  -8  -1   9    0.66    1.57
   9  -8  -1    3.56    1.99
  -9  -1  -8    0.31    1.93
   9  -8   1    2.10    1.69
  -8  -1  -9    1.11    1.89
   9  -8  -1    0.46    1.44
  -1  -9  -8    2.50    1.71
  -2   8   9   28.50    3.73
  -2   9   8   30.86    3.65
  -9   2   8   35.30    3.17
  -9  -2  -8   30.93    3.50
  -8  -2  -9   29.07    3.39
   2  -9   8   30.00    2.96
  -8   2   9   34.63    3.12
  -9   8  -2   33.87    2.96
  -2  -8   9   28.22    3.03
  -8   9  -2   37.19    2.88
   2   9   8   34.39    3.06
   2   8   9   33.09    3.11
  -9  -8  -2   26.42    2.34
  -8   2  -9   29.87    3.26
   9   8   2   27.08    3.40
  -8  -2  -9   16.22    2.84
  -8  -9  -2   26.28    2.20
   8   9   2   30.94    3.74
  -2   9   8   31.69    3.27
  -9  -2  -8   27.68    3.31
  -8   9   2   29.23    2.39
  -8  -2   9   32.07    3.15
   8   9  -2   31.56    3.38
   2  -8  -9   30.65    3.04
  -2   8   9   23.43    3.16
   9   8  -2   20.02    3.01
  -8   9   2   23.90    3.36
  -9   2   8   36.34    2.71
  -9   2  -8   28.83    2.75
  -8   2   9   30.60    2.46
  -8   2  -9   29.10    2.61
  -2  -8  -9   31.13    2.84
  -2  -8   9   26.09    2.72
  -9   8   2   24.29    3.34
  -9   8  -2   25.74    3.51
  -9  -2   8   29.84    2.33
  -9  -2  -8   30.21    2.63
  -2  -9  -8   32.39    3.08
  -2  -9   8   29.06    3.02
  -8  -2  -9   28.17    2.49
  -8  -2   9   25.12    2.12
  -8   9  -2   28.25    3.56
   2  -8   9   26.21    2.31
   2  -8  -9   28.89    2.40
   8  -2   9   23.04    2.21
  -8  -9   2   31.79    3.00
  -8  -9  -2   23.70    2.88
   9  -2  -8   32.57    2.99
   9  -2   8   26.91    2.50
  -9  -8   2   23.13    2.78
  -9  -8  -2   24.49    2.91
   2  -9   8   32.46    2.59
   2  -9  -8   35.96    2.70
  -2   8   9   22.59    2.27
  -2   8  -9   25.44    2.33
  -9  -2  -8   36.69    2.74
   9   8  -2   24.77    2.92
  -8  -2  -9   30.38    2.28
  -8  -2   9   30.88    2.51
  -9  -2  -8   32.05    2.50
  -9  -2   8   27.94    2.69
   2   9   8   27.96    2.35
   2   9  -8   31.19    2.42
  -8  -2  -9   29.88    2.82
  -9  -2  -8   26.40    2.96
  -8  -2  -9   29.71    3.08
   2   9  -8   32.39    2.33
   9  -8  -2   24.34    2.17
   9  -8   2   32.94    3.07
   8  -2   9   28.30    3.72
  -2  -9  -8   30.07    2.86
   9  -8  -2   34.20    2.93
  -9   2  -8   35.94    2.10
   8  -9  -2   27.99    2.18
   9  -8   2   27.26    2.88
  -2  -8  -9   25.47    2.80
   8  -9   2   35.72    2.97
  -8   2  -9   30.23    2.14
   8   9  -2   31.24    3.14
   8   9  -3    0.95    2.00
   9   8  -3    0.43    2.06
  -8  -3  -9    1.30    1.94
  -9  -3  -8    0.17    1.68
   3   9  -8    1.44    1.56
  -9   8  -3   -0.66    2.18
  -9  -3  -8   -0.92    2.42
  -3  -8   9    4.57    2.24
   3  -9   8    1.15    2.02
  -8  -3  -9    1.44    2.27
  -8   9  -3    2.24    2.11
   8  -9   3    1.31    1.76
  -9   3   8    4.96    2.15
  -9  -8  -3    1.72    1.72
  -8  -3   9    1.66    1.97
  -3   9   8    2.38    2.53
   3  -8  -9    2.18    2.03
   9   8  -3   -0.56    2.23
  -8  -3  -9   -1.09    2.32
  -8   3  -9   -0.13    2.21
  -8   9   3    0.93    1.58
  -9  -8  -3   -0.30    1.54
  -9  -3  -8   -1.40    2.28
   8   9  -3    0.86    2.37
  -8  -9  -3    1.09    1.45
  -3   8   9   -1.97    2.45
  -3   9   8    2.59    2.39
   8   9   3   -0.30    2.52
  -8   3   9    2.69    2.21
  -9   3  -8    1.81    1.95
  -8  -9   3   -1.24    2.02
  -8  -9  -3    0.93    1.96
   8  -3  -9    0.37    1.85
  -9  -8   3    1.21    1.94
   9  -3   8   -0.14    1.77
   9  -3  -8    1.65    2.03
  -8   9   3    1.10    2.35
  -8   9  -3    1.39    2.50
  -3  -9  -8   -2.19    2.22
   3  -8  -9    1.24    1.61
   3  -9   8    0.28    1.72
   3  -9  -8    3.22    1.87
  -3  -8  -9    0.74    1.88
  -9  -8  -3   -0.30    1.91
  -3  -9   8    0.34    2.09
  -9   3   8    1.48    1.85
  -9   8   3    1.36    2.40
  -9   8  -3    1.38    2.37
  -9  -3  -8    1.32    1.79
  -9  -3   8    0.23    1.53
  -8  -3  -9    1.61    1.67
  -8  -3   9    1.91    1.37
  -3  -8  -9    0.64    2.10
   9  -8   3    2.75    2.06
  -8  -3  -9    2.14    2.23
   8  -9   3    4.09    2.07
   9  -8   3    2.98    2.13
  -8  -3  -9    1.10    1.57
  -9  -3  -8    0.73    1.68
  -9  -3   8    0.46    1.93
   3  -8   9    0.70    1.79
   9  -8  -3    4.49    1.91
   8  -3   9    0.57    2.50
  -3  -9  -8   -0.43    2.09
  -8  -4  -9    4.97    2.29
   8   9  -4   10.12    2.37
  -9  -4  -8    5.93    2.12
   4   9  -8    9.82    1.98
   9   8  -4   10.79    2.43
   4   8  -9   12.15    1.99
  -9   8  -4   10.86    2.61
  -9  -4  -8    6.00    2.61
   4  -8   9    7.28    2.41
   4  -9   8    7.46    2.31
  -8  -4  -9    7.67    2.45
  -4  -8   9    7.90    2.47
  -8   9  -4    8.79    2.50
   8  -9   4    8.02    2.19
   8  -4   9   10.55    2.67
  -9  -4  -8    2.77    2.64
  -8   4   9    6.11    2.53
  -8  -4   9    7.57    2.20
  -9  -8  -4    8.58    2.12
  -9   4   8    9.64    2.59
   4  -8  -9   11.27    2.29
   8   9  -4    5.92    2.44
  -9  -8  -4   10.44    2.04
   9   8  -4   11.63    2.52
  -8  -9  -4    6.85    1.78
  -4   8   9   11.33    2.85
  -4   9   8   10.56    2.73
  -4   8   9   13.50    3.21
  -9   8   4    9.87    2.82
  -8  -9   4    7.34    2.24
  -8  -9  -4    4.00    2.24
  -9   8  -4    7.29    2.87
  -9  -8   4    9.55    2.32
  -9  -8  -4    3.17    2.13
   4  -8  -9   13.26    1.99
   8  -4  -9    8.95    2.10
   9  -4   8    8.04    1.99
   9  -4  -8    8.37    2.32
  -8   4   9    9.30    2.26
   4  -9   8    9.92    2.06
  -8   4  -9    4.80    2.16
   4  -9  -8   10.82    2.12
  -9  -4  -8    7.74    2.12
  -9  -4   8    8.48    1.77
  -8  -4  -9    8.07    2.00
  -8  -4   9    8.93    1.69
  -8   9   4    5.91    2.73
  -8   9  -4    5.18    2.60
  -4  -8  -9    9.14    2.68
   9  -8   4   12.18    2.66
   8  -9   4   10.23    2.53
  -8  -4  -9   11.28    1.91
  -9  -4  -8    7.92    2.01
  -9  -4   8   10.06    2.34
   4  -8   9   10.59    2.28
  -4  -9   8   10.06    2.51
   9  -8  -4   15.67    2.22
   9  -4   8   11.56    3.24
  -4  -9  -8    6.58    2.51
   8  -4   9    7.95    3.06
  -4  -8  -9    9.82    2.11
  -4  -9  -8    9.15    2.39
   8   9  -5    3.93    2.17
   9   8  -5    4.20    2.21
   5   9  -8    6.02    1.91
   5   8  -9    3.63    1.85
   5  -8   9    3.46    2.32
   5  -9   8    0.80    2.12
  -9  -5  -8    2.86    2.27
  -8  -5  -9    3.81    2.18
   8  -9   5    4.29    2.12
  -5  -8   9    3.28    2.32
  -8  -9  -5    2.13    1.90
  -9  -8  -5    2.16    2.02
  -8   5   9    3.97    2.41
  -9  -8  -5    3.10    1.97
  -9   5   8    6.88    2.54
  -9  -5   8    1.41    1.93
   8   9  -5    4.54    2.43
   9   8  -5    0.54    2.10
  -9  -8  -5    1.81    1.73
  -8  -9  -5    3.25    1.77
  -5   8   9    6.90    2.67
  -5   8   9    5.62    2.72
  -8  -5   9    3.22    1.93
  -5   9   8    5.40    2.60
   5  -8  -9    3.62    1.77
  -5  -8  -9    0.78    1.79
  -8  -9   5    4.06    2.10
  -8  -9  -5    2.88    2.09
  -8   5  -9    1.54    2.18
  -9  -8   5    1.71    1.85
  -9  -8  -5    2.41    2.00
  -9   8   5    1.59    2.54
   5  -9   8    3.81    1.89
   5  -9  -8    6.28    2.04
  -9   5  -8    0.28    2.27
  -9   8  -5    0.79    2.51
   8  -5  -9    4.09    1.96
   9  -5   8    5.06    1.91
   9  -5  -8    6.76    2.09
  -8   9  -5    1.40    2.56
  -9  -5  -8    6.28    1.98
  -9  -5   8    4.38    1.64
  -8  -5  -9    5.17    1.87
  -8   9   5    2.25    2.55
  -5  -8  -9    4.60    2.67
   9  -8   5    2.87    2.30
   8  -9   5    6.15    2.37
   5  -8   9    3.02    2.11
  -9  -5  -8    4.28    2.01
  -9  -5   8    5.83    2.33
   8  -9   5    3.64    2.21
   9  -8  -5    5.88    1.87
   5  -9   8    5.63    2.26
   8  -5   9    4.38    2.34
   9  -5   8    5.97    2.51
  -5  -9  -8    5.52    2.48
   9  -5   8    3.54    2.81
  -5  -8  -9    3.51    2.02
  -5  -9  -8    3.17    2.05
  -5  -9   8    2.65    2.29
   8  -9   6    9.69    2.36
  -8  -9  -6    5.30    1.98
   8   9  -6   13.00    2.56
   6   9  -8   11.59    2.35
   6   8  -9    9.03    2.20
  -8  -6  -9    5.96    2.34
   9  -8   6    7.56    2.39
  -8   6   9   11.26    2.75
  -6   9   8   10.82    3.05
  -9  -8  -6    5.85    2.23
  -6  -9  -8    7.20    2.22
  -9   6   8   14.15    2.93
   8   9  -6   14.50    2.85
  -9  -8  -6    7.36    2.27
  -8  -9  -6    6.94    2.07
  -9   6  -8    2.66    2.60
  -6  -9   8    8.34    1.99
   6  -9  -8   11.49    2.24
  -6  -9  -8    5.57    2.16
  -8  -9   6    9.66    2.27
  -8  -9  -6    5.84    2.32
  -6  -8  -9    2.56    2.11
  -9  -8   6    8.29    2.15
  -9  -8  -6    6.44    2.20
  -8   6  -9    7.37    2.74
   9  -6  -8   10.87    2.44
  -8  -6  -9    9.38    2.25
  -9  -6   8    8.68    1.90
  -9  -6  -8    9.16    2.19
  -9   8   6    5.76    2.86
  -9   8  -6    3.28    2.59
  -9   6   8    8.40    2.79
  -6  -9  -8   13.71    2.59
   9  -8   6   10.01    2.89
   6  -8   9    8.64    2.55
  -9  -6  -8    9.46    2.32
   8  -6   9    9.36    2.61
  -8   9   6    8.02    2.84
  -8   9  -6    7.35    2.79
  -9   7  -8   -2.24    2.97
  -7  -9   8   -1.82    2.11
  -7  -9  -8   -2.33    2.41
  -8  -9   7   -1.42    2.08
  -8  -9  -7   -1.32    2.43
  -9   8   7   -0.90    2.88
  -9  -8   7    2.36    2.01
  -9  -8  -7    0.72    2.17
  -9  -7   8   -2.28    1.89
  -9  -7  -8    1.14    2.13
  -9   8  -7   -1.93    2.86
  -9   7   8   -1.75    2.76
  -7   9   8   -1.02    2.68
  -8   9   7    0.88    2.75
  -8   9  -7    2.58    2.59
  -7   9  -8    1.50    2.60
  -8  -9  -8    2.93    2.33
  -9  -8  -8    3.30    2.31
  -9   8  -8    6.13    2.96
  -8   9  -8    2.95    2.65
   9   9   0   12.61    3.04
   0   9   9   17.65    2.89
  -9   0   9   12.44    2.28
  -9   0  -9    5.18    2.13
   0  -9  -9   16.30    2.17
  -9   0   9   14.94    2.04
  -9   0  -9   14.29    2.31
  -9   0  -9   15.61    2.05
   9  -9   0   15.01    2.22
   0   9   9   12.59    2.01
   0   9  -9   12.36    2.02
   9  -9   0   21.59    2.69
  -9   1   9   62.88    3.97
   1  -9   9   53.81    3.95
  -9   9  -1   63.21    3.66
   1   9   9   60.18    4.23
  -1   9   9   61.53    4.38
  -9  -1  -9   33.62    3.62
   9   9   1   49.18    4.50
   9   9  -1   52.47    4.39
   1  -9  -9   57.40    4.25
   1  -9  -9   65.79    3.56
  -9   9   1   52.29    4.54
  -9  -1   9   52.31    3.13
  -9  -1  -9   55.52    3.59
  -9  -9   1   55.13    3.97
  -9   1   9   57.33    3.33
  -9   1  -9   51.13    3.58
  -1   9   9   45.36    3.21
  -1   9  -9   53.60    3.43
   1   9   9   47.20    3.14
   1   9  -9   56.18    3.29
  -9  -1  -9   60.36    3.23
  -9   1  -9   58.05    3.14
   9  -9   1   59.10    4.02
   9  -9  -1   51.22    3.28
   9  -9   1   55.55    3.64
   9   9  -1   53.24    4.15
   1   9  -9   59.95    3.06
  -9  -1  -9   59.33    3.60
  -9  -2  -9   -0.95    1.95
   2   9  -9    3.33    1.54
  -9   9  -2    0.84    2.05
  -2   9   9    1.63    2.69
   2  -9   9   -0.11    2.30
   9   9  -2    0.24    2.19
   2  -9  -9    0.89    2.18
  -9  -2  -9   -0.45    2.19
   2   9   9   -0.33    2.22
   9   9   2    0.61    2.54
  -2   9   9    1.86    2.48
   9   9  -2    0.40    2.60
  -9   2   9   -1.45    2.25
  -9  -9   2    0.20    2.20
  -9  -9  -2   -0.86    2.21
  -9  -2  -9    0.63    1.83
  -9  -2   9   -0.06    1.58
  -2  -9  -9   -2.01    2.26
  -9   9   2   -1.47    2.67
  -9   9  -2   -0.80    2.71
   2  -9  -9   -0.07    1.90
  -9   2   9    0.84    1.78
  -9   2  -9   -0.95    1.95
   9  -9   2    0.75    2.11
  -2   9   9   -1.30    1.84
  -2   9  -9   -1.19    1.94
  -9  -2  -9   -1.41    1.73
   9  -9   2    4.21    2.21
   3  -9   9   44.12    3.63
  -9   9  -3   51.95    3.76
  -9   3   9   49.48    3.84
  -3   9   9   43.70    4.04
  -9  -3   9   53.33    3.94
   9   9  -3   40.30    3.93
  -9   3  -9   44.63    3.45
  -9  -3  -9   43.49    3.23
  -3  -9  -9   43.74    3.53
  -9   9   3   47.15    4.33
  -9   9  -3   42.55    4.41
   3  -9  -9   52.66    3.27
   9  -3  -9   49.19    3.57
  -9  -9   3   40.87    3.49
  -9  -9  -3   38.77    3.55
  -9  -3  -9   47.52    3.09
   9   9  -3   42.36    3.81
   3   9  -9   49.78    3.04
   9  -9   3   53.15    3.92
  -3  -9  -9   43.02    3.63
   9  -9   3   44.75    3.62
  -9  -3  -9   48.52    3.51
   4   9  -9   10.57    1.99
  -9   4   9   12.87    2.72
  -9  -4   9   11.35    2.47
   9   9  -4   11.75    2.78
  -4   9   9   11.35    3.06
  -9   9   4    9.11    2.92
  -9   9  -4    6.16    2.83
  -9  -9   4    8.61    2.40
  -9  -9  -4    7.52    2.39
  -9  -4  -9    8.18    2.16
   9  -9   4    9.56    2.61
   4  -9   9    7.97    2.28
  -4  -9  -9    9.32    2.64
  -9   5   9   46.93    4.04
   9   9  -5   38.46    3.90
  -9  -5  -9   38.26    3.27
  -9   5  -9   33.58    3.99
  -5  -9  -9   28.59    3.27
   5   9  -9   44.67    3.23
   5  -9   9   41.43    3.61
   9  -9  -5   48.55    3.28
   9  -9   5   41.93    3.91
   6   9  -9    1.36    2.11
   0   0 -10   54.46    3.31
   0   0  10   46.87    2.97
   0 -10   0   41.99    2.34
   0   0  10   45.50    3.19
   0  10   0   30.41    2.89
 -10   0   0   38.00    2.90
   0 -10   0   33.89    2.25
   0   0  10   45.43    2.80
 -10   0   0   53.69    3.38
  10   0   0   44.30    2.70
  10   0   1    6.48    1.49
  10   1   0    7.66    1.61
   0 -10  -1    2.93    1.25
  10  -1   0    8.58    1.41
   1 -10   0    3.54    1.14
  10   0  -1    7.72    1.52
  -1 -10   0    4.71    1.25
   1   0  10   10.10    1.91
   0   1  10   10.32    1.83
   0 -10  -1    5.59    1.19
   0 -10   1    7.01    1.41
   0  -1  10    7.04    1.81
   1 -10   0    7.18    1.29
  -1   0  10   10.14    1.77
   0   1 -10   11.13    2.04
  -1 -10   0    8.59    1.41
 -10   0  -1   10.93    2.45
 -10   1   0    9.79    2.28
   0  -1 -10   10.42    2.00
  -1  10   0    4.31    1.83
   1  10   0    5.19    1.75
   1   0 -10    9.72    1.94
  -1   0 -10    8.88    2.03
   1   0  10    6.65    1.84
   0  -1  10    4.80    1.80
   0  10   1    3.89    0.99
   0   1  10    6.95    1.97
  -1   0  10    4.59    1.80
   0  10  -1    6.12    1.90
  -1  10   0    3.99    0.98
   0  10   1    2.65    1.87
  -1   0 -10    9.89    1.91
 -10   0   1    9.30    1.80
  10   0   1    8.74    1.96
 -10   1   0    5.72    1.85
   0 -10   1    9.69    2.22
 -10  -1   0    7.80    1.91
 -10   0   1   10.85    1.93
  -1   0  10    9.88    1.60
 -10   0  -1   11.83    2.22
   0  -1  10    8.54    1.77
   1  10   0    4.99    1.91
 -10  -1   0    6.87    1.71
 -10   0  -1    8.45    1.74
 -10  -1   0    8.84    2.01
   0   1  10    9.15    1.53
   1   0  10    5.76    1.70
  10   1   1    7.36    1.51
 -10   1  -1   11.98    2.35
  10  -1   1    7.01    1.44
   1 -10   1    8.61    1.44
   1 -10  -1   10.31    1.46
  -1 -10  -1   10.64    1.59
  10   1  -1    7.73    1.58
  10  -1  -1    9.72    1.56
   1   1  10   11.15    1.85
   1  -1  10    9.23    1.93
  -1   1  10   11.95    1.71
  -1  -1  10   11.95    1.91
  -1 -10   1   10.14    1.48
  -1 -10  -1   10.94    1.35
 -10   1   1    7.63    2.15
   1 -10  -1    6.93    1.18
   1  10   1   12.29    1.92
   1   1 -10    7.92    1.85
  -1   1 -10    9.52    1.95
  -1  -1 -10    5.27    1.91
  -1  10  -1   13.76    0.86
  -1  10   1   14.52    1.44
   1  -1  10   11.35    1.93
  -1  -1 -10    4.54    1.81
   1   1  10   10.56    1.93
  -1  -1  10    9.94    1.92
  -1  10   1   14.77    2.13
   1  10   1   15.03    2.37
  -1   1  10   10.24    2.03
  -1   1 -10    7.83    1.84
  -1 -10   1   11.46    2.15
  10  -1   1   11.32    2.05
 -10   1   1   11.55    1.83
   1 -10   1   12.37    2.24
 -10  -1   1   10.32    1.78
   1  -1  10    9.12    1.87
 -10   1   1    8.73    1.74
   1  10   1    7.48    1.84
 -10  -1  -1   11.07    1.84
 -10  -1   1    9.93    1.72
   1   1  10   11.72    1.73
  -1   1  10    7.48    1.42
 -10  -1   1    6.92    1.81
 -10  -1  -1    6.34    2.10
  -2   0 -10  410.90   14.92
 -10   0  -2  462.88   15.96
 -10   2   0  482.87   15.52
   0   2  10  473.39   14.32
   2   0  10  460.08   14.84
   0   2 -10  432.47   14.69
   2 -10   0  408.52   13.83
   0  -2  10  425.14   14.68
  -2   0  10  464.93   14.36
   0  10   2  442.19   15.09
   0 -10  -2  395.78   13.48
   0 -10   2  408.42   14.07
   2  10   0  414.36   14.27
  -2   0 -10  454.86   14.36
   0  -2 -10  450.61   15.17
   0  -2  10  427.06   14.70
   0  10   2  403.10   13.83
  -2   0  10  440.85   15.02
  -2   0 -10  455.19   15.16
  -2  10   0  418.50   13.82
   0  10   2  372.70   14.81
 -10   0  -2  404.56   13.74
  -2  10   0  412.21   14.70
 -10  -2   0  408.83   14.47
 -10   0   2  434.18   14.48
 -10   0  -2  417.66   14.49
   0 -10  -2  447.38   15.26
   0 -10   2  462.88   15.18
 -10   2   0  385.68   14.40
  10   0  -2  464.44   14.90
  10   0   2  448.99   14.73
   2  10   0  360.88   14.46
  10  -2   0  406.67   13.99
   2 -10   0  370.51   13.58
   0 -10  -2  379.18   14.23
 -10  -2   0  471.37   14.70
  10   2   0  416.57   14.42
 -10  -2   0  447.69   15.22
  -2 -10   0  373.58   13.93
 -10   0  -2  440.85   14.60
   2   0  10  415.73   14.62
 -10   0   2  451.96   14.57
  -2   0  10  445.56   14.06
 -10   0  -2  469.01   15.33
  10   0   2  408.54   14.28
  10   0  -2  423.80   14.31
  10   2   1    7.15    1.54
   1 -10  -2    5.65    1.51
 -10   1  -2   11.66    2.39
   2 -10  -1    3.20    1.24
  10  -2   1    7.29    1.39
   1 -10   2    7.79    1.48
  -1 -10  -2    3.07    1.43
   1   2  10    8.22    1.62
   2   1  10    9.29    1.81
  10   2  -1    6.59    1.56
 -10   2  -1   12.34    2.33
  -1   2 -10    6.71    1.92
  -2 -10  -1    4.44    1.36
  10   1  -2    8.37    1.65
  10  -2  -1    6.43    1.33
  10  -1  -2    9.18    1.51
   2  -1  10    7.41    1.93
  -1   2  10   11.05    1.60
   1  -2  10    7.56    1.89
   1 -10  -2    6.81    1.00
   2 -10  -1    5.42    1.09
  -2   1  10    7.68    1.60
  -1 -10   2    6.23    1.50
   2 -10   1    7.17    1.36
  -2  -1  10   10.21    1.76
  -2  -1 -10   15.04    1.66
  -1  -2  10    5.96    1.75
  -2   1 -10   10.41    2.00
 -10  -1  -2    5.73    2.32
  10   1   2    7.14    1.55
  10  -1   2    7.25    1.51
 -10   2   1   12.01    2.24
   1  10   2    6.39    1.85
   2  10  -1    6.05    1.42
   1   2 -10   10.08    1.77
  -2   1 -10   11.37    2.05
  -2  10   1    5.46    1.40
  -1  -2 -10    6.47    1.96
  -2  -1 -10   11.45    2.02
 -10   1  -2    6.67    1.25
   1  10   2    3.82    1.86
  -1   2 -10    9.47    1.88
  -1  10   2    5.07    1.83
   2  10  -1    4.29    1.90
  -1  -2  10    8.70    1.90
 -10   2  -1    5.97    0.62
  -2  -1  10    9.11    1.91
  -2   1  10    9.85    2.05
  -1  10   2    4.54    1.35
 -10  -1  -2    6.34    1.27
   2  10   1    8.05    1.68
  -2  -1 -10    7.53    1.90
  -2  10   1    2.42    1.65
  10  -1   2   10.96    2.01
  10  -1  -2    9.21    2.02
 -10   1  -2    6.12    1.66
 -10   1   2    6.95    1.72
  10  -2   1    9.56    2.04
   1 -10  -2    3.41    2.05
   1 -10   2    5.14    2.07
 -10   2   1    8.17    1.78
  -1 -10  -2    7.66    2.21
  -1 -10   2    7.29    2.18
 -10  -2   1    5.28    1.64
 -10  -1  -2    7.66    1.70
 -10  -1   2    6.30    1.65
   2  -1  10    7.17    1.90
 -10  -1  -2    8.71    2.18
 -10  -2  -1    8.65    1.91
 -10  -2   1   10.04    1.81
 -10   1   2    7.97    1.62
   1  10   2    4.71    1.68
   1  10  -2    4.92    1.66
 -10  -1  -2   11.85    1.97
   2  10   1    5.37    1.69
 -10  -1   2    7.98    1.53
  -1  -2 -10   11.30    1.38
   2   1  10    6.34    1.65
 -10  -2   1    9.95    2.10
 -10  -1   2   12.98    1.96
  -2   1  10    7.25    1.27
 -10  -2  -1    9.51    2.21
  -2 -10   1    9.10    2.18
   2   2  10   13.26    1.85
  -2  -2  10   11.66    1.90
  -2 -10  -2   12.79    1.74
 -10   2  -2   11.56    2.41
   2  10  -2   16.16    1.60
   2  10   2   14.64    1.96
 -10   2   2   11.19    2.19
   2  -2  10   13.89    2.17
   2 -10  -2   14.09    1.18
  -2   2  10   13.88    1.63
   2 -10   2   13.13    1.64
  -2  -2 -10    9.64    1.53
 -10  -2  -2   11.06    2.56
  -2   2 -10   12.56    2.04
   2   2 -10   10.17    1.75
  -2  -2 -10    9.53    2.09
  -2  10   2   13.92    2.07
 -10   2  -2   12.37    1.37
  -2  10   2   15.58    1.74
  -2  -2  10   12.57    2.00
  -2   2  10   11.82    2.25
  -2  -2 -10   12.10    2.09
  10  -2   2   12.53    2.07
  10  -2  -2   13.86    2.19
 -10   2   2   13.89    1.94
 -10   2  -2   13.03    1.94
 -10  -2  -2   10.28    1.81
 -10  -2   2   11.91    1.98
 -10  -2  -2   12.19    2.00
   2  -2  10   15.05    2.21
 -10  -2   2   11.66    1.73
  -2  -2 -10   10.22    1.51
   2  10   2   12.82    1.94
   2  10  -2   13.27    1.92
  -2 -10   2   14.24    2.40
 -10  -2   2   12.54    2.02
  10   2   2   14.77    1.84
  10   2  -2   16.27    1.89
  10  -2   2   10.25    1.50
  -2 -10  -2   16.26    2.42
   2 -10  -2   14.97    1.75
 -10  -2  -2    8.91    2.20
   0 -10  -3    5.30    1.65
   0   3  10    6.19    1.38
  10   3   0    4.32    1.53
  -3   0  10    3.75    1.55
 -10   0  -3    2.22    2.22
   3   0  10    4.26    1.81
   3 -10   0    6.21    1.00
  10  -3   0    4.86    1.24
 -10   3   0    4.68    2.05
   0 -10  -3    4.98    0.90
   0 -10   3    5.24    1.49
   3 -10   0    5.53    1.29
   3  10   0    6.55    1.43
  -3   0 -10    3.12    1.55
   0  -3  10    4.88    1.75
  -3   0 -10    4.56    1.82
   0  10   3    6.82    2.09
  -3  10   0    7.54    1.79
   0  -3  10    5.52    1.66
   0   3 -10    5.63    1.71
   0   3  10    5.39    2.09
   0  10   3    7.39    1.53
   0  10   3    7.59    2.02
  -3   0  10    4.92    1.97
   3  10   0    8.56    2.08
   0  -3 -10    3.71    1.78
  -3   0 -10    4.77    1.92
 -10   0  -3    4.50    1.48
   0 -10  -3    4.91    2.13
   0 -10   3    3.54    2.14
 -10   0   3    5.54    1.68
 -10   0  -3    4.70    1.59
  10   0  -3    4.75    1.89
  10   0   3    3.87    1.71
 -10   3   0    7.83    1.86
 -10  -3   0    3.61    1.72
   0  -3 -10    2.57    1.18
  -3   0  10    5.99    1.28
   0  10   3    3.75    1.70
   0  10  -3    4.06    1.80
   3  10   0    3.98    1.74
 -10   0  -3    5.69    1.70
 -10  -3   0    4.12    2.13
   3   0  10    6.15    1.87
 -10  -3   0    2.24    1.71
 -10   0   3    4.33    1.55
  10   3   1    3.69    1.56
   3 -10  -1    7.00    1.30
  -1 -10  -3    6.88    1.67
 -10  -1  -3    4.80    2.19
   1 -10   3    6.30    1.52
   3  10  -1    8.15    1.30
 -10   3   1    4.47    1.95
  10   3  -1    3.69    1.52
  -1   3  10    6.52    1.33
  -3  -1  10    5.07    1.62
  -3 -10  -1    8.98    1.50
 -10   1  -3    7.61    2.38
  10  -3  -1    5.57    1.32
   3  -1  10    9.39    2.06
 -10   3  -1    9.59    2.31
  10   1  -3    7.88    1.67
  -1  -3  10    3.96    1.70
   3 -10  -1    7.30    1.15
   3 -10   1    8.21    1.44
   1 -10  -3    7.30    0.86
  -3  -1 -10    4.54    1.53
  -1 -10   3    9.81    1.71
   1  -3  10    5.84    1.83
   3   1  10    5.84    1.89
  -3   1 -10    4.70    1.66
  -3   1  10    4.91    1.53
   1   3  10    6.96    1.53
  10  -3   1    5.16    1.26
   1 -10  -3    8.87    1.81
  -1  -3 -10    4.22    1.83
  -1  10   3    8.98    2.38
  -1   3 -10    4.77    1.73
   3  10   1    9.52    2.19
  -1  -3 -10    6.14    2.07
 -10   1  -3    4.94    1.41
   1  10   3   10.13    1.42
 -10  -1  -3    8.42    1.58
  -1  -3  10    8.83    1.78
   1   3  10    6.72    1.93
   1  10   3    9.45    2.18
 -10   3  -1    5.09    0.64
   3  10  -1   11.90    2.25
  -3  -1  10    6.94    1.86
  -1  10   3    9.93    2.12
  -1  10   3   10.17    1.64
  -3   1  10    7.67    2.07
  -3   1 -10    4.18    1.91
  -3  -1 -10    6.09    1.85
   1  -3 -10    3.15    1.78
  -3  10   1    9.06    1.88
   1  10   3   10.68    2.10
  -3  -1 -10    6.72    1.95
   1   3 -10    7.18    1.72
   3 -10   1    7.00    1.88
  10  -1   3    5.07    1.78
  10  -1  -3    5.12    1.95
  -1 -10  -3    6.69    2.13
  -1 -10   3   11.23    2.32
 -10   1   3    5.42    1.64
 -10   1  -3    8.13    1.75
  10  -3   1    5.32    1.89
 -10   3   1    8.07    1.91
 -10  -3   1    6.17    1.81
 -10  -1  -3    6.62    1.66
 -10  -1   3    8.57    1.79
 -10  -1  -3    8.45    2.17
 -10   1   3    5.10    1.47
   1  -3 -10    3.73    1.00
   1  10   3    4.92    1.71
   1  10  -3    6.67    1.71
 -10  -1  -3    5.64    1.77
   3  10   1    6.64    1.70
 -10  -1   3    6.14    1.42
  -3 -10   1    8.68    2.18
 -10  -1   3    2.98    1.65
 -10  -3  -1    4.15    2.08
 -10  -3  -1    4.52    1.73
  -3   1  10    6.57    1.13
 -10  -3   1    7.25    1.70
   3  -1  10    7.30    1.99
  -1  -3 -10    4.65    1.36
  -2 -10  -3   13.23    2.04
   3  10  -2   17.12    1.49
   2  10   3   19.20    2.31
  -2  -3 -10   20.13    2.54
   3   2  10   18.00    2.23
 -10   2  -3   18.81    2.85
 -10   3   2   24.72    2.53
   2 -10  -3   13.75    1.07
   3 -10  -2   15.02    1.33
  -2   3  10   23.11    1.75
   3  -2  10   23.82    2.55
 -10   3  -2   28.07    2.98
   2  -3  10   24.89    2.56
   3 -10   2   16.66    1.87
  -3  -2 -10   21.21    2.58
  -3   2  10   26.20    1.97
   2 -10   3   17.26    1.99
   2   3 -10   23.26    2.15
  -2  -3  10   20.46    2.31
  -3  -2  10   22.29    2.28
   2  10  -3   17.69    1.71
  -3  -2 -10   25.10    2.12
  -2  -3 -10   25.68    1.88
  -3   2 -10   27.04    2.38
  -2 -10   3   20.62    2.10
   2 -10  -3   15.15    2.05
   2   3  10   24.07    2.50
  -2  -3  10   24.17    2.32
 -10   3  -2   18.98    1.68
   2  -3 -10   21.67    2.59
 -10   2  -3   17.20    1.94
  -3  -2  10   21.41    2.39
  -3  10   2   15.87    2.25
  -3   2  10   18.72    2.61
  -3   2 -10   23.09    2.51
  -2  10   3   19.63    2.10
  -2   3 -10   26.22    2.53
  -3  -2 -10   18.23    2.43
  -3  10   2   22.08    2.17
 -10  -2  -3   18.41    2.01
  -2  10   3   16.25    2.40
   3  10  -2   17.80    2.57
   3  10   2   15.47    2.55
  -2  -3 -10   14.82    2.47
  10  -2   3   21.65    2.38
  10  -3   2   21.09    2.47
  10  -3  -2   26.44    2.62
 -10  -3   2   23.45    2.28
 -10  -3  -2   21.31    2.31
  -3 -10  -2   24.09    2.68
  -3 -10   2   22.12    2.65
   3 -10   2   19.00    2.35
   3 -10  -2   22.49    2.44
 -10  -2  -3   19.86    2.22
 -10  -2   3   19.85    2.16
  10  -2  -3   16.02    2.34
   2 -10   3   22.55    2.38
   2 -10  -3   20.62    2.32
 -10   2   3   20.80    2.23
 -10   2  -3   21.66    2.28
  -2 -10  -3   21.84    2.57
 -10   3   2   18.91    2.28
  -2 -10   3   21.16    2.63
 -10   3  -2   15.69    2.24
   3  -2  10   17.26    2.57
   2  10   3   16.23    2.06
   2  10  -3   15.04    2.08
   3  10   2   16.62    2.11
   3  10  -2   16.36    2.12
  -3 -10  -2   17.47    1.98
 -10  -3  -2   21.12    2.42
 -10  -3   2   24.33    2.23
  10   3  -2   24.82    2.39
  -2  -3 -10   24.74    2.15
 -10  -2  -3   19.57    2.36
  10   2  -3   21.52    2.16
 -10  -2   3   21.18    1.97
  -3  -2 -10   23.94    2.11
 -10  -3  -2   24.34    2.99
 -10  -2  -3   23.63    3.03
  10   3   2   24.04    2.32
   3 -10  -2   14.20    1.84
  10  -3   2   23.99    1.82
   3  10  -3    9.11    1.05
  -3 -10  -3    7.84    1.81
  10   3  -3    7.61    1.74
  -3  -3  10   10.30    2.00
   3  -3  10    6.30    2.11
 -10   3  -3    6.09    2.27
  -3  -3 -10    5.56    1.49
  -3   3  10    7.49    1.35
 -10  -3  -3    3.07    2.38
   3 -10   3    9.03    1.75
   3  10  -3    9.35    1.82
 -10   3   3    8.53    2.03
  -3  -3 -10    5.96    2.07
   3  -3 -10    6.07    1.91
  -3  10   3   10.73    1.96
   3  10   3    8.87    2.43
 -10  -3  -3    8.19    1.77
  -3  -3  10    7.37    1.82
  -3  10   3   11.04    2.11
  -3   3 -10    7.33    2.03
  10   3  -3    5.59    1.16
  -3  -3 -10    5.43    2.14
   3 -10   3    9.36    2.04
   3 -10  -3   12.53    2.10
  -3  -3 -10    3.71    0.73
  10  -3   3    8.05    2.07
  10  -3  -3    4.16    1.97
 -10   3   3    7.37    1.87
 -10   3  -3   12.08    2.12
 -10  -3  -3    9.68    1.82
 -10  -3   3    9.25    1.84
 -10  -3   3   10.29    1.72
  -3  -3 -10    4.73    1.75
   3  -3  10    8.64    2.33
   3  10   3    7.04    1.66
   3  10  -3   10.96    1.84
 -10  -3  -3    7.27    1.99
 -10  -3  -3    2.42    2.46
  -3 -10  -3   11.83    2.28
  -3 -10   3   11.23    2.36
   0   4 -10   30.38    2.44
   4   0  10   37.33    2.97
 -10   0  -4   33.81    3.37
   4 -10   0   25.99    1.86
 -10   4   0   35.74    2.91
   0  -4  10   30.72    2.70
   0 -10  -4   20.82    1.19
   0 -10   4   27.59    2.32
  -4   0  10   30.45    2.28
  -4   0 -10   45.45    2.90
   0  10   4   20.81    2.65
   0   4  10   28.45    2.84
   0  10   4   25.73    2.22
   0  -4 -10   34.75    3.10
  -4   0  10   31.34    2.87
  -4   0 -10   41.01    3.14
   0  10   4   21.30    2.73
 -10   0  -4   29.44    2.59
   4  10   0   20.98    2.79
  -4  10   0   23.13    2.33
 -10  -4   0   31.86    2.60
   0  -4 -10   22.51    0.97
   0 -10  -4   22.95    2.82
   0 -10   4   25.18    2.90
 -10   0   4   26.53    2.40
 -10   0  -4   23.44    2.45
  10   0  -4   28.84    2.71
  10   0   4   26.98    2.55
   0  -4 -10   25.99    1.01
   0  10   4   20.26    2.35
   0  10  -4   19.19    2.44
   4  10   0   24.35    2.37
   0  -4 -10   31.01    2.05
  10   4   0   32.75    2.60
 -10  -4   0   30.03    2.53
  10  -4   0   29.06    2.71
   0  -4  10   27.41    1.76
  10  -4   0   31.60    1.89
   4   0  10   28.67    2.86
 -10   0  -4   28.39    2.54
 -10   0   4   34.60    2.30
   0 -10  -4   20.38    2.44
   4 -10   0   19.15    1.37
  -1 -10  -4   -0.09    1.63
   4 -10  -1    0.87    1.11
   1 -10   4    2.22    1.46
  10  -4   1    2.05    1.09
  10   4  -1    2.69    1.64
   4 -10  -1    2.46    1.09
   4  -1  10    5.88    2.07
  -4   1  10    2.98    1.44
  -4  -1 -10    3.58    1.85
  -4 -10  -1    1.89    1.38
  10  -4  -1    2.58    1.12
 -10   4   1    5.00    1.88
 -10   1  -4    2.80    2.30
   4 -10   1    4.22    1.33
  -4  -1 -10    5.29    1.70
 -10   4  -1    5.69    2.19
  -4  -1  10    4.23    1.65
  -1 -10   4    1.73    1.64
  -4   1 -10    5.69    1.80
   1  -4  10    2.26    1.90
  -1 -10  -4    3.80    0.84
  -1   4  10    3.33    1.10
   1 -10  -4    1.08    1.77
   4   1  10    3.60    1.86
  -1  -4  10    2.65    1.79
  10   4   1    3.66    1.64
  -1  10   4    1.35    2.03
   4  10   1    0.36    2.03
  -1   4 -10    1.93    1.66
 -10   1  -4    3.90    1.75
  -1  -4 -10    5.07    2.05
   1  -4 -10    4.86    1.96
   4  10  -1    1.35    1.94
   1  10   4    1.05    1.96
  -1  10   4    0.98    1.88
  -1  -4  10    5.00    1.65
   1  10   4    1.97    1.46
   1   4  10    2.35    1.92
  -1   4  10    2.99    2.00
  -1  10   4    2.41    1.56
  -4  -1  10    3.72    1.85
  -4   1 -10    5.53    2.13
  -4   1  10    3.24    1.95
  -4  -1 -10    6.42    2.02
  -4  10   1    2.63    1.74
 -10   4  -1    2.09    0.82
   1  10   4    3.16    1.90
   1   4 -10    2.13    1.50
 -10  -1  -4    0.70    1.75
 -10  -1   4    0.68    1.57
 -10  -1  -4    1.78    1.62
  10  -1   4    1.54    1.77
  10  -1  -4    1.55    1.87
  -1  -4  10    2.77    0.53
  -1  -4 -10    3.24    0.62
 -10   1   4    0.07    1.61
 -10   1  -4    1.63    1.69
  -1  -4 -10    3.11    0.61
  -1  -4  10    1.72    0.45
   1  -4  10    2.22    0.47
   1  -4 -10    1.80    0.61
 -10  -4   1    4.56    1.75
  10  -4   1    6.08    2.02
  -1 -10  -4    0.98    2.00
 -10   4   1    3.09    1.77
  -1 -10   4    1.01    2.05
   4 -10   1    3.09    1.86
 -10   1   4    4.22    1.38
 -10  -1  -4    4.95    2.30
  -4   1 -10    2.11    0.46
  -4   1  10    1.79    0.59
   1  10   4    0.41    1.61
   1  10  -4    0.48    1.55
 -10  -1  -4    3.50    1.88
   4  10   1    2.03    1.47
 -10  -4   1    2.63    1.78
   1  -4 -10    2.76    1.12
  -1  -4 -10    2.76    1.42
 -10  -4   1    3.31    1.60
 -10  -4  -1    5.21    1.84
  -1  -4  10    1.99    0.97
  10  -4  -1    3.03    1.75
   1  -4  10    1.91    1.26
  10  -4   1    2.65    1.92
 -10  -4  -1    4.41    2.21
 -10  -1   4    4.24    1.63
  -4   1  10    2.98    0.91
   4  -1  10    3.34    2.06
   2  10   4  267.17   10.03
  -2   4  10  259.81    8.51
 -10  -2  -4  261.25   10.99
  -4  -2 -10  251.35   10.21
   2   4 -10  265.40    9.34
 -10   4   2  291.82    9.81
   4  -2  10  281.02   10.25
   4 -10   2  244.46    9.19
 -10   2  -4  282.39   10.94
 -10   4  -2  319.61   10.71
   2  -4  10  271.32   10.02
   2 -10   4  252.20    9.48
  -4   2  10  304.63    9.12
  -2  -4  10  267.26    9.82
  -4  -2 -10  284.56    9.74
  -2  -4 -10  260.69   10.38
  -4  -2  10  290.25    9.71
  -4   2 -10  283.88   10.04
  -2  -4 -10  291.69    9.00
  -2 -10   4  274.86    9.61
  -2  10   4  296.67   10.81
  10   2  -4  280.26    9.77
   2   4  10  254.38   10.03
  -2  -4  10  264.64    9.61
 -10   2  -4  232.40    9.62
  10   4  -2  249.24    9.15
  -2   4  10  262.02   10.35
  -4  -2  10  272.15   10.06
  -2  -4 -10  226.87   10.37
   2  -4 -10  261.99   10.29
  -4   2 -10  298.01   10.59
  -2  10   4  249.91   10.19
  -2  10   4  270.02    9.71
  -4   2  10  272.75   10.47
  -4  -2 -10  268.77   10.24
  -2   4 -10  290.03   10.06
   4  10   2  258.88   10.65
  -4  10   2  252.46    9.74
 -10  -2  -4  267.50    9.94
   4  10  -2  282.33   10.57
   4 -10   2  270.10    9.82
   4 -10  -2  293.30    9.91
   2  -4  10  217.46    8.10
  -2  -4 -10  240.54    8.28
  10  -4   2  285.87   10.06
  10  -4  -2  302.67   10.25
 -10  -4   2  269.14    9.70
 -10  -4  -2  260.53    9.71
  -2  -4  10  223.69    8.17
  -2  -4 -10  277.47    8.29
 -10  -2  -4  259.34    9.68
 -10  -2   4  276.04    9.57
  -4 -10  -2  301.01   10.30
   2 -10   4  294.93    9.78
   2 -10  -4  300.75    9.78
  -2 -10  -4  284.17   10.19
   2  -4 -10  236.10    8.27
  -4  -2 -10  246.68    8.32
 -10   2   4  288.45    9.79
 -10   2  -4  266.65    9.92
  -2 -10   4  299.92   10.33
 -10   4   2  259.61    9.75
 -10   4  -2  261.91    9.88
  10  -2   4  277.83    9.81
  10  -2  -4  294.98   10.11
   2  10   4  235.39    9.52
   2  10  -4  241.13    9.61
  -2   4 -10  232.08    8.16
   4  10   2  225.52    9.45
   4  10  -2  236.51    9.53
 -10  -4  -2  259.16    9.63
 -10  -4   2  292.69    9.93
  -2 -10  -4  241.01    9.84
  -2  -4  10  233.91    8.32
  10  -4  -2  269.94    9.80
   2  -4  10  251.43    9.07
   2  -4 -10  227.22    8.52
  10  -4   2  262.88   10.11
 -10  -4   2  275.38    9.58
 -10  -4  -2  266.97    9.94
  -2  -4 -10  259.88    9.58
 -10  -2  -4  277.10   10.07
  -4  -2 -10  274.54    9.71
 -10  -2   4  302.67    9.16
 -10  -4  -2  267.38   11.03
   4 -10  -2  227.58    9.24
  10   4   2  260.83    9.87
   4  -2  10  280.68   10.45
  10  -4   2  255.91    8.89
   2  10  -4  267.69    9.42
 -10  -2  -4  292.43   11.17
  -4 -10  -2  229.83    9.41
  10   4  -2  283.49    9.95
 -10  -3  -4    4.47    2.32
  -3 -10  -4    4.16    1.85
  -3   4  10    3.76    0.97
 -10   4   3    4.77    1.76
  -4 -10  -3    5.09    1.65
  10   4  -3    5.05    1.76
  -4  -3 -10    4.03    1.58
  10   3  -4    3.76    1.68
   4  -3  10    5.08    2.00
 -10   3   4    0.53    1.67
  -3  -4 -10    3.21    1.39
  -3  -4  10    4.53    1.91
   3  -4  10    4.32    2.10
   4 -10   3    5.73    1.62
 -10   3  -4    3.46    2.23
 -10   4  -3    1.49    1.97
  -4  -3  10    5.33    1.85
   3 -10   4    4.95    1.73
  -4   3  10    5.62    1.30
  -4   3 -10    3.59    1.77
   3  10  -4    5.16    1.63
   4  10  -3    5.70    1.82
  -3  10   4    5.61    1.88
  -3  -4 -10    3.54    2.04
  -3  -4 -10    5.30    1.87
 -10  -3  -4    4.15    1.83
   4  -3 -10    1.55    1.78
   4  10  -3    7.90    2.23
  -3  -4 -10    0.80    1.97
   3  -4 -10    1.69    1.69
  10   4  -3    1.99    1.39
  -3  10   4    4.48    1.95
  10   3  -4    2.71    1.06
   4  10   3    5.77    2.37
  -3  10  -4    5.93    1.20
  -3  -4  10    3.26    1.65
  -4  10   3    9.36    2.10
  -4  -3 -10    1.06    1.79
  -4  -3  10    5.95    1.89
  -4   3 -10    4.19    1.99
  -3   4  10    3.28    2.09
  -3   4 -10    4.86    1.98
  -3  -4  10    2.43    1.10
  -4  -3 -10    1.57    0.87
  -4  -3  10    2.94    0.77
   4  -3 -10    1.80    0.99
   4  -3  10    2.03    0.82
  10  -3   4    2.20    1.83
  10  -3  -4    2.25    1.93
   3  -4  10    3.37    0.80
   3  -4 -10    2.68    0.98
  10  -4   3    5.21    1.97
  10  -4  -3    3.66    1.86
 -10  -4   3    4.45    1.66
 -10  -4  -3    2.92    1.57
  -3  -4 -10    1.81    0.96
  -3  -4  10    2.63    0.73
  -3  -4 -10    1.72    1.06
 -10   3   4    2.86    1.81
 -10   3  -4    5.30    1.97
 -10  -3  -4    5.78    1.76
 -10  -3   4    5.89    1.72
 -10   4   3    6.93    1.81
 -10   4  -3    4.66    1.83
   4 -10   3    6.07    1.90
   4 -10  -3    6.73    1.94
   3 -10   4    4.87    1.94
   3 -10  -4    4.68    1.85
  -4 -10  -3    7.26    2.08
  -4 -10   3    7.66    2.14
  -4  -3 -10    2.61    1.75
 -10  -3   4    1.78    1.43
   4  -3  10    6.38    2.15
   3  10   4    4.57    1.67
   3  10  -4    3.78    1.59
   4  10   3    5.18    1.56
   4  10  -3    4.25    1.48
 -10  -4  -3    6.44    1.75
 -10  -4   3    4.88    1.95
 -10  -3  -4    6.65    1.70
 -10  -3   4    6.00    2.01
  10  -4  -3    3.29    1.66
   3  -4  10    3.72    1.52
  10  -4   3    2.26    1.91
 -10  -4   3    3.61    1.55
 -10  -4  -3    3.68    1.85
  -3  -4 -10    2.35    1.64
   3  -4 -10    1.98    0.65
 -10  -4  -3    2.75    2.43
 -10  -3  -4    0.86    1.87
  -4  -3 -10    2.75    1.01
  -3 -10  -4    4.92    2.03
  -3 -10   4    4.36    2.16
  -4  -3  10    3.01    1.05
 -10  -3  -4    5.68    2.56
  -4 -10  -4   11.88    2.09
 -10   4   4   23.33    2.26
   4  -4  10   17.99    2.73
   4 -10   4   15.71    2.10
 -10   4  -4   19.35    2.96
  -4  -4 -10   27.50    2.29
  -4  -4  10   22.70    2.53
  -4   4 -10   25.25    2.60
 -10  -4  -4   16.26    2.88
   4  10   4   16.49    2.84
  -4  -4  10   19.95    2.23
  -4  10   4   14.25    2.45
  -4   4 -10   26.15    2.82
   4  -4 -10   22.61    2.48
  -4  -4 -10   22.18    2.60
  10   4  -4   15.52    1.75
  -4  10   4   20.85    2.59
 -10  -4  -4   19.13    2.40
  -4   4  10   18.02    2.83
   4  -4 -10   25.66    1.70
 -10   4   4   19.55    2.47
 -10   4  -4   18.59    2.51
  10  -4   4   23.06    2.54
  10  -4  -4   24.10    2.58
 -10  -4   4   20.15    2.33
 -10  -4  -4   22.39    2.42
  -4  -4 -10   25.03    1.70
  -4  -4  10   19.67    1.33
  -4 -10  -4   22.07    2.64
  -4 -10   4   25.75    2.86
  -4  -4 -10   23.38    1.68
   4 -10   4   16.27    2.36
   4 -10  -4   20.58    2.45
 -10  -4  -4   16.93    2.22
 -10  -4   4   23.14    2.63
  10  -4  -4   17.85    2.20
   4  10   4   16.72    2.08
   4  10  -4   19.41    2.18
   4  -4  10   18.34    2.16
 -10  -4  -4   21.83    2.58
 -10  -4   4   23.10    2.07
  -4  -4 -10   23.77    2.61
  10   4  -4   20.26    2.35
   4  -4  10   24.20    3.04
  10  -4   4   21.40    2.92
 -10  -4  -4   18.31    3.24
   4  10  -4   17.73    2.18
   5   0  10   26.83    2.94
   5 -10   0   18.24    1.84
 -10   5   0   27.60    2.76
   0  10   5   25.87    2.97
   0  -5  10   24.05    2.62
   0 -10   5   20.86    2.38
  -5   0 -10   31.94    2.78
  -5   0  10   29.92    2.30
   0 -10  -5   13.13    2.46
   0   5  10   27.57    2.89
   0  10   5   18.49    2.33
   0  10   5   19.51    2.73
  -5   0 -10   27.87    2.92
 -10   0  -5   17.88    2.63
  -5   0  10   19.16    2.62
   5  10   0   17.85    2.85
   0  -5 -10   28.12    3.06
  -5  10   0   18.54    2.29
 -10  -5   0   26.85    2.60
   0 -10   5   20.94    2.82
 -10   0   5   21.58    2.28
 -10   0  -5   21.09    2.40
   0 -10  -5   18.42    2.72
   0  -5  10   21.27    1.39
   0  -5 -10   28.99    1.56
   0  10   5   17.87    2.26
   0  10  -5   16.21    2.25
  10   5   0   26.25    2.60
  -5   0 -10   23.29    1.38
  -5   0  10   20.58    1.44
   5  10   0   24.59    2.39
  10  -5   0   22.58    1.69
  10  -5   0   24.02    2.85
   0  -5  10   24.36    1.89
   5   0  10   20.24    2.75
 -10   0   5   29.34    2.15
   5  -1  10    8.45    2.31
  -1  -5  10    8.03    2.06
  10  -5   1    5.29    1.16
  10   5  -1    5.40    1.87
   1  10   5   13.20    2.34
   5 -10   1    8.84    1.55
  -5  -1 -10    7.44    2.10
  10  -5  -1    6.64    1.28
  -5 -10  -1    7.66    1.62
  -5   1 -10    4.58    2.03
  -5   1  10    8.04    1.57
 -10   5   1    6.58    1.95
 -10   1  -5    9.56    2.56
  -1 -10   5    6.85    1.92
 -10   5  -1    9.28    2.20
  -5  -1  10   11.33    1.89
   1  -5  10   11.53    2.24
  -1 -10  -5    7.27    0.81
   5 -10  -1    8.65    1.39
   1  10  -5    9.47    1.57
  -1 -10  -5    6.83    0.92
  10   5   1    7.30    2.01
  -1 -10  -5    6.48    2.11
   1 -10   5    5.82    1.80
  -1  10   5    6.92    2.45
  10   5  -1    4.34    1.71
 -10   1  -5    5.56    1.98
   1  10   5   12.08    2.47
  -1  10   5   10.46    2.32
  -1   5 -10    7.21    1.85
  -1  -5 -10    5.41    2.05
   1  10   5   11.28    1.95
   1  -5 -10    3.54    1.94
   1   5  10    7.33    2.19
 -10  -1  -5    8.41    2.30
  -1   5  10   10.35    2.33
  -1  10   5   11.85    2.11
  -5  10   1   10.13    1.91
  -5   1 -10    4.92    2.14
  -5  -1 -10    5.72    2.12
   5  10  -1   11.42    2.51
  -5  -1  10    8.65    2.09
   1   5 -10    5.90    1.67
   5  10   1    8.49    2.56
  -5   1  10    9.82    2.21
 -10  -1   5    6.13    1.70
 -10  -1  -5    4.54    1.69
   1  -5 -10    4.19    1.07
  -1  -5  10    3.25    0.84
  -1  -5 -10    3.22    1.09
  10  -1  -5    8.81    2.24
  10  -1   5    4.33    1.91
  -1 -10  -5    6.38    2.27
 -10   1   5   10.10    1.91
 -10   1  -5    6.74    1.87
  -1 -10   5    5.54    2.32
 -10  -5   1    8.80    1.91
  -5   1  10    3.24    1.17
  10  -5   1    9.18    2.25
   5 -10   1   10.95    2.11
  -1  -5 -10    2.12    1.05
  -5  -1  10    2.83    0.98
  -5  -1 -10    1.98    1.06
  -5   1 -10    2.97    1.22
 -10   5   1   10.11    2.03
  -1  -5  10    6.21    1.22
 -10   1   5    5.36    1.33
   1  10   5    7.47    1.79
   1  10  -5    8.21    1.85
 -10  -1  -5    8.69    2.13
 -10  -5   1   10.60    2.11
  -5   1 -10    3.16    0.92
  -1   5  10    5.55    0.95
  -1   5 -10    3.34    0.89
   5  10   1    8.72    1.79
  -5  -1 -10    3.80    1.74
 -10  -1   5    3.16    1.59
   5 -10  -1    9.53    1.35
   5  -1  10    5.78    2.27
  10  -5   1    4.42    2.10
  10  -5  -1    5.02    1.96
   1  -5  10    6.33    1.48
  -5  10   1    8.53    2.48
  -2 -10  -5    2.36    1.86
   5  -2  10    4.31    2.13
  -5  -2 -10    2.40    1.77
  10   5  -2    1.21    1.68
  -5   2  10    3.04    1.35
 -10  -2  -5    0.14    2.19
  -2  -5  10    0.53    1.84
  -5 -10  -2    3.72    1.56
   5 -10   2    3.69    1.47
 -10   5   2   -0.71    1.64
 -10   2  -5    3.48    2.31
  -5   2 -10    5.13    2.05
   2  -5  10    1.14    1.84
 -10   5  -2    1.44    2.02
  -5  -2 -10    2.21    1.97
  -2 -10   5    1.33    1.65
  -5  -2  10    4.88    1.90
  -2  -5 -10    3.19    1.09
   2 -10   5    0.23    1.65
  10   5   2    2.48    1.72
   5  10  -2    1.56    1.77
   2  10  -5    2.76    1.44
  -2   5 -10    3.26    1.69
   2   5 -10    2.72    1.35
  -2  10   5    1.99    2.25
   2  10   5    1.54    2.16
  -5  10   2   -0.08    1.72
 -10  -2  -5    0.22    1.95
  -2  10   5    2.34    1.99
  10   5  -2    1.77    1.55
  -5   2  10    5.17    2.17
  -2  -5  10    2.42    1.49
   2   5  10    3.84    1.97
  -2  -5 -10    2.26    2.03
   5  10   2   -0.14    2.17
   2  -5 -10    1.20    1.95
   5  10  -2    2.12    2.18
  -2   5  10    0.70    2.04
  -5   2 -10    0.69    1.86
  -2  10   5    0.87    1.67
  -5  -2  10    2.62    1.82
   5  -2 -10    0.67    1.58
  -5  -2 -10    0.61    1.79
   2 -10   5    1.06    1.80
   2 -10  -5    0.84    1.75
  -2 -10  -5    0.71    1.97
  -2  -5 -10    1.87    1.08
  -2  -5  10    1.39    0.82
  10  -2   5    1.18    1.81
  10  -2  -5    0.45    2.01
  -2 -10   5    0.74    2.02
  -5  -2 -10    2.35    1.05
  -5  -2  10    2.91    0.93
 -10  -5   2    1.29    1.60
 -10  -5  -2    2.08    1.59
 -10   2   5    0.45    1.70
 -10   2  -5    2.16    1.92
  -5   2 -10    2.19    1.14
  10  -5   2    2.08    2.04
  10  -5  -2    2.60    2.07
   5 -10   2    0.48    1.83
   5 -10  -2    0.96    1.86
   2  -5 -10    2.23    1.03
 -10  -2  -5    0.39    1.65
 -10  -2   5    1.37    1.61
  -5   2  10    2.51    1.16
 -10   5   2    1.77    1.80
 -10   5  -2    3.80    2.00
  -2  -5  10    1.89    0.96
 -10  -2  -5    4.41    2.57
 -10  -2  -5    2.30    1.90
  -5  -2 -10    1.12    1.65
  -2   5  10    1.53    0.94
  -2   5 -10    2.05    0.95
   2  10   5    0.54    1.50
   2  10  -5    0.39    1.54
 -10  -5  -2    1.17    1.65
 -10  -5   2    1.68    1.87
   5  10   2    2.38    1.51
   5  10  -2    3.73    1.60
 -10  -5  -2    2.82    1.91
  10  -5   2    3.46    1.94
 -10  -5  -2    1.76    2.31
  10  -5   2    0.81    1.87
  10  -5  -2    2.33    1.81
   2  -5  10    2.53    1.53
   5  -2  10    2.08    2.18
  -5  10   2    1.75    2.04
  -5  10  -2    2.12    2.13
   3  10  -5    5.92    1.60
  -3 -10  -5    1.46    1.69
 -10  -3  -5    4.51    2.37
  10   5  -3    4.10    1.87
   5  -3  10    7.42    2.27
  -5 -10  -3    6.16    1.67
  10   3  -5    2.72    1.63
 -10   5   3    3.54    1.68
 -10  -5   3    2.22    0.52
   5 -10   3    5.05    1.63
  -3  -5 -10    3.09    1.34
  -5   3  10    3.63    2.12
  -3  -5  10    3.14    1.90
   3  -5  10    0.99    1.92
 -10   3  -5    3.00    2.38
  -5   3 -10    3.44    1.94
   3 -10   5    2.75    1.76
 -10   5  -3    3.28    2.26
  -5  -3  10    5.27    1.87
  -5   3  10    2.72    1.24
  -3 -10   5    3.11    1.82
   5  10  -3    1.89    1.76
  -5  -3 -10    2.08    1.70
  -3  10   5    6.46    2.13
  -3  10   5    9.36    2.66
  -5  -3 -10   -0.94    2.06
  -3  -5 -10    1.13    1.77
   5  -3 -10    0.17    1.63
   5  10   3    4.95    2.51
  -3  -5 -10    2.10    2.20
 -10  -3  -5    2.68    2.02
  -5  10   3    7.21    2.00
  -3  -5  10    2.81    1.55
  10   5  -3    0.78    1.40
   3  -5 -10    2.65    1.89
  -5   3 -10    3.04    2.14
  -5  -3  10    3.48    1.77
  -3   5  10    0.73    2.26
  -5  -3 -10    1.72    1.93
  -3   5 -10    3.65    1.92
   5  10  -3    6.49    2.23
  -3  10   5    2.85    1.88
 -10   5   3    5.95    1.97
 -10   5  -3    6.29    2.03
  -5  -3 -10    1.61    1.07
   5  -3 -10   -0.12    1.21
  -3  -5 -10    1.75    1.18
  10  -3   5    1.95    1.86
  10  -3  -5    0.26    2.03
 -10  -5   3    6.26    1.78
 -10  -5  -3    2.36    1.62
  10  -5   3    5.74    2.07
  10  -5  -3    3.24    2.03
   5 -10   3    5.97    1.99
   5 -10  -3    6.63    1.96
   3  -5 -10    2.99    1.16
 -10   3   5    3.28    1.84
 -10   3  -5    1.63    1.83
 -10  -3  -5    4.16    1.75
 -10  -3   5    6.12    1.77
   3 -10   5    0.61    1.83
   3 -10  -5    3.94    1.89
  -3  -5 -10    1.00    1.31
   5  -3  10    5.61    2.33
 -10  -3  -5    3.91    2.75
  -5  -3 -10    0.48    1.79
 -10  -3   5    3.00    1.25
 -10  -5  -3    6.13    1.92
 -10  -5   3    7.17    2.08
   3  10   5    4.09    1.65
   3  10  -5    4.54    1.60
  -5  10  -3    5.77    2.24
 -10  -3  -5    1.45    1.62
 -10  -3   5    1.70    2.00
 -10  -5   3    3.50    1.68
  -3  -5 -10    2.17    1.81
 -10  -5  -3    2.48    1.91
  10  -5   3    1.66    2.09
 -10  -5  -3    0.16    2.34
 -10  -3  -5    1.93    1.91
  10  -5   3    2.08    1.97
  10  -5  -3    1.94    1.68
   3  -5  10    1.81    1.52
  -3 -10  -5    2.51    2.04
  -3 -10   5    6.13    2.27
  -5   3 -10    2.58    1.30
  -5  10   3    4.06    2.32
 -10   4   5   11.26    1.93
  -4   5  10    8.25    2.77
   4  10  -5    8.76    1.94
 -10  -4  -5    6.82    2.57
   5  10  -4   10.63    2.20
  -4 -10  -5    6.56    2.11
  -5   4  10    5.80    2.45
  -5 -10  -4    9.51    2.08
  10   5  -4   14.65    2.36
   5  -4  10   12.68    2.43
  10   4  -5   11.95    2.11
 -10   5   4   13.17    1.89
 -10  -4  -5    7.20    1.77
   5 -10   4   11.00    2.01
   4  -5  10   11.05    2.41
   4 -10   5   11.16    2.10
  -4  -5  10   11.59    2.30
  -4  -5 -10   14.64    1.93
 -10   4  -5   10.54    2.76
 -10   5  -4   17.61    2.82
  -5  -4  10   14.93    2.28
  -5   4 -10   17.99    2.61
 -10  -5  -4    9.56    2.70
  -5  -4 -10   15.42    2.18
  10   5  -4    7.30    1.79
  -4  -5 -10   13.06    2.58
  -4  10   5   12.82    2.53
  -4  -5 -10   11.51    2.24
   5  10   4   11.00    2.89
 -10  -4  -5    9.57    2.44
  -5  10   4   10.38    2.36
  -5  -4 -10   12.34    2.69
 -10  -5  -4    8.34    2.13
 -10  -4  -5   10.37    2.12
   5  -4 -10   13.98    2.12
  -4  -5  10   10.82    1.92
  -5   4 -10   15.56    2.67
  -5  -4  10    8.77    2.01
  -4   5 -10   17.19    2.63
   4  -5 -10   12.66    2.21
 -10  -5  -4   16.06    2.45
  -4   5  10   10.78    2.64
  -5  -4 -10   12.64    2.35
   4  10   5   10.67    2.76
  -4  10   5    9.16    2.32
   5  -4 -10   13.60    1.68
  -4  -5 -10   13.37    1.61
 -10   5   4   13.36    2.27
 -10   5  -4   10.78    2.29
  10  -5   4   17.23    2.47
  10  -5  -4   16.60    2.56
   4  -5 -10   17.06    1.66
  -5   4 -10   16.00    1.76
  -5  -4 -10   17.37    1.62
  10  -4   5   11.70    2.19
  10  -4  -5   10.28    2.31
 -10  -5   4   12.07    2.14
 -10  -5  -4   14.25    2.19
   5 -10   4   13.88    2.32
   5 -10  -4   13.62    2.29
 -10  -4   5   10.26    2.01
 -10  -4  -5    8.25    2.00
   4 -10   5    6.65    2.07
   4 -10  -5   10.83    2.22
  -4  -5 -10   16.15    1.76
 -10   4   5   12.77    2.31
 -10   4  -5    7.79    2.35
  -5  10   4    9.02    2.66
  -5  10  -4    5.70    2.54
   5  -4  10   13.43    2.75
  -4 -10   5   14.70    2.52
 -10  -5   4   15.12    1.98
 -10  -4   5   13.78    1.77
 -10  -5  -4   10.92    2.11
 -10  -5   4   13.20    2.43
 -10  -4  -5    9.85    2.12
 -10  -4   5    8.40    2.37
   4  10   5   11.72    1.90
   4  10  -5   11.07    1.92
  -4  -5 -10   11.82    2.42
 -10  -5  -4   14.04    2.51
  10  -4   5    6.08    2.66
  10  -5  -4   13.21    2.09
   4  -5  10   13.18    2.04
  10  -5   4    9.37    2.70
 -10  -4  -5   10.16    2.32
 -10  -5  -4   14.11    3.21
  -5  -4 -10   13.58    2.59
  -4 -10  -5   15.26    2.54
 -10  -4  -5    9.33    3.12
 -10  -5  -5    6.31    2.74
   5  10  -5    7.64    2.17
   5  -5  10    9.40    2.45
 -10  -5  -5    8.63    1.90
   5 -10   5   10.44    2.14
  -5  -5  10   13.50    2.46
 -10   5  -5   11.12    2.75
  -5  -5 -10    8.89    2.07
  -5  -5 -10    1.49    2.24
   5  -5 -10    2.63    1.87
  -5  10   5   13.63    2.77
 -10  -5  -5    8.57    2.52
 -10  -5  -5    5.53    2.05
  -5   5  10    9.70    2.63
  -5  -5  10    9.22    1.92
  -5   5 -10    7.41    2.54
  -5  10   5   14.02    2.54
   5  10   5   12.43    3.06
  -5   5  10    9.83    2.72
  -5  -5 -10    5.36    2.16
 -10   5   5   12.45    2.41
 -10   5  -5   12.63    2.49
  -5 -10  -5   16.13    2.71
  10  -5   5    9.41    2.25
  10  -5  -5   12.08    2.54
  -5  -5 -10    6.09    1.65
 -10  -5   5   10.06    2.04
 -10  -5  -5    7.05    2.02
   5 -10   5   12.32    2.35
   5 -10  -5   16.72    2.48
   5  -5  10    5.39    2.70
 -10  -5  -5   12.92    2.30
 -10  -5   5   14.02    2.64
  10  -5  -5    5.56    1.78
   5  -5  10    6.33    2.14
 -10  -5   5    8.34    1.76
  -5  -5 -10    7.24    2.39
  10  -5   5    1.94    2.46
   6 -10   0  167.08    6.60
   0  10   6  175.89    8.06
 -10  -6   0  164.41    6.40
 -10   6   0  208.31    7.52
   0  -6  10  182.92    7.54
  -6   0 -10  219.17    8.09
   0 -10   6  174.33    7.17
  -6   0  10  206.44    6.99
   0  10   6  179.33    8.10
   0   6  10  181.97    7.85
   0  10   6  186.38    7.46
  10   6   0  174.75    7.48
  -6   0 -10  193.92    8.13
 -10   0  -6  149.94    7.63
  -6   0  10  183.92    7.91
   0  -6 -10  176.77    8.02
   6  10   0  177.97    8.28
  -6  10   0  160.37    6.90
  -6   0 -10  202.60    6.49
 -10   0   6  197.38    7.07
 -10   0  -6  187.55    7.30
   0  -6 -10  196.52    6.32
   0  10   6  165.36    7.10
   0  10  -6  163.14    7.11
  -6   0 -10  180.12    6.09
  10  -6   0  187.43    7.73
   0  -6  10  171.53    6.49
  -6   0 -10  200.38    7.79
   0  10  -6  172.12    6.45
  10   6   0  179.45    7.63
   6 -10   1    2.26    1.41
  10   6  -1    0.20    1.61
  -6  -1 -10    3.82    2.06
  -1  -6  10    1.12    1.88
 -10  -6  -1    2.95    1.25
  -6   1 -10    2.42    1.95
  10  -6  -1    2.82    1.06
  10   6   1    1.85    1.77
   1  10   6    0.69    2.01
  -1 -10   6    0.33    1.69
 -10  -1  -6    2.64    2.45
 -10   6   1    1.86    1.72
  -6   1  10    2.23    1.52
 -10   6  -1    3.95    2.09
   1  -6  10    1.39    2.04
  -6   1 -10   -0.44    1.91
  -6  -1  10    4.91    1.69
   6  -1  10    0.23    2.09
  -6  -1 -10    0.85    1.92
   1 -10   6   -0.08    1.69
  -1 -10  -6   -1.12    2.02
   1  10  -6    0.05    1.25
  -6   1  10    1.18    2.02
  10   6  -1   -0.19    1.70
 -10  -1  -6    1.13    2.07
   6  10  -1    0.39    2.19
   1  10   6    1.88    1.78
   1   6  10    1.11    1.99
  -6  10   1    2.18    1.58
  -1   6  10    1.73    2.01
  -1  10   6    0.66    1.95
  -6   1 -10    4.88    2.21
   6  10   1    2.69    2.33
  -6  -1 -10    3.04    1.97
  -6  10  -1    2.41    1.62
  -1  -6 -10   -0.13    2.18
  -1  10   6    1.21    2.14
   1  10   6    1.04    2.12
   1   6 -10    1.32    1.40
   1  -6 -10   -0.69    2.01
 -10  -6   1    1.26    0.98
  -1  10   6    2.15    2.24
  -6  -1  10    4.23    2.04
 -10   1  -6   -0.23    1.89
  -1 -10   6   -0.30    2.19
 -10  -1   6   -0.99    1.60
 -10  -1  -6    0.32    1.69
  10  -1  -6    0.62    1.96
  10  -1   6    1.13    1.72
 -10   6   1    1.61    1.82
   1 -10   6    2.71    1.79
   1 -10  -6    2.67    1.83
 -10  -6   1    3.10    1.77
   1  -6 -10    3.09    1.17
 -10   1   6    1.98    1.71
 -10   1  -6    0.51    1.73
   6 -10   1    2.44    1.98
  -6  -1 -10   -0.13    1.28
  10  -6   1    2.41    2.01
  -1  -6 -10    0.92    1.20
  -1 -10  -6   -0.19    2.11
  10  -6   1    0.62    1.95
  10  -6  -1    2.11    2.01
   1  -6  10    2.87    1.45
  -1  10   6   -0.69    1.77
  -1  10  -6   -0.34    1.67
  -6  -1 -10    0.32    1.06
   1  10   6   -0.24    1.64
   1  10  -6   -0.24    1.62
  -1  -6  10    3.10    1.23
 -10  -6   1    1.12    1.90
  -1   6 -10    1.86    1.03
  10  -6   1    0.36    1.79
   6  -1  10    0.86    2.19
  -6  10   1    2.00    2.24
   2  10  -6    4.29    1.44
  10   6  -2    2.42    1.88
   6 -10   2    3.86    1.42
 -10  -6  -2    1.50    1.35
  -2  -6  10    1.69    1.82
  -2 -10  -6    3.57    2.01
  -6 -10  -2    5.02    1.59
 -10  -2  -6    2.19    1.30
 -10  -2  -6    3.05    2.42
  -6   2  10    0.41    1.81
  -6   2 -10    2.38    1.97
   6  10  -2    1.60    1.84
  -6   2  10    4.10    1.39
 -10   6   2    3.88    1.68
  -2 -10   6    2.36    1.78
 -10   2  -6    2.33    2.26
   2  -6  10   -1.39    2.02
 -10   6  -2    4.76    2.13
   2 -10   6    0.84    1.73
  -2  -6 -10    2.83    0.99
  -6  -2  10    7.78    1.87
  -6  -2 -10    0.46    2.05
  -6   2 -10    1.21    1.54
  -6  -2 -10    1.07    1.99
   6  -2  10    2.70    2.18
  -2  10   6    1.44    2.36
  -6   2  10    7.83    2.27
   6  -2 -10    0.39    1.53
  -2   6 -10    1.59    1.61
 -10  -2   6    1.94    1.26
   2  -6 -10    1.54    1.96
   6  10  -2    4.88    2.30
  10   6  -2    1.33    1.60
   6  10   2    3.89    2.47
 -10  -2  -6    0.11    1.67
   2   6  10    1.29    1.93
  -6   2 -10    3.22    2.17
  -2   6  10    2.57    2.18
  -2  10   6    3.97    2.00
 -10  -2  -6   -0.89    2.47
  -2  -6 -10    3.53    2.13
  -6  10   2    0.90    1.77
  -6  -2  10    2.87    1.84
  -6  -2 -10    1.04    1.83
   2 -10   6    1.25    1.77
   2 -10  -6    2.40    1.77
  -2 -10  -6    0.82    2.02
  -2  -6 -10    0.93    1.24
   2  -6 -10    1.14    1.13
 -10   6   2    6.80    2.07
 -10   6  -2    4.52    2.03
  -2 -10   6    1.33    2.15
  10  -2   6   -0.39    1.85
  10  -2  -6   -0.18    2.13
  -6  -2 -10    1.14    1.11
 -10  -6   2    3.14    1.76
 -10  -6  -2    2.03    1.74
   6 -10   2    3.21    1.91
   6 -10  -2    6.80    2.02
 -10   2   6    1.35    1.77
 -10   2  -6    2.25    1.75
  10  -6   2    5.68    2.04
  10  -6  -2    4.36    2.01
  -6   2 -10   -0.12    1.54
 -10  -2  -6    1.82    1.67
 -10  -2   6    3.26    1.65
  10  -6  -2    2.38    1.92
   2  -6  10    1.37    1.45
  -6  -2 -10    0.35    1.14
  -2   6 -10    1.27    1.10
  -6  -2 -10    0.67    1.82
 -10  -6  -2    3.37    1.93
 -10  -6   2    3.32    1.91
   2  10   6    2.45    1.59
   2  10  -6    1.60    1.62
  10  -6   2    3.28    1.95
   6  -2  10    3.38    2.29
  -6  10   2    4.21    2.28
  -6  10  -2    2.39    2.29
  10  -6   2    1.59    1.95
  -3 -10  -6    1.68    2.00
   3  10  -6    5.34    1.68
   6  -3  10    7.48    2.37
   6 -10   3    3.84    1.64
 -10  -3  -6    8.84    2.66
 -10  -3  -6    6.99    1.72
  -3   6  10    2.90    2.30
  -6 -10  -3    3.97    1.71
  -3  -6 -10    6.72    1.37
 -10  -6  -3    2.36    1.63
  -3  -6  10    5.65    2.12
  -6   3  10    2.57    2.24
 -10   6   3    7.50    1.74
   3  -6  10    6.72    2.19
  -6   3 -10   12.40    2.44
   3 -10   6    6.78    2.10
 -10   3  -6    6.43    2.53
  -3 -10   6    6.30    2.02
 -10   6  -3    6.65    2.29
  -6  -3 -10    7.80    2.24
  -6  -3 -10    6.49    2.36
  -6   3 -10    8.56    1.73
  -6  -3  10    9.02    2.07
   6  10  -3    4.48    2.07
  -6   3  10    6.42    2.37
  -3  10   6    7.24    2.73
  -6 -10  -3    4.50    1.30
  -6  -3 -10    1.68    2.07
   3  -6 -10    4.69    2.15
   6  10   3    2.27    2.40
 -10  -3  -6    5.65    2.45
   6  -3 -10    5.56    1.88
  -6  10   3    2.35    1.87
 -10  -6  -3    5.10    1.84
  -3  -6  10    3.24    1.53
 -10  -3  -6    4.52    1.96
  -6   3 -10    4.52    2.41
  10   6  -3    2.01    1.87
  -3   6  10    3.40    2.26
  -6  -3 -10    5.13    2.12
  -3  -6 -10    1.58    2.28
   6  10  -3    6.07    2.39
  -6  -3  10    5.16    1.97
  -3  10   6    4.41    2.20
  -3   6 -10    4.38    1.85
  -6  -3 -10    7.14    1.39
   6  -3 -10    5.36    1.59
 -10   6   3    7.77    2.08
 -10   6  -3    8.21    2.18
  -3  -6 -10    3.91    1.47
  10  -3   6    5.20    2.01
  10  -3  -6    5.79    2.26
 -10  -6   3    6.52    1.92
 -10  -6  -3    4.64    1.83
   6 -10   3    5.70    2.06
   6 -10  -3    8.90    2.14
  10  -6   3    9.32    2.19
  10  -6  -3    8.31    2.31
 -10   3   6    4.91    1.99
 -10   3  -6    4.19    2.12
 -10  -3  -6    5.43    1.86
 -10  -3   6    6.62    1.81
   3 -10   6    4.61    2.02
   3 -10  -6    7.44    2.10
   3  -6 -10    8.18    1.47
  -3  -6 -10    5.91    1.70
  -6   3 -10    4.95    1.66
   3  -6  10    3.03    1.75
  -6  -3 -10    5.51    2.14
 -10  -6  -3    8.93    2.17
 -10  -6   3    8.93    2.31
   3  10   6    5.85    1.74
   3  10  -6    6.38    1.76
 -10  -3  -6    4.89    1.83
 -10  -3   6    5.93    2.21
 -10  -6  -3    7.33    3.00
  10  -6   3    2.69    2.15
  -3 -10  -6    6.11    2.14
  -3 -10   6    4.31    2.25
  10  -6   3    4.70    2.27
   6  -3  10   10.04    2.73
  -6  10   3    6.31    2.64
  -6  10  -3    3.00    2.42
  10  -6  -3    3.03    1.91
  -4   6  10  118.87    6.44
 -10  -6  -4   90.32    5.17
 -10  -6  -4   95.21    6.21
  -6   4  10  118.52    6.23
   6  -4  10  122.39    6.12
 -10  -4  -6  105.82    6.36
   6 -10   4  105.84    5.26
   4  -6  10  117.54    5.92
   4 -10   6  110.73    5.46
  -6  -4 -10  121.80    5.79
 -10   6  -4  121.68    6.18
  -4  10   6  122.42    6.63
  -4  -6 -10  120.79    5.03
  -4  -6  10  122.94    5.83
  -6  -4  10  129.03    5.71
  -4 -10   6  125.49    5.73
  10   4  -6  130.69    5.93
 -10  -6  -4  104.54    5.51
 -10  -4  -6   94.13    5.57
  -4  -6  10   98.74    4.93
   6  10   4  114.84    6.78
  -6  10   4  103.83    5.55
  -6   4 -10  127.47    6.51
  -6  -4  10  110.05    5.56
  -4   6 -10  129.52    6.05
  -4   6  10  114.97    6.29
  -4  10   6  118.11    5.94
  -4  -6 -10  107.24    5.77
  -6 -10  -4  103.66    4.89
  10   6  -4   93.35    5.24
   4  -6 -10  112.21    5.64
 -10  -4  -6  112.10    6.31
   6  10  -4  131.07    6.50
  -4 -10   6  131.72    6.02
  10  -4   6  121.47    5.47
  10  -4  -6  134.03    5.85
 -10  -6   4  111.32    5.43
 -10  -6  -4  102.37    5.49
  10  -6   4  121.00    5.77
  -6  10   4  109.45    6.31
  10  -6  -4  130.23    5.95
  -6  10  -4   89.40    6.18
 -10   4   6  136.08    5.69
 -10   4  -6  128.88    5.93
 -10  -4  -6  112.50    5.46
 -10  -4   6  113.44    5.23
 -10   6  -4  129.32    6.09
  -6  -4 -10  119.46    4.97
 -10   6   4  135.36    5.88
   6 -10   4  118.45    5.64
   6 -10  -4  124.25    5.68
  -6   4 -10  108.88    5.17
   4 -10   6  124.05    5.54
   4 -10  -6  134.75    5.64
  -4  -6 -10  115.25    4.94
  -4 -10  -6  121.53    5.76
   6  10  -4  102.38    5.57
 -10  -6  -4  122.94    5.70
 -10  -6   4  134.32    6.01
 -10  -4  -6  127.75    5.47
 -10  -4   6  143.01    5.96
   4  -6  10  119.97    5.47
  10  -6  -4  122.40    5.54
  -6  -4 -10  125.47    6.14
   4  10  -6  108.64    5.35
 -10  -4  -6  113.67    5.32
  10  -4   6  126.70    6.76
  10  -6   4  114.09    6.21
   6  -4  10  131.31    6.68
  -6  -4 -10  124.07    6.45
   6  10  -5    1.62    1.95
   6  -5  10    1.79    2.28
   6 -10   5    1.53    1.84
   5  -6  10    3.04    2.24
 -10  -5  -6    1.72    1.82
   5 -10   6    1.61    2.01
  -5  -6  10    2.88    2.25
  -6  -5 -10    2.57    1.96
  -5  -6 -10    0.52    1.73
  -6  -5  10    3.57    2.11
   5  10  -6    1.63    1.85
  -6   5  10    1.19    2.34
  -5  10   6    1.36    2.38
  -5  10   6    5.22    2.74
  -6 -10  -5    1.18    1.55
 -10  -6  -5    0.18    1.78
 -10  -5  -6    4.47    2.47
 -10  -6  -5    1.03    1.81
 -10  -5  -6   -0.11    1.82
  -5  -6  10    0.35    1.50
  -6   5 -10    0.13    2.27
  -6  -5  10    0.92    1.75
  -5   6 -10    0.47    2.19
 -10  -6  -5    2.90    2.15
  -5   6  10    1.61    2.29
  -5   6  10    1.99    2.50
  -6   5  10    4.20    2.48
 -10   5   6    2.13    2.14
 -10   5  -6   -0.31    2.12
  -5  -6 -10    1.65    1.55
   6 -10   5    1.72    2.12
 -10  -6   5    1.74    1.74
 -10  -6  -5    1.27    1.77
  10  -5   6    1.38    1.94
  10  -5  -6    0.45    2.04
   5 -10   6    2.30    2.07
   5 -10  -6    4.28    2.14
 -10  -5   6    2.07    1.75
 -10  -5  -6    4.36    2.00
  10  -6   5    3.52    2.12
  10  -6  -5    1.96    2.21
  -6  -5 -10    1.72    1.59
   6  -5  10    1.87    2.65
   5  -6  10    2.82    2.57
 -10  -6  -5    3.01    2.02
 -10  -5  -6   -0.24    1.88
 -10  -5   6    0.94    2.25
  -5  -6 -10   -1.19    2.27
   6  -5  10   -2.15    2.10
  10  -5   6    2.97    2.46
  -6  -5 -10    1.29    2.17
  10  -5   6   -0.14    2.43
   5  -6  10    1.26    1.96
  10  -6  -5    3.21    1.77
  10  -6   5   -0.26    2.39
  -6   5 -10    1.76    1.74
  -6  10   5    1.54    2.49
  -6  10  -5    2.33    2.30
  -5 -10  -6    2.71    2.21
  -5 -10   6    0.50    2.29
   6  10  -6    2.08    1.94
   6 -10   6    1.93    1.89
  -6  -6 -10    0.95    1.84
  -6  -6  10    3.41    2.18
  -6  10   6    4.82    2.60
 -10  -6  -6    1.66    2.27
  -6   6 -10    0.64    2.31
 -10  -6  -6   -0.10    1.82
  -6   6  10    2.29    2.48
 -10  -6   6   -0.08    1.66
 -10  -6  -6    0.84    1.87
  -6  10   6    1.25    2.41
  -6  10  -6    2.00    2.34
   6  -6  10    0.45    2.01
  10  -6   6   -0.82    2.56
  -7   0 -10    5.80    2.47
   0 -10   7   10.23    2.18
   0  10   7    9.91    2.69
 -10   0  -7   10.34    1.58
 -10   7   0   12.83    2.17
   0  -7  10    8.76    2.31
  10   7   0    4.74    2.11
   0  10  -7    8.90    1.46
  -7   0 -10    4.33    1.87
  -7   0  10    9.61    2.47
 -10   0   7    8.74    2.11
  10   7   0    8.13    2.30
 -10   0  -7    5.31    2.24
  -7  10   0   10.99    1.87
   0  -7 -10    4.49    2.40
   0  10   7   15.32    2.49
   0   7  10   10.09    2.47
   7  10   0    4.40    2.64
 -10   0   7    7.49    1.90
 -10   0  -7    7.43    2.08
   0  -7 -10    5.67    1.55
  -7   0 -10    4.35    1.55
  10  -7   0    8.41    2.35
   0  10   7    7.13    1.88
   0  10  -7    8.65    1.96
   0  -7  10    6.66    1.59
   0   7 -10    5.85    1.33
  10  -7   0    3.81    1.86
  -7   1 -10    1.32    1.63
   1  10  -7    4.43    1.45
  -1  -7  10    3.47    2.08
  -1 -10  -7    3.79    2.32
  -7   1 -10    1.79    2.22
 -10  -1  -7    3.69    1.48
  -1 -10   7    1.80    2.00
   1  -7  10    2.29    2.13
 -10   7   1    1.29    1.71
 -10   7  -1    4.50    2.06
   1 -10   7    2.90    1.97
  -7   1  10    4.82    1.68
  10   7   1    1.78    1.88
  -7  -1 -10   -0.67    2.22
  -7  -1 -10    2.55    1.93
 -10  -1   7    3.18    1.66
  -7  -1  10    5.58    2.23
  -7   1  10    3.82    2.23
   7  10  -1    2.63    2.52
  10   7  -1    1.43    2.10
  -7  10  -1    7.15    1.76
  -1  -7 -10    0.27    2.21
  -7  10   1    3.43    1.73
 -10  -1  -7    2.22    2.15
   1  -7 -10    1.18    2.11
   1  10   7    4.54    2.02
   1   7  10    2.43    2.10
   7  10   1    4.38    2.67
  -1   7  10    3.84    2.33
  -1  10   7    1.56    2.11
  10   7   1    0.23    2.01
  -7  -1 -10   -1.36    1.78
 -10   1  -7    0.35    1.86
  -1  10   7    3.94    2.58
  -7   1 -10    3.61    1.49
   1 -10   7    3.98    1.87
   1 -10  -7    4.77    1.93
 -10  -1   7    1.25    1.63
 -10  -1  -7    2.67    1.87
 -10  -7   1    2.21    1.96
 -10   1   7    2.62    1.82
 -10   1  -7    3.55    1.96
  -7  -1 -10    0.86    1.39
  -1 -10  -7    2.03    2.32
  -1 -10   7    2.40    2.32
  10  -7   1    5.19    2.17
  10  -7  -1    2.51    2.05
  -1  10   7    0.84    1.68
  -1  10  -7    2.67    1.87
   1  10   7    2.38    1.64
   1  -7  10    2.70    1.54
   1  10  -7    2.31    1.64
  -1   7 -10    2.00    1.33
   7  -1  10    2.13    2.39
  10  -7   1    2.10    1.80
  -7  10   1    4.39    2.55
   2  10  -7   14.26    1.95
  -2  -7  10   19.34    2.74
   7 -10   2   17.79    2.17
   2  -7  10   15.44    2.55
  -7   2  10   17.29    2.62
   2 -10   7   18.92    2.58
  -2 -10   7   20.79    2.61
 -10  -7  -2   15.87    1.94
  -7  -2 -10   21.40    2.85
   7  -2  10   21.82    3.11
 -10   7  -2   19.03    2.70
   7  10  -2   15.56    2.59
   2   7  10   22.02    2.78
   7  10   2   13.94    3.04
  -7   2  10   24.09    3.06
  -2   7 -10   23.38    2.45
 -10  -7  -2   14.18    2.10
  10   7  -2   16.92    2.58
   2  -7 -10   23.18    2.89
   7  10  -2   13.86    2.79
 -10  -2  -7   14.09    2.78
  -7  10   2   17.69    2.30
  -2   7  10   19.09    2.99
  -2  10   7   14.62    2.68
  -2  10   7   17.41    3.12
  -7  -2  10   18.78    2.64
 -10  -7   2   20.64    2.56
 -10  -2  -7   14.55    2.31
  10  -2   7   13.79    2.31
  10  -2  -7   17.30    2.65
 -10  -7  -2   17.00    2.51
  -7  -2 -10   15.48    1.92
 -10  -2   7   16.73    2.12
  -2 -10  -7   12.67    2.55
  -2 -10   7   15.07    2.76
 -10   2   7   17.46    2.35
 -10   2  -7   13.17    2.44
   2 -10   7   16.22    2.34
   2 -10  -7   18.72    2.40
  -2   7 -10   21.32    1.93
  -7   2 -10   20.43    2.07
   2  10   7   16.92    2.15
   2  10  -7   14.90    2.17
  -7  -2 -10   22.24    2.72
  10  -7   2   25.51    2.89
  10  -7  -2   22.67    2.67
   2  -7  10   21.26    2.21
 -10  -2  -7   15.01    2.11
 -10  -2   7   19.21    2.58
   7  -2  10   15.47    3.16
 -10  -2  -7   19.31    2.10
  10  -7   2   16.46    2.53
  -7  10   2   14.67    3.06
  -7  10  -2   16.70    3.18
  -7  -2 -10   21.77    2.74
  -7  -3 -10    5.33    2.24
   7 -10   3    6.00    1.88
   3  10  -7    7.16    1.82
 -10  -3  -7    8.29    1.83
  -3  -7  10    3.97    2.27
   3  -7  10    4.85    2.33
   3 -10   7    5.31    2.03
  -3   7  10    3.66    2.63
  -3 -10   7    5.89    2.19
  -7  -3 -10    4.88    2.30
   7  -3  10    3.54    2.46
 -10   7  -3    6.61    2.39
   7  10  -3    6.02    2.26
 -10  -3  -7    2.67    2.64
  -7   3  10    7.35    2.62
   7  10   3    8.79    2.91
   7  10  -3    8.74    2.63
  -7  10   3    5.95    2.05
 -10  -7  -3    4.71    1.85
   3  -7 -10    1.54    1.99
  -3   7  10    5.52    2.60
  10   7  -3    3.45    2.07
  -3  10   7    8.61    2.50
  -7   3  10    1.81    2.19
  -7  -3  10    5.66    2.10
  -3   7 -10    2.11    1.89
 -10  -7  -3    3.82    1.71
  -3  10   7    6.32    2.77
  -3 -10  -7    8.39    2.32
  -7  -3 -10    3.72    1.56
  -3  -7 -10    0.06    1.61
  10  -3   7    5.71    2.08
  10  -3  -7    4.78    2.33
  -3 -10   7    5.38    2.44
 -10  -7   3    4.20    1.99
 -10  -7  -3    3.84    1.93
   3 -10   7    5.96    2.06
   3 -10  -7    9.98    2.21
 -10   3   7    7.90    2.18
 -10   3  -7    5.99    2.19
 -10  -3  -7    5.94    1.98
 -10  -3   7    5.64    1.79
  -7   3 -10    1.28    1.93
  10  -7   3    3.47    2.32
  10  -7  -3    6.49    2.14
   3  -7  10    5.10    1.93
  -7  -3 -10    4.71    2.22
  -3   7 -10    4.19    1.58
 -10  -3  -7    7.53    1.99
 -10  -3   7    6.80    2.32
   3  10   7    8.94    1.83
   3  10  -7    9.33    1.89
   7  -3  10    3.33    2.63
  10  -7   3    0.86    2.11
  -7  10   3    4.25    2.59
  -7  10  -3    6.12    2.70
   7  -4  10    7.12    2.60
   7  10  -4    8.18    2.42
   7 -10   4    4.71    1.89
 -10   7  -4    7.65    2.52
   4  10  -7    8.46    1.95
  10   7  -4    6.21    2.15
  -4   7  10    6.79    2.77
   4 -10   7    5.68    2.09
  -4  -7  10    8.44    2.43
  -7  -4 -10    4.05    2.20
  -4 -10   7    5.83    2.30
  -4  10   7    7.51    2.78
   4  -7 -10    3.99    2.01
  -7   4  10    3.99    2.54
 -10  -4  -7    5.55    2.68
 -10  -7  -4    6.29    2.01
  -4   7  10    6.38    2.67
  -4   7 -10    4.07    2.25
  -7  -4  10    6.22    2.05
   7  10   4   12.68    3.13
   7  10  -4   12.66    2.86
  -7  10   4    6.77    2.12
  -4  10   7    7.69    2.61
 -10  -7  -4    3.20    1.79
 -10   4   7   11.41    2.23
 -10   4  -7    8.68    2.36
  10  -4   7    6.36    2.09
  10  -4  -7    8.58    2.33
 -10  -7   4    5.60    2.11
 -10  -7  -4    5.06    2.12
   4 -10   7   11.35    2.24
   4 -10  -7   10.96    2.28
 -10  -4  -7    8.22    2.12
 -10  -4   7    5.61    1.81
  -7  -4 -10    4.83    2.38
   4  -7  10    6.36    2.08
  10  -7  -4    5.19    2.13
 -10  -4  -7   10.63    2.15
 -10  -4   7    8.54    2.40
  10  -4   7    5.00    2.90
  10  -7   4    5.37    2.52
  -4 -10  -7    9.04    2.35
  -4 -10   7   10.72    2.53
   7  -4  10    9.44    3.04
  -7  10   4    4.11    2.64
  -7  10  -4    4.98    2.70
  10  -7   4    2.76    2.51
   7  10  -5   -0.31    2.20
   7 -10   5   -0.18    1.92
   5  10  -7    0.17    1.90
   5 -10   7    0.19    1.94
  -7  -5 -10    1.45    2.10
  -5  -7  10    1.60    2.29
   7  10  -5    0.39    2.35
 -10  -7  -5    0.10    1.82
  -7  -5  10    0.81    1.87
  -5   7  10    1.36    2.63
  -5   7  10    1.14    2.69
  -7   5  10    2.06    2.52
 -10  -7  -5    1.40    1.78
  -5  10   7    1.09    2.46
 -10  -7   5    0.42    1.86
 -10  -7  -5    0.68    1.89
 -10   7   5   -0.67    2.49
  10  -5   7    2.48    2.00
  10  -5  -7    0.54    2.16
   5 -10   7    0.80    1.99
   5 -10  -7    2.45    2.03
 -10   7  -5   -0.95    2.61
 -10  -5  -7    3.35    1.93
 -10  -5   7    3.28    1.76
  10  -7  -5    0.47    1.82
  -5  -7 -10   -1.21    2.40
 -10  -5  -7    2.55    2.05
 -10  -5   7    0.47    2.20
  -5 -10  -7    0.82    2.36
  10  -5   7   -1.18    2.66
  10  -7   5    1.52    2.43
   5  -7  10    0.09    2.08
  -7  10   5    0.14    2.55
  -7  10  -5    0.47    2.48
  -5 -10  -7    0.83    2.15
  -5 -10   7    4.51    2.41
   7  10  -6    3.37    2.33
   6  10  -7    3.44    2.16
   7 -10   6    6.40    2.23
  -6  10   7    7.99    2.86
 -10  -7  -6    4.16    2.09
 -10   6   7    4.89    2.77
 -10   6  -7    2.05    2.66
 -10  -7   6    9.46    2.13
 -10  -7  -6    3.33    2.05
 -10  -6   7    5.13    1.95
 -10  -6  -7    4.77    2.13
 -10   7   6    4.07    2.82
 -10   7  -6    1.17    2.84
   7  -6  10    3.37    2.38
   6  -7  10    4.32    2.36
  -7  10   6    4.54    2.74
  -7  10  -6    5.64    2.72
 -10   7   7    2.13    2.89
 -10   7  -7    2.03    2.94
  -7 -10   7    1.66    2.11
  -7 -10  -7    3.20    2.36
 -10  -7   7    4.34    2.04
 -10  -7  -7    7.03    2.36
  -7  10   7    5.94    2.91
  -7  10  -7    5.41    2.85
  -8   0 -10   15.69    2.25
 -10   0  -8   11.56    1.70
   0  -8  10   10.40    2.46
   0 -10   8   12.19    2.42
 -10   0  -8    7.60    2.34
  -8   0  10   15.10    2.75
  10   8   0   11.20    2.75
   0  10   8    9.84    2.59
   0   8  10   11.20    2.74
   8  10   0   11.57    2.99
  -8  10   0    7.09    1.89
 -10   0   8   12.38    2.24
   0 -10   8   12.35    2.17
   0 -10  -8   12.66    2.24
 -10   0   8   12.69    2.13
 -10   0  -8   11.06    2.26
   8 -10   0    9.99    2.00
  10  -8   0   15.93    2.58
   0  10   8   11.25    2.11
   0  10  -8    8.67    2.06
  10  -8   0    9.98    2.07
  -1  -8  10    2.93    2.35
  -8  -1 -10   -0.46    2.12
  -8   1 -10   -0.42    1.68
 -10   8  -1    0.82    2.06
  -1 -10   8    0.40    2.06
 -10  -1  -8    1.38    1.60
   8  10  -1    1.19    2.17
  -8   1  10   -0.30    2.10
  -1  10   8    0.87    2.59
   1  -8  10    0.21    2.24
   1 -10   8    0.81    2.08
 -10   1   8    0.84    2.03
  -8  10   1   -0.07    1.74
  -8  -1  10    0.60    2.18
  -8   1  10    3.29    2.43
  -8  10  -1    1.89    1.61
 -10  -1  -8   -0.14    2.04
  10   8  -1    1.12    2.37
   8  10   1    1.76    2.69
   1  10   8    2.58    2.17
   1   8  10    1.20    2.34
  -1   8  10    1.01    2.32
  -1  10   8    0.35    2.26
   8  10  -1   -0.44    2.71
 -10   1  -8   -0.86    1.85
   1 -10   8   -2.18    2.00
   1 -10  -8    0.65    1.96
 -10  -8   1    0.80    2.09
 -10  -1   8    0.33    1.68
 -10  -1  -8   -0.69    2.00
 -10   8   1   -1.45    2.57
 -10   1   8   -0.72    1.88
 -10   1  -8    1.23    2.06
  -8  10   1    1.21    2.63
   8 -10  -1    1.42    1.61
  10  -8   1    4.87    2.28
  10  -8  -1    3.58    2.17
  -1  10   8   -1.86    1.90
  -1  10  -8   -0.98    1.87
   1  10   8    0.68    1.67
   1  10  -8   -0.99    1.67
   1  -8  10    2.63    1.71
  10  -8   1    0.97    1.87
  -8   2  10   78.96    4.75
  -2  10   8   74.94    5.45
   2 -10   8   68.24    4.44
 -10   2   8   89.62    4.80
 -10   8  -2   82.11    4.56
  -2  -8  10   71.45    4.59
  -2 -10   8   73.92    4.52
  -8  10  -2   76.56    4.25
   2   8  10   68.06    4.64
 -10  -8  -2   59.11    3.83
  -2   8  10   70.32    4.85
  -2  10   8   83.36    5.00
   8  10   2   78.15    5.53
 -10  -2  -8   57.17    4.85
  10   8  -2   68.09    4.69
  -8  -2  10   80.36    4.82
  -8   2  10   88.38    5.23
   8  10  -2   68.59    5.15
   2  -8 -10   78.81    4.83
 -10   2   8   76.62    4.15
 -10   2  -8   72.73    4.49
 -10   8   2   64.15    5.03
 -10   8  -2   66.44    5.27
  -2 -10  -8   82.75    4.69
  -2 -10   8   76.90    4.79
 -10  -2   8   80.19    3.92
 -10  -2  -8   79.84    4.36
  -8  10   2   76.66    5.41
  -8  10  -2   65.89    5.32
  10  -2  -8   81.16    4.65
  10  -2   8   71.43    4.09
 -10  -8   2   69.76    4.44
 -10  -8  -2   64.75    4.41
   2 -10   8   70.61    4.08
   2 -10  -8   78.48    4.19
  -2  10   8   58.42    3.97
  -2  10  -8   69.91    4.19
  10   8  -2   67.83    4.66
 -10  -2  -8   77.53    3.99
 -10  -2   8   86.08    4.49
   2  10   8   66.49    3.90
   2  10  -8   70.70    3.98
  -8  -2 -10   87.73    4.73
  10  -8   2   73.07    4.69
  10  -8  -2   89.42    4.62
   8  -2  10   79.55    5.43
   2  -8  10   88.24    4.17
  -2 -10  -8   60.20    4.18
  10  -8   2   66.07    4.36
   2  10  -8   76.38    3.79
   8  10  -2   68.51    4.72
 -10  -2  -8   80.64    4.15
   3  10  -8    2.10    1.64
 -10  -3  -8    2.93    1.81
 -10   8  -3    3.56    2.32
   3 -10   8    1.21    2.11
   8 -10   3    0.67    1.84
  -8  10  -3    4.07    2.26
   8  10  -3    0.60    2.27
  -8  -3  10    1.97    2.11
 -10   3   8    1.63    2.30
 -10  -8  -3    1.76    1.75
   8  10  -3    3.53    2.58
   3  -8 -10    3.77    2.15
  -3   8  10    1.61    2.51
  -3  10   8    4.58    2.59
 -10  -3  -8   -1.72    2.67
  10   8  -3   -0.23    2.28
  -8   3  10    2.76    2.37
   8  10   3    5.00    2.97
 -10   3   8    3.02    2.03
 -10   3  -8    2.92    2.15
  10  -3   8    1.60    1.91
  10  -3  -8    2.96    2.27
 -10  -8   3    1.64    2.02
 -10  -8  -3    4.27    2.10
   3 -10   8    3.66    2.01
   3 -10  -8    4.53    2.15
  -3 -10  -8    2.49    2.17
 -10   8   3    2.31    2.57
 -10   8  -3    2.59    2.75
  -3 -10   8    3.04    2.41
 -10  -3   8    0.83    1.65
 -10  -3  -8    3.43    1.98
  -3  -8 -10    2.51    2.26
  10  -8  -3    5.85    2.25
   3  -8  10    3.76    1.99
 -10  -3  -8    0.65    1.86
 -10  -3   8    5.17    2.24
  -3 -10  -8    3.17    2.03
  -8  10   3    3.29    2.56
  -8  10  -3    1.60    2.64
  10  -8   3    2.56    2.26
   8  10  -4    8.00    2.53
   4  10  -8    8.02    1.97
   8 -10   4    7.56    2.22
 -10   4   8   15.50    2.82
   8  10  -4    6.84    2.72
 -10  -8  -4    9.93    2.12
  -4  10   8    8.12    2.76
  -8  -4  10    6.28    2.26
  -8   4  10    9.72    2.73
  -8 -10   4    1.42    2.19
  -4 -10  -8   10.13    2.53
 -10   4   8    9.36    2.33
 -10   4  -8   12.66    2.63
  10  -4  -8    8.43    2.55
 -10  -8   4    7.30    2.25
   4 -10  -8   11.45    2.28
 -10   8   4    7.37    2.86
 -10  -4  -8    7.61    2.25
 -10  -4   8    6.64    1.82
  -4  -8 -10    8.80    2.50
   4  -8  10   10.55    2.33
  10  -8  -4    8.92    2.22
 -10  -4  -8    9.57    2.24
  -4 -10  -8    5.48    2.38
  -8  10   4    8.93    2.95
  10  -8   4    6.61    2.60
   5  10  -8    0.52    2.02
   8 -10   5    1.43    2.07
 -10   5   8    4.16    2.66
 -10  -8  -5    2.27    1.96
   8  10  -5    1.73    2.63
  -5  10   8    2.19    2.69
  -8   5  10    0.51    2.62
   5 -10  -8   -0.16    2.25
  10  -5  -8    1.73    2.30
 -10  -5  -8    3.60    2.16
 -10  -5   8    3.53    1.88
   5  -8  10    5.16    2.47
 -10  -5  -8    3.88    2.16
  -5 -10  -8    4.00    2.38
   8  10  -6   32.01    3.82
  -6 -10  -8   20.28    3.03
 -10  -6  -8   29.48    3.12
 -10   6  -8   20.76    3.68
   6  10  -8   27.78    3.07
  -9   0  10   17.32    3.00
  10   9   0   11.44    2.93
   9  10   0    7.70    3.11
   0  10   9   10.10    2.81
   0   9  10   15.23    3.03
 -10   0  -9   12.38    2.51
   0  10  -9   11.01    2.17
  -9  -1 -10    0.43    1.85
  -9   1  10    2.62    2.28
  10   9   1    1.93    2.74
  -9  -1  10    8.39    2.59
   9  10   1    4.22    2.90
  10   9  -1    2.25    2.69
   1  10   9    5.93    2.57
   1   9  10    1.87    2.51
   9  10  -1    2.75    2.76
  -1   9  10    1.57    2.50
  -1  10   9    4.60    2.64
 -10  -1  -9    1.10    2.15
 -10   1  -9    5.23    2.26
   9 -10   1    4.36    2.08
  -1  10  -9    0.32    1.87
  10  -9  -1    6.96    2.40
   1  10  -9    2.46    1.79
  10  -9   1    0.09    1.95
 -10  -2  -9    0.76    1.89
   9  10   2    2.52    2.83
  -9  -2  10    1.70    2.40
  10   9  -2    1.47    2.44
  -2   9  10   -0.13    2.52
  -2  10   9   -1.03    2.59
   9  10  -2   -1.47    2.88
  -9   2  10    2.30    2.36
 -10   2   9    1.59    2.35
 -10  -2  -9    2.24    2.21
 -10   2  -9    0.81    2.19
   9 -10   2    2.01    2.18
  -2  10  -9   -0.92    2.00
  10  -9  -2    4.20    2.22
   2  -9  10    2.28    1.96
  10  -9   2   -2.06    2.34
   3   9 -10    1.64    1.64
 -10   3   9    1.57    2.39
  -9  -3  10    1.98    2.28
   9  10  -3   -1.87    2.98
  -3  10   9   -0.53    2.69
  -9   3  10    2.58    2.59
 -10  -3  -9    0.18    2.11
 -10   3  -9    2.90    2.23
   9 -10   3    3.24    2.28
  -3  10  -9    0.27    2.00
  10  -9  -3    1.28    2.13
   3  -9  10    1.87    2.13
  10  -9   3    2.68    2.31
 -10   4   9    7.00    2.71
 -10  -4   9    6.45    2.54
   9  10  -4    1.51    2.75
  -9   4  10    4.67    2.64
  -9  -4  10    4.97    2.55
   4   9 -10   10.40    2.18
   4  -9  10   11.81    2.61
  10  -9  -4   10.65    2.44
  10  -9   4    9.31    2.76
   5  10  -9    5.50    2.30
   5   9 -10    3.17    2.16
  10  10   0   36.61    4.29
  10  10   1   -0.32    2.93
  10  10  -1   -0.63    2.81
  10 -10   3   -0.43    2.43
   0   0  11   62.11    3.90
   0  11   0   58.82    3.95
 -11   0   0   68.33    4.50
   0   0 -11   56.50    3.73
   0   0  11   68.16    3.67
   0 -11   0   60.89    2.99
   0  11   0   55.62    3.84
   0 -11   0   58.42    2.95
  11   0   0   59.18    3.34
   0   0  11   64.70    3.47
 -11   0   0   61.74    3.83
  11   0   1    0.55    1.23
  11   1   0   -0.15    1.40
  11  -1   0    0.90    1.17
  11   0  -1   -0.07    1.28
   0 -11  -1    0.47    1.16
   1 -11   0    1.77    0.99
  -1 -11   0    1.72    1.06
   0 -11  -1    1.04    0.99
   0 -11   1    1.23    1.24
   1   0  11    2.09    1.73
   0   1  11    1.55    1.58
   0  -1  11    1.69    1.60
  -1   0  11    0.07    1.54
  -1 -11   0    0.56    1.15
   1 -11   0   -0.14    1.13
 -11   0  -1   -0.64    2.00
 -11   1   0    0.23    2.00
   0   1 -11    0.62    1.58
   1  11   0    1.37    1.54
   0  -1 -11   -0.78    1.60
   0  11   1   -0.39    1.78
   1   0 -11    1.11    1.62
   1  11   0    1.07    1.85
   1   0  11    1.47    1.68
  -1  11   0    2.91    1.73
   0  -1  11    2.76    1.63
   0   1  11   -0.62    1.67
   0  11   1    0.61    1.62
  -1  11   0    0.95    0.80
  -1   0  11    1.91    1.69
   0  11  -1    0.52    1.78
  -1   0 -11   -0.09    1.58
   0 -11   1    0.11    2.06
  11   0   1    0.09    1.70
 -11   0   1    0.46    1.52
 -11  -1   0    0.70    1.65
 -11   0   1    0.84    1.60
   0  -1  11    0.91    1.51
 -11   0  -1    1.19    1.77
   0  11   1   -0.60    1.74
   1  11   0   -1.22    1.79
 -11  -1   0    0.74    1.52
   0   1  11    0.74    1.38
   1   0  11    0.23    1.42
  -1   0  11    1.41    1.31
 -11  -1   0    0.30    1.72
   1  11   1   36.27    2.87
  -1  -1 -11   33.81    2.99
 -11  -1  -1   36.31    3.63
 -11   1   1   35.79    3.33
 -11   1  -1   32.44    3.34
   1   1  11   37.01    2.76
   1  -1  11   38.91    2.92
  -1   1  11   38.14    2.63
  -1  -1  11   37.51    2.81
  -1   1 -11   33.64    2.91
   1 -11  -1   34.25    1.99
   1 -11   1   31.28    2.19
   1   1 -11   31.08    2.76
  -1 -11   1   31.93    2.31
  -1 -11  -1   32.42    2.08
   1  11  -1   34.27    2.72
   1   1  11   33.95    2.96
  -1  -1  11   35.91    2.97
  -1   1  11   36.35    3.10
  -1  11   1   33.90    2.02
   1  11   1   33.79    3.07
  -1  11   1   34.17    2.93
  -1  11  -1   39.97    3.10
 -11  -1   1   36.21    2.74
 -11   1   1   35.40    2.70
  -1 -11   1   38.42    3.25
  11  -1   1   36.37    3.09
  11   1  -1   31.17    2.51
   1 -11  -1   29.03    2.19
   1  11   1   26.75    2.71
  11   1   1   33.42    2.56
  11  -1   1   28.97    2.29
  11  -1  -1   32.17    2.41
   1   1  11   32.12    2.54
 -11  -1  -1   37.02    2.80
  -1   1  11   30.34    2.22
 -11  -1   1   36.05    2.63
 -11  -1   1   38.52    3.00
   1  -1  11   35.18    2.84
 -11  -1  -1   36.90    3.17
  -1  -1  11   32.65    2.57
  -1 -11  -1   34.42    2.37
 -11   0  -2   10.52    2.61
  11   2   0   11.24    1.86
 -11   2   0   11.21    2.46
   0 -11  -2   10.31    1.69
   0   2  11   11.98    1.74
  11   0  -2   11.75    1.76
   2   0  11   12.91    2.08
   2 -11   0   12.72    1.46
  -2   0  11   14.57    2.05
   0  -2  11   10.66    2.10
   0 -11  -2   10.12    1.24
   0 -11   2   11.19    1.71
  11   0   2   11.24    1.82
   0  11   2   12.54    2.27
   0  11   2    8.89    2.12
  -2   0 -11   10.25    2.17
   0  11   2   12.91    1.43
  -2  11   0   11.86    1.39
   0  -2  11   11.52    1.95
   0   2  11   13.81    2.42
  -2  11   0   13.04    2.14
  -2   0  11   12.86    2.19
 -11   0  -2   11.82    1.25
  -2   0 -11   12.08    2.15
   2  11   0   11.53    1.78
   0   2 -11    8.53    1.88
  11   0  -2    9.86    2.18
  11   0   2    9.60    2.09
 -11   0   2   10.54    1.95
 -11   0  -2   14.99    2.12
 -11  -2   0    8.73    1.97
   0 -11  -2   12.55    2.49
   0 -11   2    8.97    2.46
 -11   0   2   13.72    2.03
 -11  -2   0   12.39    1.99
   2 -11   0   12.19    1.29
   0  11   2    9.36    2.09
   0  11  -2    8.61    2.06
   2  11   0    8.95    1.97
  -2   0  11   12.66    1.68
  11  -2   0   11.22    1.63
   2   0  11   12.58    2.00
 -11  -2   0   10.77    2.32
  11   2   1    1.23    1.43
 -11   2   1    0.84    1.91
  11  -2   1   -0.42    1.19
   1 -11  -2   -0.07    1.32
   1   2  11   -0.48    1.58
   2   1  11    1.55    1.63
   2 -11  -1    0.57    1.04
  11   2  -1    0.81    1.37
  -1 -11  -2    1.22    1.24
 -11   1  -2    3.58    2.30
 -11   2  -1    1.20    1.97
  11   1  -2    1.02    1.41
  11  -2  -1    1.20    1.24
  -2 -11  -1    2.56    1.25
  11  -1  -2    0.82    1.27
  -1   2  11    0.42    1.43
   2  -1  11    1.97    1.73
   1  -2  11   -0.09    1.64
   2 -11  -1    1.32    1.00
  -1 -11   2    1.11    1.34
  -2   1  11    1.02    1.44
  -1 -11  -2    1.02    1.00
   2 -11   1    1.78    1.28
   1 -11  -2    0.50    0.88
  -1  -2  11    2.25    1.61
  -2  -1  11    1.64    1.59
  11   1   2    1.01    1.37
  11  -1   2    0.61    1.23
  -2 -11   1    0.41    1.25
   1 -11   2    1.60    1.33
 -11  -1  -2    0.98    2.05
   1   2 -11    1.89    1.57
   1  11   2   -0.23    1.88
  -1  -2 -11   -0.62    1.74
  -2   1 -11    1.86    1.87
  -1  11   2   -0.68    1.93
  -2  -1 -11   -0.32    1.71
  -1  11   2    1.94    1.67
 -11   1  -2    0.80    0.85
  -1  -2  11    0.09    1.60
  -2  11  -1    0.97    1.56
  -1   2  11    0.44    1.81
  -2  -1  11    1.29    1.69
  -2   1  11    0.98    1.86
  -1  11   2    0.63    1.19
  -2  11   1    0.66    1.57
  -2  11   1    2.11    1.20
  -2  11  -1    0.92    0.88
  -2   1 -11    0.29    1.66
  -1   2 -11    0.18    1.63
   2  11   1    0.77    1.46
  -2  -1 -11    0.71    1.66
   1  11   2    1.11    1.68
   2  11  -1    1.74    1.31
 -11  -1   2   -0.62    1.54
 -11  -1  -2   -0.64    1.54
  -2 -11   1    1.33    2.04
  11  -1   2   -0.81    1.91
  11  -1  -2    0.48    1.94
   2 -11   1    0.08    1.75
  11  -2   1    0.74    1.81
 -11   1   2    0.54    1.52
 -11   1  -2   -0.16    1.61
 -11   2   1    0.08    1.63
  -1 -11  -2   -1.70    2.14
  -1 -11   2   -1.01    2.19
 -11  -2   1    0.16    1.59
 -11  -1  -2    0.80    1.87
   1  -2  11    2.31    1.74
 -11  -2  -1   -1.00    1.65
 -11  -2   1    0.43    1.52
   1  11   2   -1.31    1.83
   1  11  -2   -0.74    1.75
   2  11   1    0.27    1.61
 -11  -1  -2    0.50    1.57
  -2   1  11    1.00    1.12
 -11  -2   1   -0.10    1.75
 -11  -1   2    0.17    1.62
 -11  -2  -1    0.23    1.90
   2  -1  11    0.54    1.65
   2  11  -2   65.03    3.34
  -2  -2 -11   65.92    4.23
  -2   2 -11   68.51    4.13
   2  11   2   66.87    3.90
 -11  -2  -2   61.51    4.68
 -11   2   2   69.72    4.20
   2   2  11   70.65    3.77
 -11   2  -2   79.51    4.83
   2  -2  11   65.45    4.01
   2 -11  -2   59.22    2.78
  -2   2  11   72.19    3.44
   2 -11   2   64.84    3.44
  -2  -2  11   65.47    3.84
  -2 -11   2   70.21    3.51
  -2  -2  11   69.02    4.02
  -2   2  11   64.21    4.22
  -2  11   2   71.19    3.57
  -2   2 -11   77.08    4.32
  -2  -2 -11   65.60    4.17
  -2  11   2   68.78    4.13
 -11   2  -2   60.31    2.71
   2  11  -2   77.19    4.54
 -11  -2  -2   59.16    3.75
 -11  -2   2   68.97    3.90
   2 -11   2   68.60    3.90
   2 -11  -2   75.65    3.99
 -11   2   2   70.96    3.87
 -11   2  -2   68.64    3.93
  -2 -11  -2   73.00    4.37
  -2 -11   2   72.33    4.43
  11  -2   2   70.98    4.14
  11  -2  -2   70.59    4.22
   2  11   2   55.76    3.78
   2  11  -2   55.56    3.76
  11  -2  -2   61.95    3.41
  -2 -11  -2   62.50    3.57
   2 -11  -2   61.92    3.47
  11   2  -2   67.67    3.82
 -11  -2  -2   66.08    3.90
 -11  -2   2   69.60    3.58
 -11  -2   2   63.07    3.97
 -11  -2  -2   74.18    4.67
   2  -2  11   67.98    4.08
  11   2   2   61.49    3.78
  11  -2   2   62.57    3.35
   0   3  11    1.57    1.29
  11   3   0   -0.43    1.55
   0 -11  -3   -0.41    1.44
   3   0  11    0.28    1.71
  11  -3   0   -0.28    1.12
 -11   0  -3    2.17    2.28
 -11   3   0    2.54    2.01
   0 -11   3    1.66    1.50
  11   0  -3    1.67    1.37
   3 -11   0    0.96    1.13
   0  -3  11   -0.28    1.74
  -3   0 -11   -0.22    1.42
  -3   0  11   -0.40    1.72
   0 -11  -3    0.14    0.83
  -3   0 -11    0.76    1.83
   0  11   3   -0.86    1.96
 -11   0  -3    0.93    1.17
   0  11   3    1.36    1.26
  -3  11   0    1.55    1.60
   3  11   0    0.48    1.93
   0  11   3    0.23    1.81
  -3   0  11   -0.87    1.93
  -3   0 -11    2.19    1.72
   0   3 -11    1.19    1.54
   0  -3 -11   -0.60    1.97
  11   0  -3    0.85    1.76
  11   0   3    1.64    1.74
 -11   0   3    1.77    1.66
 -11   0  -3   -0.08    1.58
   0 -11  -3    0.62    2.10
   0 -11   3    1.37    2.17
 -11  -3   0   -0.08    1.71
 -11   0   3    2.29    1.51
  -3   0  11    2.17    1.19
   0  11   3    0.68    1.63
   0  11  -3   -0.10    1.63
   0  -3 -11    0.46    0.94
   3  11   0    0.70    1.64
   3   0  11    3.31    1.80
 -11  -3   0    2.06    1.96
   3  11  -1   19.31    1.87
  -1  -3 -11   22.54    2.74
 -11  -1  -3   19.83    3.17
  -3   1 -11   19.03    2.49
   1   3 -11   21.00    2.33
  -1   3 -11   20.16    2.42
 -11   3  -1   20.74    2.90
   1   3  11   24.61    2.08
   3   1  11   21.24    2.51
  -1   3  11   24.76    1.90
 -11   3   1   20.62    2.62
   3  -1  11   23.23    2.65
 -11   1  -3   25.39    3.27
   3 -11  -1   20.53    1.63
  -3  -1 -11   20.51    2.65
   3 -11   1   22.62    1.93
   1 -11  -3   20.82    1.31
   1  -3  11   20.35    2.53
   1  11   3   22.00    2.69
  -1  11   3   24.48    2.95
  -3   1  11   26.20    2.19
  -1  -3  11   21.05    2.41
   1 -11   3   22.14    2.11
  -3  -1  11   22.62    2.33
  -1 -11   3   24.53    2.17
  -1 -11  -3   21.17    1.52
  -3  -1 -11   20.88    2.17
  -1  -3  11   20.23    2.34
  -1  11   3   23.45    2.19
   3  11   1   20.29    2.84
  -3  -1  11   24.91    2.64
  -3   1 -11   24.10    2.70
  -3  -1 -11   21.21    2.61
   1  11   3   19.60    2.69
  -1  11   3   20.60    2.60
  -3  11   1   22.63    2.16
 -11   1  -3   18.70    1.81
  -3  11   1   22.04    2.43
 -11  -1  -3   22.70    1.99
   3  11  -1   23.11    2.89
  -3   1  11   18.61    2.65
  -3  11  -1   29.58    2.79
  -1  -3 -11   17.48    2.61
   1  -3 -11   18.62    2.54
  11  -3   1   20.70    2.56
 -11  -3   1   22.15    2.44
   3 -11   1   20.64    2.52
 -11  -1   3   24.00    2.33
 -11  -1  -3   21.35    2.30
  -1 -11  -3   21.77    2.84
  -1 -11   3   26.63    2.98
 -11   1   3   23.27    2.38
 -11   1  -3   25.26    2.46
 -11   3   1   22.66    2.51
  11  -1   3   22.83    2.55
  11  -1  -3   19.83    2.60
  -3 -11   1   26.77    2.96
   1  11   3   19.58    2.35
   1  11  -3   18.66    2.31
   1 -11  -3   20.34    2.24
   3  11   1   17.73    2.24
  11   1  -3   25.98    2.32
  11  -3   1   21.48    1.86
 -11  -3  -1   21.88    2.51
 -11  -3   1   27.03    2.46
  -1  -3 -11   18.60    1.81
  -1 -11  -3   17.87    2.19
  -3 -11  -1   22.14    2.05
 -11  -1  -3   26.93    2.61
   3 -11  -1   18.56    1.71
  -3   1  11   20.30    1.65
  11   3  -1   19.62    2.30
 -11  -3  -1   22.94    2.94
 -11  -1   3   19.96    2.37
   3  -1  11   19.63    2.53
 -11  -1  -3   26.91    3.06
 -11   1   3   21.24    2.09
 -11  -3   1   16.99    2.67
  11  -3  -1   20.01    1.89
  11   3   1   21.17    2.28
   3 -11  -2   -0.19    1.23
 -11   3   2    0.92    1.82
   2 -11  -3    1.11    0.69
   3 -11  -2    0.35    0.89
  -2 -11  -3   -0.33    1.49
  -3  -2  11    0.78    1.77
  11   3  -2    0.27    1.49
  -3 -11  -2    0.92    1.42
  11   2  -3    0.77    1.52
  -2   3  11   -0.05    1.20
  11  -3  -2    0.37    1.22
   3  -2  11    2.07    1.98
 -11   2  -3    1.22    2.20
 -11   3  -2    0.49    2.17
   2  11   3    0.74    1.71
   2  -3  11    1.26    1.81
   3 -11   2    0.19    1.36
  -3   2  11    0.33    1.32
  -3  -2 -11    1.81    1.43
   2 -11   3    2.05    1.49
  -2 -11   3   -0.14    1.52
 -11   2   3   -0.75    1.87
   3   2  11   -0.75    1.76
  11   3   2    0.09    1.57
  11  -3   2    0.58    1.23
  -2  -3  11   -0.93    1.79
   2 -11  -3   -0.17    1.43
   2  -3 -11   -0.22    1.82
   2  11  -3    0.95    1.24
  -3  11   2    1.20    1.50
  -2  -3 -11   -0.99    1.86
  -3  -2 -11    0.11    1.76
  -2   3 -11   -0.10    1.70
   2   3 -11   -0.38    1.53
  -3  11   2   -1.44    1.68
   2   3  11    0.75    1.76
 -11   2  -3    0.23    1.22
  -2  -3  11    1.90    1.59
   3  11  -2    0.36    1.92
 -11   3  -2    0.03    0.95
 -11  -2  -3    1.43    1.39
  -3  -2  11    0.97    1.80
  -2  11   3   -0.21    1.86
  -3   2  11   -0.24    1.88
   3  11   2   -1.62    2.20
  -2  11   3    0.64    1.45
  -3   2 -11    0.87    1.85
  -3  -2 -11   -0.11    1.76
  -2  -3 -11    0.51    1.85
   3 -11   2   -0.65    1.79
   3 -11  -2    0.72    1.81
   2 -11   3    1.78    1.72
   2 -11  -3    1.16    1.72
  11  -2   3    0.27    1.78
  11  -2  -3    1.34    1.91
  11  -3   2    0.74    1.89
  11  -3  -2   -1.95    2.01
  -2 -11  -3    1.39    2.06
 -11   2   3    1.00    1.76
 -11   2  -3    0.09    1.70
  -2 -11   3    1.22    2.03
 -11   3   2   -0.17    1.80
 -11   3  -2    1.17    1.84
 -11  -3  -2   -0.93    1.61
 -11  -3   2   -1.89    1.79
 -11  -2  -3   -1.08    1.67
 -11  -2   3   -0.55    1.71
 -11  -3  -2   -0.56    1.81
   3  -2  11    0.10    1.92
 -11  -2  -3    0.80    2.14
 -11  -3   2    0.36    1.59
   2  -3  11   -0.50    1.81
  -2  -3 -11   -1.00    1.32
 -11  -2  -3   -0.28    1.74
   2  11   3    1.35    1.67
   2  11  -3   -1.69    1.64
 -11  -2   3    0.84    1.37
   3  11   2    0.17    1.50
   3  11  -2    0.52    1.53
  -3  -2 -11    0.07    1.33
 -11  -2   3   -0.99    1.78
 -11  -3  -2    1.45    2.05
  -3 -11  -2   -0.20    2.00
  -3 -11   2    0.30    2.02
  -3  -3  11   12.18    2.15
  11   3  -3   15.39    2.17
 -11   3   3   18.90    2.42
   3  -3  11   17.19    2.43
 -11   3  -3   15.78    2.87
   3 -11   3   16.99    1.97
  -3  -3 -11   17.20    1.87
   3 -11  -3   16.38    2.14
  -3  -3 -11   12.93    2.51
  -3  -3 -11    8.16    2.26
   3  -3 -11   14.86    2.41
 -11   3  -3   16.12    1.78
  -3  11   3   18.15    2.19
   3  11  -3   16.04    2.63
  -3  -3  11   15.02    2.21
  -3  11   3   16.14    2.40
  -3   3 -11   17.49    2.50
   3 -11   3   15.96    2.34
   3 -11  -3   19.66    2.39
  11  -3   3   12.54    2.28
  11  -3  -3   15.62    2.46
 -11   3   3   14.23    2.25
 -11  -3  -3   16.00    2.25
 -11  -3   3   13.05    2.13
 -11   3  -3   17.81    2.43
 -11  -3  -3   16.89    2.43
  -3 -11  -3   15.17    2.08
   3  -3  11   18.75    2.66
 -11  -3   3   13.33    1.92
  -3  -3 -11   12.35    1.95
   3  11   3   14.86    2.07
   3  11  -3   14.61    2.12
  -3 -11  -3   16.99    2.62
  -3 -11   3   14.25    2.58
 -11  -3  -3   14.57    2.77
  -4   0 -11   33.10    3.25
   4   0  11   43.32    3.37
   4 -11   0   30.92    2.18
   0   4 -11   34.23    2.81
 -11   0  -4   34.40    3.73
 -11   4   0   40.78    3.26
   0 -11  -4   30.46    1.52
   0  -4  11   36.48    3.07
  -4   0  11   41.42    2.77
   0 -11   4   35.79    2.68
   0  11   4   34.40    3.26
  -4   0 -11   35.38    2.87
   0  11   4   36.90    2.63
   0   4  11   28.19    3.02
   0  -4 -11   27.23    3.15
  -4   0  11   36.01    3.32
   0  11   4   35.28    3.43
  -4   0 -11   32.04    3.17
 -11   0  -4   29.72    2.65
   4  11   0   34.62    3.45
  -4  11   0   41.97    3.01
   0 -11  -4   37.54    3.40
   0 -11   4   35.72    3.33
 -11   0   4   40.88    2.85
 -11   0  -4   35.26    2.83
   0 -11  -4   31.79    2.89
   0  11   4   29.13    2.85
   0  11  -4   30.24    2.82
  11   4   0   30.18    2.78
   4  11   0   33.49    2.83
  11  -4   0   30.60    3.17
 -11  -4   0   35.75    2.89
   0  -4 -11   32.14    2.24
 -11  -4   0   27.84    3.17
   4   0  11   32.31    3.07
 -11   0   4   35.17    2.61
  11  -4   0   31.18    2.16
  11  -4   1   -0.10    1.13
  -1 -11  -4    0.48    1.66
  11   4  -1   -1.33    1.70
   4 -11  -1    0.13    1.00
   4  -1  11    2.57    1.92
  11  -4  -1    0.94    1.14
  -4  -1  11    0.21    1.61
 -11   4   1   -0.09    1.88
  -4 -11  -1    2.03    1.35
  11   1  -4    1.84    1.59
   4 -11   1   -0.11    1.28
 -11   1  -4    0.44    2.36
 -11   4  -1    1.73    2.05
  -1 -11  -4    0.89    0.84
  -1 -11   4    1.33    1.59
   4   1  11    0.20    1.93
  -4  -1 -11    0.16    1.58
   1  -4  11    0.98    1.92
  -1   4 -11    0.45    1.67
  -4   1 -11   -0.71    1.62
  -1  -4  11    0.56    1.79
  -4   1  11   -0.70    1.56
   1 -11   4    1.30    1.53
   1 -11  -4   -1.50    1.67
  11   4   1    0.10    1.59
   4  11  -1   -1.62    2.05
  -1  11   4   -0.84    2.22
   4  11   1   -2.07    2.20
  -1  -4 -11    0.26    1.91
   1  -4 -11   -0.12    1.90
   1  11   4    0.38    2.01
  -1  11   4   -0.47    1.91
 -11  -1  -4   -0.40    1.60
  -1  -4  11    1.41    1.50
   1  11   4    0.69    1.37
   1   4  11   -1.13    1.87
 -11   1  -4    0.08    1.49
  -4  11  -1    1.36    1.67
  -4  11   1    0.54    1.63
  -1   4  11    0.83    1.90
  -1  11   4    0.54    1.56
  -4  -1  11   -0.65    1.84
  -4   1  11    0.47    1.92
  -4   1 -11   -0.12    1.92
  -4  -1 -11    1.57    1.85
   1  11   4    2.79    2.00
  -4  -1 -11    0.34    1.92
   1   4 -11   -0.08    1.54
 -11  -1   4   -1.07    1.62
 -11  -1  -4   -0.25    1.65
  11  -1   4    0.09    1.85
  11  -1  -4    0.10    1.96
  -1 -11  -4   -1.33    2.12
  -1 -11   4   -2.00    2.33
 -11   1   4   -0.86    1.70
 -11   1  -4   -1.48    1.76
  11  -4   1   -0.19    1.96
 -11  -4   1    0.70    1.68
 -11   4   1   -0.36    1.79
   4 -11   1   -0.08    1.85
   1  -4 -11    0.90    1.02
   1  11   4   -0.46    1.71
   1  11  -4   -0.09    1.68
 -11  -1  -4   -0.56    1.73
   4  11   1    0.17    1.49
 -11  -4   1    0.09    1.88
  11  -4  -1   -1.08    2.02
  11  -4   1   -1.92    2.15
 -11  -4  -1   -0.14    2.26
 -11  -4  -1   -0.54    1.77
 -11  -4   1   -0.48    1.67
 -11  -1   4    0.07    1.60
   4  -1  11    1.07    1.94
  -1  -4 -11   -0.40    1.32
  -4 -11   1    2.06    2.23
  -2  -4  11    6.77    2.12
  -2 -11  -4    6.82    1.91
  11   4  -2   12.17    2.08
   4  -2  11    8.92    2.20
 -11   4   2    7.97    2.05
  -4 -11  -2    9.75    1.73
  11   2  -4   10.18    1.92
  -4  -2  11    9.37    2.00
   4 -11   2    9.35    1.66
 -11   2  -4    7.95    2.72
 -11   4  -2   11.52    2.62
  -4  -2 -11   10.33    1.89
   2  -4  11   10.89    2.27
  -2 -11   4    8.64    1.88
  -4   2  11   11.37    1.67
   2 -11   4   10.51    1.91
  -4   2 -11    8.79    2.05
  11   4   2    6.57    1.89
   2 -11  -4    7.97    2.05
 -11  -2  -4    7.42    1.79
  -2  11   4    8.81    2.55
   2   4 -11   10.57    1.83
  -2   4 -11    9.23    2.16
  -2  -4 -11    9.91    2.35
  -4  11   2    5.42    1.94
 -11   2  -4    9.91    1.90
  -2  -4 -11    7.62    2.29
   2  -4 -11    7.27    2.19
   2  11   4    8.63    2.41
  -2  11   4    8.87    2.28
   2   4  11    7.32    2.17
  -2  -4  11    8.88    1.86
   4  11   2   12.37    2.64
  -2   4  11    9.71    2.43
  -4  -2  11    8.93    2.12
   4  11  -2    9.99    2.44
  -2  11   4   10.81    2.03
  -4   2  11    9.04    2.36
  -4   2 -11    9.38    2.35
  -4  -2 -11    7.35    2.15
  -4  -2 -11    8.37    2.29
   2 -11   4   10.32    2.13
   2 -11  -4    7.52    1.97
  11  -2   4   10.75    2.24
  11  -2  -4    7.27    2.41
  11  -4   2    7.54    2.10
  11  -4  -2   10.01    2.24
 -11   2   4   11.15    2.17
 -11   2  -4    7.33    2.13
  -2 -11  -4   10.21    2.41
 -11  -4   2   11.89    2.08
 -11  -4  -2   10.39    2.03
  -2 -11   4    7.18    2.33
 -11   4   2    7.94    2.05
 -11   4  -2    9.06    2.14
   4 -11   2    7.93    2.11
   4 -11  -2   11.37    2.22
 -11  -2  -4    9.26    1.95
 -11  -2   4    8.34    1.90
 -11  -2  -4    8.66    2.59
 -11  -2  -4    9.87    2.13
   2  11   4    9.69    1.93
   2  11  -4    7.85    1.92
  -4  -2 -11    7.97    1.72
   4  11   2    8.37    1.80
   4  11  -2    8.01    1.86
 -11  -4  -2    9.40    2.07
 -11  -4   2   10.83    2.24
 -11  -2   4   12.25    1.66
  11  -4   2    6.07    2.24
 -11  -2   4    4.63    1.86
 -11  -4  -2    8.41    2.57
 -11  -4  -2    8.46    2.11
 -11  -4   2   10.00    1.97
  -2  -4 -11    6.76    1.67
   4  -2  11    9.65    2.40
  -4 -11  -2   10.87    2.52
  -4 -11   2    8.07    2.34
 -11  -3  -4   -0.15    2.31
  -3 -11  -4    0.48    1.70
 -11   4   3   -0.88    1.70
  11   4  -3    0.68    1.72
  -4 -11  -3    0.61    1.51
  11   3  -4   -0.37    1.64
  -3  -4  11   -1.46    1.98
   4  -3  11    3.20    2.00
  -4  -3  11   -0.34    1.85
   3  -4  11    0.41    1.92
   4 -11   3    0.28    1.48
  -4  -3 -11    1.39    1.54
 -11   3  -4    0.71    2.48
 -11   4  -3    0.50    2.30
 -11  -4  -3   -0.63    2.36
   3 -11   4    0.38    1.55
  -3  -4 -11   -0.64    1.40
   3 -11  -4   -1.89    1.84
   3  11  -4   -0.08    1.71
  -3 -11   4    0.47    1.62
   4 -11  -3   -0.25    1.63
 -11   3   4    1.34    1.78
 -11  -3  -4    2.61    1.65
  -3  11   4    1.49    2.45
  -4  11   3    2.08    1.81
   4  -3 -11   -0.20    1.79
  -3  -4 -11    1.57    1.94
   4  11  -3    0.38    2.03
   3  -4 -11   -0.65    1.90
  -3  11   4    0.33    1.91
   4  11   3   -0.72    2.27
  -3  -4  11    0.18    1.64
  -4  11   3    0.40    1.81
  -4  -3  11   -0.29    1.70
  -3   4  11   -2.96    2.56
  -4   3  11   -0.90    2.37
  -4   3 -11   -0.35    2.03
 -11   3  -4   -0.56    1.64
  -3  11   4    2.78    1.83
  -3   4 -11   -1.07    2.06
  11  -3   4   -0.62    2.02
  11  -3  -4   -1.36    2.21
  11  -4   3   -1.31    1.93
  11  -4  -3   -0.89    2.12
 -11  -4   3    0.67    1.75
 -11  -4  -3    1.60    1.78
 -11   3   4   -2.14    1.85
 -11   3  -4   -1.63    2.01
 -11  -3  -4   -0.26    1.67
 -11  -3   4   -0.24    1.67
 -11   4   3   -1.52    1.91
 -11   4  -3   -0.49    1.91
   4 -11   3   -1.52    1.91
   4 -11  -3    0.76    1.86
   3 -11   4    0.84    1.85
   3 -11  -4   -0.58    1.96
   4  -3  11    1.40    2.16
 -11  -3  -4    2.46    2.41
 -11  -3  -4   -0.83    1.96
   3  -4  11   -0.23    2.05
  -4  -3 -11   -0.18    1.60
 -11  -3   4   -0.74    1.41
   3  11   4    1.48    1.59
   3  11  -4    0.60    1.56
   4  11   3    0.43    1.45
   4  11  -3    1.38    1.47
 -11  -4  -3    0.55    1.69
 -11  -4   3   -1.67    2.07
 -11  -3  -4   -0.22    1.76
 -11  -3   4   -1.87    2.18
 -11  -4  -3    0.41    1.91
 -11  -4  -3   -0.92    2.45
 -11  -4   3   -0.14    1.60
  -3 -11  -4   -0.50    2.05
  -3 -11   4   -0.10    2.08
  -3  -4 -11   -0.62    1.67
  -4 -11  -3   -0.40    2.05
  -4 -11   3    2.39    2.16
 -11   4   4   17.87    2.34
   4  -4  11   18.58    2.77
   4 -11   4   26.18    2.48
 -11   4  -4   18.99    3.13
  -4  -4 -11   18.51    2.16
  -4  -4  11   21.63    2.72
   4  11  -4   20.03    2.46
   4  11   4   14.99    3.09
  -4  -4  11   18.53    2.34
  -4  11   4   23.12    2.92
  -4   4 -11   20.98    2.81
  -4  11   4   27.88    2.83
   4  -4 -11   16.58    2.57
 -11  -4  -4   23.60    2.55
  -4 -11  -4   23.31    2.86
 -11   4   4   24.21    2.77
  -4 -11   4   24.31    3.10
  11  -4   4   18.10    2.69
  11  -4  -4   23.12    2.91
 -11  -4  -4   16.50    2.44
 -11  -4   4   18.52    2.47
   4 -11   4   21.31    2.63
 -11   4  -4   17.76    2.68
   4 -11  -4   20.77    2.66
   4  -4  11   21.83    3.07
 -11  -4   4   26.50    3.02
   4  11   4   19.02    2.31
   4  11  -4   18.19    2.31
 -11  -4   4   18.58    2.08
 -11  -4  -4   18.76    2.47
  11   4  -4   22.35    2.63
  -4 -11  -4   17.49    2.41
  -4  -4 -11   19.87    2.56
  11   5   0    2.35    1.84
   5 -11   0   -0.16    1.30
   0 -11   5    0.72    1.69
  -5   0  11   -1.48    1.67
 -11   5   0    3.14    2.11
  -5   0 -11    0.19    1.87
   0  -5  11    3.33    2.02
   5   0  11    0.11    2.14
   0 -11  -5    0.80    1.85
   0  11   5   -2.16    2.19
   5  11   0   -1.38    2.28
  -5  11   0    3.00    1.76
   0  -5 -11    0.38    2.03
   0  11   5    1.16    1.78
   0   5  11    0.71    2.05
 -11   0  -5    0.10    1.82
  -5   0  11   -1.41    2.18
  -5   0 -11    0.37    2.05
   0   5 -11    0.81    1.65
   0  11   5    1.59    2.31
 -11   0  -5    0.61    1.81
 -11   0   5   -0.38    1.74
   0 -11   5   -0.11    2.35
   0  11   5   -1.50    1.80
   0  11  -5   -1.39    1.84
   0  -5 -11   -0.94    1.41
 -11  -5   0   -1.96    1.85
  11  -5   0   -1.65    2.24
   1  11   5   28.14    3.17
   5 -11  -1   26.80    2.00
   5  -1  11   31.60    3.16
   5 -11   1   28.23    2.26
 -11   5   1   25.12    2.75
 -11   5  -1   34.03    3.17
   1  -5  11   33.45    3.05
  -1  -5  11   31.40    3.01
   1 -11   5   32.50    2.77
  -5   1  11   27.07    2.36
   1   5 -11   28.30    2.54
  -1 -11   5   31.39    2.69
  -5  -1 -11   32.36    2.84
  -5  -1  11   32.72    2.70
  -1  11   5   32.51    3.47
  -5   1 -11   34.32    3.05
   1  11   5   33.68    2.71
   1   5  11   28.66    3.04
  -1   5  11   33.04    3.24
  -1  11   5   33.72    2.87
   1  11   5   31.00    3.35
  -1  11   5   28.72    3.19
  -5  -1  11   28.38    3.11
 -11   1  -5   26.63    2.87
  -5   1 -11   31.72    3.26
  -5   1  11   33.61    3.35
  -1  -5 -11   27.00    3.21
   1  -5 -11   34.78    3.29
   5  11   1   32.45    3.53
 -11  -1  -5   28.15    2.92
  -5  11   1   31.53    2.81
   5  11  -1   31.44    3.36
  -5  11  -1   33.25    2.80
 -11  -5   1   26.27    2.71
 -11   5   1   32.56    3.03
  -1 -11  -5   36.86    3.42
  -1 -11   5   32.16    3.38
 -11  -1   5   31.56    2.67
 -11  -1  -5   34.60    2.87
 -11   1   5   35.47    2.82
 -11   1  -5   31.21    2.91
  11  -1  -5   32.61    3.12
  11  -1   5   33.34    2.91
  -1 -11  -5   23.14    2.86
  -1  11   5   25.41    2.79
  -1  11  -5   26.16    2.81
   1  11   5   26.10    2.65
   1  11  -5   26.86    2.67
  11  -5  -1   25.05    2.05
   5  11   1   27.24    2.63
  -1  -5 -11   25.53    2.39
 -11  -5   1   28.47    2.74
 -11  -5  -1   23.74    2.84
  11  -5  -1   26.20    2.94
   1  -5  11   24.55    2.07
  11  -5   1   27.27    3.03
  11   5  -1   27.39    2.82
   5  -1  11   27.71    3.16
 -11  -1   5   29.73    2.55
   1 -11  -5   26.74    2.97
  11   5   1   31.07    3.00
 -11  -5  -1   21.92    3.33
  -2 -11  -5    0.99    1.80
   5  -2  11    4.36    2.21
  -2  -5  11    0.68    2.03
  11   5  -2    3.38    1.91
   5 -11   2    2.29    1.46
  -5 -11  -2    2.78    1.55
  11   2  -5    4.79    1.79
  -5  -2 -11    4.16    1.94
 -11   5   2    3.11    1.87
  -5  -2  11    4.93    1.93
   2  -5  11    4.25    2.15
  -2 -11   5    2.32    1.71
 -11   5  -2    5.83    2.39
  -5   2 -11    3.40    1.98
   2 -11   5    2.79    1.77
   2  11  -5    2.21    1.61
  -5  11   2    0.65    1.84
  -2  11   5    5.28    2.39
 -11   2  -5    1.38    1.90
   2  11   5    0.27    2.15
  -2   5 -11    3.01    1.98
  -2  11   5    3.35    2.25
   5  11  -2    7.28    2.56
  -2  -5  11    2.74    1.55
   2   5  11    2.64    1.95
 -11  -2  -5    2.58    1.95
   5  11   2    1.48    2.39
   2  -5 -11    3.87    2.06
  -2   5  11    2.30    2.19
  -2  11   5    3.79    1.96
  -5  -2  11    2.05    1.97
  -5   2 -11    3.55    2.29
  -5   2  11    5.26    2.27
   5  -2 -11    1.33    1.75
   2 -11   5    2.49    1.92
   2 -11  -5    0.62    1.87
  -2 -11   5    0.11    2.43
  11  -2   5    2.11    2.04
  11  -2  -5    1.90    2.28
 -11  -5   2    1.95    1.77
 -11  -5  -2    1.74    1.73
 -11   2   5    2.58    1.95
 -11   2  -5    2.69    2.01
 -11   5   2    0.91    1.90
 -11   5  -2    3.31    2.01
 -11  -2  -5    1.46    1.78
 -11  -2   5    1.59    1.77
  -2 -11  -5   -0.30    2.21
   2  11   5    4.53    1.78
   2  11  -5    4.16    1.72
  -5  -2 -11    3.36    1.72
   5  11   2    3.15    1.74
   5  11  -2    4.29    1.75
   2  -5  11    2.24    1.46
  11  -5  -2    0.28    2.00
  11  -5   2    1.21    2.10
 -11  -5   2    2.21    1.73
 -11  -5  -2    1.77    1.95
  -2  -5 -11    2.71    1.62
   5  -2  11    4.73    2.29
  -3 -11  -5   18.11    2.66
  11   5  -3   17.24    2.55
  -3  -5  11   19.12    2.65
 -11   3   5   19.44    2.50
   5  -3  11   24.62    3.05
   3  -5  11   19.77    2.77
   5 -11   3   18.58    2.19
 -11   5   3   20.04    2.36
   3 -11   5   18.13    2.41
 -11   5  -3   24.40    3.17
  -5  -3 -11   23.89    2.57
  -5  -3  11   22.70    2.62
  -3  -5 -11   19.43    1.93
  -3 -11   5   22.91    2.53
   5  11  -3   17.49    2.53
 -11  -3  -5   19.67    2.64
  -3  11   5   21.06    3.25
   5  -3 -11   17.94    2.47
  -3  11   5   21.95    2.92
  -5   3 -11   25.85    3.21
   5  11   3   20.18    3.20
  -3   5 -11   21.32    2.74
   3  -5 -11   19.98    2.69
  -5  11   3   17.95    2.59
  -3  -5  11   15.60    2.14
  -5  -3  11   17.29    2.53
  -3   5  11   20.51    3.09
   5  11  -3   26.97    3.30
  -3  11   5   18.93    2.63
  -5   3  11   17.96    3.04
   3 -11   5   21.29    2.65
   3 -11  -5   26.58    2.76
 -11  -5   3   24.08    2.58
 -11  -5  -3   18.05    2.43
 -11   5   3   24.20    2.73
 -11   5  -3   24.11    2.87
 -11  -3   5   19.00    2.42
  11  -3  -5   18.79    2.75
  -3 -11   5   19.15    3.00
  -3 -11  -5   23.47    2.98
 -11   3   5   20.02    2.63
 -11   3  -5   19.10    2.63
 -11  -3  -5   18.66    2.46
  11  -3   5   18.97    2.65
  -5 -11  -3   14.82    2.22
   3  11   5   17.66    2.27
   3  11  -5   16.24    2.25
 -11  -3   5   24.86    2.94
   3  -5  11   16.99    2.19
 -11  -5   3   20.11    2.33
  -3  -5 -11   19.21    2.54
  11   3  -5   22.15    2.55
  -5  -3 -11   18.16    2.58
 -11  -3  -5   16.19    2.28
  11  -5  -3   15.91    2.52
  11  -5   3   15.46    2.80
   3  11  -5   20.46    2.34
   5  -3  11   18.95    2.98
  11   5  -4    0.74    1.93
  -5  -4 -11    0.57    1.92
   5  -4  11    4.00    2.41
  11   4  -5    2.15    2.00
   5 -11   4    1.10    1.75
   4  -5  11    2.31    2.29
  -4  -5 -11    0.70    1.59
  -4  -5  11    0.10    2.09
   4 -11   5    0.68    1.76
  -5  -4  11    1.21    2.09
   5  11  -4   -0.97    1.95
   4  11  -5   -1.87    1.94
  -4  11   5    0.12    2.15
  -4  11   5    4.44    2.84
   5  11  -4    5.08    2.55
   5  11   4    0.16    2.56
  -5  11   4    2.15    2.26
  -5  11   4    0.42    2.02
 -11  -5  -4   -1.73    1.79
   5  -4 -11    0.77    1.92
  -4  -5  11    1.56    1.74
  -5  -4  11    0.47    1.84
   4  -5 -11   -3.10    2.19
  -4   5  11   -0.28    2.35
  -5   4 -11    0.26    2.29
 -11  -4  -5    1.29    2.06
  -4   5 -11    0.34    2.06
  -4  11   5   -0.10    2.14
   4  11   5    0.31    2.50
 -11   5   4    2.33    2.12
 -11   5  -4    0.32    2.12
 -11  -5   4    0.09    1.89
 -11  -5  -4    2.34    1.92
 -11  -4  -5    0.18    1.75
 -11  -4   5    0.08    1.74
 -11   4   5   -0.09    2.02
 -11   4  -5    0.42    2.11
   5  -4  11    1.81    2.38
  -5  -4 -11    4.48    2.27
   4  -5  11    2.00    2.38
   4  11   5    0.34    1.62
   4  11  -5    3.26    1.78
  11  -5  -4    0.08    1.86
   4  -5  11   -0.30    1.78
  11  -5   4    0.95    2.31
  -4  -5 -11    1.58    2.08
   5  -5  11   29.61    3.34
   5 -11   5   26.84    2.74
  -5  -5  11   29.40    3.17
  -5  11   5   25.81    3.13
  -5  -5  11   28.23    2.75
  -5   5 -11   30.65    3.47
 -11  -5  -5   35.32    3.33
 -11  -5   5   33.93    2.90
 -11  -5  -5   27.99    2.87
 -11   5   5   32.77    3.10
 -11   5  -5   35.70    3.38
  -5  -5 -11   23.75    3.15
   5  -5  11   31.91    3.67
  11  -5   5   26.58    3.54
   5  11  -5   30.32    2.99
   0 -11   6    7.04    2.03
  -6   0 -11    8.09    2.31
  -6   0  11    7.04    1.93
 -11   6   0   11.66    2.36
   0  -6  11    8.08    2.39
   6 -11   0    4.03    1.58
  -6   0 -11    5.39    2.19
   0 -11  -6    4.54    2.27
  11   6   0   10.14    2.34
   6  11   0    7.26    2.73
  -6  11   0   11.12    2.07
 -11   0  -6    6.36    2.27
   0  11   6    8.90    2.25
   0   6  11    9.07    2.51
  -6   0  11    7.06    2.44
   0  11   6    6.11    2.58
   0  11   6   10.55    2.68
 -11   0   6    9.47    2.05
 -11   0  -6    8.31    2.18
   0  11   6    4.51    1.97
   0  11  -6    4.29    1.95
 -11  -6   0    4.63    2.20
  11  -6   0    9.98    2.48
  11   6  -1   -1.31    1.97
  -6  -1 -11    0.21    2.18
  -1 -11   6   -0.18    1.81
  -6   1 -11    0.22    2.00
 -11   6   1   -1.06    1.89
  -6  -1  11    1.01    1.79
 -11   6  -1   -2.20    2.30
   1  -6  11   -0.11    2.12
   1 -11   6   -1.68    1.83
   1 -11  -6   -2.95    2.45
   1  11  -6   -0.37    1.51
  -6   1 -11   -1.07    2.07
   6  -1  11   -0.60    2.24
  -6  -1 -11   -2.69    2.25
  -1  -6  11    0.21    2.12
  11   6   1    1.01    1.97
  -1 -11  -6   -1.02    2.15
   6 -11   1    1.19    1.45
 -11   1  -6   -0.70    2.09
  -6  11   1   -1.12    1.84
   6  11  -1   -0.85    2.57
   1  11   6    0.18    1.88
   1   6  11   -0.36    2.06
  -1   6  11   -2.81    2.24
  -1  11   6    0.68    1.97
  -6  11  -1    1.19    1.75
   6  11   1   -0.15    2.41
 -11  -1  -6   -3.13    2.62
   1  -6 -11   -0.86    2.27
  -6  -1  11   -0.71    2.14
  -1  11   6   -0.13    2.23
   1  11   6    0.82    2.28
  -6   1  11   -0.13    2.13
  -1  11   6   -1.77    2.40
  11  -1  -6   -2.80    2.41
  11  -1   6   -2.04    2.14
 -11   6   1   -0.10    1.95
   1 -11   6   -0.63    1.92
   1 -11  -6   -0.46    1.96
 -11  -1   6    1.72    1.80
 -11  -1  -6   -2.59    1.92
 -11  -6   1   -0.37    1.82
 -11   1   6   -3.48    2.06
 -11   1  -6   -0.95    2.00
  -1 -11  -6   -2.89    2.54
  -1 -11   6   -3.02    2.66
  -1  11   6   -1.25    1.91
  -1  11  -6   -0.86    1.87
   1  11   6    0.09    1.76
   1  11  -6   -1.15    1.79
 -11  -6   1   -3.20    2.06
   6  -1  11    0.13    2.50
  11  -6   1   -0.44    2.24
  11  -6  -1   -1.43    2.22
  -6  11   1   -2.00    2.74
   6  -2  11   32.01    3.47
   6 -11   2   30.51    2.52
   2  -6  11   31.97    3.23
 -11   6  -2   34.53    3.45
   2 -11   6   28.52    2.90
  -2  -6  11   27.84    3.08
  -6  -2 -11   30.33    3.10
  -2 -11   6   28.76    2.82
  -2  11   6   39.34    3.87
  -6  -2  11   31.11    2.81
   2  -6 -11   24.08    3.10
   2   6  11   31.09    3.27
  -2  11   6   33.48    3.53
   2  11   6   35.80    3.71
 -11   2  -6   24.39    3.04
  -2   6  11   31.62    3.51
  -2  11   6   32.82    3.19
  -6  -2  11   27.46    3.11
   6  11   2   36.00    3.96
  -6   2  11   34.56    3.56
  -2   6 -11   28.77    2.90
  -6  11   2   28.09    2.81
 -11  -2  -6   28.28    3.33
   6  11  -2   38.38    3.82
 -11  -6   2   29.27    2.91
 -11  -6  -2   24.12    2.81
   2 -11   6   29.57    2.81
   2 -11  -6   35.38    2.94
 -11   6   2   34.96    3.13
 -11   6  -2   37.19    3.27
 -11  -2   6   31.21    2.63
 -11  -2  -6   33.01    2.86
  -2 -11  -6   32.98    3.35
  -2 -11   6   30.71    3.34
 -11   2   6   35.23    2.98
 -11   2  -6   35.77    3.15
  11  -2   6   34.76    3.03
  11  -2  -6   30.09    3.18
   2  11   6   24.81    2.59
   2  11  -6   27.65    2.67
 -11  -6   2   27.93    2.81
  11  -6   2   27.69    3.30
  11  -6  -2   27.67    2.96
   2  -6  11   28.47    2.47
  11   6  -2   27.05    3.07
   6  -2  11   30.61    3.56
  -6  -2 -11   27.73    2.96
  -6   2 -11   30.00    2.85
  -6  -2 -11   28.00    3.33
   2  11  -6   31.99    2.62
  -6  11   2   26.66    3.64
  -6  11  -2   19.88    3.57
   6  -3  11    0.36    2.38
  -6  -3 -11    1.37    2.10
  11   6  -3    1.68    2.05
   6 -11   3    1.73    1.68
  -3  -6  11    0.10    2.14
  11   3  -6    3.13    2.01
 -11  -6  -3    1.01    1.55
   3  -6  11    1.76    2.25
   3 -11   6    0.09    1.90
  -3 -11   6    5.04    2.14
  -6  -3  11    7.21    2.16
 -11   6  -3    0.82    2.37
   6  11  -3    0.11    2.06
   3  11  -6    1.40    1.68
  -3   6 -11    0.10    1.92
  -3  11   6    3.97    2.61
   3  -6 -11    1.20    2.00
   6  11   3    0.33    2.58
  -6  11   3   -0.20    2.00
  -3  -6  11    2.17    1.60
   6  11  -3    1.92    2.50
 -11  -6  -3   -0.67    1.79
 -11  -3  -6    0.12    2.25
  -3   6  11    0.96    2.46
  -6  -3  11   -0.11    2.05
  -3  11   6    1.81    2.22
  -6   3  11    2.17    2.44
 -11   6   3    5.33    2.22
 -11   6  -3    1.79    2.07
  -3 -11   6    2.43    2.50
  11  -3   6    0.36    2.10
  11  -3  -6    0.92    2.32
 -11  -6   3    2.34    1.92
 -11  -6  -3    3.46    1.93
 -11   3   6    1.92    2.12
 -11   3  -6    0.63    2.12
   3 -11   6    1.09    2.04
   3 -11  -6   -1.00    2.15
 -11  -3  -6    0.36    1.93
 -11  -3   6    1.36    1.76
  -3 -11  -6    1.49    2.21
  -6  11   3    1.32    2.48
  -6  11  -3    0.32    2.51
  -6  -3 -11    3.55    2.11
   3  11   6    2.80    1.78
   3  11  -6    1.44    1.72
 -11  -3  -6    0.76    1.77
 -11  -3   6   -0.58    2.25
 -11  -6   3    2.25    1.85
  -3  -6 -11    0.64    2.14
  11  -6   3   -1.59    2.44
  11  -6   3   -1.40    2.38
  11  -6  -3    0.27    2.08
   3  -6  11    0.49    1.70
   6  -3  11    2.97    2.55
   4  11  -6    4.44    2.02
  -6  -4 -11    4.99    2.12
   6  -4  11    3.24    2.44
   6 -11   4    3.74    1.89
 -11  -6  -4    3.03    1.89
  -6   4  11    3.69    2.53
  -4  -6  11    5.69    2.28
   4 -11   6    6.87    2.21
  -6  -4  11    9.04    2.38
  -4 -11   6    9.44    2.29
   6  11  -4    7.29    2.26
  -6  11   4    5.53    2.28
 -11  -4  -6    4.31    2.47
   4  -6 -11    5.34    2.10
   6  11  -4   13.27    2.99
 -11  -6  -4    5.73    2.00
  -4  -6  11    5.99    1.80
  -6  -4  11    4.17    2.04
  -4   6 -11    8.02    2.41
  -4  11   6    7.13    2.59
 -11   6   4    7.62    2.48
 -11   6  -4    8.13    2.62
 -11  -6   4    6.10    2.09
 -11  -6  -4    6.92    2.19
 -11  -4  -6    5.28    2.03
 -11  -4   6    7.60    2.06
 -11   4   6   10.07    2.32
 -11   4  -6    7.32    2.42
  -6  11   4    5.87    2.81
  -6  11  -4    3.99    2.64
  -6  -4 -11    4.04    2.32
  -4  -6 -11    5.38    2.31
  11  -6  -4    4.32    2.04
  11  -6   4    3.76    2.54
   6  -4  11    4.42    2.62
   6  11  -5    2.00    2.14
   5  11  -6   -0.19    1.94
  -6   5  11   -1.89    2.68
   6 -11   5    1.06    1.97
   5 -11   6   -1.67    2.07
  -6  -5  11    0.10    2.23
  -5  11   6    1.51    2.41
 -11  -5  -6   -0.13    2.28
  -6  11   5    3.74    2.48
   6  11  -5    3.09    2.62
  -6  -5  11   -0.28    1.88
  -5   6 -11   -1.49    2.46
 -11  -6  -5   -0.19    1.85
 -11   5   6    1.20    2.22
 -11   5  -6    0.45    2.31
 -11  -6   5    1.12    1.94
 -11  -6  -5   -0.99    2.04
 -11  -5  -6    1.55    1.97
 -11  -5   6    2.42    1.92
   5  -6  11    0.93    1.94
  -5  -6 -11   -0.12    2.35
  11  -6   5   -3.81    2.96
   6  11  -6   12.08    2.53
  -6  11   6   18.07    3.23
 -11  -6   6   12.82    2.40
   6  -6  11    6.75    2.37
   0 -11   7    1.70    1.97
  -7   0  11    2.39    1.77
   0  11   7    0.14    2.56
 -11   7   0    1.90    2.07
   0  -7  11    1.79    2.26
  11   7   0   -0.25    2.10
  -7   0 -11    2.53    1.96
 -11   0  -7   -0.13    2.21
   0  11   7   -1.80    2.23
   0   7  11    1.17    2.32
   7  11   0   -2.25    3.03
  -7  11   0    0.99    1.79
  -7   0  11   -1.01    2.21
 -11   0   7    2.79    1.91
 -11   0  -7    1.26    2.03
   0  11   7   -1.08    1.82
   0  11  -7    0.99    1.82
  11  -7   0   -0.67    2.24
  -1 -11   7   10.47    2.28
   1  -7  11   10.17    2.60
  -7  -1  11   11.27    2.12
 -11   7  -1   14.97    2.53
   1 -11   7   10.83    2.22
  -1  -7  11   10.20    2.61
  -7  -1 -11   11.92    2.45
  -7   1 -11    9.25    2.14
   7  11  -1   11.03    3.10
 -11   1  -7    8.05    2.31
  -7  11  -1   12.10    2.09
  -7  11   1    8.44    2.09
   1  11   7   11.17    2.37
   1   7  11   13.71    2.65
   7  11   1   10.13    2.98
 -11  -1  -7    7.31    2.55
  -1   7  11    6.21    2.43
  -1  11   7    7.93    2.33
  -1  11   7    9.22    2.89
  -7  -1  11    6.10    2.47
  -7   1  11    6.30    2.63
   1 -11   7   11.51    2.23
   1 -11  -7   14.39    2.36
 -11  -1  -7    8.51    2.25
 -11  -1   7   11.07    2.11
  -1 -11  -7    7.92    2.58
 -11  -7   1    9.19    2.30
  -1 -11   7   10.98    2.81
 -11   1   7   10.76    2.27
 -11   1  -7   13.19    2.48
  -1  11   7    5.60    2.02
  -1  11  -7    6.25    2.08
   1  11   7    6.39    1.98
   1  11  -7    9.42    2.10
  11  -7   1    7.24    2.44
  11  -7  -1    7.80    2.50
  -2 -11   7    2.93    2.09
   2 -11   7    1.68    2.01
  -7  -2  11    3.60    2.09
 -11   7  -2    2.46    2.32
   7  -2  11   -0.26    2.66
   7 -11   2    1.19    1.74
  -7  -2 -11    0.24    2.25
   7  11   2   -1.83    2.86
   2   7  11    0.99    2.26
 -11  -7  -2   -0.52    1.73
   7  11  -2    0.15    2.57
  -7  11   2   -0.45    1.89
  -2   7  11   -1.78    2.47
  -2  11   7    1.68    2.30
  -7  -2  11   -0.58    2.20
 -11   2  -7    0.72    2.08
 -11  -2  -7   -1.98    2.70
  -2  11   7    1.18    2.72
  -7   2  11    2.83    2.56
  -2 -11  -7   -1.17    2.41
 -11  -2   7    2.40    1.85
 -11  -2  -7    1.37    2.04
  -2 -11   7    0.56    2.54
  11  -2  -7    0.51    2.26
  11  -2   7   -0.34    2.06
 -11   2   7    1.84    1.98
 -11   2  -7    3.76    2.19
   2 -11   7    0.92    2.02
   2 -11  -7   -0.25    2.12
  -2  11   7    0.49    1.92
  -2  11  -7   -1.40    2.06
   2  11   7    2.63    1.83
   2  11  -7   -0.51    1.76
 -11  -2  -7   -0.29    1.71
 -11  -2   7    0.77    2.25
  -7  -2 -11    1.33    2.00
  11  -7   2   -2.37    2.29
   7  -2  11   -0.72    2.75
  11  -7   2   -2.13    2.65
  11  -7  -2    0.10    2.26
   7 -11   3    6.48    1.95
   3  11  -7    9.24    1.94
   3 -11   7    8.48    2.27
  -7  -3  11    7.44    2.26
   7  11  -3    5.12    2.43
  -7  -3 -11    3.92    2.32
 -11  -3  -7    4.84    2.60
 -11  -7  -3    6.14    2.00
   3  -7 -11    5.23    2.24
  -3  11   7    9.08    2.64
  -7  -3  11    4.91    2.27
   7  11  -3    7.42    2.85
 -11   3   7    8.24    2.32
 -11   3  -7    5.39    2.39
 -11  -3  -7    7.17    2.15
 -11  -3   7    6.28    1.94
   3  11   7    5.73    1.90
   3  11  -7    8.12    1.96
  11  -7   3    1.14    2.38
  11  -7  -3    5.30    2.27
   3  -7  11    6.90    2.00
   4  11  -7    0.42    1.90
   7 -11   4   -0.25    1.88
  -7   4  11   -2.95    2.71
  -7  -4  11    0.10    2.24
  -7  -4 -11   -1.56    2.41
   7  11  -4   -0.23    2.39
   7  11  -4   -0.14    2.47
 -11  -7  -4   -0.51    1.96
  -7  -4  11   -0.74    2.16
  -4  11   7    0.12    2.48
 -11   4   7    3.03    2.15
 -11   4  -7   -0.65    2.30
 -11  -4  -7   -0.10    1.97
 -11  -4   7    2.04    1.83
  -4  -7 -11   -0.13    2.29
  11  -7   4   -0.12    2.47
   4  -7  11    1.26    1.92
  11  -7  -4   -2.89    2.34
   5  11  -7    5.21    2.25
   7 -11   5   10.46    2.42
  -5  11   7   12.65    3.15
 -11  -5  -7   11.38    2.55
 -11  -5   7    9.17    2.14
   5  -7  11    8.40    2.41
 -11   0  -8    3.03    2.35
   0  11   8    6.91    2.62
   8  11   0    5.92    3.00
   0 -11  -8    9.78    2.24
 -11   0   8    8.45    2.15
 -11   0  -8    7.66    2.36
  11  -8   0    8.54    2.66
   0  11   8    5.88    2.08
   0  11  -8    5.32    2.01
  -8  -1 -11   -1.42    2.27
   1  11   8   -0.67    2.33
 -11  -1  -8   -0.15    2.27
  -1  11   8    0.48    2.38
   8  11  -1   -2.70    2.99
  -8  -1  11   -1.02    2.38
 -11  -1   8    2.44    1.93
 -11  -1  -8    1.18    2.13
 -11   1   8   -0.40    2.02
 -11   1  -8    0.21    2.23
   1 -11  -8   -0.40    2.11
  11  -8  -1   -0.22    2.35
  -1  11   8   -1.36    1.93
  -1  11  -8   -0.46    1.94
   1  11   8    0.76    1.75
   1  11  -8   -0.34    1.80
  11  -8   1   -1.68    2.17
  -8  -2  11    3.67    2.11
 -11   2   8    5.78    2.50
   8  11  -2    3.11    2.87
  -2  11   8    1.83    2.47
  -8  -2  11    0.61    2.35
 -11  -2   8    4.16    1.88
 -11  -2  -8    3.35    2.20
  -2 -11  -8    2.58    2.59
   2 -11  -8    5.41    2.27
 -11   2   8    3.92    2.15
 -11   2  -8    4.15    2.28
  11  -8  -2    6.30    2.47
  -2  11   8    1.78    1.99
  -2  11  -8    1.92    2.01
 -11  -2  -8    5.43    1.94
   2  11   8    3.90    1.86
   2  11  -8    1.51    1.84
  11  -8   2    3.41    2.32
   8 -11   3   -0.08    1.99
  -8   3  11   -3.66    2.59
 -11   3   8    1.58    2.51
  -3  11   8   -1.38    2.80
  -8  -3  11   -2.33    2.20
 -11  -3   8   -1.57    1.86
 -11  -3  -8   -1.15    2.19
 -11   3   8    1.44    2.17
 -11   3  -8    0.89    2.30
  11  -8  -3   -1.77    2.44
  11  -8   3   -1.78    2.40
   8 -11   4    2.45    2.10
  -8   4  11    0.64    2.65
 -11   4   8    4.56    2.77
  -4  11   8    0.39    2.86
  -8  -4  11    2.77    2.34
 -11   4  -8    3.41    2.46
 -11  -4  -8    4.37    2.32
 -11  -5  -8    1.32    2.31
   0  11   9   -0.64    2.53
  -1  11   9   16.40    3.27
   0   0  12  283.73   11.14
   0  12   0  288.06   11.26
 -12   0   0  313.50   12.00
   0   0  12  316.73   10.80
   0   0 -12  287.20   11.17
   0 -12   0  262.12    9.88
   0  12   0  300.75   11.14
  12   0   0  270.43   10.48
   0   0  12  283.93   10.46
 -12   0   0  301.05   11.08
  12   0   1    3.88    1.69
 -12   0  -1    4.48    2.56
 -12   1   0    4.70    2.51
  12   1   0    4.95    1.84
  12  -1   0    2.46    1.58
   0 -12  -1    4.68    1.37
  12   0  -1    4.60    1.79
   0 -12   1    4.37    1.51
   0 -12  -1    5.14    1.49
   0   1  12    5.25    1.92
   1   0  12    3.56    2.02
  -1 -12   0    5.19    1.52
   0  -1  12    6.15    2.10
  -1   0  12    5.93    2.04
   1 -12   0    5.75    1.44
 -12  -1   0    3.63    2.52
 -12   0   1    6.71    2.56
  -1   0 -12    4.81    2.08
   1  12   0    6.93    2.07
   0   1 -12    5.64    2.08
   0  12   1    4.70    2.21
   0  -1 -12    5.36    2.16
  -1  12   0    9.14    2.36
   0  12   1    5.79    2.34
   1   0  12    5.72    2.19
   0  -1  12    8.06    2.15
   0   1  12    7.17    2.19
  -1   0  12    5.64    2.25
   1  12   0    7.56    2.27
   0  12  -1   11.49    2.50
 -12   0   1    5.13    1.98
   0 -12   1    6.88    2.66
   0  -1  12    5.53    1.99
 -12  -1   0    3.73    2.20
 -12   0   1    6.57    2.04
   0  12   1    3.68    2.04
 -12  -1   0    8.04    2.04
   1   0  12    7.31    1.94
  -1   0  12    5.68    1.75
  12   1   1    0.95    1.63
  12  -1   1    1.54    1.42
 -12   1  -1    1.76    2.42
  12   1  -1    1.70    1.66
  12  -1  -1   -0.15    1.57
   1   1  12    3.21    1.86
   1 -12  -1    1.11    1.26
  -1 -12  -1    0.53    1.33
   1  -1  12    0.46    1.96
  -1   1  12    2.38    1.82
  -1 -12   1    2.67    1.48
  -1 -12  -1   -0.29    1.27
  -1  -1  12    1.95    1.87
   1 -12  -1    2.58    1.21
   1 -12   1    2.52    1.44
 -12  -1  -1    0.88    2.57
 -12   1   1    1.45    2.30
  -1  -1 -12    2.41    2.07
   1  12  -1    0.75    1.72
   1   1 -12    1.57    1.94
  -1  12  -1    3.71    2.17
   1  12   1    1.81    2.17
   1   1  12    0.56    1.81
  -1  12   1    2.34    2.09
  -1  -1  12    1.08    1.92
  -1   1  12    0.12    1.93
   1  12  -1    1.20    2.14
  -1   1 -12   -0.10    2.09
   1  12   1    0.28    1.99
 -12  -1   1    0.26    1.75
 -12   1   1    2.93    1.90
 -12  -1   1    0.89    2.02
  -1  -1  12    1.26    1.81
 -12  -1  -1    0.92    2.14
   1  12   1    0.53    1.85
 -12  -1  -1    1.80    1.84
  -1   1  12    2.50    1.48
   1  -1  12    1.85    1.86
  12   2   0    6.19    1.90
  12  -2   0    6.16    1.60
 -12   0  -2    7.27    2.83
 -12   2   0   10.08    2.62
   0   2  12    9.05    1.86
   0 -12  -2    3.35    1.62
   0 -12   2    4.46    1.59
  12   0  -2    4.91    1.71
   2   0  12    5.58    2.14
   0  -2  12    7.95    2.16
   2 -12   0    4.50    1.35
  -2   0  12    5.20    1.92
  -2 -12   0    4.95    1.54
  12   0   2    3.42    1.65
   0 -12  -2    3.18    1.16
   0   2 -12    6.17    2.02
   0  12   2    3.81    2.22
   0  12   2    5.45    2.22
  -2   0 -12    6.71    2.23
  -2  12   0    4.90    2.01
   0  -2  12    6.35    2.02
   0   2  12    4.86    2.12
  -2   0  12    2.31    2.11
   0  12  -2    3.48    2.15
   2  12   0    5.14    1.80
  -2   0 -12    5.24    2.10
 -12   0   2    3.63    1.95
 -12   0  -2    6.62    2.10
 -12   0   2    5.51    1.94
   0  -2  12    3.61    1.96
   0  12   2    2.54    2.02
   0  12  -2    1.87    2.02
 -12  -2   0    5.34    2.00
   2   0  12    6.68    2.05
 -12  -2   0    8.33    2.42
  12  -2   1    3.22    1.51
   1   2  12    1.61    1.70
 -12   2   1    2.16    2.25
   2   1  12    0.17    1.86
  12   2  -1   -1.56    1.85
   1 -12  -2   -0.49    1.48
  12  -2  -1    1.66    1.49
  12   1  -2   -0.44    1.65
  -1 -12  -2    0.53    1.45
 -12   1  -2    2.73    2.58
  12  -1  -2   -0.79    1.58
 -12   2  -1    0.13    2.38
  -2 -12  -1    2.43    1.43
  -1   2  12    1.53    1.56
   2  -1  12    0.58    2.01
  -1 -12  -2    2.38    1.15
  -1 -12   2    1.73    1.56
   1  -2  12    1.92    2.05
   2 -12  -1    2.26    1.14
  -2   1  12    2.82    1.76
   1 -12  -2    1.20    1.03
   2 -12   1    1.36    1.42
  -1  -2  12    0.09    1.93
  -2  -1  12   -0.08    1.95
  -2 -12   1    3.88    1.57
  -2 -12  -1    0.51    1.35
   1 -12   2    1.18    1.50
 -12   1   2    3.78    2.21
  12   1   2    1.51    1.68
  12  -1   2    1.80    1.59
  12   2   1    2.92    1.73
  -2  -1 -12    2.80    2.07
  -1  12   2    0.81    2.02
   1   2 -12    1.39    1.89
  -1  12   2    1.31    2.25
  -1  -2 -12    2.65    2.10
  -2   1 -12    4.56    2.16
  -2  12  -1    1.19    2.00
   1   2  12    1.38    2.01
  -1  -2  12   -0.92    1.89
  -2  12   1    1.08    1.96
  -2  -1  12    3.17    2.13
  -1   2  12    2.05    2.05
  -2   1  12    0.72    1.97
   2  12   1    2.27    1.87
  -1  12  -2    1.62    2.12
   1  12   2   -1.49    2.18
  -2   1 -12    1.51    2.02
  -1   2 -12    3.01    1.97
   1  12   2    2.80    2.08
 -12  -1   2    0.69    1.80
 -12  -1  -2    1.07    1.84
 -12   1   2    0.53    1.90
 -12   1  -2    1.01    1.93
 -12   2   1    2.72    1.92
 -12  -2   1    0.89    1.87
 -12  -2  -1    2.20    2.28
   1  -2  12    1.71    2.00
  -2  -1  12    0.61    1.65
 -12  -1  -2    1.35    2.22
  -1  -2  12    1.46    1.77
   1  12   2   -0.63    1.89
   1  12  -2   -0.94    1.93
 -12  -2  -1    1.60    1.93
   2  12   1    0.61    1.81
 -12  -2   1    3.21    1.80
 -12  -1  -2    3.28    1.95
   2  -1  12    1.53    2.03
 -12  -2   1    0.96    2.09
 -12  -1   2    1.58    1.93
   2  12   2   81.42    4.71
   2   2  12   93.82    4.64
 -12   2   2   92.03    5.17
  -2   2 -12   85.06    5.02
 -12   2  -2  102.88    5.89
   2  -2  12   99.44    5.07
   2 -12   2   85.96    4.23
  -2  -2  12   94.23    4.78
  -2 -12   2   88.27    4.32
  -2 -12  -2   83.12    3.77
  -2  -2  12   89.51    4.96
  -2   2  12   86.20    5.21
  -2   2 -12   90.63    5.15
  -2  12   2   83.20    4.90
   2  12  -2   95.76    5.55
  -2  12  -2   97.89    5.27
 -12  -2  -2   93.81    4.83
 -12  -2   2  104.00    4.92
 -12   2   2   91.86    4.83
 -12   2  -2   88.29    4.89
   2  12   2   74.90    4.62
   2  12  -2   73.84    4.63
  12  -2  -2   80.32    4.28
 -12  -2  -2   93.15    4.85
 -12  -2   2   90.08    4.42
 -12  -2   2   85.25    4.87
   2  -2  12   93.47    5.02
  12   2   2   88.22    4.75
 -12  -2  -2   95.59    5.54
  12  -2   2   88.75    4.35
  -2 -12  -2   76.85    4.32
  12   2  -2   86.22    4.68
  12   3   0    1.93    1.79
   3   0  12    2.46    2.15
   0 -12  -3    3.33    1.74
  12  -3   0    1.64    1.45
   0 -12   3    0.07    1.64
  12   0  -3    1.97    1.73
 -12   3   0    1.62    2.33
   3 -12   0    1.42    1.33
   0  -3  12    3.16    2.07
  -3   0  12    0.97    1.81
   0  -3 -12   -0.39    2.16
  -3  12   0    3.00    2.05
   3  12   0    0.27    2.24
   0  12   3    0.74    2.07
  -3   0  12    1.19    2.12
  -3   0 -12    1.84    2.06
   0   3 -12    2.33    1.94
   0  12   3    0.46    2.15
 -12   0   3    2.69    1.91
 -12   0  -3    1.29    1.87
 -12   0   3    1.79    1.88
 -12  -3   0    0.27    1.91
   0  12   3    1.86    1.90
   0  12  -3    0.43    1.92
   3   0  12    2.78    2.15
 -12  -3   0    0.85    2.19
  12  -3   1    0.51    1.39
   1 -12  -3    0.50    1.65
  12   3  -1   -0.30    1.82
  -1 -12  -3   -0.17    1.81
  12  -3  -1    1.97    1.48
   3  -1  12   -0.20    2.08
 -12   3   1    0.54    2.27
  12   1  -3    0.09    1.71
  12  -1  -3    2.02    1.61
  -3 -12  -1    1.76    1.43
 -12   3  -1    0.62    2.42
  -1 -12   3    2.27    1.69
   3 -12   1    1.17    1.40
   1  -3  12   -0.10    2.08
  -3   1  12    1.15    1.69
  -1  -3  12   -1.38    2.14
  -3  -1  12    1.04    1.90
   1 -12   3    0.29    1.63
  12   3   1   -0.50    1.79
   3   1  12    0.65    2.00
   1  -3 -12    0.13    2.06
   3  12  -1    2.24    2.26
  -1  12   3   -1.60    2.49
   1   3 -12    0.53    1.86
  -3   1 -12    2.31    2.12
   3  12   1   -0.54    2.39
  -3  12  -1    2.94    2.08
  -1  -3  12    2.23    1.82
  -3  12   1    2.10    1.97
   1  12   3    1.31    2.13
  -1  12   3    1.43    2.10
  -3  -1  12    0.91    2.00
  -3   1  12   -0.25    2.17
  -3   1 -12    1.02    1.96
   1  12   3    0.54    2.01
  -1   3 -12    2.60    1.96
 -12  -1   3    1.03    1.77
 -12  -1  -3    1.18    1.76
 -12   1   3    3.95    1.93
 -12   1  -3    1.22    1.81
 -12   3   1    1.71    1.95
 -12  -3   1    2.29    1.90
 -12  -3  -1    0.75    2.04
   1  -3  12    2.41    2.14
 -12  -3   1    3.23    1.89
 -12  -1  -3    1.71    2.33
  -1  12  -3   -0.23    2.03
   1  12   3    3.23    1.94
   1  12  -3   -0.21    1.81
   3  12   1    1.37    1.78
 -12  -3   1    1.04    2.18
   3  -1  12   -0.73    2.18
 -12  -3  -1   -1.17    2.53
 -12  -1   3    1.91    1.91
 -12   3   2   -0.40    2.20
  12   3  -2    1.38    1.77
  -2 -12  -3    1.59    1.70
  12   2  -3    0.38    1.76
  -3 -12  -2    2.44    1.57
  12  -3  -2    2.48    1.48
   3  -2  12    1.68    2.04
  12  -2  -3    3.69    1.66
  -3   2 -12    0.57    2.05
 -12   3  -2   -0.40    2.60
   2  -3  12    1.67    2.16
   3 -12   2    2.03    1.55
  -2   3 -12    1.59    1.98
  -2 -12   3    3.71    1.86
   2  12   3    3.30    2.08
   2 -12   3    2.82    1.66
  -2 -12  -3    2.98    1.18
  -2  -3  12    4.14    2.09
  12   3   2    1.82    1.85
  -3  -2  12    0.93    1.92
 -12   2   3    1.96    2.18
  -3 -12   2    0.94    1.63
  -3  12   2    1.30    2.10
  -3   2 -12    0.85    2.12
   2  -3 -12    1.21    1.99
  -2  12   3    5.95    2.61
  -2   3 -12    2.40    2.11
   2  12  -3    5.25    2.41
   2  12   3    2.05    2.28
  -2  -3  12    2.99    1.89
  -3  -2  12    1.50    2.02
  -2  12   3    2.32    1.99
  -3   2  12    4.80    2.31
   3  12  -2    5.33    2.52
 -12   2   3    1.57    1.93
 -12   2  -3    1.00    1.99
 -12   3   2    3.21    2.08
 -12   3  -2    1.59    1.99
 -12  -3  -2    2.71    1.94
 -12  -3   2    4.27    2.02
 -12  -2  -3    2.00    1.78
 -12  -2   3    1.12    1.80
   2  -3  12    0.32    2.23
 -12  -3   2    3.18    1.77
   2  12   3    1.39    1.73
   2  12  -3    2.95    1.88
   3  12   2    2.24    1.90
   3  12  -2    3.39    1.85
 -12  -2   3    3.52    1.60
 -12  -3   2   -0.11    2.27
 -12  -2   3    2.29    2.07
   3  -2  12    1.98    2.12
  -3  -3  12    1.92    2.00
 -12   3   3    0.67    2.11
  12   3  -3    1.11    1.92
  -3 -12  -3    2.53    1.77
  12  -3  -3    2.51    1.54
   3  -3  12   -1.31    2.26
   3 -12   3    2.04    1.62
  -3 -12   3   -0.46    1.78
   3  12  -3   -0.27    2.48
  -3   3 -12    2.76    2.17
   3  -3 -12   -1.52    2.06
  -3  -3  12    0.51    1.93
  -3  12   3    2.37    2.15
  -3   3  12    2.30    2.30
 -12   3   3   -0.57    2.03
 -12   3  -3    1.23    2.07
 -12  -3  -3    1.42    1.88
 -12  -3   3    0.81    1.87
   3  -3  12    3.34    2.43
 -12  -3   3    0.62    1.64
  -3  -3 -12    0.16    1.52
   3  12   3   -1.65    1.75
   3  12  -3    0.10    1.71
 -12  -3   3   -2.00    2.23
   4   0  12  216.13    8.43
   4 -12   0  171.90    6.88
 -12   4   0  208.14    8.48
   0  -4  12  201.15    8.21
   0  12   4  184.03    8.43
  -4   0  12  211.95    7.65
   0   4 -12  197.10    7.95
   0 -12   4  190.67    7.59
  -4   0 -12  215.57    8.06
   0   4  12  186.70    8.46
  -4   0  12  212.63    8.70
   0  12   4  168.25    8.40
   4  12   0  177.35    8.67
  -4  12   0  181.77    7.94
 -12   0   4  208.33    7.91
 -12   0  -4  192.06    7.96
  12   4   0  183.81    8.04
   0  12   4  163.30    7.91
   0  12  -4  151.51    7.76
   0 -12  -4  157.46    7.69
 -12  -4   0  199.52    8.04
  12   0  -4  190.13    7.75
   4   0  12  195.31    8.25
 -12  -4   0  181.41    8.58
  -4  -1  12    3.55    1.99
   1 -12  -4    4.59    1.96
  12   4  -1    4.61    2.12
   4  -1  12    4.89    2.37
  -1 -12  -4    3.02    1.97
  12   1  -4    5.99    1.93
 -12   4   1    2.04    2.35
   4 -12   1    3.21    1.52
  -1 -12   4    3.57    1.93
 -12   4  -1    6.74    2.54
   1  -4  12    4.02    2.32
  -1  -4  12    2.68    2.24
  -4  -1 -12    5.52    1.96
   1 -12   4    3.81    1.87
   4   1  12    1.84    2.19
  -4   1 -12    2.71    2.04
  12   4   1    2.44    1.96
  -1  12   4    5.81    2.57
  -4  12  -1    8.05    2.31
   1  -4 -12    1.43    2.20
   1  12   4    4.71    2.52
  -1  12   4    6.94    2.36
  -4  12   1    2.35    2.08
   1   4  12    6.05    2.44
  -1   4  12    1.18    2.39
  -4  -1  12    4.48    2.26
  -4   1  12    4.00    2.34
   4  12  -1    6.69    2.81
   1  12   4    6.58    2.50
  -1   4 -12    1.89    2.05
   4  12   1    3.47    2.49
 -12  -1   4    3.04    2.03
 -12  -1  -4    2.95    1.99
 -12   1   4    1.25    2.10
 -12   1  -4    6.52    2.31
 -12  -4   1    4.74    2.07
 -12   4   1    5.91    2.18
 -12  -4   1    3.82    2.02
  -1  12   4   -0.68    2.18
  -1  12  -4    2.50    2.22
   1  12   4    1.64    1.97
   1  12  -4    3.36    2.09
   4  12   1    4.65    1.97
 -12  -4   1    2.65    2.42
   4  -1  12    2.37    2.34
  12   4  -2    5.63    2.07
  -2 -12  -4    3.95    2.04
  -4  -2  12    5.06    2.14
   4  -2  12    6.45    2.35
  12   2  -4    5.58    1.97
  12  -4  -2    4.23    1.51
  -4 -12  -2    4.76    1.77
 -12   4   2    5.21    2.25
   4 -12   2    7.79    1.76
   2  -4  12    4.14    2.29
  -2 -12   4    5.59    1.99
  -2   4 -12    9.10    2.29
   2 -12   4    5.70    1.99
  -4  -2 -12    8.29    1.94
 -12   2   4    5.60    2.24
  -2  -4  12    5.17    2.34
  12   4   2    3.01    2.02
   2 -12  -4    4.94    2.01
  -2  12   4    6.24    2.69
  -2   4 -12    9.52    2.42
   2  12   4    1.58    2.34
   2  -4 -12    5.04    2.34
  -2  12   4    1.23    2.09
   4  12  -2    1.82    2.60
  -2  -4  12    7.27    2.00
   4  12   2    2.67    2.44
  -4  -2  12    4.91    2.26
  -4  12  -2    5.09    2.20
  -4   2  12    3.91    2.47
   4  -2 -12    2.57    2.05
  -4  12   2    4.01    2.21
 -12  -2   4    3.40    2.09
 -12  -2  -4    3.42    2.07
 -12   2   4    3.33    2.17
 -12   2  -4    3.29    2.20
 -12  -4  -2    5.55    2.06
 -12  -4   2    3.43    2.06
 -12   4   2    5.50    2.21
 -12   4  -2    3.62    2.16
 -12  -4   2    6.26    2.01
   2  -4  12    7.53    2.46
   2  12   4    1.97    1.87
   2  12  -4    4.00    2.06
   4  12   2    4.98    1.96
   4  12  -2    4.49    1.81
 -12  -4   2    6.54    2.40
 -12  -2   4    6.93    2.16
   4  -2  12    9.00    2.62
 -12   3   4    2.17    2.19
  -3  -4  12   -0.10    2.21
  12   4  -3    3.64    2.14
  -4  -3  12    2.44    2.07
  12   3  -4    0.73    1.89
 -12   4   3    1.77    2.15
   4  -3  12    2.61    2.28
   3  -4  12    2.69    2.40
   4 -12   3    1.55    1.72
   3 -12   4    3.12    1.89
  -4  -3 -12    1.70    1.82
  -3 -12   4    0.76    1.88
  -3   4 -12   -0.12    2.20
  -3  12   4    3.28    2.64
   4  -3 -12   -1.89    2.19
   4  12  -3    3.37    2.73
  -3  12   4    0.72    2.11
   3  -4 -12    0.48    2.09
   4  12   3   -0.46    2.62
  -3  -4  12   -0.29    1.89
  -4  12   3   -0.11    2.25
  -4  -3  12    2.32    2.09
  -4   3  12    4.06    2.55
 -12   3   4   -0.47    2.23
 -12   3  -4    1.48    2.29
 -12  -4  -3    0.87    1.90
 -12  -4   3   -0.46    1.84
 -12   4   3    2.26    2.09
 -12   4  -3    3.22    2.21
 -12  -3  -4   -0.95    2.05
 -12  -3   4   -0.26    2.00
 -12  -4   3    0.07    1.83
   3  -4  12    2.29    2.40
  -4  -3 -12   -0.90    1.83
   3  12   4    0.19    1.80
   3  12  -4    0.57    1.82
   4  12   3    2.10    1.84
   4  12  -3    2.47    1.80
 -12  -3   4    1.99    2.10
   4  -3  12    0.25    2.43
   4  -4  12  134.27    6.60
   4 -12   4  120.47    5.65
  -4  -4  12  131.14    6.19
  -4 -12   4  132.54    5.92
  -4  -4  12  125.92    6.06
  -4  12   4  126.97    6.47
   4  -4 -12  118.27    6.21
 -12   4   4  138.84    6.33
 -12   4  -4  132.59    6.48
 -12  -4  -4  119.62    6.03
 -12  -4   4  129.67    5.99
   4  12   4  103.00    5.66
   4  12  -4  115.00    5.85
  -4  -4 -12  117.23    6.00
   4  -4  12  144.11    6.97
   0 -12  -5    8.81    2.40
   0 -12   5    6.63    2.06
  -5   0  12    8.66    2.10
 -12   5   0    7.18    2.60
  -5   0 -12    6.56    2.41
   0  -5  12    6.92    2.53
   5   0  12    7.27    2.65
  12   5   0   10.09    2.49
  -5  12   0   15.18    2.53
   0  12   5    9.21    2.71
   5  12   0   11.72    3.20
   0   5  12   11.34    2.75
  -5   0  12    7.01    2.58
   0  12   5    6.53    2.70
 -12   0   5   10.11    2.33
 -12   0  -5    9.19    2.37
   0  12   5    5.44    2.19
   0  12  -5    5.70    2.23
  12  -5   0    5.51    2.58
  12   5  -1    0.78    1.99
  -1 -12  -5   -0.80    2.09
   5 -12   1    0.55    1.45
  -5  -1  12    0.99    1.94
  -1 -12   5    1.99    2.01
  12   1  -5    4.53    1.88
 -12   5   1    1.72    2.21
 -12   5  -1    0.34    2.43
   1  -5  12    0.22    2.18
  -5  -1 -12    2.22    2.11
  -1   5 -12   -0.79    2.09
  -1  -5  12    1.32    2.29
   1 -12   5    3.71    1.92
  12   5   1    0.12    2.10
   1  12   5   -1.49    2.41
   5  -1  12    4.38    2.50
   1 -12  -5    1.53    2.20
  -5  12  -1    3.97    2.20
   1  12   5    2.52    2.49
  -1  12   5    4.22    2.51
  -5  12   1    0.99    2.00
   5  12  -1    1.64    2.69
   1   5  12    2.30    2.20
  -1   5  12    4.46    2.56
  -5  -1  12    0.98    2.23
   5  12   1   -1.27    2.91
  -5   1  12    1.73    2.38
  -1  12   5    3.52    2.56
 -12  -1   5    0.84    2.00
 -12  -1  -5    2.11    2.06
 -12   1   5    2.48    2.20
 -12   1  -5   -1.32    2.10
 -12  -5   1    3.53    2.16
 -12   5   1    2.28    2.27
  -1  12   5   -1.53    2.21
  -1  12  -5    2.08    2.08
   1  12   5   -0.30    2.05
   1  12  -5    0.30    1.93
   5  12   1    3.86    1.94
  12  -5   1   -0.12    2.31
   5  -1  12    1.37    2.52
 -12  -5   1    2.46    2.02
   5  -2  12    5.81    2.50
   5 -12   2    6.06    1.76
  12   2  -5    8.55    2.19
  -5  -2  12    8.21    2.31
  -2 -12   5    5.58    2.13
   2  -5  12    5.77    2.47
  -5  -2 -12    5.94    2.15
   2 -12   5    3.55    2.00
  -2  -5  12    5.98    2.35
   2 -12  -5   -1.31    2.17
  -2  12   5    4.67    2.78
  -2  12   5    6.02    2.54
  -5  12  -2    3.51    2.20
  -5  -2  12    6.83    2.49
  -5   2  12    4.72    2.61
  -5  12   2    3.89    2.24
   5  12  -2    3.06    2.72
 -12  -2   5    3.19    2.05
 -12  -2  -5    3.14    2.11
 -12   2   5    3.60    2.31
 -12   2  -5    5.75    2.39
 -12  -5   2    7.27    2.36
 -12   5   2    6.97    2.21
   2  12   5    5.27    2.05
   2  12  -5    4.13    2.05
   5  12   2    6.08    2.03
  12  -5   2    3.24    2.56
   5  -2  12    5.49    2.70
 -12  -5   2    6.10    2.20
  -3  -5  12    1.59    2.36
   5  -3  12    0.96    2.48
   5 -12   3    3.01    1.79
  -5  -3  12    4.71    2.26
  -5  -3 -12    1.85    2.00
   3 -12   5    0.70    1.93
  -3 -12   5    2.48    2.11
  -3  12   5    1.31    2.80
  -3   5 -12    1.39    2.30
  -3  12   5    1.87    2.33
  -5  12   3   -0.11    2.17
  -3  -5  12    1.50    1.85
   3  -5 -12    2.61    2.21
  -5  -3  12    1.32    2.27
 -12   3   5   -0.10    2.24
 -12   3  -5    2.09    2.30
 -12  -3  -5    1.83    2.15
 -12  -3   5    0.34    2.02
   3  -5  12    0.75    2.57
  -5  -3 -12    1.31    2.02
   3  12   5    2.30    1.95
   3  12  -5    0.95    1.98
   5  -3  12   -0.66    2.83
  -4  -5  12    7.62    2.58
   5 -12   4    4.54    2.05
  -5  -4  12    6.98    2.52
   4 -12   5    8.06    2.22
   4  12  -5    6.78    2.39
  -4  12   5    5.59    2.77
  -5  12   4   10.21    2.65
  -4  -5  12    9.04    2.25
  -5  -4  12    4.65    2.27
 -12  -4  -5    7.58    2.47
 -12  -4   5    4.55    2.21
 -12   4   5   10.47    2.75
 -12   4  -5    4.06    2.57
   4  12   5    7.98    2.19
  -5  12   5    2.74    2.39
   5 -12   5   -0.36    2.03
   5  12  -5   -0.11    2.29
 -12   6   0    6.10    2.48
   0  12   6    1.94    2.61
  -6   0 -12    3.53    2.26
   0 -12   6    3.51    2.11
  -6  12   0    3.90    2.12
  -6   0  12    3.47    2.59
 -12   0   6    5.12    2.12
 -12   0  -6    5.50    2.31
   0  12   6    1.74    2.08
   0  12  -6    1.73    2.07
  12  -6   0    3.76    2.45
  -1 -12   6    0.65    2.05
  -6  -1  12    1.30    1.95
   1 -12   6    2.81    2.11
   6  -1  12    1.52    2.51
  -6  -1 -12   -1.52    2.67
  -6  12   1    1.08    2.10
  -6  12  -1    0.10    1.97
  -6  -1  12    1.91    2.35
  -1  12   6   -1.50    2.54
  -1  12   6    0.43    2.75
 -12  -1   6    0.59    1.97
 -12  -1  -6   -0.80    2.07
 -12   1   6    1.45    2.20
 -12   1  -6    0.43    2.23
  -1  12   6   -2.44    2.26
  -1  12  -6   -2.55    2.24
   1  12   6   -0.70    2.01
   1  12  -6   -1.07    1.96
  12  -6  -1   -0.87    2.38
  12  -6   1   -0.71    2.54
   6  -1  12   -3.46    2.98
   6 -12   2   36.41    2.90
   2 -12   6   41.74    3.42
  -6  -2  12   46.31    3.47
  -2  12   6   41.72    4.01
  -6  -2  12   43.46    3.86
  -6  12   2   35.82    3.41
  -6  12  -2   44.33    3.56
 -12  -2   6   44.84    3.32
 -12  -2  -6   43.66    3.51
 -12   2   6   51.38    3.66
 -12   2  -6   46.78    3.80
  -2  12   6   36.79    3.57
  -2  12  -6   36.47    3.53
   2  12   6   37.41    3.22
   2  12  -6   36.49    3.20
  12  -6  -2   41.60    3.74
   2 -12  -6   28.12    3.63
   6 -12   3    3.10    1.87
  -6  -3 -12    1.79    2.16
  -6  -3  12    0.09    2.17
   3 -12   6    2.37    2.12
  -6  12   3    1.08    2.26
  -6  -3  12    0.23    2.22
 -12   3   6    3.36    2.40
 -12   3  -6    0.35    2.51
 -12  -3   6    1.15    1.98
 -12  -3  -6    0.59    2.05
   3  12   6   -0.56    1.96
   3  12  -6   -0.09    1.88
  12  -6  -3   -1.50    2.40
  -6  -4  12    0.65    2.26
   6 -12   4    3.73    2.05
   6  12  -4    0.82    2.45
   6  12  -5   -1.05    2.60
 -12   0   7    2.65    2.18
 -12   0  -7    1.40    2.28
   0  12   7    2.30    2.02
   0  12  -7    2.10    2.11
  -7  12  -1    1.47    2.00
 -12  -1   7    2.05    2.05
 -12  -1  -7    2.20    2.24
 -12   1   7    0.09    2.24
 -12   1  -7   -0.56    2.30
  -1  12   7   -1.03    2.09
  -1  12  -7   -2.28    2.24
   1  12   7   -0.10    1.92
   1  12  -7   -0.29    1.98
  12  -7  -1   -1.68    2.48
  -7  -2  12    6.23    2.37
  -7  -2  12    1.65    2.46
  -7  12  -2    4.89    2.21
 -12  -2   7    2.92    2.08
 -12  -2  -7    1.63    2.15
 -12   2   7    4.87    2.40
 -12   2  -7    5.08    2.46
  -2  12   7    0.21    2.12
  -2  12  -7    2.30    2.16
   2  12   7    3.30    1.97
   2  12  -7    2.36    2.05
  12  -7  -2    0.64    2.45
  -7  -3  12   -0.55    2.31
  -7  -3  12    0.98    2.42
 -12  -3   7    0.73    2.00
 -12   3   7    0.29    2.38
   3  12   7    0.09    1.88
  12  -7  -3   -2.29    2.48
   7 -12   4    1.14    2.12
 -12   0  -8   69.81    4.68
   0  12  -8   51.63    3.93
 -12  -1  -8   -0.54    2.36
 -12   1  -8   -0.70    2.63
  -1  12  -8    1.52    2.26
   1  12  -8    0.85    2.12
   0  13   0    0.54    2.21
   0   0 -13    3.81    2.34
   0   0  13    4.53    2.27
   0  13   0    5.76    2.48
  13   0   0    1.54    1.84
   0   0  13    5.24    2.20
   0 -13   0    2.74    1.48
   0 -13   1    1.45    1.64
  13   1   0    3.35    1.94
  13  -1   0    1.96    1.77
  13   0  -1    2.30    1.88
   0   1  13    5.88    2.14
  -1 -13   0    2.57    1.55
   0  -1  13    2.63    2.23
  -1   0  13    3.54    2.17
  13   0   1    2.99    1.91
   0  13   1    5.35    2.45
   0   1 -13    6.08    2.35
   0  13   1    3.39    2.54
   0  13  -1    7.46    2.76
   0  -1  13    2.07    2.16
   0   1  13    2.73    2.24
  -1   0  13    3.81    2.35
   1  13   0    3.32    2.50
  -1  13   0    3.96    2.33
 -13   0   1    3.31    2.28
 -13  -1   0    3.88    2.49
   0  13   1   -0.12    2.36
   1   0  13    3.34    2.03
   0  -1  13    3.27    2.05
   1   1  13   51.80    3.51
   1  -1  13   51.43    3.71
  -1  -1  13   45.58    3.47
   1 -13   1   45.67    2.91
  -1 -13   1   44.89    2.96
  -1  13   1   54.23    4.30
   1   1  13   43.41    3.70
  -1  -1  13   45.15    3.77
  -1   1  13   47.92    3.91
   1  13   1   48.24    4.19
  -1  13   1   44.54    3.85
  -1  13  -1   55.63    4.14
 -13  -1   1   47.65    3.58
 -13   1   1   45.16    3.63
  -1  13   1   37.31    3.82
   1  13   1   38.69    3.65
  13   1  -1   42.61    3.37
   1  -1  13   39.18    3.42
 -13  -1   1   45.69    3.76
  13  -1  -1   41.64    3.19
  13   1   1   44.05    3.43
  13  -1   1   42.10    3.20
   2   0  13   43.04    3.48
   0   2 -13   42.66    3.62
   0  -2  13   40.81    3.55
  -2   0  13   41.14    3.21
   0 -13   2   35.97    2.75
  -2 -13   0   36.82    2.69
  -2   0  13   34.96    3.62
   0  13   2   36.44    3.74
  -2  13   0   36.72    3.55
 -13   0   2   42.45    3.42
   0  13   2   34.43    3.56
  13   0  -2   33.66    3.07
  13   2   0   35.32    3.25
  13  -2   0   36.31    2.86
   2   0  13   35.58    3.28
  13   0   2   36.13    3.08
   0  -2  13   37.72    3.39
  -1  13   2    3.27    2.55
  -2  13   1    0.24    2.17
  -1  -2  13    2.90    2.14
  -2  13  -1    2.06    2.38
  -2  -1  13    0.49    2.27
  -2   1  13   -0.39    2.27
  -1  13   2   -0.50    2.31
   1  13   2    1.97    2.22
  -1   2 -13    1.00    2.16
   2   1  13    2.56    2.19
  13   2  -1    0.10    2.03
  13  -2  -1    0.81    1.68
  13   1  -2    1.08    1.88
  13  -1  -2    2.66    1.81
   2  -1  13    1.22    2.25
  -1 -13   2    2.16    1.78
   1  -2  13    1.44    2.21
  -2 -13   1    2.25    1.73
  -1  -2  13    2.15    2.25
   2 -13   1    1.74    1.56
  -2  -1  13    4.37    2.22
   1 -13   2    3.92    1.74
  13   1   2    1.49    2.00
  13  -1   2   -1.22    1.93
  13   2   1    0.31    1.92
   1  -2  13    2.11    2.24
 -13  -1   2    3.39    2.25
 -13  -2   1    3.37    2.00
   2  -1  13    2.33    2.26
 -13  -2   1    1.15    2.32
  -2  13   2    2.74    2.85
  -2  -2  13   -0.12    2.12
  -2  13  -2    2.14    2.38
  -2  13   2   -1.71    2.46
  13   2  -2    0.41    2.04
  13  -2  -2    1.34    1.65
  -2 -13  -2    0.83    1.65
   2  -2  13   -0.64    2.32
  -2 -13   2   -0.37    1.77
   2 -13   2    0.42    1.63
  -2  -2  13   -0.58    2.20
  13   2   2   -0.74    2.07
 -13  -2   2   -0.97    2.23
   2  -2  13    1.08    2.36
   0   3 -13    2.89    2.21
  -3   0  13   -0.39    2.37
  -3  13   0    0.81    2.39
   0  13   3   -0.25    2.52
  13   3   0    1.88    2.09
   0 -13   3    0.84    1.87
   3   0  13    1.44    2.33
  13   0  -3    3.36    2.05
   0  -3  13    2.32    2.36
  -3 -13   0    1.88    1.69
   0  -3  13    1.89    2.26
  -3  -1  13   36.95    3.65
  -1  13   3   38.19    3.73
  -3  13   1   37.71    3.54
  -3  13  -1   42.49    3.58
  -1  13   3   34.26    3.79
   3   1  13   34.66    3.41
   1  13   3   37.00    3.71
   3  -1  13   34.67    3.47
   1  -3  13   36.37    3.47
  -1  -3  13   36.33    3.46
  -3  -1  13   36.15    3.23
   1 -13   3   37.55    3.00
  -1 -13   3   30.80    2.81
  -1   3 -13   30.78    3.37
  -3 -13   1   34.26    2.79
  -3 -13  -1   34.49    2.60
  13  -1  -3   32.11    2.97
  -1 -13  -3   33.69    2.97
  13   3  -1   32.78    3.31
  13   1  -3   33.86    3.17
   3  -1  13   31.57    3.40
   1  -3  13   39.81    3.51
  -1  -3  13   37.19    3.31
  13   3   1   31.66    3.19
  -2  13   3    2.50    2.78
  -2  -3  13   -0.98    2.07
  -2  13   3    0.26    2.38
  -3  -2  13    0.36    2.20
  -3  13  -2    3.41    2.51
  -3  13   2    0.59    2.36
   3  -2  13    4.12    2.50
  13  -2  -3    3.46    1.85
   2  -3  13    4.46    2.53
   3 -13   2    1.60    1.67
  -2 -13   3    0.56    1.83
   2 -13   3    1.48    1.87
  -2  -3  13    3.49    2.50
  -3 -13   2    3.03    1.94
  -3  -2  13    3.32    2.40
  13   3   2   -0.22    2.17
   2  -3  13    1.59    2.44
 -13  -3   2    2.76    1.99
 -13  -3   2    1.85    2.39
   3  -2  13    1.51    2.45
  -3  -3  13   25.35    3.00
  -3  13   3   21.69    3.22
  -3  13   3   33.26    4.05
   3 -13   3   27.31    2.68
  -3  -3  13   23.58    3.05
  -3 -13   3   24.05    2.76
  13  -3  -3   23.81    2.54
   3  -3  13   25.17    3.50
  -4  13   0    4.16    2.38
   0  13   4    3.42    2.68
  13   0  -4    3.24    2.14
   0  -4  13    2.57    2.48
   4   0  13    3.48    2.55
   0 -13   4    3.26    2.07
  -4  13   1   -0.69    2.36
  -4  13  -1    7.40    2.53
  -4  -1  13   -0.13    2.48
  -1  13   4    1.38    2.80
   4  -1  13    3.44    2.59
   1  13   4    0.87    2.56
  -1 -13   4    0.76    1.96
  13  -1  -4    4.91    2.06
  -1  -4  13    0.90    2.44
   1 -13   4    2.32    2.09
   1  -4  13    2.91    2.48
   4  -1  13    1.21    2.59
  -2  13   4   26.16    3.84
  -2  -4  13   23.15    2.90
  -4  -2  13   22.99    3.16
  -4  13  -2   28.84    3.40
  -4  13   2   17.97    3.04
   4  -2  13   24.37    3.32
  -2 -13   4   20.74    2.72
   2 -13   4   20.81    2.67
  -2  -4  13   28.81    3.31
  -4  -2  13   22.26    2.88
   2  -4  13   28.45    3.51
   4  -2  13   20.80    3.36
  13  -2  -4   22.30    2.61
  -3  13   4    0.79    2.55
  -4  13   3   -1.58    2.55
  -3  -4  13   -1.05    2.15
  -4  -3  13    0.92    2.30
  13  -3  -4    2.05    1.94
   4 -13   3   -0.46    1.95
   3 -13   4   -0.93    2.07
  -4 -13   3    0.95    2.06
  -4  -3  13    0.68    2.41
  -4  13   4    2.17    2.68
  -4  -4  13    5.55    2.46
   4 -13   4    4.91    2.19
  -5  13   0    5.99    2.55
   0  13   5    4.85    2.82
   5   0  13    3.00    2.75
   0 -13   5    4.24    2.20
  -5  13   1   31.32    3.43
  -5  13  -1   34.19    3.47
   1  13   5   32.03    3.86
   1 -13   5   36.97    3.25
  -5  13   2    0.23    2.49
   2 -13   5   -2.23    2.23
  -5  -3  13   29.46    3.40
  -5  13   3   28.77    3.52
  -5  -3  13   27.40    3.21
  -6  13   0   18.19    2.97
  -6  13  -1    0.22    2.33
  14   0   0   32.76    3.29
  14   1   0    0.99    2.32
  14   0  -1   -0.10    2.21
   1  -1  14    6.09    2.60
  14   1   1    4.92    2.42
   0  -2  14   82.17    5.11
  -1  14   2    1.60    2.90
  -2  14   1    2.98    3.11
  14  -1  -2    0.10    2.17
   2  -1  14    0.86    2.57
   1  -2  14    0.65    2.63
  -1  -2  14    1.56    2.53
  -2 -14   2    1.03    2.01
   0 -14   3   -0.33    2.19
  -1 -14   3    1.42    2.17
  -3 -14   2    3.20    2.21
   0   0   0    0.00    0.00


TITL Jianbo01_T3_P1_0314_auto in Pm-3m
REM Pm-3m (#221 in standard setting)
CELL 0.71073  10.484900  10.484900  10.484900  90.0000  90.0000  90.0000
ZERR    8.00   0.000226   0.000226   0.000226   0.0000   0.0000   0.0000
LATT  1
SYMM -x,-y, z
SYMM -x, y,-z
SYMM  x,-y,-z
SYMM  z, x, y
SYMM  z,-x,-y
SYMM -z,-x, y
SYMM -z, x,-y
SYMM  y, z, x
SYMM -y, z,-x
SYMM  y,-z,-x
SYMM -y,-z, x
SYMM  y, x,-z
SYMM -y,-x,-z
SYMM  y,-x, z
SYMM -y, x, z
SYMM  x, z,-y
SYMM -x, z, y
SYMM -x,-z,-y
SYMM  x,-z, y
SYMM  z, y,-x
SYMM  z,-y, x
SYMM -z, y, x
SYMM -z,-y,-x
SFAC Cl In Cs Au
UNIT 8.00 8.00 8.00 8.00
SIZE 0.12 0.17 0.19
TREF
HKLF 4
END
_computing_structure_solution     'SHELXT 2018/2 (Sheldrick, 2018)'
;
_shelx_hkl_checksum              13958
_olex2_submission_special_instructions 'No special instructions were received'
_oxdiff_exptl_absorpt_empirical_details
;
Empirical correction (ABSPACK) includes:
- Absorption correction using spherical harmonics
- Frame scaling
;
_oxdiff_exptl_absorpt_empirical_full_max 1.872
_oxdiff_exptl_absorpt_empirical_full_min 0.643
loop_
_space_group_symop_operation_xyz
'x, y, z'
'-x, -y, z'
'-x, y, -z'
'x, -y, -z'
'z, x, y'
'z, -x, -y'
'-z, -x, y'
'-z, x, -y'
'y, z, x'
'-y, z, -x'
'y, -z, -x'
'-y, -z, x'
'y, x, -z'
'-y, -x, -z'
'y, -x, z'
'-y, x, z'
'x, z, -y'
'-x, z, y'
'-x, -z, -y'
'x, -z, y'
'z, y, -x'
'z, -y, x'
'-z, y, x'
'-z, -y, -x'
'-x, -y, -z'
'x, y, -z'
'x, -y, z'
'-x, y, z'
'-z, -x, -y'
'-z, x, y'
'z, x, -y'
'z, -x, y'
'-y, -z, -x'
'y, -z, x'
'-y, z, x'
'y, z, -x'
'-y, -x, z'
'y, x, z'
'-y, x, -z'
'y, -x, -z'
'-x, -z, y'
'x, -z, -y'
'x, z, y'
'-x, z, -y'
'-z, -y, x'
'-z, y, -x'
'z, -y, -x'
'z, y, x'
loop_
_atom_site_label
_atom_site_type_symbol
_atom_site_fract_x
_atom_site_fract_y
_atom_site_fract_z
_atom_site_U_iso_or_equiv
_atom_site_adp_type
_atom_site_occupancy
_atom_site_site_symmetry_order
_atom_site_calc_flag
_atom_site_refinement_flags_posn
_atom_site_refinement_flags_adp
_atom_site_refinement_flags_occupancy
_atom_site_disorder_assembly
_atom_site_disorder_group
Au01 Au 0.000000 0.000000 0.500000 0.0439(5) Uani 0.8333 16 d S T P . 3
Cs02 Cs 0.25985(8) 0.25985(8) 0.25985(8) 0.0513(5) Uani 1 6 d S T P . .
In03 In 0.500000 0.500000 0.500000 0.0253(7) Uani 1 48 d S T P . .
Au04 Au 0.000000 0.000000 1.000000 0.0815(11) Uani 1 48 d S T P . 1
Cl05 Cl 0.2587(4) 0.500000 0.500000 0.0308(9) Uani 1 8 d S T P . .
Cl06 Cl 0.000000 0.2201(4) 0.500000 0.0573(12) Uani 1 4 d S T P . .
Cl07 Cl 0.000000 0.000000 0.7719(12) 0.102(4) Uani 0.8334 8 d S T P . .
In1 In 0.000000 0.000000 0.500000 0.0439(5) Uani 0.1667 16 d S T P . 4
loop_
_atom_site_aniso_label
_atom_site_aniso_U_11
_atom_site_aniso_U_22
_atom_site_aniso_U_33
_atom_site_aniso_U_23
_atom_site_aniso_U_13
_atom_site_aniso_U_12
Au01 0.0307(5) 0.0307(5) 0.0705(11) 0.000 0.000 0.000
Cs02 0.0513(5) 0.0513(5) 0.0513(5) -0.0053(3) -0.0053(3) -0.0053(3)
In03 0.0253(7) 0.0253(7) 0.0253(7) 0.000 0.000 0.000
Au04 0.0815(11) 0.0815(11) 0.0815(11) 0.000 0.000 0.000
Cl05 0.021(2) 0.0356(14) 0.0356(14) 0.000 0.000 0.000
Cl06 0.043(2) 0.036(2) 0.093(3) 0.000 0.000 0.000
Cl07 0.118(6) 0.118(6) 0.070(7) 0.000 0.000 0.000
In1 0.0307(5) 0.0307(5) 0.0705(11) 0.000 0.000 0.000
loop_
_atom_type_symbol
_atom_type_description
_atom_type_scat_dispersion_real
_atom_type_scat_dispersion_imag
_atom_type_scat_source
Au Au -2.0133 8.8022 'International Tables Vol C Tables 4.2.6.8 and 6.1.1.4'
Cl Cl 0.1484 0.1585 'International Tables Vol C Tables 4.2.6.8 and 6.1.1.4'
Cs Cs -0.3680 2.1192 'International Tables Vol C Tables 4.2.6.8 and 6.1.1.4'
In In -0.7276 1.3100 'International Tables Vol C Tables 4.2.6.8 and 6.1.1.4'
loop_
_exptl_crystal_face_index_h
_exptl_crystal_face_index_k
_exptl_crystal_face_index_l
_exptl_crystal_face_perp_dist
11 6 8 0.0828
-4 3 14 0.0385
-14 -4 0 0.0403
11 0 -10 0.1026
9 9 7 0.0883
6 -5 13 0.0551
-9 -10 -7 0.0745
-5 7 -12 0.1125
0 12 -8 0.1198
13 0 7 0.0655
7 -12 -5 0.0217
-7 12 5 0.0959
loop_
_geom_angle_atom_site_label_1
_geom_angle_atom_site_label_2
_geom_angle_atom_site_label_3
_geom_angle
_geom_angle_site_symmetry_1
_geom_angle_site_symmetry_3
_geom_angle_publ_flag
Cl06 Au01 Cl06 90.0 . 37 ?
Cl06 Au01 Cl06 90.000(1) 37 25_556 ?
Cl06 Au01 Cl06 180.0 . 25_556 ?
Cl06 Au01 Cl06 90.000(1) . 13_556 ?
Cl06 Au01 Cl06 180.0 37 13_556 ?
Cl06 Au01 Cl06 90.0 13_556 25_556 ?
Cl06 Au01 Cl07 90.000(1) 25_556 . ?
Cl06 Au01 Cl07 90.000(1) 37 . ?
Cl06 Au01 Cl07 90.000(1) . . ?
Cl06 Au01 Cl07 90.0 37 25_556 ?
Cl06 Au01 Cl07 90.000(1) 13_556 . ?
Cl06 Au01 Cl07 90.0 25_556 25_556 ?
Cl06 Au01 Cl07 90.0 . 25_556 ?
Cl06 Au01 Cl07 90.0 13_556 25_556 ?
Cl07 Au01 Cl07 180.0 25_556 . ?
Cl05 Cs02 Cl05 60.31(12) 5 . ?
Cl05 Cs02 Cl05 60.31(12) 5 9 ?
Cl05 Cs02 Cl05 60.31(12) 9 . ?
Cl05 Cs02 Cl06 66.40(8) 5 13_556 ?
Cl05 Cs02 Cl06 66.40(8) . . ?
Cl05 Cs02 Cl06 126.67(9) 5 9 ?
Cl05 Cs02 Cl06 126.67(9) 9 13_556 ?
Cl05 Cs02 Cl06 92.220(17) 9 41_565 ?
Cl05 Cs02 Cl06 92.220(17) . 13_556 ?
Cl05 Cs02 Cl06 92.220(17) 5 . ?
Cl05 Cs02 Cl06 66.40(8) 5 5 ?
Cl05 Cs02 Cl06 126.67(9) 5 41_565 ?
Cl05 Cs02 Cl06 92.220(17) 9 5 ?
Cl05 Cs02 Cl06 66.40(8) . 41_565 ?
Cl05 Cs02 Cl06 126.67(9) . 5 ?
Cl05 Cs02 Cl06 66.40(8) 9 9 ?
Cl05 Cs02 Cl06 92.220(17) 5 21 ?
Cl05 Cs02 Cl06 126.67(9) 9 . ?
Cl05 Cs02 Cl06 66.40(8) 9 21 ?
Cl05 Cs02 Cl06 126.67(9) . 21 ?
Cl05 Cs02 Cl06 92.220(17) . 9 ?
Cl05 Cs02 Cl07 123.83(16) 5 25_556 ?
Cl05 Cs02 Cl07 123.83(16) . 33_565 ?
Cl05 Cs02 Cl07 123.83(16) 9 29_655 ?
Cl05 Cs02 Cl07 174.9(2) 9 25_556 ?
Cl05 Cs02 Cl07 123.83(16) 5 29_655 ?
Cl05 Cs02 Cl07 174.9(2) 5 33_565 ?
Cl05 Cs02 Cl07 174.9(2) . 29_655 ?
Cl05 Cs02 Cl07 123.83(16) 9 33_565 ?
Cl05 Cs02 Cl07 123.83(16) . 25_556 ?
Cl06 Cs02 Cl06 166.41(14) 5 41_565 ?
Cl06 Cs02 Cl06 119.082(15) 21 41_565 ?
Cl06 Cs02 Cl06 119.082(15) 5 9 ?
Cl06 Cs02 Cl06 51.84(12) 13_556 . ?
Cl06 Cs02 Cl06 119.082(15) 13_556 41_565 ?
Cl06 Cs02 Cl06 119.081(15) 5 . ?
Cl06 Cs02 Cl06 119.082(15) 13_556 21 ?
Cl06 Cs02 Cl06 166.41(14) 21 . ?
Cl06 Cs02 Cl06 51.84(12) 41_565 9 ?
Cl06 Cs02 Cl06 67.54(11) 41_565 . ?
Cl06 Cs02 Cl06 166.41(14) 13_556 9 ?
Cl06 Cs02 Cl06 119.082(15) 9 . ?
Cl06 Cs02 Cl06 67.54(11) 21 9 ?
Cl06 Cs02 Cl06 67.54(11) 13_556 5 ?
Cl06 Cs02 Cl06 51.84(12) 5 21 ?
Cl06 Cs02 Cl07 109.49(16) . 29_655 ?
Cl06 Cs02 Cl07 109.49(16) 41_565 29_655 ?
Cl06 Cs02 Cl07 57.68(17) 9 33_565 ?
Cl06 Cs02 Cl07 87.22(3) 13_556 29_655 ?
Cl06 Cs02 Cl07 57.68(17) 41_565 33_565 ?
Cl06 Cs02 Cl07 57.68(17) 5 29_655 ?
Cl06 Cs02 Cl07 87.22(3) . 33_565 ?
Cl06 Cs02 Cl07 109.49(16) 13_556 33_565 ?
Cl06 Cs02 Cl07 57.67(17) . 25_556 ?
Cl06 Cs02 Cl07 109.49(16) 5 33_565 ?
Cl06 Cs02 Cl07 87.22(3) 41_565 25_556 ?
Cl06 Cs02 Cl07 109.49(16) 9 25_556 ?
Cl06 Cs02 Cl07 57.68(17) 21 29_655 ?
Cl06 Cs02 Cl07 57.68(17) 13_556 25_556 ?
Cl06 Cs02 Cl07 87.22(3) 9 29_655 ?
Cl06 Cs02 Cl07 87.22(3) 5 25_556 ?
Cl06 Cs02 Cl07 109.49(16) 21 25_556 ?
Cl06 Cs02 Cl07 87.22(3) 21 33_565 ?
Cl07 Cs02 Cl07 51.9(3) 25_556 29_655 ?
Cl07 Cs02 Cl07 51.9(3) 33_565 29_655 ?
Cl07 Cs02 Cl07 51.9(3) 25_556 33_565 ?
Cs02 In03 Cs02 70.5 . 28_655 ?
Cs02 In03 Cs02 109.471(1) 25_666 27_565 ?
Cs02 In03 Cs02 180.000(17) 2_665 26_556 ?
Cs02 In03 Cs02 109.471(1) 26_556 27_565 ?
Cs02 In03 Cs02 109.5 27_565 28_655 ?
Cs02 In03 Cs02 70.5 . 26_556 ?
Cs02 In03 Cs02 70.5 2_665 28_655 ?
Cs02 In03 Cs02 109.5 25_666 26_556 ?
Cs02 In03 Cs02 180.0 . 25_666 ?
Cs02 In03 Cs02 70.529(1) . 27_565 ?
Cs02 In03 Cs02 70.5 25_666 2_665 ?
Cs02 In03 Cs02 70.5 2_665 27_565 ?
Cs02 In03 Cs02 109.5 25_666 28_655 ?
Cs02 In03 Cs02 109.5 26_556 28_655 ?
Cs02 In03 Cs02 109.5 . 2_665 ?
Cl05 In03 Cs02 125.3 5 2_665 ?
Cl05 In03 Cs02 54.7 29_666 27_565 ?
Cl05 In03 Cs02 125.3 33_666 28_655 ?
Cl05 In03 Cs02 54.7 25_666 2_665 ?
Cl05 In03 Cs02 54.7 9 . ?
Cl05 In03 Cs02 125.3 . 2_665 ?
Cl05 In03 Cs02 125.3 33_666 27_565 ?
Cl05 In03 Cs02 54.7 9 28_655 ?
Cl05 In03 Cs02 125.3 25_666 27_565 ?
Cl05 In03 Cs02 54.7 5 . ?
Cl05 In03 Cs02 125.3 33_666 2_665 ?
Cl05 In03 Cs02 54.7 25_666 28_655 ?
Cl05 In03 Cs02 125.3 33_666 . ?
Cl05 In03 Cs02 125.3 25_666 . ?
Cl05 In03 Cs02 54.7 9 27_565 ?
Cl05 In03 Cs02 54.7 . . ?
Cl05 In03 Cs02 125.3 5 27_565 ?
Cl05 In03 Cs02 125.3 9 25_666 ?
Cl05 In03 Cs02 54.7 . 27_565 ?
Cl05 In03 Cs02 125.3 25_666 26_556 ?
Cl05 In03 Cs02 125.3 29_666 . ?
Cl05 In03 Cs02 54.7 . 26_556 ?
Cl05 In03 Cs02 54.7 9 2_665 ?
Cl05 In03 Cs02 54.7 29_666 25_666 ?
Cl05 In03 Cs02 54.7 29_666 2_665 ?
Cl05 In03 Cs02 125.3 29_666 28_655 ?
Cl05 In03 Cs02 54.7 5 28_655 ?
Cl05 In03 Cs02 125.3 5 25_666 ?
Cl05 In03 Cs02 125.3 . 28_655 ?
Cl05 In03 Cs02 54.7 33_666 26_556 ?
Cl05 In03 Cs02 54.7 25_666 25_666 ?
Cl05 In03 Cs02 125.3 9 26_556 ?
Cl05 In03 Cs02 125.3 . 25_666 ?
Cl05 In03 Cs02 125.3 29_666 26_556 ?
Cl05 In03 Cs02 54.7 5 26_556 ?
Cl05 In03 Cs02 54.7 33_666 25_666 ?
Cl05 In03 Cl05 90.0 9 5 ?
Cl05 In03 Cl05 90.0 29_666 . ?
Cl05 In03 Cl05 90.0 33_666 29_666 ?
Cl05 In03 Cl05 180.0 29_666 5 ?
Cl05 In03 Cl05 180.0 25_666 . ?
Cl05 In03 Cl05 90.000(1) 33_666 25_666 ?
Cl05 In03 Cl05 90.000(1) 9 . ?
Cl05 In03 Cl05 90.0 9 25_666 ?
Cl05 In03 Cl05 90.000(1) 5 . ?
Cl05 In03 Cl05 90.000(1) 29_666 25_666 ?
Cl05 In03 Cl05 180.0 33_666 9 ?
Cl05 In03 Cl05 90.0 5 25_666 ?
Cl05 In03 Cl05 90.0 33_666 5 ?
Cl05 In03 Cl05 90.0 33_666 . ?
Cl05 In03 Cl05 90.0 9 29_666 ?
Cl07 Au04 Cl07 180.0 . 25_557 ?
Cl07 Au04 Cl07 90.000(2) . 9_546 ?
Cl07 Au04 Cl07 90.000(1) 29_656 9_546 ?
Cl07 Au04 Cl07 90.000(1) 33_566 25_557 ?
Cl07 Au04 Cl07 90.0 25_557 9_546 ?
Cl07 Au04 Cl07 90.000(2) . 5_456 ?
Cl07 Au04 Cl07 180.0 5_456 29_656 ?
Cl07 Au04 Cl07 90.000(1) 33_566 5_456 ?
Cl07 Au04 Cl07 180.0 33_566 9_546 ?
Cl07 Au04 Cl07 90.0 . 29_656 ?
Cl07 Au04 Cl07 90.000(3) 5_456 9_546 ?
Cl07 Au04 Cl07 90.000(3) 33_566 29_656 ?
Cl07 Au04 Cl07 90.000(2) 25_557 29_656 ?
Cl07 Au04 Cl07 90.0 . 33_566 ?
Cl07 Au04 Cl07 90.0 25_557 5_456 ?
Cs02 Cl05 Cs02 179.62(14) . 4_566 ?
Cs02 Cl05 Cs02 89.999(1) 4_566 26_556 ?
Cs02 Cl05 Cs02 89.999(1) . 26_556 ?
Cs02 Cl05 Cs02 89.999(1) . 27_565 ?
Cs02 Cl05 Cs02 179.62(14) 27_565 26_556 ?
Cs02 Cl05 Cs02 89.999(1) 4_566 27_565 ?
In03 Cl05 Cs02 89.81(7) . 4_566 ?
In03 Cl05 Cs02 89.81(7) . 27_565 ?
In03 Cl05 Cs02 89.81(7) . . ?
In03 Cl05 Cs02 89.81(7) . 26_556 ?
Au01 Cl06 Cs02 96.41(7) . . ?
Cs02 Cl06 Cs02 84.83(4) 26_556 . ?
Cs02 Cl06 Cs02 167.18(14) 26_556 28 ?
Cs02 Cl06 Cs02 93.74(4) 26_556 3_556 ?
Cs02 Cl06 Cs02 167.18(14) 3_556 . ?
Cs02 Cl06 Cs02 84.83(4) 28 3_556 ?
Cs02 Cl06 Cs02 93.74(4) 28 . ?
In1 Cl06 Cs02 96.41(7) . . ?
Cs02 Cl07 Cs02 89.58(3) 25_556 3_556 ?
Cs02 Cl07 Cs02 89.58(3) 26_556 4_556 ?
Cs02 Cl07 Cs02 170.1(4) 25_556 26_556 ?
Cs02 Cl07 Cs02 170.1(4) 4_556 3_556 ?
Cs02 Cl07 Cs02 89.58(3) 25_556 4_556 ?
Cs02 Cl07 Cs02 89.58(3) 26_556 3_556 ?
Au04 Cl07 Cs02 94.94(18) . 3_556 ?
Au04 Cl07 Cs02 94.94(18) . 26_556 ?
Au04 Cl07 Cs02 94.94(18) . 4_556 ?
Au04 Cl07 Cs02 94.94(18) . 25_556 ?
Cl06 In1 Cl06 90.000(1) 37 25_556 ?
Cl06 In1 Cl06 180.0 . 25_556 ?
Cl06 In1 Cl06 90.0 . 37 ?
Cl06 In1 Cl06 180.0 37 13_556 ?
Cl06 In1 Cl06 90.000(1) . 13_556 ?
Cl06 In1 Cl06 90.0 13_556 25_556 ?
Cl06 In1 Cl07 90.0 . 25_556 ?
Cl06 In1 Cl07 90.000(1) 37 . ?
Cl06 In1 Cl07 90.000(1) 25_556 . ?
Cl06 In1 Cl07 90.0 37 25_556 ?
Cl06 In1 Cl07 90.000(1) 13_556 . ?
Cl06 In1 Cl07 90.0 13_556 25_556 ?
Cl06 In1 Cl07 90.0 25_556 25_556 ?
Cl06 In1 Cl07 90.000(1) . . ?
Cl07 In1 Cl07 180.0 25_556 . ?
loop_
_geom_bond_atom_site_label_1
_geom_bond_atom_site_label_2
_geom_bond_distance
_geom_bond_site_symmetry_2
_geom_bond_publ_flag
Au01 Cl06 2.308(5) . ?
Au01 Cl06 2.308(5) 13_556 ?
Au01 Cl06 2.308(5) 37 ?
Au01 Cl06 2.308(5) 25_556 ?
Au01 Cl07 2.851(12) 25_556 ?
Au01 Cl07 2.851(12) . ?
Cs02 Cl05 3.5610(11) 5 ?
Cs02 Cl05 3.5610(11) 9 ?
Cs02 Cl05 3.5610(11) . ?
Cs02 Cl06 3.7332(5) 13_556 ?
Cs02 Cl06 3.7332(5) . ?
Cs02 Cl06 3.7332(5) 9 ?
Cs02 Cl06 3.7332(5) 5 ?
Cs02 Cl06 3.7332(5) 21 ?
Cs02 Cl06 3.7332(5) 41_565 ?
Cs02 Cl07 3.8674(17) 33_565 ?
Cs02 Cl07 3.8674(17) 29_655 ?
Cs02 Cl07 3.8674(17) 25_556 ?
In03 Cl05 2.530(4) 33_666 ?
In03 Cl05 2.530(4) 25_666 ?
In03 Cl05 2.530(4) 5 ?
In03 Cl05 2.530(4) 9 ?
In03 Cl05 2.530(4) 29_666 ?
In03 Cl05 2.530(4) . ?
Au04 Cl07 2.391(12) 33_566 ?
Au04 Cl07 2.391(12) 9_546 ?
Au04 Cl07 2.391(12) 29_656 ?
Au04 Cl07 2.391(12) 25_557 ?
Au04 Cl07 2.391(12) 5_456 ?
Au04 Cl07 2.391(12) . ?
Cl06 In1 2.308(5) . ?
Cl07 In1 2.851(12) . ?
loop_
_exptl_oxdiff_crystal_face_indexfrac_h
_exptl_oxdiff_crystal_face_indexfrac_k
_exptl_oxdiff_crystal_face_indexfrac_l
_exptl_oxdiff_crystal_face_x
_exptl_oxdiff_crystal_face_y
_exptl_oxdiff_crystal_face_z
10.6615 5.8343 8.4073 -0.0366 -0.1470 0.9885
-4.2462 2.7591 13.9050 0.1957 0.8216 0.5354
-14.0902 -4.4682 -0.1048 0.1638 0.6811 -0.7137
10.7299 0.3792 -10.1834 -0.2325 -0.9726 -0.0092
8.8277 9.4955 7.0800 0.2486 -0.1923 0.9493
6.2307 -4.5375 12.6215 -0.5533 0.4223 0.7180
-8.8048 -9.5890 -6.9814 -0.2557 0.1976 -0.9463
-5.1122 6.5167 -12.2508 0.6351 -0.4852 -0.6010
0.1232 12.3150 -8.1651 0.7934 -0.6075 -0.0387
12.8286 -0.2759 7.3393 -0.4617 -0.1936 0.8657
6.9786 -11.8968 -5.2966 -0.8890 -0.3686 -0.2716
-7.2751 11.8212 5.0621 0.8952 0.3713 0.2464
