#------------------------------------------------------------------------------
#$Date: 2021-07-06 04:26:30 +0300 (Tue, 06 Jul 2021) $
#$Revision: 267261 $
#$URL: file:///home/coder/svn-repositories/cod/cif/1/56/39/1563946.cif $
#------------------------------------------------------------------------------
#
# This file is available in the Crystallography Open Database (COD),
# http://www.crystallography.net/
#
# All data on this site have been placed in the public domain by the
# contributors.
#
data_1563946
loop_
_publ_author_name
'Xiong, Zuping'
'Zhang, Xiaoxiao'
'Liu, Longxiang'
'Zhu, Qiaozhi'
'Wang, Zhenni'
'Feng, Hui'
'Qian, Zhaosheng'
_publ_section_title
;
 Achieving Highly Efficient Aggregation-Induced Emission, Reversible and
 Irreversible Photochromism by Heavy Halogen-Regulated Photophysics and
 D-A Molecular Pattern-Controlled Photochemistry of Through-Space
 Conjugated Lumingens
;
_journal_name_full               'Chemical Science'
_journal_paper_doi               10.1039/D1SC02168K
_journal_year                    2021
_chemical_formula_moiety         'C21 H14 Cl N'
_chemical_formula_sum            'C21 H14 Cl N'
_chemical_formula_weight         315.78
_chemical_name_common            TPAN-Cl
_space_group_crystal_system      triclinic
_space_group_IT_number           2
_space_group_name_Hall           '-P 1'
_space_group_name_H-M_alt        'P -1'
_atom_sites_solution_hydrogens   geom
_atom_sites_solution_primary     direct
_audit_creation_date             2020-01-01
_audit_creation_method
;
Olex2 1.2
(compiled 2018.05.29 svn.r3508 for OlexSys, GUI svn.r5506)
;
_audit_update_record
;
2021-01-06 deposited with the CCDC.	2021-07-05 downloaded from the CCDC.
;
_cell_angle_alpha                63.11(2)
_cell_angle_beta                 79.79(2)
_cell_angle_gamma                81.27(3)
_cell_formula_units_Z            2
_cell_length_a                   9.509(9)
_cell_length_b                   9.570(10)
_cell_length_c                   10.324(10)
_cell_measurement_reflns_used    1374
_cell_measurement_temperature    293(2)
_cell_measurement_theta_max      21.17
_cell_measurement_theta_min      2.39
_cell_volume                     821.9(14)
_computing_cell_refinement       'SAINT V8.38A (?, 2016)'
_computing_data_reduction        'SAINT V8.38A (?, 2016)'
_computing_molecular_graphics    'Olex2 (Dolomanov et al., 2009)'
_computing_publication_material  'Olex2 (Dolomanov et al., 2009)'
_computing_structure_refinement  'XL (Sheldrick, 2008)'
_computing_structure_solution    'XS (Sheldrick, 2008)'
_diffrn_ambient_temperature      293.0
_diffrn_measured_fraction_theta_full 0.999
_diffrn_measured_fraction_theta_max 0.985
_diffrn_measurement_device_type  'Bruker APEX-II CCD'
_diffrn_measurement_method       '\f and \w scans'
_diffrn_radiation_type           MoK\a
_diffrn_radiation_wavelength     0.71073
_diffrn_reflns_av_R_equivalents  0.1668
_diffrn_reflns_av_unetI/netI     0.1316
_diffrn_reflns_Laue_measured_fraction_full 0.999
_diffrn_reflns_Laue_measured_fraction_max 0.985
_diffrn_reflns_limit_h_max       12
_diffrn_reflns_limit_h_min       -12
_diffrn_reflns_limit_k_max       12
_diffrn_reflns_limit_k_min       -12
_diffrn_reflns_limit_l_max       12
_diffrn_reflns_limit_l_min       -13
_diffrn_reflns_number            15991
_diffrn_reflns_point_group_measured_fraction_full 0.999
_diffrn_reflns_point_group_measured_fraction_max 0.985
_diffrn_reflns_theta_full        25.242
_diffrn_reflns_theta_max         27.409
_diffrn_reflns_theta_min         2.229
_diffrn_standards_number         0
_exptl_absorpt_coefficient_mu    0.231
_exptl_absorpt_correction_T_max  0.7455
_exptl_absorpt_correction_T_min  0.5549
_exptl_absorpt_correction_type   none
_exptl_absorpt_process_details
;
SADABS-2016/2 (Bruker,2016/2) was used for absorption correction.
wR2(int) was 0.1294 before and 0.0977 after correction.
The Ratio of minimum to maximum transmission is 0.7443.
The \l/2 correction factor is Not present.
;
_exptl_crystal_density_diffrn    1.276
_exptl_crystal_F_000             328
_refine_diff_density_max         0.200
_refine_diff_density_min         -0.231
_refine_diff_density_rms         0.050
_refine_ls_extinction_method     none
_refine_ls_goodness_of_fit_ref   1.030
_refine_ls_hydrogen_treatment    constr
_refine_ls_matrix_type           full
_refine_ls_number_parameters     208
_refine_ls_number_reflns         3691
_refine_ls_number_restraints     0
_refine_ls_restrained_S_all      1.030
_refine_ls_R_factor_all          0.1979
_refine_ls_R_factor_gt           0.0786
_refine_ls_shift/su_max          0.000
_refine_ls_shift/su_mean         0.000
_refine_ls_structure_factor_coef Fsqd
_refine_ls_weighting_details
'w=1/[\s^2^(Fo^2^)+(0.0800P)^2^+0.1728P] where P=(Fo^2^+2Fc^2^)/3'
_refine_ls_weighting_scheme      calc
_refine_ls_wR_factor_gt          0.1790
_refine_ls_wR_factor_ref         0.2388
_reflns_Friedel_coverage         0.000
_reflns_number_gt                1509
_reflns_number_total             3691
_reflns_threshold_expression     'I > 2\s(I)'
_iucr_refine_instructions_details
;

    a.res created by SHELXL-2014/7

TITL A in P-1 #2
REM reset to P-1 #2
CELL 0.71073 9.509 9.5701 10.324 63.1138 79.7898 81.266
ZERR 2 0.0093 0.0095 0.0095 0.0235 0.0236 0.0261
LATT 1
SFAC C H Cl N
UNIT 42 28 2 2
 
L.S. 4 0 0
PLAN  10
TEMP 19.85
fmap 2 53
ACTA
REM <olex2.extras>
REM <HklSrc "%.\\A.hkl">
REM </olex2.extras>
 
WGHT    0.080000    0.172800
FVAR       0.37813
CL    3    0.931100    0.675587    0.057650    11.00000    0.06585    0.09760 =
         0.12012   -0.04347    0.02168   -0.03194
N1    4    1.423795    1.282222   -0.193158    11.00000    0.07215    0.07974 =
         0.10237   -0.05300    0.01059   -0.01703
C1    1    1.586184    0.984758   -0.285921    11.00000    0.04615    0.05143 =
         0.04767   -0.02112   -0.00413   -0.00311
C2    1    1.462252    1.020823   -0.216237    11.00000    0.04681    0.05538 =
         0.04975   -0.02248   -0.00663   -0.00230
C3    1    1.697290    1.097537   -0.367647    11.00000    0.04477    0.06118 =
         0.05320   -0.03128    0.00170   -0.00717
C4    1    1.663785    1.250443   -0.469945    11.00000    0.05526    0.05875 =
         0.06312   -0.02993   -0.00170   -0.00951
AFIX  43
H4    2    1.568821    1.285016   -0.485946    11.00000   -1.20000
AFIX   0
C5    1    1.769902    1.351105   -0.547750    11.00000    0.07879    0.05912 =
         0.06455   -0.02781    0.00507   -0.01317
AFIX  43
H5    2    1.745872    1.452881   -0.615799    11.00000   -1.20000
AFIX   0
C6    1    1.910657    1.302574   -0.525753    11.00000    0.06703    0.08068 =
         0.08930   -0.04692    0.01282   -0.02927
AFIX  43
H6    2    1.981550    1.371501   -0.578027    11.00000   -1.20000
AFIX   0
C7    1    1.946613    1.151496   -0.426038    11.00000    0.04678    0.09184 =
         0.09663   -0.04646    0.00356   -0.01495
AFIX  43
H7    2    2.041664    1.118342   -0.409620    11.00000   -1.20000
AFIX   0
C8    1    1.840656    1.049448   -0.350518    11.00000    0.05037    0.07233 =
         0.07042   -0.03313   -0.00026   -0.00837
AFIX  43
H8    2    1.866062    0.946114   -0.286719    11.00000   -1.20000
AFIX   0
C9    1    1.621511    0.826444   -0.282486    11.00000    0.03985    0.05318 =
         0.05313   -0.02005   -0.00340   -0.00405
C10   1    1.667048    0.813712   -0.412405    11.00000    0.05653    0.05234 =
         0.05797   -0.02295   -0.00112   -0.00123
AFIX  43
H10   2    1.674090    0.904409   -0.500287    11.00000   -1.20000
AFIX   0
C11   1    1.701867    0.669658   -0.413481    11.00000    0.05792    0.06493 =
         0.07125   -0.03597   -0.00205   -0.00627
AFIX  43
H11   2    1.731869    0.663276   -0.501557    11.00000   -1.20000
AFIX   0
C12   1    1.692346    0.535146   -0.284473    11.00000    0.06537    0.05821 =
         0.09340   -0.03875   -0.00461   -0.00170
AFIX  43
H12   2    1.713798    0.437425   -0.285295    11.00000   -1.20000
AFIX   0
C13   1    1.651411    0.544546   -0.154851    11.00000    0.08014    0.05172 =
         0.07179   -0.01088   -0.00194    0.00075
AFIX  43
H13   2    1.647289    0.453175   -0.067421    11.00000   -1.20000
AFIX   0
C14   1    1.615833    0.690117   -0.152890    11.00000    0.06363    0.06780 =
         0.05273   -0.01973   -0.00324   -0.00380
AFIX  43
H14   2    1.588173    0.695752   -0.064230    11.00000   -1.20000
AFIX   0
C15   1    1.336495    0.927144   -0.145336    11.00000    0.04513    0.04944 =
         0.04955   -0.01928   -0.00192   -0.00184
C16   1    1.286846    0.843313   -0.205894    11.00000    0.05407    0.05469 =
         0.05609   -0.02190   -0.00117   -0.00925
AFIX  43
H16   2    1.337984    0.839571   -0.290003    11.00000   -1.20000
AFIX   0
C17   1    1.163185    0.765183   -0.144257    11.00000    0.05727    0.06223 =
         0.06611   -0.02704   -0.00828   -0.01123
AFIX  43
H17   2    1.131475    0.710326   -0.186924    11.00000   -1.20000
AFIX   0
C18   1    1.087638    0.769541   -0.019139    11.00000    0.05690    0.05921 =
         0.06556   -0.02028   -0.00272   -0.00896
C19   1    1.133997    0.850957    0.043993    11.00000    0.05861    0.07074 =
         0.06316   -0.02860    0.00757   -0.00300
AFIX  43
H19   2    1.083311    0.852868    0.129011    11.00000   -1.20000
AFIX   0
C20   1    1.256807    0.930022   -0.020207    11.00000    0.05387    0.07184 =
         0.06239   -0.03376    0.00000   -0.00771
AFIX  43
H20   2    1.286704    0.986649    0.021752    11.00000   -1.20000
AFIX   0
C21   1    1.444442    1.168311   -0.205982    11.00000    0.05042    0.06628 =
         0.06924   -0.03512    0.00479   -0.01057
HKLF 4
 
REM  A in P-1 #2
REM R1 =  0.0786 for    1509 Fo > 4sig(Fo)  and  0.1979 for all    3691 data
REM    208 parameters refined using      0 restraints
 
END  
     
WGHT      0.0800      0.1728 

REM Highest difference peak  0.200,  deepest hole -0.231,  1-sigma level  0.050
Q1    1   0.9881  0.5223  0.0713  11.00000  0.05    0.20
Q2    1   1.0673  0.6018  0.1039  11.00000  0.05    0.19
Q3    1   1.6855  1.2398 -0.3527  11.00000  0.05    0.19
Q4    1   1.9816  1.5256 -0.5541  11.00000  0.05    0.18
Q5    1   1.2856  1.0792 -0.1601  11.00000  0.05    0.18
Q6    1   1.0405  0.5987 -0.1830  11.00000  0.05    0.17
Q7    1   1.5596  1.3242 -0.6008  11.00000  0.05    0.17
Q8    1   1.8377  1.3037 -0.5757  11.00000  0.05    0.16
Q9    1   0.9997  0.5760  0.1742  11.00000  0.05    0.16
Q10   1   1.5932  1.3624 -0.4366  11.00000  0.05    0.16

  REM The information below was added by Olex2.
  REM
  REM R1 = 0.0786 for 1509 Fo > 4sig(Fo) and 0.1979 for all 15991 data
  REM n/a parameters refined using n/a restraints
  REM Highest difference peak 0.20, deepest hole -0.23
  REM Mean Shift 0, Max Shift 0.000.

  REM +++ Tabular Listing of Refinement Information +++
  REM R1_all = 0.1979
  REM R1_gt = 0.0786
  REM wR_ref = 0.2388
  REM GOOF = 1.030
  REM Shift_max = 0.000
  REM Shift_mean = 0
  REM Reflections_all = 15991
  REM Reflections_gt = 1509
  REM Parameters = n/a
  REM Hole = -0.23
  REM Peak = 0.20
  REM Flack = n/a

  
;
_cod_data_source_file            d1sc02168k2.cif
_cod_data_source_block           a
_cod_database_code               1563946
_shelx_shelxl_version_number     2014/7
_shelx_space_group_comment
;
The symmetry employed for this shelxl refinement is uniquely defined
by the following loop, which should always be used as a source of
symmetry information in preference to the above space-group names.
They are only intended as comments.
;
_olex2_refinement_description
;
1. Fixed Uiso
 At 1.2 times of:
  All C(H) groups
2.a Aromatic/amide H refined with riding coordinates:
 C4(H4), C5(H5), C6(H6), C7(H7), C8(H8), C10(H10), C11(H11), C12(H12),
 C13(H13), C14(H14), C16(H16), C17(H17), C19(H19), C20(H20)
;
_olex2_submission_special_instructions 'No special instructions were received'
loop_
_space_group_symop_operation_xyz
'x, y, z'
'-x, -y, -z'
loop_
_atom_site_label
_atom_site_type_symbol
_atom_site_fract_x
_atom_site_fract_y
_atom_site_fract_z
_atom_site_U_iso_or_equiv
_atom_site_adp_type
_atom_site_occupancy
_atom_site_site_symmetry_order
_atom_site_calc_flag
_atom_site_refinement_flags_posn
_atom_site_refinement_flags_adp
_atom_site_refinement_flags_occupancy
_atom_site_disorder_assembly
_atom_site_disorder_group
Cl Cl 0.93110(14) 0.67559(17) 0.05765(17) 0.0977(6) Uani 1 1 d . . . . .
N1 N 1.4238(4) 1.2822(5) -0.1932(5) 0.0813(13) Uani 1 1 d . . . . .
C1 C 1.5862(4) 0.9848(4) -0.2859(4) 0.0490(10) Uani 1 1 d . . . . .
C2 C 1.4623(4) 1.0208(5) -0.2162(4) 0.0510(10) Uani 1 1 d . . . . .
C3 C 1.6973(4) 1.0975(5) -0.3676(4) 0.0514(10) Uani 1 1 d . . . . .
C4 C 1.6638(5) 1.2504(5) -0.4699(5) 0.0580(11) Uani 1 1 d . . . . .
H4 H 1.5688 1.2850 -0.4859 0.070 Uiso 1 1 calc R . . . .
C5 C 1.7699(5) 1.3511(5) -0.5477(5) 0.0682(13) Uani 1 1 d . . . . .
H5 H 1.7459 1.4529 -0.6158 0.082 Uiso 1 1 calc R . . . .
C6 C 1.9107(5) 1.3026(6) -0.5258(6) 0.0756(14) Uani 1 1 d . . . . .
H6 H 1.9815 1.3715 -0.5780 0.091 Uiso 1 1 calc R . . . .
C7 C 1.9466(5) 1.1515(6) -0.4260(6) 0.0770(14) Uani 1 1 d . . . . .
H7 H 2.0417 1.1183 -0.4096 0.092 Uiso 1 1 calc R . . . .
C8 C 1.8407(4) 1.0494(6) -0.3505(5) 0.0642(12) Uani 1 1 d . . . . .
H8 H 1.8661 0.9461 -0.2867 0.077 Uiso 1 1 calc R . . . .
C9 C 1.6215(4) 0.8264(5) -0.2825(4) 0.0502(10) Uani 1 1 d . . . . .
C10 C 1.6670(4) 0.8137(5) -0.4124(5) 0.0572(11) Uani 1 1 d . . . . .
H10 H 1.6741 0.9044 -0.5003 0.069 Uiso 1 1 calc R . . . .
C11 C 1.7019(4) 0.6697(5) -0.4135(5) 0.0630(12) Uani 1 1 d . . . . .
H11 H 1.7319 0.6633 -0.5016 0.076 Uiso 1 1 calc R . . . .
C12 C 1.6923(5) 0.5351(6) -0.2845(6) 0.0713(14) Uani 1 1 d . . . . .
H12 H 1.7138 0.4374 -0.2853 0.086 Uiso 1 1 calc R . . . .
C13 C 1.6514(5) 0.5445(6) -0.1549(6) 0.0758(14) Uani 1 1 d . . . . .
H13 H 1.6473 0.4532 -0.0674 0.091 Uiso 1 1 calc R . . . .
C14 C 1.6158(5) 0.6901(5) -0.1529(5) 0.0646(12) Uani 1 1 d . . . . .
H14 H 1.5882 0.6958 -0.0642 0.078 Uiso 1 1 calc R . . . .
C15 C 1.3365(4) 0.9271(5) -0.1453(4) 0.0497(10) Uani 1 1 d . . . . .
C16 C 1.2868(4) 0.8433(5) -0.2059(5) 0.0560(11) Uani 1 1 d . . . . .
H16 H 1.3380 0.8396 -0.2900 0.067 Uiso 1 1 calc R . . . .
C17 C 1.1632(4) 0.7652(5) -0.1443(5) 0.0614(12) Uani 1 1 d . . . . .
H17 H 1.1315 0.7103 -0.1869 0.074 Uiso 1 1 calc R . . . .
C18 C 1.0876(4) 0.7695(5) -0.0191(5) 0.0634(12) Uani 1 1 d . . . . .
C19 C 1.1340(5) 0.8510(5) 0.0440(5) 0.0667(13) Uani 1 1 d . . . . .
H19 H 1.0833 0.8529 0.1290 0.080 Uiso 1 1 calc R . . . .
C20 C 1.2568(4) 0.9300(5) -0.0202(5) 0.0617(12) Uani 1 1 d . . . . .
H20 H 1.2867 0.9866 0.0218 0.074 Uiso 1 1 calc R . . . .
C21 C 1.4444(4) 1.1683(6) -0.2060(5) 0.0609(12) Uani 1 1 d . . . . .
loop_
_atom_site_aniso_label
_atom_site_aniso_U_11
_atom_site_aniso_U_22
_atom_site_aniso_U_33
_atom_site_aniso_U_23
_atom_site_aniso_U_13
_atom_site_aniso_U_12
Cl 0.0659(8) 0.0976(11) 0.1201(12) -0.0435(9) 0.0217(7) -0.0319(7)
N1 0.072(3) 0.080(3) 0.102(3) -0.053(3) 0.011(2) -0.017(2)
C1 0.046(2) 0.051(2) 0.048(2) -0.021(2) -0.0041(18) -0.0031(19)
C2 0.047(2) 0.055(3) 0.050(2) -0.022(2) -0.0066(19) -0.0023(19)
C3 0.045(2) 0.061(3) 0.053(2) -0.031(2) 0.0017(19) -0.007(2)
C4 0.055(3) 0.059(3) 0.063(3) -0.030(2) -0.002(2) -0.010(2)
C5 0.079(3) 0.059(3) 0.065(3) -0.028(2) 0.005(2) -0.013(3)
C6 0.067(3) 0.081(4) 0.089(4) -0.047(3) 0.013(3) -0.029(3)
C7 0.047(3) 0.092(4) 0.097(4) -0.046(3) 0.004(3) -0.015(3)
C8 0.050(3) 0.072(3) 0.070(3) -0.033(3) 0.000(2) -0.008(2)
C9 0.040(2) 0.053(3) 0.053(3) -0.020(2) -0.0034(18) -0.0041(18)
C10 0.057(2) 0.052(3) 0.058(3) -0.023(2) -0.001(2) -0.001(2)
C11 0.058(3) 0.065(3) 0.071(3) -0.036(3) -0.002(2) -0.006(2)
C12 0.065(3) 0.058(3) 0.093(4) -0.039(3) -0.005(3) -0.002(2)
C13 0.080(3) 0.052(3) 0.072(3) -0.011(3) -0.002(3) 0.001(2)
C14 0.064(3) 0.068(3) 0.053(3) -0.020(2) -0.003(2) -0.004(2)
C15 0.045(2) 0.049(2) 0.050(2) -0.019(2) -0.0019(19) -0.0018(18)
C16 0.054(2) 0.055(3) 0.056(3) -0.022(2) -0.001(2) -0.009(2)
C17 0.057(3) 0.062(3) 0.066(3) -0.027(2) -0.008(2) -0.011(2)
C18 0.057(3) 0.059(3) 0.066(3) -0.020(2) -0.003(2) -0.009(2)
C19 0.059(3) 0.071(3) 0.063(3) -0.029(3) 0.008(2) -0.003(2)
C20 0.054(3) 0.072(3) 0.062(3) -0.034(2) 0.000(2) -0.008(2)
C21 0.050(3) 0.066(3) 0.069(3) -0.035(3) 0.005(2) -0.011(2)
loop_
_atom_type_symbol
_atom_type_description
_atom_type_scat_dispersion_real
_atom_type_scat_dispersion_imag
_atom_type_scat_source
C C 0.0033 0.0016 'International Tables Vol C Tables 4.2.6.8 and 6.1.1.4'
H H 0.0000 0.0000 'International Tables Vol C Tables 4.2.6.8 and 6.1.1.4'
Cl Cl 0.1484 0.1585 'International Tables Vol C Tables 4.2.6.8 and 6.1.1.4'
N N 0.0061 0.0033 'International Tables Vol C Tables 4.2.6.8 and 6.1.1.4'
loop_
_geom_angle_atom_site_label_1
_geom_angle_atom_site_label_2
_geom_angle_atom_site_label_3
_geom_angle
_geom_angle_site_symmetry_1
_geom_angle_site_symmetry_3
_geom_angle_publ_flag
C2 C1 C3 122.8(4) . . ?
C2 C1 C9 121.7(3) . . ?
C3 C1 C9 115.4(3) . . ?
C1 C2 C15 128.4(4) . . ?
C1 C2 C21 118.6(4) . . ?
C21 C2 C15 113.1(3) . . ?
C4 C3 C1 121.9(4) . . ?
C8 C3 C1 120.2(4) . . ?
C8 C3 C4 117.7(4) . . ?
C5 C4 C3 120.7(4) . . ?
C6 C5 C4 120.6(5) . . ?
C5 C6 C7 119.8(4) . . ?
C6 C7 C8 119.6(5) . . ?
C7 C8 C3 121.5(5) . . ?
C10 C9 C1 119.5(4) . . ?
C14 C9 C1 122.1(4) . . ?
C14 C9 C10 118.3(4) . . ?
C11 C10 C9 121.2(4) . . ?
C12 C11 C10 119.9(4) . . ?
C13 C12 C11 120.1(5) . . ?
C12 C13 C14 120.3(4) . . ?
C9 C14 C13 120.1(4) . . ?
C16 C15 C2 122.2(4) . . ?
C20 C15 C2 120.4(4) . . ?
C20 C15 C16 117.3(4) . . ?
C17 C16 C15 121.7(4) . . ?
C18 C17 C16 119.3(4) . . ?
C17 C18 Cl 120.0(4) . . ?
C19 C18 Cl 119.5(4) . . ?
C19 C18 C17 120.5(4) . . ?
C18 C19 C20 119.4(4) . . ?
C19 C20 C15 121.8(4) . . ?
N1 C21 C2 176.4(4) . . ?
loop_
_geom_bond_atom_site_label_1
_geom_bond_atom_site_label_2
_geom_bond_distance
_geom_bond_site_symmetry_2
_geom_bond_publ_flag
Cl C18 1.731(5) . ?
N1 C21 1.141(5) . ?
C1 C2 1.351(5) . ?
C1 C3 1.483(5) . ?
C1 C9 1.487(6) . ?
C2 C15 1.480(5) . ?
C2 C21 1.445(6) . ?
C3 C4 1.392(6) . ?
C3 C8 1.387(6) . ?
C4 C5 1.378(6) . ?
C5 C6 1.372(6) . ?
C6 C7 1.377(7) . ?
C7 C8 1.381(6) . ?
C9 C10 1.388(6) . ?
C9 C14 1.383(6) . ?
C10 C11 1.373(6) . ?
C11 C12 1.372(6) . ?
C12 C13 1.365(7) . ?
C13 C14 1.391(6) . ?
C15 C16 1.390(6) . ?
C15 C20 1.387(6) . ?
C16 C17 1.385(5) . ?
C17 C18 1.377(6) . ?
C18 C19 1.375(6) . ?
C19 C20 1.384(6) . ?
loop_
_refln_index_h
_refln_index_k
_refln_index_l
_refln_F_squared_meas
_refln_F_squared_sigma
-2 0 0 28.58 3.28
-2 0 0 30.38 3.49
-2 0 0 39.75 3.17
2 0 0 35.05 3.71
2 0 0 39.43 3.15
2 0 0 29.39 3.17
-3 0 0 290.75 21.89
-3 0 0 263.21 21.52
-3 0 0 229.26 21.82
3 0 0 259.33 21.5
3 0 0 301.08 21.94
3 0 0 276.36 22
-4 0 0 136.3 10.46
-4 0 0 110.57 10.59
4 0 0 124.96 10.92
4 0 0 115.34 11.19
4 0 0 117.66 10.31
-5 0 0 104.25 8.19
-5 0 0 84.22 8.34
5 0 0 73.24 8.32
5 0 0 88.7 8.33
5 0 0 81.49 7.84
5 0 0 94.36 8.52
-6 0 0 12.3 2.41
-6 0 0 12.98 2.83
6 0 0 16.84 3.21
6 0 0 12.68 2.4
6 0 0 12.76 3.11
6 0 0 13.61 2.78
-7 0 0 2.78 1.41
-7 0 0 0.85 1.02
7 0 0 1.11 1.12
7 0 0 2.68 1.6
7 0 0 3.17 1.86
7 0 0 2.04 1.26
-8 0 0 27.51 4.86
-8 0 0 31.21 3.89
8 0 0 27.99 3.99
8 0 0 20.75 4.3
8 0 0 15.59 3.59
8 0 0 24.32 5.22
-9 0 0 1.84 1.68
-9 0 0 1.49 1.64
-9 0 0 5.66 1.84
9 0 0 4.84 1.94
9 0 0 3.9 1.73
9 0 0 4.97 2
-10 0 0 0.48 2.13
-10 0 0 2.83 1.5
-10 0 0 4.8 2.87
10 0 0 2.76 1.94
10 0 0 1.65 2.04
10 0 0 3.07 1.98
10 0 0 2.64 1.56
-11 0 0 -0.46 1.84
-11 0 0 3.42 1.78
11 0 0 2.09 2.08
11 0 0 0.01 1.74
11 0 0 4.4 1.79
-12 0 0 2.32 1.82
12 0 0 -1.05 2.06
11 -1 0 0.53 1.67
11 -1 0 1.38 1.48
11 -1 0 -0.85 1.34
-11 1 0 -0.68 1.73
-11 1 0 0.75 1.16
10 -1 0 3.23 2.14
10 -1 0 4.1 2.07
10 -1 0 2.42 3.25
10 -1 0 1.16 1.67
-10 1 0 1.19 1.87
-10 1 0 3.75 2.18
9 -1 0 3.14 1.64
9 -1 0 0.97 1.11
9 -1 0 1.74 1.61
-9 1 0 0.2 1.1
-9 1 0 -0.56 1.45
8 -1 0 0.48 1.05
8 -1 0 1.9 1.73
8 -1 0 0.82 1.11
-8 1 0 -0.59 0.9
-8 1 0 0.93 1.49
7 -1 0 20.7 3.66
7 -1 0 7.19 2.12
7 -1 0 10.99 2.99
7 -1 0 9.65 3.09
-7 1 0 14.69 3.33
-7 1 0 15.25 3
6 -1 0 23.36 3.17
6 -1 0 22 3.5
6 -1 0 22.6 3.4
6 -1 0 20.89 3.32
-6 1 0 28.52 3.48
-6 1 0 19.05 3.73
5 -1 0 13.94 2.86
5 -1 0 18.1 2.87
5 -1 0 17.13 2.43
5 -1 0 14.53 2.91
-5 1 0 13.7 2.78
-5 1 0 16.39 2.45
4 -1 0 7.57 1.76
4 -1 0 10.94 1.91
4 -1 0 11.01 1.87
4 -1 0 5.26 1.44
-4 1 0 11.45 2.71
-4 1 0 6.56 1.7
3 -1 0 35.56 3.66
3 -1 0 37.49 3.88
3 -1 0 30.64 3.75
3 -1 0 38.99 3.97
-3 1 0 43.25 4.06
-3 1 0 40.5 3.83
-3 1 0 36.63 3.76
2 -1 0 383.45 28.39
2 -1 0 381.91 28.59
-2 1 0 348.16 28.44
-2 1 0 335.58 28.47
-2 1 0 342.09 28.35
-1 1 0 266.34 21.56
-1 1 0 274.04 21.73
0 -1 0 149.33 11.84
0 -1 0 146.38 11.85
0 1 0 154.4 13.21
0 1 0 118.06 11.23
-1 -1 0 0.93 0.39
-1 -1 0 1.07 0.46
-1 -1 0 0.56 0.48
1 1 0 0.74 0.46
1 1 0 1.32 0.5
1 1 0 1.16 0.43
-2 -1 0 362.42 26.93
-2 -1 0 316.82 26.47
-2 -1 0 306.28 26.58
-2 -1 0 331.75 26.04
2 1 0 345.29 26.61
-3 -1 0 291.24 23.24
-3 -1 0 295.33 24.05
-3 -1 0 306.19 23.95
-3 -1 0 307.57 23.77
3 1 0 266.47 23.79
-4 -1 0 1.95 0.68
-4 -1 0 1.23 0.88
-4 -1 0 0.68 0.8
-4 -1 0 1.12 0.73
4 1 0 0.78 0.52
4 1 0 0.49 0.71
-5 -1 0 19.74 3.05
-5 -1 0 25.31 2.99
-5 -1 0 20.96 3.38
-5 -1 0 19.61 3.12
5 1 0 23.67 3.17
5 1 0 19.94 3.33
5 1 0 20.86 2.62
-6 -1 0 2.31 1.43
-6 -1 0 0.95 0.93
-6 -1 0 2.73 1.44
6 1 0 2.65 1.05
6 1 0 3.92 1.57
6 1 0 3.69 1.75
-7 -1 0 11.92 3.03
-7 -1 0 10.91 2.87
-7 -1 0 16.9 2.52
7 1 0 10.8 2.5
7 1 0 11.51 2.91
7 1 0 15.73 3.8
-8 -1 0 -0.55 1.5
-8 -1 0 0.56 1.25
-8 -1 0 0.68 0.91
8 1 0 0.67 0.79
8 1 0 -1.43 0.81
8 1 0 1.48 1.69
8 1 0 0.75 1
-9 -1 0 1.4 1.52
-9 -1 0 2.39 1.81
-9 -1 0 0.87 0.74
9 1 0 -0.32 0.94
9 1 0 1.2 1.23
-10 -1 0 -1.32 1.97
-10 -1 0 0.15 0.83
10 1 0 -1.72 2.87
10 1 0 -2.68 1.22
10 1 0 0.94 1.03
-11 -1 0 -0.4 1.11
-11 -1 0 -1.19 1.89
11 1 0 0.61 1.61
11 1 0 0.96 1.36
-12 -1 0 0.57 1.67
12 1 0 1.03 1.69
11 -2 0 1.59 2.41
11 -2 0 -3.62 1.59
-11 2 0 4.21 1.81
10 -2 0 -0.61 1.4
-10 2 0 -0.29 2.38
-10 2 0 -0.71 1.18
9 -2 0 4.59 2.13
9 -2 0 3.57 1.92
-9 2 0 3.15 2.34
-9 2 0 2.45 1.93
8 -2 0 -0.75 0.79
8 -2 0 0.16 1.69
8 -2 0 -0.11 1.73
8 -2 0 0 1.33
-8 2 0 -2.4 1.1
-8 2 0 3.2 1.84
7 -2 0 2.14 1.48
7 -2 0 2.97 1.69
7 -2 0 3.86 1.5
7 -2 0 1.2 1.16
-7 2 0 -0.17 0.96
-7 2 0 0.27 1.46
6 -2 0 25.28 3.6
6 -2 0 22.88 3.25
6 -2 0 19.42 3.3
6 -2 0 24.41 3.7
-6 2 0 26.85 3.69
-6 2 0 18.15 5.33
5 -2 0 0.59 0.73
5 -2 0 1.14 0.81
5 -2 0 0.2 0.56
5 -2 0 1.75 0.92
-5 2 0 0.72 0.95
-5 2 0 0.52 0.79
-5 2 0 -0.2 0.39
4 -2 0 27.46 3.55
4 -2 0 32.74 3.6
4 -2 0 30.25 3.65
-4 2 0 30 3.53
-4 2 0 26.75 3.65
-4 2 0 25.36 3.37
3 -2 0 12.12 2.25
3 -2 0 12.02 1.83
-3 2 0 9.46 1.97
2 -2 0 146.17 11.74
2 -2 0 128.36 11.22
-2 2 0 130.31 11.71
-2 2 0 132.17 11.27
-2 2 0 128.94 11.47
1 -2 0 631.43 52.77
1 -2 0 605.3 52.25
-1 2 0 686.31 52.35
-1 2 0 654.38 52.63
-1 2 0 759.69 52.99
0 -2 0 247.1 20.53
0 -2 0 251.44 21.16
0 -2 0 302.81 21.45
0 -2 0 244.57 21.3
0 2 0 249.8 21.16
0 2 0 261.51 20.74
-1 -2 0 47.14 4.18
-1 -2 0 42.25 4.84
1 2 0 39.64 4.5
1 2 0 47.64 4.23
-2 -2 0 8.27 1.46
-2 -2 0 10.02 1.51
-2 -2 0 8.21 1.92
2 2 0 10.77 1.66
2 2 0 9.02 1.89
2 2 0 10.13 1.53
-3 -2 0 1.34 0.8
-3 -2 0 1.86 1.1
-3 -2 0 0.17 0.66
3 2 0 1.99 1.07
3 2 0 2.14 0.77
3 2 0 1.28 0.76
-4 -2 0 421.51 32.69
-4 -2 0 383.52 33.34
-4 -2 0 412.09 33.99
-4 -2 0 397.04 33.55
4 2 0 448.4 33.73
4 2 0 413.33 33.67
-5 -2 0 4.13 1.5
-5 -2 0 11.19 2.66
-5 -2 0 6.45 2.16
-5 -2 0 7.98 1.52
5 2 0 8.56 2.29
5 2 0 8.55 1.9
-6 -2 0 9.22 1.92
-6 -2 0 10.02 2.65
-6 -2 0 16.13 2.89
-6 -2 0 19.43 3.9
6 2 0 12.2 2.97
6 2 0 10.48 2.59
-7 -2 0 28.86 3.56
-7 -2 0 22.31 4.05
-7 -2 0 29.27 6.67
-7 -2 0 22.15 4.6
7 2 0 24.43 4.02
7 2 0 34.3 5.02
-8 -2 0 16.83 4.05
-8 -2 0 15.49 3.98
-8 -2 0 23.07 3.24
8 2 0 23.08 5.07
8 2 0 20.87 4.3
-9 -2 0 -0.51 1.29
-9 -2 0 0.49 1.83
-9 -2 0 -0.32 0.79
9 2 0 0.9 1.16
-10 -2 0 -2.13 2.08
-10 -2 0 2.32 1.33
10 2 0 4.13 3.87
10 2 0 0.77 1.06
10 2 0 3.03 2.17
-11 -2 0 0.55 1.67
-11 -2 0 5.47 2.86
11 2 0 1.97 2.31
11 2 0 -1.64 1.45
-12 -2 0 2.75 1.87
12 2 0 0.14 2.28
-11 3 0 -0.86 2.06
10 -3 0 1.37 1.52
10 -3 0 -2.16 2.18
10 -3 0 4.5 2.01
-10 3 0 0.14 1.87
9 -3 0 3.69 1.72
9 -3 0 -0.51 1.09
-9 3 0 0.84 1.77
-9 3 0 2.14 1.69
8 -3 0 5.4 2.04
8 -3 0 2.9 2.27
8 -3 0 3.4 1.88
7 -3 0 0.64 1.06
7 -3 0 -0.01 1.51
7 -3 0 -0.88 1.06
-7 3 0 0.26 1.01
-7 3 0 -0.28 0.6
6 -3 0 29.15 4.22
6 -3 0 23.36 4.26
6 -3 0 26.64 4.03
-6 3 0 32.66 4.18
-6 3 0 27.35 4.35
-6 3 0 22.43 3.65
5 -3 0 0.18 0.56
5 -3 0 0.06 0.58
5 -3 0 0 0.79
-5 3 0 -0.55 0.51
-5 3 0 -0.45 0.82
-5 3 0 0.38 0.63
4 -3 0 4.06 1.5
4 -3 0 3.16 1.27
-4 3 0 1.88 0.96
-4 3 0 2.07 1.31
-4 3 0 1.17 0.77
-4 3 0 2.19 1.21
3 -3 0 2.38 1.08
3 -3 0 5.99 1.71
-3 3 0 6.07 1.55
-3 3 0 5.69 1.59
-3 3 0 5.85 1.5
-3 3 0 4.86 1.85
2 -3 0 75.88 7.76
2 -3 0 80.27 7.32
-2 3 0 72.8 7.35
-2 3 0 79.46 7.66
-2 3 0 78.9 7.94
1 -3 0 1.13 0.84
1 -3 0 1.06 0.95
1 -3 0 1.17 0.77
-1 3 0 0.79 0.58
-1 3 0 0.6 0.72
-1 3 0 1.03 0.88
0 -3 0 44.97 4.97
0 -3 0 59.11 5.96
0 -3 0 61.22 5.02
0 -3 0 45.23 5.78
0 3 0 42.68 5.4
0 3 0 62.14 6.29
-1 -3 0 63.81 7.31
-1 -3 0 76.38 6.56
-1 -3 0 71.61 6.58
1 3 0 80.8 7.91
1 3 0 71.07 7.26
1 3 0 73.24 6.7
-2 -3 0 5.1 1.95
-2 -3 0 7.33 1.57
2 3 0 6.32 1.43
2 3 0 7.13 2.26
2 3 0 4.46 1.21
-3 -3 0 89.6 7.95
-3 -3 0 66.34 7.85
3 3 0 72.19 7.35
3 3 0 70.71 7.5
3 3 0 89.99 8.87
-4 -3 0 3.42 1.46
-4 -3 0 1.13 0.86
-4 -3 0 2.39 1.45
4 3 0 2.07 1.1
4 3 0 2.57 1.13
4 3 0 4.02 1.66
-5 -3 0 7.8 2.23
-5 -3 0 11.88 2.99
-5 -3 0 10.97 2.77
-5 -3 0 9.68 1.78
5 3 0 10.53 2.63
5 3 0 13.43 2.61
-6 -3 0 55.85 4.95
-6 -3 0 34.89 5.42
-6 -3 0 48.74 6.23
-6 -3 0 56.08 6.27
6 3 0 34.66 5.6
6 3 0 47.95 5.57
-7 -3 0 8.18 2.79
-7 -3 0 4.76 2.4
-7 -3 0 9.33 2.01
-7 -3 0 11.84 3.49
7 3 0 6.11 2.42
7 3 0 9.26 2.57
-8 -3 0 -1.57 1.72
-8 -3 0 0.82 0.93
-8 -3 0 -1.55 1.3
-8 -3 0 -0.17 1.34
8 3 0 -1.23 1.2
8 3 0 -1.8 0.83
-9 -3 0 2.82 1.44
-9 -3 0 5.91 1.49
-9 -3 0 3.8 1.93
9 3 0 5.66 3.34
9 3 0 4.59 2.05
-10 -3 0 1.03 2.25
-10 -3 0 -0.02 0.95
10 3 0 0.69 1.24
10 3 0 0.32 2.68
-11 -3 0 -0.41 1
-11 -3 0 1.8 2.84
11 3 0 -0.47 1.53
10 -4 0 5.44 3.53
10 -4 0 0.52 1.59
-10 4 0 0.55 1.8
-10 4 0 -1.99 1.69
9 -4 0 -3.35 1.26
9 -4 0 1.19 1.55
-9 4 0 0.88 1.51
-9 4 0 0.68 2.53
-9 4 0 0.01 1.16
8 -4 0 1.06 1.61
8 -4 0 2.82 1.81
8 -4 0 4.26 2.2
-8 4 0 1.72 1.78
-8 4 0 2.64 1.42
7 -4 0 1.46 1.1
7 -4 0 1.53 1.2
7 -4 0 2 1.9
-7 4 0 0.01 1.08
-7 4 0 2.78 1.52
-7 4 0 0.03 0.97
6 -4 0 0.74 1.16
6 -4 0 1.49 1.33
6 -4 0 1.12 1.15
-6 4 0 2.34 1.25
-6 4 0 1.41 1.2
-6 4 0 1.37 1.1
-6 4 0 0.87 1.27
5 -4 0 35.97 4.6
5 -4 0 28.94 5.28
5 -4 0 33.19 4.32
-5 4 0 32.19 4.55
-5 4 0 24.57 5.15
-5 4 0 32.55 4.8
-5 4 0 29.81 4.29
4 -4 0 5.93 2.25
4 -4 0 6.57 2.03
-4 4 0 8.18 2.48
-4 4 0 6.04 1.94
-4 4 0 6.43 1.92
-4 4 0 7.01 2.19
3 -4 0 12.84 2.96
3 -4 0 12.87 2.64
-3 4 0 8.77 2.2
-3 4 0 9.48 2.72
-3 4 0 8.47 2.3
-3 4 0 9.9 2.27
2 -4 0 56.86 7.55
2 -4 0 76.15 7.83
2 -4 0 84.25 7.43
-2 4 0 63.08 7.62
-2 4 0 76.97 7.73
-2 4 0 71.94 7.15
1 -4 0 62.23 6.28
1 -4 0 60.65 5.89
1 -4 0 55.56 6.67
1 -4 0 61.03 7.16
-1 4 0 59.69 6.72
-1 4 0 60.88 7.02
-1 4 0 68.64 6.37
0 -4 0 1.99 1.21
0 -4 0 0.92 0.58
0 -4 0 1.57 1.16
0 4 0 0.86 0.89
0 4 0 0.76 0.86
-1 -4 0 7.05 1.53
-1 -4 0 8.13 1.73
-1 -4 0 4.82 1.88
1 4 0 5.8 1.69
1 4 0 10.27 2.54
1 4 0 6.38 1.46
-2 -4 0 11.51 3.26
-2 -4 0 17.59 2.5
2 4 0 14.87 2.41
2 4 0 16.37 2.59
2 4 0 23.21 3.36
2 4 0 18.38 3.66
-3 -4 0 119.36 10.46
-3 -4 0 98.7 11.23
3 4 0 105.53 10.32
3 4 0 135.38 12.03
3 4 0 114.01 10.48
3 4 0 110.79 11.19
-4 -4 0 32.73 5.09
-4 -4 0 42.47 4.72
4 4 0 39.6 4.58
4 4 0 38.52 5.25
4 4 0 30.46 4.47
-5 -4 0 24.83 4.99
-5 -4 0 25.17 3.54
-5 -4 0 13.26 3.06
5 4 0 17.92 3.97
5 4 0 21.65 3.35
-6 -4 0 -0.2 0.98
-6 -4 0 -1.05 0.4
-6 -4 0 -0.44 0.64
-6 -4 0 -1.35 1.21
6 4 0 0.22 0.93
6 4 0 -0.89 1.71
-7 -4 0 2.46 1.66
-7 -4 0 1.35 1.04
-7 -4 0 0.94 1.07
-7 -4 0 2.41 1.59
7 4 0 0.97 1.14
7 4 0 -0.73 1.53
-8 -4 0 2.89 1.87
-8 -4 0 -0.56 1.62
-8 -4 0 1.05 0.98
-8 -4 0 0.15 3.04
8 4 0 2.33 2.4
8 4 0 1.65 1.63
-9 -4 0 9.05 2.27
-9 -4 0 10.58 3.29
9 4 0 11.5 3.24
9 4 0 7.73 4.88
-10 -4 0 -2.14 2.35
-10 -4 0 1.21 2.38
-10 -4 0 1.06 1.3
10 4 0 1.6 4.62
10 4 0 1.87 1.6
-11 -4 0 1.3 1.23
11 4 0 1.39 2.16
10 -5 0 2.2 2.15
-10 5 0 2.26 2.34
9 -5 0 1.58 1.48
9 -5 0 -0.26 2.34
-9 5 0 4.56 2.19
-9 5 0 4.78 2.72
8 -5 0 4.81 2.01
8 -5 0 -1.68 1.56
8 -5 0 1.23 2.13
-8 5 0 1.33 3.21
-8 5 0 2.17 1.65
-8 5 0 1.76 1.68
7 -5 0 0.23 1.08
7 -5 0 -1.05 0.8
7 -5 0 -1.55 1.71
-7 5 0 0.57 1.31
-7 5 0 0.71 1.25
-7 5 0 -0.02 1.08
6 -5 0 0.46 2.11
6 -5 0 1.39 1.11
6 -5 0 1.78 1.57
-6 5 0 -1.65 1.96
-6 5 0 -1.23 1.15
-6 5 0 -0.81 0.95
5 -5 0 15.42 3.41
5 -5 0 15.5 3.72
-5 5 0 8.66 2.99
-5 5 0 7.97 2.46
-5 5 0 10.13 2.94
-5 5 0 8.93 2.69
4 -5 0 3.76 1.89
4 -5 0 4.6 1.91
-4 5 0 1.52 0.95
-4 5 0 1.51 1.42
-4 5 0 0.3 1.17
-4 5 0 0.22 0.88
3 -5 0 28.43 3.96
3 -5 0 25.6 4.93
-3 5 0 18.23 4.25
-3 5 0 22.82 4.42
-3 5 0 19.82 3.82
2 -5 0 1.63 1.33
2 -5 0 -0.15 0.79
2 -5 0 -0.14 0.44
-2 5 0 1.02 1.13
-2 5 0 -0.04 0.79
-2 5 0 -0.29 0.67
1 -5 0 34.4 3.72
1 -5 0 23.18 3.55
1 -5 0 26.64 4.18
1 -5 0 29.82 5.49
-1 5 0 24.26 4.56
-1 5 0 28.46 4.46
-1 5 0 28.69 3.89
0 -5 0 20.11 3.13
0 -5 0 21.63 4.59
0 -5 0 25.62 3.15
0 -5 0 30.26 4.2
0 5 0 23.3 4.53
0 5 0 18.26 3.63
-1 -5 0 0 0.93
-1 -5 0 0.37 0.75
-1 -5 0 0.2 0.6
1 5 0 -0.88 0.81
1 5 0 -0.18 0.93
1 5 0 -0.82 0.48
-2 -5 0 5.84 1.96
-2 -5 0 6.06 2.08
-2 -5 0 3.41 1.17
2 5 0 5.54 2.18
2 5 0 4.65 1.8
2 5 0 4.16 1.4
2 5 0 4.55 1.36
-3 -5 0 1.81 1.62
-3 -5 0 -0.32 0.91
3 5 0 0.95 1.25
3 5 0 0.43 1.24
3 5 0 0.25 1.07
3 5 0 0.49 1
-4 -5 0 9.1 2.26
4 5 0 4.32 1.82
4 5 0 10.65 3.11
4 5 0 7.08 2.15
4 5 0 8.42 2.66
-5 -5 0 4.71 1.95
-5 -5 0 5.15 2.15
5 5 0 2.07 1.94
5 5 0 2.81 1.69
5 5 0 2.46 1.35
-6 -5 0 12.68 2.35
-6 -5 0 7.91 2.61
-6 -5 0 10.78 3.56
-6 -5 0 14.24 3.46
6 5 0 13.05 3.95
6 5 0 9.66 2.85
6 5 0 10.63 2.83
-7 -5 0 2.55 2.17
-7 -5 0 5.28 2.39
-7 -5 0 6.73 2.5
-7 -5 0 5.01 1.57
7 5 0 4.39 2.54
7 5 0 8.72 2.7
-8 -5 0 2.08 1.08
-8 -5 0 -1.86 1.24
-8 -5 0 1.95 2.14
8 5 0 0.12 2.36
8 5 0 -2.86 2.64
-9 -5 0 -0.17 2.24
-9 -5 0 -2.42 1.65
-9 -5 0 -0.57 1.5
-9 -5 0 -0.83 0.73
9 5 0 1.37 1.92
9 5 0 -2.29 2.83
-10 -5 0 4.75 3.22
-10 -5 0 7.09 1.99
10 5 0 8.22 2.71
-11 -5 0 3.81 1.77
9 -6 0 5.75 3.32
9 -6 0 0.79 1.81
-9 6 0 0.05 2.2
-9 6 0 1.35 2.13
8 -6 0 5.31 2.26
8 -6 0 -3.7 1.42
-8 6 0 -0.58 1.43
-8 6 0 0.49 2.17
-8 6 0 -0.79 1.07
7 -6 0 -1.93 2.04
7 -6 0 1.86 1.92
-7 6 0 1.66 1.72
-7 6 0 -3.01 1.68
-7 6 0 0.77 1.33
6 -6 0 9.28 3.55
6 -6 0 8.26 2.59
-6 6 0 9.21 2.95
-6 6 0 5.13 2.81
-6 6 0 2.39 2.01
5 -6 0 2 1.88
-5 6 0 1.2 1.22
-5 6 0 -0.03 1.5
-5 6 0 2.64 1.58
-5 6 0 2.76 1.74
4 -6 0 0.21 1.31
4 -6 0 -1.54 0.68
-4 6 0 0.36 0.85
-4 6 0 -0.51 1.27
-4 6 0 0.76 1.45
-4 6 0 0.12 0.82
3 -6 0 5.74 1.94
3 -6 0 6.21 3.25
-3 6 0 6.9 2.99
-3 6 0 7.06 2.17
2 -6 0 7.67 2.5
2 -6 0 8.5 3.21
2 -6 0 9.56 3
2 -6 0 5.1 2.96
-2 6 0 12.76 3.45
-2 6 0 4.77 1.74
-2 6 0 5.49 2.38
1 -6 0 6.07 2.09
1 -6 0 8.81 2.01
1 -6 0 5.07 2.28
1 -6 0 8.57 2.82
-1 6 0 5.29 2.38
-1 6 0 5.85 2.16
0 -6 0 31.48 4.63
0 -6 0 39.03 6.09
0 6 0 38.34 5.78
0 6 0 40.65 5.82
-1 -6 0 6.16 2.06
-1 -6 0 7.04 2.95
-1 -6 0 5.89 2.29
1 6 0 7.05 2.45
-2 -6 0 12.41 3.47
-2 -6 0 7.1 1.9
2 6 0 12.2 3.62
2 6 0 7.33 2.22
2 6 0 8.47 2.65
2 6 0 7.28 1.84
-3 -6 0 -0.69 0.71
-3 -6 0 1.5 1.49
-3 -6 0 0.09 1.55
3 6 0 0.88 1.02
3 6 0 2.7 1.87
3 6 0 1.52 1.64
3 6 0 0.33 1.37
-4 -6 0 0.03 0.92
-4 -6 0 -0.32 1.13
4 6 0 0.84 1.18
4 6 0 -0.29 0.9
4 6 0 -0.49 1.21
4 6 0 -1.52 1.14
-5 -6 0 0.16 1.33
-5 -6 0 0.01 1.33
5 6 0 0.23 1.5
5 6 0 1.03 1.21
5 6 0 1.5 1.43
-6 -6 0 4.83 2.62
-6 -6 0 9.95 2.91
6 6 0 6.63 2.57
6 6 0 8.76 2.62
6 6 0 3.52 2.37
6 6 0 8.41 4.37
-7 -6 0 3.02 2.04
-7 -6 0 3.52 1.37
7 6 0 0.43 1.26
7 6 0 0.79 1.93
7 6 0 -0.4 1.68
-8 -6 0 1.31 1.57
-8 -6 0 1.57 1.12
-8 -6 0 3.41 2.75
8 6 0 5.97 2.52
8 6 0 2.07 1.92
8 6 0 0.39 2.31
-9 -6 0 6.17 4.48
-9 -6 0 3.11 1.51
-9 -6 0 9.19 3.2
-9 -6 0 0.97 2.16
9 6 0 -3.28 2.98
9 6 0 4.3 2.36
-10 -6 0 -0.49 1.1
10 6 0 -0.63 1.69
8 -7 0 -0.3 1.68
-8 7 0 3.29 2.51
-8 7 0 0.24 1.98
7 -7 0 1.71 2.73
7 -7 0 3.59 2.06
-7 7 0 1.62 2.19
-7 7 0 1.83 2.06
-7 7 0 4.39 2.13
6 -7 0 0.79 2.01
6 -7 0 0.98 1.78
6 -7 0 2.52 1.45
-6 7 0 2.16 2.06
-6 7 0 -0.81 0.65
-6 7 0 -2.46 0.96
-6 7 0 -0.67 1.47
5 -7 0 -0.04 1.19
-5 7 0 -0.57 0.81
-5 7 0 -0.23 1.39
-5 7 0 -0.1 1.48
-5 7 0 0.57 1.29
4 -7 0 0.89 1.54
-4 7 0 0.72 1.66
-4 7 0 2.55 1.86
-4 7 0 1.88 1.39
-4 7 0 2.18 1.86
3 -7 0 2.61 1.76
3 -7 0 6.84 3.1
3 -7 0 4.61 2.13
-3 7 0 6.16 2.25
-3 7 0 4.73 2.92
-3 7 0 4.68 2.48
2 -7 0 1.24 1.77
2 -7 0 1.69 1.34
2 -7 0 -0.66 1.18
2 -7 0 0.41 1.81
-2 7 0 0.16 1.55
-2 7 0 -0.14 1.25
1 -7 0 4.72 2.28
1 -7 0 9.42 3.34
1 -7 0 12.9 3.72
1 -7 0 5.57 2.18
-1 7 0 9.52 3.05
-1 7 0 12.13 3.67
0 -7 0 2.32 1.79
0 -7 0 6.77 2.21
0 -7 0 0.96 1.02
0 7 0 0.46 1.25
0 7 0 3.44 2.36
-1 -7 0 38.29 7.96
-1 -7 0 46.2 7.26
-1 -7 0 46.33 5.1
1 7 0 32.13 6.47
1 7 0 46.32 7
-2 -7 0 32.13 4.58
-2 -7 0 46.28 8.08
2 7 0 25.81 4.29
2 7 0 32.18 5.05
2 7 0 50.59 6.72
-3 -7 0 11.83 2.95
-3 -7 0 15.18 4.37
-3 -7 0 20.69 3.39
3 7 0 13.96 4.55
3 7 0 17.62 4.75
3 7 0 17.22 4.04
-4 -7 0 10.6 2.76
-4 -7 0 20.16 3.36
4 7 0 19.66 4.27
4 7 0 15.37 4.5
-5 -7 0 0.99 1.52
-5 -7 0 -0.34 0.72
5 7 0 0 1.14
5 7 0 1.74 1.52
5 7 0 2.24 1.63
5 7 0 2.9 1.73
-6 -7 0 4.23 2.27
6 7 0 4.69 2
6 7 0 3.15 1.93
-7 -7 0 2.63 2.81
-7 -7 0 -1.35 1.96
-7 -7 0 1 0.99
7 7 0 -0.6 1.43
7 7 0 2.59 1.98
7 7 0 -1.78 1.41
7 7 0 -0.81 1.82
-8 -7 0 0.59 1.01
-8 -7 0 0.54 2.23
8 7 0 -1.8 1.7
8 7 0 -1.08 1.36
8 7 0 3.42 3.94
-9 -7 0 -0.62 1.04
-9 -7 0 -3.15 1.99
9 7 0 3.33 2.37
7 -8 0 -0.89 2.86
7 -8 0 -0.35 1.99
-7 8 0 -3.97 1.64
-7 8 0 4.28 2.75
6 -8 0 1.63 1.94
-6 8 0 2.79 2.94
-6 8 0 1.49 2.05
-6 8 0 0.77 1.31
5 -8 0 3.54 2.03
5 -8 0 1.75 1.84
-5 8 0 3.3 2.49
-5 8 0 -2.47 1.57
-5 8 0 -1.91 1.76
4 -8 0 0.6 1.75
4 -8 0 2.64 1.63
4 -8 0 4.79 2.09
-4 8 0 -0.34 1.12
-4 8 0 2.28 2.41
-4 8 0 1.29 2.19
-4 8 0 3.2 2.09
3 -8 0 -0.37 0.95
3 -8 0 1.22 1.7
-3 8 0 -0.79 1.3
-3 8 0 -3.49 1.64
2 -8 0 -2.91 1.94
2 -8 0 0.16 1.6
2 -8 0 0.31 1.03
2 -8 0 1.54 2.53
-2 8 0 1.23 1.34
-2 8 0 1.81 2.36
1 -8 0 1.21 1.86
1 -8 0 0.47 1.39
1 -8 0 2.65 1.66
-1 8 0 -0.58 1.28
-1 8 0 -0.7 1.45
0 -8 0 8.2 2.22
0 -8 0 8.34 2.67
0 -8 0 4.15 3.01
0 8 0 6.14 4.9
0 8 0 3.11 2.16
-1 -8 0 0.59 1.26
-1 -8 0 -0.72 1.19
-1 -8 0 3.12 2.46
1 8 0 -0.49 1.27
1 8 0 -0.68 1.29
-2 -8 0 0.13 2.61
-2 -8 0 3.51 1.83
-2 -8 0 4.34 1.93
2 8 0 6.26 3.18
2 8 0 2.79 1.77
-3 -8 0 5.37 2.35
-3 -8 0 3.27 1.82
-3 -8 0 5.58 2.29
3 8 0 5.3 2.41
3 8 0 9.36 4.04
3 8 0 1.74 1.83
-4 -8 0 20.81 3.66
-4 -8 0 11.54 3.09
4 8 0 19.42 4.34
4 8 0 16.96 5.23
-5 -8 0 0.15 1.22
-5 -8 0 1.19 1.54
5 8 0 -0.24 1.7
5 8 0 1.8 2.05
5 8 0 1.52 1.28
5 8 0 3.3 1.79
-6 -8 0 1.47 1.62
-6 -8 0 1.6 2.77
-6 -8 0 0.2 1.76
6 8 0 -2.22 1.94
6 8 0 -1.48 1.22
6 8 0 0.66 2.03
6 8 0 3.09 2.09
-7 -8 0 2.06 2.82
-7 -8 0 5.3 1.93
7 8 0 3.91 1.69
7 8 0 5.24 2.97
7 8 0 4.12 2.74
-8 -8 0 1.03 2.65
-8 -8 0 3.8 1.5
8 8 0 -0.34 2.18
8 8 0 -1.13 2.3
-6 9 0 -0.22 1.98
-6 9 0 0.78 3.48
5 -9 0 -3.5 1.9
5 -9 0 -1.5 1.88
5 -9 0 -0.04 4.37
-5 9 0 -1.94 2.02
-5 9 0 -2.56 1.74
4 -9 0 1.1 1.82
4 -9 0 4.82 2.51
-4 9 0 2.34 2.21
-4 9 0 -1.52 1.23
3 -9 0 -0.44 1.94
3 -9 0 0.01 1.39
3 -9 0 -0.11 2.17
-3 9 0 4.14 2.69
-3 9 0 0.7 2.18
2 -9 0 3.62 2.25
2 -9 0 -2.18 1.75
2 -9 0 0.27 1.35
-2 9 0 3.34 2.06
-2 9 0 1.45 3.12
1 -9 0 2.38 3.24
1 -9 0 -1.25 1.28
1 -9 0 2.31 1.51
-1 9 0 -0.92 1.53
-1 9 0 -3.21 1.55
0 -9 0 -0.12 3.96
0 -9 0 3.23 1.53
0 9 0 -0.22 1.63
0 9 0 -1.53 2.54
-1 -9 0 3.66 2.04
-1 -9 0 -0.17 2.64
-1 -9 0 0.36 1.73
1 9 0 1.28 1.86
1 9 0 -0.26 1.5
-2 -9 0 1.1 1.39
-2 -9 0 1.51 1.79
-2 -9 0 1.68 2.06
2 9 0 2.18 1.81
2 9 0 -0.54 2.04
2 9 0 2.69 1.75
-3 -9 0 2.68 1.93
-3 -9 0 1.4 3.24
-3 -9 0 0.7 1.62
3 9 0 1.94 2.39
3 9 0 1.75 1.83
3 9 0 1.16 2
-4 -9 0 -2.67 1.78
-4 -9 0 4.86 1.84
-4 -9 0 0.55 1.61
4 9 0 0.46 2.17
4 9 0 3.25 2.08
4 9 0 -0.37 1.24
-5 -9 0 0.52 1.77
-5 -9 0 3.61 2.22
5 9 0 1.86 2.79
5 9 0 3.94 1.95
5 9 0 0.89 2.09
-6 -9 0 0.89 2
-6 -9 0 0.47 1.6
6 9 0 2.02 1.84
6 9 0 -1.93 1.35
6 9 0 -1.19 1.98
-7 -9 0 2.14 2.43
-7 -9 0 0.44 1.93
7 9 0 1.96 2.19
7 9 0 0.31 2.09
7 9 0 -1.42 2.55
4 -10 0 4.04 3.63
3 -10 0 0.87 2.12
-3 10 0 1.21 2.45
2 -10 0 0.66 1.8
1 -10 0 -2.03 1.66
1 -10 0 0.03 1.58
-1 10 0 4.76 2.12
0 -10 0 2.95 1.75
0 -10 0 -1.56 1.67
0 10 0 1.22 1.89
-1 -10 0 0.7 1.65
-1 -10 0 1.3 1.87
-2 -10 0 3.55 1.81
-2 -10 0 -0.84 1.55
2 10 0 1.08 1.63
-3 -10 0 -1.39 1.62
3 10 0 1.6 1.61
3 10 0 1.04 2.41
-4 -10 0 0.96 1.93
4 10 0 -4.46 1.73
-5 -10 0 1.03 1.99
5 10 0 -3.34 2.06
5 10 0 1.64 2.47
5 10 0 3.05 2.02
4 10 -1 0.35 1.6
-4 -10 1 -1.37 3.12
-4 -10 1 0.56 2.06
3 10 -1 -1.94 2.69
3 10 -1 -1.13 2.2
-3 -10 1 1.19 2.08
2 10 -1 2.89 2.08
2 10 -1 7.99 3.84
-2 -10 1 1.66 1.75
-2 -10 1 0.76 1.54
1 10 -1 2.48 2.26
-1 -10 1 4.21 2.26
-1 -10 1 -0.7 1.49
0 10 -1 -3.59 2.01
0 -10 1 -2.04 1.91
0 -10 1 0.86 1.41
-1 10 -1 -3.79 1.82
1 -10 1 0.93 0.76
-2 10 -1 -2.81 1.91
2 -10 1 -0.14 0.86
6 9 -1 3.12 2.28
6 9 -1 5.13 2.64
6 9 -1 -0.02 2.27
-6 -9 1 4.79 2.25
-6 -9 1 5.75 2.85
5 9 -1 2.29 2.16
5 9 -1 -0.42 2.1
5 9 -1 -0.99 1.65
-5 -9 1 -1.1 1.63
4 9 -1 1.84 1.74
4 9 -1 2.19 2.18
-4 -9 1 -0.71 1.7
-4 -9 1 2.79 1.55
3 9 -1 0.03 1.42
3 9 -1 2.66 1.98
-3 -9 1 2.92 1.6
-3 -9 1 -1.6 1.5
2 9 -1 -2.33 1.4
2 9 -1 -1.36 1.38
2 9 -1 2.57 1.84
-2 -9 1 -2.71 1.27
-2 -9 1 -0.12 1.28
-2 -9 1 -0.7 2.36
1 9 -1 2.02 1.91
1 9 -1 1.94 2.65
-1 -9 1 -3.64 2.58
-1 -9 1 3.15 1.67
-1 -9 1 2.36 1.71
0 9 -1 -1.42 1
0 9 -1 -1.35 1.96
0 -9 1 1.45 1.79
0 -9 1 0.74 1.84
-1 9 -1 5.32 2.75
-1 9 -1 -0.89 1.26
1 -9 1 2.43 1.09
1 -9 1 2.85 2.32
1 -9 1 0.81 1.5
-2 9 -1 4.04 2.66
-2 9 -1 2.41 1.74
2 -9 1 -1.32 2.55
2 -9 1 1.42 1.13
2 -9 1 0.89 2.18
-3 9 -1 1.23 1.92
-3 9 -1 -1.14 1.38
-4 9 -1 -0.43 2.02
-4 9 -1 -4.54 1.75
4 -9 1 -0.36 1.58
4 -9 1 2 2.09
-5 9 -1 -3.46 2.34
-5 9 -1 4.62 2.77
5 -9 1 1.16 2.34
5 -9 1 1.82 2.2
8 8 -1 -3.37 2.46
-8 -8 1 -0.12 1.5
-8 -8 1 0.8 1.27
7 8 -1 2.06 2
7 8 -1 -1.91 1.72
7 8 -1 1.29 2.12
-7 -8 1 -0.41 1.51
-7 -8 1 -2.5 2.08
6 8 -1 3.4 1.89
6 8 -1 -0.07 1.51
6 8 -1 -2.55 1.45
-6 -8 1 -0.42 2.01
-6 -8 1 -1.76 1.14
5 8 -1 2.93 1.87
5 8 -1 -1.32 1.22
5 8 -1 0.55 1.78
5 8 -1 1.25 2.29
-5 -8 1 -0.34 1.84
-5 -8 1 -0.12 1.79
-5 -8 1 2.9 2.66
4 8 -1 0.48 1.98
4 8 -1 0.8 1.67
4 8 -1 -0.12 1.09
-4 -8 1 -0.15 1.42
-4 -8 1 -1.11 1.14
3 8 -1 2.12 1.99
3 8 -1 -1.28 1.06
3 8 -1 -0.25 1.27
3 8 -1 -0.75 3.37
-3 -8 1 0.07 1.02
-3 -8 1 0.07 1.2
2 8 -1 1.1 1.7
2 8 -1 -0.95 1.36
2 8 -1 0.81 2.03
-2 -8 1 0.88 1.37
-2 -8 1 1.92 2
1 8 -1 -0.61 1.32
1 8 -1 -0.48 1.05
-1 -8 1 0.3 1.99
-1 -8 1 1.31 1.24
0 8 -1 4.27 2.64
0 8 -1 1.93 2.22
0 -8 1 2.49 2.29
0 -8 1 0.88 1.46
0 -8 1 2.19 1.34
-1 8 -1 1.47 1.73
-1 8 -1 0.84 1.5
1 -8 1 -0.8 1.03
1 -8 1 2.4 1.79
1 -8 1 1.38 0.99
-2 8 -1 -1.69 1.42
-2 8 -1 -0.46 0.99
2 -8 1 -0.62 1.34
2 -8 1 0.41 1.05
-3 8 -1 -0.18 1.51
-3 8 -1 0.14 1.22
3 -8 1 -0.68 1.93
-4 8 -1 0.12 1.04
-4 8 -1 -1.71 1.43
-4 8 -1 0.95 0.99
4 -8 1 0.57 1.85
4 -8 1 6.9 2.47
4 -8 1 -0.37 1.34
-5 8 -1 -1.18 2.03
-5 8 -1 1.68 2.02
-5 8 -1 0.07 0.89
5 -8 1 1.16 1.8
5 -8 1 2.89 1.92
5 -8 1 -3.56 1.71
-6 8 -1 3.26 2.12
-6 8 -1 -0.07 1.48
6 -8 1 -3.33 1.5
6 -8 1 -3.53 2.59
-7 8 -1 0.88 1.74
-7 8 -1 -2.51 1.97
7 -8 1 1.23 2.33
9 7 -1 4.89 2.9
-9 -7 1 3.34 1.18
8 7 -1 -0.35 1.79
8 7 -1 4.03 3.02
-8 -7 1 1.99 1.25
7 7 -1 -2.57 1.91
7 7 -1 2.32 2.04
7 7 -1 0.59 1.4
7 7 -1 0.51 1.51
-7 -7 1 1.23 1.1
-7 -7 1 2.59 1.37
-7 -7 1 -0.64 1.87
-7 -7 1 5.53 2.48
6 7 -1 3.58 2.39
6 7 -1 3.57 2.2
6 7 -1 -0.71 1.58
6 7 -1 2.97 2.39
-6 -7 1 3.2 2.67
-6 -7 1 2.06 1.16
-6 -7 1 1.26 1.89
5 7 -1 5.92 2.81
5 7 -1 4.27 2.76
5 7 -1 2.72 1.8
-5 -7 1 7.77 2.47
-5 -7 1 6.57 1.91
4 7 -1 -0.32 1.2
4 7 -1 -0.77 1.09
4 7 -1 4.47 1.98
-4 -7 1 -0.92 1.23
-4 -7 1 0.93 1.13
3 7 -1 0.66 1.2
3 7 -1 0.76 1.29
3 7 -1 -0.79 0.84
-3 -7 1 0.18 1.08
-3 -7 1 -0.54 0.85
2 7 -1 34.92 7.22
2 7 -1 41.74 7.68
2 7 -1 40.53 6.08
-2 -7 1 44.36 4.78
-2 -7 1 43.97 5.29
-2 -7 1 35.97 7.43
1 7 -1 7.57 2.9
1 7 -1 18.42 4.57
-1 -7 1 6.55 3.7
-1 -7 1 5.98 2.11
0 7 -1 2.68 1.74
0 7 -1 0.25 1.04
0 -7 1 2.23 1.18
0 -7 1 4.76 2.98
0 -7 1 4.25 1.83
-1 7 -1 9.05 3.4
-1 7 -1 10.05 3.47
1 -7 1 14.22 3.05
1 -7 1 5.73 1.67
1 -7 1 15.41 4.53
-2 7 -1 -0.95 1.58
-2 7 -1 -0.79 0.87
-2 7 -1 0.29 0.72
2 -7 1 0.59 0.87
2 -7 1 0.09 1.14
-3 7 -1 12.32 3.74
-3 7 -1 27.09 6.69
-3 7 -1 23.04 5.31
3 -7 1 14.13 3.42
3 -7 1 20.7 4.23
3 -7 1 16.17 4.55
-4 7 -1 3.44 2.46
-4 7 -1 3.27 1.92
-4 7 -1 3.96 2.42
4 -7 1 3.47 2.21
4 -7 1 0.92 1.68
4 -7 1 1.84 1.37
-5 7 -1 1.87 1.95
-5 7 -1 7.65 2.61
-5 7 -1 2.64 2.35
-5 7 -1 3.7 2.69
5 -7 1 3.09 1.79
5 -7 1 4.07 2.21
5 -7 1 4.46 2.63
-6 7 -1 -0.47 1.63
-6 7 -1 2.92 2.45
-6 7 -1 1.11 1.16
6 -7 1 -3.92 1.96
6 -7 1 1.93 1.81
6 -7 1 2.49 2.1
-7 7 -1 4.96 2.22
-7 7 -1 2.36 2.43
-7 7 -1 -3.11 1.46
7 -7 1 -3.77 2.24
7 -7 1 0.65 1.8
-8 7 -1 -0.91 2.05
-8 7 -1 1.68 1.89
-8 7 -1 0.21 1.71
8 -7 1 -1.33 1.83
8 -7 1 -1 2.98
-10 -6 1 0.19 0.96
9 6 -1 0.98 1.83
9 6 -1 5.84 3.67
-9 -6 1 2.24 1.25
8 6 -1 -1.76 2.49
8 6 -1 4.21 2.23
-8 -6 1 -2.54 2.25
-8 -6 1 3.12 1.46
7 6 -1 1.15 1.64
7 6 -1 8.73 3.13
7 6 -1 -0.51 2.06
-7 -6 1 2.34 1.08
-7 -6 1 4.76 3.16
-7 -6 1 2.78 3.23
6 6 -1 2.27 2.15
6 6 -1 1.98 1.64
6 6 -1 1.89 1.49
-6 -6 1 -0.68 1.46
5 6 -1 3.25 1.76
5 6 -1 4.62 2.72
5 6 -1 4.08 1.99
-5 -6 1 2.24 1.33
-5 -6 1 3.78 2.47
-5 -6 1 7.7 2.31
4 6 -1 0.86 1.13
4 6 -1 1.22 1.43
4 6 -1 2.37 1.41
4 6 -1 -0.98 0.64
-4 -6 1 0.24 1.23
-4 -6 1 -0.2 0.62
-4 -6 1 0.82 1.48
3 6 -1 11.82 3.51
3 6 -1 9.05 3.01
3 6 -1 19.25 4.77
-3 -6 1 9.83 3.43
-3 -6 1 13.25 2.57
-3 -6 1 10.51 2.17
2 6 -1 0.26 0.88
2 6 -1 1.32 1.45
2 6 -1 1.52 1.15
2 6 -1 -0.47 0.95
-2 -6 1 1.94 1.32
-2 -6 1 0.81 1.22
-2 -6 1 -0.26 0.66
1 6 -1 20.87 4.99
1 6 -1 17.86 4.1
-1 -6 1 17.23 3.17
-1 -6 1 13.43 3.98
-1 -6 1 19.47 2.55
0 6 -1 -0.75 0.81
0 6 -1 0.76 0.97
0 -6 1 -0.63 1.47
0 -6 1 0.87 0.74
0 -6 1 -0.72 0.83
-1 6 -1 -0.23 1.22
-1 6 -1 2.85 1.97
1 -6 1 1.74 1.96
1 -6 1 1.92 1.49
1 -6 1 1.16 1.03
-2 6 -1 15.21 3.31
-2 6 -1 23.94 5.08
-2 6 -1 23.12 5.76
2 -6 1 16.86 4.04
2 -6 1 27.2 5.89
2 -6 1 14.67 3.22
2 -6 1 19.47 2.82
-3 6 -1 6.31 2.85
-3 6 -1 8.52 2.35
-3 6 -1 12.33 3.47
3 -6 1 13.62 3.39
3 -6 1 6.83 1.88
3 -6 1 10.31 3.03
-4 6 -1 8.56 2.99
-4 6 -1 5.35 2.28
-4 6 -1 7.02 2.95
4 -6 1 9.57 2.88
4 -6 1 5.93 2.38
-5 6 -1 3.12 2.33
-5 6 -1 0.78 1.67
-5 6 -1 1.07 1.38
5 -6 1 2.68 1.92
5 -6 1 3.28 1.67
-6 6 -1 9.38 3.01
-6 6 -1 6.84 2.67
-6 6 -1 14.25 3.87
6 -6 1 6.35 2.63
6 -6 1 2.52 1.98
-7 6 -1 -0.77 1.02
-7 6 -1 3.26 2.35
-7 6 -1 1.78 1.96
-7 6 -1 -0.44 1.29
7 -6 1 1.24 1.68
7 -6 1 0.89 2.12
7 -6 1 -0.04 1.5
-8 6 -1 2.03 1.27
-8 6 -1 2.36 2.15
-8 6 -1 1.51 1.77
8 -6 1 -0.96 1.46
8 -6 1 1.09 2.53
-9 6 -1 2.99 2.57
-9 6 -1 -2.83 1.49
9 -6 1 0.57 2.17
10 5 -1 1.85 2.04
9 5 -1 0.71 1.9
9 5 -1 1.1 2.93
-9 -5 1 -3.02 2.39
-9 -5 1 0.25 0.88
-9 -5 1 -3.59 1.89
8 5 -1 4.13 2.74
8 5 -1 3.81 2.13
-8 -5 1 -3.84 1.56
-8 -5 1 0.71 1.78
-8 -5 1 2.89 1.13
7 5 -1 -0.45 1.84
7 5 -1 -0.46 1.54
-7 -5 1 -0.16 1.8
-7 -5 1 -2.79 1.29
-7 -5 1 1.1 0.72
-7 -5 1 1.48 1.52
6 5 -1 24.76 4.79
6 5 -1 27.73 5.72
-6 -5 1 34.51 4.73
-6 -5 1 21.48 5.51
-6 -5 1 25.05 3.24
5 5 -1 7.73 2.4
5 5 -1 10.76 3.25
5 5 -1 6.49 2.57
-5 -5 1 12.35 3.96
-5 -5 1 11.24 2.55
4 5 -1 2.1 1.28
4 5 -1 0.73 1.53
4 5 -1 6.24 2.65
-4 -5 1 3.61 2.02
-4 -5 1 4.16 1.63
3 5 -1 4.76 1.39
3 5 -1 11.41 3.25
3 5 -1 7.67 2.8
3 5 -1 9.65 2.65
-3 -5 1 5.72 1.55
-3 -5 1 4.22 3.33
-3 -5 1 9.99 2.09
2 5 -1 15.38 2.5
2 5 -1 15.61 3.36
2 5 -1 23.04 5.52
2 5 -1 18.22 4.19
-2 -5 1 21.27 2.56
-2 -5 1 10.12 3.37
-2 -5 1 13.72 2.57
1 5 -1 15.48 4.39
1 5 -1 5.72 1.48
1 5 -1 3.26 1.76
-1 -5 1 6.42 2.47
-1 -5 1 6.68 1.37
-1 -5 1 4.24 1.47
0 5 -1 0.67 1.05
0 5 -1 1.45 1.34
0 -5 1 1.06 0.9
0 -5 1 1.14 1.48
0 -5 1 0.45 0.64
-1 5 -1 2.52 1.48
-1 5 -1 3.25 1.64
-1 5 -1 3.54 1.19
1 -5 1 2.23 0.91
1 -5 1 2.98 1.46
1 -5 1 1.43 1.35
-2 5 -1 5.8 2.41
-2 5 -1 5.92 1.91
-2 5 -1 5.89 2.37
2 -5 1 5.58 1.42
2 -5 1 5.13 2.65
2 -5 1 4.52 1.89
2 -5 1 8.25 2.07
-3 5 -1 16.48 3.43
-3 5 -1 14.76 4.03
-3 5 -1 18.32 3.95
3 -5 1 16.74 3.83
3 -5 1 17.55 3.51
-4 5 -1 -1.11 0.9
-4 5 -1 0.36 1.19
-4 5 -1 0.02 0.92
4 -5 1 -0.27 0.78
4 -5 1 0.99 1.17
4 -5 1 0.17 1.17
-5 5 -1 13.86 3.7
-5 5 -1 19.81 4.1
-5 5 -1 15.29 4.33
-5 5 -1 18.59 4.02
5 -5 1 22.76 4.65
5 -5 1 22.07 4.16
5 -5 1 23.74 3.41
-6 5 -1 4.96 2.29
-6 5 -1 4.56 2.14
-6 5 -1 5.63 2.51
6 -5 1 4.88 1.84
6 -5 1 8.08 2.5
-7 5 -1 7.84 2.71
-7 5 -1 2.2 3.83
-7 5 -1 8.38 2.89
7 -5 1 5.05 2.48
7 -5 1 6.01 2.34
-8 5 -1 2.31 1.86
-8 5 -1 0.42 1.1
-8 5 -1 0.65 1.39
-8 5 -1 0.7 2.13
8 -5 1 -1.1 1.73
8 -5 1 1.15 2.06
8 -5 1 1.65 1.46
-9 5 -1 1.72 2.45
-9 5 -1 2.75 1.82
9 -5 1 -2.15 1.33
-10 5 -1 -2.04 2.04
-10 5 -1 2.25 2.29
10 -5 1 4.33 2.07
-11 -4 1 0.52 0.97
10 4 -1 10.16 2.89
-10 -4 1 5.91 3.25
-10 -4 1 4.51 4.59
-10 -4 1 6.56 1.83
9 4 -1 8.22 4.75
-9 -4 1 8.63 3.4
-9 -4 1 8.59 1.88
8 4 -1 1.99 2.73
8 4 -1 5.99 2.46
-8 -4 1 2.87 2.12
-8 -4 1 0.99 2.56
-8 -4 1 4.09 1.41
7 4 -1 -0.1 1.9
7 4 -1 1.86 1.14
-7 -4 1 1.61 1.38
-7 -4 1 2.13 1.82
6 4 -1 2.83 1.6
6 4 -1 0.62 1.68
6 4 -1 3.89 1.95
-6 -4 1 1.59 1.59
-6 -4 1 6.87 2.31
-6 -4 1 6.05 2.82
5 4 -1 -0.23 1.25
5 4 -1 0.89 1.19
5 4 -1 0.85 1.02
-5 -4 1 -0.47 0.81
-5 -4 1 0.17 0.96
-5 -4 1 1.21 1.29
-5 -4 1 1.5 0.7
4 4 -1 1.53 1.12
4 4 -1 -0.28 0.86
4 4 -1 1.49 1.14
-4 -4 1 1.02 1.3
-4 -4 1 0.78 1.21
3 4 -1 110.5 11.33
3 4 -1 110.37 10.38
3 4 -1 95.39 9.7
-3 -4 1 100.24 11.2
-3 -4 1 119.67 10.18
2 4 -1 54.04 6.76
2 4 -1 52.56 6.25
2 4 -1 45.51 5.06
2 4 -1 47.95 5.77
-2 -4 1 59.65 5.19
-2 -4 1 49.16 5
-2 -4 1 45.65 6.4
1 4 -1 4.2 1.14
1 4 -1 7.43 2.32
1 4 -1 5.15 1.73
-1 -4 1 8.7 2.67
-1 -4 1 3.67 1.19
0 4 -1 9.58 2.06
0 4 -1 15.98 3.37
0 4 -1 11.63 2.86
0 -4 1 15.98 2.16
0 -4 1 15.12 3.5
0 -4 1 10.72 1.55
-1 4 -1 8.2 2.31
-1 4 -1 9.57 2.72
-1 4 -1 7.49 1.84
1 -4 1 11.25 3.05
1 -4 1 10.47 2.15
1 -4 1 9.4 1.49
1 -4 1 13.68 2.87
-2 4 -1 51.55 5.96
-2 4 -1 62.27 6.74
-2 4 -1 54.61 6.92
2 -4 1 55.84 7.12
2 -4 1 62.35 6.16
2 -4 1 59.71 6.5
-3 4 -1 26.89 3.65
-3 4 -1 20.88 3.23
-3 4 -1 21.11 4.28
3 -4 1 20.29 3.22
3 -4 1 20.58 3.84
-4 4 -1 2.49 1.48
-4 4 -1 2.08 1.24
-4 4 -1 3.61 1.86
4 -4 1 3.2 1.61
4 -4 1 4.13 1.73
4 -4 1 1.1 1
-5 4 -1 1.54 1.15
-5 4 -1 2.4 1.48
-5 4 -1 1.05 1.56
-5 4 -1 1.74 1.54
5 -4 1 3.84 1.76
5 -4 1 3.99 1.33
5 -4 1 1.95 1.28
-6 4 -1 2.93 1.56
-6 4 -1 4.42 2.05
-6 4 -1 2.71 1.94
-6 4 -1 2.05 1.6
6 -4 1 0.64 1.51
6 -4 1 3.08 1.62
6 -4 1 0.37 1.4
-7 4 -1 -0.88 1.18
-7 4 -1 1.23 1
-7 4 -1 0.92 0.9
7 -4 1 -1.86 1.26
7 -4 1 0.84 1.58
7 -4 1 -0.65 0.65
-8 4 -1 -2.7 1.19
-8 4 -1 -0.14 2.55
-8 4 -1 -1.55 1.09
8 -4 1 -2.17 1.78
8 -4 1 -0.66 1.58
8 -4 1 -0.51 0.99
-9 4 -1 -0.53 1.57
-9 4 -1 -0.21 1.29
9 -4 1 -1.24 1.08
9 -4 1 -0.27 1.78
-10 4 -1 -2.04 2.26
-10 4 -1 -2.26 1.92
10 -4 1 -4.78 2.95
10 -4 1 -0.2 1.83
11 3 -1 1.95 2.11
-11 -3 1 1.84 1.42
10 3 -1 1.98 3.57
10 3 -1 -0.62 1.8
-10 -3 1 0.77 0.72
-10 -3 1 3.35 1.83
-10 -3 1 3.04 2.73
9 3 -1 2.69 3.34
9 3 -1 -0.99 0.99
-9 -3 1 1.76 2.06
-9 -3 1 0.8 2.17
-9 -3 1 2.61 1.22
8 3 -1 2.07 2.09
8 3 -1 1.9 2.19
-8 -3 1 3.98 2.12
-8 -3 1 2.83 0.99
-8 -3 1 1.86 2.07
7 3 -1 43.16 5.64
7 3 -1 37.24 5.87
-7 -3 1 35 6.55
-7 -3 1 45.04 4.46
-7 -3 1 34.43 6.4
6 3 -1 28.1 4.08
-6 -3 1 23.64 5.18
-6 -3 1 24.28 6.72
-6 -3 1 26.22 3.03
-6 -3 1 26.96 4.24
5 3 -1 0.28 0.76
5 3 -1 -1.53 0.92
5 3 -1 0.17 0.82
-5 -3 1 0.56 0.81
-5 -3 1 0.45 0.94
-5 -3 1 0 0.79
-5 -3 1 -0.15 0.3
4 3 -1 6.19 1.72
4 3 -1 9.65 2.51
4 3 -1 5.83 1.73
-4 -3 1 7.74 2.46
-4 -3 1 4.74 1.65
-4 -3 1 10.07 2.19
3 3 -1 78.53 7.74
3 3 -1 62.88 6.54
3 3 -1 62.31 6.36
-3 -3 1 60.5 7.03
-3 -3 1 61.78 7.23
2 3 -1 2 0.77
2 3 -1 1.17 0.79
2 3 -1 3.71 1.62
-2 -3 1 -0.03 0.61
-2 -3 1 1.52 0.59
-2 -3 1 2.94 0.97
1 3 -1 9.18 2.22
1 3 -1 13.68 3.31
-1 -3 1 9.23 1.44
-1 -3 1 9.6 1.4
-1 -3 1 9.54 2.82
0 3 -1 4.67 1.2
0 3 -1 4.14 1.86
0 3 -1 5.27 1.48
0 -3 1 8.14 2.45
0 -3 1 4.33 1.1
0 -3 1 6.21 0.91
-1 3 -1 5.41 1.34
-1 3 -1 4.68 1.46
-1 3 -1 5.26 1.78
1 -3 1 4.14 1.31
1 -3 1 4.97 1.76
1 -3 1 7.31 1.49
-2 3 -1 85.31 8.53
-2 3 -1 78.44 8.97
-2 3 -1 100.44 8.39
2 -3 1 90.07 8.51
2 -3 1 88.18 8.18
2 -3 1 90.4 9.24
-3 3 -1 102.57 11.29
-3 3 -1 116.29 10.72
-3 3 -1 117.26 10.59
3 -3 1 125.44 10.63
3 -3 1 118.13 10.88
-4 3 -1 4.47 1.42
-4 3 -1 5.85 1.84
-4 3 -1 3.64 1.5
-4 3 -1 5.23 2.11
4 -3 1 6.22 1.75
4 -3 1 3.45 1.14
4 -3 1 5.92 2.04
-5 3 -1 1.42 1.09
-5 3 -1 -0.13 1.32
-5 3 -1 1.53 0.9
-5 3 -1 1.73 1.62
5 -3 1 0.49 0.89
5 -3 1 0.96 1.13
5 -3 1 2.34 1.18
-6 3 -1 0.3 0.64
-6 3 -1 1.55 1.26
-6 3 -1 -0.03 0.93
-6 3 -1 0.4 0.75
6 -3 1 0.42 1.14
6 -3 1 1.53 0.93
6 -3 1 -0.2 0.78
-7 3 -1 1.63 1.6
-7 3 -1 3.17 1.79
7 -3 1 2.31 1.38
7 -3 1 3.04 2.09
7 -3 1 3.54 1.86
-8 3 -1 7.39 2.56
-8 3 -1 9.88 3.01
8 -3 1 10.66 3.26
8 -3 1 11.54 2.95
8 -3 1 9.1 2.8
-9 3 -1 -0.73 1.42
-9 3 -1 0.97 1.26
9 -3 1 -0.09 0.87
9 -3 1 1.14 2.24
-10 3 -1 -0.03 1.34
10 -3 1 3.92 3.55
10 -3 1 -1.43 1.19
10 -3 1 1.57 2.46
-11 3 -1 1.61 1.68
11 -3 1 -0.74 1.67
11 2 -1 9.04 2.88
11 2 -1 1.43 2.02
-11 -2 1 -2.13 1.97
-11 -2 1 6.48 1.93
10 2 -1 1.1 1.58
10 2 -1 -0.89 1.46
10 2 -1 -0.45 0.93
-10 -2 1 1.72 2.02
-10 -2 1 0.22 0.75
9 2 -1 -2.29 1.22
9 2 -1 1.3 1.98
-9 -2 1 1.78 0.96
-9 -2 1 -1.53 1.34
-9 -2 1 0.91 1.71
8 2 -1 3.63 1.85
8 2 -1 7.64 2.97
-8 -2 1 2.93 2.2
-8 -2 1 4.42 1.4
-8 -2 1 0.25 1.61
7 2 -1 18.74 4.37
7 2 -1 17.11 3.74
-7 -2 1 15.75 2.5
-7 -2 1 16.28 3.87
-7 -2 1 24.2 5.08
6 2 -1 6.14 2.41
6 2 -1 8.71 2.36
-6 -2 1 9.54 2.81
-6 -2 1 10.97 1.93
-6 -2 1 6.51 2.41
5 2 -1 6.28 1.98
5 2 -1 5.71 1.7
-5 -2 1 4.95 1.87
-5 -2 1 1.03 1.34
-5 -2 1 5.97 1.21
-5 -2 1 3.77 1.57
4 2 -1 10.93 2.27
4 2 -1 10.15 2.53
4 2 -1 9.46 2.23
-4 -2 1 13.26 2.76
-4 -2 1 10.3 1.39
-4 -2 1 8.43 2.18
-4 -2 1 8.29 2.19
3 2 -1 363.41 28.95
3 2 -1 379.57 29.89
3 2 -1 359.96 31.15
-3 -2 1 339.92 29.54
-3 -2 1 341.77 28.85
2 2 -1 0.62 0.59
2 2 -1 0.1 0.47
-2 -2 1 -0.35 0.4
-2 -2 1 0.25 0.41
-2 -2 1 1.24 0.66
1 2 -1 108.54 9
-1 -2 1 112.24 8.97
-1 -2 1 109.54 8.98
-1 -2 1 99.71 10.07
0 2 -1 9.26 1.32
0 2 -1 6.03 1.49
0 2 -1 14.96 2.76
0 2 -1 9.37 1.07
0 -2 1 10.22 1.35
0 -2 1 9.8 1.03
0 -2 1 8.05 2.03
-1 2 -1 599.16 49.12
-1 2 -1 549.29 49.42
1 -2 1 740.64 49.78
1 -2 1 592.39 49.07
1 -2 1 654.02 50.77
-2 2 -1 200.02 16.69
-2 2 -1 169.56 15.82
-2 2 -1 193.37 15.83
2 -2 1 182.62 15.88
2 -2 1 208.1 15.85
-3 2 -1 4.52 1.3
-3 2 -1 3.54 1.16
-3 2 -1 2.8 1.05
-3 2 -1 2.83 1.83
3 -2 1 4.17 1.24
3 -2 1 2.1 0.99
3 -2 1 4.04 1.07
-4 2 -1 0.14 0.44
-4 2 -1 0.16 0.36
-4 2 -1 0.14 0.44
4 -2 1 0 0.61
4 -2 1 0.49 0.44
4 -2 1 -0.02 0.43
-5 2 -1 3.06 1.04
-5 2 -1 2.66 1.19
-5 2 -1 1.27 1.3
5 -2 1 1.61 1.07
5 -2 1 2.82 1.24
5 -2 1 2.58 1.1
-6 2 -1 2.84 1.75
-6 2 -1 4.27 1.57
6 -2 1 2.56 1.26
6 -2 1 1.65 1.31
6 -2 1 2.29 2.44
-7 2 -1 -0.02 1.47
-7 2 -1 -0.81 0.67
7 -2 1 -0.23 0.7
7 -2 1 -0.66 0.88
7 -2 1 -1.1 1.87
-8 2 -1 0.54 1.08
-8 2 -1 -0.66 1.14
8 -2 1 0.81 1.5
8 -2 1 -0.49 0.77
8 -2 1 1.05 1.33
-9 2 -1 5.74 2.06
-9 2 -1 4.36 2.21
9 -2 1 8.5 3.37
9 -2 1 7.71 2.62
9 -2 1 1.88 1.54
-10 2 -1 -0.01 1.14
-10 2 -1 -2.35 1.19
10 -2 1 1.28 2.94
10 -2 1 0.24 1.08
10 -2 1 0.53 1.55
-11 2 -1 0.01 1.69
11 -2 1 3.3 1.62
11 1 -1 1.29 1.52
11 1 -1 2.54 1.97
-11 -1 1 0.5 1.46
-11 -1 1 0.62 2.17
10 1 -1 4.96 2.32
10 1 -1 3.86 1.89
10 1 -1 5.07 3.05
-10 -1 1 2.47 2.2
-10 -1 1 0.97 1.78
-10 -1 1 0.7 1.39
9 1 -1 1.64 1.3
9 1 -1 -0.98 1.39
-9 -1 1 1.16 1.89
-9 -1 1 0.78 1.06
-9 -1 1 1.72 2.02
8 1 -1 54.35 12.25
8 1 -1 73.85 8.24
-8 -1 1 71.93 7.03
-8 -1 1 61.65 7.98
-8 -1 1 66.36 8.31
7 1 -1 1.6 1.47
7 1 -1 2.8 1.64
7 1 -1 1.43 1.06
-7 -1 1 0 1.18
-7 -1 1 2.9 1.27
-7 -1 1 0.66 1.53
6 1 -1 0.11 0.63
6 1 -1 -0.33 0.77
6 1 -1 0.22 0.92
-6 -1 1 0.06 0.65
-6 -1 1 1.24 1.07
-6 -1 1 -0.18 0.6
5 1 -1 44.54 4.86
5 1 -1 59.72 5.96
5 1 -1 54.33 5.99
-5 -1 1 52.41 5.92
-5 -1 1 62.03 5.13
-5 -1 1 43.88 5.71
4 1 -1 24.51 3.27
4 1 -1 29.63 3.48
-4 -1 1 23.72 3.33
-4 -1 1 25.67 2.62
-4 -1 1 20.54 3.08
3 1 -1 13.07 2.14
3 1 -1 19.32 2.49
3 1 -1 20.23 2.42
-3 -1 1 16.14 2.32
-3 -1 1 15.03 2.21
-3 -1 1 10.31 2.22
-3 -1 1 16.15 1.65
2 1 -1 120.01 11
2 1 -1 146.71 11.27
2 1 -1 152.61 11.62
-2 -1 1 134.48 11.11
-2 -1 1 129.8 10.41
-2 -1 1 121.45 11.14
-2 -1 1 121.51 11.39
1 1 -1 95.55 8.38
1 1 -1 107.55 8.73
-1 -1 1 103.93 8.11
-1 -1 1 103.02 9.99
0 1 -1 25.76 2.36
0 1 -1 23.89 2.13
0 -1 1 28.51 2.38
0 -1 1 28.26 3.28
-1 1 -1 2.26 0.64
-1 1 -1 4.58 1.24
-1 1 -1 2.27 0.6
1 -1 1 2.72 0.65
1 -1 1 2.99 0.49
-2 1 -1 716.07 59.4
-2 1 -1 730.92 59.3
2 -1 1 818.35 59.45
2 -1 1 773.23 59.45
-3 1 -1 63 5.33
-3 1 -1 59.06 5.45
-3 1 -1 47.55 4.85
3 -1 1 52.99 5.01
3 -1 1 49.99 5.1
3 -1 1 55.33 5.19
-4 1 -1 42.84 4.92
-4 1 -1 54.13 4.97
-4 1 -1 44.12 4.49
4 -1 1 44.06 4.75
4 -1 1 48.79 4.7
4 -1 1 48.69 5
-5 1 -1 28.04 3.58
-5 1 -1 26.04 3.22
5 -1 1 25 3.39
5 -1 1 19.3 3.01
5 -1 1 18.28 2.7
5 -1 1 17.99 2.85
-6 1 -1 15.86 3.16
-6 1 -1 13.57 2.72
6 -1 1 11.09 2.7
6 -1 1 12.48 2.61
6 -1 1 14.19 2.64
6 -1 1 14.82 2.7
-7 1 -1 17.78 3.47
-7 1 -1 12.97 3.14
7 -1 1 14.44 3.42
7 -1 1 14.4 3.22
7 -1 1 22.91 5.79
7 -1 1 18.33 3.35
-8 1 -1 0.89 1.54
-8 1 -1 1.82 1.07
8 -1 1 -0.4 1.54
8 -1 1 -0.44 0.51
8 -1 1 -1.16 0.81
8 -1 1 1.1 1.23
-9 1 -1 -3.02 1.34
-9 1 -1 -0.9 1.15
9 -1 1 -1.21 1.15
9 -1 1 0.11 0.65
9 -1 1 -1.48 0.67
9 -1 1 1.75 2.08
-10 1 -1 -0.6 1.2
-10 1 -1 -0.68 1.75
10 -1 1 0.02 1.16
10 -1 1 -2.48 1.24
10 -1 1 -0.46 2.99
-11 1 -1 -0.45 1.26
11 -1 1 1.74 2.09
11 -1 1 -0.21 1.44
11 0 -1 6.04 2.27
11 0 -1 2.97 1.66
11 0 -1 3.91 2.4
-11 0 1 9.25 4.85
-11 0 1 3.42 1.8
10 0 -1 0.72 1.07
10 0 -1 -1.59 1.19
10 0 -1 0.35 1.4
10 0 -1 -3.1 2.73
-10 0 1 1.53 1.33
-10 0 1 0.94 1.41
-10 0 1 1.62 2.14
9 0 -1 1.25 1.13
9 0 -1 0.89 1.22
9 0 -1 3.78 2.18
-9 0 1 -0.24 1.13
-9 0 1 2.87 2.02
-9 0 1 3.13 1.77
8 0 -1 5.09 2.03
8 0 -1 4.02 1.85
8 0 -1 4.15 1.5
-8 0 1 3.38 1.87
-8 0 1 4.63 2.35
-8 0 1 5.64 1.86
7 0 -1 11.96 2.43
7 0 -1 14.29 3.69
7 0 -1 12.16 2.98
7 0 -1 5.58 2.05
-7 0 1 9.51 2.24
-7 0 1 9.74 2.66
-7 0 1 8.72 2.7
6 0 -1 6.17 2.24
6 0 -1 4.83 1.83
6 0 -1 6.34 1.97
6 0 -1 4.53 1.32
-6 0 1 6.57 1.96
-6 0 1 6.74 1.63
-6 0 1 6.34 1.98
5 0 -1 82.3 8.76
5 0 -1 101.78 8.9
5 0 -1 90.64 7.96
-5 0 1 75.26 8.44
-5 0 1 102.89 8.17
-5 0 1 82.59 8.63
4 0 -1 2.48 1.07
4 0 -1 1.36 0.92
4 0 -1 0.02 0.38
-4 0 1 0.57 0.51
-4 0 1 0.97 0.51
-4 0 1 0.06 0.41
3 0 -1 62.54 5.7
3 0 -1 56.79 6.03
3 0 -1 69.31 6.3
-3 0 1 69.27 5.67
-3 0 1 71.96 6.26
-3 0 1 60.32 6.07
2 0 -1 0.92 0.34
2 0 -1 0.59 0.49
-2 0 1 1.01 0.33
-2 0 1 0.3 0.44
-2 0 1 0.93 0.4
1 0 -1 211.4 17.2
1 0 -1 241.74 17.66
1 0 -1 223.62 17.66
-1 0 1 214.95 17.66
-1 0 1 216.44 17.62
0 0 -1 15.81 1.71
-1 0 -1 0.03 0.12
-1 0 -1 -0.22 0.21
1 0 1 0.02 0.2
1 0 1 0.09 0.25
-2 0 -1 400.5 30.5
-2 0 -1 381.71 30.58
2 0 1 364.64 30.75
2 0 1 394.7 30.53
2 0 1 392.76 30.56
-3 0 -1 23.04 2.71
-3 0 -1 25.28 2.91
-3 0 -1 30.09 2.8
3 0 1 23.87 2.73
3 0 1 22.75 2.45
3 0 1 21.05 2.77
3 0 1 27.94 2.76
-4 0 -1 98.75 9.67
-4 0 -1 85.7 8.86
-4 0 -1 102.13 8.56
4 0 1 100.99 9.46
4 0 1 89.63 8.12
4 0 1 82.34 8.52
4 0 1 97.21 8.35
-5 0 -1 58.66 6.7
-5 0 -1 78.7 6.79
-5 0 -1 76.07 7.26
5 0 1 66.37 6.64
5 0 1 67.01 6.53
5 0 1 72.13 7.18
5 0 1 63.91 6.78
-6 0 -1 53.47 6.15
6 0 1 42.39 5.74
6 0 1 51.43 5.8
6 0 1 68.37 6.68
6 0 1 65.14 6.02
-7 0 -1 0.52 1.07
-7 0 -1 0 0.64
7 0 1 -0.19 0.82
7 0 1 0.84 0.71
7 0 1 0.23 0.75
7 0 1 2.29 1.22
-8 0 -1 3.32 1.51
-8 0 -1 1 1.3
8 0 1 3.39 2.43
8 0 1 1.17 1.32
8 0 1 2.58 1.58
8 0 1 1.85 1.24
-9 0 -1 -1.26 0.76
-9 0 -1 1.69 1.62
9 0 1 -2.07 1.61
9 0 1 1.24 1.38
9 0 1 0.11 1.08
9 0 1 -0.49 1.07
-10 0 -1 -1.05 1.88
-10 0 -1 1.04 1.17
10 0 1 2.83 3.63
10 0 1 3.25 1.87
10 0 1 -0.07 1.23
10 0 1 0.04 1.28
-11 0 -1 -0.23 0.91
-11 0 -1 0.95 1.53
11 0 1 -0.9 1.4
11 0 1 1 1.52
11 0 1 1.41 1.57
-12 0 -1 1.93 2.26
12 0 1 5.43 1.97
11 -1 -1 2.12 3.45
11 -1 -1 -2.04 1.53
11 -1 -1 -3.12 1.64
-11 1 1 0.53 1.75
-11 1 1 2.56 2.31
10 -1 -1 2.56 1.58
10 -1 -1 0.09 2.54
10 -1 -1 -2.66 1.5
10 -1 -1 0.99 1.57
-10 1 1 0.82 1.7
-10 1 1 3.13 2.25
-10 1 1 2.38 1.46
9 -1 -1 0.37 0.88
9 -1 -1 -2.32 1.02
9 -1 -1 0.33 1.05
-9 1 1 0.59 0.95
-9 1 1 -0.4 1.27
-9 1 1 1.5 1.57
8 -1 -1 0.43 1.23
8 -1 -1 2 1.84
8 -1 -1 -0.28 0.93
8 -1 -1 -0.36 0.98
-8 1 1 2.13 1.5
-8 1 1 -1.22 0.63
7 -1 -1 0.61 0.89
7 -1 -1 0.52 1.43
7 -1 -1 1.83 1.31
7 -1 -1 1.04 1.01
-7 1 1 -0.65 0.88
-7 1 1 1.36 1.12
6 -1 -1 9.74 2.18
6 -1 -1 12.25 2.8
6 -1 -1 11.65 3.21
6 -1 -1 10 2.56
-6 1 1 10.34 2.27
-6 1 1 9.35 2.55
5 -1 -1 24.23 3.5
5 -1 -1 26.73 3.58
5 -1 -1 20.87 3.46
5 -1 -1 28.06 3.12
-5 1 1 27.34 3.69
-5 1 1 24.67 3.17
4 -1 -1 56.05 6.1
4 -1 -1 56.79 6.13
4 -1 -1 63.49 6.16
4 -1 -1 64.47 5.69
-4 1 1 67.6 5.85
-4 1 1 52.16 5.91
3 -1 -1 24.21 2.63
3 -1 -1 29.33 3.08
3 -1 -1 18.38 2.85
-3 1 1 25.46 2.9
-3 1 1 26.38 2.74
2 -1 -1 290.92 21.87
2 -1 -1 275.9 21.56
2 -1 -1 247.19 21.4
-2 1 1 255.93 21.31
-2 1 1 272.43 21.54
1 -1 -1 -0.08 0.2
1 -1 -1 1.03 0.54
1 -1 -1 0.21 0.24
-1 1 1 -0.12 0.2
-1 1 1 0.04 0.24
-1 1 1 -0.02 0.22
0 -1 -1 31.66 2.62
0 -1 -1 33.81 2.76
0 1 1 29.65 2.78
0 1 1 37.29 3.23
0 1 1 26.55 2.73
-1 -1 -1 5.67 0.63
-1 -1 -1 6.94 1.28
-1 -1 -1 8.2 0.97
1 1 1 6.48 0.88
1 1 1 5.23 0.59
1 1 1 4.98 0.96
-2 -1 -1 61.26 5.37
-2 -1 -1 65.98 5.07
-2 -1 -1 55.64 5.03
2 1 1 51.26 5.45
2 1 1 56.75 4.99
-3 -1 -1 603.31 48.5
-3 -1 -1 670.77 48.48
-3 -1 -1 582.9 48.82
3 1 1 698.29 48.62
3 1 1 622.39 48.95
3 1 1 528.8 48.34
-4 -1 -1 70.9 6.45
-4 -1 -1 71.21 6.66
-4 -1 -1 84.53 8.02
4 1 1 76.42 6.75
4 1 1 62.95 6.42
4 1 1 66.99 6.97
-5 -1 -1 80.66 7.23
-5 -1 -1 76 7.44
-5 -1 -1 81.82 7.98
5 1 1 80.49 7.51
5 1 1 69.24 7.12
5 1 1 78 7.95
-6 -1 -1 139.38 12.82
-6 -1 -1 158.11 12.11
-6 -1 -1 117.23 12.1
6 1 1 152.15 13.08
6 1 1 136.98 12.34
6 1 1 109.31 11.68
-7 -1 -1 17.13 3.57
-7 -1 -1 16.77 3.2
-7 -1 -1 22.56 3.89
7 1 1 22.24 4.55
7 1 1 21.46 3.09
7 1 1 20.96 3.39
-8 -1 -1 1.97 1.4
-8 -1 -1 -0.37 0.75
8 1 1 1.79 1.32
8 1 1 3.25 2.38
8 1 1 2.37 1.17
8 1 1 -0.04 1.12
-9 -1 -1 24.85 4.52
-9 -1 -1 22.32 4.12
-9 -1 -1 18.34 4.52
9 1 1 16.61 4.4
9 1 1 24.55 5.94
9 1 1 24.62 4.36
9 1 1 17.19 3.95
-10 -1 -1 -1.21 1.53
-10 -1 -1 0.49 1.58
10 1 1 0.69 2.43
10 1 1 -0.58 1.12
10 1 1 -0.79 0.91
-11 -1 -1 2.19 1.35
-11 -1 -1 4.88 3.88
-11 -1 -1 -1.26 1.59
11 1 1 1.23 1.46
11 1 1 -0.75 1.24
-12 -1 -1 5.77 2.28
11 -2 -1 1.83 2.77
11 -2 -1 0.1 1.71
-11 2 1 2.72 1.76
-11 2 1 -0.39 1.22
10 -2 -1 -2.62 1.63
10 -2 -1 2.36 2.66
10 -2 -1 -0.24 1.26
10 -2 -1 -0.31 1.14
-10 2 1 -0.77 1.37
9 -2 -1 -1.26 0.91
9 -2 -1 -0.37 1.14
-9 2 1 0.06 0.98
8 -2 -1 19.65 3.77
8 -2 -1 21.63 4.93
8 -2 -1 23.44 4.56
8 -2 -1 9.98 3.6
-8 2 1 19.72 4
7 -2 -1 11.66 3.42
7 -2 -1 14.09 3.27
7 -2 -1 12.73 3.24
7 -2 -1 9.55 2.61
-7 2 1 6.06 2.09
-7 2 1 8.73 2.68
6 -2 -1 0.36 0.69
6 -2 -1 1.94 1.01
6 -2 -1 -0.87 0.76
6 -2 -1 -1.39 0.53
-6 2 1 -0.26 0.59
-6 2 1 0.01 1.11
5 -2 -1 5.35 1.51
5 -2 -1 3.31 1.33
5 -2 -1 3.28 1.52
5 -2 -1 2.28 1.36
-5 2 1 3.15 1.08
-5 2 1 3.04 1.44
4 -2 -1 -0.61 0.54
4 -2 -1 0.71 0.63
4 -2 -1 0.14 0.48
-4 2 1 0.3 0.44
-4 2 1 0.02 0.44
-4 2 1 0.78 0.75
3 -2 -1 0.39 0.48
3 -2 -1 0.2 0.6
-3 2 1 0.4 0.42
-3 2 1 0.57 0.6
-3 2 1 0.51 0.51
2 -2 -1 87.24 7.44
2 -2 -1 88.29 7.5
-2 2 1 78.32 7.37
-2 2 1 78.09 7.38
-2 2 1 85.86 7.43
-2 2 1 81.37 7.73
1 -2 -1 172.17 14.23
1 -2 -1 161.32 14.14
-1 2 1 187.02 14.3
-1 2 1 189.83 14.3
-1 2 1 165.32 14.62
-1 2 1 161.67 14.12
0 -2 -1 3.04 0.92
0 -2 -1 2.55 0.96
0 -2 -1 1.23 0.6
0 2 1 3.48 1.08
0 2 1 1.37 0.63
-1 -2 -1 33.15 4.17
-1 -2 -1 32.27 3.52
1 2 1 31.92 3.66
1 2 1 43.06 3.9
-2 -2 -1 27.71 2.8
-2 -2 -1 28.76 3.25
-2 -2 -1 34.88 3.78
2 2 1 25.96 3.16
2 2 1 30.32 2.86
2 2 1 31.84 3.54
2 2 1 26.87 3.17
-3 -2 -1 72.6 7.16
-3 -2 -1 67.74 6.65
-3 -2 -1 74.51 6.39
3 2 1 65.03 6.66
3 2 1 70.74 6.3
-4 -2 -1 133.29 11.29
-4 -2 -1 159.71 12.32
-4 -2 -1 124.93 12.23
-4 -2 -1 119.23 11.49
4 2 1 125.55 11.99
4 2 1 140.26 11.59
-5 -2 -1 0.62 0.54
-5 -2 -1 -0.33 0.65
-5 -2 -1 0.27 0.44
-5 -2 -1 -1.35 0.95
5 2 1 -0.18 0.64
5 2 1 1.08 1.24
-6 -2 -1 79.51 8.14
-6 -2 -1 84.72 8.66
-6 -2 -1 83.75 7.68
-6 -2 -1 70.45 8.53
6 2 1 83.13 8.82
6 2 1 84.34 8.14
-7 -2 -1 3.4 1.94
-7 -2 -1 2.37 1.43
-7 -2 -1 2.13 2.14
-7 -2 -1 1.58 1.04
7 2 1 4.45 1.66
7 2 1 1.63 1.99
-8 -2 -1 15.38 3.68
-8 -2 -1 17.25 4.16
-8 -2 -1 13.71 2.85
-8 -2 -1 25.19 4.28
8 2 1 13.99 4.01
8 2 1 11.47 3.18
-9 -2 -1 17.7 4.56
-9 -2 -1 22.74 4.87
-9 -2 -1 29.43 4.18
9 2 1 30.47 4.53
-10 -2 -1 5.33 1.95
-10 -2 -1 4.76 2.42
10 2 1 2.47 1.48
10 2 1 2.89 1.8
-11 -2 -1 1.61 2.9
-11 -2 -1 0.79 1.79
-11 -2 -1 2.16 1.36
11 2 1 2.46 1.45
11 2 1 0.45 1.18
-12 -2 -1 -0.13 1.34
12 2 1 -0.37 1.72
11 -3 -1 2.87 2.21
-11 3 1 2.5 1.96
10 -3 -1 4.29 3.39
10 -3 -1 0.41 1.97
-10 3 1 -0.38 1.66
9 -3 -1 7.22 2.93
9 -3 -1 12.91 4.27
9 -3 -1 11.83 3.43
-9 3 1 10.99 3.29
8 -3 -1 1.09 2.14
8 -3 -1 4.17 1.77
8 -3 -1 -0.18 1.38
-8 3 1 0.29 1.39
7 -3 -1 3.26 1.55
7 -3 -1 4.37 1.85
7 -3 -1 8.95 2.76
7 -3 -1 5.39 2.2
-7 3 1 5.2 2.23
-7 3 1 4.19 1.67
6 -3 -1 2.99 1.37
6 -3 -1 1.94 1.57
6 -3 -1 2.91 2.28
-6 3 1 7.81 2.14
-6 3 1 2.62 1.47
-6 3 1 7.44 2.29
5 -3 -1 0.43 0.64
5 -3 -1 0.76 0.71
-5 3 1 1.26 1.07
-5 3 1 1.37 1.11
-5 3 1 0.81 0.76
4 -3 -1 27.73 3.9
4 -3 -1 29.01 3.71
-4 3 1 29.13 4.07
-4 3 1 29.22 3.92
-4 3 1 25.43 3.66
-4 3 1 29.6 3.71
3 -3 -1 4.63 1.29
3 -3 -1 4 1.49
-3 3 1 2.85 1.28
-3 3 1 4.61 1.42
-3 3 1 1.26 0.97
-3 3 1 3.82 1.25
2 -3 -1 134.94 11.32
2 -3 -1 132.45 10.75
-2 3 1 108.6 10.94
-2 3 1 119.49 10.84
-2 3 1 108.77 10.45
1 -3 -1 8.58 1.82
1 -3 -1 4.3 1.3
1 -3 -1 7.53 1.92
-1 3 1 6.37 1.46
-1 3 1 6.45 1.56
-1 3 1 7.13 1.7
0 -3 -1 1.12 0.54
0 -3 -1 1.57 0.76
0 -3 -1 0.55 0.58
0 -3 -1 1.92 0.9
0 3 1 1.31 0.7
0 3 1 1.07 0.81
-1 -3 -1 149.11 13.27
-1 -3 -1 173.98 13.49
-1 -3 -1 154.82 12.89
1 3 1 169.54 13.5
1 3 1 128.1 12.72
1 3 1 141.72 13.37
-2 -3 -1 9.69 2.01
-2 -3 -1 8.35 2.03
2 3 1 10.12 1.5
2 3 1 12.17 2.48
2 3 1 8.41 2.06
2 3 1 9.86 1.8
-3 -3 -1 48.67 5.54
-3 -3 -1 38.87 4.52
-3 -3 -1 51.27 5.87
3 3 1 45.38 5.29
3 3 1 59.12 6.03
3 3 1 44.12 5.01
3 3 1 54.16 4.83
-4 -3 -1 41.87 4.88
-4 -3 -1 59.92 5.71
-4 -3 -1 45.27 5.7
4 3 1 48.06 5.48
-5 -3 -1 -0.17 0.48
-5 -3 -1 0.99 0.94
-5 -3 -1 0.97 1.17
5 3 1 0.88 0.76
5 3 1 -0.09 0.69
-6 -3 -1 4.94 2.09
-6 -3 -1 3.14 1.37
-6 -3 -1 7.18 2.36
-6 -3 -1 3.67 1.24
6 3 1 1.12 1.41
6 3 1 5.81 1.74
-7 -3 -1 8.55 2.65
-7 -3 -1 20.15 4.46
-7 -3 -1 15.16 3.77
-7 -3 -1 13.79 2.58
7 3 1 9.88 3.17
7 3 1 14.3 3.04
-8 -3 -1 35.15 5.25
-8 -3 -1 42.24 5.9
-8 -3 -1 35.25 6.42
-8 -3 -1 36.84 4.5
8 3 1 32.23 4.85
8 3 1 28.45 5.97
-9 -3 -1 7.35 2.15
-9 -3 -1 3.52 2.39
-9 -3 -1 7.41 3.31
-9 -3 -1 4.37 2.34
9 3 1 5.98 2.02
-10 -3 -1 -1.14 1.07
-10 -3 -1 0.58 2.11
10 3 1 -0.21 1.57
10 3 1 1.01 3.24
-11 -3 -1 2.11 3.15
-11 -3 -1 2.59 2.49
-11 -3 -1 2.57 1.6
11 3 1 -1.99 1.4
11 3 1 -0.83 1.08
-12 -3 -1 1.7 1.71
12 3 1 0.94 1.83
10 -4 -1 -0.11 1.51
-10 4 1 -3.43 1.36
-10 4 1 0.51 1.5
9 -4 -1 14.3 4.02
9 -4 -1 9.79 6.63
9 -4 -1 17.46 4.35
-9 4 1 2.86 2.28
-9 4 1 9.02 3.19
-9 4 1 6.29 2.65
8 -4 -1 3 1.81
8 -4 -1 0.48 1.86
-8 4 1 4.52 1.94
-8 4 1 5.12 2.08
7 -4 -1 2.58 1.64
7 -4 -1 -0.34 1.51
7 -4 -1 0.09 0.77
-7 4 1 0.94 1.36
-7 4 1 0.91 1.49
-7 4 1 2.47 1.53
6 -4 -1 2.48 1.58
6 -4 -1 1.6 1.24
6 -4 -1 2.09 1.75
-6 4 1 1.84 1.27
-6 4 1 1.76 1.54
-6 4 1 2.54 1.57
-6 4 1 2.65 1.48
5 -4 -1 2.63 1.6
5 -4 -1 1.26 1.26
-5 4 1 0.65 1.13
-5 4 1 0.72 0.99
-5 4 1 -0.09 0.75
-5 4 1 -0.45 0.56
4 -4 -1 16.12 3.45
4 -4 -1 17.16 3.3
-4 4 1 13.3 3.39
-4 4 1 15.41 3.06
-4 4 1 16.91 3.36
-4 4 1 14.85 3.09
3 -4 -1 54.58 5.77
3 -4 -1 58.3 6.35
-3 4 1 46.63 5.95
-3 4 1 49.96 5.56
-3 4 1 54.47 5.67
-3 4 1 40.85 5.71
2 -4 -1 -0.2 0.6
2 -4 -1 0.26 0.57
2 -4 -1 -0.83 0.38
-2 4 1 -0.73 0.64
-2 4 1 0.77 0.71
-2 4 1 0.4 0.64
-2 4 1 0.46 0.49
1 -4 -1 38.37 4.74
1 -4 -1 38.15 4.42
1 -4 -1 49.24 5.35
-1 4 1 35.47 4.6
-1 4 1 34.63 4.7
0 -4 -1 85.43 7.56
0 -4 -1 78.96 7.48
0 -4 -1 73.68 8.01
0 4 1 78.35 8.01
0 4 1 72.53 7.96
-1 -4 -1 34.41 4.67
-1 -4 -1 39.35 4.22
-1 -4 -1 34.86 4.47
1 4 1 33.89 4.4
1 4 1 34.54 4.07
-2 -4 -1 44.47 5.91
-2 -4 -1 58.92 5.65
2 4 1 52.14 5.98
2 4 1 52.75 5.31
2 4 1 60.9 6.47
2 4 1 48.67 5.48
-3 -4 -1 46.25 4.91
3 4 1 34.57 4.61
3 4 1 46.13 6.02
3 4 1 35.62 4.96
3 4 1 45.46 4.58
-4 -4 -1 10.98 2.91
-4 -4 -1 7.39 1.7
-4 -4 -1 13.51 2.44
4 4 1 13.04 2.98
4 4 1 9.47 2.44
4 4 1 14.67 2.22
4 4 1 22.1 4.54
-5 -4 -1 3.49 1.91
-5 -4 -1 2.16 1.34
-5 -4 -1 3.72 1.86
5 4 1 3.13 1.22
5 4 1 -0.32 1.31
-6 -4 -1 1.23 1.13
-6 -4 -1 2.23 1.03
-6 -4 -1 3 1.41
-6 -4 -1 0.18 1.67
6 4 1 1.52 1.06
-7 -4 -1 -0.42 1.72
-7 -4 -1 1.53 0.99
-7 -4 -1 1.49 1.53
7 4 1 1.3 1.19
7 4 1 0.06 1.64
-8 -4 -1 0.23 2.67
-8 -4 -1 3.05 2.08
-8 -4 -1 -0.32 1.16
-8 -4 -1 -0.24 0.71
8 4 1 1 1.52
8 4 1 0.81 1.26
-9 -4 -1 -1.69 1.41
-9 -4 -1 0.86 0.97
-9 -4 -1 1.26 2.26
9 4 1 -0.16 1.49
9 4 1 1.67 2.04
-10 -4 -1 1.24 1.41
-10 -4 -1 0.98 2.02
-10 -4 -1 5.78 2.44
10 4 1 -0.27 1.47
10 4 1 -3.7 2.92
-11 -4 -1 2.93 1.7
-11 -4 -1 -0.13 3.26
11 4 1 1.08 1.6
10 -5 -1 5.99 2.83
-10 5 1 5.36 2.12
-10 5 1 -1.63 2.71
9 -5 -1 -0.45 2.85
9 -5 -1 -1.57 2.82
9 -5 -1 -0.79 1.85
-9 5 1 -0.12 1.6
-9 5 1 5.08 2.52
8 -5 -1 0.86 1.58
8 -5 -1 3.97 2.93
8 -5 -1 -0.09 0.92
-8 5 1 -1.05 1.94
-8 5 1 1.12 1.73
-8 5 1 0.04 1.37
7 -5 -1 3.4 2.11
7 -5 -1 2.58 2.34
7 -5 -1 3.74 2.23
-7 5 1 0.55 1.45
-7 5 1 -1.04 1.34
-7 5 1 2.46 1.71
6 -5 -1 -1.02 0.91
6 -5 -1 1.18 1.47
-6 5 1 0.42 1.07
-6 5 1 -0.98 1.35
-6 5 1 0.61 1.31
-6 5 1 1.04 1.19
5 -5 -1 29.1 5.55
5 -5 -1 23.99 4.54
-5 5 1 23.88 4.51
-5 5 1 23.11 4.34
-5 5 1 26.69 5.11
-5 5 1 25.1 4.72
4 -5 -1 1.27 1.13
4 -5 -1 0.27 1.01
-4 5 1 1.86 1.19
-4 5 1 1.4 1.02
-4 5 1 0.93 1.09
-4 5 1 0.26 0.78
3 -5 -1 3.24 1.78
3 -5 -1 2.7 1.62
-3 5 1 3.31 1.62
-3 5 1 0.17 1.07
-3 5 1 0.06 0.79
-3 5 1 2.4 1.33
2 -5 -1 43.87 5.79
2 -5 -1 39.59 5.38
2 -5 -1 50.52 5.39
-2 5 1 42.87 5.53
-2 5 1 40.17 5.41
-2 5 1 36.09 4.82
1 -5 -1 8.01 2.29
1 -5 -1 6.15 1.81
1 -5 -1 5.89 2.12
1 -5 -1 2.37 1.21
-1 5 1 3.99 1.6
-1 5 1 2.33 1.58
0 -5 -1 6.86 1.95
0 -5 -1 12.98 2.17
0 -5 -1 11.49 2.86
0 -5 -1 6.74 2.45
0 5 1 11.43 3.02
0 5 1 8.28 2.55
-1 -5 -1 0.89 0.88
-1 -5 -1 2 1.54
-1 -5 -1 2.32 1.22
-1 -5 -1 0.73 0.58
1 5 1 2.02 1.05
1 5 1 1.83 1.38
1 5 1 1.66 0.98
-2 -5 -1 4.05 1.63
-2 -5 -1 4.29 1.69
2 5 1 3.51 1.3
2 5 1 6.28 2.14
2 5 1 3.13 1.48
-3 -5 -1 12.81 2.52
-3 -5 -1 9.44 2.98
3 5 1 7 2.33
3 5 1 9.31 2.18
3 5 1 9.94 2.99
-4 -5 -1 19.43 3.14
-4 -5 -1 17.54 4.06
4 5 1 9.25 2.32
4 5 1 12.98 3.38
4 5 1 12.01 2.53
-5 -5 -1 18.79 4.48
-5 -5 -1 33.22 4.28
5 5 1 20 3.82
5 5 1 25.53 5.2
5 5 1 20.36 4.46
5 5 1 26.76 3.72
-6 -5 -1 0.69 0.9
-6 -5 -1 2.33 1.37
-6 -5 -1 1.2 0.98
-6 -5 -1 7.43 2.15
6 5 1 2.91 1.46
6 5 1 2.27 1.69
6 5 1 2.38 2.06
-7 -5 -1 19.07 4.33
-7 -5 -1 10.38 3.28
-7 -5 -1 12.1 3.7
-7 -5 -1 14.54 2.81
7 5 1 16.1 3.3
7 5 1 6.29 3.13
-8 -5 -1 0.28 2.24
-8 -5 -1 0.62 0.85
-8 -5 -1 -0.2 1.46
8 5 1 0.3 2.24
8 5 1 1.27 1.54
-9 -5 -1 3.95 2.95
-9 -5 -1 1.4 0.86
-9 -5 -1 -0.69 1.62
-9 -5 -1 0.41 2.37
9 5 1 -0.41 1.3
-10 -5 -1 1.35 1.28
-10 -5 -1 -3.15 2.4
-10 -5 -1 1.48 3.07
10 5 1 -0.5 1.43
-11 -5 -1 2.18 1.45
11 5 1 2.4 2.21
9 -6 -1 0.49 1.84
9 -6 -1 -2.3 2.53
-9 6 1 2.2 2.68
8 -6 -1 4.39 2.53
8 -6 -1 0.59 1.3
-8 6 1 -4.47 1.86
-8 6 1 0.75 1.98
-8 6 1 0.39 1.07
7 -6 -1 2.71 1.26
7 -6 -1 -0.63 1.14
7 -6 -1 0.1 2.2
-7 6 1 -1.81 1.09
-7 6 1 1.56 1.65
-7 6 1 -0.8 1.61
-7 6 1 3 1.62
6 -6 -1 4.16 2.34
6 -6 -1 4.84 2.55
-6 6 1 1.06 1.61
-6 6 1 1.45 1.95
-6 6 1 0.42 1.62
5 -6 -1 21.14 4.39
5 -6 -1 14.69 3.79
-5 6 1 8.56 3.19
-5 6 1 26.47 5.1
-5 6 1 7.26 2.7
-5 6 1 12.84 3.55
4 -6 -1 7.17 2.78
4 -6 -1 11.87 3.15
-4 6 1 9.87 2.78
-4 6 1 10.38 3.02
-4 6 1 10.27 2.89
-4 6 1 10.1 3.03
3 -6 -1 2.16 1.66
3 -6 -1 2.56 1.6
-3 6 1 -0.14 1.12
-3 6 1 1.98 1.39
-3 6 1 2.89 1.43
2 -6 -1 0.25 0.9
2 -6 -1 1.05 1.18
2 -6 -1 -1.08 1.05
-2 6 1 0.74 0.83
-2 6 1 -0.64 0.73
1 -6 -1 1.41 1.3
1 -6 -1 0.55 1.22
1 -6 -1 1.23 1.14
-1 6 1 -0.62 0.69
-1 6 1 1.79 1.32
0 -6 -1 -0.36 0.96
0 -6 -1 0.76 0.94
0 -6 -1 -0.38 0.75
0 -6 -1 -1.13 0.99
0 6 1 0.44 1.17
0 6 1 -0.21 0.63
-1 -6 -1 3.11 2.08
-1 -6 -1 2.69 1.46
-1 -6 -1 2.17 1.7
-1 -6 -1 3.89 1.57
1 6 1 5.53 2.22
1 6 1 3.33 1.67
-2 -6 -1 11.2 2.44
-2 -6 -1 7.04 2.08
-2 -6 -1 11.46 3.22
2 6 1 8.36 2.53
2 6 1 6.84 2.06
2 6 1 8.38 2.46
-3 -6 -1 7.14 2.01
3 6 1 3.23 1.65
3 6 1 2.9 1.7
3 6 1 6.74 2.46
3 6 1 5.51 2.91
-4 -6 -1 11.7 3.63
-4 -6 -1 10.87 2.67
4 6 1 6.76 2.31
4 6 1 6.37 2.21
4 6 1 7.57 2.7
4 6 1 9.62 2.8
-5 -6 -1 1.44 1.46
-5 -6 -1 2.9 1.88
5 6 1 3.38 2.05
5 6 1 3.64 1.65
5 6 1 1.5 1.54
-6 -6 -1 0.29 1.01
6 6 1 -0.46 0.73
6 6 1 -0.26 0.88
6 6 1 -0.35 0.79
6 6 1 3.15 2.49
-7 -6 -1 0.47 1.99
-7 -6 -1 -0.13 0.58
7 6 1 -0.25 1.03
7 6 1 -0.22 0.79
7 6 1 2.19 2.31
-8 -6 -1 8.04 3.66
-8 -6 -1 7.4 2.21
-8 -6 -1 4.21 3.17
-8 -6 -1 3.74 2.5
8 6 1 12.33 3.7
8 6 1 8.95 2.68
8 6 1 7.22 3.21
-9 -6 -1 5.96 1.99
-9 -6 -1 4.25 2.34
-9 -6 -1 7.07 3
-9 -6 -1 6.75 3.3
9 6 1 0.84 3.49
9 6 1 3.42 1.75
9 6 1 5.57 2.14
-10 -6 -1 1.57 1.54
-10 -6 -1 1.03 2.19
-10 -6 -1 5.41 3.24
10 6 1 1.58 1.95
10 6 1 7.67 2.64
8 -7 -1 -3.22 3.58
8 -7 -1 2.82 1.89
-8 7 1 1.57 2.78
-8 7 1 1.26 1.89
-8 7 1 -2.25 1.71
7 -7 -1 -0.13 1.41
-7 7 1 1.99 2.14
-7 7 1 -0.58 1.69
-7 7 1 -2.17 1.25
6 -7 -1 4.64 2.54
6 -7 -1 6.6 4.46
-6 7 1 6.64 2.45
-6 7 1 2.09 2.24
-6 7 1 13.12 3.89
-6 7 1 2.62 1.81
5 -7 -1 0.39 1.46
-5 7 1 0.41 1.21
-5 7 1 -0.68 1.24
-5 7 1 0.27 1.78
4 -7 -1 1.6 1.52
-4 7 1 -0.77 1.2
-4 7 1 -1.27 0.98
-4 7 1 2.83 1.51
-4 7 1 1.4 1.27
3 -7 -1 0.31 1.13
3 -7 -1 1.89 1.65
-3 7 1 3.36 2.01
-3 7 1 1.71 1.53
-3 7 1 1.59 1.72
2 -7 -1 33.47 6.34
2 -7 -1 26.66 4.97
2 -7 -1 22.94 5.19
2 -7 -1 27.37 4.24
-2 7 1 30.23 5.92
-2 7 1 26.65 5.44
1 -7 -1 -0.66 1.14
1 -7 -1 1.64 1.49
1 -7 -1 3.45 2.04
1 -7 -1 1.55 1.28
-1 7 1 6.47 2.4
-1 7 1 1.23 1.43
0 -7 -1 4.06 2.41
0 -7 -1 1.86 1.98
0 -7 -1 5.68 1.94
0 -7 -1 3.12 1.78
0 7 1 7.55 2.71
0 7 1 1.58 1.6
-1 -7 -1 1.26 1.61
-1 -7 -1 0.37 1.25
-1 -7 -1 -0.25 1.47
1 7 1 0.1 1.32
1 7 1 1.17 1.23
-2 -7 -1 7.77 2.44
-2 -7 -1 11.12 2.65
-2 -7 -1 9.77 3.28
2 7 1 6.1 2.37
2 7 1 10.43 3.66
2 7 1 11.38 3.42
-3 -7 -1 106.62 10.07
-3 -7 -1 93.16 11.59
-3 -7 -1 80.67 9.44
3 7 1 88.09 9.85
3 7 1 107.27 11.73
3 7 1 118.11 12.13
-4 -7 -1 2.24 1.82
-4 -7 -1 -1.04 1.47
4 7 1 0.96 1.62
4 7 1 0.29 0.97
4 7 1 -0.18 0.97
4 7 1 -0.17 0.9
-5 -7 -1 0.91 1.34
5 7 1 -0.5 1.49
5 7 1 2.96 2.61
5 7 1 0.6 1.58
5 7 1 -0.96 0.93
-6 -7 -1 14.48 3.41
6 7 1 11 4.34
6 7 1 5.33 2.73
6 7 1 10.71 3.92
6 7 1 6.4 2.39
-7 -7 -1 6.5 3.06
7 7 1 1.64 1.93
7 7 1 4.26 2.18
-8 -7 -1 0.29 0.92
-8 -7 -1 1.7 2.1
-8 -7 -1 -0.44 2.39
8 7 1 1.46 1.38
8 7 1 -2.66 2.71
-9 -7 -1 0.43 1.28
-9 -7 -1 1.94 2.74
9 7 1 5.43 2.57
9 7 1 -3.45 3.23
-10 -7 -1 -1.25 1.25
-10 -7 -1 -3.53 2.57
7 -8 -1 1.51 2.5
-7 8 1 2.75 1.93
-7 8 1 0.37 1.83
-7 8 1 3.02 2.31
6 -8 -1 -2.93 1.18
-6 8 1 1.46 1.61
-6 8 1 1.08 1.19
-6 8 1 0.57 1.99
5 -8 -1 1.06 1.44
5 -8 -1 0.44 1.67
-5 8 1 0.09 1.74
-5 8 1 -1.19 1.85
-5 8 1 -1.13 1.06
-5 8 1 0.45 1.62
4 -8 -1 1.27 1.62
4 -8 -1 0.67 1.37
-4 8 1 -1.8 0.92
-4 8 1 -1.99 1.52
3 -8 -1 7.73 3.89
3 -8 -1 -0.38 1.6
-3 8 1 4.04 2.1
-3 8 1 1.93 1.86
-3 8 1 -0.44 1.49
2 -8 -1 0.32 1.11
2 -8 -1 2.45 1.4
2 -8 -1 -0.18 1.59
2 -8 -1 -0.98 1.27
-2 8 1 -0.78 1.23
-2 8 1 -0.26 1.03
1 -8 -1 2.09 1.73
1 -8 -1 -1.49 1.5
1 -8 -1 2.61 1.54
1 -8 -1 0.99 1.47
-1 8 1 -1.43 0.83
-1 8 1 0.49 1.6
0 -8 -1 0.23 1.61
0 -8 -1 1 1.42
0 -8 -1 -0.47 1.02
0 -8 -1 -0.33 1.28
0 8 1 -1.34 0.91
0 8 1 0.2 0.95
-1 -8 -1 -1.29 1.39
-1 -8 -1 0.56 1.96
-1 -8 -1 2.67 1.29
1 8 1 0.49 1.43
1 8 1 -0.92 1.6
-2 -8 -1 1.66 2.31
-2 -8 -1 0.19 1.05
-2 -8 -1 0.44 1.36
2 8 1 -0.47 1.34
-3 -8 -1 17.11 3.75
-3 -8 -1 9.11 3.6
-3 -8 -1 5.68 2.31
3 8 1 9.67 2.85
3 8 1 9.91 2.79
-4 -8 -1 0.35 1.65
-4 -8 -1 -0.12 1.58
-4 -8 -1 -1.45 1.04
4 8 1 -0.58 1.78
4 8 1 -1.95 1.3
4 8 1 -0.15 1.23
-5 -8 -1 1.87 1.92
5 8 1 2.95 1.9
5 8 1 1.71 1.82
5 8 1 2.21 1.43
-6 -8 -1 7.76 3.17
6 8 1 5 4.98
6 8 1 11.57 4.06
6 8 1 5.84 2.79
-7 -8 -1 2.33 2.86
-7 -8 -1 0.52 2.51
7 8 1 6.57 2.89
7 8 1 4.42 2.27
7 8 1 5.84 2.17
-8 -8 -1 0.63 1.15
-8 -8 -1 0.45 2.52
8 8 1 -2.73 1.57
8 8 1 -1.04 2.28
8 8 1 3.62 3.38
-9 -8 -1 5.62 4.03
-9 -8 -1 1.9 1.76
9 8 1 2.26 2.04
6 -9 -1 -2.17 2.66
6 -9 -1 2.87 2.09
-6 9 1 1.59 2.26
-6 9 1 1.54 2.56
5 -9 -1 1.56 2.22
5 -9 -1 -1.62 2.6
-5 9 1 4.29 2.48
-5 9 1 3.52 2.42
4 -9 -1 0.39 1.62
4 -9 -1 1.07 1.65
-4 9 1 -1.52 2.33
-4 9 1 2.34 1.73
-4 9 1 2.73 2.27
3 -9 -1 1.46 2.34
3 -9 -1 1.23 2.02
3 -9 -1 2.67 2.34
-3 9 1 -1.92 3.2
-3 9 1 1.34 2.02
-3 9 1 -1.15 2.91
2 -9 -1 0.83 2.66
2 -9 -1 2.66 2.1
2 -9 -1 4.73 2.51
2 -9 -1 2.07 2.42
-2 9 1 1 2.29
-2 9 1 3.66 2.01
1 -9 -1 1.63 2.01
1 -9 -1 6.8 2.96
1 -9 -1 3.02 2.51
-1 9 1 5.32 2.29
-1 9 1 -1.61 1.9
0 -9 -1 -0.16 2.16
0 -9 -1 1.53 1.59
0 9 1 0.52 1.7
0 9 1 2.13 2.14
-1 -9 -1 -0.25 1.63
-1 -9 -1 -1.26 1.27
-1 -9 -1 -2.44 1.57
1 9 1 0.04 0.98
1 9 1 -0.17 2.13
-2 -9 -1 41.15 5.6
-2 -9 -1 29.84 6.92
-2 -9 -1 43.46 5.74
2 9 1 39.09 7.86
-3 -9 -1 -0.54 1.85
-3 -9 -1 2.48 1.81
-3 -9 -1 9.44 4.15
3 9 1 2.96 2.36
-4 -9 -1 1.06 1.83
-4 -9 -1 6.1 2.89
-4 -9 -1 2.68 2.33
4 9 1 0.35 2.03
4 9 1 1.63 2.72
4 9 1 6.47 3.32
4 9 1 2.36 3.48
-5 -9 -1 2.81 2.23
-5 -9 -1 -0.81 1.88
-5 -9 -1 1.92 1.41
5 9 1 2.44 1.55
5 9 1 2.83 2.1
5 9 1 1.6 0.95
5 9 1 2.15 2.28
-6 -9 -1 1.49 1.48
-6 -9 -1 -1.55 2.17
6 9 1 -0.15 1.81
6 9 1 -2.11 1.49
-7 -9 -1 7.69 3.76
-7 -9 -1 5.81 2.49
7 9 1 4.29 3.47
7 9 1 15.83 4.96
7 9 1 11.27 3.19
-8 -9 -1 1.96 2.66
-8 -9 -1 -1.88 1.68
8 9 1 2.09 1.74
4 -10 -1 -0.29 1.57
4 -10 -1 3.73 2.47
-4 10 1 -0.22 2.05
3 -10 -1 -0.45 2.25
3 -10 -1 -0.08 1.49
-3 10 1 -0.9 1.7
2 -10 -1 -0.23 2.88
2 -10 -1 -1.54 2.45
-2 10 1 2.09 1.94
-2 10 1 -0.14 2.68
1 -10 -1 -2.31 1.87
1 -10 -1 2.25 2.14
1 -10 -1 0.93 1.72
-1 10 1 1.91 2.27
-1 10 1 -1.29 1.11
0 -10 -1 1.32 1.85
0 -10 -1 2.65 1.98
0 -10 -1 0.33 1.36
0 10 1 0.52 0.96
-1 -10 -1 0.37 2.29
-1 -10 -1 -2.59 2.74
-1 -10 -1 -1.13 1.9
1 10 1 -0.9 1.63
1 10 1 -1.7 0.97
-2 -10 -1 -3.47 1.5
-2 -10 -1 -0.33 1.95
-2 -10 -1 1.85 2.05
2 10 1 -1.99 1.35
2 10 1 0.64 1.92
2 10 1 0.15 3.39
-3 -10 -1 -1.19 1.92
3 10 1 3.58 2.94
3 10 1 3.04 1.59
-4 -10 -1 0.11 2.12
4 10 1 -2.96 1.79
4 10 1 -0.09 1.83
4 10 1 -1.33 1.52
-5 -10 -1 1.99 2.49
5 10 1 2.56 2
5 10 1 -0.79 2.35
5 10 1 1.93 1.92
-6 -10 -1 0.91 2.48
6 10 1 1.47 2.32
6 10 1 0.38 1.53
1 -11 -1 0.29 2.24
-1 11 1 -1.49 2.2
0 -11 -1 0.37 2.01
0 11 1 2.55 2.27
-1 -11 -1 -2.98 2.24
1 11 1 1.44 2.58
-2 -11 -1 1.98 2.2
-2 -11 -1 1.31 2.3
2 11 1 0.78 1.65
2 11 1 -1.98 1.71
-3 -11 -1 -1.84 1.97
-3 -11 -1 -2.31 2.27
3 11 1 -2.66 1.29
-4 -11 -1 3.37 2.53
4 11 1 -2.71 2.05
5 9 -2 -0.54 2.06
5 9 -2 2.39 2.4
5 9 -2 4.8 2.82
-5 -9 2 1.1 1.68
4 9 -2 3.85 2.34
4 9 -2 0.13 3.03
4 9 -2 0.49 3.02
-4 -9 2 -0.93 1.4
3 9 -2 0.14 2.2
-3 -9 2 0.4 1.34
2 9 -2 0.16 1.78
2 9 -2 1.2 1.57
-2 -9 2 0.72 1.57
1 9 -2 -0.45 1.99
1 9 -2 2.25 2.57
-1 -9 2 7.18 2.48
0 9 -2 -0.56 1.76
0 9 -2 1.15 2.53
-1 9 -2 -1.51 1.9
-1 9 -2 0.03 2.39
1 -9 2 -0.31 1.46
-2 9 -2 0.62 2.2
-2 9 -2 2.2 2.54
2 -9 2 1.74 1.82
-3 9 -2 0.18 2.36
-3 9 -2 -4.14 1.8
-4 9 -2 -1.75 2.22
-4 9 -2 -3.09 2.49
7 8 -2 2.99 2.34
7 8 -2 -1.89 2.17
7 8 -2 0.24 2.09
-7 -8 2 0.11 1.12
-7 -8 2 0.37 0.93
6 8 -2 1.71 2.14
6 8 -2 -1.68 1.8
6 8 -2 1.8 1.98
-6 -8 2 -0.72 1.18
5 8 -2 0.03 1.63
5 8 -2 0.45 1.81
5 8 -2 3.22 2.87
-5 -8 2 0.44 1.29
4 8 -2 1.45 1.8
4 8 -2 -0.22 1.66
4 8 -2 2.66 2.46
4 8 -2 0.27 1.53
-4 -8 2 0.09 1.25
-4 -8 2 1.87 2.99
3 8 -2 4.51 3.79
3 8 -2 2.89 2.26
3 8 -2 6.27 2.72
3 8 -2 1.86 1.63
-3 -8 2 5.6 1.85
-3 -8 2 5.2 4.06
-3 -8 2 7.63 2.18
2 8 -2 0.53 1.25
2 8 -2 4.99 2.83
2 8 -2 0.97 1.95
-2 -8 2 -3.28 2.14
-2 -8 2 -1.38 0.95
1 8 -2 3.3 1.8
1 8 -2 -0.03 3.29
-1 -8 2 1.7 1.21
-1 -8 2 0.67 0.76
-1 -8 2 -1.73 0.97
0 8 -2 0.23 1.66
0 8 -2 3.87 2.52
0 -8 2 2.06 3.25
0 -8 2 2.37 1.47
-1 8 -2 -0.28 1.76
-1 8 -2 -0.69 1.72
1 -8 2 1.72 2.47
1 -8 2 0.21 1.34
-2 8 -2 0.49 1.72
-2 8 -2 2.91 1.87
2 -8 2 1.59 2.3
-3 8 -2 -0.7 1.23
-3 8 -2 -0.04 1.67
-3 8 -2 0.64 1.47
3 -8 2 -1.74 1.63
-4 8 -2 -1.98 1.32
-4 8 -2 -2.28 1.83
-4 8 -2 -1.47 1.68
4 -8 2 0.15 0.74
4 -8 2 -0.24 1.91
-5 8 -2 0.74 1.71
-5 8 -2 5.47 2.28
5 -8 2 0.21 1.51
5 -8 2 2.56 1.54
-6 8 -2 -2.65 1.84
-6 8 -2 -0.56 2.6
-6 8 -2 -0.61 2.58
6 -8 2 1.45 2.02
6 -8 2 1.46 1.72
8 7 -2 2.64 2.83
8 7 -2 1.06 2.69
8 7 -2 3.41 2.47
-8 -7 2 0.89 1.1
7 7 -2 0.32 1.93
7 7 -2 -0.15 1.95
7 7 -2 -0.02 1.85
-7 -7 2 0.56 0.87
-7 -7 2 1.3 0.8
6 7 -2 1.49 1.73
6 7 -2 -1.16 1.75
-6 -7 2 2.67 2.46
-6 -7 2 1.51 1.05
5 7 -2 -2.72 1.66
5 7 -2 0.7 1.6
5 7 -2 1.09 1.54
-5 -7 2 0.54 1.79
-5 -7 2 0.13 0.95
4 7 -2 1.66 1.47
4 7 -2 2.03 1.83
4 7 -2 2.27 2.41
-4 -7 2 2.61 1.37
-4 -7 2 7.42 1.91
3 7 -2 -0.38 1.36
3 7 -2 -0.75 1.25
3 7 -2 -0.46 1.47
3 7 -2 0.66 1.26
-3 -7 2 1.75 1.14
-3 -7 2 1.01 0.91
2 7 -2 1.22 1.1
2 7 -2 1.44 1.61
2 7 -2 2 1.73
2 7 -2 -0.1 1.38
-2 -7 2 0.11 1.11
1 7 -2 7.81 2.96
1 7 -2 5.83 3.01
-1 -7 2 7.44 1.6
-1 -7 2 5.87 2.3
0 7 -2 17.54 4.77
0 7 -2 20.84 5.54
0 -7 2 19.02 2.11
0 -7 2 24.75 6.12
0 -7 2 21.72 3.9
-1 7 -2 1.26 1.6
-1 7 -2 1.91 1.48
1 -7 2 3.94 2.2
1 -7 2 0.67 1.31
-2 7 -2 0.68 1.41
-2 7 -2 3.88 2.75
-2 7 -2 4.51 2.69
2 -7 2 4.4 2.11
2 -7 2 4.33 3.46
-3 7 -2 2.65 2.15
-3 7 -2 2.78 1.62
-3 7 -2 2.1 2.07
3 -7 2 1.38 0.74
3 -7 2 2.02 2.44
-4 7 -2 1.62 1.07
-4 7 -2 -1.5 2.02
-4 7 -2 0.07 1.63
4 -7 2 0.43 1.08
4 -7 2 -1.69 0.86
4 -7 2 -3.11 1.34
-5 7 -2 7.79 2.78
-5 7 -2 -2.27 2.31
-5 7 -2 4.14 2.23
-5 7 -2 2.17 2.31
5 -7 2 3.19 1.44
5 -7 2 2.55 2.65
5 -7 2 7.69 2.86
-6 7 -2 1.81 1.57
-6 7 -2 1.58 1.95
6 -7 2 -1.85 1.58
-7 7 -2 1.48 1.68
-7 7 -2 -1.15 2.18
-7 7 -2 -1.69 0.88
7 -7 2 -1.85 2.88
9 6 -2 -2.4 1.87
-9 -6 2 -1.02 0.81
8 6 -2 8.63 2.54
7 6 -2 -1.52 1.99
7 6 -2 4.37 2.19
7 6 -2 0.73 2.4
-7 -6 2 -1.63 2.52
-7 -6 2 0.41 0.97
6 6 -2 1.62 1.79
6 6 -2 -1.53 1.33
6 6 -2 0.69 1.15
-6 -6 2 0.78 0.72
-6 -6 2 -1.23 1.74
5 6 -2 5.63 4.02
5 6 -2 7.36 2.9
5 6 -2 1.21 1.81
-5 -6 2 2.08 1.11
-5 -6 2 3.34 1.79
4 6 -2 2.31 1.42
4 6 -2 6.77 2.69
-4 -6 2 3.71 1.76
-4 -6 2 3.75 1.29
-4 -6 2 3.7 2.41
3 6 -2 18.05 4.21
3 6 -2 15.25 3.94
3 6 -2 18.26 4.84
-3 -6 2 13.66 2.57
-3 -6 2 19.67 2.75
-3 -6 2 22.26 5.61
2 6 -2 -0.75 1.12
2 6 -2 1.62 1.75
2 6 -2 0.57 0.95
2 6 -2 -0.48 0.79
-2 -6 2 1.95 1
-2 -6 2 0.4 0.89
-2 -6 2 -0.18 1.75
1 6 -2 31.96 6.56
1 6 -2 28.18 5.89
-1 -6 2 40.74 4.67
-1 -6 2 40.75 3.86
-1 -6 2 32.3 7.22
0 6 -2 2.79 1.77
0 6 -2 0.78 1.55
0 -6 2 2.79 2.46
0 -6 2 1.3 0.61
0 -6 2 2.46 1.1
-1 6 -2 24.22 5.04
-1 6 -2 25.39 5.54
-1 6 -2 15.89 3.57
1 -6 2 21.13 2.03
1 -6 2 22.07 6.28
1 -6 2 28.2 4.53
-2 6 -2 -0.51 1.21
-2 6 -2 0.17 0.85
-2 6 -2 0.38 1.37
2 -6 2 0.3 0.5
2 -6 2 -0.05 0.97
2 -6 2 0.85 0.48
2 -6 2 0.6 1.61
-3 6 -2 2.63 1.56
-3 6 -2 2.75 2.08
-3 6 -2 -2.08 1.42
3 -6 2 1.49 0.93
3 -6 2 2.42 1.07
3 -6 2 0.38 1.16
-4 6 -2 1.9 2.96
-4 6 -2 0.23 1.67
-4 6 -2 0.17 1.51
4 -6 2 -1.65 0.77
4 -6 2 2.1 1.55
-5 6 -2 2.86 1.57
-5 6 -2 1.01 1.31
-5 6 -2 -0.05 1.08
5 -6 2 -2.02 1.04
5 -6 2 1.02 1.21
-6 6 -2 -1.77 1.46
-6 6 -2 -0.48 1.45
-6 6 -2 -0.27 1.69
-6 6 -2 -1.17 1.46
6 -6 2 1.57 1.32
6 -6 2 0.99 1.71
6 -6 2 -0.1 1.48
-7 6 -2 -0.05 2.46
-7 6 -2 -0.3 1.81
-7 6 -2 0.17 1.6
7 -6 2 1.96 1.67
7 -6 2 1.73 2.45
-8 6 -2 -1.72 1.66
-8 6 -2 -3.01 1.51
-8 6 -2 -1.44 1.66
8 -6 2 1.07 1.72
8 -6 2 -1.49 2.44
9 -6 2 -1.31 1.85
-10 -5 2 -0.54 1.06
9 5 -2 1.09 3.31
9 5 -2 4.52 2.9
-9 -5 2 5.12 3.08
8 5 -2 2.93 1.94
8 5 -2 -4.36 2.06
-8 -5 2 -1.16 2.07
7 5 -2 6.51 2.95
7 5 -2 3.13 1.88
7 5 -2 2.27 1.78
-7 -5 2 1.09 0.63
6 5 -2 4.05 3.71
6 5 -2 0.72 1.63
-6 -5 2 3.69 2.06
-6 -5 2 1.74 0.79
-6 -5 2 2.47 0.87
5 5 -2 7.81 2.65
5 5 -2 3.87 1.74
5 5 -2 9.03 2.89
-5 -5 2 6.67 2.85
-5 -5 2 3.7 1.12
4 5 -2 20.37 4.99
4 5 -2 11.87 3.51
-4 -5 2 19.69 2.94
-4 -5 2 14.39 4.44
-4 -5 2 14.65 2.15
3 5 -2 -1.05 0.79
3 5 -2 0.61 1.11
3 5 -2 1.55 1.26
-3 -5 2 -0.36 0.82
-3 -5 2 -1.26 0.69
-3 -5 2 0.31 0.5
2 5 -2 16.73 4.14
2 5 -2 15.76 3.65
2 5 -2 12.67 2.23
2 5 -2 13.25 3.65
-2 -5 2 17.91 2.36
-2 -5 2 14.19 2.21
-2 -5 2 14.08 4.35
1 5 -2 10.53 3.31
1 5 -2 17.51 4.46
1 5 -2 11.93 2.02
-1 -5 2 16.77 1.97
-1 -5 2 16.33 4.35
-1 -5 2 12.39 2.39
0 5 -2 2.25 1.7
0 5 -2 3.76 2.23
0 -5 2 1.79 1.89
0 -5 2 3.48 0.69
0 -5 2 5.75 1.47
-1 5 -2 2.63 1.46
-1 5 -2 4.59 1.43
-1 5 -2 0.58 1.39
1 -5 2 3.52 2.25
1 -5 2 2.71 1.23
1 -5 2 1.62 0.39
-2 5 -2 5.84 1.8
-2 5 -2 7.44 2.96
-2 5 -2 4.66 2.19
2 -5 2 3.89 0.86
2 -5 2 6.83 2.87
2 -5 2 5.08 0.86
2 -5 2 3.71 1.47
-3 5 -2 5.21 1.89
-3 5 -2 2.7 1.77
-3 5 -2 4.1 2.13
3 -5 2 3.2 0.84
3 -5 2 5.56 1.88
-4 5 -2 52.63 6.67
-4 5 -2 52.75 6.42
-4 5 -2 40.06 7.79
4 -5 2 64.11 6.76
4 -5 2 48.45 5.11
4 -5 2 52.42 6.59
-5 5 -2 5.89 2.36
-5 5 -2 6.81 2.53
-5 5 -2 4.53 2.75
5 -5 2 3.11 1.3
5 -5 2 8.36 2.85
5 -5 2 7.9 2.5
-6 5 -2 21.29 4.15
-6 5 -2 23.66 4.85
-6 5 -2 13.98 5.68
6 -5 2 25.27 4.6
-7 5 -2 0.19 1.54
-7 5 -2 0.03 1.08
-7 5 -2 1.67 1.9
-7 5 -2 2.04 1.49
7 -5 2 3.71 2.54
7 -5 2 2.87 1.58
-8 5 -2 0.49 2.1
-8 5 -2 -1.13 1.41
-8 5 -2 1.21 1.46
8 -5 2 0.7 2.19
8 -5 2 2.52 1.52
-9 5 -2 0.43 2.11
-9 5 -2 4.01 2.53
9 -5 2 4.16 2.43
9 -5 2 7.62 2.98
10 4 -2 1.77 2.13
-10 -4 2 0.38 0.88
-10 -4 2 -0.87 2.17
9 4 -2 0.07 1.88
9 4 -2 3.66 3.27
-9 -4 2 2.4 2.29
-9 -4 2 -1.12 1.63
-9 -4 2 2.61 0.94
8 4 -2 6.51 2.66
8 4 -2 7.61 3.39
-8 -4 2 2.68 2.4
7 4 -2 2.85 2.2
7 4 -2 2.28 1.62
-7 -4 2 -0.81 1.65
-7 -4 2 1.66 1.48
6 4 -2 12.9 3.5
6 4 -2 9.23 2.82
6 4 -2 10.98 3.15
-6 -4 2 8.34 3.34
-6 -4 2 10.26 1.56
-6 -4 2 6.59 2.68
5 4 -2 3.56 1.75
5 4 -2 4.21 1.99
5 4 -2 2.06 1.65
-5 -4 2 1.8 0.71
-5 -4 2 1.93 1.5
4 4 -2 2.66 1.57
4 4 -2 1.79 1.09
4 4 -2 2.11 1.72
-4 -4 2 2.44 1.29
-4 -4 2 0.9 0.58
3 4 -2 2.08 1.14
3 4 -2 4.5 1.64
3 4 -2 4.63 2.05
-3 -4 2 7.21 2.56
-3 -4 2 3.85 1.03
-3 -4 2 6.6 1.64
2 4 -2 52.05 6.45
2 4 -2 49.73 5.37
2 4 -2 51.1 7.02
-2 -4 2 53.92 5.24
-2 -4 2 67.43 5.54
-2 -4 2 52.28 7.28
1 4 -2 24.89 4.63
1 4 -2 21.62 3.04
1 4 -2 22.14 4.86
-1 -4 2 21.01 4.76
-1 -4 2 25.9 2.59
-1 -4 2 24.11 2.84
0 4 -2 6.04 1.57
0 4 -2 10.49 3.28
0 4 -2 9.53 2.54
0 -4 2 8.26 1
0 -4 2 10.1 2.87
0 -4 2 5.86 1.53
-1 4 -2 5.89 2.43
-1 4 -2 5.89 2.07
-1 4 -2 5.6 1.55
1 -4 2 6.07 1.58
1 -4 2 4.24 0.59
1 -4 2 2.77 1.98
-2 4 -2 0.44 0.71
-2 4 -2 -0.23 1.08
-2 4 -2 0.11 0.62
2 -4 2 0.23 0.62
2 -4 2 0.91 0.54
2 -4 2 0.09 0.35
2 -4 2 -0.67 0.87
-3 4 -2 43.48 5.38
-3 4 -2 39.7 6.2
-3 4 -2 50.94 5.95
3 -4 2 47.3 4.48
3 -4 2 48.79 5.62
3 -4 2 51.41 5.49
-4 4 -2 10.3 3.32
-4 4 -2 11.54 2.79
-4 4 -2 12.94 3.02
4 -4 2 13.86 2.97
4 -4 2 8.87 2.42
4 -4 2 12.74 2.05
-5 4 -2 2.02 1.33
-5 4 -2 3.09 1.66
-5 4 -2 2.52 1.91
-5 4 -2 2.11 1.25
5 -4 2 2.55 1.29
5 -4 2 6.55 2.09
5 -4 2 3.73 1.54
-6 4 -2 8.47 3.3
-6 4 -2 10.64 2.63
-6 4 -2 12.02 3.07
-6 4 -2 3.69 1.85
6 -4 2 7.31 1.83
6 -4 2 10.2 2.59
-7 4 -2 -0.68 0.86
-7 4 -2 0.41 0.86
-7 4 -2 2.52 1.78
-7 4 -2 1.84 2.11
7 -4 2 1.34 1.8
7 -4 2 0.16 0.91
-8 4 -2 11.54 3.3
-8 4 -2 2.04 1.63
-8 4 -2 0 1.31
8 -4 2 1.42 1.57
8 -4 2 -0.13 0.97
8 -4 2 -2.8 1.87
-9 4 -2 0.69 1.39
-9 4 -2 1.81 2.36
9 -4 2 1.65 1.42
9 -4 2 -1.77 1.85
-10 4 -2 7.1 3.77
-10 4 -2 -2.22 2.25
10 -4 2 1.95 3.63
10 -4 2 1.72 1.41
-11 -3 2 0.68 1.14
10 3 -2 -3.31 1.65
-10 -3 2 -0.48 0.89
-10 -3 2 1.95 2.34
9 3 -2 -0.02 1.4
9 3 -2 2.71 2.76
-9 -3 2 -0.25 0.65
-9 -3 2 -2.6 1.93
8 3 -2 1.52 1.82
8 3 -2 3.13 1.89
-8 -3 2 1.03 1.59
-8 -3 2 4.32 2.43
-8 -3 2 3.77 1.05
7 3 -2 8.83 3.22
7 3 -2 7.39 2.44
-7 -3 2 7.43 3.14
-7 -3 2 5.34 2.48
-7 -3 2 9.6 1.7
6 3 -2 4 1.93
6 3 -2 3.08 1.65
6 3 -2 2.54 1.6
-6 -3 2 1.61 1.99
-6 -3 2 4.26 1.01
-6 -3 2 0.53 1.82
5 3 -2 20.26 3.97
5 3 -2 14.01 3.08
5 3 -2 17.6 3.46
-5 -3 2 14.18 4.79
-5 -3 2 17.4 1.95
-5 -3 2 14.05 3.52
4 3 -2 1.28 0.95
4 3 -2 0.01 1.02
4 3 -2 -0.56 0.58
-4 -3 2 0.41 0.9
-4 -3 2 0.09 0.33
-4 -3 2 1.31 1.33
3 3 -2 3.24 1.5
3 3 -2 3.67 1.38
3 3 -2 3.85 1.29
-3 -3 2 2.32 0.75
-3 -3 2 2.83 1.8
-3 -3 2 5.55 2.14
2 3 -2 54.21 6.08
2 3 -2 64.46 7.13
2 3 -2 58.09 5.39
-2 -3 2 55.04 6.84
-2 -3 2 51.88 4.96
-2 -3 2 55.23 5.32
1 3 -2 1.35 0.64
1 3 -2 -0.23 0.46
-1 -3 2 0.86 1.01
-1 -3 2 1.15 0.5
-1 -3 2 1.2 0.53
0 3 -2 107.65 10.59
0 3 -2 92.63 8.8
0 3 -2 105.61 9.83
0 -3 2 87.04 10.25
0 -3 2 110.25 8.84
-1 3 -2 -0.4 0.38
-1 3 -2 -0.07 0.74
-1 3 -2 -0.11 0.4
1 -3 2 2.74 1.49
1 -3 2 -0.47 0.42
-2 3 -2 3.8 1.56
-2 3 -2 6.05 1.5
-2 3 -2 4.23 1.79
2 -3 2 5.32 1.39
2 -3 2 5.35 0.84
2 -3 2 4.57 1.88
-3 3 -2 136.13 13.94
-3 3 -2 140.48 12.9
-3 3 -2 148.05 12.86
3 -3 2 135.15 12.62
3 -3 2 152.37 12.75
3 -3 2 144.38 11.9
-4 3 -2 6.11 1.96
-4 3 -2 7.79 1.89
-4 3 -2 4.35 2.34
4 -3 2 7.21 1.97
4 -3 2 9.42 2.11
-5 3 -2 18 3.63
-5 3 -2 19.84 3.71
-5 3 -2 18.28 2.84
-5 3 -2 16.91 4.15
5 -3 2 18.11 3.45
5 -3 2 18.4 2.77
-6 3 -2 0.83 1.05
-6 3 -2 0.03 1.3
-6 3 -2 0.25 1.22
-6 3 -2 0.51 0.78
6 -3 2 0.47 1.25
6 -3 2 1.01 1.49
6 -3 2 0.57 0.69
-7 3 -2 1.89 0.79
-7 3 -2 -0.6 1.09
-7 3 -2 1.54 1.46
-7 3 -2 1.57 1.41
7 -3 2 1.35 1.36
7 -3 2 0.54 1.24
7 -3 2 0.67 0.77
-8 3 -2 1.42 1.7
-8 3 -2 2.96 1.89
8 -3 2 3.87 2.18
8 -3 2 7.18 2.55
8 -3 2 0.67 1.14
-9 3 -2 3.07 1.82
-9 3 -2 1.2 1.8
9 -3 2 2.47 1.84
9 -3 2 0.92 1.23
9 -3 2 -1.07 2.1
-10 3 -2 -1.4 1.29
-10 3 -2 0.83 1.51
10 -3 2 2.98 1.39
10 -3 2 -2.29 3.69
-11 3 -2 -2.47 1.36
11 -3 2 0.26 1.54
11 2 -2 1.72 2.2
11 2 -2 0.65 2.69
-11 -2 2 -2.49 2.1
-11 -2 2 1.32 1.21
10 2 -2 1.61 1.84
10 2 -2 3.73 1.96
-10 -2 2 2.97 1.31
-10 -2 2 -0.64 2.11
9 2 -2 -2.16 2.63
9 2 -2 5.41 2.43
-9 -2 2 4.81 1.47
-9 -2 2 0.13 2.53
-9 -2 2 6.25 2.43
8 2 -2 3.76 2.24
8 2 -2 3.11 2.05
-8 -2 2 -1.24 1.64
-8 -2 2 1.1 0.72
-8 -2 2 2.77 1.97
7 2 -2 4.94 2.44
7 2 -2 5.74 2.25
-7 -2 2 9.27 2.78
-7 -2 2 6.64 1.9
-7 -2 2 4.39 2.5
6 2 -2 -0.26 1.63
-6 -2 2 2.34 0.68
-6 -2 2 1.83 1.39
-6 -2 2 1.92 1.86
5 2 -2 31.94 4.41
5 2 -2 32.24 4.37
5 2 -2 32.96 4.32
-5 -2 2 22.71 4.45
-5 -2 2 30.49 2.92
-5 -2 2 23.12 3.96
4 2 -2 122.1 11.16
4 2 -2 112.44 10.5
4 2 -2 113.93 10.7
-4 -2 2 107.11 11.06
-4 -2 2 111.52 9.18
3 2 -2 118.96 9.96
3 2 -2 124.18 10.84
3 2 -2 121.26 10.33
-3 -2 2 91.82 10.43
-3 -2 2 98.56 8.71
2 2 -2 -0.06 0.47
2 2 -2 0.5 0.51
-2 -2 2 -0.47 0.38
-2 -2 2 -0.08 0.19
1 2 -2 47.79 4.27
1 2 -2 56.53 5.82
-1 -2 2 42.19 5.45
-1 -2 2 44.28 4.07
0 2 -2 8.69 0.91
0 2 -2 9.5 1.32
0 2 -2 8.13 2.14
0 -2 2 8.73 2.34
0 -2 2 8.78 1.27
-1 2 -2 -0.64 0.5
-1 2 -2 0.07 0.36
-1 2 -2 -0.6 0.24
1 -2 2 -0.39 0.31
1 -2 2 -0.18 0.69
-2 2 -2 103.09 9.18
-2 2 -2 95.45 10.02
-2 2 -2 95.89 10.37
2 -2 2 109.21 9.04
2 -2 2 99.91 8.28
-3 2 -2 49.52 5.05
-3 2 -2 53.18 6.3
-3 2 -2 55.62 5.32
3 -2 2 51 4.74
3 -2 2 49.6 5.19
3 -2 2 44.74 4.86
-4 2 -2 7.72 1.69
-4 2 -2 9.45 2.18
-4 2 -2 8.09 2.09
4 -2 2 10.76 2.29
4 -2 2 9.79 1.88
4 -2 2 12.13 1.88
-5 2 -2 8.43 2.11
-5 2 -2 5.39 1.89
-5 2 -2 6.65 1.46
5 -2 2 6.41 1.82
5 -2 2 5.19 1.51
5 -2 2 3.75 1.32
-6 2 -2 1.76 1.52
-6 2 -2 0.88 1.03
6 -2 2 2.28 1.17
6 -2 2 1.08 1.08
6 -2 2 3.17 1.25
-7 2 -2 0.55 1.52
-7 2 -2 3.03 1.63
7 -2 2 2.71 1.73
7 -2 2 1.54 1.46
-8 2 -2 -0.08 1.25
-8 2 -2 1.07 1.08
8 -2 2 -0.56 0.66
8 -2 2 3.52 2.19
8 -2 2 -1.7 0.68
-9 2 -2 6.52 3.04
-9 2 -2 4.19 2.16
9 -2 2 2.67 1.54
9 -2 2 3.17 2.43
9 -2 2 5.48 2.07
-10 2 -2 0.21 1.61
-10 2 -2 -0.83 1.95
10 -2 2 1.86 1.54
10 -2 2 5.45 3.15
-11 2 -2 4.75 2.04
11 -2 2 0.53 1.22
11 1 -2 1.58 1.46
11 1 -2 -0.29 3.22
-11 -1 2 -0.42 1.07
-11 -1 2 -1.02 2.35
10 1 -2 -0.05 1.26
-10 -1 2 2.75 3.18
-10 -1 2 3.08 1.6
9 1 -2 -1.1 2.37
9 1 -2 -0.69 1.4
9 1 -2 -1.67 0.87
-9 -1 2 0.23 1.61
-9 -1 2 -1.74 2.43
-9 -1 2 -0.7 0.71
8 1 -2 1.28 2.05
8 1 -2 1.04 2.35
-8 -1 2 3.74 1.37
-8 -1 2 3.61 2
-8 -1 2 4.37 2.39
7 1 -2 1.54 1.4
7 1 -2 1.52 2.01
-7 -1 2 0.65 1.39
-7 -1 2 1.92 0.88
-7 -1 2 1.22 1.7
6 1 -2 40.93 6.73
6 1 -2 29.04 4.25
-6 -1 2 27.78 3.2
-6 -1 2 25.04 4.15
-6 -1 2 30.62 5.46
5 1 -2 7.36 2.14
5 1 -2 6.26 1.93
-5 -1 2 8.45 2.34
-5 -1 2 8.06 2.21
-5 -1 2 8.5 1.43
4 1 -2 19.42 2.92
4 1 -2 19.56 3.02
4 1 -2 18.38 2.75
-4 -1 2 15.32 3.06
-4 -1 2 17.29 1.89
-4 -1 2 21.64 3.06
3 1 -2 85.05 7.27
3 1 -2 72.72 6.94
3 1 -2 80.78 7.3
-3 -1 2 74.07 5.87
-3 -1 2 66.67 7.17
-3 -1 2 57.37 6.87
2 1 -2 60.74 5.58
2 1 -2 67.03 5.98
2 1 -2 54 5.23
-2 -1 2 46.48 5.42
-2 -1 2 52.73 5.81
1 1 -2 9.68 1.88
1 1 -2 5.68 0.68
1 1 -2 7.18 1.46
1 1 -2 5.14 0.94
-1 -1 2 5.96 0.66
-1 -1 2 4.72 1.41
0 1 -2 108.26 8.95
0 -1 2 123.43 10.49
0 -1 2 104.79 8.94
-1 1 -2 62.39 5.48
-1 1 -2 77.03 7.02
-1 1 -2 73.14 6.01
1 -1 2 71.02 7.09
1 -1 2 63.06 5.55
1 -1 2 76.75 6.07
-2 1 -2 259.94 20.2
-2 1 -2 213.61 18
-2 1 -2 230.11 18.42
-2 1 -2 230.37 18.28
2 -1 2 220.14 18.42
2 -1 2 218.55 18.04
-3 1 -2 8.67 1.27
-3 1 -2 9 1.51
-3 1 -2 10.28 1.94
3 -1 2 9.72 1.29
3 -1 2 10.13 1.61
3 -1 2 10.12 1.84
-4 1 -2 9.45 2.09
-4 1 -2 14.13 2.42
-4 1 -2 12.87 1.52
4 -1 2 12.46 2.01
4 -1 2 9.01 1.91
4 -1 2 11.15 1.58
-5 1 -2 8.31 2.04
-5 1 -2 8.19 1.91
5 -1 2 7.9 1.91
5 -1 2 7.1 1.53
5 -1 2 5.3 1.66
-6 1 -2 19.26 2.99
-6 1 -2 17.7 3.4
6 -1 2 19.7 2.57
6 -1 2 17.65 3.19
6 -1 2 14.91 3.23
-7 1 -2 16.16 3.51
-7 1 -2 14.58 3.18
7 -1 2 10.37 2.71
7 -1 2 15.72 3.71
7 -1 2 17.68 2.53
-8 1 -2 8.06 2.58
-8 1 -2 7.03 2.15
8 -1 2 5.8 1.88
8 -1 2 8.74 2.7
8 -1 2 7.23 2.64
-9 1 -2 0.78 1.25
-9 1 -2 1.65 1.05
9 -1 2 2.2 1.25
9 -1 2 0.75 1.02
9 -1 2 -2.37 1.62
-10 1 -2 0.62 1.07
-10 1 -2 -0.85 1.36
10 -1 2 0.85 1.86
10 -1 2 -0.82 0.93
10 -1 2 1.42 2.6
-11 1 -2 1.27 1.6
11 -1 2 -0.56 1.26
11 0 -2 -0.67 3.68
11 0 -2 1.11 2
-11 0 2 4.69 2.24
-11 0 2 -0.68 1.86
10 0 -2 2.29 1.38
10 0 -2 1.06 3.72
10 0 -2 -0.5 1.15
-10 0 2 -2.89 1.23
-10 0 2 1.04 0.94
-10 0 2 1.04 3.88
9 0 -2 4.99 2.32
9 0 -2 2.25 1.81
9 0 -2 2.65 1.61
-9 0 2 4.1 1.56
-9 0 2 5.31 3.13
-9 0 2 5.01 2.23
8 0 -2 3.34 1.78
8 0 -2 4.28 2.82
8 0 -2 2.39 1.22
-8 0 2 1.3 1.03
-8 0 2 2.61 1.59
-8 0 2 2.08 1.95
7 0 -2 124.77 11.94
7 0 -2 129.22 11.97
7 0 -2 114.36 11.85
7 0 -2 107.85 10.37
-7 0 2 111.7 10.46
-7 0 2 104.26 11.64
-7 0 2 130.01 11.91
6 0 -2 0.21 0.82
6 0 -2 -0.14 0.62
-6 0 2 0.1 0.69
-6 0 2 -1.72 1.4
-6 0 2 0.12 0.74
5 0 -2 71.82 8.07
5 0 -2 95.8 8.46
5 0 -2 79.56 7.05
-5 0 2 86.88 7.21
-5 0 2 72.56 7.82
-5 0 2 73.15 8.04
4 0 -2 27.66 2.9
4 0 -2 33.49 3.91
4 0 -2 29.49 3.85
-4 0 2 31.93 3.04
-4 0 2 25.49 3.59
-4 0 2 32.2 3.73
3 0 -2 6.99 0.93
-3 0 2 6.89 1.55
-3 0 2 8.09 1
-3 0 2 6.49 1.67
2 0 -2 0.07 0.4
2 0 -2 0.52 0.38
2 0 -2 -0.06 0.1
-2 0 2 0.07 0.41
-2 0 2 0.45 0.19
1 0 -2 79.33 6.1
1 0 -2 64.76 5.85
-1 0 2 57.79 5.89
-1 0 2 60.72 5.87
0 0 -2 35.51 3.61
0 0 -2 38.33 3.3
0 0 2 44.82 4.04
-2 0 -2 15.16 1.4
-2 0 -2 16.54 1.95
-2 0 -2 18.07 2.01
2 0 2 16.39 1.99
2 0 2 16.99 2.14
-3 0 -2 60.2 5.16
-3 0 -2 52.6 5.14
-3 0 -2 48.67 5.08
3 0 2 56.74 5.19
3 0 2 61.75 5.35
3 0 2 47.37 4.39
-4 0 -2 67.55 6.55
-4 0 -2 60.44 6.3
-4 0 -2 71.54 6.38
4 0 2 75.21 6.7
4 0 2 61.48 6.29
4 0 2 62.88 5.67
-5 0 -2 26.19 3.5
-5 0 -2 26.35 3.26
-5 0 -2 27.22 3.73
5 0 2 31.95 3.64
5 0 2 26.41 3.73
5 0 2 25.22 2.86
-6 0 -2 41.71 5.32
-6 0 -2 48.69 5.56
-6 0 -2 45.14 5.1
6 0 2 43.64 4.68
6 0 2 52 5.86
6 0 2 46.09 5.31
6 0 2 43.41 5.25
-7 0 -2 -0.06 1.56
-7 0 -2 -0.38 0.68
7 0 2 -0.17 0.86
7 0 2 -1.48 1.96
7 0 2 0.25 0.89
7 0 2 -0.02 0.5
-8 0 -2 1.05 1.15
-8 0 -2 -0.3 0.99
8 0 2 0.33 0.81
8 0 2 -0.68 1.1
8 0 2 1.43 1.89
8 0 2 1.69 1.28
-9 0 -2 0.48 1.53
-9 0 -2 1.45 1.4
9 0 2 4.51 2.2
9 0 2 3.43 2.09
9 0 2 4.08 1.64
-10 0 -2 -2.66 3.5
-10 0 -2 0.42 0.98
10 0 2 1.61 1.29
10 0 2 0.29 1.25
10 0 2 6.81 4.59
-11 0 -2 -1.27 1.56
11 0 2 -0.33 1.89
11 0 2 2.45 1.71
-12 0 -2 -0.52 1.46
12 0 2 0.33 1.5
11 -1 -2 -3.51 1.73
11 -1 -2 2.3 1.51
11 -1 -2 0.58 1.44
-11 1 2 -1.06 1.05
10 -1 -2 2.24 1.99
10 -1 -2 0.34 1.35
10 -1 -2 3.2 2.02
-10 1 2 1.95 1.46
-10 1 2 1.83 1.95
9 -1 -2 -3.21 1.32
9 -1 -2 0.44 1.05
9 -1 -2 -1.12 0.82
-9 1 2 0.46 0.84
-9 1 2 0.89 1.27
8 -1 -2 0.01 0.86
8 -1 -2 1.91 1.24
8 -1 -2 2.07 1.48
-8 1 2 1.06 1.06
-8 1 2 1.61 1.09
7 -1 -2 -0.06 0.76
7 -1 -2 -0.69 0.71
7 -1 -2 0.22 1
7 -1 -2 1.58 1.52
-7 1 2 0.47 0.73
-7 1 2 -0.37 1.16
-7 1 2 0.97 1.06
6 -1 -2 2.04 1.28
6 -1 -2 0.88 1.16
6 -1 -2 2.66 2.19
6 -1 -2 1.63 0.91
-6 1 2 1.5 0.7
-6 1 2 2.7 1.31
-6 1 2 2.26 1.48
5 -1 -2 0.28 0.75
5 -1 -2 -0.25 0.7
5 -1 -2 0.23 0.49
5 -1 -2 0.04 0.97
-5 1 2 0.33 0.82
-5 1 2 0.38 0.43
4 -1 -2 64.39 6.66
4 -1 -2 68.1 6.93
4 -1 -2 69.7 6.03
-4 1 2 72.05 6.42
-4 1 2 56.35 6.47
-4 1 2 65.57 6.08
3 -1 -2 12.12 2.61
3 -1 -2 18.5 3.42
3 -1 -2 15.71 1.92
-3 1 2 17.72 2.4
-3 1 2 19.61 2.52
-3 1 2 17.4 2
2 -1 -2 144.62 10.82
2 -1 -2 119.39 10.11
2 -1 -2 111.78 9.79
-2 1 2 120.26 9.76
-2 1 2 115.71 10.08
-2 1 2 106.16 9.58
1 -1 -2 256.95 21.03
1 -1 -2 298.92 21.61
-1 1 2 292.59 22.18
-1 1 2 239.94 21.08
0 -1 -2 20.53 1.9
0 1 2 18.48 2.2
0 1 2 18.92 1.9
-1 -1 -2 680.58 54.26
1 1 2 703.69 54.35
-2 -1 -2 251.81 20.12
-2 -1 -2 261.47 20.65
-2 -1 -2 269.79 20.4
2 1 2 240.18 20.59
2 1 2 249.31 19.99
-3 -1 -2 175.11 14.85
-3 -1 -2 177.52 14.42
-3 -1 -2 182.31 14.57
3 1 2 155.91 14.77
3 1 2 192.48 14.53
-4 -1 -2 15.92 2.22
-4 -1 -2 18.91 4.39
-4 -1 -2 20.57 2.5
4 1 2 14.16 2.23
4 1 2 18.33 2.31
4 1 2 18.09 2.79
-5 -1 -2 37.93 4.65
-5 -1 -2 39.29 4.2
-5 -1 -2 38.4 4.09
5 1 2 31.18 3.98
5 1 2 34.93 4.09
5 1 2 38.15 4.72
-6 -1 -2 5.37 2.02
-6 -1 -2 3.53 1.42
-6 -1 -2 5.39 1.57
6 1 2 7.27 1.8
6 1 2 3.17 1.07
6 1 2 3.2 1.29
6 1 2 3.72 1.97
-7 -1 -2 4.37 1.52
-7 -1 -2 0.41 1.09
-7 -1 -2 1.26 1.65
7 1 2 6.76 3.84
7 1 2 2.46 1.07
7 1 2 2.9 1.18
7 1 2 2.28 1.28
-8 -1 -2 -0.96 1.06
-8 -1 -2 1.81 1.9
-8 -1 -2 0.75 1.23
8 1 2 1.88 1.51
8 1 2 0.56 1.12
8 1 2 0.37 0.81
-9 -1 -2 6.54 2.65
-9 -1 -2 10.1 2.74
9 1 2 14.32 3.01
9 1 2 6.81 2.58
9 1 2 8.78 3.72
9 1 2 12.84 3.06
-10 -1 -2 0.16 1.1
-10 -1 -2 1.9 1.62
10 1 2 1.75 4.17
10 1 2 -1.01 1.02
10 1 2 0.63 1.14
-11 -1 -2 1.58 1.32
-11 -1 -2 2.32 1.84
-11 -1 -2 -0.99 1.75
11 1 2 1.75 1.57
11 1 2 2.5 1.62
-12 -1 -2 2.22 1.73
12 1 2 -0.64 1.57
11 -2 -2 0.26 2.65
11 -2 -2 1.35 1.43
11 -2 -2 1.02 1.7
-11 2 2 0.46 1.52
10 -2 -2 -0.03 1.24
10 -2 -2 2.77 1.96
10 -2 -2 -1.31 1.14
-10 2 2 1.5 1.68
-10 2 2 1.2 1.46
9 -2 -2 2.4 1.6
9 -2 -2 0.8 1.52
-9 2 2 -0.23 1.02
-9 2 2 0.75 0.79
8 -2 -2 19.82 4.52
8 -2 -2 21.83 5.03
8 -2 -2 19.9 4.32
8 -2 -2 24.81 3.53
-8 2 2 12.24 3.21
7 -2 -2 22.7 4.34
7 -2 -2 18.76 4.32
7 -2 -2 15.7 3.14
7 -2 -2 17.08 3.97
-7 2 2 13.18 3.04
-7 2 2 11.73 3.4
6 -2 -2 1.54 1.13
6 -2 -2 2.45 1.9
6 -2 -2 3 1.62
6 -2 -2 2.1 1.28
-6 2 2 5.14 1.63
-6 2 2 1.99 1.42
5 -2 -2 43.94 5.24
5 -2 -2 44.37 4.75
5 -2 -2 41.66 5.45
-5 2 2 44.61 5.35
-5 2 2 45.86 4.9
4 -2 -2 2 0.75
4 -2 -2 4.09 1.43
4 -2 -2 2.33 1.3
-4 2 2 1.5 0.79
-4 2 2 3.17 1.22
3 -2 -2 114.66 11.52
3 -2 -2 117.33 10.4
3 -2 -2 109.25 10.86
-3 2 2 134.07 10.56
-3 2 2 126.55 10.74
2 -2 -2 24.21 2.97
2 -2 -2 28.8 3.09
2 -2 -2 34.28 3.84
-2 2 2 25.46 3.33
-2 2 2 28.49 3.1
-2 2 2 27.74 3.03
1 -2 -2 154.87 13.27
1 -2 -2 156.57 12.73
1 -2 -2 161.62 13.09
-1 2 2 177.11 12.8
-1 2 2 187.42 14.21
-1 2 2 132.65 13.12
0 2 2 1000 78.4
-1 -2 -2 373.33 29.11
-1 -2 -2 381.69 28.94
1 2 2 331.39 29
-2 -2 -2 27.75 3.2
-2 -2 -2 29.94 2.98
-2 -2 -2 26.77 2.44
2 2 2 27.37 2.42
2 2 2 22.47 2.81
2 2 2 27.7 3.17
-3 -2 -2 6.24 1.66
-3 -2 -2 4.29 1.05
-3 -2 -2 3.73 0.91
3 2 2 3.15 0.77
3 2 2 4.37 1.36
3 2 2 2.88 0.9
-4 -2 -2 19.47 2.79
-4 -2 -2 18.32 2.45
-4 -2 -2 21.55 3.12
4 2 2 23.82 2.57
4 2 2 19.62 2.94
-5 -2 -2 209.29 17.62
-5 -2 -2 223.6 17.61
-5 -2 -2 242.95 18.6
5 2 2 194.13 18.25
5 2 2 181.12 17.71
-6 -2 -2 2.66 1.16
-6 -2 -2 0.42 1.47
-6 -2 -2 1.89 1.09
6 2 2 1.91 0.94
6 2 2 2.86 1.54
-7 -2 -2 2.3 1.02
-7 -2 -2 1.84 1.07
-7 -2 -2 3.55 1.94
7 2 2 2.76 1.55
7 2 2 1.29 1.97
-8 -2 -2 49.92 6.55
-8 -2 -2 40.53 5.55
-8 -2 -2 47.95 5.38
8 2 2 41.31 6.54
8 2 2 47.55 5.77
-9 -2 -2 6.24 2.76
-9 -2 -2 2.41 1.5
-9 -2 -2 -0.83 1.39
-9 -2 -2 5.83 1.89
9 2 2 1.22 1.76
9 2 2 3.29 1.64
9 2 2 4.42 1.62
-10 -2 -2 -1.55 1.07
-10 -2 -2 1.86 1.26
-10 -2 -2 -0.15 1.77
10 2 2 -1.49 1.17
10 2 2 1.92 3.24
10 2 2 0.5 0.91
-11 -2 -2 2.16 2.48
-11 -2 -2 -1.94 1.73
-11 -2 -2 0.86 1.93
11 2 2 1.36 1.76
11 2 2 2.11 2.11
-12 -2 -2 -0.02 1.49
12 2 2 1.45 1.55
11 -3 -2 3.47 2.45
-11 3 2 2.7 2.09
10 -3 -2 -1.73 1.36
10 -3 -2 2.27 2.43
-10 3 2 -1.79 1.28
9 -3 -2 5.83 2.44
9 -3 -2 2.27 2.19
9 -3 -2 6.84 2.56
9 -3 -2 1.61 1.26
-9 3 2 -1.12 2.38
-9 3 2 4.19 2.01
8 -3 -2 1.73 1.45
8 -3 -2 2.47 2.17
8 -3 -2 0.99 1.63
8 -3 -2 -1.26 1.11
7 -3 -2 4.11 1.96
7 -3 -2 3.7 1.66
7 -3 -2 3.87 1.68
7 -3 -2 3.81 2.19
-7 3 2 1.97 1.92
-7 3 2 0.28 1.06
6 -3 -2 2.56 1.47
6 -3 -2 1.94 1.27
6 -3 -2 1.86 1.54
6 -3 -2 2.88 1.56
-6 3 2 0.16 1.21
-6 3 2 3.24 1.44
5 -3 -2 11.98 2.47
5 -3 -2 10.33 2.89
5 -3 -2 12.18 2.64
-5 3 2 11.19 2.47
-5 3 2 10.24 2.6
-5 3 2 10.28 2.44
4 -3 -2 9.45 2.16
4 -3 -2 11.98 2.87
4 -3 -2 11.95 2.43
-4 3 2 9.87 2.3
-4 3 2 7.75 1.97
-4 3 2 10.06 2.28
3 -3 -2 0.36 0.54
3 -3 -2 2 1.06
3 -3 -2 2.96 1.18
-3 3 2 1.6 0.75
-3 3 2 1.88 0.88
-3 3 2 0.47 0.75
-3 3 2 3.44 1.24
2 -3 -2 77.12 7.68
2 -3 -2 81.69 7.56
-2 3 2 92.04 8.1
-2 3 2 84.2 7.49
-2 3 2 77.41 8.17
-2 3 2 86.67 7.67
1 -3 -2 27.78 3.35
1 -3 -2 46.56 4.87
1 -3 -2 35.08 3.72
-1 3 2 30.88 3.35
-1 3 2 32.43 3.47
-1 3 2 40.12 4.55
0 -3 -2 9.03 2.15
0 -3 -2 11.71 2.04
0 -3 -2 16.72 3.02
0 3 2 14.77 1.91
0 3 2 10.73 2.37
-1 -3 -2 41.91 4.95
-1 -3 -2 53.4 5.32
-1 -3 -2 57.72 5.56
1 3 2 52.98 5.13
1 3 2 54.38 5.32
1 3 2 46.06 5.23
-2 -3 -2 16 2.28
-2 -3 -2 10.16 2.13
-2 -3 -2 15.28 2.4
2 3 2 19.15 2.51
2 3 2 7.95 1.91
2 3 2 9.9 1.92
2 3 2 13.89 1.53
-3 -3 -2 0.18 0.23
-3 -3 -2 0.31 0.3
3 3 2 0.39 0.5
3 3 2 -0.2 0.61
3 3 2 -0.13 0.28
-4 -3 -2 8.55 2.23
-4 -3 -2 4.52 1.13
-4 -3 -2 6.63 1.94
4 3 2 8.09 1.78
4 3 2 3.48 1.56
4 3 2 7.26 1.36
-5 -3 -2 1.1 1.12
-5 -3 -2 0.72 0.79
-5 -3 -2 0.82 0.75
-5 -3 -2 0.63 0.71
5 3 2 1 0.81
5 3 2 1.34 1.11
-6 -3 -2 24.6 3.92
-6 -3 -2 19.93 3.25
-6 -3 -2 21.45 3.06
-6 -3 -2 15.75 3.72
6 3 2 23.2 3.11
6 3 2 24.07 4.03
-7 -3 -2 5.97 2.71
-7 -3 -2 4.04 1.66
-7 -3 -2 3.58 1.77
-7 -3 -2 2.98 1.32
7 3 2 0.32 0.99
7 3 2 2.34 1.91
-8 -3 -2 0.52 1.42
-8 -3 -2 1.57 0.86
-8 -3 -2 0.61 1.93
-8 -3 -2 0.25 1.51
8 3 2 -1.69 2.1
8 3 2 1.4 0.99
-9 -3 -2 2.95 1.26
-9 -3 -2 0.74 1.29
-9 -3 -2 -0.48 1.81
-9 -3 -2 2.16 2.29
9 3 2 0.77 1.25
-10 -3 -2 2.46 2.35
-10 -3 -2 0.46 1.63
-10 -3 -2 1.88 1.52
10 3 2 -1.28 1.28
-11 -3 -2 -1.08 1.01
-11 -3 -2 -1.08 2.01
11 3 2 0.67 1.88
11 3 2 0.95 1.14
-12 -3 -2 0.24 1.54
12 3 2 -0.1 1.95
10 -4 -2 0.87 1.96
-10 4 2 0.9 1.2
-10 4 2 0.76 1.82
9 -4 -2 4.36 2.12
9 -4 -2 0.87 1.84
9 -4 -2 -2.63 2.26
-9 4 2 0.55 1.6
-9 4 2 1.16 1.74
-9 4 2 -2.21 2.43
8 -4 -2 3.35 2.3
8 -4 -2 2.65 1.61
-8 4 2 1.03 1.27
-8 4 2 1.14 1.46
7 -4 -2 0.85 1.03
7 -4 -2 -0.61 1.58
7 -4 -2 1.13 1.31
-7 4 2 0.33 0.89
-7 4 2 -1.48 0.83
-7 4 2 4.39 2.3
6 -4 -2 -0.57 0.67
6 -4 -2 1.33 0.86
-6 4 2 0.4 0.9
-6 4 2 -0.34 0.77
-6 4 2 0.43 0.97
-6 4 2 0.67 1.09
5 -4 -2 3.98 1.8
5 -4 -2 6.57 2.04
-5 4 2 4.47 1.7
-5 4 2 7.23 2.42
-5 4 2 4.8 1.91
-5 4 2 4.52 1.8
4 -4 -2 95.06 9.09
4 -4 -2 97.41 9.75
-4 4 2 79.76 8.75
-4 4 2 100.88 9.29
-4 4 2 87.11 8.87
3 -4 -2 19.23 3.85
3 -4 -2 20.91 3.25
-3 4 2 21.73 3.15
-3 4 2 22.26 3.1
-3 4 2 21.14 3.05
-3 4 2 25.73 3.72
2 -4 -2 3.93 1.51
2 -4 -2 4.24 1.42
2 -4 -2 3.83 1.75
-2 4 2 4.72 1.47
-2 4 2 3.7 1.33
-2 4 2 4.36 1.24
1 -4 -2 47.67 4.95
1 -4 -2 52.41 5.76
1 -4 -2 38.78 4.7
-1 4 2 44.27 4.86
-1 4 2 38.81 4.31
-1 4 2 46.01 5.3
0 -4 -2 34.44 4.42
0 -4 -2 41.73 4.57
0 -4 -2 35.55 4.24
0 -4 -2 38.74 5.48
0 4 2 40.06 4.57
0 4 2 46.91 5.1
-1 -4 -2 38.93 5.61
-1 -4 -2 46.98 4.91
-1 -4 -2 37.17 4.71
1 4 2 41.96 4.89
1 4 2 42.09 4.81
1 4 2 39.98 4.82
-2 -4 -2 13.65 4.3
-2 -4 -2 8.1 2.2
-2 -4 -2 9.39 2.5
2 4 2 10.82 1.58
2 4 2 7.77 1.93
2 4 2 9.55 2.86
2 4 2 8.76 2.22
-3 -4 -2 3.51 1.43
-3 -4 -2 5.39 1.72
3 4 2 3.83 1.36
3 4 2 3.31 1.02
3 4 2 3.77 1.48
3 4 2 4.44 1.56
-4 -4 -2 90.91 9.13
-4 -4 -2 80.73 7.64
4 4 2 85.46 8.62
4 4 2 83.61 8.68
-5 -4 -2 19.06 4.1
-5 -4 -2 27.4 3.97
5 4 2 19.38 3.61
5 4 2 16.42 3.49
5 4 2 28.73 3.24
-6 -4 -2 24.87 3.85
-6 -4 -2 32.57 3.91
-6 -4 -2 31.8 4.9
-6 -4 -2 32.01 4.82
6 4 2 34.43 4.04
6 4 2 25.19 6.23
6 4 2 29.54 4.44
-7 -4 -2 29.83 4.81
-7 -4 -2 27.71 3.69
-7 -4 -2 22.01 4.28
-7 -4 -2 26.76 5.34
7 4 2 26.13 3.78
-8 -4 -2 -0.19 0.73
-8 -4 -2 2.62 2.01
-8 -4 -2 -1.11 1.38
-8 -4 -2 1.57 1.84
8 4 2 -0.2 2.06
8 4 2 0.28 1.13
-9 -4 -2 0.51 2.1
-9 -4 -2 0.19 1.85
-9 -4 -2 0.67 0.96
9 4 2 0.58 1.31
-10 -4 -2 2.28 1.88
-10 -4 -2 0.7 1.61
-10 -4 -2 2.79 2.3
-10 -4 -2 10.6 3.89
10 4 2 3.21 2.06
10 4 2 6.69 4.45
-11 -4 -2 -1.08 1.25
-11 -4 -2 0.61 2.39
11 4 2 3.51 2.11
12 4 2 -0.08 2.08
10 -5 -2 2.57 2.52
-10 5 2 -0.11 2.03
-10 5 2 1.52 2.28
9 -5 -2 -0.34 2.04
9 -5 -2 1.32 2.67
9 -5 -2 -0.75 1.48
-9 5 2 -0.19 1.36
-9 5 2 4.56 1.85
8 -5 -2 1.88 1.88
-8 5 2 1.38 1.41
-8 5 2 0.98 1.92
-8 5 2 -0.48 1.3
7 -5 -2 0.38 1.14
7 -5 -2 -1.6 1.87
7 -5 -2 -2.85 1.17
-7 5 2 1.31 1.15
-7 5 2 1.81 1.87
-7 5 2 1.3 1.49
6 -5 -2 1.37 1.25
6 -5 -2 1.78 1.31
-6 5 2 0.14 1.01
-6 5 2 0.43 1.23
-6 5 2 2.01 1.21
-6 5 2 1.12 1.37
5 -5 -2 0.91 1
5 -5 -2 -0.64 1.01
-5 5 2 -0.04 1.13
-5 5 2 1.77 1.48
-5 5 2 -0.5 0.77
-5 5 2 1.23 0.9
4 -5 -2 0.47 0.89
4 -5 -2 0.56 1.11
-4 5 2 0.87 0.93
-4 5 2 1.51 1.17
-4 5 2 1.24 0.9
-4 5 2 0.14 0.75
3 -5 -2 1.79 1.01
3 -5 -2 1.54 1.41
-3 5 2 1.47 1
-3 5 2 1.5 1.09
-3 5 2 2.13 1.1
-3 5 2 1.99 1.21
2 -5 -2 23.07 4.41
2 -5 -2 19.34 3.65
2 -5 -2 18.18 3.51
-2 5 2 23.28 4.8
-2 5 2 19.37 3.71
-2 5 2 19.47 2.86
1 -5 -2 34.81 4.73
1 -5 -2 25.45 3.63
1 -5 -2 28.62 3.78
1 -5 -2 22.73 3.66
-1 5 2 26.36 4.02
0 -5 -2 189.01 17.81
0 -5 -2 210.99 18.62
0 -5 -2 218.57 18.54
0 -5 -2 243.89 19.34
0 5 2 202.79 18.57
0 5 2 192.64 18.66
-1 -5 -2 1.11 1.09
-1 -5 -2 1.06 0.89
-1 -5 -2 1.03 0.72
1 5 2 0.57 0.71
1 5 2 0 1.03
1 5 2 0 0.43
-2 -5 -2 14.71 3.31
-2 -5 -2 18.67 3.76
-2 -5 -2 21.75 3.06
2 5 2 13.73 2.66
2 5 2 21.13 3.96
2 5 2 14.52 3.43
-3 -5 -2 7.83 2.5
-3 -5 -2 10.67 2.5
3 5 2 6.14 2.24
3 5 2 6.32 1.51
3 5 2 6.19 2.24
3 5 2 5.97 1.95
-4 -5 -2 20.94 4.47
-4 -5 -2 32.99 4.25
4 5 2 21.6 3.46
4 5 2 22.31 4.17
4 5 2 28.88 4.35
4 5 2 20.35 3.79
-5 -5 -2 8.3 2.58
5 5 2 4.1 2.03
5 5 2 5.23 1.51
5 5 2 1.77 1.6
-6 -5 -2 0.37 0.69
-6 -5 -2 -0.62 0.78
-6 -5 -2 0.04 1.66
-6 -5 -2 0.87 0.99
6 5 2 -0.67 0.7
6 5 2 -0.79 1.43
6 5 2 -0.22 0.78
-7 -5 -2 0.78 1.63
-7 -5 -2 4.41 1.69
-7 -5 -2 8.7 3.12
-7 -5 -2 5.38 2.69
7 5 2 5.19 1.8
7 5 2 1.14 2.32
7 5 2 7.33 2.88
-8 -5 -2 -1.9 1.07
-8 -5 -2 0.74 0.85
-8 -5 -2 1.49 1.91
-8 -5 -2 -0.62 0.81
8 5 2 -0.18 1.75
8 5 2 0.87 1.25
8 5 2 0.61 0.99
-9 -5 -2 0.95 1.67
-9 -5 -2 0.09 1.02
-9 -5 -2 -0.82 2.75
-9 -5 -2 0.56 2.06
9 5 2 -0.82 0.91
9 5 2 4.58 5.75
9 5 2 -2.08 1.72
-10 -5 -2 0.82 1.44
-10 -5 -2 -4.76 2.4
-10 -5 -2 -2.92 1.68
10 5 2 -1.99 4.05
10 5 2 0.91 1.7
10 5 2 0.15 1.99
-11 -5 -2 -2.54 2.79
-11 -5 -2 2.67 2.69
-11 -5 -2 1.1 1.5
11 5 2 5.52 2.2
9 -6 -2 2.53 2.11
-9 6 2 -3.09 3.27
-9 6 2 -0.13 1.69
8 -6 -2 -3.37 1.7
8 -6 -2 -1.8 1.34
-8 6 2 -1.35 0.83
-8 6 2 -2.59 1.08
7 -6 -2 2.84 2.47
7 -6 -2 1.03 1.84
-7 6 2 -3.17 1.4
-7 6 2 1.68 1.57
-7 6 2 1.43 1.57
-7 6 2 0.39 1.31
6 -6 -2 0.36 0.98
6 -6 -2 0.73 1.33
-6 6 2 3.04 1.6
-6 6 2 1.04 1.21
-6 6 2 0.34 1
5 -6 -2 34.45 5.07
5 -6 -2 26.85 5.6
-5 6 2 21.74 4.54
-5 6 2 18.93 4.08
-5 6 2 25.17 5.46
-5 6 2 21.2 4.74
4 -6 -2 2.28 1.33
4 -6 -2 0.26 1.23
-4 6 2 1.5 1.24
-4 6 2 -1.44 0.92
-4 6 2 -0.89 0.86
-4 6 2 -0.64 0.56
3 -6 -2 1.05 1.32
3 -6 -2 -0.52 0.94
-3 6 2 0.87 0.69
-3 6 2 0.76 0.62
-3 6 2 -0.1 1
2 -6 -2 -0.48 0.77
2 -6 -2 0.33 1.01
2 -6 -2 0.42 1.2
-2 6 2 1.26 0.86
-2 6 2 0.7 0.86
-2 6 2 1.01 1.27
1 -6 -2 19.32 4.08
1 -6 -2 22.19 3.66
1 -6 -2 22.45 4.78
1 -6 -2 22.88 4.08
-1 6 2 24.96 4.68
-1 6 2 19.79 4.08
0 -6 -2 0.58 1.24
0 -6 -2 1.83 1.16
0 -6 -2 1.15 0.91
0 -6 -2 2.25 1.45
0 6 2 5.71 1.98
0 6 2 0.98 1.28
-1 -6 -2 3.91 1.5
-1 -6 -2 4.08 1.99
-1 -6 -2 2.86 1.79
-1 -6 -2 4.58 1.76
1 6 2 2.28 1.49
1 6 2 7.3 2.46
-2 -6 -2 -0.55 1.06
-2 -6 -2 2.55 1.67
-2 -6 -2 2.65 1.49
2 6 2 1.62 1.29
2 6 2 2.25 1.5
2 6 2 1.44 1.13
-3 -6 -2 16.29 3.85
-3 -6 -2 20.94 3.5
3 6 2 26.34 4.66
3 6 2 13.81 2.69
3 6 2 9.17 2.67
3 6 2 15.79 3.76
-4 -6 -2 10.01 2.58
-4 -6 -2 9.52 3.11
4 6 2 5.38 2.29
4 6 2 8.75 2.11
4 6 2 11.11 3.19
4 6 2 4.46 1.87
-5 -6 -2 38.94 5.33
-5 -6 -2 25.31 5.62
5 6 2 29.32 4.21
5 6 2 41.03 6.04
5 6 2 37.71 5.49
-6 -6 -2 2.21 1.62
-6 -6 -2 -1.61 1.08
6 6 2 0.88 1.8
6 6 2 -1.19 1.05
6 6 2 1.18 1.01
-7 -6 -2 8.51 2.38
-7 -6 -2 14.08 3.51
7 6 2 8.86 2.45
7 6 2 9.54 3.08
7 6 2 7.12 3.19
-8 -6 -2 4.36 1.7
-8 -6 -2 -1.03 1.51
-8 -6 -2 5.77 3.63
8 6 2 3.92 2.46
8 6 2 2.18 1.33
8 6 2 -2.96 2.23
-9 -6 -2 5.62 2.88
-9 -6 -2 2.56 2.03
-9 -6 -2 1.29 1.23
9 6 2 8.21 3.68
9 6 2 -0.21 1.64
9 6 2 1.36 2.12
-10 -6 -2 5.85 3.55
-10 -6 -2 7.17 2.58
10 6 2 4.79 2.04
-11 -6 -2 2 1.73
-11 -6 -2 3.07 3.42
-11 -6 -2 -0.98 2.56
11 6 2 -4.09 1.97
11 6 2 1.34 1.77
8 -7 -2 -1.71 3.39
8 -7 -2 1.67 2.22
-8 7 2 4.11 2.2
-8 7 2 1.19 2.05
-8 7 2 -1.08 1.84
7 -7 -2 -1.82 1.61
-7 7 2 6.35 2.94
-7 7 2 -0.18 1.53
-7 7 2 -1.26 1.39
-7 7 2 -0.26 0.77
6 -7 -2 -0.64 1.42
6 -7 -2 5.6 2.37
-6 7 2 2.55 2.27
-6 7 2 -0.21 1.81
-6 7 2 -0.04 1.41
5 -7 -2 25.62 5.17
5 -7 -2 15.69 4.9
-5 7 2 20.95 4.66
-5 7 2 19.22 5.22
-5 7 2 11.46 3.46
-5 7 2 12.81 3.64
4 -7 -2 9.3 3.35
-4 7 2 5.59 2.01
-4 7 2 7.27 3.2
-4 7 2 11.16 3.13
3 -7 -2 0.58 0.97
3 -7 -2 -0.71 0.64
-3 7 2 -1.11 0.61
-3 7 2 0.39 0.91
-3 7 2 -1.12 0.66
2 -7 -2 9.08 2.69
2 -7 -2 2.3 2.18
2 -7 -2 8.61 3.37
2 -7 -2 6.31 2.55
-2 7 2 6.73 2.56
-2 7 2 11.17 3.47
-2 7 2 4.2 2.01
1 -7 -2 14.17 4.17
1 -7 -2 23.4 4.91
1 -7 -2 17.61 3.78
1 -7 -2 22.31 3.73
-1 7 2 18.35 4.33
-1 7 2 20.43 4.53
0 -7 -2 0.36 0.92
0 -7 -2 0.29 1.39
0 -7 -2 0.01 0.93
0 7 2 0.85 1.39
0 7 2 0.41 1.56
-1 -7 -2 0.63 1.14
-1 -7 -2 1.63 1.69
-1 -7 -2 0.79 1.21
-1 -7 -2 -0.02 1.3
1 7 2 1.05 1.39
1 7 2 1.46 1.04
-2 -7 -2 6.51 2.32
-2 -7 -2 8.44 2.96
-2 -7 -2 3.67 1.56
2 7 2 7.17 2.81
2 7 2 4.67 1.93
2 7 2 4.63 2.36
-3 -7 -2 3.42 2.25
-3 -7 -2 3.58 2.11
3 7 2 0.94 1.75
3 7 2 3.47 2.41
3 7 2 0.8 1.15
3 7 2 1.21 1.54
-4 -7 -2 47.9 7.4
-4 -7 -2 50.61 6.53
4 7 2 47.48 7.1
4 7 2 49.05 6
4 7 2 60.41 7.77
-5 -7 -2 -0.15 1.95
-5 -7 -2 0.8 1.87
5 7 2 -0.44 1.53
5 7 2 -0.38 1.46
5 7 2 1.66 1.26
5 7 2 -0.93 0.5
-6 -7 -2 -2.69 1.77
6 7 2 -0.65 0.92
6 7 2 0.65 1.94
6 7 2 1.75 1.67
-7 -7 -2 3.59 2.72
7 7 2 3.25 1.82
7 7 2 5.55 2.38
7 7 2 1.08 2.26
-8 -7 -2 3.31 2.51
-8 -7 -2 1.17 1.39
-8 -7 -2 -3.01 1.48
8 7 2 -0.3 2.02
8 7 2 1.36 1.35
-9 -7 -2 0.28 2
-9 -7 -2 2.34 1.56
9 7 2 0.5 1.35
-10 -7 -2 0.54 1.53
-10 -7 -2 4.53 3.62
10 7 2 1.25 2.42
10 7 2 -0.9 1.52
8 -8 -2 1.86 2.06
7 -8 -2 -3.92 2.69
7 -8 -2 0.24 2.03
-7 8 2 0.59 2.07
-7 8 2 0.89 1.84
-7 8 2 0.22 2.54
6 -8 -2 0.43 1.37
-6 8 2 1.36 1.6
-6 8 2 -1.82 2.03
-6 8 2 1 2.91
5 -8 -2 0.02 1.92
5 -8 -2 -2.11 1.74
-5 8 2 -0.34 1.3
-5 8 2 0.34 1.5
-5 8 2 0.63 3.55
4 -8 -2 -1.13 1.36
-4 8 2 0.77 1.09
-4 8 2 3.27 2.01
3 -8 -2 0.83 2.32
3 -8 -2 4.7 2.9
-3 8 2 10.1 3.49
-3 8 2 1.85 1.48
-3 8 2 4.81 2.27
2 -8 -2 3.06 2.03
2 -8 -2 -0.12 1.57
2 -8 -2 2.08 1.35
2 -8 -2 -1.59 1.07
-2 8 2 1.26 1.5
-2 8 2 0.21 1.04
-2 8 2 0.74 1.77
1 -8 -2 4.58 2.34
1 -8 -2 1.94 1.78
1 -8 -2 3.58 2.2
1 -8 -2 1.06 1.49
-1 8 2 1.83 1.63
-1 8 2 0.79 1.49
0 -8 -2 -2.03 1.19
0 -8 -2 1.8 1.71
0 -8 -2 0.69 0.93
0 -8 -2 -1.27 0.66
0 8 2 -0.1 1.1
0 8 2 0.76 1.43
-1 -8 -2 15.56 4.24
-1 -8 -2 15.61 3.66
-1 -8 -2 18.2 3.91
-1 -8 -2 16.51 4.67
1 8 2 21.14 5.51
1 8 2 21.94 5.11
-2 -8 -2 1.8 1.24
-2 -8 -2 0.78 1.66
-2 -8 -2 2.56 1.76
2 8 2 0.98 1.35
2 8 2 0.34 1.72
-3 -8 -2 16.64 3.82
-3 -8 -2 12.98 4.28
-3 -8 -2 13.64 3.49
3 8 2 16.29 4.64
3 8 2 8.94 2.87
3 8 2 25.16 7.78
3 8 2 23.22 5.69
-4 -8 -2 36.43 5.37
-4 -8 -2 34.09 7
4 8 2 21.31 4.57
4 8 2 34.71 10.81
4 8 2 26.42 6.51
-5 -8 -2 8.23 2.71
-5 -8 -2 5.25 2.77
5 8 2 4.71 2.71
5 8 2 0.65 1.59
5 8 2 0.85 2.73
5 8 2 1.95 1.83
-6 -8 -2 0.84 3.97
-6 -8 -2 0.17 1.06
6 8 2 -0.04 2.45
6 8 2 6.39 2.28
6 8 2 8.54 3.6
-7 -8 -2 0.39 1.86
-7 -8 -2 -1.29 2.46
7 8 2 0.33 1.51
7 8 2 4.8 2.6
7 8 2 -0.97 1.66
-8 -8 -2 0.63 2.73
-8 -8 -2 1.48 1.52
8 8 2 2.63 2.98
8 8 2 4.09 3.34
8 8 2 5.69 2.2
-9 -8 -2 2 1.82
-9 -8 -2 -3.11 2.63
9 8 2 5.89 2.57
9 8 2 3.73 3.05
6 -9 -2 -2.48 1.65
-6 9 2 0.97 1.88
5 -9 -2 -1.16 1.6
-5 9 2 3.24 2.81
-5 9 2 -1.17 0.99
4 -9 -2 0.48 2.37
4 -9 -2 0.31 1.53
4 -9 -2 -0.37 1.88
-4 9 2 -0.87 1.39
-4 9 2 3.74 2.17
3 -9 -2 1.31 1.59
3 -9 -2 1.48 1.74
3 -9 -2 4.14 2.09
-3 9 2 1.85 1.82
-3 9 2 -2.24 1.84
2 -9 -2 0.89 2.05
2 -9 -2 2.1 1.85
2 -9 -2 -1.5 1.64
2 -9 -2 -0.91 1.74
-2 9 2 -0.96 1.46
-2 9 2 0.78 1.43
1 -9 -2 2.94 2.22
1 -9 -2 2.42 2.39
1 -9 -2 2.22 2.24
-1 9 2 -0.42 1.36
-1 9 2 3.44 2.32
0 -9 -2 3.19 2.54
0 -9 -2 1.77 1.91
0 -9 -2 2.21 1.7
0 -9 -2 0.55 2.17
0 9 2 2.52 2.11
0 9 2 0.47 1.52
-1 -9 -2 -0.02 1.26
-1 -9 -2 2.07 1.76
-1 -9 -2 -0.09 1.51
1 9 2 -0.17 1.78
-2 -9 -2 -0.26 1.54
-2 -9 -2 -0.75 2.16
-2 -9 -2 0.31 1.43
2 9 2 -0.91 1.18
-3 -9 -2 2.03 2.29
-3 -9 -2 3.31 2.21
-3 -9 -2 0.52 1.29
3 9 2 3.1 2.44
3 9 2 1.15 1.32
-4 -9 -2 2.32 1.73
-4 -9 -2 -1.33 1.73
-4 -9 -2 3.92 2.68
4 9 2 -0.9 1.84
4 9 2 1.57 1.52
4 9 2 4.34 2.59
4 9 2 0.56 2.3
-5 -9 -2 1.35 1.31
-5 -9 -2 -2.05 2.22
5 9 2 0.35 1.79
5 9 2 -1.6 1.22
5 9 2 -2.48 1.55
5 9 2 0.29 1.68
-6 -9 -2 2.66 2.49
-6 -9 -2 -1.63 1.67
6 9 2 -1.42 2.16
6 9 2 4.15 2.79
6 9 2 0.95 3.34
6 9 2 3.07 1.71
-7 -9 -2 1.32 2.56
7 9 2 0.71 2.96
7 9 2 1.69 1.62
7 9 2 1.01 2.9
-8 -9 -2 7.05 2.45
-8 -9 -2 -2.21 2.52
8 9 2 -0.98 1.76
5 -10 -2 6.18 2.78
5 -10 -2 2.12 3.53
-5 10 2 -1.38 2.29
4 -10 -2 4.03 2.79
-4 10 2 -1.82 2.45
3 -10 -2 3.18 2.28
3 -10 -2 -0.55 2.28
-3 10 2 -2.81 1.8
-3 10 2 1.24 1.98
2 -10 -2 -2.7 2.06
2 -10 -2 -1.89 1.85
2 -10 -2 2.22 2.22
2 -10 -2 3.21 2.18
-2 10 2 -0.29 1.88
-2 10 2 2.71 1.9
-2 10 2 0.61 2.47
1 -10 -2 0.85 2.34
1 -10 -2 1.22 2.37
1 -10 -2 0.9 1.67
1 -10 -2 2.39 1.81
-1 10 2 -2.37 1.23
-1 10 2 -0.43 1.36
0 -10 -2 -1.36 1.7
0 -10 -2 -1.21 1.46
0 -10 -2 0.85 2.02
0 10 2 -0.43 1.78
-1 -10 -2 0.09 2.05
-1 -10 -2 -2.26 1.89
1 10 2 1.66 1.83
1 10 2 1.31 2.34
-2 -10 -2 0.94 2.48
-2 -10 -2 0.92 2.26
-2 -10 -2 -3.07 1.49
2 10 2 3.05 2.5
2 10 2 1.22 1.91
2 10 2 3.06 2.39
-3 -10 -2 0.25 2.11
-3 -10 -2 2.66 2.46
3 10 2 6.77 2.57
3 10 2 -1.46 1.37
-4 -10 -2 -2.09 2.53
-4 -10 -2 3.11 3.07
4 10 2 -1.3 0.81
4 10 2 -0.63 1.78
4 10 2 1.58 1.47
-5 -10 -2 4.24 2.9
5 10 2 1.03 1.67
5 10 2 1.21 2.6
5 10 2 0.28 2.09
-6 -10 -2 7.22 3.01
-6 -10 -2 -1.53 1.45
6 10 2 -1.86 2.37
6 10 2 -0.01 1.5
6 10 2 -2.56 3.65
-7 -10 -2 -2.94 2.57
-7 -10 -2 1.9 2.98
7 10 2 0.84 2.7
7 10 2 6.59 2.71
3 -11 -2 1.6 2.92
2 -11 -2 -3.19 2.85
2 -11 -2 3.99 2.51
-2 11 2 2.96 2.26
1 -11 -2 3.04 2.68
1 -11 -2 3.96 3.06
-1 11 2 -2.32 1.92
0 -11 -2 1.54 2.37
0 11 2 -0.06 1.78
1 11 2 -1.41 1.93
-2 -11 -2 5.12 3.19
-2 -11 -2 8.94 3.4
2 11 2 -0.4 1.97
2 11 2 -0.99 2.54
-3 -11 -2 -0.03 3.08
-3 -11 -2 1.86 2.01
3 11 2 0.34 2.26
3 11 2 4.34 2.47
-4 -11 -2 2.36 2.36
-4 -11 -2 0.99 2.51
4 11 2 -0.5 1.82
4 11 2 0.23 2.21
-5 -11 -2 2.74 2.87
-5 -11 -2 -3.06 2.43
5 11 2 -2.98 2.84
5 11 2 3.18 3.77
3 9 -3 -0.2 1.49
-3 -9 3 2.73 1.84
2 9 -3 0.38 2.39
1 9 -3 -1.34 2.77
1 9 -3 -4.85 3.64
0 9 -3 0.34 3.63
0 -9 3 1.13 2.22
-1 9 -3 5.53 3.51
1 -9 3 -3.9 1.98
-2 9 -3 2.72 2.26
6 8 -3 3.57 2.27
6 8 -3 -1.37 1.94
-6 -8 3 0.02 0.86
5 8 -3 -2.34 1.9
5 8 -3 0.6 2.51
5 8 -3 2.24 1.77
-5 -8 3 -0.59 1.06
4 8 -3 1.59 2.5
4 8 -3 -0.48 1.51
4 8 -3 1.65 2.82
-4 -8 3 0.64 1.21
3 8 -3 -0.57 2
3 8 -3 0.39 1.85
-3 -8 3 1.41 2.2
2 8 -3 11.24 3.81
2 8 -3 5.56 2.49
2 8 -3 9.09 3.91
-2 -8 3 6.46 2.13
1 8 -3 -3.75 1.74
1 8 -3 3.55 2.31
1 8 -3 5.31 3.19
-1 -8 3 0.47 1.47
0 8 -3 -1.07 1.19
0 8 -3 0.36 1.38
0 -8 3 -2.87 1.22
0 -8 3 0.16 2.52
-1 8 -3 0.1 2.19
-1 8 -3 0.75 1.97
-2 8 -3 0.82 1.88
-3 8 -3 4.64 1.7
-3 8 -3 -1.11 1.1
-3 8 -3 0.24 2.86
-4 8 -3 1.41 2.61
-4 8 -3 0.57 2.09
-4 8 -3 -1.71 1.54
-5 8 -3 3.24 4.52
-5 8 -3 -1.35 3.35
-5 8 -3 2.16 1.94
7 7 -3 1.76 2.56
7 7 -3 -0.05 1.77
7 7 -3 3.64 2.37
6 7 -3 6.26 2.58
6 7 -3 2.87 1.79
6 7 -3 8.41 3.03
-6 -7 3 4.57 1.01
-6 -7 3 2.88 0.93
5 7 -3 1.94 1.63
5 7 -3 -1.36 1.5
5 7 -3 0.41 1.44
-5 -7 3 1.66 0.66
-5 -7 3 2.99 2.98
4 7 -3 -1.31 1.32
4 7 -3 2.58 2.18
4 7 -3 4.2 2.25
4 7 -3 1.42 1.88
-4 -7 3 3.59 1.07
-4 -7 3 2.27 2.75
3 7 -3 11.91 3.72
3 7 -3 1.79 2.3
-3 -7 3 3.42 2.1
-3 -7 3 1.03 0.96
2 7 -3 1.85 1.82
2 7 -3 2.98 2.67
2 7 -3 1.33 1.92
-2 -7 3 2.46 1.36
1 7 -3 -2.61 1.32
1 7 -3 -0.97 1.11
1 7 -3 -1.19 1.05
-1 -7 3 -0.06 0.93
0 7 -3 3.97 2.24
0 7 -3 0.99 1.93
0 -7 3 3.6 1.66
-1 7 -3 10.12 4.05
-1 7 -3 4.7 2.38
1 -7 3 1.57 3.12
1 -7 3 3.97 1.9
-2 7 -3 -2.2 1.15
-2 7 -3 -0.56 1.7
2 -7 3 -1.68 2.22
2 -7 3 -0.53 1.25
-3 7 -3 1.55 1.86
-3 7 -3 -1.61 2.02
-3 7 -3 -0.06 0.93
-4 7 -3 2.69 2.24
-4 7 -3 -1.07 1.25
-4 7 -3 -3.13 1.75
4 -7 3 4.19 2.34
-5 7 -3 1.56 1.56
-5 7 -3 -0.75 1.63
-5 7 -3 1.29 2.14
-6 7 -3 1.68 1.6
-6 7 -3 0.55 2.08
6 -7 3 0.51 1.21
6 -7 3 2.8 1.58
-7 7 -3 0.88 1.8
7 -7 3 -0.41 2.68
8 6 -3 -2.31 2.14
8 6 -3 -1.63 2.29
7 6 -3 0.12 1.86
7 6 -3 0.73 1.94
7 6 -3 -1.32 1.72
-7 -6 3 1.62 2.34
6 6 -3 -1.08 1.54
6 6 -3 4.19 2.3
6 6 -3 4.05 1.63
-6 -6 3 1.19 0.54
-6 -6 3 2.82 2.24
5 6 -3 -2.58 1.22
5 6 -3 0.42 2.26
5 6 -3 1.73 1.36
-5 -6 3 -0.65 0.49
-5 -6 3 0.12 1.96
4 6 -3 0.64 2.02
4 6 -3 -0.32 0.91
4 6 -3 2.41 2.14
4 6 -3 -1.27 1.47
-4 -6 3 -0.51 0.58
3 6 -3 2.64 2.36
3 6 -3 -0.31 0.98
3 6 -3 0.95 1.02
3 6 -3 4.6 2.22
-3 -6 3 1.55 2.25
-3 -6 3 0.05 0.6
2 6 -3 1.88 1.66
2 6 -3 5.61 2.88
2 6 -3 1.38 0.99
-2 -6 3 1.1 3.55
-2 -6 3 1.98 1.01
1 6 -3 0.45 1.19
1 6 -3 3.69 2.74
-1 -6 3 -0.72 0.72
0 6 -3 8.8 3.45
0 6 -3 5.16 3.14
0 -6 3 4.42 1.7
-1 6 -3 0.76 0.96
-1 6 -3 -0.89 1.36
1 -6 3 -0.81 0.92
-2 6 -3 3.16 1.47
-2 6 -3 0.32 1.44
-2 6 -3 2.06 2.17
2 -6 3 0.8 2.37
2 -6 3 4.89 1.89
-3 6 -3 14.22 3.91
-3 6 -3 10.33 3.78
-3 6 -3 11.28 2.8
-4 6 -3 5.38 2.63
-4 6 -3 1.29 1.24
-4 6 -3 0.45 1.65
-5 6 -3 0.61 0.99
-5 6 -3 3.11 2.28
-5 6 -3 0.6 2.07
5 -6 3 -0.44 1.03
5 -6 3 -1.42 3.09
-6 6 -3 16.76 3.99
-6 6 -3 11.08 3.62
-6 6 -3 11.59 4.14
6 -6 3 10.1 3.76
-7 6 -3 -0.96 1.47
-7 6 -3 -0.26 2.37
-7 6 -3 4.85 2.42
7 -6 3 2.92 2.33
-8 6 -3 2.35 1.87
-8 6 -3 0.54 1.43
-8 6 -3 -3.52 2.06
8 -6 3 6.55 3.88
9 5 -3 6.62 2.75
8 5 -3 2.63 2.21
-8 -5 3 2.03 2.43
7 5 -3 0.53 1.67
7 5 -3 1.26 2.19
7 5 -3 0.7 2.23
-7 -5 3 5.06 2.6
6 5 -3 0.66 1.76
6 5 -3 1.33 1.45
-6 -5 3 0.7 0.34
-6 -5 3 1.35 0.38
5 5 -3 11.53 3.51
-5 -5 3 7.12 3.32
-5 -5 3 10.67 1.44
4 5 -3 0.16 1.01
4 5 -3 -0.52 1
4 5 -3 1.04 1.11
-4 -5 3 0.04 0.4
-4 -5 3 -0.49 1.7
3 5 -3 0.99 1.13
3 5 -3 3.1 1.95
3 5 -3 2.86 1.76
-3 -5 3 2.98 1.92
-3 -5 3 3.57 0.95
2 5 -3 20.5 2.78
2 5 -3 24.49 5.18
2 5 -3 16.68 4.21
2 5 -3 30.4 6.06
-2 -5 3 25.59 2.92
-2 -5 3 28.25 6.28
1 5 -3 11.56 3.64
1 5 -3 8.9 2.73
-1 -5 3 9.69 3.81
-1 -5 3 9.26 1.98
0 5 -3 2.42 1.94
0 5 -3 6.07 2.53
0 5 -3 6.88 1.95
0 -5 3 3.23 2.61
0 -5 3 7.06 1.85
-1 5 -3 -0.19 1.22
-1 5 -3 1.91 0.99
-1 5 -3 0.36 1.06
1 -5 3 -0.31 1.22
1 -5 3 0.42 0.68
-2 5 -3 0.09 0.94
-2 5 -3 1.22 1.27
-2 5 -3 0.58 0.8
2 -5 3 0.86 1.06
2 -5 3 0.51 1.67
-3 5 -3 2.66 2.04
-3 5 -3 0.08 1.3
3 -5 3 1.38 1.17
-4 5 -3 22.4 4.44
-4 5 -3 15.93 4.27
-4 5 -3 18.21 5.02
4 -5 3 30.53 4.34
-5 5 -3 0.8 0.93
-5 5 -3 -1.35 1.16
-5 5 -3 0.92 1.53
5 -5 3 2.22 1.1
5 -5 3 1.18 1.36
-6 5 -3 2.74 1.88
-6 5 -3 -0.4 1.11
-6 5 -3 -2.62 1.11
6 -5 3 -0.66 1.85
6 -5 3 0.91 1.43
-7 5 -3 1.87 2.1
-7 5 -3 -0.68 2.16
-7 5 -3 2.74 1.83
-7 5 -3 4.01 1.9
7 -5 3 1.79 2.13
7 -5 3 3.92 2.29
-8 5 -3 2.81 2.36
-8 5 -3 6.96 3.17
-8 5 -3 8.6 2.3
8 -5 3 6.68 3.01
-9 5 -3 -0.27 1.83
-9 5 -3 -0.32 1.66
9 -5 3 1.83 3.07
9 4 -3 -2.9 3.5
9 4 -3 5.2 2.77
-9 -4 3 7.54 3.68
8 4 -3 8.85 2.57
8 4 -3 4.08 3.22
-8 -4 3 2.56 2.49
7 4 -3 4.46 2.29
7 4 -3 2.36 2.21
7 4 -3 -1.76 1.36
-7 -4 3 5.89 2.65
-7 -4 3 -1.5 1.72
6 4 -3 -1.17 1.4
6 4 -3 0.92 1.12
6 4 -3 -0.06 1.52
-6 -4 3 0.08 1.05
5 4 -3 0.13 1.25
5 4 -3 -0.26 0.77
5 4 -3 -0.68 1.14
-5 -4 3 -2.07 1.09
-5 -4 3 0.82 0.31
-5 -4 3 0.63 0.28
4 4 -3 0.44 1.1
4 4 -3 0.38 1.26
4 4 -3 -0.31 0.9
-4 -4 3 0.48 0.54
-4 -4 3 -0.82 1.07
3 4 -3 3.87 2.01
3 4 -3 1.98 1.85
3 4 -3 2.65 1.14
-3 -4 3 5.78 1.07
-3 -4 3 2.36 1.97
2 4 -3 22.67 4.39
2 4 -3 18.55 2.68
2 4 -3 23.3 5.2
-2 -4 3 26 6.97
-2 -4 3 23.83 2.5
1 4 -3 3.15 1.73
-1 -4 3 0.77 1.96
-1 -4 3 3.93 1.02
0 4 -3 1.27 1.11
0 4 -3 0.38 0.88
0 4 -3 1.25 0.71
0 -4 3 0.97 0.67
-1 4 -3 3.08 1.53
-1 4 -3 0.57 0.55
-1 4 -3 0.94 1.23
1 -4 3 1.02 1.38
1 -4 3 0.86 0.82
-2 4 -3 0.61 0.8
-2 4 -3 -0.54 0.47
2 -4 3 -0.01 0.62
2 -4 3 -1.03 1.03
-3 4 -3 11.81 2.88
-3 4 -3 7.42 1.93
-3 4 -3 3.44 2.1
3 -4 3 9.6 2.64
3 -4 3 6.77 0.92
-4 4 -3 16.61 4.39
-4 4 -3 12.37 2.96
-4 4 -3 15.38 3.35
4 -4 3 14.04 2.04
4 -4 3 19.03 3.47
-5 4 -3 3.03 1.62
-5 4 -3 -1.33 0.77
-5 4 -3 -0.72 0.69
5 -4 3 0.71 1.28
5 -4 3 0.31 0.92
-6 4 -3 1.32 1.49
-6 4 -3 3 1.39
-6 4 -3 4.72 1.98
6 -4 3 2.98 2.13
6 -4 3 3.55 1.58
-7 4 -3 -0.12 1.07
-7 4 -3 2.9 1.72
-7 4 -3 1.27 1.98
-7 4 -3 0.35 1.24
7 -4 3 -1.92 1.47
7 -4 3 -0.38 0.72
-8 4 -3 -0.36 1.26
-8 4 -3 -0.06 1.73
-8 4 -3 -0.89 1.13
8 -4 3 0.93 2.26
8 -4 3 0.38 0.94
8 -4 3 -0.38 1.22
-9 4 -3 0.67 2.56
-9 4 -3 4.15 2.19
9 -4 3 2.97 3.06
9 -4 3 3.59 1.55
-10 4 -3 2.62 2.84
-10 4 -3 2.8 2.07
10 -4 3 1.4 1.46
10 3 -3 1.01 2.8
-10 -3 3 2.13 3.02
9 3 -3 -0.52 1.76
9 3 -3 4.25 2.13
-9 -3 3 1.98 4.01
-9 -3 3 1.79 0.66
8 3 -3 0.76 2.21
8 3 -3 2.43 1.98
-8 -3 3 -0.1 1.75
-8 -3 3 -0.13 1.98
-8 -3 3 0.1 0.32
7 3 -3 1.94 1.41
7 3 -3 4.02 2.09
-7 -3 3 -0.17 1.6
-7 -3 3 1.06 1.23
6 3 -3 12.28 2.98
6 3 -3 8.07 2.75
6 3 -3 10.57 3.16
-6 -3 3 8.54 0.95
-6 -3 3 6.85 2.77
5 3 -3 24.1 3.87
5 3 -3 24.69 3.85
5 3 -3 22.61 4.85
-5 -3 3 21.6 5.87
4 3 -3 0.44 1.06
4 3 -3 2.11 1.71
4 3 -3 1.65 1.37
-4 -3 3 1 1.42
3 3 -3 25.72 3.47
3 3 -3 31.5 4.71
3 3 -3 32.05 4.36
-3 -3 3 27.99 2.51
-3 -3 3 25.58 5.12
2 3 -3 3.05 1.84
2 3 -3 3.23 1.07
2 3 -3 4.92 1.82
-2 -3 3 6.85 2.42
-2 -3 3 6.11 1.34
1 3 -3 1.73 1.36
1 3 -3 1.25 0.79
1 3 -3 -0.1 0.93
-1 -3 3 1.28 0.54
-1 -3 3 3.4 1.73
0 3 -3 6.16 2.45
0 3 -3 11.05 1.89
0 -3 3 8.37 1.59
0 -3 3 10.06 3.07
-1 3 -3 1.58 0.97
-1 3 -3 1.14 0.67
-1 3 -3 -1.36 0.7
1 -3 3 0.37 0.55
1 -3 3 0.32 1.16
-2 3 -3 6.92 1.92
-2 3 -3 6.7 2.5
-2 3 -3 6.24 1.69
2 -3 3 6.33 1.68
-3 3 -3 22.59 3.14
-3 3 -3 17.09 3.27
-3 3 -3 23.29 4.87
3 -3 3 22.04 3.06
3 -3 3 17.39 2.03
-4 3 -3 21.54 3.06
-4 3 -3 23.92 5.09
-4 3 -3 21.74 3.4
4 -3 3 19.96 3.85
4 -3 3 20.38 2.59
-5 3 -3 8.96 2
-5 3 -3 7.11 2.49
-5 3 -3 9.9 2.44
-5 3 -3 7.3 3.02
5 -3 3 7 2.39
5 -3 3 5.73 1.62
-6 3 -3 8.3 2.4
-6 3 -3 12.15 2.68
-6 3 -3 10.67 3.26
-6 3 -3 11.14 2.23
6 -3 3 0.57 2.16
6 -3 3 5.57 1.84
6 -3 3 2.56 1.71
-7 3 -3 1.03 1.54
-7 3 -3 1.44 1.41
-7 3 -3 2.55 1.01
-7 3 -3 -1.33 1.07
7 -3 3 2.63 1.78
7 -3 3 1.61 1.51
-8 3 -3 0.79 1.64
-8 3 -3 -2.74 1.81
-8 3 -3 1.82 1.6
8 -3 3 1.7 2
8 -3 3 1.5 1.01
-9 3 -3 1.04 1.73
-9 3 -3 3.25 2.36
9 -3 3 1 0.99
9 -3 3 0.03 1.29
9 -3 3 -2.91 2.38
-10 3 -3 0.74 1.57
-10 3 -3 0.4 2.78
10 -3 3 0.46 0.94
10 2 -3 6.43 3.25
10 2 -3 13.86 4.07
-10 -2 3 2.68 2.58
-10 -2 3 7.25 1.69
9 2 -3 0.68 1.54
9 2 -3 0.42 2.63
-9 -2 3 1.65 2.51
-9 -2 3 1.5 1.63
-9 -2 3 0.97 0.72
8 2 -3 10.88 3.4
8 2 -3 24.16 5.2
-8 -2 3 16.89 4.23
-8 -2 3 12.04 1.86
-8 -2 3 11.76 3.63
7 2 -3 -0.94 1.73
7 2 -3 -0.09 1.73
-7 -2 3 0.22 0.39
-7 -2 3 -1.69 1.05
6 2 -3 1.29 1.11
6 2 -3 -0.98 1.2
-6 -2 3 1.22 1.68
-6 -2 3 0.85 0.89
-6 -2 3 1.12 0.39
5 2 -3 30.76 4.47
5 2 -3 26.69 3.95
5 2 -3 30.41 4.24
-5 -2 3 28.7 5.29
-5 -2 3 19.54 4.3
-5 -2 3 26.31 2.31
4 2 -3 0.32 0.83
4 2 -3 -0.64 0.81
4 2 -3 0.65 0.99
-4 -2 3 -0.34 0.76
-4 -2 3 2.25 1.35
3 2 -3 0.05 0.68
3 2 -3 0.88 0.79
3 2 -3 -0.58 0.78
-3 -2 3 2.25 1.45
-3 -2 3 1.59 1.2
2 2 -3 199.21 18.23
2 2 -3 220.07 17.86
2 2 -3 208.32 16.88
-2 -2 3 190.36 18.38
-2 -2 3 199.22 15.97
1 2 -3 7.53 2.26
1 2 -3 4.6 1.5
1 2 -3 7.12 1.65
1 2 -3 4.79 0.93
-1 -2 3 1.82 1.48
-1 -2 3 5.14 1.09
0 2 -3 7.18 0.86
0 2 -3 9.53 2.5
0 2 -3 6.8 1.28
0 -2 3 8.89 1.46
0 -2 3 5.76 2.1
-1 2 -3 0.27 0.84
-1 2 -3 0.98 0.58
1 -2 3 0.56 0.84
1 -2 3 1.1 0.64
-2 2 -3 173.29 16.06
-2 2 -3 160.05 14.62
-2 2 -3 191.26 14.59
2 -2 3 154.09 13.46
2 -2 3 181.53 14.52
-3 2 -3 18.75 2.59
-3 2 -3 15.91 2.32
-3 2 -3 18.34 4.38
3 -2 3 12.53 2.51
-4 2 -3 0.36 0.49
-4 2 -3 -0.08 0.92
-4 2 -3 1.9 1.03
4 -2 3 0.05 0.44
4 -2 3 0.6 0.75
-5 2 -3 5.45 2.21
-5 2 -3 7.09 2.12
-5 2 -3 5.96 1.34
-5 2 -3 7.4 2
5 -2 3 4.22 1.4
5 -2 3 3.82 2.23
5 -2 3 4.76 1.25
-6 2 -3 2.17 1.07
-6 2 -3 0.59 0.53
-6 2 -3 2 1.31
6 -2 3 -0.71 0.91
6 -2 3 0.72 0.5
6 -2 3 1.4 1.27
-7 2 -3 2.56 1.82
-7 2 -3 2.98 1.38
7 -2 3 0.71 1.63
7 -2 3 1.99 1.52
7 -2 3 0.97 0.87
-8 2 -3 1.17 1.12
-8 2 -3 0.69 0.65
8 -2 3 0.5 1.8
8 -2 3 0.63 1.05
8 -2 3 -0.63 0.46
-9 2 -3 0.95 1.18
-9 2 -3 0.55 1.71
9 -2 3 -0.79 0.94
9 -2 3 -0.88 2.08
-10 2 -3 3.4 1.36
10 -2 3 -0.58 1.15
-11 2 -3 -2.49 1.65
11 -2 3 1.07 1.68
11 -2 3 3.46 4.09
11 1 -3 -0.41 0.96
-11 -1 3 2.17 1.22
-11 -1 3 -0.73 2.48
10 1 -3 1.28 1.54
10 1 -3 1.81 2.06
-10 -1 3 0.81 2.07
-10 -1 3 0.73 0.94
9 1 -3 2.18 2.55
9 1 -3 2.21 2.01
9 1 -3 3.03 2.09
-9 -1 3 3.18 2.54
-9 -1 3 1.81 1.96
-9 -1 3 1.47 0.94
8 1 -3 8.19 3.03
8 1 -3 6.57 2.88
-8 -1 3 7.74 1.74
-8 -1 3 7.07 2.65
-8 -1 3 5.74 2.39
7 1 -3 25.21 4.43
7 1 -3 25.59 4.79
-7 -1 3 13.45 2.05
-7 -1 3 15.67 3.83
-7 -1 3 17.75 4.32
6 1 -3 4.21 2.09
6 1 -3 4.68 2.14
-6 -1 3 0.47 1.54
-6 -1 3 5.13 1
-6 -1 3 6.12 2.27
5 1 -3 51.3 5.94
5 1 -3 55.8 6.09
-5 -1 3 45.65 4.18
-5 -1 3 53.35 6.08
-5 -1 3 36.33 5.84
4 1 -3 3.68 1.38
4 1 -3 3.12 1.31
4 1 -3 4.4 1.62
-4 -1 3 1.9 1.28
-4 -1 3 4.2 1.63
3 1 -3 1.26 1.11
3 1 -3 2.87 1.16
3 1 -3 3.86 1.31
-3 -1 3 1.3 1.12
-3 -1 3 4.45 1.54
2 1 -3 39.18 4.3
2 1 -3 50.61 4.93
2 1 -3 48.03 5.2
-2 -1 3 35.5 4.63
-2 -1 3 44.31 5.16
1 1 -3 30.78 3.69
1 1 -3 23.67 2.13
-1 -1 3 21.71 2.1
-1 -1 3 24.27 3.54
0 1 -3 13.55 1.49
0 1 -3 12.81 2.76
0 -1 3 10.1 1.65
0 -1 3 15.16 2.94
-1 1 -3 85.42 7.29
-1 1 -3 80.76 6.85
-1 1 -3 90.31 8.91
1 -1 3 83.65 7.34
-2 1 -3 61.98 6.98
-2 1 -3 67.33 6.01
-2 1 -3 63.12 5.48
2 -1 3 70.75 6.18
2 -1 3 61 5.58
-3 1 -3 23.53 2.63
-3 1 -3 28.97 3.14
-3 1 -3 24.7 2.74
3 -1 3 23.45 3.13
3 -1 3 25.67 2.84
-4 1 -3 0.54 0.27
-4 1 -3 -0.24 0.57
-4 1 -3 0.43 0.62
4 -1 3 0.36 0.71
4 -1 3 0.98 0.77
-5 1 -3 -0.04 0.38
-5 1 -3 1.12 0.97
-5 1 -3 -0.72 0.75
5 -1 3 -0.13 0.25
5 -1 3 -0.22 0.64
5 -1 3 1.07 1
-6 1 -3 11.54 2.64
-6 1 -3 15.44 3.11
6 -1 3 8.08 2.21
6 -1 3 13.95 2.84
6 -1 3 11.22 1.59
-7 1 -3 1.67 0.95
-7 1 -3 2.19 1.63
7 -1 3 2.29 0.79
7 -1 3 -0.12 1.47
7 -1 3 2.47 1.39
-8 1 -3 1.75 1.74
-8 1 -3 3.66 2.44
8 -1 3 0.71 1.42
8 -1 3 2.36 1.98
8 -1 3 5.52 1.41
-9 1 -3 3.84 1.92
-9 1 -3 2.04 1.08
9 -1 3 1.22 0.79
9 -1 3 5.19 2.69
9 -1 3 -1.59 1.32
-10 1 -3 1.49 1.78
-10 1 -3 0.86 1.24
10 -1 3 2.19 1.67
10 -1 3 2.5 1.82
-11 1 -3 0.66 1.89
11 -1 3 0.06 1.37
11 -1 3 4.94 3.51
11 0 -3 0.08 1.81
11 0 -3 2.74 2.22
-11 0 3 0.95 1.05
-11 0 3 0.49 2.76
10 0 -3 4.6 2.17
10 0 -3 6.03 2.68
-10 0 3 2.91 1.54
-10 0 3 1.89 2.63
9 0 -3 3.94 2.55
9 0 -3 1.82 1.34
9 0 -3 2.89 1.24
-9 0 3 1.15 1.07
-9 0 3 2.37 2.17
-9 0 3 2.77 1.83
8 0 -3 2.29 2.03
8 0 -3 -0.77 1.37
8 0 -3 2.25 0.85
-8 0 3 2.07 1.13
-8 0 3 2.65 2.62
7 0 -3 12.55 3.24
7 0 -3 15.49 3.89
7 0 -3 8.33 1.91
7 0 -3 11.13 3.08
-7 0 3 17.57 3.73
-7 0 3 14.31 3.53
-7 0 3 11.24 2.19
6 0 -3 54.8 6.47
6 0 -3 52.73 6.07
6 0 -3 44.59 5.89
6 0 -3 47.01 4.57
-6 0 3 38.09 5.79
-6 0 3 41.15 4.48
-6 0 3 44.98 5.6
5 0 -3 37.23 4.36
5 0 -3 26.33 2.85
5 0 -3 28.23 4.08
-5 0 3 28.35 3.8
-5 0 3 25.17 2.85
-5 0 3 29.38 4.29
4 0 -3 1.01 0.47
4 0 -3 1.08 0.91
4 0 -3 1.25 0.91
-4 0 3 1.88 1.1
-4 0 3 1.31 0.48
-4 0 3 2.28 1.19
3 0 -3 28.05 3.11
3 0 -3 21.83 2.09
3 0 -3 27.6 3.3
-3 0 3 20.56 3.29
-3 0 3 23.47 3.1
2 0 -3 122.69 9.8
2 0 -3 113.75 8.58
2 0 -3 109.94 10.05
-2 0 3 94.22 9.71
-2 0 3 100.45 9.77
1 0 -3 168.74 13.61
1 0 -3 198.28 14.85
1 0 -3 190.48 14.59
-1 0 3 142.88 14.38
-1 0 3 169.48 14.74
0 0 -3 30.93 2.87
0 0 -3 32.16 3.64
0 0 -3 34.86 3.48
0 0 3 27.97 3.52
-1 0 -3 93.55 8.04
-1 0 -3 93.1 7.94
-1 0 -3 99.01 9.05
1 0 3 93.19 7.99
-2 0 -3 59.09 5.17
-2 0 -3 58.6 5.22
2 0 3 49.32 5.16
-3 0 -3 0.42 0.48
-3 0 -3 1.43 0.82
3 0 3 1.15 0.66
3 0 3 0.23 0.51
-4 0 -3 3.81 1.2
-4 0 -3 4.66 1.28
-4 0 -3 6.76 1.64
4 0 3 4.52 1.43
4 0 3 2.63 1.19
-5 0 -3 0.1 0.66
-5 0 -3 0.35 0.61
-5 0 -3 -1.45 0.74
5 0 3 1.37 1.1
5 0 3 0.72 0.71
-6 0 -3 9.68 2.16
-6 0 -3 10.57 2.21
6 0 3 6.25 1.9
6 0 3 7.12 2.33
-7 0 -3 9.4 2.33
-7 0 -3 9.04 2.69
-7 0 -3 6.42 2.55
7 0 3 7.67 2.32
7 0 3 4.81 2.05
7 0 3 10.43 1.74
-8 0 -3 0.06 0.94
-8 0 -3 -0.7 0.94
8 0 3 1.58 1.82
8 0 3 1.05 1.19
8 0 3 0.16 0.56
-9 0 -3 5.9 2.55
-9 0 -3 10.55 2.83
9 0 3 10.42 2.18
9 0 3 8.51 2.64
9 0 3 2.87 2.87
-10 0 -3 -4.56 2.68
-10 0 -3 1.97 1.24
10 0 3 2.16 1.77
10 0 3 3.57 2.95
10 0 3 -1.33 0.96
-11 0 -3 3.45 1.62
11 0 3 0.23 0.91
11 0 3 7.56 3.89
-12 0 -3 2.83 3.65
12 0 3 -0.47 1.33
11 -1 -3 2.88 1.73
11 -1 -3 2.82 2.28
-11 1 3 1.06 1.47
10 -1 -3 0.58 1.54
10 -1 -3 3.29 2.03
10 -1 -3 0.58 1.65
-10 1 3 1.25 1.32
-10 1 3 -1.33 1.76
9 -1 -3 11.72 3.63
9 -1 -3 19.1 4.55
9 -1 -3 8.68 2.34
-9 1 3 9 2.67
-9 1 3 7.99 2.33
8 -1 -3 0.09 0.67
8 -1 -3 0.2 1.34
8 -1 -3 -1.12 0.73
-8 1 3 0.09 1.04
-8 1 3 0.55 0.82
7 -1 -3 5.15 2.06
7 -1 -3 7.76 2.52
7 -1 -3 5.71 1.6
7 -1 -3 4.87 2.38
-7 1 3 3.98 1.93
-7 1 3 5.1 1.61
-7 1 3 3.62 1.96
6 -1 -3 2.41 1.61
6 -1 -3 4.67 1.8
6 -1 -3 2.18 0.96
6 -1 -3 3.53 2.09
-6 1 3 1.49 1.46
-6 1 3 2.02 0.98
-6 1 3 3.96 1.57
5 -1 -3 8.36 2.4
5 -1 -3 6.62 1.43
5 -1 -3 7.25 2.15
5 -1 -3 7.43 2.29
-5 1 3 5.75 1.68
-5 1 3 5.55 2.05
-5 1 3 4.14 1.16
4 -1 -3 19.43 2.11
4 -1 -3 15.71 3.08
4 -1 -3 17.15 2.77
-4 1 3 15.42 2.07
-4 1 3 16.01 2.64
-4 1 3 16.24 2.33
3 -1 -3 0.86 0.59
3 -1 -3 0.89 0.45
3 -1 -3 1.92 0.87
-3 1 3 -0.37 0.58
-3 1 3 0.24 0.52
2 -1 -3 104.92 8.99
2 -1 -3 113.24 10.19
2 -1 -3 117.19 9.64
2 -1 -3 104.29 8.96
-2 1 3 102.5 9.11
-2 1 3 112.24 9.69
1 -1 -3 312.22 24.55
1 -1 -3 312.18 25.25
1 -1 -3 317.34 24.8
-1 1 3 283.38 24.48
-1 1 3 323.05 24.95
0 -1 -3 94.61 7.73
0 -1 -3 90.22 7.46
0 1 3 76.44 8.15
-1 -1 -3 3.63 0.86
-1 -1 -3 6.3 1.49
1 1 3 3.68 1.12
-2 -1 -3 118.25 9.99
-2 -1 -3 115.36 9.25
-2 -1 -3 114.16 9.66
2 1 3 108.01 9.91
-3 -1 -3 8.53 1.99
-3 -1 -3 9.99 2
-3 -1 -3 8.98 1.3
3 1 3 8.08 1.78
3 1 3 4.61 1.26
-4 -1 -3 208.85 16.51
-4 -1 -3 214.46 16.67
-4 -1 -3 218.21 18.38
4 1 3 186.45 15.48
4 1 3 197.87 16.98
4 1 3 171.65 16.53
-5 -1 -3 1.28 1.16
-5 -1 -3 -0.05 0.55
-5 -1 -3 0.19 0.58
5 1 3 -1.13 1.01
5 1 3 0.51 0.3
5 1 3 0.69 0.81
-6 -1 -3 6.6 2.15
-6 -1 -3 4.2 1.5
-6 -1 -3 2.19 1.07
6 1 3 4.23 1.03
6 1 3 5.3 1.75
6 1 3 2.56 1.48
-7 -1 -3 26.83 4.23
-7 -1 -3 27.75 3.75
-7 -1 -3 19.91 3.8
7 1 3 30.35 6.74
7 1 3 27.98 3.1
7 1 3 21.59 3.5
-8 -1 -3 9.54 2.71
-8 -1 -3 9.97 2.61
-8 -1 -3 12.86 3.65
8 1 3 5.27 2.22
8 1 3 11.31 2.13
8 1 3 8.84 2.95
-9 -1 -3 8.69 2.79
-9 -1 -3 8.24 4.06
9 1 3 7.14 2.55
9 1 3 9.11 3.39
-10 -1 -3 1.78 1.26
-10 -1 -3 -0.07 1.63
10 1 3 0.74 2.17
10 1 3 0.84 1.02
-11 -1 -3 4.01 2.42
-11 -1 -3 0.76 0.97
11 1 3 0.26 1.02
11 1 3 -1.64 4.09
-12 -1 -3 0.03 1.77
12 1 3 -0.92 1.13
11 -2 -3 -1.69 1.87
11 -2 -3 0.25 1.79
-11 2 3 1.11 1.46
-11 2 3 0.34 2.07
10 -2 -3 -0.92 0.98
10 -2 -3 -1.36 1.38
10 -2 -3 -3.54 1.98
-10 2 3 0.03 1.82
9 -2 -3 -0.23 1.33
9 -2 -3 0.22 1.43
9 -2 -3 1.06 1.33
9 -2 -3 -0.19 1.69
-9 2 3 -7.13 3.5
-9 2 3 -0.68 1.33
-9 2 3 -0.25 0.97
8 -2 -3 0.81 0.97
8 -2 -3 -0.08 0.78
8 -2 -3 0.98 1.15
-8 2 3 0.58 1.06
-8 2 3 0.23 1.09
7 -2 -3 23.44 4.88
7 -2 -3 29.66 6.04
7 -2 -3 27.15 3.63
7 -2 -3 31.93 4.79
-7 2 3 26.45 5.01
-7 2 3 24.64 3.85
-7 2 3 21.22 3.53
6 -2 -3 18.57 4.03
6 -2 -3 18.7 3.86
6 -2 -3 13.41 2.68
6 -2 -3 19.66 4.21
-6 2 3 13.32 2.72
-6 2 3 20.06 3.9
-6 2 3 20.05 2.9
5 -2 -3 3.18 1.32
5 -2 -3 4.12 1.58
5 -2 -3 2.3 0.93
-5 2 3 3.06 1.1
-5 2 3 1.06 1.27
-5 2 3 1.54 0.99
4 -2 -3 0.43 0.87
4 -2 -3 1.5 0.71
4 -2 -3 0.07 0.43
-4 2 3 1.55 0.64
-4 2 3 0.23 0.67
-4 2 3 1.36 0.8
3 -2 -3 1.04 0.87
3 -2 -3 2.93 0.91
3 -2 -3 4.78 1.43
-3 2 3 1.81 0.88
-3 2 3 2.49 0.62
-3 2 3 1.45 0.72
2 -2 -3 87.74 8.26
2 -2 -3 85.62 10.28
2 -2 -3 102.83 8.54
-2 2 3 119.22 10.03
-2 2 3 86.49 8.36
1 -2 -3 182.48 13.75
1 -2 -3 172.54 14.39
-1 2 3 136.87 14.19
-1 2 3 170.22 13.71
0 -2 -3 373.05 27.55
0 2 3 367.25 27.6
0 2 3 304.04 28.22
-1 -2 -3 18.4 1.62
-1 -2 -3 22.11 2.42
-1 -2 -3 18.43 2.53
1 2 3 16.32 2.5
1 2 3 17.02 2.32
-2 -2 -3 195 15.36
-2 -2 -3 171.09 14.69
-2 -2 -3 174.07 14.04
2 2 3 175.08 15.21
2 2 3 177.78 14.68
-3 -2 -3 20.38 2.96
-3 -2 -3 23.53 2.25
-3 -2 -3 26.25 3.34
3 2 3 17.81 2.76
3 2 3 16.99 2.18
-4 -2 -3 2.03 1.21
-4 -2 -3 0.81 0.51
-4 -2 -3 0.76 0.62
4 2 3 0.05 0.27
4 2 3 0.2 0.4
-5 -2 -3 34.51 3.66
-5 -2 -3 37.18 4.51
-5 -2 -3 31.59 3.69
5 2 3 30.66 3.8
5 2 3 28.52 4.12
5 2 3 28.97 3.32
-6 -2 -3 20.6 2.93
-6 -2 -3 22.62 2.97
-6 -2 -3 17.43 3.25
6 2 3 22.27 3.75
6 2 3 19.75 2.85
-7 -2 -3 57.94 5.99
-7 -2 -3 59.22 5.94
-7 -2 -3 51.69 6.48
7 2 3 38.87 6.45
7 2 3 52.24 5.92
-8 -2 -3 5.39 3
-8 -2 -3 3.83 1.57
-8 -2 -3 3 1.69
8 2 3 6.61 2.17
8 2 3 4.13 2.48
-9 -2 -3 10.68 2.66
-9 -2 -3 8.08 2.81
-9 -2 -3 9.65 3.58
9 2 3 9.14 3.13
9 2 3 10.43 3.04
9 2 3 7.62 2.02
-10 -2 -3 9.31 3.54
-10 -2 -3 8.49 2.59
-10 -2 -3 5.05 2.46
10 2 3 10.86 2.58
10 2 3 5.28 5.54
10 2 3 12.43 3.27
-11 -2 -3 3.71 1.86
-11 -2 -3 1.27 2.17
11 2 3 2.23 1.66
11 2 3 4.43 2.6
-12 -2 -3 -1.92 1.55
12 2 3 0.21 1.62
10 -3 -3 0.29 1.47
10 -3 -3 1.21 1.27
10 -3 -3 0.56 2.24
-10 3 3 -3.16 1.21
-10 3 3 -1.43 1.28
9 -3 -3 1.17 1.71
9 -3 -3 3.58 2.49
9 -3 -3 -0.7 1.44
9 -3 -3 2 1.77
-9 3 3 1.87 1.59
-9 3 3 1.45 1.91
-9 3 3 1.73 1.71
8 -3 -3 2.21 2.23
8 -3 -3 6.37 2.22
8 -3 -3 0.31 1.9
-8 3 3 4.27 1.85
-8 3 3 3.66 1.8
7 -3 -3 3.33 2.04
7 -3 -3 0.81 1.95
7 -3 -3 -0.26 1.5
7 -3 -3 0.43 1.16
-7 3 3 0.05 0.72
-7 3 3 -1.54 1.14
6 -3 -3 3.95 1.32
6 -3 -3 5.64 2.38
6 -3 -3 3.9 1.88
-6 3 3 4.03 1.81
-6 3 3 3.76 1.33
5 -3 -3 5.34 1.62
5 -3 -3 9 2.63
5 -3 -3 5.22 1.78
-5 3 3 5.55 1.61
-5 3 3 7.73 2.34
4 -3 -3 25.59 3.84
4 -3 -3 23.53 3.08
4 -3 -3 23.28 3.27
-4 3 3 19.99 3.52
-4 3 3 20.81 3.92
-4 3 3 19.01 2.87
3 -3 -3 8.4 2.18
3 -3 -3 6.36 1.59
3 -3 -3 6.45 1.6
-3 3 3 6.49 1.57
-3 3 3 5.48 1.82
-3 3 3 5.72 1.47
-3 3 3 6.69 1.23
2 -3 -3 72.28 6.88
2 -3 -3 71.07 6.68
2 -3 -3 75.48 7.69
-2 3 3 72.68 6.05
-2 3 3 66.62 6.63
1 -3 -3 44.75 4.49
1 -3 -3 58.85 4.95
1 -3 -3 65.79 6.41
1 -3 -3 44.36 5.04
-1 3 3 55.27 4.91
-1 3 3 54.17 4.49
0 -3 -3 5.55 1.12
0 -3 -3 9.54 1.71
0 -3 -3 4.86 1.46
0 3 3 7.23 0.99
0 3 3 9.98 2.38
-1 -3 -3 250.9 22.98
-1 -3 -3 296.94 23.68
1 3 3 304.12 22.14
1 3 3 294.78 23.56
1 3 3 272.47 23.59
-2 -3 -3 147.98 13.04
-2 -3 -3 168.16 13.19
-2 -3 -3 176.62 13.54
2 3 3 133.8 13.12
2 3 3 124.45 12.72
-3 -3 -3 2.72 0.6
-3 -3 -3 3.41 1.16
-3 -3 -3 5.18 1.58
-3 -3 -3 6.53 1.91
3 3 3 5.98 1.67
3 3 3 3.85 1.15
3 3 3 3.96 0.72
-4 -3 -3 38.04 3.72
-4 -3 -3 41.35 4.84
4 3 3 36.25 4.6
4 3 3 37.57 3.66
4 3 3 32.98 3.96
-5 -3 -3 0.96 1.2
-5 -3 -3 1.85 0.79
-5 -3 -3 0.32 0.61
5 3 3 1.01 1.43
5 3 3 1.48 0.71
5 3 3 1.02 0.67
-6 -3 -3 0.43 0.82
-6 -3 -3 4.87 2.04
-6 -3 -3 0.97 1.06
6 3 3 3.13 2.03
6 3 3 1.84 1.02
6 3 3 0.55 0.76
-7 -3 -3 22.94 4.61
-7 -3 -3 18.32 3.9
-7 -3 -3 12.94 2.8
-7 -3 -3 14.05 2.92
7 3 3 18.49 2.84
7 3 3 10.26 3.35
7 3 3 15.76 3
-8 -3 -3 9.61 2.35
-8 -3 -3 3.83 2.57
-8 -3 -3 6.41 2.62
8 3 3 7.32 3.19
8 3 3 7.61 2.42
-9 -3 -3 10.29 2.36
-9 -3 -3 3.41 2.78
-9 -3 -3 6.47 2.27
9 3 3 11.15 2.75
-10 -3 -3 0.93 2.06
-10 -3 -3 3.71 1.84
-10 -3 -3 0.35 1.74
-10 -3 -3 0.62 1.26
10 3 3 2.11 1.45
10 3 3 4.18 3.7
10 3 3 -0.71 0.84
-11 -3 -3 10.02 3.06
-11 -3 -3 0.62 3.04
-11 -3 -3 5.77 3.38
11 3 3 7.86 2.57
11 3 3 4.91 2.02
-12 -3 -3 0 1.59
12 3 3 -0.26 2.18
12 3 3 0.46 1.63
10 -4 -3 5.05 1.74
10 -4 -3 2.87 2.25
-10 4 3 0.86 1.4
-10 4 3 -0.13 1.65
-10 4 3 1.57 1.77
9 -4 -3 1.27 2.17
9 -4 -3 1.49 1.73
9 -4 -3 3.43 1.5
9 -4 -3 1.36 1.86
-9 4 3 -2.03 0.97
-9 4 3 0.84 1.28
8 -4 -3 47 8.33
8 -4 -3 34.38 5.63
8 -4 -3 24.86 6.81
8 -4 -3 25.22 5.37
-8 4 3 31.6 4.95
-8 4 3 35.07 6.91
7 -4 -3 0.13 1.32
7 -4 -3 1.2 1.34
7 -4 -3 0.56 1.59
7 -4 -3 -1.33 1.06
-7 4 3 0.09 1.2
-7 4 3 1.79 1.33
-7 4 3 0.89 1.13
6 -4 -3 -0.2 0.82
6 -4 -3 0.01 0.9
6 -4 -3 -0.41 0.81
-6 4 3 0.08 0.55
-6 4 3 0.68 0.9
-6 4 3 0.56 1.21
5 -4 -3 -0.61 0.91
5 -4 -3 0.26 0.89
5 -4 -3 -0.5 0.76
-5 4 3 -0.09 0.75
-5 4 3 0.31 0.76
-5 4 3 0.18 0.7
4 -4 -3 2.27 1.58
4 -4 -3 5.16 1.73
4 -4 -3 4.02 1.48
-4 4 3 5.71 1.68
-4 4 3 7.42 2.56
-4 4 3 4.19 1.32
-4 4 3 5.83 1.83
3 -4 -3 11.88 2.99
3 -4 -3 12.4 2.68
3 -4 -3 11.19 2.28
-3 4 3 11.76 2.4
-3 4 3 10.58 2.77
-3 4 3 13.49 1.96
2 -4 -3 37.07 4.98
2 -4 -3 32.7 4.19
-2 4 3 34.49 3.73
-2 4 3 39.95 5
-2 4 3 33.97 3.95
1 -4 -3 3.72 1.53
1 -4 -3 1.58 0.83
1 -4 -3 4.92 1.29
-1 4 3 3.18 1.29
-1 4 3 2.37 0.9
-1 4 3 2.43 0.88
0 -4 -3 21.73 2.93
0 -4 -3 33.1 4.18
0 -4 -3 23.91 4.03
0 4 3 24.27 2.66
0 4 3 26.3 3.57
0 4 3 26.17 3.03
-1 -4 -3 111.63 10.42
-1 -4 -3 120.64 11.76
1 4 3 117.29 10.82
1 4 3 127.38 10.5
1 4 3 104.33 10.67
-2 -4 -3 -0.14 0.6
-2 -4 -3 0.86 1.18
2 4 3 0.21 0.26
2 4 3 0.29 0.99
2 4 3 0.14 0.57
-3 -4 -3 39.57 5.46
-3 -4 -3 42.72 5.2
-3 -4 -3 48.95 5.47
3 4 3 42 5.26
3 4 3 41.17 4.9
3 4 3 45 4.03
-4 -4 -3 1.05 1.24
-4 -4 -3 0.47 0.56
-4 -4 -3 1.41 1.07
4 4 3 0.16 1.15
4 4 3 2.28 1
4 4 3 1.62 0.6
-5 -4 -3 8.52 2.57
-5 -4 -3 8.53 2.48
5 4 3 3.57 1.96
5 4 3 8.1 1.59
5 4 3 6.68 1.98
-6 -4 -3 42.79 5.55
-6 -4 -3 33.86 4.41
-6 -4 -3 36.22 4.65
-6 -4 -3 36.9 5.56
6 4 3 35.02 4.74
6 4 3 48.14 4.66
-7 -4 -3 2.04 1.35
-7 -4 -3 2.51 1.48
-7 -4 -3 4.64 2.59
-7 -4 -3 3.4 1.74
7 4 3 0.61 2.2
7 4 3 0.7 1.31
7 4 3 2.25 1.44
-8 -4 -3 11.87 3.23
-8 -4 -3 18.51 4.95
-8 -4 -3 11.6 2.91
-8 -4 -3 9.26 3.11
8 4 3 13.39 3.07
8 4 3 10.1 2.46
-9 -4 -3 1.39 1.5
-9 -4 -3 -0.39 1.97
-9 -4 -3 -0.01 0.84
9 4 3 -0.39 1.23
9 4 3 2.26 1.18
-10 -4 -3 -0.65 1.46
-10 -4 -3 1.55 1.6
-10 -4 -3 1.1 2.15
-10 -4 -3 -1.53 1.13
10 4 3 -0.94 3.18
10 4 3 1.59 1.37
10 4 3 1.78 1.61
-11 -4 -3 -3.6 3.03
-11 -4 -3 1.09 3.18
-11 -4 -3 3.98 1.88
11 4 3 0.99 1.49
11 4 3 0.56 2.14
-12 -4 -3 -1.36 1.5
12 4 3 4.84 4.71
12 4 3 1.6 1.99
10 -5 -3 -0.05 2.12
-10 5 3 6.41 2.4
-10 5 3 1.67 2.21
9 -5 -3 1.14 1.79
9 -5 -3 1.36 2.01
-9 5 3 2 1.86
-9 5 3 3.88 2.06
8 -5 -3 1.17 1.87
8 -5 -3 3.77 3.65
8 -5 -3 0.01 1.53
-8 5 3 2.51 1.59
-8 5 3 1.96 1.58
-8 5 3 0.21 2
7 -5 -3 7.92 2.64
7 -5 -3 3.39 2.2
-7 5 3 4.9 3.32
-7 5 3 8.71 2.44
6 -5 -3 -0.71 0.97
6 -5 -3 -2.06 1.31
-6 5 3 -0.87 0.94
-6 5 3 0.29 0.78
-6 5 3 0.67 1.03
-6 5 3 -0.03 1.65
5 -5 -3 1.53 1.31
5 -5 -3 0.05 1.06
-5 5 3 0.72 1.24
-5 5 3 1.19 1
-5 5 3 0.61 0.84
-5 5 3 0.82 1.27
4 -5 -3 0.09 0.9
-4 5 3 0.01 1
-4 5 3 0.18 0.68
-4 5 3 0.72 0.91
3 -5 -3 8.2 2.68
3 -5 -3 7.56 2.13
-3 5 3 5.92 2.48
-3 5 3 7.52 2.08
-3 5 3 6.76 1.79
2 -5 -3 1.62 1.01
2 -5 -3 2.25 1.35
2 -5 -3 1.23 0.81
-2 5 3 1.9 1.52
-2 5 3 2.72 1.1
-2 5 3 0.32 0.75
1 -5 -3 62.31 7.17
1 -5 -3 63.59 7.02
1 -5 -3 95.02 9.45
-1 5 3 71.22 7.92
-1 5 3 73.78 7.19
-1 5 3 73.5 6.79
0 -5 -3 0.89 0.94
0 -5 -3 0.79 1.05
0 -5 -3 1.69 1.47
0 5 3 1.74 1.11
0 5 3 3.33 1.33
-1 -5 -3 31.83 4.32
-1 -5 -3 24.91 3.78
-1 -5 -3 37.26 4.81
1 5 3 26.79 4
-2 -5 -3 11.63 2.82
-2 -5 -3 16.79 3.43
-2 -5 -3 21.33 3.35
2 5 3 12.41 3.01
2 5 3 15.31 3.04
2 5 3 14.87 3.03
2 5 3 13.93 1.93
-3 -5 -3 1.38 0.99
-3 -5 -3 -0.51 1.07
-3 -5 -3 0.31 0.78
3 5 3 -0.72 0.87
3 5 3 0.51 0.61
3 5 3 1.1 1.23
3 5 3 -0.6 0.38
-4 -5 -3 33.86 4.81
-4 -5 -3 40.69 4.94
4 5 3 29.4 4.36
4 5 3 23.66 4.42
4 5 3 37.34 3.74
-5 -5 -3 30.06 4.72
-5 -5 -3 31.1 4.72
5 5 3 19.26 4
5 5 3 25.19 4.31
5 5 3 17.21 3.82
-6 -5 -3 4.71 1.66
-6 -5 -3 1.26 1.24
-6 -5 -3 3.46 2.12
-6 -5 -3 2.3 1.87
6 5 3 4.36 1.93
6 5 3 4.17 1.39
6 5 3 1.97 1.74
-7 -5 -3 5.43 1.71
-7 -5 -3 2.23 1.2
-7 -5 -3 0.51 0.96
-7 -5 -3 5.31 2.4
7 5 3 1.6 1.3
7 5 3 6.61 2.37
7 5 3 2.74 2.67
-8 -5 -3 10.6 2.76
-8 -5 -3 17.63 5.53
8 5 3 18.17 5.04
8 5 3 14.68 3.13
-9 -5 -3 6.55 3.46
-9 -5 -3 5.56 2.25
-9 -5 -3 9.17 5.05
-9 -5 -3 4.09 1.77
9 5 3 4.49 2
9 5 3 4.95 2.37
-10 -5 -3 1.76 1.85
-10 -5 -3 0.84 2.59
-10 -5 -3 0.54 1.65
10 5 3 -2.78 2.41
10 5 3 1.03 1.79
10 5 3 6.66 3.41
-11 -5 -3 3.35 2.75
-11 -5 -3 8.07 2.92
-11 -5 -3 1.5 1.62
11 5 3 2.64 2.38
11 5 3 -2.83 1.57
9 -6 -3 -0.28 1.63
-9 6 3 1.84 1.81
-9 6 3 0.99 1.83
8 -6 -3 1.99 2.56
8 -6 -3 0.92 1.86
8 -6 -3 -2.72 2.37
-8 6 3 1.02 1.48
-8 6 3 1.33 1.17
7 -6 -3 0.82 1.56
-7 6 3 -0.01 1.19
-7 6 3 0.71 1.44
-7 6 3 -1.49 1.51
-7 6 3 1.44 0.92
6 -6 -3 -0.53 1.36
6 -6 -3 -0.22 1.31
-6 6 3 -0.01 1.08
-6 6 3 0.75 1.27
-6 6 3 1.09 1.18
-6 6 3 -0.36 1.37
5 -6 -3 3.44 2.48
5 -6 -3 1.12 1.16
-5 6 3 1.33 1.63
-5 6 3 1.12 1.07
-5 6 3 0.19 1.01
-5 6 3 -0.86 0.95
4 -6 -3 34.49 5.12
4 -6 -3 31.88 6.14
-4 6 3 28.76 4.25
-4 6 3 35.88 6.59
-4 6 3 27.94 4.31
3 -6 -3 4.8 1.92
3 -6 -3 3.12 2.1
-3 6 3 3.55 1.44
-3 6 3 1.81 1.46
-3 6 3 1.95 1.75
2 -6 -3 8.48 2.25
2 -6 -3 11.86 3.2
-2 6 3 7.1 1.86
-2 6 3 5.17 2.4
-2 6 3 11.06 2.6
1 -6 -3 -2.08 1.31
1 -6 -3 0.58 0.8
1 -6 -3 -1.73 0.73
-1 6 3 0.2 0.69
-1 6 3 -0.81 0.45
-1 6 3 0.36 0.8
0 -6 -3 9.76 2.55
0 -6 -3 10.96 2.76
0 -6 -3 13.23 3.03
0 -6 -3 16.3 3.81
0 6 3 9.27 2.56
0 6 3 8.54 2.6
-1 -6 -3 13.57 3.47
-1 -6 -3 9.51 2.47
-1 -6 -3 7.23 2.27
1 6 3 7.67 2.33
1 6 3 8.01 2.3
-2 -6 -3 72.21 8.03
-2 -6 -3 55.7 7.38
-2 -6 -3 72.08 7.65
2 6 3 64.28 7.52
2 6 3 71.29 7.66
2 6 3 55.2 7.17
-3 -6 -3 8.97 2.63
-3 -6 -3 10.1 2.66
-3 -6 -3 10.81 3.2
3 6 3 9.33 2.78
3 6 3 8.64 1.79
3 6 3 10.01 2.91
3 6 3 5.73 2.52
-4 -6 -3 3.37 2.02
-4 -6 -3 6.63 2.34
4 6 3 1.13 1.46
4 6 3 8.02 2.75
4 6 3 3.64 1.6
4 6 3 5.84 2.24
-5 -6 -3 44.43 6.05
-5 -6 -3 40.06 5.85
5 6 3 28.4 5.22
5 6 3 40.67 4.55
5 6 3 37.18 5.43
-6 -6 -3 14.93 3.73
-6 -6 -3 10.03 3.67
6 6 3 10.3 4.27
6 6 3 12.02 2.58
-7 -6 -3 1.45 1.39
-7 -6 -3 4.59 2.56
-7 -6 -3 -0.25 1.22
7 6 3 2.96 2.16
7 6 3 5.26 1.63
7 6 3 1.17 1.93
-8 -6 -3 1.86 1.66
-8 -6 -3 2.19 1.37
-8 -6 -3 2.13 1.33
8 6 3 -0.27 1.76
8 6 3 2.71 1.74
8 6 3 1 1.15
-9 -6 -3 4.19 2.68
-9 -6 -3 6.13 2.8
-9 -6 -3 4.45 3.52
-9 -6 -3 2.36 1.96
9 6 3 1.98 2.2
9 6 3 3.77 1.74
9 6 3 4.56 3.86
-10 -6 -3 3.05 1.82
-10 -6 -3 2.46 2.14
-10 -6 -3 7.6 3.26
10 6 3 5.44 2.54
10 6 3 3.05 1.76
-11 -6 -3 0.94 2.9
-11 -6 -3 1.7 1.65
-11 -6 -3 4.54 2.36
11 6 3 -0.89 1.63
8 -7 -3 5.36 3.15
8 -7 -3 0.04 1.34
-8 7 3 4 2.08
-8 7 3 0.13 1.68
-8 7 3 1.64 2.3
7 -7 -3 0.88 2.31
7 -7 -3 -1.41 1.63
-7 7 3 2.03 2
-7 7 3 -0.62 1.38
-7 7 3 2.47 1.72
6 -7 -3 -3.17 1.61
-6 7 3 3.19 1.73
-6 7 3 0.65 1.27
-6 7 3 -0.19 1.03
5 -7 -3 7.17 4.89
5 -7 -3 17.47 3.91
-5 7 3 10.53 3
-5 7 3 11.63 3.72
-5 7 3 6.51 2.3
4 -7 -3 -0.7 1.04
4 -7 -3 0.69 1.21
-4 7 3 0.76 1.34
-4 7 3 1.58 1.11
-4 7 3 1.95 1.15
3 -7 -3 -0.31 1.26
3 -7 -3 -0.44 1.07
-3 7 3 -1.27 0.99
-3 7 3 -0.01 1.02
-3 7 3 -0.45 0.59
2 -7 -3 4.39 2.02
2 -7 -3 2.58 1.84
2 -7 -3 3.05 1.78
2 -7 -3 9.67 3.28
-2 7 3 3 1.53
-2 7 3 4.48 2.44
-2 7 3 7.35 2.39
1 -7 -3 30.38 4.65
1 -7 -3 21.45 4.47
1 -7 -3 29.25 4.57
1 -7 -3 21.21 4.96
-1 7 3 22.56 3.47
-1 7 3 29.21 5.79
-1 7 3 33.99 4.66
0 -7 -3 2.47 1.59
0 -7 -3 2.04 1.78
0 -7 -3 1.05 1.25
0 -7 -3 3.74 1.71
0 7 3 0.99 1.16
0 7 3 2.03 1.5
-1 -7 -3 3.92 1.8
-1 -7 -3 1.37 1.36
-1 -7 -3 2.24 1.71
-1 -7 -3 3.31 1.67
1 7 3 2.81 1.56
1 7 3 2.39 1.65
-2 -7 -3 3.02 1.99
-2 -7 -3 5.73 2.42
-2 -7 -3 1.88 1.78
2 7 3 0.63 1.5
2 7 3 5.24 2.07
2 7 3 6.45 2.5
-3 -7 -3 2.28 1.91
-3 -7 -3 2.71 1.77
3 7 3 0.27 1.58
3 7 3 0.51 0.86
3 7 3 2.15 1.58
3 7 3 0.44 1.53
-4 -7 -3 19.41 5.17
-4 -7 -3 27.43 4.51
4 7 3 29.24 3.98
4 7 3 31.25 6.31
4 7 3 35.85 5.44
-5 -7 -3 1.34 2.04
-5 -7 -3 7.1 3.2
5 7 3 6.91 2.6
5 7 3 5.21 2.92
5 7 3 5.24 1.89
-6 -7 -3 0.45 1.67
-6 -7 -3 0.28 1.63
6 7 3 -2.29 1.02
6 7 3 0.86 1.86
6 7 3 -1.17 0.9
-7 -7 -3 1.27 1.75
7 7 3 -0.01 2.02
7 7 3 1.12 1.04
7 7 3 3.52 2.19
-8 -7 -3 -0.75 2.05
8 7 3 -1.05 0.86
8 7 3 -0.13 1.24
8 7 3 -3.66 2.59
-9 -7 -3 -4.01 2.04
-9 -7 -3 -0.98 1
9 7 3 0.06 1
9 7 3 -4.74 2.41
-10 -7 -3 0.28 1.39
-10 -7 -3 -4.92 2.44
10 7 3 -2.38 1.4
8 -8 -3 -3.08 2.18
7 -8 -3 -1.32 2.17
-7 8 3 -0.52 2
-7 8 3 0.63 1.81
6 -8 -3 2.83 2.46
6 -8 -3 -3.12 2.87
-6 8 3 1.67 1.71
-6 8 3 -1.22 1.83
-6 8 3 0.12 1.32
5 -8 -3 1.39 2.26
5 -8 -3 3.16 1.85
-5 8 3 2.7 1.77
-5 8 3 1.95 1.53
-5 8 3 2.2 2
-4 8 3 3.18 2.29
-4 8 3 2.38 1.42
-4 8 3 3.67 1.68
3 -8 -3 1.24 1.86
3 -8 -3 0.52 1.15
-3 8 3 4.18 1.98
-3 8 3 -2.38 1.23
-3 8 3 3.22 1.97
2 -8 -3 -0.65 1.34
2 -8 -3 1.9 1.53
-2 8 3 0.36 0.86
-2 8 3 -0.23 0.76
1 -8 -3 0.66 1.67
1 -8 -3 0.51 1.28
1 -8 -3 0.76 1.48
1 -8 -3 -2.26 1.69
-1 8 3 1.57 1.97
-1 8 3 0.08 1.44
-1 8 3 0.13 0.88
0 -8 -3 0.18 1.18
0 -8 -3 -1.19 2.37
0 -8 -3 -0.17 1.13
0 -8 -3 -2.68 1.55
0 8 3 -0.11 0.93
0 8 3 -0.24 0.92
-1 -8 -3 1.27 1.91
-1 -8 -3 3.17 2.07
-1 -8 -3 -0.89 1.11
1 8 3 1.76 1.23
-2 -8 -3 -1.28 1.76
-2 -8 -3 3.96 2.34
-2 -8 -3 2.82 1.61
-2 -8 -3 1.26 1.26
2 8 3 3.54 1.83
2 8 3 0.18 2.1
-3 -8 -3 -0.91 1.64
-3 -8 -3 -0.69 1.45
3 8 3 -0.07 0.77
3 8 3 -0.06 2.22
3 8 3 -1.17 0.9
3 8 3 1.21 1.92
-4 -8 -3 40.88 5.88
-4 -8 -3 28.99 6.5
4 8 3 23.69 5.11
4 8 3 24.54 5.97
4 8 3 26.76 4.13
-5 -8 -3 -1.19 1.24
-5 -8 -3 -2.35 1.45
5 8 3 0.52 1.38
5 8 3 2.04 1.33
5 8 3 -0.75 0.83
5 8 3 -0.04 1.87
-6 -8 -3 1.22 1.66
6 8 3 0.59 1.15
6 8 3 5.69 2.81
6 8 3 -1.52 2.26
-7 -8 -3 3.45 2.54
-7 -8 -3 3.53 2.7
7 8 3 3.47 1.5
7 8 3 2.18 2.16
-8 -8 -3 4.44 3.42
-8 -8 -3 -0.9 2.91
-8 -8 -3 2.96 1.67
8 8 3 5.15 2.73
8 8 3 2.11 3
8 8 3 2.86 1.8
-9 -8 -3 3.96 2.98
9 8 3 6.04 2.69
9 8 3 0.42 1.55
-10 -8 -3 1.74 2.06
-10 -8 -3 1.83 4.53
10 8 3 8.11 4.29
7 -9 -3 -0.73 2.25
6 -9 -3 2.47 2.81
-6 9 3 -1.08 1.66
5 -9 -3 -1.12 1.83
-5 9 3 0.83 2.07
-5 9 3 -0.1 1.59
-5 9 3 -0.53 1.63
4 -9 -3 -4.31 2
4 -9 -3 -3.62 1.44
4 -9 -3 -3.08 2.45
-4 9 3 -0.83 1.5
-4 9 3 -1.07 2.04
-4 9 3 1.25 1.35
3 -9 -3 -2.68 1.98
3 -9 -3 -0.46 1.28
-3 9 3 -0.53 1.13
-3 9 3 -0.97 1.17
-3 9 3 -0.28 2.86
2 -9 -3 4.47 2.52
2 -9 -3 4.99 2.74
2 -9 -3 3.7 2.43
-2 9 3 5.32 2.94
-2 9 3 2.16 1.83
-2 9 3 2.45 1.73
1 -9 -3 -0.66 0.98
1 -9 -3 0.73 1.47
1 -9 -3 -0.06 1.66
-1 9 3 -0.92 1.33
-1 9 3 1.61 1.34
-1 9 3 1.65 2.08
0 -9 -3 1.68 2.64
0 -9 -3 3.81 2.14
0 -9 -3 5.88 2.81
0 -9 -3 4.47 2.46
0 9 3 5.01 2.6
-1 -9 -3 1.86 2.44
-1 -9 -3 0.38 1.16
-1 -9 -3 3.56 2.24
-1 -9 -3 -0.49 0.85
1 9 3 2.06 1.83
-2 -9 -3 10.22 3.51
-2 -9 -3 9.76 2.99
-2 -9 -3 10.57 3.59
2 9 3 8.48 3.85
-3 -9 -3 24.63 4.86
-3 -9 -3 23.99 5.74
3 9 3 20.25 4.05
3 9 3 31.94 7.86
-4 -9 -3 -0.55 2.07
-4 -9 -3 -0.49 1.76
4 9 3 1.27 1.33
4 9 3 3 2.48
4 9 3 -1.59 0.78
-5 -9 -3 2.93 2.21
-5 -9 -3 1.51 2.94
5 9 3 1.53 1.09
5 9 3 -0.79 0.91
5 9 3 4.26 2.19
5 9 3 1.11 1.84
-6 -9 -3 0.39 2.52
-6 -9 -3 2.65 2.3
6 9 3 -1.79 1.07
6 9 3 -0.45 1.46
6 9 3 1.33 2.28
-7 -9 -3 2 2.5
7 9 3 4.93 3.08
7 9 3 2.05 1.93
7 9 3 2.24 1.54
-8 -9 -3 11.59 4.18
8 9 3 9.55 3.79
8 9 3 9 4.33
-9 -9 -3 3.83 2.78
5 -10 -3 3.11 3.42
5 -10 -3 -0.55 2.4
-5 10 3 -2.46 2.04
4 -10 -3 1.73 2.39
4 -10 -3 -2.24 2.05
-4 10 3 2.23 3.03
-4 10 3 3.06 2.34
3 -10 -3 -0.3 1.96
3 -10 -3 -2.04 3.24
-3 10 3 1.95 2.88
-3 10 3 0.08 1.58
2 -10 -3 4.75 2.48
2 -10 -3 -0.07 1.68
2 -10 -3 2.19 2
-2 10 3 0.26 1.27
-2 10 3 1.94 2.17
1 -10 -3 0.25 1.75
1 -10 -3 -1.82 1.54
1 -10 -3 -2.49 1.34
1 -10 -3 0.47 2.63
-1 10 3 1.43 1.52
-1 10 3 1.59 1.23
-1 10 3 0.78 1.36
0 -10 -3 -3.96 1.69
0 -10 -3 -0.16 1.09
0 -10 -3 0.12 1.94
0 -10 -3 0.67 2.4
0 10 3 0.62 2.1
0 10 3 0.52 1.81
-1 -10 -3 1.35 1.7
-1 -10 -3 -2.2 2.88
-1 -10 -3 0.76 2.08
-1 -10 -3 -0.32 2.32
1 10 3 -2.07 1.71
1 10 3 0.13 1.19
-2 -10 -3 6.74 2.67
-2 -10 -3 2.58 2.56
-2 -10 -3 2.96 2.26
2 10 3 0.5 1.96
-3 -10 -3 2.8 2.81
3 10 3 0.71 2.27
3 10 3 -2.33 2.13
3 10 3 2.04 1.51
-4 -10 -3 0.57 1.73
-4 -10 -3 7.16 3.62
4 10 3 5.43 2.55
4 10 3 0.17 1.56
4 10 3 1.79 2.28
4 10 3 2.56 1.93
-5 -10 -3 1.29 1.92
-5 -10 -3 -0.15 1.44
-5 -10 -3 2.52 2.83
5 10 3 0.76 2.46
5 10 3 1.1 1.32
5 10 3 1.91 2.05
5 10 3 5.21 2.86
-6 -10 -3 7.47 3.02
6 10 3 3.71 1.99
6 10 3 -0.49 1.35
6 10 3 0.74 2.32
-7 -10 -3 5.16 3.45
7 10 3 1.92 1.79
7 10 3 -1.25 3.78
-8 -10 -3 0.29 3.47
3 -11 -3 -5.77 2.72
3 -11 -3 3.35 2.84
-3 11 3 -1.91 1.92
2 -11 -3 1.14 2.74
2 -11 -3 2.39 3.7
2 -11 -3 -0.47 1.53
-2 11 3 2.41 2.16
-2 11 3 2.7 2.04
1 -11 -3 -2.65 3.45
1 -11 -3 -2.91 1.49
1 -11 -3 -0.73 2.37
-1 11 3 2.22 2.34
-1 11 3 0.65 1.98
0 -11 -3 1.09 1.85
0 -11 -3 2.5 2.2
0 11 3 2.45 1.5
-1 -11 -3 -4.76 2.15
-1 -11 -3 -4.33 2.58
1 11 3 0.29 1.58
-2 -11 -3 4.15 2.49
-2 -11 -3 2.51 2.51
2 11 3 6.44 3.57
2 11 3 1.4 1.71
-3 -11 -3 3.75 2.07
-3 -11 -3 -2.66 2.45
3 11 3 0.99 1.45
3 11 3 -1.88 1.53
-4 -11 -3 -3.21 2.6
4 11 3 8.66 2.6
4 11 3 -0.5 1.54
-5 -11 -3 2.02 2.23
-5 -11 -3 4.09 3.21
5 11 3 6.13 3.2
5 11 3 -1.7 1.65
-6 -11 -3 -5 3.09
-6 -11 -3 -2.98 2.2
6 11 3 -0.72 2.65
4 8 -4 -0.92 1.34
4 8 -4 9.47 3.92
-4 -8 4 0.1 1.1
3 8 -4 -7.4 3.88
3 8 -4 -4.68 2.63
-3 -8 4 -1.93 1.25
2 8 -4 -1.95 1.43
2 8 -4 2.44 2.22
-2 -8 4 -0.91 1.19
1 8 -4 -1.2 2
1 8 -4 -4.06 1.95
-1 -8 4 0.29 1.26
0 8 -4 2.05 3.11
0 8 -4 -1.01 2.04
0 -8 4 1.38 1.79
-1 8 -4 7.91 2.84
-1 8 -4 1 1.9
-2 8 -4 1.93 2.71
-2 8 -4 1.56 2.28
2 -8 4 3.67 1.94
-3 8 -4 1.33 2.29
-3 8 -4 3.36 2.64
-3 8 -4 -2.66 1.71
-4 8 -4 2.68 1.75
-4 8 -4 -2.3 2.45
-4 8 -4 -2.34 2.2
6 7 -4 4.69 2.11
6 7 -4 2.34 3.23
6 7 -4 1.29 2.36
5 7 -4 -1.52 2.4
5 7 -4 8.83 2.91
4 7 -4 2.16 2.53
4 7 -4 3.89 2.16
4 7 -4 -1.3 1.65
-4 -7 4 1.31 0.77
3 7 -4 -1.4 1.14
3 7 -4 0.21 0.98
3 7 -4 2.1 1.76
3 7 -4 -0.45 2.26
-3 -7 4 2.82 3.74
-3 -7 4 1.5 0.94
2 7 -4 1.65 2.14
2 7 -4 -0.4 1.57
2 7 -4 -1.11 1.59
-2 -7 4 2.79 1.13
-2 -7 4 2.23 2.66
1 7 -4 3.06 1.97
1 7 -4 -0.52 0.95
1 7 -4 -0.94 2.15
-1 -7 4 1.21 1.12
-1 -7 4 0.62 2.39
0 7 -4 0.51 1.74
0 7 -4 1.47 1.98
-1 7 -4 3.11 2.39
-1 7 -4 10.15 3.72
1 -7 4 6.06 2.17
1 -7 4 4.4 2.78
-2 7 -4 3.06 1.77
-2 7 -4 -1.36 1.48
-2 7 -4 0.39 1.28
2 -7 4 -1.03 1.75
-3 7 -4 0.01 1.16
-3 7 -4 0 1.38
-3 7 -4 1.5 1.63
3 -7 4 5.31 2.27
-4 7 -4 1.93 1.91
-4 7 -4 0.39 1.27
-4 7 -4 -3.07 1.91
4 -7 4 -0.53 1.79
-5 7 -4 -0.73 1.3
-5 7 -4 -0.26 1.95
-5 7 -4 2.13 1.79
-6 7 -4 0.77 1.77
-6 7 -4 3.06 2.45
7 6 -4 3.15 2.04
7 6 -4 -0.69 1.99
7 6 -4 0.88 2.22
6 6 -4 3.8 2.26
6 6 -4 3.91 3.3
6 6 -4 1.91 2.06
-6 -6 4 9.81 3.55
5 6 -4 -0.75 1.5
5 6 -4 -2.24 1.51
-5 -6 4 -1.51 2.84
4 6 -4 3.91 3.02
4 6 -4 1.34 2.04
4 6 -4 3.7 2.42
4 6 -4 3.05 1.4
-4 -6 4 7.29 2.89
-4 -6 4 4.27 0.91
3 6 -4 7.09 3.15
3 6 -4 6.04 2.74
3 6 -4 1.89 2.37
-3 -6 4 3.5 2.81
-3 -6 4 4.69 1.26
2 6 -4 0.09 0.72
2 6 -4 0.23 1.41
2 6 -4 0.67 1.7
-2 -6 4 -0.87 0.68
1 6 -4 0.81 1.83
1 6 -4 -0.36 1.15
1 6 -4 -0.19 0.89
-1 -6 4 0.33 0.75
0 6 -4 1.15 1.99
0 6 -4 2.67 2.35
0 -6 4 4.83 2.17
-1 6 -4 1.49 0.97
-1 6 -4 -0.52 0.6
-1 6 -4 1.99 1.9
1 -6 4 0.89 1.15
-2 6 -4 4.75 2.47
-2 6 -4 1.59 1.66
-2 6 -4 -0.63 0.91
2 -6 4 1.31 1.59
-3 6 -4 -2.15 1.57
-3 6 -4 0.7 1.58
-3 6 -4 -2.38 1.7
-4 6 -4 0.79 1.58
-4 6 -4 2.21 2.13
-4 6 -4 -1.5 1.14
-5 6 -4 2.78 1.71
-5 6 -4 -1.53 2.06
-5 6 -4 3.39 2.32
5 -6 4 0.3 1.62
-6 6 -4 -1.07 1.15
-6 6 -4 2.86 1.87
-6 6 -4 2.54 1.92
-7 6 -4 -0.63 1.69
-7 6 -4 -1.77 1.71
-7 6 -4 2.84 1.82
7 -6 4 1.05 1.79
8 5 -4 2 2.43
8 5 -4 -0.08 2.69
7 5 -4 -0.54 2
7 5 -4 -0.63 1.52
7 5 -4 -0.12 1.66
-7 -5 4 -0.77 1.87
6 5 -4 0.12 1.13
6 5 -4 0.82 1.57
6 5 -4 0.63 1.45
-6 -5 4 3.12 2.33
5 5 -4 -0.82 1.59
5 5 -4 2.39 2.2
5 5 -4 1.34 2.33
4 5 -4 -3.53 1.55
4 5 -4 -0.68 1.47
-4 -5 4 -1.42 1.78
3 5 -4 15.64 4.75
3 5 -4 13.13 3.73
-3 -5 4 11.57 1.72
-3 -5 4 12.69 4.52
2 5 -4 0.35 2.46
2 5 -4 1.93 1.2
2 5 -4 -0.01 1.06
2 5 -4 -0.71 0.61
-2 -5 4 -0.56 1.48
-2 -5 4 1.4 0.68
1 5 -4 2.15 1.69
1 5 -4 0.53 1.1
1 5 -4 1.54 1.97
-1 -5 4 2.35 1.01
-1 -5 4 3.57 2.7
0 5 -4 16.13 3.1
0 5 -4 13.35 3.85
0 5 -4 24.41 5.55
0 -5 4 26.2 6.22
0 -5 4 18.11 2.75
-1 5 -4 -0.45 0.63
-1 5 -4 -0.67 0.84
-1 5 -4 0.43 1.27
1 -5 4 0.09 1.03
-2 5 -4 0.07 1.02
-2 5 -4 -0.08 1.58
-2 5 -4 0.17 0.82
2 -5 4 -0.79 0.89
-3 5 -4 2.1 1.98
-3 5 -4 1.32 0.95
-3 5 -4 1.21 1.05
3 -5 4 2.57 1.24
-4 5 -4 1.47 1.2
-4 5 -4 -1.08 1.12
-4 5 -4 -0.13 1.9
4 -5 4 0.27 1.19
-5 5 -4 -0.35 2.28
-5 5 -4 8.05 2.57
-5 5 -4 3.58 2.19
5 -5 4 1.49 1.08
-6 5 -4 2.81 2.54
-6 5 -4 2.74 1.9
-6 5 -4 4.35 2.07
-6 5 -4 0.63 1.5
6 -5 4 9.59 3.16
6 -5 4 2.35 1.31
-7 5 -4 3.97 1.96
-7 5 -4 -0.08 2.19
-7 5 -4 6.05 2.38
7 -5 4 0.75 1.8
-8 5 -4 -3.49 2.49
-8 5 -4 0.3 1.81
-8 5 -4 1.09 1.39
8 -5 4 1.21 2.4
9 4 -4 22.23 7.41
8 4 -4 5.23 4.34
8 4 -4 4.88 2.23
-8 -4 4 0.97 2.47
7 4 -4 1.12 1.9
7 4 -4 1.54 1.99
7 4 -4 0.16 1.96
6 4 -4 1.22 2.04
6 4 -4 3.58 2.13
6 4 -4 2.68 1.71
-6 -4 4 3 2.65
5 4 -4 6.56 2.56
5 4 -4 5.19 1.85
-5 -4 4 8.11 3.08
4 4 -4 0.65 1.53
4 4 -4 1.19 1.26
4 4 -4 -0.88 1.28
-4 -4 4 1.88 1.79
3 4 -4 3.55 1.29
3 4 -4 4.42 2.25
3 4 -4 1.41 1.58
-3 -4 4 8.14 3.43
2 4 -4 0.57 0.79
2 4 -4 1.03 0.95
2 4 -4 4.53 2.22
-2 -4 4 2.25 1.53
-2 -4 4 0.54 0.48
1 4 -4 14.11 1.73
1 4 -4 12.03 3.32
1 4 -4 22.36 4.88
-1 -4 4 23.87 5.39
0 4 -4 0.05 0.89
0 4 -4 2.02 0.92
0 4 -4 1.1 1.29
0 -4 4 2.54 2.29
0 -4 4 0.22 0.78
-1 4 -4 1.47 1.75
-1 4 -4 2.87 1.27
-1 4 -4 2.38 1.66
1 -4 4 3.36 1.15
1 -4 4 1.02 2.02
-2 4 -4 0.68 1.07
-2 4 -4 -0.3 1.07
2 -4 4 0.54 0.82
-3 4 -4 0.54 0.79
-3 4 -4 0.15 0.93
-3 4 -4 1.26 1.15
3 -4 4 2.2 1.13
-4 4 -4 5.58 2.12
-4 4 -4 7.55 2.14
-4 4 -4 4.36 2.4
4 -4 4 7.49 1.01
4 -4 4 6.24 2.25
-5 4 -4 9.89 2.46
-5 4 -4 6.82 3.4
-5 4 -4 8.35 2.73
5 -4 4 8.94 2.58
-6 4 -4 2.31 1.79
-6 4 -4 -0.83 1.05
-6 4 -4 -0.83 0.86
-6 4 -4 -1.28 1.86
6 -4 4 -0.02 1.29
-7 4 -4 1.4 1.98
-7 4 -4 1.86 1.61
-7 4 -4 0.36 1.77
-7 4 -4 2.22 1.27
7 -4 4 1.1 1.83
7 -4 4 2.15 1.62
-8 4 -4 1.81 1.88
-8 4 -4 4.06 2.24
8 -4 4 3.33 3.88
-9 4 -4 0.57 1.48
-9 4 -4 0.65 2.55
9 -4 4 0.36 2.67
9 3 -4 3.59 1.9
8 3 -4 2.91 1.91
8 3 -4 2.6 3.55
-8 -3 4 -3.26 2.01
7 3 -4 4.91 2.3
7 3 -4 0.64 1.44
-7 -3 4 0.47 2.54
-7 -3 4 3.18 2.16
6 3 -4 -0.07 1
6 3 -4 2.87 1.39
6 3 -4 -0.82 1.54
-6 -3 4 0.84 1.51
5 3 -4 0.1 1.14
5 3 -4 2.9 1.71
5 3 -4 -0.01 1.75
-5 -3 4 0.91 1.12
4 3 -4 21.45 4.45
4 3 -4 15.94 3.51
4 3 -4 12.67 2.94
-4 -3 4 14.83 3.99
3 3 -4 13.53 3.51
3 3 -4 20.66 2.86
3 3 -4 19.66 4.48
-3 -3 4 16.01 4.25
2 3 -4 4.43 2
2 3 -4 0.88 1.37
2 3 -4 1.53 0.98
-2 -3 4 3.84 1.99
1 3 -4 4.55 2.13
1 3 -4 2.35 0.83
1 3 -4 1.41 1.41
-1 -3 4 1.52 1.73
-1 -3 4 2.13 0.79
0 3 -4 0.92 1.22
0 3 -4 -0.26 0.62
0 -3 4 0.5 0.88
0 -3 4 0.48 0.59
-1 3 -4 21.83 4.68
-1 3 -4 27.76 4.05
-1 3 -4 27.42 3.35
1 -3 4 27.48 3.36
1 -3 4 28.11 5.66
-2 3 -4 0.69 0.89
-2 3 -4 0.88 0.97
-2 3 -4 0.59 0.86
2 -3 4 0.94 0.89
-3 3 -4 -0.35 0.54
-3 3 -4 -0.15 0.64
-3 3 -4 -0.2 0.65
3 -3 4 -0.39 0.75
-4 3 -4 37.58 4.7
-4 3 -4 33.14 6.78
-4 3 -4 41.9 4.99
4 -3 4 37.34 4.93
-5 3 -4 -0.38 0.85
-5 3 -4 1.04 0.78
-5 3 -4 -0.33 0.81
5 -3 4 -1.96 0.89
5 -3 4 0.03 0.93
-6 3 -4 4.89 1.39
-6 3 -4 2.94 1.87
-6 3 -4 2.24 1.56
-6 3 -4 7.89 5.55
6 -3 4 3.73 1.61
6 -3 4 5.13 2.38
-7 3 -4 -2.59 1.24
-7 3 -4 0.75 0.68
7 -3 4 0.31 1.5
-8 3 -4 0.07 1.18
-8 3 -4 1.04 1.98
-8 3 -4 -2.15 1.1
8 -3 4 -1.71 1.93
-9 3 -4 -2.13 2.12
-9 3 -4 1.4 2.06
9 -3 4 -2.7 2.31
-10 3 -4 0.47 2.35
-10 3 -4 0.18 2.32
10 2 -4 0.1 2.12
10 2 -4 -1.69 2.62
-10 -2 4 5.16 4.37
9 2 -4 6.55 2.45
9 2 -4 11.57 4.98
-9 -2 4 9.65 3.22
8 2 -4 2.81 2.17
8 2 -4 7.75 3.18
-8 -2 4 1.92 2.01
-8 -2 4 3.23 2.16
7 2 -4 0.59 1.94
7 2 -4 2.15 1.51
-7 -2 4 2.16 2.04
6 2 -4 18.81 3.97
6 2 -4 17.17 4.1
6 2 -4 12.96 3.57
-6 -2 4 12.64 3.81
5 2 -4 14.74 3.42
5 2 -4 9.25 2.63
5 2 -4 18.14 3.89
-5 -2 4 5.34 2.57
-5 -2 4 7.94 2.94
4 2 -4 43.3 5.36
4 2 -4 43.84 5.68
4 2 -4 40.97 4.94
-4 -2 4 28.5 5.53
-4 -2 4 36.92 5.47
3 2 -4 0.29 0.9
3 2 -4 -1.45 0.74
3 2 -4 -1.45 0.76
2 2 -4 38.64 4.63
2 2 -4 36.99 5
2 2 -4 33.11 3.72
-2 -2 4 23.95 5.01
1 2 -4 0.1 0.43
1 2 -4 0.32 0.84
1 2 -4 1.02 1.06
1 2 -4 -0.52 0.24
-1 -2 4 0.6 0.32
-1 -2 4 0.18 0.95
0 2 -4 16.2 3.67
0 2 -4 19.41 2.3
0 2 -4 19.68 1.89
0 -2 4 19.91 4.35
0 -2 4 18.03 2.25
-1 2 -4 0.25 0.79
1 -2 4 -0.56 0.56
1 -2 4 -0.96 0.47
-2 2 -4 1.24 0.81
-2 2 -4 2.37 1.51
-2 2 -4 0.92 0.77
2 -2 4 2.1 0.96
-3 2 -4 -0.95 0.59
-3 2 -4 0.32 0.62
-3 2 -4 0.21 0.65
3 -2 4 -0.72 0.52
3 -2 4 0.01 0.53
-4 2 -4 0.5 0.83
-4 2 -4 0.27 0.57
-4 2 -4 0.46 1.13
4 -2 4 0.35 1.04
4 -2 4 -0.04 0.72
-5 2 -4 -0.11 0.62
-5 2 -4 -0.06 0.43
-5 2 -4 0.92 0.89
5 -2 4 -1.3 0.71
5 -2 4 -0.62 0.92
-6 2 -4 5.08 2.46
-6 2 -4 6.42 2.37
-6 2 -4 1.82 1.48
-6 2 -4 5.1 1.12
6 -2 4 3.28 1.62
6 -2 4 4.66 2.14
-7 2 -4 0.87 1.39
-7 2 -4 -1.86 1.44
-7 2 -4 0.85 0.83
7 -2 4 -0.13 1.51
-8 2 -4 0.99 1.33
-8 2 -4 3.83 1.38
8 -2 4 1.94 1.74
-9 2 -4 1.38 1.85
-9 2 -4 1.25 1.25
9 -2 4 -2.92 1.91
9 -2 4 -2.68 1.53
-10 2 -4 -0.54 1.19
-11 2 -4 4.51 2.09
10 1 -4 -0.19 1.19
10 1 -4 2.72 3.44
9 1 -4 0.63 1.69
9 1 -4 -0.5 2.38
9 1 -4 -1.86 1.16
-9 -1 4 0.04 1.83
8 1 -4 3.64 2.25
8 1 -4 1.73 1.73
-8 -1 4 2.1 1.93
7 1 -4 -0.11 1.24
7 1 -4 1.2 1.88
-7 -1 4 2.62 1.8
6 1 -4 4.86 2.3
6 1 -4 2.78 1.61
-6 -1 4 7.97 2.68
-6 -1 4 7.53 2.66
5 1 -4 23.64 3.75
5 1 -4 26.15 4.42
5 1 -4 30.25 4.27
-5 -1 4 22.07 4.66
-5 -1 4 24.98 4.78
4 1 -4 9.93 2.48
4 1 -4 12.06 2.55
4 1 -4 8.42 2.19
-4 -1 4 10.38 2.76
-4 -1 4 8.12 2.48
3 1 -4 11.24 2.32
3 1 -4 9.39 2.4
3 1 -4 6.31 1.97
-3 -1 4 7.67 2.38
-3 -1 4 7.89 2.24
2 1 -4 13.21 2.62
2 1 -4 13.56 2.85
-2 -1 4 13.63 3.1
1 1 -4 19.42 1.83
1 1 -4 20.13 2.94
1 1 -4 11.23 2.97
-1 -1 4 18.76 3.6
0 1 -4 19.6 2.21
0 1 -4 21.95 3.38
0 -1 4 19.18 2.24
0 -1 4 24.77 3.77
-1 1 -4 221.96 18.78
-1 1 -4 221.7 20.71
-1 1 -4 263.24 19.23
1 -1 4 234.24 19.25
-2 1 -4 71.31 5.99
-2 1 -4 60.23 7.66
-2 1 -4 70.48 6.55
2 -1 4 73.2 6.73
-3 1 -4 37.6 4.3
-3 1 -4 43.82 3.93
-3 1 -4 49.84 6.02
-3 1 -4 35.99 4.03
3 -1 4 34.22 3.94
3 -1 4 44.17 4.66
-4 1 -4 1.18 0.88
-4 1 -4 0.44 0.39
-4 1 -4 0.83 0.8
4 -1 4 1.31 1.06
4 -1 4 0.71 0.8
-5 1 -4 16.82 3.22
-5 1 -4 22.37 3.19
5 -1 4 18.85 2.91
5 -1 4 12.35 3.68
-6 1 -4 2.69 1.45
-6 1 -4 1.77 1.54
6 -1 4 1.9 1.32
6 -1 4 5.43 1.92
-7 1 -4 0.3 1.18
-7 1 -4 1.81 1.08
7 -1 4 1.27 1.59
7 -1 4 4.4 1.83
-8 1 -4 4.77 1.81
-8 1 -4 2.66 1.76
8 -1 4 1.1 2.06
-9 1 -4 -0.75 1.3
-9 1 -4 0.97 1.46
9 -1 4 -2.73 1.97
9 -1 4 1.57 2.01
-10 1 -4 -0.7 1.58
-10 1 -4 0.84 1.32
-11 1 -4 -0.43 1.38
11 -1 4 -1.33 3.84
10 0 -4 0.56 1.39
10 0 -4 0.02 1.08
-10 0 4 1.13 0.98
-10 0 4 0.96 1.93
9 0 -4 1.39 1.43
9 0 -4 2.97 2.85
9 0 -4 3.53 1.7
-9 0 4 4.44 2.43
-9 0 4 1.69 1.13
-9 0 4 -3.1 2.16
8 0 -4 4.64 2.26
8 0 -4 8.53 3.05
8 0 -4 6.87 2.9
-8 0 4 5.18 1.39
7 0 -4 -0.07 1.25
7 0 -4 2.12 1.9
7 0 -4 0.19 0.61
7 0 -4 1.23 1.48
-7 0 4 0.73 0.52
-7 0 4 -0.37 0.93
6 0 -4 100.66 9.65
6 0 -4 85.01 9.08
6 0 -4 81.72 9.26
6 0 -4 82.93 7.2
-6 0 4 84.31 8.88
-6 0 4 62.3 8.93
5 0 -4 4.56 2.66
5 0 -4 6.65 2.12
-5 0 4 4.96 2.17
-5 0 4 11.74 2.56
4 0 -4 88.71 8.13
4 0 -4 74.71 6.37
4 0 -4 80.68 8.14
4 0 -4 79.2 8.08
-4 0 4 82.95 8.1
-4 0 4 72.35 8.3
3 0 -4 11.04 2.3
3 0 -4 10.74 2.19
-3 0 4 6.64 2.17
-3 0 4 12.3 2.45
2 0 -4 0.12 0.15
2 0 -4 -0.31 0.58
2 0 -4 0.99 0.64
2 0 -4 0.51 0.16
-2 0 4 0.03 0.72
-2 0 4 0.34 0.62
1 0 -4 12.86 2.43
1 0 -4 8.06 1.96
1 0 -4 11.07 1.21
-1 0 4 11.51 2.35
0 0 -4 16.71 2.36
0 0 -4 16.58 1.77
0 0 -4 12.48 2.58
0 0 4 11.41 2.61
-1 0 -4 27.12 3.14
-1 0 -4 30.94 3.07
-1 0 -4 31.19 4.12
-2 0 -4 50.88 6.41
-2 0 -4 64.11 5.41
-2 0 -4 61.93 5.65
2 0 4 53.86 5.4
2 0 4 47.73 5.33
-3 0 -4 3.31 1.15
-3 0 -4 4.34 1.17
-3 0 -4 3.11 0.65
3 0 4 3.82 1.2
-4 0 -4 158.98 13.78
-4 0 -4 185.2 13.9
4 0 4 151.07 13.95
4 0 4 141.1 13.65
-5 0 -4 0.82 0.88
-5 0 -4 0.44 0.66
-5 0 -4 1.27 1
5 0 4 1.09 0.94
5 0 4 0.34 1
-6 0 -4 2.2 1.34
-6 0 -4 0.76 0.88
-6 0 -4 2.06 1.32
6 0 4 0.84 1.04
6 0 4 2.28 1.48
-7 0 -4 -1.69 1.04
-7 0 -4 0.08 1.18
-7 0 -4 0.33 0.84
7 0 4 -0.56 1.44
7 0 4 -1.16 0.84
-8 0 -4 -0.5 1.9
-8 0 -4 1.61 1.57
-8 0 -4 1.45 1.56
8 0 4 1.6 1.56
8 0 4 0.27 1.83
-9 0 -4 -0.31 1.16
-9 0 -4 0.94 1.35
9 0 4 -1.61 1.89
9 0 4 -1.02 1.31
-10 0 -4 2.24 2.62
-10 0 -4 1.63 1.08
10 0 4 0.29 1.63
11 0 4 2.22 3.29
10 -1 -4 3.07 2.32
10 -1 -4 -0.53 0.98
10 -1 -4 -1.91 1.75
-10 1 4 1.1 1.03
-10 1 4 3.11 1.8
9 -1 -4 -1.91 1.29
9 -1 -4 3.06 1.36
9 -1 -4 4.73 2.55
9 -1 -4 3.61 2.51
-9 1 4 2.33 1.88
-9 1 4 -0.52 1.28
-9 1 4 1.12 0.79
8 -1 -4 3.66 1.27
8 -1 -4 1.25 1.59
8 -1 -4 8.11 2.79
8 -1 -4 3.42 1.82
-8 1 4 4.49 1.49
-8 1 4 3.06 1.64
7 -1 -4 1.37 2.11
7 -1 -4 2.38 0.88
7 -1 -4 0.08 0.65
7 -1 -4 0.79 1.25
-7 1 4 0.1 0.93
-7 1 4 0.53 0.7
6 -1 -4 7.46 3.02
6 -1 -4 7.18 2.5
6 -1 -4 7.38 1.67
6 -1 -4 9.27 2.6
-6 1 4 8.04 2.18
-6 1 4 15.58 3.62
5 -1 -4 5.04 1.19
5 -1 -4 5.08 1.77
5 -1 -4 6.16 2.15
-5 1 4 3.64 2.89
-5 1 4 6.01 1.79
4 -1 -4 14.28 1.74
4 -1 -4 13.85 3.18
4 -1 -4 13.77 2.78
-4 1 4 13 2.12
-4 1 4 13.32 2.95
3 -1 -4 24.26 3.94
3 -1 -4 34.64 3.83
3 -1 -4 28.3 3.17
3 -1 -4 31.6 3.24
-3 1 4 27.46 3.9
-3 1 4 29 3.38
2 -1 -4 11.83 1.57
2 -1 -4 14.71 3.07
2 -1 -4 15.14 2.19
2 -1 -4 11.16 1.64
-2 1 4 9.93 2.15
1 -1 -4 33.62 3.5
1 -1 -4 34.18 4.56
1 -1 -4 33.25 3.56
-1 1 4 29.09 3.61
0 -1 -4 88.99 7.29
0 -1 -4 77.86 7.52
0 -1 -4 75.17 7.46
-1 -1 -4 4.89 1.12
-1 -1 -4 7.49 1.74
-1 -1 -4 4.18 1.01
-2 -1 -4 1.97 0.79
-2 -1 -4 3.53 1.26
-2 -1 -4 1.96 0.55
2 1 4 2.95 1.01
-3 -1 -4 35.73 3.28
-3 -1 -4 43.62 4.46
-3 -1 -4 48.43 4.35
3 1 4 34.08 4.25
-4 -1 -4 30.57 3.5
-4 -1 -4 33.96 3.74
-4 -1 -4 36.82 4.25
4 1 4 27.65 3.87
4 1 4 29.44 3.78
-5 -1 -4 0.37 0.69
-5 -1 -4 0.37 0.95
-5 -1 -4 0.44 0.61
5 1 4 0.57 0.84
5 1 4 1.6 1.15
-6 -1 -4 1.9 0.91
-6 -1 -4 -0.93 0.81
-6 -1 -4 5.25 1.69
6 1 4 0.74 1.71
6 1 4 0.55 1.41
-7 -1 -4 8.3 2.12
-7 -1 -4 7.75 2.06
-7 -1 -4 8.81 2.78
7 1 4 5.22 2.02
7 1 4 2.12 2.67
-8 -1 -4 -0.14 0.71
-8 -1 -4 -0.78 1.19
-8 -1 -4 0.37 1.49
8 1 4 -1.39 1.56
8 1 4 -0.04 0.28
8 1 4 1.04 0.96
8 1 4 -0.24 0.26
-9 -1 -4 -0.14 1.27
-9 -1 -4 3.85 4.03
-9 -1 -4 3.46 1.76
9 1 4 1.87 0.66
9 1 4 -2.64 2.21
9 1 4 -1.26 1.18
-10 -1 -4 2.63 1.43
-10 -1 -4 1.08 1.84
10 1 4 0.84 0.98
10 1 4 0.2 0.6
10 1 4 4.31 3.81
-11 -1 -4 -0.47 1.25
-11 -1 -4 -1.66 1.95
11 1 4 -0.23 0.73
11 1 4 0.84 0.65
11 1 4 2.57 3.62
12 1 4 -0.5 0.86
12 1 4 0.21 0.63
10 -2 -4 0.87 1.2
10 -2 -4 1.05 1.2
10 -2 -4 -0.11 1.28
-10 2 4 -1.48 1.02
-10 2 4 1.11 1.8
9 -2 -4 3.03 1.47
9 -2 -4 0.14 1.54
9 -2 -4 2.66 2.45
9 -2 -4 2.86 1.4
-9 2 4 0.6 0.83
-9 2 4 2.19 1.69
-9 2 4 -0.12 2.41
8 -2 -4 0.04 0.82
8 -2 -4 0.19 1.39
8 -2 -4 0.13 0.76
-8 2 4 -0.29 0.59
-8 2 4 -1.41 0.96
7 -2 -4 62.44 7.72
7 -2 -4 64.1 6.05
-7 2 4 45.76 5.71
-7 2 4 60.02 6.38
-7 2 4 47.9 6.91
6 -2 -4 29.93 5.66
6 -2 -4 25.04 3.25
6 -2 -4 23.42 4.58
-6 2 4 22.68 3.22
-6 2 4 24.65 3.45
-6 2 4 31.29 5.38
5 -2 -4 0.79 0.62
5 -2 -4 0.65 0.93
-5 2 4 -0.44 0.35
4 -2 -4 56.48 5.94
4 -2 -4 49.49 6.26
4 -2 -4 53.16 5.07
-4 2 4 46.21 5.75
3 -2 -4 4.49 1.42
3 -2 -4 2.27 1.59
3 -2 -4 2.51 0.92
-3 2 4 1.93 0.58
-3 2 4 2.17 1.09
2 -2 -4 98.12 9.39
2 -2 -4 109.85 10.71
2 -2 -4 117.87 10.56
-2 2 4 117.61 9.98
1 -2 -4 2.5 0.79
1 -2 -4 1.65 0.44
1 -2 -4 1.94 1.31
-1 2 4 1.09 0.71
-1 2 4 1.98 0.92
0 -2 -4 172.58 13.58
0 -2 -4 167.7 12.73
0 2 4 133.92 12.79
0 2 4 147.63 13.35
-1 -2 -4 278.27 22.56
-1 -2 -4 284 22.98
-1 -2 -4 261.23 21.82
1 2 4 284.92 22.6
-2 -2 -4 1.8 0.79
-2 -2 -4 3.92 1.4
2 2 4 3.95 1.07
2 2 4 2.34 1.31
-3 -2 -4 109.42 9.92
-3 -2 -4 123.97 9.72
-3 -2 -4 125.89 10.24
3 2 4 107.32 10.5
3 2 4 108.62 9.52
-4 -2 -4 20.34 2.97
-4 -2 -4 19.74 2.73
-4 -2 -4 19.81 2.27
4 2 4 18.04 3.04
4 2 4 17.32 1.93
-5 -2 -4 10.2 2.12
-5 -2 -4 13.2 2.91
-5 -2 -4 11.67 1.73
5 2 4 6.22 1.95
5 2 4 9.04 1.2
-6 -2 -4 19.09 3.25
-6 -2 -4 19.62 2.72
-6 -2 -4 13.79 2.69
6 2 4 14.61 1.75
6 2 4 8.63 2.58
-7 -2 -4 5.94 2.2
-7 -2 -4 2.89 1.39
-7 -2 -4 5.62 1.77
7 2 4 1.3 2.18
7 2 4 5.59 1.12
-8 -2 -4 2.99 2.06
-8 -2 -4 12.85 3.73
-8 -2 -4 3.27 1.8
8 2 4 5.35 1.25
8 2 4 4.28 1.14
8 2 4 5.71 2.61
-9 -2 -4 0.46 1.24
-9 -2 -4 -0.76 1.46
-9 -2 -4 4.18 2.57
9 2 4 2.07 0.96
9 2 4 0.89 2.55
9 2 4 3.82 1.18
-10 -2 -4 2.79 1.56
-10 -2 -4 3.53 1.49
-10 -2 -4 1.82 1.9
10 2 4 16.23 7.46
10 2 4 1.11 0.85
10 2 4 -0.02 0.89
-11 -2 -4 0.29 1.69
-11 -2 -4 -1.37 0.98
11 2 4 0.12 0.86
-12 -2 -4 -0.63 1.64
12 2 4 0.2 1.37
12 2 4 2.23 1.95
10 -3 -4 1.47 1.51
10 -3 -4 2.92 1.9
-10 3 4 1.11 1.88
-10 3 4 2.38 1.44
9 -3 -4 2.15 1.47
9 -3 -4 1.2 1.87
9 -3 -4 -2.49 1.59
-9 3 4 0.12 0.94
-9 3 4 -0.21 1.16
8 -3 -4 7.81 2.71
8 -3 -4 4.52 2.52
8 -3 -4 9.83 2.47
-8 3 4 2.96 1.51
-8 3 4 7.57 3.87
-8 3 4 6.39 1.96
7 -3 -4 1.81 1.59
7 -3 -4 0.78 1.24
7 -3 -4 1.4 2.01
-7 3 4 0.21 0.99
-7 3 4 1.86 1.45
-7 3 4 -0.4 0.88
6 -3 -4 -0.87 0.95
6 -3 -4 -0.87 0.73
-6 3 4 0.76 0.85
-6 3 4 1.07 1.27
-6 3 4 0.04 0.5
5 -3 -4 4.65 2.15
5 -3 -4 1.48 1.2
5 -3 -4 3.78 1.75
-5 3 4 3.21 1.35
-5 3 4 1.62 1.79
-5 3 4 2.96 0.91
4 -3 -4 1.17 1.14
4 -3 -4 0.65 0.62
4 -3 -4 0.53 0.53
-4 3 4 0.4 0.34
-4 3 4 0.54 0.86
3 -3 -4 2.73 1.38
3 -3 -4 0.62 0.76
3 -3 -4 1.02 0.74
-3 3 4 2.72 1.19
-3 3 4 4.08 1.84
2 -3 -4 8.07 1.79
2 -3 -4 11.4 2.69
2 -3 -4 14.67 2.96
-2 3 4 13.91 2.03
-2 3 4 14.03 3.1
1 -3 -4 -0.9 0.36
1 -3 -4 -0.43 0.31
-1 3 4 -0.64 0.3
-1 3 4 0.18 0.5
0 -3 -4 12.77 1.51
0 -3 -4 10.72 2.26
0 -3 -4 11.76 1.48
0 3 4 14.21 1.73
0 3 4 11.42 2.23
-1 -3 -4 15.33 1.38
-1 -3 -4 13.62 2.5
1 3 4 13.29 2.65
-2 -3 -4 37.95 4.11
-2 -3 -4 37.55 4.79
2 3 4 33.17 3.92
2 3 4 31.17 4.32
-3 -3 -4 7.58 2.19
-3 -3 -4 5.67 1.33
-3 -3 -4 5.45 0.76
3 3 4 6.37 1.84
3 3 4 4.77 1.36
-4 -3 -4 0.62 1.23
-4 -3 -4 -0.52 0.35
-4 -3 -4 0.61 0.36
4 3 4 0.48 0.45
4 3 4 0.41 0.67
-5 -3 -4 4.65 1.43
-5 -3 -4 7.08 2.4
-5 -3 -4 3.93 0.98
5 3 4 3 1.6
5 3 4 6.44 1.32
5 3 4 6.43 1.44
-6 -3 -4 0.61 1.71
-6 -3 -4 -0.1 0.65
-6 -3 -4 1.58 0.84
6 3 4 -0.32 1.54
6 3 4 -0.2 0.43
6 3 4 0.31 0.52
-7 -3 -4 6.38 1.9
-7 -3 -4 9.25 2.34
-7 -3 -4 16.84 3.9
7 3 4 10.55 2.1
7 3 4 5.06 2.4
7 3 4 7.54 1.99
-8 -3 -4 3.92 1.6
-8 -3 -4 1.7 1.28
-8 -3 -4 8.19 3.12
8 3 4 3.33 1.54
8 3 4 3.59 1.36
8 3 4 -1.15 2.08
-9 -3 -4 4.22 2.49
-9 -3 -4 5.51 3.36
-9 -3 -4 3.35 1.58
9 3 4 5.66 1.63
9 3 4 6.17 1.97
-10 -3 -4 10.46 2.86
-10 -3 -4 9.63 3.02
-10 -3 -4 8.13 3.74
-10 -3 -4 5.76 2.61
10 3 4 7.63 2.2
10 3 4 7.03 2.05
10 3 4 5.29 4.12
10 3 4 3.42 2.16
-11 -3 -4 3.2 2.66
-11 -3 -4 -1.27 1.36
11 3 4 -0.88 1.01
11 3 4 1.4 1.17
-12 -3 -4 3.89 1.95
12 3 4 -0.15 1.58
12 3 4 -0.96 1.27
10 -4 -4 1.73 1.71
10 -4 -4 1.27 2.49
10 -4 -4 2.83 2.19
-10 4 4 -0.46 1.26
-10 4 4 3.58 2.18
-10 4 4 -1.03 1.39
9 -4 -4 1.54 2.96
9 -4 -4 -0.99 1.6
9 -4 -4 1.14 1.72
-9 4 4 2.09 1.54
-9 4 4 0.91 1.58
-9 4 4 3.3 1.83
8 -4 -4 4.95 3.38
8 -4 -4 3.93 2.73
8 -4 -4 10.71 2.71
8 -4 -4 10.12 3.24
-8 4 4 6.33 2.12
-8 4 4 5.31 1.93
-8 4 4 5.12 2.01
-8 4 4 7.23 2.6
7 -4 -4 1.86 1.23
7 -4 -4 1.2 1.1
7 -4 -4 1.77 3.16
-7 4 4 0.2 0.75
-7 4 4 -0.21 0.61
-7 4 4 -1.41 0.86
6 -4 -4 9.05 3.17
6 -4 -4 10.18 2.87
6 -4 -4 11.1 2.65
-6 4 4 5.61 2.29
-6 4 4 8.18 2.07
-6 4 4 4.23 1.8
5 -4 -4 14.07 3.61
5 -4 -4 11.26 2.65
5 -4 -4 13.03 2.85
-5 4 4 14.64 3.51
-5 4 4 14.31 3.17
-5 4 4 10.07 2.01
4 -4 -4 0.28 0.75
4 -4 -4 0.67 0.98
4 -4 -4 -0.72 0.77
-4 4 4 -0.65 0.73
-4 4 4 0.79 0.84
-4 4 4 0.16 0.41
3 -4 -4 72.56 8.14
3 -4 -4 71.02 7.21
3 -4 -4 70.89 7.07
-3 4 4 65.12 5.91
-3 4 4 79.38 8.25
-3 4 4 68.89 7.04
2 -4 -4 17.45 2.52
2 -4 -4 15.82 3.9
2 -4 -4 13.28 2.79
-2 4 4 18.92 2.55
-2 4 4 17.63 1.68
-2 4 4 15.7 3.19
1 -4 -4 15.7 2.06
1 -4 -4 12.03 2.9
1 -4 -4 14.45 1.76
-1 4 4 16.83 2.12
-1 4 4 16.42 3.45
0 -4 -4 119.26 11.22
0 -4 -4 115.21 10.91
0 4 4 109.44 9.86
0 4 4 117.78 11.09
-1 -4 -4 13.92 3.06
-1 -4 -4 12.27 2.33
-1 -4 -4 19.26 3.06
1 4 4 15.78 1.48
1 4 4 10.16 2.48
-2 -4 -4 42.91 4.57
-2 -4 -4 44.42 5.13
-2 -4 -4 34.7 4.7
2 4 4 34.87 4.45
2 4 4 34.53 4.88
-3 -4 -4 2.17 1.48
-3 -4 -4 2.4 1.14
-3 -4 -4 2.49 1.21
3 4 4 2.95 1.21
3 4 4 2.66 1.53
-4 -4 -4 2.91 1.72
-4 -4 -4 5.56 1.84
-4 -4 -4 2.2 0.83
4 4 4 2.76 1.43
4 4 4 3.93 0.79
4 4 4 3.23 1.27
-5 -4 -4 22.62 3.87
-5 -4 -4 24.32 3.33
-5 -4 -4 18.15 3.92
5 4 4 25.2 4.17
5 4 4 24.87 2.71
5 4 4 21.59 3.13
-6 -4 -4 1.37 1.06
-6 -4 -4 7.6 2.69
-6 -4 -4 8.42 2.81
-6 -4 -4 3.1 1.16
6 4 4 3.96 1.36
6 4 4 3.06 2.33
6 4 4 3.36 1.41
-7 -4 -4 51.57 5.98
-7 -4 -4 49.5 7.02
-7 -4 -4 64.6 7.27
-7 -4 -4 43.24 5.4
7 4 4 49.03 5.63
7 4 4 57.73 5.66
7 4 4 39.44 6.52
-8 -4 -4 16.15 3.35
-8 -4 -4 14.91 3.21
-8 -4 -4 21.45 5.78
8 4 4 17.44 3.49
8 4 4 17.59 3.43
-9 -4 -4 1.34 1.58
-9 -4 -4 3.3 2.42
9 4 4 2.96 1.52
9 4 4 2.16 1.16
-10 -4 -4 -1.62 0.98
-10 -4 -4 -1.17 1.73
-10 -4 -4 0.71 1.74
-10 -4 -4 3.8 2.79
10 4 4 0.41 1.42
10 4 4 1.08 1.54
10 4 4 1.41 2.83
-11 -4 -4 -2 2.67
-11 -4 -4 -0.55 1.93
-11 -4 -4 0.25 1.63
11 4 4 0.16 1.36
11 4 4 1.28 1.67
11 4 4 -2.75 1.15
-12 -4 -4 -1.24 1.85
12 4 4 0.04 1.37
9 -5 -4 0.02 1.25
9 -5 -4 1.8 1.56
-9 5 4 0.25 1.14
-9 5 4 0.17 1.27
-9 5 4 -0.1 1.59
8 -5 -4 6.22 3.28
8 -5 -4 1.5 1.66
8 -5 -4 15.76 3.56
8 -5 -4 2.31 2.97
-8 5 4 3.79 1.9
-8 5 4 -0.13 2.18
-8 5 4 -0.11 1.24
7 -5 -4 -1.02 1.23
7 -5 -4 1.09 1.24
7 -5 -4 -1.49 1.28
-7 5 4 0.46 0.81
-7 5 4 1.62 1.29
6 -5 -4 1.2 1.61
6 -5 -4 2.1 1.86
-6 5 4 1.74 1.77
-6 5 4 0.33 1.01
-6 5 4 -1.27 1.58
5 -5 -4 8.85 2.55
5 -5 -4 11.84 3.62
5 -5 -4 8.94 2.49
-5 5 4 8.4 2.56
-5 5 4 12.01 3.9
-5 5 4 7.75 1.93
4 -5 -4 6.17 3.77
4 -5 -4 7.19 2.92
4 -5 -4 6.46 1.94
-4 5 4 9.78 2.83
-4 5 4 10.62 2.01
-4 5 4 14.13 3.05
3 -5 -4 0.48 0.91
3 -5 -4 -0.45 0.85
-3 5 4 0.54 1.08
-3 5 4 1.07 0.74
-3 5 4 -0.06 0.82
2 -5 -4 6.62 2.09
2 -5 -4 10.9 3.44
-2 5 4 10.79 2.06
-2 5 4 7.55 1.55
-2 5 4 12.68 3.63
1 -5 -4 -0.56 0.46
1 -5 -4 -0.04 0.55
1 -5 -4 0.85 0.71
-1 5 4 0.12 0.53
-1 5 4 2.25 1.41
-1 5 4 0.64 0.53
0 -5 -4 18.32 3.14
0 -5 -4 12.95 2.56
0 -5 -4 15.89 3.54
0 5 4 18.78 3.69
0 5 4 18.16 2.41
0 5 4 17.85 2.14
-1 -5 -4 85.34 9.24
-1 -5 -4 75.54 8.19
-1 -5 -4 95.59 9.21
1 5 4 83.93 7.63
1 5 4 85.66 8.96
1 5 4 92.19 8.32
-2 -5 -4 1.59 1.07
-2 -5 -4 3.53 1.66
2 5 4 1.56 0.44
2 5 4 -0.35 1.45
2 5 4 0.05 0.7
-3 -5 -4 -0.25 1.36
-3 -5 -4 0.11 0.72
-3 -5 -4 0.45 0.39
3 5 4 -0.58 0.47
3 5 4 -0.3 0.22
3 5 4 -0.58 1.24
-4 -5 -4 -0.62 0.77
-4 -5 -4 2.14 1.82
4 5 4 -0.02 0.96
4 5 4 -0.04 0.6
4 5 4 0.06 0.32
-5 -5 -4 9.27 2.96
-5 -5 -4 16.44 3.86
5 5 4 10.49 1.64
5 5 4 8.55 2.33
-6 -5 -4 8.48 1.81
-6 -5 -4 14.35 3.64
-6 -5 -4 21.3 4.47
-6 -5 -4 12.26 2.78
6 5 4 5.48 2.64
6 5 4 9.79 2.57
-7 -5 -4 0.38 1.68
-7 -5 -4 1.76 1.09
-7 -5 -4 1.71 1.7
-7 -5 -4 0.08 1.03
7 5 4 1.79 1.22
7 5 4 -1.42 1.22
7 5 4 0.93 0.94
-8 -5 -4 3.43 2.52
-8 -5 -4 1.6 1.63
-8 -5 -4 0.3 1.36
8 5 4 -0.4 1.36
8 5 4 2.96 1.25
-9 -5 -4 4.41 2.38
-9 -5 -4 0.49 1.1
-9 -5 -4 -2.6 1.53
9 5 4 0.26 1
9 5 4 -2.18 0.85
-10 -5 -4 -0.12 1.34
-10 -5 -4 1.24 2.06
-10 -5 -4 -0.94 1.02
-10 -5 -4 0.17 1.61
10 5 4 5.39 3.91
10 5 4 1.68 1.54
10 5 4 1.38 1.22
-11 -5 -4 -0.41 1.36
-11 -5 -4 -4.18 2.88
11 5 4 -1.28 1.4
11 5 4 2.27 1.81
9 -6 -4 2.06 3.39
-9 6 4 0.74 1.7
8 -6 -4 6.49 2.35
8 -6 -4 -0.06 1.64
8 -6 -4 2.62 2.99
-8 6 4 -0.07 1.32
7 -6 -4 1.43 1.39
7 -6 -4 -0.59 0.95
-7 6 4 -0.76 1.63
-7 6 4 0.1 1.41
6 -6 -4 -1.23 1.4
6 -6 -4 -0.11 1.22
-6 6 4 3.33 1.63
-6 6 4 0.6 0.88
-6 6 4 -0.74 0.97
5 -6 -4 1.11 1.42
5 -6 -4 0.53 1.1
-5 6 4 -0.29 1.35
-5 6 4 0.17 1.04
4 -6 -4 27.97 4.98
4 -6 -4 25.79 5.74
-4 6 4 20.5 3.12
-4 6 4 26.06 5.72
-4 6 4 22.68 4.06
3 -6 -4 0.21 1.2
3 -6 -4 1.24 1.16
-3 6 4 0.21 0.61
-3 6 4 0.41 1.1
-3 6 4 0.05 0.83
2 -6 -4 12.78 3.5
2 -6 -4 13.54 2.61
2 -6 -4 7.07 3.6
-2 6 4 10.95 3.36
-2 6 4 14.89 2.34
-2 6 4 9.22 2.2
1 -6 -4 -1.02 0.79
1 -6 -4 0.26 0.76
-1 6 4 0.27 0.52
-1 6 4 -0.13 0.5
-1 6 4 -0.36 0.66
0 -6 -4 5.41 2.03
0 -6 -4 4.99 2.35
0 -6 -4 7.44 2.04
0 6 4 4.17 1.14
0 6 4 9.25 3.39
0 6 4 4.88 2.09
-1 -6 -4 14.45 3.72
-1 -6 -4 12.45 2.87
-1 -6 -4 12.27 2.84
1 6 4 14.45 2.93
1 6 4 9.9 3.1
-2 -6 -4 2.02 1.32
-2 -6 -4 1.75 1.6
-2 -6 -4 1.42 1.18
2 6 4 2.51 1.28
2 6 4 2.39 1.71
2 6 4 1.9 1.28
-3 -6 -4 2.47 2.09
-3 -6 -4 2.92 1.8
-3 -6 -4 4.35 1.8
3 6 4 3 0.96
3 6 4 5.26 1.93
3 6 4 9.5 3.02
-4 -6 -4 47.31 6.59
-4 -6 -4 66.58 7.39
4 6 4 45.88 6.31
4 6 4 52.65 5.08
-5 -6 -4 11.62 3.43
-5 -6 -4 16 4
5 6 4 17.23 3.71
5 6 4 15.2 2.23
-6 -6 -4 11.07 3.58
-6 -6 -4 11.56 3.55
6 6 4 15.62 3.64
6 6 4 16.55 2.42
6 6 4 9.46 3.33
-7 -6 -4 13.17 3.9
-7 -6 -4 14.47 3.28
-7 -6 -4 7.95 2.1
-7 -6 -4 11.87 3.82
7 6 4 13.87 2.65
7 6 4 17.37 3.97
-8 -6 -4 -1.34 1.49
-8 -6 -4 0.13 1.18
-8 -6 -4 5.09 2.51
8 6 4 0.1 1.55
8 6 4 5.21 1.69
-9 -6 -4 2.92 1.99
-9 -6 -4 2.46 1.66
-9 -6 -4 0.06 2.55
9 6 4 -1.47 3.26
9 6 4 4.22 1.83
9 6 4 3.74 2.54
-10 -6 -4 2.21 1.36
-10 -6 -4 -1.47 2.61
-10 -6 -4 2.73 1.93
10 6 4 -0.93 1.2
10 6 4 0.5 1.87
-11 -6 -4 -0.83 1.5
-11 -6 -4 -5.35 2.12
-11 -6 -4 6.94 3.75
11 6 4 0.34 1.85
11 6 4 -0.71 2.18
8 -7 -4 0.87 2.01
-8 7 4 0.31 1.38
7 -7 -4 -1.61 1.55
-7 7 4 3.82 2.07
-7 7 4 2.32 2.02
-7 7 4 1.33 1.53
6 -7 -4 -0.64 1.9
6 -7 -4 -0.94 0.73
-6 7 4 0.7 1.18
-6 7 4 1.23 0.97
-6 7 4 -0.11 1.91
5 -7 -4 1.63 1.82
5 -7 -4 2.38 1.51
-5 7 4 -1.72 1.35
-5 7 4 0.16 1.14
-5 7 4 -1.51 0.6
4 -7 -4 13.49 3.43
4 -7 -4 17.63 4.57
-4 7 4 16.28 3.26
-4 7 4 9.85 2.62
-4 7 4 14.78 4.48
3 -7 -4 21.41 5.22
3 -7 -4 21.38 4.52
-3 7 4 23.39 3.55
-3 7 4 16.88 3.61
-3 7 4 21.23 5.01
2 -7 -4 2.96 1.52
2 -7 -4 2.94 1.93
2 -7 -4 3.25 1.57
-2 7 4 1.34 1.23
-2 7 4 3.87 2.22
-2 7 4 3.62 1.63
1 -7 -4 3.16 2
1 -7 -4 5.31 1.86
1 -7 -4 1.5 1.74
1 -7 -4 3.58 2.27
-1 7 4 5.15 1.66
-1 7 4 1.54 1.71
-1 7 4 2.69 1.25
0 -7 -4 27.21 5.01
0 -7 -4 28.97 5.75
0 -7 -4 30.86 4.87
0 -7 -4 29.86 4.6
0 7 4 33.79 4.62
0 7 4 36.56 5.43
0 7 4 28.54 3.51
-1 -7 -4 1.84 1.79
-1 -7 -4 2.29 1.45
-1 -7 -4 1.06 1.32
1 7 4 6.01 2.15
1 7 4 0.77 0.91
-2 -7 -4 -0.11 0.84
-2 -7 -4 -0.19 1.16
-2 -7 -4 -0.89 0.75
2 7 4 0.87 1.19
2 7 4 -0.13 0.58
-3 -7 -4 1.89 1.47
-3 -7 -4 5.18 2.4
-3 -7 -4 1.47 2.05
3 7 4 4.53 1.98
3 7 4 0.24 3.56
3 7 4 3.4 1.17
3 7 4 5.42 2.21
-4 -7 -4 -3.7 1.76
-4 -7 -4 0.65 1.24
4 7 4 0.11 0.65
4 7 4 0.58 1.19
4 7 4 -0.42 1.3
-5 -7 -4 25.81 5.69
-5 -7 -4 43.52 6.22
5 7 4 36.76 4.41
5 7 4 34.27 5.36
-6 -7 -4 3.52 2.5
-6 -7 -4 13.15 4.04
6 7 4 3.86 2.55
6 7 4 3.03 2
6 7 4 7.62 2
-7 -7 -4 1.57 2.01
-7 -7 -4 2.16 2.53
7 7 4 -0.72 0.8
-8 -7 -4 3.08 2.53
-8 -7 -4 2.93 3.06
-8 -7 -4 5.04 2.12
8 7 4 4.14 2.34
8 7 4 3.49 1.69
8 7 4 -2.78 4.1
-9 -7 -4 -0.08 1.1
-9 -7 -4 0.51 2.45
9 7 4 0.11 0.91
9 7 4 -2.77 3.03
-10 -7 -4 2.6 1.52
-10 -7 -4 -1.99 1.82
10 7 4 4.13 3.14
10 7 4 1.78 1.52
8 -8 -4 0.38 1.24
7 -8 -4 2.4 1.84
-7 8 4 2.13 1.52
6 -8 -4 8.8 3.71
6 -8 -4 4.91 2.65
-6 8 4 1.36 2
-6 8 4 1.78 1.57
-6 8 4 2.05 2.45
5 -8 -4 1.34 1.24
5 -8 -4 0.48 1.1
-5 8 4 1.23 3.23
-5 8 4 0.28 1.17
4 -8 -4 2.54 1.97
4 -8 -4 6.17 2.55
-4 8 4 1.37 1.56
-4 8 4 4.61 2.41
-4 8 4 -0.36 1.45
3 -8 -4 4.23 2.18
3 -8 -4 4.71 2.75
-3 8 4 4.55 2.69
-3 8 4 4.38 1.75
-3 8 4 6.79 2.26
2 -8 -4 3.93 2.27
2 -8 -4 1.2 1.46
2 -8 -4 7.49 3.06
-2 8 4 -0.33 1.4
-2 8 4 0.49 0.94
-2 8 4 3.02 1.62
1 -8 -4 0.22 1.03
1 -8 -4 1.63 1.28
1 -8 -4 1.2 1.78
-1 8 4 0.44 0.95
-1 8 4 1.61 1.4
-1 8 4 0.66 1.01
0 -8 -4 3.23 1.91
0 -8 -4 0.98 1.48
0 -8 -4 4.18 2.2
0 -8 -4 2.29 1.99
0 8 4 5.29 2.3
0 8 4 2.71 1.54
0 8 4 1.76 1.24
-1 -8 -4 1.27 1.3
-1 -8 -4 0.3 1.01
-1 -8 -4 -0.48 2.07
-1 -8 -4 1.71 1.49
1 8 4 1.67 1.37
1 8 4 -1.5 0.78
-2 -8 -4 6.18 2.7
-2 -8 -4 4.87 2.62
-2 -8 -4 5.04 2.72
2 8 4 8.48 2.92
2 8 4 10.12 3.31
-3 -8 -4 -0.39 1.2
-3 -8 -4 -1.42 1.79
-3 -8 -4 -0.49 0.99
3 8 4 0.35 0.86
3 8 4 1.54 1.24
3 8 4 -1.53 1.75
3 8 4 -2.57 1.17
-4 -8 -4 0.82 1.71
-4 -8 -4 2.68 2.21
4 8 4 -0.54 1.02
4 8 4 1.98 1.19
4 8 4 2.03 1.67
4 8 4 2.29 2.45
-5 -8 -4 13.09 4.14
-5 -8 -4 13.56 4.2
5 8 4 12.8 2.67
5 8 4 8.98 3.68
5 8 4 14.79 4.21
-6 -8 -4 7.91 4.26
-6 -8 -4 2.69 2.31
6 8 4 4.17 2.27
6 8 4 1.72 1.18
6 8 4 1.68 2.26
-7 -8 -4 -1.19 2.84
-7 -8 -4 0.14 2.13
7 8 4 1.71 0.99
7 8 4 2.15 2.41
7 8 4 0.1 2.73
-8 -8 -4 1.28 1.49
-8 -8 -4 0.34 1.95
-8 -8 -4 4.15 3.03
8 8 4 -0.74 2.67
8 8 4 2.18 1.21
-9 -8 -4 -0.05 2.83
-9 -8 -4 -1.07 1.4
9 8 4 2.51 2.24
9 8 4 -3.02 1.2
-10 -8 -4 0.54 4.42
-10 -8 -4 -0.91 1.53
10 8 4 1.5 2.8
10 8 4 -3.02 1.63
6 -9 -4 2.08 1.95
-6 9 4 2.09 1.61
5 -9 -4 -0.54 1.49
-5 9 4 -2.22 1.79
-5 9 4 5.37 3.6
-5 9 4 0.9 1.45
4 -9 -4 0.88 1.8
4 -9 -4 0.1 1.31
-4 9 4 2.54 1.74
-4 9 4 2.28 1.35
3 -9 -4 9.16 3.44
3 -9 -4 3.48 2.97
3 -9 -4 7.15 2.98
-3 9 4 3.52 5.17
-3 9 4 4.58 2.02
-3 9 4 6.86 2.64
2 -9 -4 0.38 1.69
2 -9 -4 -0.99 1.91
2 -9 -4 -0.55 1.34
-2 9 4 -1.08 0.57
-2 9 4 1.88 2.4
-2 9 4 -1.54 1.18
1 -9 -4 -0.08 1.21
1 -9 -4 1.74 2.16
1 -9 -4 -0.89 1.7
-1 9 4 0.74 1.24
-1 9 4 -0.17 1.02
0 -9 -4 2.77 2.28
0 -9 -4 2.5 2.67
0 -9 -4 7.93 3.28
0 -9 -4 3.13 2.02
0 9 4 5.37 2.27
0 9 4 4.38 1.8
-1 -9 -4 5.89 3.02
-1 -9 -4 3.28 1.74
-1 -9 -4 9.13 2.98
-1 -9 -4 3.52 2.59
1 9 4 10.39 3.19
-2 -9 -4 -2.08 1.46
-2 -9 -4 1.3 2.21
-2 -9 -4 2.33 1.79
2 9 4 0.96 1.52
2 9 4 0.24 1.16
-3 -9 -4 3.64 2.3
-3 -9 -4 -0.54 2.17
3 9 4 1.55 1.59
3 9 4 -1.16 0.87
3 9 4 1.55 1.2
-4 -9 -4 5.49 2.75
-4 -9 -4 3.38 2.96
4 9 4 7.45 3.33
4 9 4 5.93 2.06
4 9 4 9.83 5.5
4 9 4 1.33 2.82
-5 -9 -4 0.46 1.67
-5 -9 -4 2.71 2.46
5 9 4 2.72 2.9
5 9 4 -1.03 1.03
-6 -9 -4 -0.96 2.05
-6 -9 -4 1.1 2.17
6 9 4 -1.07 0.89
6 9 4 5.29 2.85
-7 -9 -4 1.68 2.3
-7 -9 -4 -2.45 2.22
7 9 4 5.73 4.15
7 9 4 4.36 3.34
-8 -9 -4 1.06 3.25
8 9 4 1.29 1.51
8 9 4 2.91 2.6
-9 -9 -4 -3.7 2.31
-9 -9 -4 -2.33 1.36
9 9 4 -1.05 1.64
9 9 4 0.56 2.6
5 -10 -4 3.4 3.04
5 -10 -4 2.12 2.36
-5 10 4 2.43 2.03
4 -10 -4 0.86 1.02
4 -10 -4 1.86 2.57
-4 10 4 -0.13 1.7
-4 10 4 -2.92 1.49
3 -10 -4 -0.68 0.86
3 -10 -4 -1.47 2.08
-3 10 4 0.63 1.93
-3 10 4 0.58 1.54
2 -10 -4 2.65 1.88
2 -10 -4 3.7 3.53
2 -10 -4 1.65 1.53
2 -10 -4 -0.36 1.9
-2 10 4 -1.04 1.44
-2 10 4 -0.2 1.84
-2 10 4 0.34 1.49
1 -10 -4 1.8 1.35
1 -10 -4 1.77 1.83
1 -10 -4 -4.19 2.08
1 -10 -4 6.52 2.24
-1 10 4 0.88 1.84
-1 10 4 -1.65 1.34
-1 10 4 -1.68 1.28
0 -10 -4 1.75 2
0 -10 -4 1.47 1.79
0 -10 -4 1.77 1.91
0 -10 -4 -3.78 2.32
0 10 4 -4.21 1.97
0 10 4 0.34 1.44
0 10 4 4.14 2.06
-1 -10 -4 1.2 2.31
-1 -10 -4 -0.53 2.63
-1 -10 -4 3.65 2.43
-1 -10 -4 1.71 3.65
1 10 4 2.99 3.28
-2 -10 -4 -1.46 2.55
-2 -10 -4 1.85 2.23
-2 -10 -4 -1.33 1.15
-2 -10 -4 -2.14 1.51
2 10 4 1.66 1.62
2 10 4 -0.94 2.01
-3 -10 -4 1.35 1.51
-3 -10 -4 1.88 1.97
-3 -10 -4 2.99 3.76
3 10 4 0.37 1.38
3 10 4 1.21 2.49
3 10 4 4.77 2.15
-4 -10 -4 2.94 1.41
-4 -10 -4 0.41 2.58
-4 -10 -4 -2.21 2.21
4 10 4 -0.16 1.56
4 10 4 1.18 1.4
4 10 4 -0.89 1.16
-5 -10 -4 2.07 2.27
-5 -10 -4 0.52 2.39
5 10 4 -0.92 2.43
5 10 4 -1.65 2.34
5 10 4 -1.72 1.13
5 10 4 -1.11 1.63
-6 -10 -4 4.5 3.13
6 10 4 3.23 3.49
6 10 4 3.27 3.01
6 10 4 1.16 1.58
-7 -10 -4 1.44 3.11
7 10 4 -0.11 1.45
-8 -10 -4 3.63 3.55
8 10 4 2.22 1.9
3 -11 -4 1.32 2.83
-3 11 4 -4.12 1.65
-3 11 4 -0.09 2.58
2 -11 -4 2.6 2.81
2 -11 -4 -2.85 2.64
2 -11 -4 2.59 2.41
-2 11 4 -4.06 1.56
-2 11 4 -0.81 1.88
1 -11 -4 0.65 2.87
1 -11 -4 -0.56 1.84
1 -11 -4 3.34 2.54
-1 11 4 -0.43 1.4
0 -11 -4 6.79 3.19
0 -11 -4 3.22 2.19
0 -11 -4 0.95 2.44
0 11 4 -0.57 1.21
0 11 4 -0.51 1.87
-1 -11 -4 1.87 2.69
-1 -11 -4 8.88 4.56
1 11 4 -2.41 1.6
-2 -11 -4 4.25 2.98
-2 -11 -4 -0.49 2.54
-2 -11 -4 -2.54 2.66
2 11 4 0.94 1.41
2 11 4 2 1.75
-3 -11 -4 -4.02 1.7
-3 -11 -4 -3.97 2.73
3 11 4 0.65 1.39
3 11 4 -1.69 1.73
-4 -11 -4 0.61 1.84
4 11 4 -1.3 1.48
4 11 4 1.41 1.91
-5 -11 -4 6.67 3.76
-5 -11 -4 0.87 3.18
5 11 4 -0.21 2.43
5 11 4 -3.89 2.25
5 11 4 -0.75 1.42
-6 -11 -4 0.8 3.43
6 11 4 0.4 1.54
0 -12 -4 3.8 2.77
0 -12 -4 -1.13 3.71
0 12 4 -0.18 1.93
-1 -12 -4 4.53 2.87
1 12 4 1.88 2.01
-2 -12 -4 -0.02 2.95
2 12 4 2.57 2.08
-3 -12 -4 0.22 3.56
3 12 4 0.28 1.78
1 8 -5 -3.74 1.94
-1 -8 5 1.53 1.76
0 8 -5 1.45 2.57
0 -8 5 1.28 2.34
1 -8 5 0.6 3.33
4 7 -5 1.79 1.51
4 7 -5 -0.99 2.28
4 7 -5 -2.55 2.16
3 7 -5 5.49 3.02
3 7 -5 -1.55 1.68
-3 -7 5 -0.34 0.84
2 7 -5 2.27 2.43
2 7 -5 0.63 2.25
-2 -7 5 0.63 1.19
1 7 -5 -2.81 1.57
1 7 -5 1.81 2.66
1 7 -5 -0.13 1.55
-1 -7 5 0.43 1.28
0 7 -5 -3.49 2.33
0 7 -5 2.76 2.75
0 7 -5 0.37 2.3
0 -7 5 0.14 1.43
-1 7 -5 -0.21 1.97
-1 7 -5 1.87 1.9
1 -7 5 -2.44 1.32
-2 7 -5 3.11 1.4
-2 7 -5 3.79 2.64
-2 7 -5 0.7 2.47
-3 7 -5 0.28 1.3
-3 7 -5 -1.73 1.8
3 -7 5 0.57 1.63
-4 7 -5 0.95 1.53
-4 7 -5 -5.27 2.11
-5 7 -5 0.09 1.92
-5 7 -5 -2.12 2.49
6 6 -5 -0.43 2.22
6 6 -5 2.66 2.06
6 6 -5 4.4 2.44
5 6 -5 1.25 2.48
5 6 -5 0.4 1.72
4 6 -5 -0.43 1.05
4 6 -5 2.24 2.4
4 6 -5 -1.14 1.56
-4 -6 5 0.89 2.6
3 6 -5 -0.21 1.15
3 6 -5 3.2 1.83
3 6 -5 -0.27 0.93
-3 -6 5 -2.91 2.47
-3 -6 5 1.81 0.73
2 6 -5 -1.86 1.42
2 6 -5 0.49 1.92
2 6 -5 -0.81 1.63
-2 -6 5 -0.11 2.17
-2 -6 5 2.65 0.9
1 6 -5 5.35 3.33
1 6 -5 2.09 1.8
1 6 -5 1.14 2
-1 -6 5 3.36 3.21
-1 -6 5 0.33 1.02
0 6 -5 1.81 1.49
0 6 -5 -0.95 1.36
0 -6 5 -0.58 1.41
0 -6 5 0.77 2.98
-1 6 -5 4.28 2.44
-1 6 -5 1.23 2.08
1 -6 5 0.96 2.05
1 -6 5 -1.43 1.11
-2 6 -5 0.36 1.8
-2 6 -5 -0.46 1.42
-2 6 -5 1.5 1.27
2 -6 5 1.45 1.59
-3 6 -5 0.65 1.05
-3 6 -5 -1.72 1.92
-3 6 -5 0.93 1.73
-4 6 -5 1.55 1.29
-4 6 -5 -2.59 1.72
-4 6 -5 -0.51 1.69
4 -6 5 2.59 1.75
-5 6 -5 1.23 2.14
-5 6 -5 -1.29 1.89
-5 6 -5 -0.37 1.59
5 -6 5 1.75 1.64
-6 6 -5 -1.12 2.8
-6 6 -5 1 1.73
-6 6 -5 1.94 1.96
7 5 -5 3.67 2.2
7 5 -5 1.73 3.25
7 5 -5 1.29 2.22
6 5 -5 0.7 1.85
6 5 -5 2.39 1.75
6 5 -5 7.28 2.69
-6 -5 5 0.87 2.9
5 5 -5 -1.15 1.31
5 5 -5 2.02 1.54
5 5 -5 -0.5 1.67
-5 -5 5 4.44 3.45
4 5 -5 1.22 1.16
4 5 -5 0.53 1.49
4 5 -5 -0.3 1.59
-4 -5 5 2.24 2.35
3 5 -5 3.65 2.36
3 5 -5 0.68 0.94
3 5 -5 -1.11 1.49
2 5 -5 1.86 0.9
2 5 -5 9.21 3.11
2 5 -5 4.58 2.26
-2 -5 5 3.61 1.17
1 5 -5 7.28 3.47
1 5 -5 7.03 2.92
1 5 -5 14.85 4.5
-1 -5 5 10.37 2.02
0 5 -5 -0.62 1.63
0 5 -5 0.11 1.03
0 5 -5 0.91 0.89
0 -5 5 0.46 0.97
-1 5 -5 -1.44 0.95
-1 5 -5 -0.21 0.6
-1 5 -5 2.25 2.11
1 -5 5 0.66 1.94
-2 5 -5 3.3 2.24
-2 5 -5 2.87 1.47
-2 5 -5 0.8 1.5
2 -5 5 2.45 1.59
-3 5 -5 4.89 2.28
-3 5 -5 7.17 2.92
-3 5 -5 5.74 2.02
3 -5 5 6.64 2.34
-4 5 -5 5.13 2.11
-4 5 -5 -0.68 1.06
-4 5 -5 -0.43 1.2
4 -5 5 -2.46 1.28
-5 5 -5 2.45 2.5
-5 5 -5 2.16 1.83
-5 5 -5 2.73 1.67
5 -5 5 3.12 3.69
-6 5 -5 3.06 2.67
-6 5 -5 -0.78 1.16
-6 5 -5 2.93 1.67
6 -5 5 3.25 2.3
-7 5 -5 0.31 1.38
-7 5 -5 -2.01 2.47
-7 5 -5 2.88 2.05
7 -5 5 2.74 1.66
-8 5 -5 0.99 1.34
-8 5 -5 2.24 3.17
-8 5 -5 -2.8 1.25
8 -5 5 -0.54 2.81
8 4 -5 2.73 2.83
-8 -4 5 3.48 3.38
7 4 -5 0.5 2.29
7 4 -5 1.74 1.58
7 4 -5 4.06 2.18
-7 -4 5 4.01 3.48
6 4 -5 1.67 1.77
6 4 -5 -0.09 1.44
6 4 -5 1.06 1.42
5 4 -5 1.93 1.54
5 4 -5 3.32 1.6
5 4 -5 1.56 1.57
-5 -4 5 2.38 2.13
4 4 -5 0.25 1.19
4 4 -5 -0.96 1.16
4 4 -5 0.26 1.06
-4 -4 5 -0.65 1.32
3 4 -5 15.61 2.73
3 4 -5 15.19 4.17
3 4 -5 19.71 4.92
-3 -4 5 18.78 5.22
2 4 -5 5.24 2.97
2 4 -5 -0.75 1.18
-2 -4 5 2.06 2.19
-2 -4 5 0.58 0.47
1 4 -5 1.59 1.9
1 4 -5 1 1.97
1 4 -5 0.78 0.44
-1 -4 5 1.69 0.84
-1 -4 5 -2.12 1.6
0 4 -5 5.02 2.26
0 4 -5 4.57 2.04
0 4 -5 1.08 0.96
0 -4 5 1.64 0.93
0 -4 5 0.79 1.81
-1 4 -5 -1.51 1.02
-1 4 -5 -0.58 0.7
-1 4 -5 1.77 1.92
1 -4 5 -0.37 0.76
1 -4 5 0.85 1.74
-2 4 -5 -0.11 0.74
-2 4 -5 0.16 1.36
-2 4 -5 0.11 0.99
2 -4 5 -1.51 1.42
-3 4 -5 1.98 1.27
-3 4 -5 1.78 2.01
-3 4 -5 1.57 1.39
3 -4 5 1.64 1.23
-4 4 -5 1.88 2.07
-4 4 -5 0.86 1.18
-4 4 -5 2.49 1.48
4 -4 5 1.09 1.37
-5 4 -5 2.02 0.99
-5 4 -5 -1.64 1.5
-5 4 -5 0.36 1.04
5 -4 5 4.27 2.09
-6 4 -5 0.42 0.99
-6 4 -5 -0.06 0.84
-6 4 -5 -0.33 1.62
-6 4 -5 0.19 1.2
6 -4 5 -1.68 1.11
6 -4 5 -4.17 2.76
-7 4 -5 2.24 2.01
-7 4 -5 1.18 2.54
-7 4 -5 -0.48 0.81
-7 4 -5 0.8 1.1
7 -4 5 0.81 1.79
7 -4 5 -1.72 1.44
-8 4 -5 6.86 2.72
-8 4 -5 -0.74 1.49
8 -4 5 1.6 2.45
-9 4 -5 6.39 3.07
-9 4 -5 -3.13 1.4
9 -4 5 -3.25 3.52
9 3 -5 -1.94 2.52
-9 -3 5 -1.15 2.56
8 3 -5 4.45 2.86
8 3 -5 3.03 2.44
-8 -3 5 -0.1 2.84
7 3 -5 4.09 2.44
7 3 -5 0.75 1.53
7 3 -5 1.84 1.98
-7 -3 5 0.66 1.71
6 3 -5 -1.33 1.64
6 3 -5 1.2 1.67
6 3 -5 0.35 1.48
-6 -3 5 0.08 1.85
5 3 -5 -1.65 1.32
5 3 -5 -0.16 0.9
5 3 -5 2.1 1.45
-5 -3 5 -0.28 1.77
4 3 -5 -0.95 1.15
4 3 -5 -0.1 1.03
4 3 -5 0.75 1.43
-4 -3 5 0.53 1.26
3 3 -5 31.07 4.64
3 3 -5 22.83 3.44
3 3 -5 26.07 5.33
-3 -3 5 25.48 5.75
2 3 -5 43.93 6.4
2 3 -5 44.25 4.45
2 3 -5 32.1 5.44
-2 -3 5 38.24 7.33
1 3 -5 0.99 0.71
1 3 -5 1.12 0.78
1 3 -5 0.95 1.35
1 3 -5 -0.02 1.39
-1 -3 5 0.65 1.41
-1 -3 5 2.07 0.8
0 3 -5 -0.09 0.61
0 3 -5 -1.14 0.93
0 -3 5 1.66 0.74
0 -3 5 1.72 1.76
-1 3 -5 -0.28 0.66
-1 3 -5 0.23 0.73
-1 3 -5 -0.1 1.06
1 -3 5 -1.4 1.09
1 -3 5 0.71 0.73
-2 3 -5 4.36 1.41
-2 3 -5 2.87 1.61
-2 3 -5 1.15 1.39
2 -3 5 1.97 1.23
-3 3 -5 -0.23 1.66
-3 3 -5 3.88 1.61
-3 3 -5 1.58 1.12
-4 3 -5 -0.32 0.9
-4 3 -5 -0.56 0.73
4 -3 5 1.5 0.87
-5 3 -5 -0.08 1.48
-5 3 -5 -1.08 1.05
-5 3 -5 2.43 1.05
5 -3 5 1.15 1.63
5 -3 5 -1.59 0.85
-6 3 -5 0.97 1.42
-6 3 -5 4.62 1.39
-6 3 -5 4.76 1.92
-6 3 -5 3.88 1.93
6 -3 5 1.42 1.39
-7 3 -5 0.59 2.02
-7 3 -5 0.03 0.91
-7 3 -5 0.83 1.39
-7 3 -5 -0.11 0.48
7 -3 5 3.66 3
7 -3 5 0.86 1.58
-8 3 -5 -1.45 1.44
-8 3 -5 0.22 1.63
8 -3 5 0.51 2.25
8 -3 5 5.4 2.22
-9 3 -5 -1.36 0.99
-9 3 -5 1.54 2.18
-10 3 -5 4.74 2.79
9 2 -5 12.47 5.75
8 2 -5 -1.4 2.49
8 2 -5 0.79 1.74
-8 -2 5 -0.92 1.66
7 2 -5 27.33 5.71
7 2 -5 33.19 5.38
-7 -2 5 30.53 6.24
6 2 -5 -1.81 0.82
6 2 -5 1.27 1.87
6 2 -5 0.79 1.52
-6 -2 5 -1.48 1.3
5 2 -5 2.93 2.22
5 2 -5 2.38 2.09
5 2 -5 7.26 2.45
-5 -2 5 3.08 2.32
4 2 -5 14.87 3.71
4 2 -5 7.22 2.55
4 2 -5 7.55 2.34
-4 -2 5 13.41 3.68
3 2 -5 6.27 2.28
3 2 -5 4.07 1.6
3 2 -5 1.3 1.62
-3 -2 5 6.19 2.34
2 2 -5 1.69 1.73
2 2 -5 1.01 1.17
2 2 -5 0.48 0.84
-2 -2 5 1.9 2.08
1 2 -5 4.58 1.93
1 2 -5 6.22 2.18
1 2 -5 3.73 1.05
1 2 -5 2.49 0.81
-1 -2 5 6.42 2.49
-1 -2 5 3.8 0.83
0 2 -5 0.03 0.34
0 2 -5 -0.18 0.37
0 2 -5 -0.61 0.41
0 2 -5 -0.24 0.53
0 2 -5 -0.06 0.66
0 -2 5 0.23 0.53
0 -2 5 0.81 1.11
-1 2 -5 0.02 0.98
-1 2 -5 1.03 0.63
1 -2 5 1.21 0.78
-2 2 -5 -0.7 0.33
-2 2 -5 -0.76 0.51
-2 2 -5 -0.31 0.75
2 -2 5 -0.82 0.65
-3 2 -5 0.25 0.65
-3 2 -5 -0.86 0.43
-3 2 -5 -0.21 0.57
3 -2 5 -1.21 0.71
-4 2 -5 12.98 2.72
-4 2 -5 9.23 1.97
-4 2 -5 5.24 2.83
4 -2 5 8.45 2.35
-5 2 -5 4.25 1.68
-5 2 -5 2.01 1.7
-5 2 -5 4.01 1.08
5 -2 5 4.86 2.06
-6 2 -5 0.94 0.97
-6 2 -5 0.72 0.39
-6 2 -5 -0.68 1.15
-6 2 -5 1.28 2.58
6 -2 5 0.96 1.31
6 -2 5 0.81 1.09
-7 2 -5 -1.25 1.03
-7 2 -5 1.18 1.37
-7 2 -5 1.43 1.56
7 -2 5 1.76 1.78
-8 2 -5 2.47 1.12
-8 2 -5 -0.11 1.12
-8 2 -5 -1.43 1.8
8 -2 5 -0.55 2.37
-9 2 -5 1.74 1.65
-9 2 -5 0.1 1.41
-9 2 -5 -2.94 1.77
9 -2 5 -1.68 2.55
-10 2 -5 -2.07 2.21
-10 2 -5 -0.92 2.03
10 1 -5 0.63 1.72
9 1 -5 3.13 1.83
9 1 -5 5.72 2.68
-9 -1 5 1.32 2.22
8 1 -5 1.69 1.64
8 1 -5 1.5 1.4
-8 -1 5 1.83 1.69
-8 -1 5 3.14 2.39
7 1 -5 -0.7 1.25
7 1 -5 3.69 2
-7 -1 5 1.47 1.65
6 1 -5 11.07 2.91
6 1 -5 12.05 3.3
-6 -1 5 5.72 2.51
5 1 -5 2.92 1.54
5 1 -5 4.17 2.18
5 1 -5 0.96 1.24
-5 -1 5 5.25 2.27
-5 -1 5 6.32 2.47
4 1 -5 75.24 8.04
4 1 -5 82.6 7.94
4 1 -5 75.23 8.09
-4 -1 5 69.71 8.28
-4 -1 5 54.62 7.94
3 1 -5 2.71 1.68
3 1 -5 7.19 2.31
3 1 -5 9.02 2.24
-3 -1 5 6.44 2.25
2 1 -5 0.27 0.79
2 1 -5 0.87 0.79
-2 -1 5 0.85 0.91
1 1 -5 -0.56 0.64
1 1 -5 -0.09 0.26
1 1 -5 -1.35 0.59
0 1 -5 -0.66 0.93
0 1 -5 0.26 0.88
0 1 -5 -0.32 0.32
0 -1 5 -0.7 0.64
-1 1 -5 7.8 1.38
-1 1 -5 3.87 2.06
-1 1 -5 6.17 1.77
1 -1 5 6.29 1.52
-2 1 -5 30.11 3.42
-2 1 -5 27.61 5.24
-2 1 -5 27.53 2.87
2 -1 5 28.96 3.57
-3 1 -5 8.14 2.87
-3 1 -5 8.43 1.3
-3 1 -5 5.52 1.56
-3 1 -5 4.67 1.28
3 -1 5 7.24 1.97
3 -1 5 4.76 1.21
-4 1 -5 3.94 1.26
-4 1 -5 5.87 1.68
-4 1 -5 5.79 2.19
4 -1 5 2.01 1.24
4 -1 5 2.82 1.15
-5 1 -5 8.08 1.94
-5 1 -5 9.16 3.07
-5 1 -5 7.68 2.09
5 -1 5 5.18 1.94
5 -1 5 4.58 1.54
-6 1 -5 14.27 3.1
-6 1 -5 11.8 2.8
-6 1 -5 15.98 2.64
6 -1 5 14.63 3.32
-7 1 -5 10.4 2.78
-7 1 -5 4 2.17
7 -1 5 1.36 1.86
-8 1 -5 1.4 1.45
-8 1 -5 0.06 0.87
8 -1 5 -0.88 1.92
-9 1 -5 3.3 2.02
-9 1 -5 0.12 1.29
9 -1 5 -3.87 2.22
9 -1 5 -0.93 1.76
-10 1 -5 3.02 2.51
-10 1 -5 -0.56 1.45
-11 1 -5 1.28 1.91
11 -1 5 1.27 4.13
10 0 -5 -2.96 2.4
10 0 -5 0.49 1.39
-10 0 5 -0.83 2.54
9 0 -5 -0.03 1.35
9 0 -5 5.96 2.56
-9 0 5 0.76 1.99
8 0 -5 -0.59 0.59
8 0 -5 3.15 2.83
8 0 -5 0.82 1.24
-8 0 5 0.56 1.63
-8 0 5 -2.6 1.67
7 0 -5 12.74 3.65
7 0 -5 9.58 3.27
7 0 -5 15.27 3.99
-7 0 5 10 2.97
6 0 -5 1.23 1.05
6 0 -5 2.6 1.68
6 0 -5 -0.03 1.09
-6 0 5 2.23 1.72
-6 0 5 2.02 2.2
5 0 -5 44.84 5.81
5 0 -5 49.93 5.81
-5 0 5 39.72 5.37
-5 0 5 37.63 5.77
4 0 -5 1.42 0.96
4 0 -5 0.17 0.92
-4 0 5 1.53 1.44
-4 0 5 -0.61 0.83
3 0 -5 4.54 1.64
-3 0 5 5.02 1.92
-3 0 5 7.05 2.07
2 0 -5 24.98 3.31
2 0 -5 19.41 1.74
2 0 -5 23.37 3.25
-2 0 5 21.76 3.35
-2 0 5 11.55 2.95
1 0 -5 12.03 2.85
1 0 -5 12.65 2.47
1 0 -5 13.84 1.51
-1 0 5 12.23 2.76
0 0 -5 30.14 3.69
0 0 -5 24 3.93
0 0 -5 27.96 2.87
-1 0 -5 -0.37 0.35
-1 0 -5 -0.07 0.77
-1 0 -5 0.35 0.76
-2 0 -5 9.22 2.63
-2 0 -5 9.49 1.71
-2 0 -5 9.4 1.79
2 0 5 6.44 1.69
-3 0 -5 1.21 0.83
-3 0 -5 0.18 0.59
3 0 5 1.01 0.75
3 0 5 -1.38 0.63
-4 0 -5 30.04 3.53
-4 0 -5 28.18 3.59
4 0 5 27.54 3.77
4 0 5 22.82 3.27
-5 0 -5 3.26 1.41
-5 0 -5 2.95 1.25
-5 0 -5 1.28 1.01
5 0 5 -0.29 1
-6 0 -5 -1.02 0.87
-6 0 -5 0.28 0.64
-6 0 -5 0.87 1.17
6 0 5 -1.6 1.05
-7 0 -5 0.36 1.18
-7 0 -5 -0.13 0.86
7 0 5 -1.64 1.42
-8 0 -5 1.54 1.22
-8 0 -5 5.13 2.04
-8 0 -5 2.05 1.74
8 0 5 0 1.91
-9 0 -5 4.01 2.07
-9 0 -5 2.56 1.36
9 0 5 -1.83 2.19
9 0 5 2.43 1.77
-10 0 -5 -0.4 2.18
-10 0 -5 1.85 1.81
-11 0 -5 1.12 1.63
11 0 5 -6.3 3.19
10 -1 -5 -1.49 1.77
10 -1 -5 0.19 1.59
-10 1 5 -0.61 2.24
9 -1 -5 0.38 1.76
9 -1 -5 0.09 0.92
9 -1 -5 1.96 1.74
-9 1 5 -0.57 1.54
8 -1 -5 15.74 4.33
8 -1 -5 16.69 4.71
8 -1 -5 22.52 4.71
8 -1 -5 14.4 2.56
-8 1 5 11.12 3.25
7 -1 -5 0.04 2.11
7 -1 -5 0.86 0.71
7 -1 -5 1.63 1.27
-7 1 5 2.27 1.15
6 -1 -5 8.17 2.65
6 -1 -5 3.2 1.78
6 -1 -5 5.95 2.54
6 -1 -5 2.2 0.78
-6 1 5 2.83 1.36
-6 1 5 4.96 2.52
5 -1 -5 20.92 2.1
5 -1 -5 13 3.31
5 -1 -5 15.12 3.51
-5 1 5 16.39 4.12
-5 1 5 15.46 3.07
4 -1 -5 -0.3 0.31
4 -1 -5 0.12 0.89
4 -1 -5 1.23 1.07
-4 1 5 -0.23 1.01
-4 1 5 0.35 0.66
3 -1 -5 36.65 4.74
3 -1 -5 30.22 3.52
3 -1 -5 37.03 4.19
-3 1 5 24.83 4.1
-3 1 5 32.23 3.83
2 -1 -5 2.26 0.86
2 -1 -5 0.86 0.8
2 -1 -5 1.5 0.83
-2 1 5 1.83 1.28
-2 1 5 3.23 1.14
1 -1 -5 29.38 3.7
1 -1 -5 28.06 3.27
1 -1 -5 24.19 3.19
-1 1 5 22.56 3.3
0 -1 -5 69.17 8.23
0 -1 -5 72.45 6.84
0 -1 -5 68.69 7.2
0 -1 -5 77.03 6.5
-1 -1 -5 0.19 0.44
-1 -1 -5 1.02 1.01
-1 -1 -5 0.27 0.46
-1 -1 -5 2.48 1.04
-1 -1 -5 1.01 0.67
-2 -1 -5 53.47 4.85
-2 -1 -5 50.06 5.08
-2 -1 -5 37.37 4.34
-3 -1 -5 25.21 3.16
-3 -1 -5 28.46 3.48
-3 -1 -5 23.6 2.49
3 1 5 24.08 3.46
-4 -1 -5 0.39 0.81
-4 -1 -5 0.12 0.84
4 1 5 0.74 1.06
-5 -1 -5 3.03 1.48
-5 -1 -5 1.44 0.85
-5 -1 -5 1.35 0.93
5 1 5 2.26 1.22
5 1 5 2.2 1.32
-6 -1 -5 -0.04 0.74
-6 -1 -5 1.45 1.36
-6 -1 -5 0.71 1.02
6 1 5 1.21 1.33
6 1 5 -2.1 1.13
-7 -1 -5 5.19 2.07
-7 -1 -5 2.85 1.45
-7 -1 -5 2.34 1.36
7 1 5 3.41 3.76
7 1 5 1.75 1.59
-8 -1 -5 1.68 2.02
-8 -1 -5 3.94 1.92
-8 -1 -5 -0.74 0.85
8 1 5 0.27 1.95
8 1 5 1.94 1.31
-9 -1 -5 1.06 1.28
-9 -1 -5 1.9 1.62
9 1 5 -1.78 2.46
-10 -1 -5 5.99 2.62
-10 -1 -5 12.62 3.96
-10 -1 -5 5.39 2.12
10 1 5 11 4.4
-11 -1 -5 3.99 1.94
-11 -1 -5 0.33 2.18
11 1 5 1.53 3.81
10 -2 -5 2.25 2.37
10 -2 -5 0.7 2.03
10 -2 -5 0.04 1.42
-10 2 5 3.79 2.3
9 -2 -5 0.7 1.36
9 -2 -5 -1.74 1.07
-9 2 5 -0.31 1.4
8 -2 -5 1.36 1.39
8 -2 -5 -1.26 1.4
8 -2 -5 1.45 2.28
8 -2 -5 -0.01 0.84
-8 2 5 -0.35 1.14
-8 2 5 -3.09 1.77
7 -2 -5 1.57 1.91
7 -2 -5 2.12 0.84
7 -2 -5 -0.3 0.88
7 -2 -5 1.81 1.27
-7 2 5 2.22 1.1
6 -2 -5 12.19 2.29
6 -2 -5 9.85 2.82
6 -2 -5 18.77 4.52
-6 2 5 9.84 3.28
-6 2 5 15.73 2.79
5 -2 -5 10.56 1.84
5 -2 -5 8.23 2.49
5 -2 -5 7.19 2.54
-5 2 5 9.9 1.98
-5 2 5 12.06 3.03
4 -2 -5 12.17 1.93
4 -2 -5 15.55 3.08
4 -2 -5 13.15 3.46
3 -2 -5 -0.82 0.38
3 -2 -5 -0.33 0.36
3 -2 -5 -1.33 0.56
-3 2 5 0.14 0.37
-3 2 5 0.49 0.85
2 -2 -5 1.37 1.04
2 -2 -5 0.99 0.71
2 -2 -5 0.74 0.51
2 -2 -5 1.45 0.46
-2 2 5 0.29 0.89
1 -2 -5 12.08 2.52
1 -2 -5 12.77 1.77
1 -2 -5 18.09 2.26
-1 2 5 10.42 2.19
0 -2 -5 36.41 3.5
0 -2 -5 33.07 4.44
0 -2 -5 27.72 3.54
-1 -2 -5 77.99 6.65
-1 -2 -5 71.56 7.13
-2 -2 -5 6.88 1.6
-2 -2 -5 7.94 1.57
-2 -2 -5 12.03 3.25
2 2 5 5.09 1.74
-3 -2 -5 85.3 7.8
-3 -2 -5 94.76 8.91
-3 -2 -5 90.32 8.38
-4 -2 -5 1.41 0.99
-4 -2 -5 2.75 1.43
-4 -2 -5 4.01 1.03
4 2 5 1.87 1.39
-5 -2 -5 8.72 2.38
-5 -2 -5 4.32 1.26
-5 -2 -5 4.34 1.35
5 2 5 5.03 1.86
-6 -2 -5 -0.62 0.86
-6 -2 -5 0.82 0.88
-6 -2 -5 -0.11 0.63
6 2 5 -0.2 1.36
-7 -2 -5 -0.98 0.77
-7 -2 -5 -0.75 0.55
-7 -2 -5 -0.07 1.47
7 2 5 -1.29 1.48
-8 -2 -5 24.16 4.43
-8 -2 -5 9.59 4.11
8 2 5 11.02 3.65
-9 -2 -5 4.74 2.14
-9 -2 -5 5.41 2.31
-9 -2 -5 10.68 3.62
9 2 5 2.8 2.53
-10 -2 -5 2.81 1.84
-10 -2 -5 8.57 3.7
-10 -2 -5 0.95 1.67
-11 -2 -5 1.95 1.51
-11 -2 -5 -3.37 1.83
-11 -2 -5 -1.69 2.56
10 -3 -5 5.42 2.3
10 -3 -5 -2.56 1.19
-10 3 5 0.66 1.92
9 -3 -5 1.88 1.49
9 -3 -5 2.54 2.12
9 -3 -5 -1.86 1.29
-9 3 5 1.08 1.32
8 -3 -5 1.21 1.74
8 -3 -5 -0.04 1.08
8 -3 -5 1.35 2.67
8 -3 -5 0.54 2
-8 3 5 2.01 1.11
-8 3 5 2.39 2.03
7 -3 -5 0.94 1.01
7 -3 -5 1.31 1.41
7 -3 -5 -1.01 0.54
-7 3 5 0.29 0.65
6 -3 -5 1.04 1.25
6 -3 -5 0.64 0.83
6 -3 -5 -1.35 1.05
-6 3 5 -1 1.03
-6 3 5 -0.45 0.47
5 -3 -5 1.27 0.81
5 -3 -5 1.55 1.27
5 -3 -5 2.21 1.27
-5 3 5 0.45 1.24
-5 3 5 1.38 0.63
4 -3 -5 5.43 1.56
4 -3 -5 7.11 2.51
4 -3 -5 9.45 2.36
-4 3 5 12.37 2.77
3 -3 -5 7.07 2.29
3 -3 -5 4.75 1.5
3 -3 -5 4.58 1.31
-3 3 5 4.85 1.64
2 -3 -5 -0.25 0.52
2 -3 -5 0.9 0.72
2 -3 -5 0.08 0.47
-2 3 5 1.6 1.26
-2 3 5 -0.21 0.72
1 -3 -5 172.42 14.77
1 -3 -5 180.7 16.72
1 -3 -5 190.1 14.75
-1 3 5 199.57 15.93
-1 3 5 210.4 17.05
0 -3 -5 40.23 3.68
0 -3 -5 33.93 4.39
0 3 5 36.47 3.76
0 3 5 33.84 4.38
-1 -3 -5 52.33 4.55
-1 -3 -5 51.47 5.56
-1 -3 -5 53.94 6.05
1 3 5 50.51 5.54
-2 -3 -5 17.98 2.65
-2 -3 -5 18.18 1.8
-2 -3 -5 24.46 3.64
2 3 5 17.66 3
2 3 5 21.35 2.75
-3 -3 -5 28.14 3.97
-3 -3 -5 23.41 3.07
-3 -3 -5 23.43 2.32
3 3 5 25.85 3.03
3 3 5 27.23 4.04
-4 -3 -5 3.45 0.8
-4 -3 -5 4.15 1.48
-4 -3 -5 5.81 2.22
-4 -3 -5 3.93 1.09
4 3 5 5.4 1.24
4 3 5 4.52 1.71
-5 -3 -5 2.09 0.75
-5 -3 -5 3.44 1.46
-5 -3 -5 3.74 1.81
5 3 5 -0.03 1.19
5 3 5 2.73 1.11
-6 -3 -5 7.82 2.74
-6 -3 -5 5.31 1.73
-6 -3 -5 3.6 1.17
6 3 5 3.13 1.66
-7 -3 -5 2.2 1.82
-7 -3 -5 3.72 1.38
-7 -3 -5 0.98 1.12
7 3 5 1.49 1.76
-8 -3 -5 2.23 1.52
-8 -3 -5 4.96 2.01
-8 -3 -5 9.63 3.14
8 3 5 4.22 1.35
8 3 5 0.88 1.87
-9 -3 -5 3.37 2.37
-9 -3 -5 1.28 1.21
-9 -3 -5 3.08 1.64
9 3 5 2.07 0.84
9 3 5 3 0.86
-10 -3 -5 -0.51 1.63
10 3 5 -0.43 2.27
10 3 5 0.54 0.56
10 3 5 -1.09 0.5
-11 -3 -5 -0.96 1.82
-11 -3 -5 0.77 1.27
-11 -3 -5 1.57 2.66
11 3 5 0.4 0.59
11 3 5 0.43 0.85
12 3 5 3.08 1.49
10 -4 -5 -0.29 2.2
9 -4 -5 -1.46 1.29
9 -4 -5 1.43 1.61
9 -4 -5 -0.58 1.4
-9 4 5 1.4 1.4
-9 4 5 -0.77 1.1
8 -4 -5 -0.79 1.01
8 -4 -5 -1.03 1.01
8 -4 -5 -0.74 1.57
8 -4 -5 -1.75 1.96
-8 4 5 0.74 1.25
-8 4 5 -0.28 2.11
-8 4 5 0.53 0.99
7 -4 -5 13.99 2.89
7 -4 -5 14.63 4.43
7 -4 -5 10.83 3.33
-7 4 5 9.86 2.31
-7 4 5 12.85 2.31
6 -4 -5 -0.61 0.91
6 -4 -5 0.18 1.68
6 -4 -5 1.26 1.49
-6 4 5 -0.24 1.27
-6 4 5 1.7 0.74
-6 4 5 1.18 0.75
5 -4 -5 0.76 0.96
5 -4 -5 0.15 0.75
5 -4 -5 0.03 1
-5 4 5 0.48 0.32
-5 4 5 0.44 0.31
-5 4 5 2.98 1.7
4 -4 -5 0.57 0.9
4 -4 -5 0.98 1.03
4 -4 -5 0.39 0.61
-4 4 5 0.62 0.96
-4 4 5 0.21 0.8
3 -4 -5 0.16 0.74
3 -4 -5 0.9 0.87
3 -4 -5 1.04 0.8
-3 4 5 -0.11 0.64
-3 4 5 0.78 0.71
2 -4 -5 11.42 2.54
2 -4 -5 16.6 3.73
2 -4 -5 19.03 2.56
-2 4 5 16.94 2.56
-2 4 5 19.65 4.22
1 -4 -5 10.49 1.03
1 -4 -5 14.97 1.93
1 -4 -5 9.67 2.67
-1 4 5 11.83 1.9
-1 4 5 10.33 2.4
0 -4 -5 7.01 1.6
0 -4 -5 10.4 1.36
0 -4 -5 8 2.45
0 -4 -5 7.19 2.12
0 4 5 10.24 1.46
0 4 5 10.83 2.51
-1 -4 -5 20.68 3.48
-1 -4 -5 20.93 2.66
-1 -4 -5 23.52 3.35
1 4 5 19.48 3.57
1 4 5 19.22 1.95
-2 -4 -5 94.09 9.21
-2 -4 -5 89.41 8.51
-2 -4 -5 77.06 9.18
2 4 5 78.02 8.99
2 4 5 102.87 8.95
-3 -4 -5 3.93 1.4
-3 -4 -5 6.69 2.19
3 4 5 3.94 1.93
3 4 5 6.65 1.82
-4 -4 -5 13.28 3.07
-4 -4 -5 12.48 2.42
4 4 5 12.48 2.42
4 4 5 10.08 2.41
-5 -4 -5 -0.32 0.68
-5 -4 -5 -0.37 1.3
-5 -4 -5 0.04 0.47
5 4 5 -1.84 1.14
5 4 5 0.03 0.5
-6 -4 -5 1.81 1.28
-6 -4 -5 2.55 2.23
-6 -4 -5 1.36 0.8
6 4 5 2.28 1.05
6 4 5 2.72 1.91
-7 -4 -5 22 3.14
-7 -4 -5 22.65 4.12
7 4 5 13.86 3.79
7 4 5 23.26 3.02
-8 -4 -5 1.41 1.13
-8 -4 -5 -0.42 2.68
-8 -4 -5 0.36 1.22
8 4 5 1.76 0.98
8 4 5 2.73 2.39
-9 -4 -5 12.14 3.71
-9 -4 -5 3.05 1.56
-9 -4 -5 0.39 1.32
9 4 5 3.1 1.34
-10 -4 -5 -1.28 1.01
-10 -4 -5 1.36 1.62
-10 -4 -5 1.89 1.7
-10 -4 -5 -1.71 1.64
10 4 5 0.5 2.61
10 4 5 0.81 1.16
-11 -4 -5 1.21 1.65
-11 -4 -5 -3.37 2.78
-11 -4 -5 -4.61 2.01
11 4 5 0.75 0.89
11 4 5 0.51 1.21
9 -5 -5 -1.79 2.32
9 -5 -5 1.54 2.65
9 -5 -5 0.68 2.33
-9 5 5 2.99 1.51
-9 5 5 5.45 1.8
8 -5 -5 1.11 1.3
8 -5 -5 -1.84 1.54
8 -5 -5 1.85 1.75
8 -5 -5 0.68 2.02
-8 5 5 4.34 2.62
-8 5 5 -0.23 0.71
7 -5 -5 4.1 2.85
7 -5 -5 7.96 2.3
7 -5 -5 3.41 2.04
-7 5 5 4.31 1.24
-7 5 5 0.76 2.29
-7 5 5 6.34 1.76
6 -5 -5 26.27 4.6
6 -5 -5 19.11 5.92
6 -5 -5 27.92 5.88
-6 5 5 26.39 3.43
-6 5 5 19.52 4.29
-6 5 5 21.47 2.8
5 -5 -5 1.46 1.42
5 -5 -5 0.47 1.14
5 -5 -5 4.62 1.89
-5 5 5 1.12 1.61
-5 5 5 0.46 0.41
-5 5 5 2.87 1.82
-5 5 5 0.98 0.44
4 -5 -5 5.88 2.13
4 -5 -5 11.44 3.59
4 -5 -5 5.64 2.57
-4 5 5 6.29 2.71
-4 5 5 3.59 2.46
3 -5 -5 23.74 5.13
3 -5 -5 25.86 3.52
3 -5 -5 24.11 3.69
-3 5 5 18.05 3.89
-3 5 5 24.41 4
2 -5 -5 1.27 1.3
2 -5 -5 -0.62 0.93
2 -5 -5 1.34 0.86
-2 5 5 1.22 0.91
-2 5 5 -0.6 0.95
1 -5 -5 0.94 1.11
1 -5 -5 0.22 0.42
-1 5 5 -0.1 0.38
-1 5 5 -0.31 0.78
0 -5 -5 11.99 2.74
0 -5 -5 11.66 1.81
0 5 5 8.43 1.38
0 5 5 8.33 2.44
-1 -5 -5 35.9 5.24
-1 -5 -5 43.59 5.61
-1 -5 -5 40.6 4.59
1 5 5 41.15 3.66
1 5 5 49.65 5.67
-2 -5 -5 12.42 2.61
-2 -5 -5 13.92 3.19
-2 -5 -5 14.06 3.38
2 5 5 8.66 2.39
2 5 5 9.23 2.75
-3 -5 -5 3.73 2.18
-3 -5 -5 5.19 1.74
-3 -5 -5 4.59 1.74
3 5 5 1.66 1.27
3 5 5 1.91 2.06
-4 -5 -5 4.34 2.19
-4 -5 -5 3.71 1.78
-4 -5 -5 1.62 1.01
4 5 5 3.86 2.26
4 5 5 3.8 1.55
-5 -5 -5 3.76 1.97
-5 -5 -5 6.55 2.69
-5 -5 -5 3.91 0.99
5 5 5 3.21 2.65
5 5 5 4.97 1.78
5 5 5 3.12 0.79
-6 -5 -5 0 0.58
-6 -5 -5 5.1 2.6
-6 -5 -5 0.38 1.11
-6 -5 -5 1.21 1.23
6 5 5 1.62 1.75
6 5 5 0.84 0.82
6 5 5 1.45 0.67
-7 -5 -5 0.7 1.82
-7 -5 -5 1.42 1.41
-7 -5 -5 1.61 1.41
-7 -5 -5 -0.59 0.93
7 5 5 4.01 1.45
7 5 5 0.77 1.83
7 5 5 2.55 1.13
-8 -5 -5 -1.79 2.12
-8 -5 -5 -0.33 1.04
8 5 5 -0.25 0.68
8 5 5 0.91 1.04
-9 -5 -5 10.44 4
-9 -5 -5 9.71 2.86
9 5 5 7.89 2.61
9 5 5 10.85 2.61
-10 -5 -5 -0.31 1.71
-10 -5 -5 -0.68 1.42
10 5 5 2.44 1.79
10 5 5 3.18 1.39
10 5 5 6.3 3.7
-11 -5 -5 0.68 1.52
-11 -5 -5 4.88 2.31
-11 -5 -5 0.07 2.2
11 5 5 2.67 1.81
11 5 5 1.5 1.39
9 -6 -5 -3.38 2.27
-9 6 5 0.14 1.26
-9 6 5 1.33 1.41
8 -6 -5 2.76 1.61
8 -6 -5 1.16 2.25
-8 6 5 -0.34 1.47
-8 6 5 -0.02 0.78
7 -6 -5 4.79 2.21
7 -6 -5 9.18 3.85
-7 6 5 0.81 1.97
-7 6 5 3.23 1.21
6 -6 -5 -1.34 1.61
6 -6 -5 -0.1 1.26
-6 6 5 0.69 0.62
-6 6 5 -2.47 0.95
5 -6 -5 10.79 3.87
5 -6 -5 11.18 3.11
-5 6 5 8.2 2.83
-5 6 5 10.02 1.56
-5 6 5 10.93 3.39
4 -6 -5 4.38 2.07
4 -6 -5 10.85 3.54
-4 6 5 6.02 2.65
-4 6 5 10.34 2.61
-4 6 5 7.73 1.49
3 -6 -5 4.08 2.36
3 -6 -5 6.12 2.18
-3 6 5 6.78 1.34
-3 6 5 10.53 2.54
-3 6 5 9.76 3.64
2 -6 -5 1.52 1.37
2 -6 -5 1.65 1.24
-2 6 5 1.41 1.84
-2 6 5 1.46 0.67
-2 6 5 2.05 1.28
1 -6 -5 12.05 2.79
1 -6 -5 7.59 2.71
1 -6 -5 6.94 2.4
1 -6 -5 10.54 2.05
-1 6 5 11.47 4.98
-1 6 5 9.39 1.83
-1 6 5 10.06 1.9
0 -6 -5 4.32 2.05
0 -6 -5 4.49 1.42
0 -6 -5 2.76 1.88
0 6 5 6.08 1.29
0 6 5 8.03 2.56
-1 -6 -5 4.35 1.53
-1 -6 -5 3.43 1.81
-1 -6 -5 3.81 2.25
1 6 5 2.74 1.58
1 6 5 3.88 0.86
-2 -6 -5 2.05 1.51
-2 -6 -5 1.89 1.38
-2 -6 -5 0 0.6
2 6 5 0.15 0.57
2 6 5 0.21 0.25
2 6 5 -0.29 0.25
-3 -6 -5 31.17 4.48
-3 -6 -5 27.56 4.58
-3 -6 -5 24.32 4.51
3 6 5 25.71 2.21
3 6 5 25.3 3.85
3 6 5 20.76 2.18
-4 -6 -5 2.59 1.69
-4 -6 -5 0.97 1.1
-4 -6 -5 5.79 2.34
4 6 5 0.88 1.11
4 6 5 3.5 1.89
4 6 5 2.49 0.53
-5 -6 -5 0.61 2
-5 -6 -5 0.75 1.27
5 6 5 2.61 1.63
5 6 5 1.58 1.82
5 6 5 2.17 0.66
-6 -6 -5 31.69 5.49
-6 -6 -5 38.23 5.93
6 6 5 36.08 3.76
6 6 5 38.07 5.2
-7 -6 -5 0.63 1.35
-7 -6 -5 1.47 2.88
-7 -6 -5 0.17 0.78
-7 -6 -5 -0.19 0.99
7 6 5 -0.12 0.57
7 6 5 0.5 0.97
-8 -6 -5 9.26 3
-8 -6 -5 8.81 2.21
-8 -6 -5 10.31 3.05
8 6 5 14.81 2.84
8 6 5 11.53 3.14
-9 -6 -5 -0.77 1.11
-9 -6 -5 1.11 1.64
-9 -6 -5 0.17 1.24
-9 -6 -5 -1.46 1.63
9 6 5 0.49 0.94
-10 -6 -5 0.27 1.17
-10 -6 -5 1.24 1.63
-10 -6 -5 6.67 2.92
10 6 5 2.57 1.92
-11 -6 -5 -1.01 1.89
-11 -6 -5 0.52 1.71
-11 -6 -5 4.03 3.02
11 6 5 2.06 2.1
11 6 5 4.02 1.91
8 -7 -5 -0.06 2.16
-8 7 5 0.64 1.26
7 -7 -5 -0.84 1.33
7 -7 -5 -1.42 1.72
-7 7 5 1.22 2.31
-7 7 5 3.52 3.04
6 -7 -5 4.56 2.44
6 -7 -5 2.52 2.33
-6 7 5 4.51 2.62
-6 7 5 0.47 1.54
-6 7 5 2.53 1.59
5 -7 -5 -0.2 2.23
5 -7 -5 -1.25 1.42
-5 7 5 0.21 0.68
-5 7 5 5.29 2.11
-5 7 5 0.53 1.57
4 -7 -5 -0.28 0.65
4 -7 -5 -0.6 1.36
-4 7 5 0.57 1.18
-4 7 5 -0.12 1.11
-4 7 5 -0.42 0.45
3 -7 -5 0.31 0.48
3 -7 -5 1.12 1.3
-3 7 5 0.05 1.15
-3 7 5 -0.62 0.5
2 -7 -5 22.56 4.53
2 -7 -5 29.37 3.8
2 -7 -5 29.14 6.05
-2 7 5 26.49 5.18
-2 7 5 26.41 3.4
-2 7 5 25.38 3.63
1 -7 -5 3.17 1.17
1 -7 -5 0.33 1.98
1 -7 -5 1.3 1.23
1 -7 -5 -0.67 1.22
-1 7 5 1.08 0.8
-1 7 5 3.48 1.9
0 -7 -5 2.65 1.24
0 -7 -5 0.41 1.31
0 -7 -5 1.24 1.37
0 -7 -5 1.09 1.07
0 7 5 -0.24 0.75
0 7 5 1 0.85
0 7 5 0.72 0.71
-1 -7 -5 -0.62 1.11
-1 -7 -5 1.15 1.03
-1 -7 -5 -0.73 0.43
1 7 5 0.51 0.48
1 7 5 0.81 0.92
1 7 5 1.24 1.05
-2 -7 -5 3.92 2.47
-2 -7 -5 4.4 1.77
-2 -7 -5 1.78 1.52
2 7 5 1.6 0.62
2 7 5 2.75 1.69
-3 -7 -5 -0.11 0.88
-3 -7 -5 5.05 2.61
-3 -7 -5 0.65 0.93
3 7 5 0.05 1.9
3 7 5 -0.15 0.92
3 7 5 0.46 0.45
-4 -7 -5 0.1 1.42
-4 -7 -5 2.06 1.51
-4 -7 -5 3.2 2.36
4 7 5 3.01 0.81
4 7 5 3.11 2.32
4 7 5 5.59 3.29
-5 -7 -5 8.12 3.35
-5 -7 -5 7.67 2.86
5 7 5 6.59 2.82
5 7 5 9.66 1.55
5 7 5 13.27 3.36
-6 -7 -5 -0.4 2.92
-6 -7 -5 -0.77 1.26
6 7 5 0.89 2.35
6 7 5 0.93 1.27
6 7 5 0.28 0.59
-7 -7 -5 4.01 2.92
-7 -7 -5 13.7 3.88
7 7 5 1.87 1.03
7 7 5 3.58 2.49
7 7 5 -0.25 1.23
-8 -7 -5 -0.74 1.6
-8 -7 -5 -1.23 2.87
-8 -7 -5 -1.2 1.09
8 7 5 0.17 0.89
8 7 5 -0.61 4.52
-9 -7 -5 1.8 2.88
-9 -7 -5 1.64 1.01
-9 -7 -5 0.1 3.42
9 7 5 -2.31 1.69
9 7 5 0.04 3.22
9 7 5 1.86 1.09
-10 -7 -5 0.63 2.6
-10 -7 -5 -3.23 1.57
-10 -7 -5 1.87 1.64
10 7 5 3.34 1.56
10 7 5 1.3 1.88
7 -8 -5 1.41 1.53
-7 8 5 1.39 1.28
6 -8 -5 3.05 2.1
6 -8 -5 0.62 1.7
-6 8 5 2.57 1.95
-6 8 5 0.15 0.86
5 -8 -5 -0.61 1.61
5 -8 -5 -2.19 1.43
-5 8 5 -0.45 0.82
4 -8 -5 -1.37 1.51
4 -8 -5 0.73 1.08
-4 8 5 -0.3 0.82
-4 8 5 0.27 1.84
-4 8 5 1.13 1.45
3 -8 -5 2.37 2.02
3 -8 -5 1.38 1.35
-3 8 5 4.72 2.56
-3 8 5 3.68 1.24
-3 8 5 3.7 1.67
2 -8 -5 3.81 1.94
2 -8 -5 -0.95 2.2
2 -8 -5 2.4 1.87
2 -8 -5 1.7 1.3
-2 8 5 0.82 1.14
-2 8 5 2.8 1.48
1 -8 -5 5.06 1.99
1 -8 -5 4.82 2.23
1 -8 -5 2.36 1.98
1 -8 -5 5.99 2.5
-1 8 5 6.61 2.12
-1 8 5 5.66 1.76
0 -8 -5 1.22 1.1
0 -8 -5 -0.75 1.93
0 -8 -5 1.02 1.3
0 -8 -5 -1.38 0.82
0 8 5 0.56 0.74
0 8 5 0.97 1.14
0 8 5 1.5 0.85
-1 -8 -5 -0.08 2.04
-1 -8 -5 0.09 1.38
-1 -8 -5 -0.52 1.01
1 8 5 0.25 1.05
1 8 5 0.24 0.63
1 8 5 1.76 1.97
-2 -8 -5 3.28 2.17
-2 -8 -5 1.56 1.52
-2 -8 -5 0.21 1.23
2 8 5 -0.2 0.5
2 8 5 -0.39 0.6
-3 -8 -5 22.94 4.97
-3 -8 -5 14.22 3.56
-3 -8 -5 12.3 3.61
3 8 5 11.3 3.67
3 8 5 16.21 3.96
3 8 5 11.35 2.17
-4 -8 -5 1.83 1.7
-4 -8 -5 0.91 1.96
-4 -8 -5 0.6 1.73
4 8 5 2.97 2.78
4 8 5 2.87 1.08
4 8 5 0.85 1.88
-5 -8 -5 3.66 3.43
-5 -8 -5 3.02 2.61
5 8 5 8.82 1.7
5 8 5 0.53 2.42
5 8 5 9.76 3.19
-6 -8 -5 0.94 2.55
-6 -8 -5 0.61 1.26
6 8 5 -0.87 1.65
6 8 5 1.35 0.78
6 8 5 4.97 2.79
-7 -8 -5 -3.77 3.27
-7 -8 -5 1.81 3.13
7 8 5 -0.67 1.13
7 8 5 0.8 3.35
7 8 5 3.16 1.14
-8 -8 -5 0.2 1.43
-8 -8 -5 1.86 2.74
-8 -8 -5 1.27 2.21
8 8 5 3.05 3.08
8 8 5 0.31 1.05
8 8 5 1.06 1.66
-9 -8 -5 1.83 2.9
-9 -8 -5 -0.74 1.35
9 8 5 -1.95 2.1
9 8 5 1.85 1.1
-10 -8 -5 2.98 1.94
-10 -8 -5 -4.33 4.31
10 8 5 -3.31 3.24
10 8 5 1.6 1.46
6 -9 -5 2.58 2.14
-6 9 5 0.44 1.23
5 -9 -5 1.91 1.19
-5 9 5 -0.83 1.19
-5 9 5 0.86 1.89
4 -9 -5 6.93 2.57
4 -9 -5 7.79 3.41
-4 9 5 7.54 2.3
-4 9 5 5.78 2.44
3 -9 -5 -0.5 1.51
3 -9 -5 1.41 1.42
3 -9 -5 3.06 2.87
-3 9 5 -1.3 1.29
-3 9 5 -0.77 2.03
-3 9 5 -0.09 0.85
2 -9 -5 0.05 1.91
2 -9 -5 -1.44 0.97
2 -9 -5 -0.38 0.79
2 -9 -5 -4.8 2.62
-2 9 5 -0.03 0.72
-2 9 5 0.26 1.13
-2 9 5 1.15 1.32
1 -9 -5 1.26 2.16
1 -9 -5 1.42 1.54
1 -9 -5 5.2 2.46
-1 9 5 2.24 1.59
-1 9 5 1.47 1.24
0 -9 -5 0.04 1.67
0 -9 -5 -1.13 1.02
0 -9 -5 -1.04 1.84
0 9 5 -0.25 0.95
0 9 5 1.6 0.95
-1 -9 -5 4.33 2.25
-1 -9 -5 4.14 2.49
1 9 5 6.27 2.27
1 9 5 2.6 1.86
1 9 5 2.64 1.15
-2 -9 -5 -0.27 1.61
-2 -9 -5 -2.94 2.27
-2 -9 -5 -2.75 1.38
2 9 5 0.32 1.13
2 9 5 1.51 1.38
-3 -9 -5 1.61 2.11
-3 -9 -5 4.87 2.42
-3 -9 -5 -0.02 2.57
3 9 5 4.3 2.35
3 9 5 6.72 1.69
3 9 5 9.89 3.08
-4 -9 -5 0.07 1.75
-4 -9 -5 3.26 4.41
4 9 5 2.62 1.38
4 9 5 2.36 1.85
4 9 5 1.33 2.72
-5 -9 -5 -1 2.37
-5 -9 -5 -1.36 1.53
5 9 5 -0.48 1.97
5 9 5 -0.19 0.76
-6 -9 -5 3.62 2.83
6 9 5 4.71 1.45
6 9 5 3.81 4.29
-7 -9 -5 4.79 2.75
-7 -9 -5 -3.55 2.1
7 9 5 1.07 1.18
7 9 5 0.79 3.05
-8 -9 -5 1.37 3.22
8 9 5 0.68 1.1
8 9 5 0.9 3.3
-9 -9 -5 5.06 3.69
-9 -9 -5 4 2.19
9 9 5 0.78 2.84
9 9 5 -1.33 1.29
5 -10 -5 2.48 1.9
5 -10 -5 8.28 3.87
-5 10 5 -1.37 1.31
4 -10 -5 -2.27 1.89
4 -10 -5 -4.45 2.57
-4 10 5 1.55 1.61
-4 10 5 -1.12 1.39
3 -10 -5 7.67 2.66
3 -10 -5 4.87 2.52
-3 10 5 1.61 1.4
2 -10 -5 1.4 2.63
2 -10 -5 0.82 1.77
2 -10 -5 -1.2 1.68
-2 10 5 -0.46 1.15
-2 10 5 -0.17 1.43
-2 10 5 -0.9 2.23
1 -10 -5 -0.25 2.2
1 -10 -5 -3.59 1.45
1 -10 -5 2.83 2.14
1 -10 -5 0.22 1.72
-1 10 5 0.04 1.1
-1 10 5 -0.62 1.33
-1 10 5 -0.61 1.79
0 -10 -5 0.23 1.7
0 -10 -5 2.5 2.09
0 -10 -5 0.18 1.94
0 -10 -5 4.36 3.14
0 10 5 -1.24 1.13
0 10 5 0.31 1.32
-1 -10 -5 0.86 1.79
-1 -10 -5 2.85 2.07
-1 -10 -5 1.58 1.57
-1 -10 -5 1.43 2.6
1 10 5 -0.46 1.57
1 10 5 -0.81 0.9
-2 -10 -5 -0.9 1.12
-2 -10 -5 0.13 2.64
-2 -10 -5 8.54 3.68
-2 -10 -5 0.05 1.9
2 10 5 -1.69 1.35
-3 -10 -5 -0.06 1.75
-3 -10 -5 3.34 3.34
-3 -10 -5 2.72 2.51
-3 -10 -5 0.54 2.66
3 10 5 2.75 2.32
3 10 5 4.19 1.73
3 10 5 8.39 2.92
-4 -10 -5 -0.38 2.93
-4 -10 -5 -0.07 2.1
4 10 5 3.85 2.44
4 10 5 0.61 0.92
-5 -10 -5 -1.56 2
-5 -10 -5 3.07 2.92
5 10 5 -0.5 1.07
5 10 5 -2.26 1.57
-6 -10 -5 -0.53 1.59
-6 -10 -5 5.03 3.48
6 10 5 2 2.29
6 10 5 -0.71 1.2
-7 -10 -5 0.06 2.86
7 10 5 -4.33 2.38
7 10 5 -2.09 1.03
-8 -10 -5 -1.9 3.24
8 10 5 -0.95 1.36
3 -11 -5 -0.88 4.34
3 -11 -5 -0.89 3.18
-3 11 5 2.51 2.33
-3 11 5 0.31 1.45
2 -11 -5 -0.59 2.11
2 -11 -5 3.78 2.93
2 -11 -5 -0.31 2.44
-2 11 5 0.63 1.61
1 -11 -5 -1.23 1.56
1 -11 -5 -3.17 2.89
1 -11 -5 -0.81 2.27
-1 11 5 -0.27 1.67
-1 11 5 -1.64 2.45
0 -11 -5 2.8 2.97
0 -11 -5 -0.48 1.62
0 -11 -5 -1.97 1.61
0 11 5 3.31 1.59
0 11 5 -2.77 1.09
-1 -11 -5 1.1 2.22
-1 -11 -5 1.39 1.83
-1 -11 -5 2.08 3.25
1 11 5 0.36 1.4
1 11 5 0.68 1.23
-2 -11 -5 0.26 1.38
-2 -11 -5 2.55 2.87
2 11 5 0.63 1.38
2 11 5 2.12 1.4
-3 -11 -5 1.53 2.85
-3 -11 -5 5.78 2.97
3 11 5 2.93 1.6
3 11 5 4.23 2.7
-4 -11 -5 0.34 3.28
-4 -11 -5 3.57 2.97
4 11 5 0.07 1.4
4 11 5 2.91 2.36
-5 -11 -5 4.69 3.65
5 11 5 1.18 1.2
-6 -11 -5 3.88 3.85
6 11 5 0.15 1.47
-7 -11 -5 5.28 3.8
1 -12 -5 1.62 2.21
0 -12 -5 0.4 2.98
0 -12 -5 5.98 3.81
0 -12 -5 1.92 2.01
-1 -12 -5 9.12 4.05
-1 -12 -5 -1.37 2.8
-1 -12 -5 1.75 2.04
1 12 5 1.09 1.91
1 12 5 1.36 1.71
-2 -12 -5 4.27 3.88
-2 -12 -5 2.54 3.18
2 12 5 -1.11 1.68
2 12 5 0.82 1.76
2 12 5 0.02 1.83
-3 -12 -5 0.31 3.82
3 12 5 0.47 1.63
3 12 5 -0.88 1.54
-4 -12 -5 1.74 4
4 12 5 0.23 2.09
2 7 -6 -1.52 2.35
-2 -7 6 -0.45 1.27
1 7 -6 3.63 2.92
-1 -7 6 1.63 1.65
0 7 -6 -2.27 2.34
0 -7 6 1.86 1.8
-1 7 -6 -2.47 2.35
-1 7 -6 1.79 2.06
1 -7 6 1.57 2.21
-2 7 -6 1.38 2.96
-2 7 -6 -2.97 2.82
2 -7 6 -1.17 2.64
5 6 -6 0.45 1.8
4 6 -6 -1.2 1.21
4 6 -6 -3.04 2.37
4 6 -6 0.87 2.57
3 6 -6 1.14 2.75
3 6 -6 2.54 2.63
2 6 -6 3.5 2.05
2 6 -6 -1.47 2.32
2 6 -6 1.78 3.08
-2 -6 6 1.31 0.96
1 6 -6 1.4 1.87
1 6 -6 -1.57 1.68
1 6 -6 -3.45 1.72
-1 -6 6 -0.3 1.16
0 6 -6 3.18 2.8
0 6 -6 1.48 1.84
0 6 -6 5.07 2.27
0 -6 6 2.3 1.58
-1 6 -6 1.32 2.39
-1 6 -6 -0.78 0.93
-1 6 -6 -0.01 1.92
1 -6 6 1.83 1.56
-2 6 -6 -2.18 1.07
-2 6 -6 1.96 1.87
2 -6 6 -1.6 1.33
-3 6 -6 -1.24 1.95
-3 6 -6 0.77 1.42
-3 6 -6 -0.57 1.94
3 -6 6 2.01 1.71
-4 6 -6 -1.92 2.11
4 -6 6 -4.03 1.87
-5 6 -6 1.88 2.23
-5 6 -6 1.65 1.38
-5 6 -6 2.6 3.52
6 5 -6 1.81 2.36
6 5 -6 1.84 2.68
6 5 -6 0.64 1.94
5 5 -6 -5.21 2.14
5 5 -6 7.73 2.39
5 5 -6 -2.13 1.27
-5 -5 6 4.16 3.06
4 5 -6 -1.32 1.79
4 5 -6 1.87 1.98
4 5 -6 0.87 1.24
-4 -5 6 0.07 2.09
3 5 -6 0.9 2.07
3 5 -6 1.7 1.16
3 5 -6 0.2 2.08
-3 -5 6 -1.92 2.11
2 5 -6 1.3 0.76
2 5 -6 2.24 2.03
2 5 -6 3.35 2.43
-2 -5 6 5.82 3.25
-2 -5 6 3.66 1.13
1 5 -6 3.5 1.86
1 5 -6 2.37 1.99
1 5 -6 7.85 3.42
-1 -5 6 4.26 2.97
-1 -5 6 3.27 1.34
0 5 -6 -1.07 1.37
0 5 -6 -1.07 1.09
0 5 -6 -2.85 1.38
0 -5 6 0.56 1.06
0 -5 6 1.41 2.09
-1 5 -6 4.7 2.79
-1 5 -6 7.58 2.78
1 -5 6 5.35 1.79
-2 5 -6 0.47 1.54
-2 5 -6 -0.02 1
-2 5 -6 0.3 1.84
2 -5 6 -0.68 1.28
-3 5 -6 -2.27 1.25
-3 5 -6 1.03 1.42
-3 5 -6 -1.27 1.17
3 -5 6 1.26 1.66
-4 5 -6 -0.21 1.39
-4 5 -6 -2.15 1.15
-4 5 -6 2.69 1.92
-5 5 -6 -1.04 1.14
-5 5 -6 -1.32 1.91
-5 5 -6 4.2 2.95
5 -5 6 -0.09 2.14
-6 5 -6 1.26 1.64
-6 5 -6 1.71 2.32
-6 5 -6 1.89 1.83
-7 5 -6 4.7 2.94
-7 5 -6 1.08 1.43
7 4 -6 6.41 3.11
7 4 -6 -0.78 2.06
7 4 -6 1.32 2.51
-7 -4 6 2.23 3.21
6 4 -6 1.8 1.91
6 4 -6 9.14 2.85
-6 -4 6 0.73 2.25
5 4 -6 -2.52 2.05
5 4 -6 3.24 2.08
5 4 -6 3.46 2.43
-5 -4 6 1.54 2.41
4 4 -6 -0.69 1.24
4 4 -6 0.02 1.26
3 4 -6 -0.63 1.58
3 4 -6 1.33 1.57
3 4 -6 -0.61 0.84
-3 -4 6 0.13 1.58
2 4 -6 0.29 1.79
2 4 -6 4.03 2.53
2 4 -6 1.49 0.83
-2 -4 6 5.47 2.88
1 4 -6 3.05 2.17
1 4 -6 0.7 1.43
-1 -4 6 0.39 0.66
-1 -4 6 1.57 2.03
0 4 -6 2.94 1.85
0 4 -6 0.6 1.44
0 4 -6 -0.72 0.57
0 -4 6 1.73 2.24
0 -4 6 -1.47 0.84
-1 4 -6 0.6 0.88
-1 4 -6 0.03 1.39
1 -4 6 0.44 1.03
-2 4 -6 3.64 1.64
-2 4 -6 0.25 1.6
-2 4 -6 3.44 1.98
2 -4 6 3.82 1.76
-3 4 -6 -0.35 1.13
-3 4 -6 -3.18 1.4
-3 4 -6 1.95 1
3 -4 6 1.06 1.23
-4 4 -6 0.44 1.13
-4 4 -6 1.72 1.72
-4 4 -6 0.85 2.18
4 -4 6 0.82 1.39
-5 4 -6 0.2 1.15
-5 4 -6 -0.48 1.19
-5 4 -6 -2.11 1.07
-6 4 -6 0.95 1.39
-6 4 -6 3.17 2.28
-6 4 -6 -0.18 1.08
6 -4 6 -3.19 1.71
-7 4 -6 6.8 3.14
-7 4 -6 0.57 1.54
-7 4 -6 -0.5 0.76
7 -4 6 -0.79 1.46
-8 4 -6 2.75 2.66
-8 4 -6 -2.05 2.02
8 -4 6 3.09 2.42
8 3 -6 -2.19 2.02
8 3 -6 4.92 2.84
-8 -3 6 -6.17 2.49
7 3 -6 0.61 2.67
7 3 -6 -1.56 1.25
6 3 -6 2.33 2.29
6 3 -6 2.29 1.22
6 3 -6 0.29 1.75
-6 -3 6 2.29 2.39
5 3 -6 2.97 2.26
5 3 -6 -0.57 1.51
5 3 -6 2.58 2.03
-5 -3 6 0.04 1.67
4 3 -6 -1.84 1.39
4 3 -6 2.11 1.93
4 3 -6 0.72 1.39
-4 -3 6 -0.1 1.6
3 3 -6 16.37 3.11
3 3 -6 9.54 3.68
3 3 -6 13.06 3.79
-3 -3 6 16.59 4.97
2 3 -6 1.05 3.2
2 3 -6 2.69 1.67
2 3 -6 3.44 1.34
-2 -3 6 -1.93 1.71
1 3 -6 0.9 1.4
1 3 -6 -0.59 0.56
1 3 -6 0.76 0.53
1 3 -6 0.02 1.47
-1 -3 6 0.96 0.65
-1 -3 6 -0.09 1.66
0 3 -6 2.1 2.14
0 3 -6 5.02 2.25
0 3 -6 3.94 1.25
0 -3 6 2.56 2.1
0 -3 6 3.35 1.07
-1 3 -6 -0.68 1.02
-1 3 -6 0.23 0.72
1 -3 6 1.32 0.96
-2 3 -6 2.26 1.19
-2 3 -6 8 3.26
-2 3 -6 4.15 1.88
2 -3 6 2.72 1.38
-3 3 -6 2.39 1.74
-3 3 -6 4.13 1.57
-3 3 -6 7.4 5.15
3 -3 6 2.12 1.46
-4 3 -6 0.6 1.44
-4 3 -6 -1.74 0.75
-4 3 -6 0.21 0.94
4 -3 6 0.2 1.33
-5 3 -6 2.04 1.23
-5 3 -6 2.92 1.89
-5 3 -6 4.72 2.13
5 -3 6 4.21 1.7
-6 3 -6 2.22 1.7
-6 3 -6 2.1 2.43
-6 3 -6 1.94 0.98
6 -3 6 1.51 1.68
6 -3 6 2.01 2
-7 3 -6 0.75 0.99
-7 3 -6 1.43 2.17
-7 3 -6 1.06 2.02
7 -3 6 2.38 1.89
7 -3 6 0.28 1.86
-8 3 -6 0.84 1.71
-8 3 -6 -1.29 1.68
8 -3 6 2.42 2.34
-9 3 -6 0.16 2.93
-9 3 -6 1.46 2.32
9 -3 6 0.69 2.96
8 2 -6 -3.99 2.62
8 2 -6 -0.73 2.01
-8 -2 6 -1.86 2.7
7 2 -6 5.39 3.01
7 2 -6 8.93 2.67
-7 -2 6 9.36 3.43
6 2 -6 1.03 1.52
6 2 -6 3.64 2.34
6 2 -6 0.12 1.2
-6 -2 6 0.06 1.57
5 2 -6 7.61 3.06
5 2 -6 14.37 3.69
5 2 -6 10.21 3.27
-5 -2 6 6.88 3.01
4 2 -6 11.53 2.85
4 2 -6 8 2.75
4 2 -6 4.82 2.35
-4 -2 6 1.38 2.13
3 2 -6 3.3 1.97
3 2 -6 12.27 3.47
3 2 -6 7.65 2.11
-3 -2 6 1.46 2.25
2 2 -6 16.59 4.04
2 2 -6 16.87 3.88
2 2 -6 15.98 2.56
-2 -2 6 15.64 6.97
1 2 -6 21.08 2.46
1 2 -6 20.05 4.68
1 2 -6 21.98 2.72
-1 -2 6 31.31 7.08
0 2 -6 0.26 1.15
0 2 -6 0.04 0.72
0 2 -6 -0.11 1.14
0 -2 6 -0.86 0.54
0 -2 6 -2.14 1.03
-1 2 -6 0.31 0.14
-1 2 -6 0.89 0.62
-1 2 -6 0.27 0.2
-1 2 -6 0.86 0.92
1 -2 6 -0.31 0.6
-2 2 -6 -0.4 0.7
-2 2 -6 2.87 1.69
2 -2 6 -0.73 0.85
-3 2 -6 3.51 1.42
-3 2 -6 1.58 1.19
-3 2 -6 3.15 1.9
3 -2 6 3.5 1.69
-4 2 -6 -0.12 0.67
-4 2 -6 -0.01 1.46
-4 2 -6 0.21 0.85
4 -2 6 0.99 1.09
-5 2 -6 0.97 1.11
-5 2 -6 0.17 0.56
-5 2 -6 -0.25 1.39
5 -2 6 -0.97 0.98
5 -2 6 4.51 1.72
-6 2 -6 4.53 1.83
-6 2 -6 2.42 0.47
-6 2 -6 1.75 2.3
6 -2 6 1.16 1.72
-7 2 -6 1.43 1.57
-7 2 -6 0.09 1.07
-7 2 -6 1.78 1.77
7 -2 6 -0.11 1.52
-8 2 -6 4.97 2.15
-8 2 -6 1.08 1.76
-8 2 -6 0.44 1.34
8 -2 6 -2.49 2.22
8 -2 6 1 2.1
-9 2 -6 2.11 3.02
-9 2 -6 2.6 1.59
9 -2 6 -2.4 2.47
-10 2 -6 3.74 1.97
9 1 -6 4.57 2.19
9 1 -6 2.1 2.56
-9 -1 6 -4.59 2.04
8 1 -6 2.7 2.07
8 1 -6 1.31 1.71
8 1 -6 2.39 3.21
-8 -1 6 0.07 2.17
7 1 -6 7.79 2.92
7 1 -6 8.96 3.45
-7 -1 6 0.62 2.87
-7 -1 6 3.46 2.34
6 1 -6 1.15 1.74
6 1 -6 1.22 1.57
6 1 -6 0.43 1.11
-6 -1 6 0.33 1.81
-6 -1 6 0.29 2.68
5 1 -6 24.63 4.73
5 1 -6 13.82 3.77
5 1 -6 17.56 3.66
-5 -1 6 14.67 3.82
-5 -1 6 10.44 3.36
4 1 -6 63.9 8.31
4 1 -6 66.16 7.61
4 1 -6 62.14 7.55
-4 -1 6 62.37 7.94
3 1 -6 0.5 1.31
3 1 -6 2.89 1.76
3 1 -6 0.61 1.12
-3 -1 6 -0.37 1.09
2 1 -6 0.41 1.19
2 1 -6 0.26 0.98
-2 -1 6 2.9 1.76
1 1 -6 21.16 2.24
1 1 -6 19.79 3.91
1 1 -6 19.35 4.33
-1 -1 6 20.85 4.6
0 1 -6 15.91 1.95
0 1 -6 13.59 3.2
0 1 -6 9.69 3.05
0 1 -6 12.96 2.27
-1 1 -6 5.06 1.34
-1 1 -6 6.97 1.5
-1 1 -6 5.45 2.37
1 -1 6 4.51 1.43
-2 1 -6 24.89 3.19
-2 1 -6 22.56 2.59
-2 1 -6 24.25 5.14
-3 1 -6 1.97 1.07
-3 1 -6 3.52 2.16
-3 1 -6 2.1 1.08
-3 1 -6 2.9 0.88
3 -1 6 1.06 1.07
-4 1 -6 4.85 1.31
-4 1 -6 5.92 1.8
-4 1 -6 4.85 1.3
-4 1 -6 3.57 1.95
4 -1 6 2.42 1.1
4 -1 6 2.6 1.65
-5 1 -6 1.96 0.44
-5 1 -6 1.68 1.31
-5 1 -6 1.88 1.31
-5 1 -6 2.7 1.84
-5 1 -6 2.21 0.42
5 -1 6 3.34 1.7
-6 1 -6 3.16 1.79
-6 1 -6 6.29 2.63
-6 1 -6 3.83 1.54
-6 1 -6 3.72 1.74
6 -1 6 0.78 1.42
6 -1 6 9.34 2.6
-7 1 -6 1.6 1.64
-7 1 -6 -1.56 1.04
-7 1 -6 1.95 1.22
7 -1 6 1.66 1.46
-8 1 -6 1.02 1.64
-8 1 -6 1.64 1.19
8 -1 6 -1.26 1.03
8 -1 6 -0.71 1.61
-9 1 -6 0.24 0.98
-9 1 -6 5.41 2.1
9 -1 6 0.31 2.45
-10 1 -6 2.63 2.52
9 0 -6 4.65 2.37
-9 0 6 -0.78 2.36
8 0 -6 4.38 2.06
8 0 -6 9.67 3.26
-8 0 6 2.24 2
7 0 -6 2 1.69
7 0 -6 -0.96 1.35
7 0 -6 2.59 1.86
-7 0 6 2.86 1.56
-7 0 6 4.37 2.2
6 0 -6 -0.43 1.52
6 0 -6 0.09 1.13
6 0 -6 0.77 0.77
-6 0 6 -1.43 1.08
5 0 -6 9.39 3.13
5 0 -6 8.29 2.56
5 0 -6 8.97 2.41
-5 0 6 11.33 2.86
-5 0 6 9.75 3.36
4 0 -6 7.83 2.35
4 0 -6 6.77 2
-4 0 6 9.21 2.53
-4 0 6 5.31 2.91
3 0 -6 41.62 4.73
3 0 -6 34.74 4.59
-3 0 6 22.84 4.96
-3 0 6 37.92 5.02
2 0 -6 2.96 1.58
2 0 -6 5.97 0.73
2 0 -6 5.02 1.81
-2 0 6 6.28 2.04
1 0 -6 11.09 2.79
1 0 -6 11.09 2.5
1 0 -6 12.55 1.58
-1 0 6 15.35 3.43
0 0 -6 4.58 1.75
0 0 -6 5.57 1.86
0 0 -6 4.23 1.03
-1 0 -6 0.38 1.07
-1 0 -6 1.79 0.82
-1 0 -6 2.02 1.14
-1 0 -6 1.19 1.31
-2 0 -6 58.57 5.46
-2 0 -6 46.75 5.25
-2 0 -6 52.94 6.84
-3 0 -6 33.7 4.18
-3 0 -6 45.28 6.08
3 0 6 35.3 4.48
-4 0 -6 2.4 0.69
-4 0 -6 1.46 1.41
-4 0 -6 1.12 0.97
-4 0 -6 0.83 0.41
-4 0 -6 3.47 1.85
4 0 6 0.86 1.31
4 0 6 1.6 1.2
-5 0 -6 14.84 2.91
5 0 6 8.75 2.33
5 0 6 15.21 3.38
-6 0 -6 0.55 1.13
-6 0 -6 5.19 1.69
-6 0 -6 1.16 1.1
6 0 6 -0.1 1.26
6 0 6 -0.59 1.12
-7 0 -6 -0.64 1.16
-7 0 -6 0 1.38
-7 0 -6 0 0.79
7 0 6 -1.27 1.36
-8 0 -6 1.29 1
-8 0 -6 -2.18 1.23
-8 0 -6 1.42 1.58
8 0 6 0.85 1.85
-9 0 -6 2.41 1.73
-9 0 -6 -1.06 1.03
9 0 6 -2.28 2.18
9 0 6 2.33 1.9
-10 0 -6 0.65 1.27
-10 0 -6 0.77 1.77
11 0 6 5.16 4.65
9 -1 -6 -3.73 2.07
9 -1 -6 0.76 1.12
8 -1 -6 0.31 1.92
8 -1 -6 0.14 1.89
8 -1 -6 0.72 1.07
-8 1 6 -1.12 1.28
7 -1 -6 -0.47 1.05
7 -1 -6 0.29 0.49
7 -1 -6 3.15 2.55
7 -1 -6 -0.68 1.16
-7 1 6 0.62 1.13
6 -1 -6 -1.05 0.83
6 -1 -6 1.15 1.62
6 -1 -6 0.69 1.1
-6 1 6 1.74 1.69
-6 1 6 0.85 0.84
5 -1 -6 6.01 2.24
5 -1 -6 7.94 2.76
5 -1 -6 7.02 1.42
-5 1 6 13.05 3.65
-5 1 6 8.22 2.22
4 -1 -6 0.63 0.88
4 -1 -6 1.49 1.31
4 -1 -6 2.26 1.24
4 -1 -6 1.52 0.43
-4 1 6 2.76 1.16
-4 1 6 1.49 1.39
3 -1 -6 8.42 2.63
3 -1 -6 6.95 1.75
3 -1 -6 6 1.75
3 -1 -6 5.84 1.1
-3 1 6 6.46 1.77
-3 1 6 1.99 1.87
2 -1 -6 0.1 0.53
-2 1 6 -0.18 0.46
-2 1 6 0.47 0.87
1 -1 -6 1.19 0.61
1 -1 -6 0.86 0.69
1 -1 -6 0.66 0.87
1 -1 -6 0.73 0.59
0 -1 -6 75.27 7.6
0 -1 -6 67.52 6.62
0 -1 -6 80.44 7.36
-1 -1 -6 20.73 3.14
-1 -1 -6 25.9 3.78
-1 -1 -6 25.9 3
-1 -1 -6 20.43 3.02
-2 -1 -6 -0.15 1.48
-2 -1 -6 0.7 0.61
-2 -1 -6 -0.11 0.86
-2 -1 -6 0.75 0.64
-3 -1 -6 -0.14 0.84
-3 -1 -6 0.18 0.39
-3 -1 -6 0.37 0.7
3 1 6 -0.58 1.07
-4 -1 -6 5.76 1.72
-4 -1 -6 3.94 0.58
-4 -1 -6 5.38 1.75
4 1 6 2.71 1.37
-5 -1 -6 4.23 1.49
-5 -1 -6 7.83 2.18
-5 -1 -6 5.4 1.78
-6 -1 -6 1.74 1.33
-6 -1 -6 4.18 1.92
-6 -1 -6 3.83 1.67
6 1 6 1.14 1.62
-7 -1 -6 0.46 0.84
-7 -1 -6 2.14 1.51
-7 -1 -6 -0.21 1.41
7 1 6 -3.26 2.46
-8 -1 -6 2.89 1.4
-8 -1 -6 -0.64 1.41
-8 -1 -6 0.83 0.88
8 1 6 0.63 1.78
-9 -1 -6 -1.82 1.34
-9 -1 -6 -1.37 2.36
-9 -1 -6 0.12 1.41
9 1 6 0.73 2.51
-10 -1 -6 -0.75 0.89
-10 -1 -6 2.92 2.01
-10 -1 -6 -1.53 1.63
10 1 6 4.34 3.53
-11 -1 -6 -1.95 1.94
11 1 6 -1.7 3.95
9 -2 -6 1.68 1.42
9 -2 -6 3.79 1.39
9 -2 -6 2.54 1.74
-9 2 6 1.18 1.7
8 -2 -6 -0.55 3.2
8 -2 -6 -2.53 0.92
8 -2 -6 2.15 1.6
8 -2 -6 -1.4 0.71
-8 2 6 -1.34 1.08
-8 2 6 -3.2 2.25
7 -2 -6 7.05 4
7 -2 -6 6.13 2.24
7 -2 -6 4.03 1.24
7 -2 -6 0.4 1.33
-7 2 6 8.95 3.59
-7 2 6 2.04 1.23
6 -2 -6 26.2 2.95
6 -2 -6 20.83 4.89
6 -2 -6 33.49 6.57
-6 2 6 25.99 5.13
-6 2 6 21.67 3.14
5 -2 -6 4.44 1.12
5 -2 -6 1.96 1.76
5 -2 -6 2.87 1.5
-5 2 6 3.29 1.18
-5 2 6 4.32 2.43
4 -2 -6 4.86 1.14
4 -2 -6 6.91 2.3
4 -2 -6 6.2 1.87
-4 2 6 7.53 2.57
-4 2 6 6.64 1.41
3 -2 -6 14.59 2.05
3 -2 -6 16.47 3.55
3 -2 -6 16.04 2.97
-3 2 6 13.24 3.16
2 -2 -6 1.93 0.98
2 -2 -6 0.34 0.69
2 -2 -6 1.31 0.58
-2 2 6 1.18 0.97
1 -2 -6 23.74 2.93
1 -2 -6 21.1 3.93
1 -2 -6 25.19 3.09
-1 2 6 21.19 3.23
0 -2 -6 0.54 0.56
0 -2 -6 0.18 0.5
0 -2 -6 0.89 0.62
-1 -2 -6 1.02 0.81
-1 -2 -6 0.52 0.54
-1 -2 -6 1.29 1.46
-1 -2 -6 2.06 0.8
-1 -2 -6 0.84 0.78
-2 -2 -6 19.69 2.78
-2 -2 -6 23.68 3.03
-2 -2 -6 24.36 3.55
-2 -2 -6 22.72 2.74
-3 -2 -6 5.75 1.92
-3 -2 -6 4.09 1.16
-3 -2 -6 3.49 1.21
3 2 6 0.5 1.51
-4 -2 -6 37.87 3.76
-4 -2 -6 39.44 4.73
-4 -2 -6 49.7 5.38
4 2 6 39.26 5.17
-5 -2 -6 4.6 1.83
-5 -2 -6 3.41 1.52
-5 -2 -6 1.75 1.02
5 2 6 2.46 1.63
-6 -2 -6 6.66 1.7
-6 -2 -6 10.96 2.96
-6 -2 -6 10.32 2.38
6 2 6 3.09 1.96
-7 -2 -6 -0.2 0.59
-7 -2 -6 1.17 1.65
-7 -2 -6 1.09 1.11
7 2 6 1.61 1.68
-8 -2 -6 -1.68 1.65
-8 -2 -6 0.57 1.16
-8 -2 -6 0.45 0.87
8 2 6 -1.91 1.68
-9 -2 -6 4.16 2.65
-9 -2 -6 0.73 1.76
-9 -2 -6 4.59 2.08
9 2 6 -1.03 1.96
-10 -2 -6 -1.07 2.21
-10 -2 -6 2.48 1.53
-10 -2 -6 0.35 1.44
-11 -2 -6 1.88 2.55
-11 -2 -6 -0.7 1.37
9 -3 -6 -2.47 2.03
9 -3 -6 -0.06 1.58
9 -3 -6 -0.18 1.34
-9 3 6 0.38 1.2
8 -3 -6 2.24 1.85
8 -3 -6 -1.66 1.24
-8 3 6 0.39 0.78
-8 3 6 -3.09 1.88
7 -3 -6 -1.91 1.25
7 -3 -6 -0.72 0.75
-7 3 6 -1.87 1.63
-7 3 6 0.23 0.58
6 -3 -6 14.17 3.81
6 -3 -6 11.96 2.42
6 -3 -6 3.95 2.79
-6 3 6 12.66 3.37
-6 3 6 9.75 2.16
5 -3 -6 0.72 1.35
5 -3 -6 1.81 0.96
5 -3 -6 1.42 1.36
-5 3 6 -0.91 1.21
4 -3 -6 1.02 1.19
4 -3 -6 0.59 0.59
4 -3 -6 0.33 0.73
-4 3 6 1.9 1.66
3 -3 -6 4.38 1.31
3 -3 -6 2.87 1.66
3 -3 -6 6.29 1.65
-3 3 6 4.46 1.58
2 -3 -6 5.15 1.47
2 -3 -6 6.39 2.13
-2 3 6 2.48 1.43
1 -3 -6 0.31 0.7
1 -3 -6 3.18 1.22
1 -3 -6 1.45 0.57
-1 3 6 2.13 1.06
0 -3 -6 15.24 3.07
0 -3 -6 14.27 2.19
0 -3 -6 18.98 2.17
0 -3 -6 14.23 3.29
0 3 6 12.51 2.15
-1 -3 -6 25.41 3.26
-1 -3 -6 18.21 2.23
-1 -3 -6 23.07 3.73
1 3 6 18.62 2.95
-2 -3 -6 2.94 0.75
-2 -3 -6 3.09 1.2
-2 -3 -6 7.13 2.2
2 3 6 3.13 1.16
-3 -3 -6 52.38 5.77
-3 -3 -6 50.63 5.51
3 3 6 49.63 5.32
3 3 6 67.72 6.92
-4 -3 -6 33.79 4.67
-4 -3 -6 31.53 3.31
-4 -3 -6 35.59 3.77
-4 -3 -6 36.62 4.44
4 3 6 34.07 3.58
4 3 6 31.44 4.83
-5 -3 -6 0.26 0.52
-5 -3 -6 -0.49 1.23
-5 -3 -6 0.7 0.8
5 3 6 1.43 1.38
5 3 6 0.07 0.29
-6 -3 -6 13.06 2.78
-6 -3 -6 16.13 3.62
6 3 6 8.54 4.08
-7 -3 -6 2.93 1.24
-7 -3 -6 -0.51 1.88
-7 -3 -6 1.91 1.03
7 3 6 1.4 1.63
-8 -3 -6 -0.44 1.79
-8 -3 -6 2.94 1.31
-8 -3 -6 1.33 1.16
8 3 6 -1.42 1.71
-9 -3 -6 3.99 2.69
-9 -3 -6 6.07 1.83
-9 -3 -6 3.32 2.05
-10 -3 -6 -4.06 2.1
-10 -3 -6 -1 1.55
-10 -3 -6 1.22 1.33
10 3 6 6.9 3.61
-11 -3 -6 1.87 2.65
-11 -3 -6 0.3 1.73
-11 -3 -6 1.76 2.06
9 -4 -6 1.59 1.51
9 -4 -6 -2.4 1.22
-9 4 6 0.07 0.93
-9 4 6 1.18 0.95
8 -4 -6 1.73 2.07
8 -4 -6 7.42 2.69
8 -4 -6 3.85 1.65
-8 4 6 1.87 0.78
7 -4 -6 7.39 2.35
7 -4 -6 8.29 2.2
7 -4 -6 5.69 2.91
-7 4 6 3.35 0.89
-7 4 6 4.59 3.2
6 -4 -6 0 1.29
6 -4 -6 1.04 1.37
6 -4 -6 1.64 1.21
-6 4 6 -2.28 1.49
5 -4 -6 4.4 1.57
5 -4 -6 6.36 2.13
5 -4 -6 3.34 1.91
-5 4 6 5.51 2.22
4 -4 -6 11.59 2.44
4 -4 -6 12.23 3.66
4 -4 -6 9.77 2.53
-4 4 6 9.73 3.81
3 -4 -6 -0.42 0.78
3 -4 -6 -0.68 0.38
3 -4 -6 -0.63 0.66
-3 4 6 -0.08 0.94
2 -4 -6 8.36 2.34
2 -4 -6 7.13 1.73
2 -4 -6 4.59 1.49
-2 4 6 5.3 2.36
-2 4 6 5.02 1.72
1 -4 -6 1.52 1.2
1 -4 -6 0.41 0.57
-1 4 6 1.61 0.9
-1 4 6 0.19 1.1
0 -4 -6 85.9 6.98
0 -4 -6 82.14 8.44
0 -4 -6 75.24 8.44
0 4 6 68.74 6.99
0 4 6 78.94 8.33
-1 -4 -6 118.9 11.85
-1 -4 -6 122.16 9.85
-1 -4 -6 107 11.29
1 4 6 134.51 11.74
-2 -4 -6 2.31 1.77
-2 -4 -6 0.8 0.78
2 4 6 -0.73 0.47
-3 -4 -6 6.82 2.22
-3 -4 -6 5.47 2.3
3 4 6 2.3 2.02
3 4 6 6.18 1.7
-4 -4 -6 -0.06 0.66
-4 -4 -6 0.16 0.24
-4 -4 -6 0.12 1.58
4 4 6 0.89 0.68
4 4 6 -0.04 1.45
-5 -4 -6 -0.14 1.59
-5 -4 -6 1.22 0.93
-5 -4 -6 0.2 0.4
5 4 6 0.44 1.1
5 4 6 1.59 0.8
-6 -4 -6 12.19 3.35
-6 -4 -6 12.81 2.93
-6 -4 -6 6.66 1.41
6 4 6 5.25 2.32
-7 -4 -6 1.49 1.78
-7 -4 -6 1.61 0.99
-7 -4 -6 -0.23 0.83
7 4 6 0.99 1.89
7 4 6 1.05 0.65
-8 -4 -6 11.84 2.99
-8 -4 -6 10.09 2.53
-8 -4 -6 15.18 5.72
8 4 6 11.97 2.07
-9 -4 -6 3.33 1.63
-9 -4 -6 3.04 2.26
-10 -4 -6 1.15 1.11
-10 -4 -6 1.91 1.49
10 4 6 0.23 0.75
10 4 6 0.16 2.85
10 4 6 0.19 0.42
-11 -4 -6 2.04 1.92
-11 -4 -6 4.64 3.02
-11 -4 -6 -1.23 1.5
9 -5 -6 2.76 3.29
8 -5 -6 8.02 2.84
8 -5 -6 2.5 1.71
8 -5 -6 1.52 2.3
7 -5 -6 2.41 1.93
7 -5 -6 2.85 1.3
7 -5 -6 -2.12 1.41
-7 5 6 1.13 2.22
6 -5 -6 4.99 1.98
6 -5 -6 3.93 2.5
6 -5 -6 6.42 2.16
-6 5 6 2.59 1.9
5 -5 -6 -0.59 1.04
5 -5 -6 -0.93 0.58
5 -5 -6 1.18 1.14
-5 5 6 3.23 1.66
4 -5 -6 10.99 3.28
4 -5 -6 5.77 3.28
4 -5 -6 9.06 2.52
-4 5 6 9.82 2.79
-4 5 6 7.25 2.26
3 -5 -6 1.55 1.24
3 -5 -6 1.43 1.18
3 -5 -6 0.96 1.17
-3 5 6 3.63 2.46
-3 5 6 0.28 1.11
2 -5 -6 0.77 0.73
2 -5 -6 1.16 0.91
2 -5 -6 1.29 1.08
-2 5 6 0.22 0.79
-2 5 6 -0.86 0.54
1 -5 -6 1.24 0.31
1 -5 -6 2.62 1.32
1 -5 -6 0.63 0.69
-1 5 6 1.92 1.43
-1 5 6 1.59 0.73
0 -5 -6 11.27 1.76
0 -5 -6 14.37 1.81
0 -5 -6 9.57 2.9
0 -5 -6 7.92 2.85
0 5 6 18.87 4.06
0 5 6 12.87 1.85
-1 -5 -6 12.29 2.35
-1 -5 -6 17.69 3.93
-1 -5 -6 14.61 3.37
1 5 6 12.33 1.47
1 5 6 10.04 2.78
-2 -5 -6 1.1 0.75
-2 -5 -6 0.12 0.44
-2 -5 -6 0.12 1.47
2 5 6 2.86 1.46
-3 -5 -6 -0.18 1.55
-3 -5 -6 -0.2 0.73
-3 -5 -6 0.55 0.78
3 5 6 -0.03 0.79
3 5 6 0.23 1.04
-4 -5 -6 -0.47 0.71
-4 -5 -6 -1.55 0.95
-4 -5 -6 -0.32 0.68
4 5 6 -1.04 2.45
-5 -5 -6 3.21 1.88
-5 -5 -6 0.97 1.41
5 5 6 2.24 1.75
5 5 6 1.18 0.98
-6 -5 -6 0.07 0.87
-6 -5 -6 -0.66 1.55
-6 -5 -6 -0.65 0.41
-6 -5 -6 -0.84 1.06
6 5 6 -1.79 1.69
6 5 6 0.16 0.6
-7 -5 -6 6.15 1.42
-7 -5 -6 8.51 3.19
-7 -5 -6 9.03 3.69
-7 -5 -6 8.05 2.5
7 5 6 12.09 2.48
7 5 6 4.19 3.04
-8 -5 -6 1.55 2.46
-8 -5 -6 3.29 1.57
-8 -5 -6 1.71 1.3
-8 -5 -6 3.93 2.14
8 5 6 2.58 1.36
-9 -5 -6 2.92 1.5
-9 -5 -6 0.95 2.68
-9 -5 -6 -0.88 1.06
-9 -5 -6 -0.31 1.41
9 5 6 0.15 1.05
9 5 6 0.3 3.7
-10 -5 -6 -0.85 1.03
-10 -5 -6 0.08 3.03
-10 -5 -6 -0.77 1.57
10 5 6 0.39 1.14
10 5 6 -4.32 3.64
-11 -5 -6 -3.98 2.07
-11 -5 -6 0.16 1.77
11 5 6 0.32 1.29
11 5 6 -0.66 1.22
8 -6 -6 -0.61 2.15
8 -6 -6 -0.45 1.55
8 -6 -6 -0.76 1.17
7 -6 -6 -0.92 1.49
7 -6 -6 2.58 1.72
7 -6 -6 0.86 1.74
-7 6 6 1.63 1.97
6 -6 -6 1.88 1.68
6 -6 -6 2.58 1.45
6 -6 -6 1.37 1.73
5 -6 -6 3.22 2.15
5 -6 -6 7.11 2.51
5 -6 -6 7.4 2.34
-5 6 6 3.19 2.07
-5 6 6 8.55 2.61
4 -6 -6 1.98 1.39
4 -6 -6 1.66 1.4
-4 6 6 2.48 1.94
-4 6 6 2.04 1.53
3 -6 -6 50.81 6.24
3 -6 -6 50.12 5.72
3 -6 -6 59.93 7.61
-3 6 6 52.63 7.22
-3 6 6 40.38 5.49
2 -6 -6 14.33 3.87
2 -6 -6 12.2 3.08
-2 6 6 12.46 3.39
-2 6 6 16.06 2.9
1 -6 -6 19.46 5.61
1 -6 -6 29.67 5.7
1 -6 -6 28.18 4.6
-1 6 6 26.36 4.92
-1 6 6 30.6 3.51
0 -6 -6 72.06 8.59
0 -6 -6 91.35 9.12
0 -6 -6 68.32 6.86
0 6 6 68.05 11.97
0 6 6 64.77 6.43
-1 -6 -6 8.67 3.01
-1 -6 -6 8.98 2.1
-1 -6 -6 7.12 3.05
1 6 6 8.08 1.16
1 6 6 8.71 2.93
-2 -6 -6 9.58 2.32
-2 -6 -6 7.8 2.65
-2 -6 -6 5.5 2.04
2 6 6 10.78 2.98
-3 -6 -6 20.23 4.26
-3 -6 -6 9.83 2.61
3 6 6 4.01 2.14
3 6 6 12.2 3.4
-4 -6 -6 2.06 1.31
-4 -6 -6 -0.57 2.03
-4 -6 -6 0.88 1.24
4 6 6 -0.33 0.79
4 6 6 2.83 2.38
-5 -6 -6 13.58 3.92
-5 -6 -6 12.88 3.59
5 6 6 17.33 3.48
5 6 6 12.46 3.56
-6 -6 -6 0.75 0.97
-6 -6 -6 4.83 2.47
6 6 6 -0.22 0.76
6 6 6 1 1.63
-7 -6 -6 12.05 4.43
-7 -6 -6 4.78 1.15
-7 -6 -6 7.56 2.76
-7 -6 -6 7.6 2.89
7 6 6 5.42 2.19
-8 -6 -6 12.23 3.19
-8 -6 -6 14.08 4.82
-8 -6 -6 3.12 2.68
8 6 6 11.37 2.74
-9 -6 -6 1.24 1.28
-9 -6 -6 0.5 1.47
-9 -6 -6 5.3 2.58
-9 -6 -6 -0.77 0.97
9 6 6 -0.73 1.35
9 6 6 -2.82 2.85
-10 -6 -6 3.01 1.96
-10 -6 -6 -0.42 1.67
-10 -6 -6 -3.58 3.28
10 6 6 1.24 1.78
-11 -6 -6 -0.57 2
-11 -6 -6 1.83 3.65
-11 -6 -6 6.15 2.53
11 6 6 1.48 2.05
8 -7 -6 2.97 4.8
7 -7 -6 2.05 1.9
7 -7 -6 2.72 2.26
6 -7 -6 -0.42 1.21
6 -7 -6 -0.95 1.29
-6 7 6 1.91 1.7
-6 7 6 1 2.28
5 -7 -6 0.01 1.58
5 -7 -6 -3.14 1.19
-5 7 6 -1.71 1.32
4 -7 -6 2.83 2.04
4 -7 -6 -0.19 1.39
-4 7 6 3.09 2.15
-4 7 6 2.86 1.63
3 -7 -6 -1.2 0.64
3 -7 -6 0.3 1.14
2 -7 -6 24.81 4.79
2 -7 -6 28.47 5.84
-2 7 6 37.47 7.12
-2 7 6 23.1 3.67
1 -7 -6 19.89 2.97
1 -7 -6 19.45 5.17
1 -7 -6 18.8 3.97
1 -7 -6 15.59 4.34
-1 7 6 22.38 3.02
-1 7 6 31.25 5.94
0 -7 -6 11.76 2.67
0 -7 -6 16.16 4.4
0 -7 -6 16.05 4.07
0 7 6 14.6 2.06
0 7 6 13.09 4.15
-1 -7 -6 2.1 1.25
-1 -7 -6 1.82 1.62
-1 -7 -6 1 1.82
1 7 6 1.8 1.58
1 7 6 3.27 0.83
-2 -7 -6 -0.6 0.82
-2 -7 -6 -1.45 0.62
-2 -7 -6 0.01 1.43
2 7 6 -0.86 0.89
2 7 6 0.19 0.22
-3 -7 -6 2.7 1.41
-3 -7 -6 1.27 1.8
-3 -7 -6 4.89 2.14
3 7 6 0.26 1.55
3 7 6 5.7 3.38
-4 -7 -6 8.77 2.88
-4 -7 -6 7.74 2.74
-4 -7 -6 7.65 3
4 7 6 3.61 3.25
4 7 6 8.54 2.94
-5 -7 -6 2.66 2.15
-5 -7 -6 2.14 2.3
5 7 6 0.75 1.89
5 7 6 0.75 1.53
-6 -7 -6 8.71 4.45
-6 -7 -6 5.18 2.56
6 7 6 6.02 2.95
-7 -7 -6 1.28 2.47
-7 -7 -6 0.06 1.05
7 7 6 0.19 1.55
7 7 6 0.08 0.41
-8 -7 -6 1.06 1.74
-8 -7 -6 -1.79 2.41
-8 -7 -6 -1.85 1.15
8 7 6 -0.04 1.44
8 7 6 1.62 0.74
-9 -7 -6 -2.69 1.93
-9 -7 -6 0.78 1.43
9 7 6 0.32 0.79
9 7 6 -2.2 1.37
9 7 6 2.65 3.99
-10 -7 -6 0.65 3
-10 -7 -6 -1.61 1.72
-10 -7 -6 0.9 1.23
10 7 6 -1.77 0.94
10 7 6 1.03 2.1
7 -8 -6 3.45 2
6 -8 -6 -0.33 1.68
6 -8 -6 -0.79 1.66
-6 8 6 2.14 1.9
5 -8 -6 3.65 1.94
5 -8 -6 -0.04 2.09
-5 8 6 1.04 2.31
-5 8 6 2.21 0.74
4 -8 -6 -1 1.25
4 -8 -6 3.2 1.76
-4 8 6 3.12 2.79
-4 8 6 2.61 1.4
3 -8 -6 1.95 1.66
3 -8 -6 0.48 1.91
-3 8 6 3.08 1.04
-3 8 6 3.24 1.52
2 -8 -6 7.89 4.25
2 -8 -6 6.61 2.64
2 -8 -6 14.6 4.24
-2 8 6 12.87 2.42
-2 8 6 11.31 2.54
1 -8 -6 0.73 1
1 -8 -6 -0.97 0.98
1 -8 -6 3.42 2.19
-1 8 6 0.08 0.9
-1 8 6 -0.6 0.59
0 -8 -6 1.2 0.96
0 -8 -6 0.41 1.7
0 -8 -6 -0.97 0.62
0 -8 -6 -2.13 1.26
0 8 6 -0.41 0.54
0 8 6 1.42 1.23
-1 -8 -6 11.17 3.52
-1 -8 -6 5.18 2.62
-1 -8 -6 6.46 2.32
1 8 6 5.71 1.37
1 8 6 5.84 2.95
-2 -8 -6 3.29 1.8
-2 -8 -6 6.67 2.54
-2 -8 -6 2.67 1.89
2 8 6 1.56 0.75
2 8 6 2.06 2.14
2 8 6 3.63 0.85
-3 -8 -6 2.34 1.72
-3 -8 -6 1.94 3.14
-3 -8 -6 3.82 1.99
3 8 6 3.59 0.81
3 8 6 3.27 0.66
3 8 6 1.75 1.93
-4 -8 -6 8.56 3.1
-4 -8 -6 8.75 3.31
-4 -8 -6 7.63 3
4 8 6 3.06 2.89
4 8 6 7.38 3.12
-5 -8 -6 2.21 3.44
-5 -8 -6 -0.3 1.33
5 8 6 3.54 2.08
5 8 6 4.92 3.34
-6 -8 -6 6.62 3.62
-6 -8 -6 -1.24 2.21
6 8 6 2.02 2.55
6 8 6 1.02 0.53
6 8 6 -2.52 1.01
-7 -8 -6 6.1 4.25
-7 -8 -6 0.51 2.29
7 8 6 -0.58 1.69
7 8 6 -0.85 3.3
7 8 6 -0.12 0.49
-8 -8 -6 -0.63 1.4
-8 -8 -6 -1.51 2.19
-8 -8 -6 -0.31 1.66
8 8 6 2.17 3.46
8 8 6 1.67 0.9
8 8 6 0.86 1.84
-9 -8 -6 3.05 3.43
-9 -8 -6 5.36 2.15
9 8 6 3.31 2.33
-10 -8 -6 -1.57 1.78
-10 -8 -6 -0.49 4.01
10 8 6 1.46 1.54
10 8 6 -3.15 2.19
6 -9 -6 6.32 2.62
5 -9 -6 -0.91 1.02
-5 9 6 -0.74 1.51
-5 9 6 0.15 0.97
4 -9 -6 -0.43 1.69
4 -9 -6 15.21 4.7
-4 9 6 2.2 1.98
-4 9 6 1.29 1.42
-4 9 6 3.34 2.48
3 -9 -6 4.34 3.1
3 -9 -6 5.2 3.24
3 -9 -6 6.26 2.33
-3 9 6 9.12 3.49
-3 9 6 5.17 1.76
-3 9 6 1.75 1.63
2 -9 -6 3.62 1.86
2 -9 -6 1.37 2.25
2 -9 -6 3.26 2.22
-2 9 6 -0.67 1.29
-2 9 6 3.26 1.3
1 -9 -6 0.1 2.21
1 -9 -6 -0.76 1.5
1 -9 -6 2.11 1.4
1 -9 -6 0.16 1.06
-1 9 6 0.98 1.15
-1 9 6 -0.64 0.89
0 -9 -6 0.3 1.34
0 -9 -6 5.49 2.04
0 -9 -6 2.16 3.38
0 9 6 1.1 0.89
0 9 6 -0.1 0.88
-1 -9 -6 2.05 1.44
-1 -9 -6 -1.19 2.18
-1 -9 -6 4.03 2.09
1 9 6 2.59 1.05
1 9 6 3.28 1.82
1 9 6 0.57 1.55
-2 -9 -6 0.82 1.35
-2 -9 -6 1.02 3.19
-2 -9 -6 1.31 1.41
2 9 6 2.36 1.48
2 9 6 1.91 0.72
-3 -9 -6 1.84 1.64
-3 -9 -6 0.68 3.29
-3 -9 -6 2.27 1.47
3 9 6 0.47 1.12
3 9 6 -0.11 0.45
3 9 6 0.38 0.71
-4 -9 -6 -1.42 1.5
-4 -9 -6 1.33 1.85
-4 -9 -6 -1.37 0.64
4 9 6 -0.22 2.63
4 9 6 0.35 0.54
-5 -9 -6 -1.93 2.58
-5 -9 -6 -2.22 1.25
5 9 6 2.34 1.77
5 9 6 2.69 2.71
5 9 6 0.93 0.52
-6 -9 -6 -0.74 2.05
-6 -9 -6 1.8 3.13
6 9 6 3.87 2.32
6 9 6 1.5 2.23
-7 -9 -6 -0.06 1.74
-7 -9 -6 -3.96 2.74
7 9 6 -3.55 2.13
-8 -9 -6 -2.11 2.39
8 9 6 0.18 0.79
-9 -9 -6 3.21 6
-9 -9 -6 1.27 1.85
9 9 6 -4.03 2.09
9 9 6 0.43 0.96
5 -10 -6 3.72 2.61
-5 10 6 1 1.19
4 -10 -6 6.18 3.44
4 -10 -6 -2.69 3.03
-4 10 6 2.8 1.44
3 -10 -6 0.02 2.45
3 -10 -6 3.03 2.96
-3 10 6 -0.65 1.59
-3 10 6 0.05 1.16
2 -10 -6 4.89 3.14
2 -10 -6 -1.55 1.68
2 -10 -6 0.9 2.51
-2 10 6 -0.08 1.35
-2 10 6 1.75 1.33
-2 10 6 1.01 2.09
1 -10 -6 1.99 1.98
1 -10 -6 0.13 1.15
1 -10 -6 1.43 2.62
-1 10 6 1.88 1.51
-1 10 6 1.62 1.34
-1 10 6 3.27 2.11
0 -10 -6 0.42 2.62
0 -10 -6 0.72 1.34
0 10 6 0.81 0.84
0 10 6 -2.37 1.93
0 10 6 0.82 1.1
-1 -10 -6 0.76 1.32
-1 -10 -6 -0.33 1.6
-1 -10 -6 1.4 3.04
1 10 6 0.44 0.97
1 10 6 1.03 2.32
1 10 6 1.13 1.13
-2 -10 -6 11.45 3.37
-2 -10 -6 6.33 3.19
-2 -10 -6 5.35 3.57
-2 -10 -6 3.95 2.55
2 10 6 8.94 3.1
2 10 6 6.33 4.53
2 10 6 5.56 1.6
-3 -10 -6 1.94 3.01
-3 -10 -6 2.84 2.1
-3 -10 -6 -1.15 1.58
3 10 6 -0.06 0.85
3 10 6 1.07 0.67
3 10 6 -2.15 2.6
-4 -10 -6 2.66 2.82
-4 -10 -6 4.38 2.77
-5 -10 -6 2.48 3.27
5 10 6 1.15 1.2
5 10 6 -2.69 2.31
5 10 6 1.36 2.32
-6 -10 -6 -2.16 2.07
-6 -10 -6 -2.23 3.11
6 10 6 9.13 2.83
6 10 6 -3.87 3.74
-7 -10 -6 -1.07 3.52
7 10 6 1.34 0.91
7 10 6 -5.5 2.13
8 10 6 1.53 1.18
8 10 6 2.57 2.74
3 -11 -6 -3.29 1.87
3 -11 -6 -3.73 3.42
-3 11 6 1.15 1.45
-3 11 6 2.86 2.35
2 -11 -6 1.19 2.49
2 -11 -6 4.58 3.29
-2 11 6 -0.81 1.1
-2 11 6 1.31 2
1 -11 -6 2.45 2.72
1 -11 -6 0.52 1.55
1 -11 -6 2.16 1.95
-1 11 6 1.75 1.64
-1 11 6 -0.83 1.37
0 -11 -6 -0.95 3.12
0 -11 -6 -0.1 2.02
0 11 6 1.71 1.4
0 11 6 0.82 1.43
-1 -11 -6 2.33 2.06
-1 -11 -6 0.78 1.75
-1 -11 -6 2.59 3.24
1 11 6 3.75 3.7
1 11 6 -0.67 1.61
-2 -11 -6 -0.72 1.35
-2 -11 -6 1.04 2.01
-2 -11 -6 4.21 3.52
2 11 6 1.15 1.58
2 11 6 -0.77 1.27
2 11 6 -0.62 1.11
-3 -11 -6 2.16 2.24
-3 -11 -6 6.79 3.16
-3 -11 -6 5.25 2.16
3 11 6 2.04 1.2
3 11 6 0.22 1.12
-4 -11 -6 3.72 3.11
-4 -11 -6 0.63 2.1
-5 -11 -6 -2.86 3.4
-5 -11 -6 -0.98 2.46
5 11 6 0.3 1
-6 -11 -6 2.2 3.81
6 11 6 0.91 1.08
-7 -11 -6 -6.59 4.76
1 -12 -6 -2.78 1.27
0 -12 -6 3.37 3.75
0 -12 -6 1.33 2.33
0 -12 -6 2.06 2.49
0 12 6 0.89 1.64
-1 -12 -6 -0.83 2.56
-1 -12 -6 -7.03 3.32
-1 -12 -6 1.1 1.88
1 12 6 1.16 2.11
1 12 6 1.09 1.71
-2 -12 -6 2.01 3.57
-2 -12 -6 2.07 2.55
-2 -12 -6 -1.44 1.48
2 12 6 0.98 1.68
2 12 6 2.45 1.92
2 12 6 -0.03 1.4
-3 -12 -6 -2.8 1.72
-3 -12 -6 0.45 4.11
3 12 6 0.94 1.46
-4 -12 -6 1.83 3.77
2 6 -7 -0.6 3.12
1 6 -7 15.03 5.13
1 6 -7 -3.72 4.86
-1 -6 7 3 1.81
0 6 -7 1.47 2.53
0 6 -7 -0.6 2.96
0 -6 7 0.42 1.54
-1 6 -7 -0.42 1.67
-1 6 -7 -0.46 1.94
-1 6 -7 -0.24 1.73
1 -6 7 1.81 1.87
-2 6 -7 2.3 2.66
-2 6 -7 1.52 1.6
-3 6 -7 -1.16 2.36
-3 6 -7 1.66 1.57
-3 6 -7 1.15 2.03
3 -6 7 2.25 2.01
4 5 -7 -1.71 1.42
4 5 -7 0.98 2.49
4 5 -7 3.01 3.11
3 5 -7 -1.68 2.08
3 5 -7 0.05 0.93
3 5 -7 -0.15 1.8
2 5 -7 -2.87 1.59
-2 -5 7 -0.24 3.18
1 5 -7 1.99 2.3
1 5 -7 -0.3 2.5
1 5 -7 4.21 2.44
-1 -5 7 2.64 3.18
-1 -5 7 -0.05 0.93
0 5 -7 -2.55 2.37
0 5 -7 2.42 1.94
0 5 -7 4.74 2.1
0 -5 7 0.92 1.31
0 -5 7 2.06 3.36
-1 5 -7 2.2 1.99
-1 5 -7 -1.61 2.07
-1 5 -7 0.63 2.33
-1 5 -7 -0.16 0.95
1 -5 7 1.74 1.39
-2 5 -7 3.45 2.24
-2 5 -7 -1.38 1.97
-2 5 -7 1.27 1.19
2 -5 7 0.83 1.5
-3 5 -7 5.33 2.46
-3 5 -7 1.09 1.72
-3 5 -7 1.05 1.14
-4 5 -7 1.21 2.7
-4 5 -7 -2.41 1.92
-4 5 -7 -0.63 1.53
4 -5 7 -0.27 1.66
-5 5 -7 1.37 2.05
-5 5 -7 -1.64 1.42
-5 5 -7 0.38 1.92
6 4 -7 -0.61 1.88
6 4 -7 1.47 1.71
-6 -4 7 3.29 3.93
5 4 -7 -2.23 1.69
5 4 -7 -0.33 1.82
5 4 -7 -2.18 1.43
-5 -4 7 -5.74 2.91
4 4 -7 -0.92 1.73
4 4 -7 1.13 1.59
4 4 -7 1.49 1.75
-4 -4 7 1.42 2.64
3 4 -7 -0.66 1.7
3 4 -7 -0.18 0.95
3 4 -7 1.2 1.91
2 4 -7 1.96 2.62
2 4 -7 3.51 1.12
2 4 -7 7.55 3.02
-2 -4 7 4.33 2.85
1 4 -7 4.64 2.38
1 4 -7 0.92 1.6
-1 -4 7 7.53 3.66
0 4 -7 0.72 0.89
0 4 -7 1.98 1.67
0 4 -7 -0.57 2.05
0 4 -7 3.17 1.84
0 -4 7 -0.52 0.93
0 -4 7 -3.07 2.59
-1 4 -7 6.39 2.36
-1 4 -7 0.23 0.98
-1 4 -7 -1.29 1.7
-1 4 -7 3.87 1.65
1 -4 7 1.89 1.48
-2 4 -7 1.54 1.32
-2 4 -7 1.31 2.04
-2 4 -7 1.18 1.6
2 -4 7 3.57 1.43
-3 4 -7 -1.67 1.92
-3 4 -7 2.39 1.39
-3 4 -7 0.31 1.59
3 -4 7 4.26 1.72
-4 4 -7 6.77 2.36
-4 4 -7 0.93 2.43
-4 4 -7 4.92 2.92
-5 4 -7 0.8 1.44
5 -4 7 -0.04 1.79
-6 4 -7 1.08 1.5
-6 4 -7 0.09 1.1
-6 4 -7 0.4 1.65
-7 4 -7 2.58 2.27
-7 4 -7 0.06 1.05
-7 4 -7 -0.61 1.53
7 3 -7 3.64 2.63
7 3 -7 6.86 2.8
-7 -3 7 7.2 3.81
6 3 -7 -2.03 1.95
6 3 -7 1.22 2.18
6 3 -7 -2.16 1.14
-6 -3 7 1.08 2.44
5 3 -7 2.38 1.86
5 3 -7 3.15 1.85
4 3 -7 0.06 1.5
4 3 -7 1.89 1.97
3 3 -7 2.19 1.67
3 3 -7 1.59 1.29
3 3 -7 0.2 1.36
-3 -3 7 -1.55 1.63
2 3 -7 17.69 2.65
2 3 -7 16.52 7.94
2 3 -7 12.32 4.39
-2 -3 7 21.17 5.87
1 3 -7 13.02 3.77
1 3 -7 5.82 1.49
1 3 -7 9.07 1.61
1 3 -7 11.03 4.84
-1 -3 7 13.73 4.66
0 3 -7 1.99 1.9
0 3 -7 -0.78 0.58
0 3 -7 0.24 1.05
0 -3 7 -0.74 1.21
0 -3 7 -1.13 0.73
-1 3 -7 -0.52 0.66
-1 3 -7 0.21 0.99
-1 3 -7 1.54 2.25
1 -3 7 1.52 1.02
-2 3 -7 -1.34 1.13
-2 3 -7 0.33 0.76
-2 3 -7 1.8 1.59
2 -3 7 -1.94 0.92
-3 3 -7 0.22 1.33
-3 3 -7 -0.16 1.16
-3 3 -7 2.41 1.86
3 -3 7 0.71 1.29
-4 3 -7 3.56 2.75
-4 3 -7 -0.9 1.15
-4 3 -7 1.35 1.23
4 -3 7 0.98 1.45
-5 3 -7 1.15 1.49
-5 3 -7 1.49 1.57
-5 3 -7 -0.18 1.01
-6 3 -7 3.24 2.12
-6 3 -7 2.12 1.75
-6 3 -7 2.76 1.12
6 -3 7 2.13 2.2
-7 3 -7 0.05 1.6
-7 3 -7 3.92 2.11
7 -3 7 -1.52 1.57
-8 3 -7 1.55 2.93
8 -3 7 7.57 2.98
7 2 -7 3.61 1.78
7 2 -7 1.17 2.42
-7 -2 7 2.67 2.15
6 2 -7 4 2.09
6 2 -7 1.3 2.38
6 2 -7 2.16 2.26
-6 -2 7 4.19 2.42
5 2 -7 2.38 1.4
5 2 -7 -0.61 1.71
5 2 -7 2.61 1.82
-5 -2 7 0.34 1.88
4 2 -7 0.95 1.68
4 2 -7 -2.04 1.74
4 2 -7 0.78 1.57
-4 -2 7 0.82 2.37
3 2 -7 14.67 4.05
3 2 -7 7.31 3.12
3 2 -7 15 3.2
-3 -2 7 11.46 3.94
2 2 -7 1.53 1.97
2 2 -7 -0.38 1.48
-2 -2 7 1.91 2.37
1 2 -7 -1.42 1.04
1 2 -7 -1.15 1.14
1 2 -7 -0.6 0.75
1 2 -7 -0.06 0.43
-1 -2 7 0.38 1.67
0 2 -7 0.46 0.54
0 2 -7 -1.18 1.12
0 2 -7 -0.28 0.53
0 2 -7 0.32 0.65
0 2 -7 -1.72 1.04
-1 2 -7 -0.02 1.2
-1 2 -7 -0.17 0.25
-1 2 -7 -0.66 0.62
1 -2 7 -1.9 0.76
-2 2 -7 1.4 0.89
-2 2 -7 0.31 1.1
2 -2 7 -0.77 0.99
-3 2 -7 1.4 2.04
-3 2 -7 0.2 0.68
-3 2 -7 1.9 1.24
3 -2 7 -0.22 1.1
-4 2 -7 0.95 1.66
-4 2 -7 -0.34 0.78
-4 2 -7 1.5 1.03
4 -2 7 -0.31 1.18
-5 2 -7 2.17 1.08
-5 2 -7 6.84 2.89
-5 2 -7 3.75 1.68
5 -2 7 3.66 1.83
-6 2 -7 0.91 1.58
-6 2 -7 2.66 1.99
6 -2 7 -1.62 1.41
-7 2 -7 -0.13 1.78
7 -2 7 -0.61 2.01
7 -2 7 2.5 1.96
-8 2 -7 -1.58 1.57
-8 2 -7 -2.59 2.23
-8 2 -7 2.56 2.89
8 -2 7 0.2 2.76
-9 2 -7 0.65 2.19
-9 2 -7 2.02 2.25
9 -2 7 1.32 3.57
8 1 -7 -2.03 2.32
8 1 -7 -0.17 1.55
-8 -1 7 -0.11 2.11
7 1 -7 9.39 3.24
7 1 -7 -2.2 1.92
7 1 -7 1.05 1.54
-7 -1 7 2.27 2.5
6 1 -7 2.77 1.73
6 1 -7 3.29 1.92
6 1 -7 3.27 1.98
-6 -1 7 -0.79 1.88
-6 -1 7 -4.3 2.08
5 1 -7 17.27 4.42
5 1 -7 13.45 3.32
5 1 -7 13.81 3.81
-5 -1 7 12.28 3.73
4 1 -7 0.42 1.53
4 1 -7 1.03 1.57
4 1 -7 2.83 1.48
-4 -1 7 1.9 2.04
3 1 -7 8.33 2.48
3 1 -7 8.09 2.57
3 1 -7 6.31 2.38
-3 -1 7 8.14 2.98
2 1 -7 28.28 5.35
2 1 -7 23.24 4.73
-2 -1 7 33.12 6.15
1 1 -7 0.29 1.04
1 1 -7 -0.61 1.3
1 1 -7 -0.24 0.39
-1 -1 7 -1.11 1.33
0 1 -7 2.72 1.76
0 1 -7 0 1.14
0 1 -7 3.7 1.73
-1 1 -7 11.3 3.44
-1 1 -7 8.61 1.86
-1 1 -7 6.68 1.58
-1 1 -7 7.89 2.69
-2 1 -7 20.53 2.76
-2 1 -7 14.05 2.08
-2 1 -7 13.28 4.12
-3 1 -7 1.81 1.19
-3 1 -7 2.17 1.53
-3 1 -7 3.43 0.98
3 -1 7 -0.57 1.28
-4 1 -7 2.11 1.3
-4 1 -7 1.98 1.69
-4 1 -7 2.08 0.98
-4 1 -7 4.71 1.24
4 -1 7 -0.11 1.07
-5 1 -7 -0.39 1.46
-5 1 -7 0.65 0.4
-5 1 -7 0.48 1.04
-5 1 -7 0.16 0.34
5 -1 7 0.14 1
5 -1 7 -0.15 1.39
-6 1 -7 3.68 1.65
-6 1 -7 5.34 1.72
-6 1 -7 3.72 2.6
6 -1 7 1.68 1.78
6 -1 7 2.42 2.27
-7 1 -7 2.12 1.38
-7 1 -7 1.39 1.45
-7 1 -7 -0.22 1.61
7 -1 7 -1.29 1.83
7 -1 7 4.62 3
-8 1 -7 -1.49 2.27
-8 1 -7 3.07 2.03
8 -1 7 6.57 2.56
8 -1 7 -1.2 3.69
-9 1 -7 -0.28 2.45
-9 1 -7 2.88 2.79
-9 1 -7 -0.34 1.35
9 -1 7 -2.38 2.55
-10 1 -7 -0.26 1.72
8 0 -7 -1.13 1.67
8 0 -7 -0.47 2.12
-8 0 7 1.93 1.99
7 0 -7 1.28 1.76
7 0 -7 1.33 1.21
7 0 -7 2.88 1.8
-7 0 7 3.05 2.15
6 0 -7 0.87 1.61
6 0 -7 1 1.42
6 0 -7 2.77 1.85
-6 0 7 -2.29 2.43
-6 0 7 0.84 1.59
5 0 -7 2.83 1.94
5 0 -7 0.98 1.06
5 0 -7 2.05 1.34
-5 0 7 1.33 1.35
4 0 -7 10.99 3.03
4 0 -7 13.13 3.09
-4 0 7 13.73 3.43
-4 0 7 16.76 3.88
3 0 -7 7.68 2.42
3 0 -7 5.41 1.99
-3 0 7 7.49 2.61
2 0 -7 5.73 2.21
2 0 -7 6.22 2.11
2 0 -7 7.7 0.93
-2 0 7 8.98 2.64
1 0 -7 13.58 3.33
1 0 -7 14.51 1.8
1 0 -7 14.17 3.14
0 0 -7 4.06 1.91
0 0 -7 0.87 1.7
0 0 -7 2.75 1.54
0 0 -7 3.03 1.15
-1 0 -7 -1.14 1.41
-1 0 -7 0.8 1.17
-1 0 -7 0.69 0.71
-1 0 -7 0.74 1.11
-2 0 -7 0.92 1.27
-2 0 -7 2.41 1.22
-2 0 -7 0.92 1.18
-3 0 -7 11.93 2.48
-3 0 -7 10.2 2.63
-3 0 -7 11.6 2.23
-3 0 -7 13.72 3.89
-4 0 -7 0.05 0.56
-4 0 -7 0.85 0.97
-4 0 -7 0.13 0.47
-4 0 -7 0.97 1.05
-4 0 -7 -0.88 1.28
-5 0 -7 22.28 5.24
-5 0 -7 18.82 3.46
-5 0 -7 17.27 2.76
5 0 7 8.76 2.8
-6 0 -7 -0.34 1.06
-6 0 -7 1.96 2.45
-6 0 -7 0.68 1.29
6 0 7 -0.74 1.24
6 0 7 -0.37 1.66
-7 0 -7 2.2 1.53
-7 0 -7 5.19 1.92
-7 0 -7 2.32 1.86
7 0 7 -1.34 1.97
-8 0 -7 0.06 1.59
-8 0 -7 0.55 1.43
-8 0 -7 0.65 1.55
8 0 7 0.62 1.83
8 0 7 -2.27 1.88
-9 0 -7 6.27 2.41
9 0 7 6.34 2.75
-10 0 -7 6.54 2.13
9 -1 -7 -4.21 1.65
8 -1 -7 0.87 1.16
8 -1 -7 2.95 2.19
-8 1 7 -2.51 1.62
7 -1 -7 1.33 1.24
7 -1 -7 7.54 3.79
7 -1 -7 2.04 1.9
-7 1 7 0.39 1.44
-7 1 7 0.78 1.75
6 -1 -7 1.28 1.43
6 -1 -7 1.22 2.21
6 -1 -7 2.48 1.58
-6 1 7 1.11 1.42
-6 1 7 -0.84 1.64
5 -1 -7 3.05 1.97
5 -1 -7 7.88 2.97
-5 1 7 4.84 1.79
-5 1 7 1.65 1.91
4 -1 -7 4.68 1.67
4 -1 -7 6.3 2.21
4 -1 -7 2.26 1.23
-4 1 7 1.27 2.3
-4 1 7 4.45 1.73
3 -1 -7 0.71 0.34
3 -1 -7 0.2 0.61
3 -1 -7 0.17 0.27
3 -1 -7 0.85 0.75
3 -1 -7 1.96 1.13
-3 1 7 0.49 0.86
-3 1 7 1.11 1.54
2 -1 -7 0.72 1.03
2 -1 -7 0.46 0.65
2 -1 -7 -0.73 0.61
2 -1 -7 0.34 0.44
1 -1 -7 1.21 0.63
1 -1 -7 0.31 0.69
1 -1 -7 -0.76 0.56
1 -1 -7 0.36 0.8
0 -1 -7 1.39 1.06
0 -1 -7 -0.27 0.94
0 -1 -7 1.11 0.68
0 -1 -7 -0.41 1.13
-1 -1 -7 0.53 1.35
-1 -1 -7 0.51 0.67
-1 -1 -7 0.26 0.77
-1 -1 -7 -1.21 0.52
-1 -1 -7 -0.24 0.6
-2 -1 -7 14.22 2.77
-2 -1 -7 17.85 2.72
-2 -1 -7 19.84 3
-2 -1 -7 15.99 3.94
-3 -1 -7 7.54 1.7
-3 -1 -7 7.29 1.94
-3 -1 -7 12.86 3.61
-3 -1 -7 6.33 2.01
-4 -1 -7 6.36 2.1
-4 -1 -7 10.11 1.37
-4 -1 -7 9.82 2.4
-5 -1 -7 15.62 3.19
-5 -1 -7 15.05 3.04
-6 -1 -7 -0.67 0.85
-6 -1 -7 0.7 1.18
-6 -1 -7 0.51 0.93
6 1 7 -0.28 1.52
-7 -1 -7 -0.14 0.71
-7 -1 -7 -1.82 1.18
-7 -1 -7 -0.88 1.19
7 1 7 -1.22 1.88
-8 -1 -7 0.15 1.82
-8 -1 -7 -0.12 1.19
-8 -1 -7 2.77 1.69
8 1 7 -0.66 1.81
-9 -1 -7 -1.53 1.3
-9 -1 -7 0.79 1.23
-9 -1 -7 -0.64 1.85
9 1 7 0.99 2.3
-10 -1 -7 0.21 1.35
-10 -1 -7 0.34 2.59
-10 -1 -7 1.28 2.37
10 1 7 4.26 3.1
9 -2 -7 -0.82 1.88
-9 2 7 0.92 1.72
8 -2 -7 2.96 1.67
8 -2 -7 0.82 1.63
8 -2 -7 -0.31 0.71
-8 2 7 -0.42 1.3
7 -2 -7 3.39 1.63
7 -2 -7 3.33 2.81
7 -2 -7 -0.92 1.14
-7 2 7 1.55 2.44
6 -2 -7 -0.1 0.5
6 -2 -7 1.43 1.51
6 -2 -7 0.51 1.18
-6 2 7 0.38 0.75
5 -2 -7 -0.04 0.53
5 -2 -7 3.32 1.86
5 -2 -7 -0.43 0.86
-5 2 7 1.58 0.88
-5 2 7 0.27 1.7
4 -2 -7 0.76 0.91
4 -2 -7 0.56 0.45
4 -2 -7 -0.08 1.01
-4 2 7 0.49 0.5
-4 2 7 0.47 1.07
3 -2 -7 5.26 1.18
3 -2 -7 4.95 1.19
3 -2 -7 4.55 1.63
3 -2 -7 4.59 2.06
-3 2 7 2.25 1.81
2 -2 -7 8.01 1.75
2 -2 -7 6.97 1.89
2 -2 -7 4.85 1.99
-2 2 7 1.91 1.76
1 -2 -7 1.91 0.99
1 -2 -7 0.83 0.74
1 -2 -7 -0.22 0.49
0 -2 -7 0.93 0.65
0 -2 -7 -0.47 0.5
0 -2 -7 0.51 0.66
0 -2 -7 -1.26 1.37
0 -2 -7 1.73 1.01
-1 -2 -7 8.76 2.58
-1 -2 -7 8.76 1.93
-1 -2 -7 8.03 1.83
-1 -2 -7 10.37 2.28
-1 -2 -7 11.2 2.79
-2 -2 -7 6.47 1.76
-2 -2 -7 3.57 1.47
-2 -2 -7 2.96 1.22
-2 -2 -7 6.75 2.23
-2 -2 -7 4.74 2.06
-3 -2 -7 -0.31 0.5
-3 -2 -7 0.75 0.94
-3 -2 -7 -0.44 1.3
-4 -2 -7 3.13 1.39
-4 -2 -7 2.94 1.82
-4 -2 -7 3.6 0.97
4 2 7 1.34 1.65
-5 -2 -7 -0.21 0.54
-5 -2 -7 -0.61 1.24
-5 -2 -7 -0.75 0.47
5 2 7 -1.51 1.42
-6 -2 -7 1.85 1.74
-6 -2 -7 0.39 0.98
-6 -2 -7 1.98 1.31
6 2 7 1.15 1.66
-7 -2 -7 0.8 1.39
-7 -2 -7 1.42 1.16
-7 -2 -7 -0.17 1.55
7 2 7 1.32 1.84
-8 -2 -7 -2.25 1.36
-8 -2 -7 1.99 1.24
8 2 7 -1.71 2.03
-9 -2 -7 5.35 2.22
-9 -2 -7 0.97 1.68
-9 -2 -7 11.21 3.69
9 2 7 1.13 2.95
-10 -2 -7 1.09 1.7
-10 -2 -7 0.91 1.55
10 2 7 5.16 3.24
-11 -2 -7 -0.86 1.41
-11 -2 -7 -0.12 2.65
9 -3 -7 -3.96 2.16
-9 3 7 0.84 1.47
8 -3 -7 5.96 2.58
8 -3 -7 4.09 1.52
8 -3 -7 5.39 2.11
-8 3 7 2.97 1.28
7 -3 -7 14.1 2.51
7 -3 -7 7.92 3.28
7 -3 -7 13.41 3.66
-7 3 7 7.22 3.14
6 -3 -7 2.97 1.06
6 -3 -7 -0.39 1.43
6 -3 -7 0.73 1.48
5 -3 -7 0.54 1.11
5 -3 -7 -0.36 0.64
5 -3 -7 -0.16 0.74
-5 3 7 2.73 1.81
4 -3 -7 0.48 0.94
4 -3 -7 -0.54 0.91
4 -3 -7 -0.48 0.53
-4 3 7 0.12 1.74
3 -3 -7 5.61 1.45
3 -3 -7 5.65 2.22
3 -3 -7 4.87 1.83
-3 3 7 5.36 2.12
2 -3 -7 3.98 0.61
2 -3 -7 5.05 1.87
2 -3 -7 3.96 1.38
-2 3 7 2.72 1.51
1 -3 -7 1.21 1.16
1 -3 -7 0.22 0.4
1 -3 -7 -0.14 0.7
-1 3 7 0.67 0.8
0 -3 -7 24.75 3.94
0 -3 -7 17.01 3.42
0 -3 -7 18.25 2.79
0 -3 -7 18.94 3.84
-1 -3 -7 -0.01 0.44
-1 -3 -7 0.07 1.64
-1 -3 -7 0.1 0.57
-2 -3 -7 1.03 0.69
-2 -3 -7 0.59 0.58
-2 -3 -7 -0.13 0.4
-2 -3 -7 0.88 1.43
-3 -3 -7 7.04 2.03
-3 -3 -7 5.03 1.28
-3 -3 -7 6.11 1.6
-3 -3 -7 8.98 2.61
-4 -3 -7 3 1.06
-4 -3 -7 1.63 1.24
-4 -3 -7 3.61 0.96
-4 -3 -7 4.17 2.04
4 3 7 1.85 1.85
-5 -3 -7 5.85 1.35
-5 -3 -7 5.98 2.03
-5 -3 -7 8.67 2.62
5 3 7 4.38 2.36
-7 -3 -7 2.88 1.13
-7 -3 -7 2.72 1.43
7 3 7 1.79 2.13
-8 -3 -7 2.22 1.36
-8 -3 -7 -2.15 2.91
-8 -3 -7 -0.24 1.1
8 3 7 -0.16 1.89
-9 -3 -7 -0.07 1.08
-9 -3 -7 1.08 1.32
-9 -3 -7 1.62 1.97
-10 -3 -7 1.85 1.71
-10 -3 -7 6.21 3.36
-10 -3 -7 0.91 1.49
10 3 7 -2.31 2.96
-11 -3 -7 0.52 1.98
-11 -3 -7 -1.81 1.92
-11 -3 -7 -0.84 2.9
8 -4 -7 4.28 2.52
8 -4 -7 -0.71 1.17
8 -4 -7 0.57 2.14
7 -4 -7 4.92 2.18
7 -4 -7 2.69 1.57
7 -4 -7 3.5 2.23
-7 4 7 -3.25 1.99
6 -4 -7 -0.44 1.53
6 -4 -7 0.73 0.9
6 -4 -7 -0.53 1.43
5 -4 -7 0.26 1.07
5 -4 -7 0.05 0.77
5 -4 -7 0.4 1.38
-5 4 7 -0.55 1.52
4 -4 -7 3.02 1.5
4 -4 -7 3.87 1.79
4 -4 -7 5.66 2.41
-4 4 7 3.15 1.95
3 -4 -7 0.05 0.73
3 -4 -7 0.49 0.82
3 -4 -7 1.51 1.06
-3 4 7 2.81 1.31
2 -4 -7 -0.38 0.75
2 -4 -7 -0.32 0.55
2 -4 -7 0.98 0.84
-2 4 7 -0.52 0.87
1 -4 -7 0.51 0.16
1 -4 -7 0.71 0.81
1 -4 -7 0.2 0.63
1 -4 -7 0.47 0.17
-1 4 7 2.43 1.03
0 -4 -7 1.06 0.68
0 -4 -7 0.32 0.46
0 -4 -7 0.8 0.69
0 -4 -7 0.43 1.82
0 4 7 0.56 0.8
0 4 7 1.36 0.91
-1 -4 -7 0.86 0.82
-1 -4 -7 0.8 1.34
-1 -4 -7 1.82 0.69
1 4 7 2.62 1.56
-2 -4 -7 -0.12 0.26
-2 -4 -7 -0.88 1.32
-2 -4 -7 -0.73 0.49
2 4 7 0.53 0.63
-3 -4 -7 3.26 2.17
-3 -4 -7 4.09 1.49
-3 -4 -7 3.83 0.61
3 4 7 4.82 1.61
-4 -4 -7 1.63 1.91
-4 -4 -7 -0.03 0.55
-4 -4 -7 -0.3 0.27
-4 -4 -7 -0.11 0.81
-4 -4 -7 0.15 0.31
4 4 7 -0.98 1.94
4 4 7 -0.25 0.51
-5 -4 -7 0.31 0.91
-5 -4 -7 0.38 0.44
-5 -4 -7 0.97 0.71
-5 -4 -7 -0.61 1.19
5 4 7 0.62 1.54
5 4 7 0.8 0.61
-6 -4 -7 -0.79 1.6
-6 -4 -7 -0.33 0.57
-6 -4 -7 1.53 0.95
6 4 7 -0.15 0.44
6 4 7 0.94 1.83
-7 -4 -7 0.07 0.94
-7 -4 -7 -1.24 0.69
-7 -4 -7 0.44 1.94
7 4 7 3.85 2.43
7 4 7 0.22 0.28
-8 -4 -7 10.43 2.24
-8 -4 -7 14.1 4.26
-8 -4 -7 12.53 3.36
-9 -4 -7 -0.16 1.42
-9 -4 -7 0.16 1.51
-9 -4 -7 1.98 2.77
9 4 7 0.39 3.36
-10 -4 -7 -0.55 1.57
-10 -4 -7 0.35 1.5
-10 -4 -7 -1.95 2.49
10 4 7 3.21 3.57
-11 -4 -7 1.55 3.61
-11 -4 -7 0.83 2.06
-11 -4 -7 2.92 2.87
8 -5 -7 1.09 1.98
8 -5 -7 0.92 1.68
8 -5 -7 -0.72 1.4
7 -5 -7 -0.24 1.37
7 -5 -7 2.48 1.39
7 -5 -7 2.01 2.02
-7 5 7 3.84 3
6 -5 -7 1.25 1.22
6 -5 -7 -0.3 1.06
6 -5 -7 0.1 1.35
5 -5 -7 12.75 3.99
5 -5 -7 14.89 3.46
5 -5 -7 13.13 3.11
-5 5 7 8.05 3
4 -5 -7 0.49 1.05
4 -5 -7 -0.44 0.93
-4 5 7 -0.38 1.35
3 -5 -7 7.62 2.29
3 -5 -7 9.98 3.37
-3 5 7 4.82 1.99
-3 5 7 7.74 2.83
2 -5 -7 3.05 1.5
2 -5 -7 4.53 1.42
2 -5 -7 7.52 2.67
-2 5 7 4.16 1.73
-2 5 7 3.06 2.07
1 -5 -7 0.78 0.73
1 -5 -7 0.37 1.19
-1 5 7 1.52 0.88
-1 5 7 2.64 1.42
0 -5 -7 1.24 0.62
0 -5 -7 0.85 2.32
0 -5 -7 2.6 1.65
0 -5 -7 0.29 0.6
0 5 7 -0.77 1.02
0 5 7 0.07 0.75
-1 -5 -7 0.16 0.31
-1 -5 -7 -0.57 1.65
-1 -5 -7 0.6 0.5
-1 -5 -7 0.27 0.72
1 5 7 0.31 0.89
-2 -5 -7 7.29 2.66
-2 -5 -7 8.64 2.47
-2 -5 -7 9.62 2.24
2 5 7 7.8 2.39
-3 -5 -7 0.68 1.14
-3 -5 -7 -0.02 1.77
3 5 7 0.38 0.84
-4 -5 -7 10.09 2.5
-4 -5 -7 5.43 2.66
4 5 7 1.07 2.01
4 5 7 6.86 1.97
-5 -5 -7 3.04 1.98
-5 -5 -7 3.63 1.41
-5 -5 -7 1.23 1.17
5 5 7 2.43 1.14
5 5 7 0.45 1.61
-6 -5 -7 1.41 1.39
-6 -5 -7 1.83 2.17
6 5 7 2.06 1.13
6 5 7 2.87 2.31
-7 -5 -7 0.58 0.95
-7 -5 -7 0.88 0.67
-7 -5 -7 2.09 3.61
7 5 7 -1.28 2.02
7 5 7 0.97 0.68
-8 -5 -7 -3.34 2.11
-8 -5 -7 -1.55 0.98
-8 -5 -7 0.22 0.88
8 5 7 1.63 0.92
-9 -5 -7 0.99 1.3
-9 -5 -7 0.44 1.3
-9 -5 -7 1.47 1.3
-9 -5 -7 1.9 2.04
9 5 7 0.57 0.67
9 5 7 -1 3.23
-10 -5 -7 -0.26 1.78
-10 -5 -7 -0.59 1.67
-10 -5 -7 -4.98 2.59
10 5 7 0.1 0.28
10 5 7 0.21 0.49
-11 -5 -7 3.87 2.09
8 -6 -7 2.1 1.66
8 -6 -7 4.65 3.67
7 -6 -7 0.57 1.42
7 -6 -7 0.78 2.06
-7 6 7 -2.35 2.45
6 -6 -7 1.77 1.59
6 -6 -7 2.55 2.71
6 -6 -7 4.51 1.59
-6 6 7 0.52 1.86
5 -6 -7 0.77 1.71
5 -6 -7 -0.03 1.11
5 -6 -7 -0.86 1.33
-5 6 7 2.36 1.97
4 -6 -7 12.08 2.94
4 -6 -7 12.06 3.01
4 -6 -7 12.05 4.08
-4 6 7 13.51 3.3
3 -6 -7 12.48 2.82
3 -6 -7 15.76 4.7
3 -6 -7 15.27 3.44
-3 6 7 13.59 3.14
2 -6 -7 0.65 0.78
2 -6 -7 1.14 1.17
2 -6 -7 -1.71 0.96
-2 6 7 0.36 1.02
-2 6 7 -0.88 0.73
1 -6 -7 18.89 4.94
1 -6 -7 27.93 5.28
-1 6 7 29.02 5.28
-1 6 7 20.16 3.06
0 -6 -7 -0.63 1.97
0 -6 -7 1.85 1.73
0 -6 -7 1.44 0.74
0 6 7 1.56 1.49
0 6 7 1.54 0.92
-1 -6 -7 0.56 1.02
-1 -6 -7 1.38 2.02
-1 -6 -7 0.48 0.73
1 6 7 1 0.43
1 6 7 1.06 1.49
-2 -6 -7 8.64 2.27
-2 -6 -7 9.23 2.84
-2 -6 -7 8.92 2.92
2 6 7 9.15 2.84
-3 -6 -7 3.85 2.28
-3 -6 -7 6.59 2.35
-3 -6 -7 10.04 2.71
3 6 7 4.25 2.02
-4 -6 -7 -0.38 1.05
-4 -6 -7 -0.27 2.02
-4 -6 -7 -0.82 0.86
4 6 7 -0.14 1.92
4 6 7 0.02 0.84
-5 -6 -7 0.23 0.77
-5 -6 -7 -0.34 1.19
-5 -6 -7 3.93 2.71
5 6 7 1.89 2.43
5 6 7 1.05 1.29
-6 -6 -7 2.28 1.5
-6 -6 -7 2.27 1.84
-6 -6 -7 -0.79 1.65
6 6 7 1.81 1.25
6 6 7 1.08 2.28
-7 -6 -7 3.24 1.91
-7 -6 -7 -0.4 2.76
-7 -6 -7 0.37 1.75
7 6 7 -0.18 1.1
-8 -6 -7 0.34 0.86
-8 -6 -7 1.36 1.22
-8 -6 -7 3.97 3.33
8 6 7 -5.86 3.23
8 6 7 0.38 1.09
-9 -6 -7 -4.01 2.86
-9 -6 -7 2.29 2.03
-9 -6 -7 0.79 1.16
-9 -6 -7 -2.26 1.31
9 6 7 0.3 1.13
9 6 7 2.39 3.07
-10 -6 -7 -0.26 1.19
-10 -6 -7 5.08 3.54
-10 -6 -7 -1.46 1.93
10 6 7 1.55 1.29
-11 -6 -7 -0.67 1.89
11 6 7 0.62 1.39
7 -7 -7 1.54 2.63
7 -7 -7 -1.66 1.67
6 -7 -7 -1.6 1.4
6 -7 -7 1.24 1.6
-6 7 7 1.82 2.02
5 -7 -7 3.22 2.82
5 -7 -7 5.96 2.18
-5 7 7 3.38 2.85
-5 7 7 3.04 2.02
4 -7 -7 -1.13 1.33
4 -7 -7 0.75 1.68
-4 7 7 -1.03 1.4
3 -7 -7 2.66 1.55
-3 7 7 1.45 1.5
2 -7 -7 -0.75 1.49
2 -7 -7 -0.47 1.23
-2 7 7 1.29 1.09
-2 7 7 -1.42 2.2
1 -7 -7 28.9 6.36
1 -7 -7 30.21 6.07
1 -7 -7 24.51 4.68
-1 7 7 38.58 7.15
-1 7 7 25.62 3.51
0 -7 -7 13.58 3.44
0 -7 -7 4.4 1.39
0 -7 -7 7.53 3.07
0 7 7 3.35 1.06
0 7 7 1.47 1.84
-1 -7 -7 4.82 1.58
-1 -7 -7 3.63 2.21
-1 -7 -7 5.31 3.17
1 7 7 3.79 1
1 7 7 8.74 2.93
-2 -7 -7 6.25 2.13
-2 -7 -7 7.24 2.22
-2 -7 -7 4.56 2.31
2 7 7 7.45 2.29
-3 -7 -7 7.3 3.13
-3 -7 -7 5.77 2.23
-3 -7 -7 8.05 2.56
3 7 7 7.14 2.58
-4 -7 -7 0.1 1.19
-4 -7 -7 2.29 1.54
-4 -7 -7 -0.53 1.92
4 7 7 1.06 3.04
4 7 7 0.74 1.47
-5 -7 -7 10.69 3.34
-5 -7 -7 15.4 5.4
-5 -7 -7 11.22 3.6
5 7 7 11.37 3.25
-6 -7 -7 1.59 1.72
-6 -7 -7 -0.89 2.43
6 7 7 -0.11 1.31
-7 -7 -7 1.27 2.3
-7 -7 -7 0.33 1.73
-7 -7 -7 1.41 1.37
-8 -7 -7 -0.26 1.97
-8 -7 -7 5.36 3.04
-8 -7 -7 2.17 1.81
8 7 7 3.75 3.6
8 7 7 4.58 2.14
-9 -7 -7 -1.2 1.8
-9 -7 -7 3.35 3.27
9 7 7 0.51 1.49
-10 -7 -7 -0.22 1.48
-10 -7 -7 -0.51 1.45
-10 -7 -7 8.74 6.1
10 7 7 -1.09 2.8
7 -8 -7 -3.81 2.05
6 -8 -7 0.94 1.41
6 -8 -7 1.18 1.95
5 -8 -7 0.94 1.72
5 -8 -7 -0.56 1.63
4 -8 -7 1.09 2.07
4 -8 -7 -1.13 1.41
-4 8 7 -0.61 1.43
-4 8 7 0.11 1.33
3 -8 -7 0.31 1.65
3 -8 -7 -0.86 1.65
-3 8 7 3.01 1.66
2 -8 -7 8.53 3.25
2 -8 -7 3.98 2.55
2 -8 -7 2.66 2.06
-2 8 7 5.55 1.83
1 -8 -7 9.77 2.81
1 -8 -7 10.24 4.01
1 -8 -7 9.45 2.15
1 -8 -7 9.49 4.58
-1 8 7 11.78 2.32
-1 8 7 6.29 3.11
0 -8 -7 3.8 3.22
0 -8 -7 -1.1 0.73
0 -8 -7 -1.08 1.27
0 -8 -7 -0.86 0.73
0 8 7 -0.18 1.64
0 8 7 1.22 0.74
-1 -8 -7 -0.46 2.12
-1 -8 -7 0.01 0.8
1 8 7 2.48 1.65
-2 -8 -7 -2.48 1.07
-2 -8 -7 0.05 1.1
-2 -8 -7 -1.45 1.6
2 8 7 -1.13 1.6
-3 -8 -7 6.12 4.53
-3 -8 -7 10.02 3.56
3 8 7 13.08 3.66
-4 -8 -7 7.14 2.68
-4 -8 -7 -2.55 2.18
-4 -8 -7 1.28 1.44
4 8 7 3.04 2.11
4 8 7 0.89 2.25
-5 -8 -7 1.35 1.97
-5 -8 -7 2.13 2.75
-5 -8 -7 6.98 2.58
5 8 7 5.41 2.54
-6 -8 -7 10.22 4.04
6 8 7 9.77 3.11
-7 -8 -7 3.59 3.72
7 8 7 2.5 4.26
7 8 7 8.89 2.98
-8 -8 -7 -0.54 0.83
-8 -8 -7 -1.13 1.15
-8 -8 -7 4.88 3.26
8 8 7 0.01 1.59
8 8 7 -1.29 5.28
-9 -8 -7 -0.53 1.82
9 8 7 2.07 1.76
-10 -8 -7 -5.29 2.88
10 8 7 0.79 1.98
6 -9 -7 -1.62 1.56
5 -9 -7 -1.43 1.94
-5 9 7 1.51 2.09
4 -9 -7 2.34 2.03
4 -9 -7 -1.33 1.14
-4 9 7 5.73 2.18
3 -9 -7 3.78 2.89
3 -9 -7 0.9 1.81
3 -9 -7 0.94 1.56
-3 9 7 -0.6 2.19
-3 9 7 -1.22 1.54
2 -9 -7 1.94 2.73
2 -9 -7 0.35 1.69
2 -9 -7 2.9 1.82
-2 9 7 -0.06 1.56
1 -9 -7 -0.01 0.81
1 -9 -7 1.55 1.42
1 -9 -7 2.32 2.23
1 -9 -7 -1.25 1.15
-1 9 7 -0.77 0.97
0 -9 -7 -0.45 2.09
0 -9 -7 1 1.26
0 -9 -7 2.8 1.92
0 -9 -7 3.85 1.62
0 9 7 1.47 1
-1 -9 -7 0.51 1.1
-1 -9 -7 1.9 1.23
-1 -9 -7 -2.35 1.74
1 9 7 -0.49 0.55
-2 -9 -7 1.13 2.26
-2 -9 -7 2.73 2.41
-2 -9 -7 1.98 1.93
2 9 7 0.8 0.47
2 9 7 2.37 1.79
-3 -9 -7 -0.79 1.51
-3 -9 -7 1.06 2.8
-3 -9 -7 -0.18 1.27
3 9 7 0.22 1.31
-4 -9 -7 5.98 3.41
-4 -9 -7 0.02 1.54
-4 -9 -7 3.41 1.82
4 9 7 0.2 1.29
-5 -9 -7 -1.48 2.63
-5 -9 -7 -1.33 1.67
5 9 7 0.46 1.47
-6 -9 -7 -2.63 2.59
-6 -9 -7 -0.53 0.8
6 9 7 2.65 3.85
6 9 7 1.6 1.64
-7 -9 -7 4.39 4.31
-7 -9 -7 0.66 1.84
7 9 7 0.37 2.17
-8 -9 -7 4.04 3.72
-8 -9 -7 -0.84 1.56
8 9 7 -1.69 1.96
-9 -9 -7 -0.82 1.5
-9 -9 -7 -4.8 3.84
5 -10 -7 1 2.42
4 -10 -7 2.05 2.56
4 -10 -7 2.37 3.22
-4 10 7 -2.51 2.11
3 -10 -7 2.36 1.89
3 -10 -7 3.74 2.42
-3 10 7 -0.58 1.35
2 -10 -7 0.22 2.75
2 -10 -7 4.72 2.09
-2 10 7 0.76 1.49
1 -10 -7 0.96 1.59
1 -10 -7 0.51 2.82
1 -10 -7 -2.65 1.63
1 -10 -7 -0.92 1.27
-1 10 7 -0.96 1.93
-1 10 7 0.25 1.35
0 -10 -7 2.14 2.91
0 -10 -7 2.39 1.73
0 -10 -7 0.88 1.3
0 -10 -7 -0.51 1.42
0 10 7 1.59 1.15
0 10 7 0.46 1.68
-1 -10 -7 1.22 1.91
-1 -10 -7 3.42 2.1
-1 -10 -7 -1.16 1.54
-1 -10 -7 0.09 2.98
1 10 7 -0.32 2.01
1 10 7 2.47 1.02
-2 -10 -7 -1.45 2.6
-2 -10 -7 1.88 1.51
-2 -10 -7 0.13 1.17
2 10 7 1.7 0.64
2 10 7 -0.64 0.68
2 10 7 0.68 2.19
-3 -10 -7 1.39 1.76
-3 -10 -7 -2.92 2.6
-3 -10 -7 -3.99 1.73
3 10 7 -1.27 3.45
3 10 7 0.38 0.4
-4 -10 -7 1.09 2.22
-4 -10 -7 0.96 1.74
-4 -10 -7 3.3 3.03
4 10 7 3.98 3.01
-5 -10 -7 -0.96 1.82
-5 -10 -7 -1.04 3.13
5 10 7 1.08 2.63
-6 -10 -7 -0.31 3.01
-6 -10 -7 -3.34 2.14
6 10 7 0.18 2.29
-7 -10 -7 2.6 2.83
-8 -10 -7 2.36 5.83
8 10 7 3.61 2.82
3 -11 -7 4.28 4.29
3 -11 -7 2.86 3.49
-3 11 7 -0.08 1.15
2 -11 -7 0.16 3.1
-2 11 7 2.21 1.91
-2 11 7 -0.14 1.09
1 -11 -7 4.68 3.41
1 -11 -7 -2.05 1.75
-1 11 7 2.87 1.71
0 -11 -7 1.16 2.03
0 -11 -7 -0.63 1.81
0 11 7 0.66 1.72
-1 -11 -7 3.18 1.67
-1 -11 -7 -1.11 1.86
1 11 7 -0.13 1.09
-2 -11 -7 4.76 2.44
-2 -11 -7 0.27 2.66
-2 -11 -7 2.09 1.51
2 11 7 -1.08 0.92
2 11 7 1.14 0.97
-3 -11 -7 0.29 2.38
-3 -11 -7 -0.28 3.61
-3 -11 -7 1.13 1.71
3 11 7 -1.09 0.64
3 11 7 0.09 0.71
-4 -11 -7 0.94 2.34
-4 -11 -7 -0.06 3.61
-4 -11 -7 -1.92 1.27
4 11 7 -0.01 0.44
4 11 7 3.31 3.31
-5 -11 -7 -1.25 3.15
-5 -11 -7 2.74 2.41
-6 -11 -7 2.06 2.9
-7 -11 -7 -2.73 4.58
0 -12 -7 -2.87 1.92
0 -12 -7 1.74 3.08
0 -12 -7 7.43 4.6
-1 -12 -7 2.4 3.67
-1 -12 -7 -3.85 2.07
-2 -12 -7 0.92 4.13
2 12 7 1.12 1.3
-3 -12 -7 4.51 3.73
-3 -12 -7 0.09 2.45
-3 -12 -7 6.1 2.33
3 12 7 2.07 1.39
3 12 7 0.09 1.09
-4 -12 -7 6.63 4.69
2 5 -8 0.87 2.4
1 5 -8 -1.13 2.12
1 5 -8 4.78 3.51
0 5 -8 1.95 3.04
0 5 -8 1.69 2.9
0 5 -8 0.69 2.27
-1 5 -8 -2.64 2.04
-1 5 -8 2.25 2.75
-1 5 -8 1.54 1.43
-1 5 -8 -2.1 4.17
1 -5 8 1.89 1.74
-2 5 -8 1.17 1.45
-2 5 -8 2.59 2.2
-2 5 -8 -5.25 2.16
2 -5 8 -2.53 1.63
-3 5 -8 1.26 1.29
-3 5 -8 -2.1 1.7
-3 5 -8 -0.85 2.43
3 -5 8 1.96 3.77
4 4 -8 3.38 2.49
4 4 -8 3.55 2.5
4 4 -8 2.14 1.71
3 4 -8 -5.87 2.43
3 4 -8 0.96 1.09
3 4 -8 -0.2 1.83
-3 -4 8 4.65 3.6
2 4 -8 0.89 0.56
2 4 -8 3.37 2.82
2 4 -8 2.47 1.93
-2 -4 8 1.3 3.28
1 4 -8 4.09 2.3
1 4 -8 2.81 2.64
-1 -4 8 0.08 3.25
0 4 -8 3.81 2.18
0 4 -8 -0.88 1.66
0 4 -8 -3.93 1.89
0 4 -8 -0.63 0.98
-1 4 -8 1.55 1.89
-1 4 -8 2.47 2.63
-1 4 -8 0.48 1.04
-1 4 -8 3.5 2.23
1 -4 8 0.23 1.47
-2 4 -8 0.81 1.06
-2 4 -8 -1.91 1.4
-2 4 -8 0.81 1.33
2 -4 8 2.59 1.76
-3 4 -8 0.35 1.24
-3 4 -8 -0.49 1.73
-3 4 -8 0.6 1.81
3 -4 8 -2.35 1.65
-4 4 -8 -0.62 1.25
-4 4 -8 1.87 1.78
-4 4 -8 -0.14 1.91
-5 4 -8 6.36 2.02
-5 4 -8 -1.4 2.65
5 -4 8 4.25 2.64
5 3 -8 3.67 2.33
5 3 -8 -1.43 1.62
-5 -3 8 3.08 2.81
4 3 -8 -0.07 1.78
4 3 -8 1.32 1.76
3 3 -8 -0.86 1.52
3 3 -8 -0.4 1.13
3 3 -8 -0.64 1.45
-3 -3 8 -0.8 2.3
2 3 -8 3.15 2.18
2 3 -8 0.51 1.06
2 3 -8 0.92 2.29
1 3 -8 1.74 2.13
1 3 -8 -1.88 1.79
1 3 -8 1.03 0.69
0 3 -8 -0.78 1.47
0 3 -8 1.5 1.64
0 3 -8 0.39 0.67
-1 3 -8 0.88 0.97
-1 3 -8 1.85 2.31
-2 3 -8 0.5 1.5
-2 3 -8 0.79 0.82
-2 3 -8 -0.37 1.8
2 -3 8 0.44 1.17
-3 3 -8 -2.64 1.21
-3 3 -8 0.37 1.16
-3 3 -8 -0.18 1.98
3 -3 8 0.69 1.5
-4 3 -8 -0.73 2.06
-4 3 -8 0.71 1.4
-4 3 -8 -1.97 1.19
-5 3 -8 1.79 1.92
-5 3 -8 0.97 1.65
-5 3 -8 -0.97 1.1
5 -3 8 4.28 2.38
-6 3 -8 0.15 0.76
-6 3 -8 1.06 1.9
6 -3 8 3.02 2.6
-7 3 -8 -4.61 2.37
-7 3 -8 -1.33 1.69
6 2 -8 5.69 5.01
6 2 -8 6.09 3.12
5 2 -8 -3.73 1.82
5 2 -8 -0.08 1.31
5 2 -8 1.61 1.46
-5 -2 8 2.32 1.95
4 2 -8 -0.64 1.45
4 2 -8 3.09 2.91
4 2 -8 1.42 2.03
-4 -2 8 -0.91 1.82
3 2 -8 -0.49 1.29
-3 -2 8 -0.43 2.22
2 2 -8 -0.1 2.01
2 2 -8 2.29 1.35
2 2 -8 1.25 1.48
-2 -2 8 -2.87 1.71
1 2 -8 0.15 0.45
1 2 -8 -1.21 1.45
1 2 -8 -0.5 1.16
1 2 -8 0.52 0.96
0 2 -8 3.86 1.23
0 2 -8 3.33 2.24
0 2 -8 3.21 1.1
0 2 -8 3.14 2.51
0 2 -8 4.29 1.15
-1 2 -8 -1.85 1.29
-1 2 -8 0.6 0.88
-1 2 -8 -0.37 1.33
-2 2 -8 -0.94 0.65
-2 2 -8 -0.09 1.93
-3 2 -8 -0.15 0.91
-3 2 -8 2.89 2.36
-3 2 -8 -0.96 0.75
3 -2 8 -1.39 1.22
-4 2 -8 -0.58 1.45
-4 2 -8 1.38 1.03
-4 2 -8 1.59 1.18
4 -2 8 -0.16 1.37
-5 2 -8 1.05 1.27
-5 2 -8 0.39 0.86
-5 2 -8 0.93 2.16
-6 2 -8 1.3 1.57
-6 2 -8 2 1.65
6 -2 8 1.56 1.83
-7 2 -8 -0.08 1.84
-7 2 -8 2.25 2.76
-8 2 -8 0.36 2.89
8 -2 8 -0.14 3.05
7 1 -8 0.51 1.17
7 1 -8 -1.4 2.11
6 1 -8 -3.43 1.76
6 1 -8 2.69 2.48
6 1 -8 -1.36 1.22
6 1 -8 0.26 1.06
-6 -1 8 -1.41 1.88
5 1 -8 2.35 1.65
5 1 -8 1.68 2.03
5 1 -8 1.53 2.36
-5 -1 8 9.93 3.94
4 1 -8 -0.05 1.52
4 1 -8 3.28 2.19
4 1 -8 1.85 1.5
-4 -1 8 -2.85 1.79
3 1 -8 25.86 5.15
3 1 -8 27.72 7.29
3 1 -8 22.57 4.92
-3 -1 8 23.49 5.25
2 1 -8 1.42 1.87
2 1 -8 -0.11 1.29
2 1 -8 0.95 1.49
-2 -1 8 -0.13 1.72
1 1 -8 7.79 3.11
1 1 -8 2.82 0.86
1 1 -8 3.17 2.28
0 1 -8 14.25 3.86
0 1 -8 10.62 2.06
0 1 -8 17.13 4.62
-1 1 -8 0.31 1.09
-1 1 -8 3.22 2.04
-1 1 -8 0.82 1.03
-1 1 -8 3.49 1.29
-2 1 -8 2.45 1.96
-2 1 -8 1.49 1.1
-2 1 -8 1.14 0.74
-3 1 -8 0.13 0.65
-3 1 -8 0.07 0.82
-3 1 -8 -0.77 2.03
-4 1 -8 0.17 0.97
-4 1 -8 -0.29 0.71
-4 1 -8 -0.22 0.89
-4 1 -8 0.42 0.75
4 -1 8 0.59 1.45
-5 1 -8 1.8 0.65
-5 1 -8 -0.03 1.67
-5 1 -8 1.36 1.27
5 -1 8 0.08 1.49
-6 1 -8 3.28 1.36
-6 1 -8 2.25 2.24
-6 1 -8 5.82 2.01
6 -1 8 1.43 1.79
-7 1 -8 1.06 1.46
-7 1 -8 -2.68 3.53
-7 1 -8 1.97 2.41
7 -1 8 -0.64 2.2
7 -1 8 -2.59 1.52
-8 1 -8 -0.23 1.12
-8 1 -8 -1.16 2.41
-8 1 -8 3.07 2
-9 1 -8 0.37 1.57
-9 1 -8 0.92 1.43
9 -1 8 -1.54 3.28
7 0 -8 3.92 2.37
7 0 -8 0.46 1.96
-7 0 8 -0.91 2.14
6 0 -8 2.09 1.49
6 0 -8 2.27 1.62
6 0 -8 -2.23 3.8
-6 0 8 3.83 2.38
5 0 -8 2.95 2.36
5 0 -8 1.4 1.2
5 0 -8 0.9 1.33
5 0 -8 -1.26 1.31
-5 0 8 -0.91 1.47
4 0 -8 -2.13 1.15
4 0 -8 0.23 1.07
4 0 -8 0.32 1.19
4 0 -8 0.54 1.92
-4 0 8 2.37 1.5
3 0 -8 2.99 1.63
3 0 -8 0.53 2.33
3 0 -8 4.47 2.04
-3 0 8 4.48 2.33
2 0 -8 20.25 4.33
2 0 -8 16.77 3.79
2 0 -8 17.33 1.63
1 0 -8 2.14 1.63
1 0 -8 1.05 1.52
1 0 -8 1.37 0.63
0 0 -8 4.24 2.02
0 0 -8 4.45 1.17
0 0 -8 3.97 1.89
0 0 -8 4.12 2.11
-1 0 -8 3.63 1.77
-1 0 -8 3.5 2.36
-1 0 -8 4.91 1.33
-1 0 -8 0.81 1.5
-2 0 -8 4.72 1.6
-2 0 -8 2.81 1.3
-2 0 -8 3.92 2.31
-2 0 -8 5.77 2.78
-2 0 -8 3.75 1.86
-3 0 -8 -0.13 0.96
-3 0 -8 1.99 1.96
-3 0 -8 1.66 1.4
-3 0 -8 3.65 1.39
-4 0 -8 1.62 0.84
-4 0 -8 1.75 2.05
-4 0 -8 1.5 1.22
-4 0 -8 -0.65 0.96
-5 0 -8 -0.05 1.09
-5 0 -8 2.64 1.58
-5 0 -8 1.15 1.54
-6 0 -8 4.73 1.94
-6 0 -8 1.02 1.76
-6 0 -8 1.43 1.5
6 0 8 -0.79 2.07
-7 0 -8 0.41 0.7
-7 0 -8 -0.37 1.17
-7 0 -8 -0.32 1.33
7 0 8 0.21 2.24
-8 0 -8 3.33 2.42
-8 0 -8 -1.59 1.34
-8 0 -8 -1.81 1.63
-8 0 -8 -0.62 0.96
8 0 8 -0.02 2.53
-9 0 -8 -2.02 0.84
-9 0 -8 -0.59 2.07
9 0 8 0.79 3.41
8 -1 -8 6.04 2.42
-8 1 8 0.05 1.9
7 -1 -8 2.14 1.78
7 -1 -8 1.03 1.67
-7 1 8 -0.04 1.4
6 -1 -8 7.17 2.68
6 -1 -8 5.6 4.06
-6 1 8 6.44 2.88
5 -1 -8 0 1.05
5 -1 -8 -1.99 1.31
-5 1 8 4.97 3.37
-5 1 8 0.17 1.15
4 -1 -8 0.32 1.29
4 -1 -8 0.13 0.52
4 -1 -8 1.09 1.42
-4 1 8 1.54 1.26
-4 1 8 0.06 1.19
3 -1 -8 0.75 0.83
3 -1 -8 0.78 0.21
3 -1 -8 1.1 1.23
3 -1 -8 0.6 1.11
3 -1 -8 0.8 0.19
2 -1 -8 1.86 1.4
2 -1 -8 1.1 1.08
2 -1 -8 0.16 0.95
1 -1 -8 0.42 0.85
1 -1 -8 -1.8 0.93
1 -1 -8 0.81 0.59
1 -1 -8 0.88 1.17
0 -1 -8 8.07 2.45
0 -1 -8 4.29 1.77
0 -1 -8 6 2.09
0 -1 -8 3.11 2.41
0 -1 -8 6.36 1.57
-1 -1 -8 35.79 4.63
-1 -1 -8 34.9 5.44
-1 -1 -8 30.59 4.59
-1 -1 -8 33.27 4.63
-1 -1 -8 34.53 3.99
-2 -1 -8 0.11 1.06
-2 -1 -8 -0.06 0.48
-2 -1 -8 -0.38 0.71
-2 -1 -8 0.39 1.25
-2 -1 -8 -0.22 0.81
-3 -1 -8 0.23 1.92
-3 -1 -8 2.94 1.37
-3 -1 -8 2.99 1.65
-4 -1 -8 21.74 2.69
-4 -1 -8 21.42 3.61
-4 -1 -8 27.28 3.72
-4 -1 -8 17.75 4.85
-5 -1 -8 2.65 1.65
-5 -1 -8 2.43 2.22
-5 -1 -8 7.96 2.32
5 1 8 0.84 1.72
-6 -1 -8 -0.48 1.28
-6 -1 -8 2.31 1.67
-6 -1 -8 -0.37 1.25
6 1 8 2.41 2.2
-7 -1 -8 -0.72 1.45
-7 -1 -8 2.14 1.65
-7 -1 -8 0.12 1.29
7 1 8 1.38 2.36
-8 -1 -8 -1.08 1.02
-8 -1 -8 -0.5 1.46
-8 -1 -8 -0.74 1.59
-9 -1 -8 -1.17 1.58
-9 -1 -8 -1.23 1.43
-10 -1 -8 1.01 2.15
-10 -1 -8 -0.92 1.62
8 -2 -8 0.68 1.36
8 -2 -8 5.92 4.22
-8 2 8 0.12 1.25
7 -2 -8 -1.8 1.81
7 -2 -8 2.11 2.14
-7 2 8 1.44 1.24
6 -2 -8 -0.71 0.47
6 -2 -8 1.16 1.45
6 -2 -8 -2.62 1.25
-6 2 8 -0.3 0.85
-6 2 8 0.25 2.07
5 -2 -8 0.58 1.25
5 -2 -8 1.67 1.61
4 -2 -8 1.77 1.62
4 -2 -8 -1.07 0.86
4 -2 -8 1.16 0.54
-4 2 8 -1.44 1.59
3 -2 -8 14.7 3.85
3 -2 -8 16.86 2.29
3 -2 -8 12.24 1.9
3 -2 -8 13.1 3.01
-3 2 8 13.98 3.65
2 -2 -8 0.01 1.01
2 -2 -8 1.98 0.99
2 -2 -8 4.1 1.85
2 -2 -8 2.27 0.9
1 -2 -8 0.81 0.69
1 -2 -8 0.98 0.81
1 -2 -8 0.94 0.9
1 -2 -8 1.04 0.83
0 -2 -8 0.71 0.71
0 -2 -8 -0.47 0.64
0 -2 -8 0.79 0.94
0 -2 -8 -1.22 1.61
-1 -2 -8 4.05 1.34
-1 -2 -8 1.06 1.15
-1 -2 -8 3.78 1.72
-1 -2 -8 1.13 1.87
-1 -2 -8 1.86 1.15
-2 -2 -8 5.51 2.17
-2 -2 -8 4.27 1.61
-2 -2 -8 4.56 1.61
-2 -2 -8 4.5 1.51
-2 -2 -8 1.43 1.8
-3 -2 -8 0.55 0.98
-3 -2 -8 2.36 1.58
-3 -2 -8 1.28 1.01
-3 -2 -8 2.14 1.37
-4 -2 -8 0.11 0.88
-4 -2 -8 1.33 1.67
-4 -2 -8 0.22 0.54
-5 -2 -8 4.61 2.27
-5 -2 -8 3.85 1.51
5 2 8 1.27 1.91
-6 -2 -8 -0.3 0.81
-6 -2 -8 1.92 1.74
-6 -2 -8 1.84 1.04
6 2 8 -0.85 1.87
-7 -2 -8 -0.12 1.34
-7 -2 -8 2.81 2.13
-7 -2 -8 -1.46 1.64
7 2 8 -0.28 2.01
-8 -2 -8 0.26 1.79
-8 -2 -8 -0.99 1.38
-8 -2 -8 0.81 1.22
8 2 8 -3.36 2.11
-9 -2 -8 -3.32 1.27
-9 -2 -8 0.2 2.24
-9 -2 -8 2 1.6
-10 -2 -8 8.07 2.85
10 2 8 5.7 3.61
8 -3 -8 1.24 1
8 -3 -8 -3.84 1.68
7 -3 -8 -0.46 0.72
7 -3 -8 -1.11 1.54
7 -3 -8 0.12 1.69
6 -3 -8 1.25 0.99
6 -3 -8 0.8 1.69
6 -3 -8 -0.21 1.59
-6 3 8 0.62 2.38
5 -3 -8 3.48 1.35
5 -3 -8 2.5 1.9
5 -3 -8 5.17 2.51
-5 3 8 5.82 2.53
4 -3 -8 3.09 2.03
4 -3 -8 7.84 2.94
4 -3 -8 6.77 1.64
-4 3 8 7.75 2.89
3 -3 -8 2.16 1.88
3 -3 -8 1.72 1.4
3 -3 -8 2.42 1.02
-3 3 8 3.21 2
2 -3 -8 0.59 0.9
2 -3 -8 -0.05 0.71
2 -3 -8 0.86 0.51
-2 3 8 -0.63 1.01
1 -3 -8 1.57 1.47
1 -3 -8 2.24 1.19
1 -3 -8 2.5 1.09
0 -3 -8 1.95 0.94
0 -3 -8 -0.34 1.64
0 -3 -8 1.69 1.24
0 -3 -8 2.86 1.56
-1 -3 -8 1.66 1.96
-1 -3 -8 1.22 0.87
-1 -3 -8 -0.28 0.67
-1 -3 -8 0.95 1.09
-1 -3 -8 2.81 1.38
-2 -3 -8 0.24 1.16
-2 -3 -8 1.59 0.99
-2 -3 -8 0.83 1.04
-2 -3 -8 2.19 2
-3 -3 -8 3.27 1.21
-3 -3 -8 5.31 1.84
-3 -3 -8 1.19 1.86
-3 -3 -8 4.74 1.57
-4 -3 -8 1.24 1.09
-4 -3 -8 1.85 0.9
-4 -3 -8 -2.58 1.53
-5 -3 -8 1.27 0.53
-5 -3 -8 0.98 1.82
-5 -3 -8 1.91 0.9
-5 -3 -8 2.49 1.35
5 3 8 1.7 2.51
-6 -3 -8 2.46 1.86
6 3 8 1.58 2.02
-7 -3 -8 1.58 2.03
-7 -3 -8 0.75 1.05
-7 -3 -8 1.27 1.13
7 3 8 1.26 2.42
-8 -3 -8 3.29 1.18
-8 -3 -8 1.48 1.29
-8 -3 -8 -0.3 2.05
8 3 8 0.72 2.43
-9 -3 -8 -2.87 2.18
-9 -3 -8 0.24 1.45
-9 -3 -8 0.81 1.43
-10 -3 -8 -1.87 1.73
-10 -3 -8 -1.13 1.78
-10 -3 -8 -1 2.41
10 3 8 1.75 3.3
8 -4 -8 -1.53 2.01
8 -4 -8 0.14 1.29
7 -4 -8 4.32 1.96
7 -4 -8 0.28 2.2
6 -4 -8 -0.46 1.3
6 -4 -8 1.96 1.05
6 -4 -8 0.51 2
5 -4 -8 -0.1 0.83
5 -4 -8 0.03 1.47
5 -4 -8 0.79 1.1
-5 4 8 -0.74 1.65
4 -4 -8 8.57 2.31
4 -4 -8 15.37 4.26
4 -4 -8 9.35 2.74
-4 4 8 9.71 3.2
3 -4 -8 -0.22 0.84
3 -4 -8 1.08 0.99
3 -4 -8 1.04 1.21
-3 4 8 1.01 1.46
2 -4 -8 0.6 0.65
2 -4 -8 0.22 0.88
2 -4 -8 -0.43 0.59
-2 4 8 0.32 1.24
1 -4 -8 -0.49 0.71
1 -4 -8 0.41 0.35
1 -4 -8 0.56 0.89
-1 4 8 0.77 0.96
0 -4 -8 1.22 0.72
0 -4 -8 2.2 1.25
0 -4 -8 0.16 0.59
0 -4 -8 -1.2 1.48
-1 -4 -8 35.18 3.82
-1 -4 -8 43.54 5.35
-1 -4 -8 34.83 5.68
-2 -4 -8 13.63 3.64
-2 -4 -8 9.41 1.58
-2 -4 -8 14.1 2.93
-3 -4 -8 -0.56 0.54
-3 -4 -8 1.14 1.88
-3 -4 -8 0.07 0.38
-3 -4 -8 -1.1 0.64
-4 -4 -8 3.46 1.66
-4 -4 -8 2.45 0.71
-4 -4 -8 4.86 2.17
-4 -4 -8 1.28 0.62
4 4 8 2.69 2.09
-5 -4 -8 -0.25 0.48
-5 -4 -8 0.59 0.96
-5 -4 -8 4.73 2.3
-5 -4 -8 -0.71 0.45
5 4 8 -2.61 1.82
-6 -4 -8 -3.12 1.57
-6 -4 -8 1.79 2.07
-6 -4 -8 -0.04 0.58
6 4 8 0.83 2.04
-7 -4 -8 4.61 1.88
-7 -4 -8 0.31 2.47
7 4 8 -0.7 2.15
-8 -4 -8 1.36 2.63
-8 -4 -8 -0.12 0.77
-8 -4 -8 0.48 1
-9 -4 -8 1.45 0.9
-9 -4 -8 0.97 2.56
-9 -4 -8 -2.59 1.34
9 4 8 -0.22 3.38
-10 -4 -8 2.73 3.04
-10 -4 -8 -2.12 1.55
10 4 8 2.48 5.24
8 -5 -8 1.07 1.45
7 -5 -8 -2.28 0.93
7 -5 -8 -0.66 1.66
7 -5 -8 1.32 1.83
6 -5 -8 5.67 2.32
6 -5 -8 -0.15 1.62
6 -5 -8 0.19 1.27
5 -5 -8 4.77 2.56
5 -5 -8 1.91 1.92
5 -5 -8 3.92 1.74
-5 5 8 -0.31 1.77
4 -5 -8 1.5 1.35
4 -5 -8 0.65 1
4 -5 -8 -0.67 1.19
-4 5 8 0.81 1.49
3 -5 -8 1.26 1.07
3 -5 -8 0.92 1.23
-3 5 8 -0.32 1.49
2 -5 -8 1.31 1.02
2 -5 -8 0.06 1.22
2 -5 -8 0.02 0.73
-2 5 8 -1.83 1.12
1 -5 -8 -0.21 0.68
1 -5 -8 -0.2 0.56
-1 5 8 1.83 1.87
-1 5 8 0.72 0.81
0 -5 -8 26.97 5.16
0 -5 -8 17.47 4.82
0 -5 -8 29.23 3.19
0 -5 -8 23.03 3.06
0 -5 -8 23.75 2.76
0 5 8 33.7 4.84
-1 -5 -8 5.72 2.24
-1 -5 -8 2.58 0.77
-1 -5 -8 1 2.26
-1 -5 -8 3.36 1.15
1 5 8 0.12 0.93
-2 -5 -8 32.02 5.25
-2 -5 -8 23.05 4.69
2 5 8 33.65 4.65
-3 -5 -8 3.02 1.97
-3 -5 -8 1.65 1.27
3 5 8 1.66 1.29
-4 -5 -8 -0.79 0.69
-4 -5 -8 2.01 1.76
4 5 8 0.45 1.52
4 5 8 -0.44 0.58
-5 -5 -8 0.71 1.02
-5 -5 -8 -0.02 0.68
-5 -5 -8 0.35 2.12
5 5 8 0.48 2.41
5 5 8 0.51 0.92
-6 -5 -8 -1.23 1.29
-6 -5 -8 6.05 2.11
6 5 8 -2.78 1.91
6 5 8 1.89 0.94
-7 -5 -8 2.22 0.76
-7 -5 -8 0.69 1.19
-7 -5 -8 0.59 3.08
7 5 8 0.31 1.83
7 5 8 1.26 0.81
-8 -5 -8 -2.78 2.66
-8 -5 -8 2.63 1.03
-8 -5 -8 2.4 1.42
-9 -5 -8 -0.77 1.55
-9 -5 -8 0.98 1.26
-9 -5 -8 6.21 2.96
-10 -5 -8 0.05 3.04
-10 -5 -8 -1.43 1.63
7 -6 -8 1.48 1.69
7 -6 -8 -1.26 1.32
6 -6 -8 -0.11 1.64
6 -6 -8 2.31 1.43
6 -6 -8 -0.3 1.82
-6 6 8 1.99 2.41
5 -6 -8 3.1 2.11
5 -6 -8 5.67 3.24
5 -6 -8 6 2.04
-5 6 8 1.8 2.35
4 -6 -8 4.53 1.86
4 -6 -8 1.26 1.75
4 -6 -8 1.28 1.66
-4 6 8 -1.36 1.58
3 -6 -8 1.01 1.27
3 -6 -8 1.44 1.39
3 -6 -8 0.22 1.67
-3 6 8 1.2 1.66
2 -6 -8 12.26 4.02
2 -6 -8 11 2.43
2 -6 -8 6.79 2.48
-2 6 8 15.02 4.39
-2 6 8 9.97 2.71
1 -6 -8 12.5 2.3
1 -6 -8 10.66 3.25
1 -6 -8 8.56 4.05
-1 6 8 12.45 2.57
-1 6 8 14.38 4.04
0 -6 -8 44.02 6.47
0 -6 -8 50.57 4.68
0 -6 -8 34.1 6.4
0 -6 -8 49.78 4.72
0 6 8 56.34 7.21
0 6 8 42.62 4.85
-1 -6 -8 52.64 5.72
-1 -6 -8 50.32 7.66
-1 -6 -8 61.42 7.37
1 6 8 64.19 7.49
-2 -6 -8 13.63 2.85
-2 -6 -8 11.89 3.26
-2 -6 -8 6.65 2.91
2 6 8 11.91 3.31
-3 -6 -8 0.51 0.85
-3 -6 -8 -0.66 0.94
-3 -6 -8 0.03 1.52
3 6 8 -0.53 0.96
-4 -6 -8 -1.59 1.85
-4 -6 -8 0.5 0.93
4 6 8 0.55 1.37
4 6 8 -2.56 0.94
-5 -6 -8 1.98 1.51
-5 -6 -8 3.49 1.86
-5 -6 -8 -0.2 2.24
5 6 8 3.82 1.65
5 6 8 -2.3 2.19
-6 -6 -8 4.8 2.08
-6 -6 -8 -0.96 1.18
-6 -6 -8 1.54 2.75
6 6 8 1.46 2.58
6 6 8 3.3 1.53
-7 -6 -8 -2.48 1.04
-7 -6 -8 -3.4 2.43
-7 -6 -8 0.04 1.24
7 6 8 2 1.09
-8 -6 -8 0.95 3.41
-8 -6 -8 -1.3 1.39
-8 -6 -8 6.21 2.28
-8 -6 -8 1.91 0.81
8 6 8 0.73 2.76
8 6 8 2.32 1.12
-9 -6 -8 0.47 1.15
-9 -6 -8 0.19 0.89
-9 -6 -8 -0.51 3.39
9 6 8 2.55 4.93
9 6 8 1.41 0.99
-10 -6 -8 0.14 2.01
-10 -6 -8 -2.43 1.41
-10 -6 -8 -0.51 3.33
10 6 8 0.61 0.67
7 -7 -8 3.2 2.97
7 -7 -8 2.86 2.07
6 -7 -8 3.7 2.4
6 -7 -8 1.88 1.71
-6 7 8 -5.27 2.42
5 -7 -8 -0.39 1.29
5 -7 -8 2.09 1.59
5 -7 -8 0.68 1.26
4 -7 -8 1.66 1.43
4 -7 -8 2.47 1.39
4 -7 -8 2.54 1.66
-4 7 8 0.07 1.54
3 -7 -8 1.72 1.42
3 -7 -8 2.24 1.44
-3 7 8 -0.44 1.26
2 -7 -8 3.1 1.82
2 -7 -8 -0.3 0.74
-2 7 8 1.73 1.23
1 -7 -8 23.15 4.66
1 -7 -8 28.68 7.02
1 -7 -8 32.36 10.3
-1 7 8 31.25 3.94
-1 7 8 34.75 6.75
0 -7 -8 11.63 3.86
0 -7 -8 17.3 2.35
0 -7 -8 8.48 4.45
0 7 8 19.05 4.84
0 7 8 17.62 2.52
-1 -7 -8 0.73 1.22
-1 -7 -8 0.45 0.75
-1 -7 -8 -0.97 1.68
1 7 8 0.11 1.17
-2 -7 -8 0.63 0.85
-2 -7 -8 0.97 1.22
-2 -7 -8 0.29 2.24
2 7 8 0.57 1.44
-3 -7 -8 1.79 1.39
-3 -7 -8 -0.58 1.68
-3 -7 -8 2.72 1.85
3 7 8 1.98 1.56
-4 -7 -8 0.23 1.31
-4 -7 -8 2.5 1.6
-4 -7 -8 -0.56 3.19
4 7 8 -2.09 1.34
-5 -7 -8 -0.18 1.18
-5 -7 -8 -2.81 2.07
-5 -7 -8 0.6 1.51
5 7 8 0.37 1.13
-6 -7 -8 0.01 1.17
-6 -7 -8 0.83 2.97
6 7 8 2.12 1.23
-7 -7 -8 4.69 3.11
-7 -7 -8 2.6 1.9
-7 -7 -8 1.81 1.38
7 7 8 -0.11 1.6
7 7 8 6.94 4.64
-8 -7 -8 0.54 2.22
-8 -7 -8 -0.04 1.38
-8 -7 -8 1.69 1.7
8 7 8 -0.79 1.36
8 7 8 -3.23 2.12
-9 -7 -8 0.87 1.28
-9 -7 -8 -2.24 3.55
9 7 8 1.83 1.64
-10 -7 -8 3 3.79
-10 -7 -8 3.77 2.23
10 7 8 -1.27 1.44
6 -8 -8 -3.18 1.73
-6 8 8 0.18 3.11
5 -8 -8 -2.53 1.28
5 -8 -8 0.25 1.47
-5 8 8 1.09 2.39
4 -8 -8 -2.24 1.23
-4 8 8 1.15 1.68
3 -8 -8 1.34 0.97
3 -8 -8 -1.73 1.34
-3 8 8 -0.99 1.23
-3 8 8 0.51 1.74
2 -8 -8 0.77 1.55
2 -8 -8 0.24 1.45
2 -8 -8 1.03 2.35
-2 8 8 0.41 1.13
-2 8 8 1.15 3.05
1 -8 -8 0.32 1.63
1 -8 -8 2.13 2.85
1 -8 -8 5.46 2.58
-1 8 8 4.21 1.53
0 -8 -8 1.5 0.89
0 -8 -8 2.32 1.65
0 -8 -8 3.25 2.9
0 8 8 3.01 2.78
0 8 8 2.8 0.98
-1 -8 -8 2.65 2.47
-1 -8 -8 0.6 1.6
-1 -8 -8 3.46 1.47
1 8 8 7.39 2.94
1 8 8 1.59 0.61
-2 -8 -8 14.1 3.26
-2 -8 -8 12.32 3.84
-2 -8 -8 11.4 4.28
2 8 8 18.15 4.74
-3 -8 -8 5.64 2.5
-3 -8 -8 9.06 2.82
-3 -8 -8 5.83 3.57
3 8 8 5.79 3.03
-4 -8 -8 2.01 1.91
-4 -8 -8 -0.9 1.23
-4 -8 -8 0.48 1.73
4 8 8 2.35 1.97
-5 -8 -8 15.76 4.07
-5 -8 -8 13.48 3.61
-5 -8 -8 12.09 4.27
5 8 8 19.28 4.56
-6 -8 -8 6.61 3.48
-6 -8 -8 3.43 1.74
6 8 8 1.33 1.6
-7 -8 -8 0.1 0.86
-7 -8 -8 -1.37 1.19
-7 -8 -8 3.16 3.08
7 8 8 -1.65 1.76
7 8 8 1.19 3.59
-8 -8 -8 6.92 3.24
-8 -8 -8 4.91 4.47
-8 -8 -8 2.43 2.3
8 8 8 2.24 2.2
-9 -8 -8 -1.46 4.01
-9 -8 -8 4.84 2.1
9 8 8 -2.15 1.89
5 -9 -8 -0.13 1.76
-5 9 8 -4.33 1.94
4 -9 -8 -1.85 2.37
-4 9 8 4.27 2.48
3 -9 -8 -3.74 1.41
3 -9 -8 1.05 1.41
-3 9 8 -3.67 1.45
2 -9 -8 0.57 2.16
2 -9 -8 1.88 1.89
2 -9 -8 -1.6 1.47
-2 9 8 1.93 2.09
1 -9 -8 3.17 2.2
1 -9 -8 1.13 1.71
1 -9 -8 -1.73 1.49
1 -9 -8 1.31 0.95
-1 9 8 0.08 1.63
-1 9 8 -1.75 1.07
0 -9 -8 0.01 0.97
0 -9 -8 0.49 1
0 -9 -8 -3.05 2.63
0 -9 -8 -2.32 0.99
0 9 8 -0.8 0.76
0 9 8 0.81 1.44
-1 -9 -8 4.75 1.96
-1 -9 -8 3.4 2.84
-1 -9 -8 9.53 3.62
-2 -9 -8 -0.83 2.91
-2 -9 -8 0.99 1.2
-2 -9 -8 2.52 1.69
-3 -9 -8 -1.84 1.22
-3 -9 -8 0.97 1.91
-3 -9 -8 3.24 3.2
3 9 8 1.88 1.72
-4 -9 -8 -0.17 1.11
-4 -9 -8 -0.76 2.76
-4 -9 -8 0.95 1.39
4 9 8 0.43 1.57
-5 -9 -8 -0.23 1.31
-5 -9 -8 -5.31 2.51
5 9 8 -1.37 1.55
5 9 8 -1.74 1.26
-6 -9 -8 -0.48 2.93
-6 -9 -8 0.05 2.09
6 9 8 -0.34 1.37
6 9 8 0.81 2.77
-7 -9 -8 -0.74 1.94
-7 -9 -8 -3.89 3.46
7 9 8 -1.67 1.9
-8 -9 -8 12.37 4.09
-8 -9 -8 4.46 2.28
8 9 8 0.89 2.07
-9 -9 -8 -0.04 2.15
-9 -9 -8 -3 2.8
9 9 8 1.87 1.86
4 -10 -8 -3.56 2.07
3 -10 -8 4.89 3.42
3 -10 -8 0.5 3.5
-3 10 8 -2.18 1.64
2 -10 -8 1.94 4
2 -10 -8 4.56 2.34
-2 10 8 3.6 1.92
1 -10 -8 1.82 2.74
1 -10 -8 0.37 1.15
1 -10 -8 -0.44 1.72
-1 10 8 1.08 1.26
0 -10 -8 1.05 1.26
0 -10 -8 -0.95 1.15
0 -10 -8 2.67 2.12
0 -10 -8 1.04 3.37
0 10 8 0.81 1.46
0 10 8 0.56 1.02
-1 -10 -8 -1.63 1.45
-1 -10 -8 6.7 3.03
-1 -10 -8 -1.32 1.6
1 10 8 2.45 1.93
-2 -10 -8 0.01 1.79
-2 -10 -8 0.06 1.38
-2 -10 -8 1.41 3.36
2 10 8 -1.72 1.5
-3 -10 -8 -1.64 2.01
-3 -10 -8 2.66 3.3
-3 -10 -8 0.82 1.86
3 10 8 -0.8 2.23
-4 -10 -8 1.56 1.89
-4 -10 -8 1.17 2.32
-4 -10 -8 0.31 2.96
4 10 8 1.19 2.96
-5 -10 -8 1.57 1.99
-5 -10 -8 2.27 3.26
-5 -10 -8 -1.9 1.64
5 10 8 4.03 2.27
-6 -10 -8 1.13 1.84
-6 -10 -8 0.34 2.35
6 10 8 -0.28 1.46
-7 -10 -8 2 3.79
-8 -10 -8 5.48 5.05
8 10 8 1.54 2.38
2 -11 -8 4.26 2.2
2 -11 -8 0 3.55
-2 11 8 0.19 1.9
1 -11 -8 1.33 1.83
1 -11 -8 4.84 3.12
1 -11 -8 7.06 4.45
-1 11 8 0.7 1.67
0 -11 -8 1.55 2.05
0 -11 -8 -0.68 2
0 11 8 -0.85 1.2
-1 -11 -8 1.11 3.41
-1 -11 -8 1.74 1.99
-1 -11 -8 1 1.75
1 11 8 -0.58 0.87
-2 -11 -8 3.89 3.44
-2 -11 -8 1.49 2.08
-3 -11 -8 -0.81 1.76
-3 -11 -8 3.07 2.95
-3 -11 -8 -5.35 3.1
-4 -11 -8 -2.7 1.72
-4 -11 -8 1.84 2.05
-4 -11 -8 1.37 3.63
-5 -11 -8 4.57 3.4
-5 -11 -8 6.44 2.68
-6 -11 -8 -8.64 6.38
0 -12 -8 -2.09 1.94
-1 -12 -8 -3.17 1.86
-1 -12 -8 6.4 3.94
-1 -12 -8 -0.53 2.12
-2 -12 -8 -2.32 1.91
-2 -12 -8 -2.95 3.36
-2 -12 -8 -1.27 2.27
-3 -12 -8 -5.2 4.11
-3 -12 -8 -1.53 1.82
-3 -12 -8 -1.31 3.57
1 4 -9 3.33 3.28
0 4 -9 3.96 2.86
0 4 -9 0.97 2.17
-1 4 -9 -1.32 2.96
-1 4 -9 -0.89 1.1
-1 4 -9 4.6 2.39
-2 4 -9 -2.51 1.57
-2 4 -9 -5.02 2.06
-3 4 -9 1.87 1.58
-3 4 -9 -4.44 2.09
3 -4 9 -1.93 2.16
3 3 -9 0.43 1.57
3 3 -9 1.78 1.94
-3 -3 9 -6.35 2.54
2 3 -9 0.71 2.05
2 3 -9 1.58 2.15
2 3 -9 1.15 1.03
1 3 -9 -0.3 2.03
1 3 -9 -0.36 1.65
0 3 -9 2.09 0.89
0 3 -9 -3.85 2.3
0 3 -9 0.88 2.49
-1 3 -9 2.15 1.77
-1 3 -9 1.66 1.85
-1 3 -9 -0.42 1
-1 3 -9 0.45 1.8
-2 3 -9 -1 2.32
-2 3 -9 -0.63 2.41
-2 3 -9 0.93 1.59
-2 3 -9 -1.33 1.05
-3 3 -9 -1.23 1.15
-3 3 -9 1.48 2.7
-3 3 -9 1.54 1.58
-4 3 -9 -1.92 1.34
-4 3 -9 1.04 3.04
4 -3 9 -1.75 3.34
-5 3 -9 -0.85 1.53
-5 3 -9 -4.13 1.89
-5 3 -9 -1.39 1.26
5 -3 9 2 2.25
5 2 -9 -3.86 1.62
5 2 -9 -3.76 2.07
-5 -2 9 2.71 2.94
4 2 -9 -2.93 1.99
4 2 -9 1.51 2.14
4 2 -9 1.53 1.66
3 2 -9 0.74 2.54
3 2 -9 3.62 2.12
2 2 -9 5.7 2.25
2 2 -9 1.85 2.15
2 2 -9 2.29 1.64
1 2 -9 0.83 1.9
1 2 -9 0.37 1.09
1 2 -9 2.52 2.16
1 2 -9 3.21 2.28
0 2 -9 2.33 1.98
0 2 -9 0.02 0.73
0 2 -9 2.22 1.86
0 2 -9 0.21 0.67
0 2 -9 1.63 1.26
-1 2 -9 2.53 1.91
-1 2 -9 -0.55 1.93
-1 2 -9 -0.32 0.76
-2 2 -9 0.41 1.79
-2 2 -9 0.74 1.03
-2 2 -9 -1.5 1.77
-3 2 -9 1.17 1.79
-3 2 -9 1.09 1.06
-4 2 -9 0.33 1.39
-4 2 -9 -0.79 0.92
-4 2 -9 0.7 1.55
-5 2 -9 -1.11 0.8
-5 2 -9 -0.78 1.28
-5 2 -9 -1.06 1.83
5 -2 9 3.44 1.93
-6 2 -9 1.45 1.55
-6 2 -9 -1.04 2.24
-7 2 -9 -0.22 1.9
6 1 -9 2.99 2.39
-6 -1 9 2.13 2.46
5 1 -9 0.92 2.36
5 1 -9 6.62 2.31
5 1 -9 1.72 1.7
5 1 -9 -0.65 1.41
-5 -1 9 -3.82 1.97
4 1 -9 -0.16 1.48
4 1 -9 0.79 2.04
4 1 -9 2.97 2.27
-4 -1 9 1.08 2.49
3 1 -9 1.79 2.09
3 1 -9 0.66 1.73
3 1 -9 1.14 1.72
-3 -1 9 2.92 2.18
2 1 -9 4.05 2.39
2 1 -9 2.31 2.2
2 1 -9 5.4 2.19
1 1 -9 2.17 1.98
1 1 -9 2.69 2.14
1 1 -9 0.29 2.14
1 1 -9 1.94 0.68
0 1 -9 1.63 1.66
0 1 -9 -0.17 1.31
0 1 -9 -0.23 0.74
0 1 -9 0.55 1.59
-1 1 -9 -0.52 1.24
-1 1 -9 0.08 0.83
-1 1 -9 -0.14 1.03
-1 1 -9 1.14 1.44
-2 1 -9 0.87 0.77
-2 1 -9 0.41 1.81
-2 1 -9 3.71 2.09
-2 1 -9 0.52 0.68
-3 1 -9 1.76 2.38
-3 1 -9 1.47 1.21
-3 1 -9 0.32 0.71
-4 1 -9 0.3 0.71
-4 1 -9 0.19 0.99
-4 1 -9 3.11 2.67
-4 1 -9 0.67 0.71
-5 1 -9 0.13 0.57
-5 1 -9 -1.35 1.87
-5 1 -9 -1.42 0.74
-5 1 -9 -0.48 0.63
-6 1 -9 -2.82 1.14
-7 1 -9 -0.09 1.34
-7 1 -9 -1.26 2.15
-7 1 -9 0.94 2.35
-8 1 -9 1.01 3.27
6 0 -9 4.36 2.84
6 0 -9 3.99 2.78
6 0 -9 -1.12 2
-6 0 9 -0.88 2.43
5 0 -9 -1.03 1.72
5 0 -9 2.83 2.07
5 0 -9 1.08 2.69
5 0 -9 -1.32 0.88
-5 0 9 0.51 1.89
4 0 -9 0.76 1.22
4 0 -9 2.46 1.7
4 0 -9 4.27 2
4 0 -9 1.76 2.36
-4 0 9 3.87 2.18
3 0 -9 1.96 1.75
3 0 -9 2.94 1.74
3 0 -9 3.8 2.31
2 0 -9 -1.03 1.22
2 0 -9 1.62 1.45
2 0 -9 2.27 1.8
1 0 -9 -0.54 1.05
1 0 -9 -2.82 1.84
1 0 -9 -0.14 0.46
1 0 -9 -1.07 1.12
1 0 -9 0.06 1.69
0 0 -9 -0.23 1.57
0 0 -9 1.63 1.54
0 0 -9 3.11 1.03
0 0 -9 3.12 1.9
0 0 -9 5.18 2.21
-1 0 -9 -1.41 1.26
-1 0 -9 0.28 0.73
-1 0 -9 -0.92 0.72
-1 0 -9 1.81 1.37
-1 0 -9 0.8 1.73
-2 0 -9 0.12 1.23
-2 0 -9 1.22 1
-2 0 -9 0 0.85
-2 0 -9 1.17 1.34
-2 0 -9 -0.56 1.15
-3 0 -9 4.51 1.61
-3 0 -9 3.81 1.63
-3 0 -9 6.08 1.76
-4 0 -9 5.08 2.06
-4 0 -9 8.85 2.1
-4 0 -9 6.48 3.24
-4 0 -9 11.32 2.33
-5 0 -9 -0.24 0.52
-5 0 -9 -0.4 1.14
-5 0 -9 -0.33 0.23
-5 0 -9 2.77 2.03
-5 0 -9 -0.81 0.96
-6 0 -9 1.86 1.4
-6 0 -9 -0.17 2.1
-6 0 -9 2.25 1.63
-7 0 -9 -1.07 1.72
-7 0 -9 -2.49 2.2
-7 0 -9 0.37 1.39
-7 0 -9 -0.56 1.41
7 0 9 -0.79 2.44
-8 0 -9 0.3 1.73
-8 0 -9 0.91 3.04
-8 0 -9 0.13 1.52
-8 0 -9 -2.09 1.89
8 0 9 0.7 3.52
7 -1 -9 1.53 1.67
-7 1 9 -0.27 2.12
6 -1 -9 -2.69 3.02
6 -1 -9 0.44 2
6 -1 -9 2.05 2.03
-6 1 9 1.61 1.68
5 -1 -9 5.89 2.95
5 -1 -9 6.02 2.7
5 -1 -9 3.55 2.48
4 -1 -9 -1.65 0.67
4 -1 -9 -0.98 0.66
4 -1 -9 -0.64 1.52
3 -1 -9 0.17 1.34
3 -1 -9 -0.18 1.03
3 -1 -9 1.45 1.16
2 -1 -9 -1.35 1.05
2 -1 -9 2.91 1.52
2 -1 -9 -0.72 0.9
2 -1 -9 0.07 0.44
1 -1 -9 5.46 2.48
1 -1 -9 1.53 1.46
1 -1 -9 2.7 1.37
0 -1 -9 0.49 1.12
0 -1 -9 0.33 0.71
0 -1 -9 0.14 0.98
0 -1 -9 1.9 1.9
0 -1 -9 -1.51 1.14
-1 -1 -9 3.39 1.85
-1 -1 -9 1.63 1.05
-1 -1 -9 1.95 1.55
-1 -1 -9 1.46 0.77
-1 -1 -9 1.32 1.37
-2 -1 -9 5.89 2.56
-2 -1 -9 6.06 3.08
-2 -1 -9 7.76 2.27
-2 -1 -9 9.13 2.84
-2 -1 -9 6.4 1.81
-3 -1 -9 2.82 1.98
-3 -1 -9 5.48 1.68
-3 -1 -9 7.35 2.9
-3 -1 -9 6.35 1.85
-3 -1 -9 5.2 2.17
-4 -1 -9 12.5 3.97
-4 -1 -9 6.58 2.31
-4 -1 -9 4.24 1.96
-4 -1 -9 2.31 1.08
-5 -1 -9 2.71 1.83
-5 -1 -9 -1.33 1.98
-5 -1 -9 6.71 2.2
-6 -1 -9 11.41 3.01
-6 -1 -9 19.16 3.64
-6 -1 -9 12.53 4.18
-6 -1 -9 13.95 3.31
-7 -1 -9 3.35 2.2
-7 -1 -9 -0.5 1.4
-7 -1 -9 0.76 1.27
-7 -1 -9 1.23 1.3
7 1 9 -3.32 2.8
-8 -1 -9 5.66 2.36
-8 -1 -9 0.88 1.88
-8 -1 -9 1.8 2.08
8 1 9 5.45 3.31
-9 -1 -9 0.88 1.91
-9 -1 -9 3.12 2.08
-9 -1 -9 -1.1 2.95
9 1 9 -4.63 3.45
7 -2 -9 -1.26 2.07
7 -2 -9 -0.97 2.14
6 -2 -9 -1 1.21
6 -2 -9 1.5 2.72
5 -2 -9 0.59 1.17
5 -2 -9 1.79 1.89
-5 2 9 1.2 2.05
4 -2 -9 0.85 1.68
4 -2 -9 0.36 0.51
4 -2 -9 0.58 1.16
4 -2 -9 -0.17 0.24
3 -2 -9 0.59 1.56
3 -2 -9 -0.04 0.54
3 -2 -9 -0.48 0.36
3 -2 -9 -0.59 1.05
2 -2 -9 4.67 1.9
2 -2 -9 4.37 1.67
2 -2 -9 6.07 2.96
1 -2 -9 0.43 0.73
1 -2 -9 3.4 1.89
1 -2 -9 1.38 1.19
1 -2 -9 2.37 1.26
0 -2 -9 4.18 1.55
0 -2 -9 5.42 2.16
0 -2 -9 2.02 1.63
0 -2 -9 -1.62 1.69
0 -2 -9 1.83 1
-1 -2 -9 1.23 1.91
-1 -2 -9 0.26 0.73
-1 -2 -9 0.36 1.23
-1 -2 -9 0.85 0.9
-1 -2 -9 0.68 1.12
-2 -2 -9 6.68 2.42
-2 -2 -9 4.59 2.16
-2 -2 -9 5.7 1.99
-2 -2 -9 4.66 1.78
-2 -2 -9 2.75 1.57
-3 -2 -9 1.07 1.03
-3 -2 -9 3.97 2.22
-3 -2 -9 2.62 1.46
-3 -2 -9 2.59 2.2
-3 -2 -9 1.15 1.18
-4 -2 -9 2.64 1.56
-4 -2 -9 1.12 0.78
-4 -2 -9 0.5 1.91
-4 -2 -9 2.67 2.16
-5 -2 -9 1.19 1.67
-6 -2 -9 1.74 1.97
-6 -2 -9 -1.43 1.07
6 2 9 1.12 2.11
-7 -2 -9 -0.47 1.33
-7 -2 -9 -0.27 1.3
-7 -2 -9 0.46 1.84
7 2 9 0.41 2.54
-8 -2 -9 5.11 2.11
-8 -2 -9 2.23 2.86
-8 -2 -9 -0.46 1.68
8 2 9 -0.19 2.59
-9 -2 -9 0.56 1.25
-9 -2 -9 -0.13 1.45
7 -3 -9 1.57 0.83
7 -3 -9 5.95 2.86
7 -3 -9 -0.76 2.49
6 -3 -9 2.99 3.16
6 -3 -9 -1.55 1.79
6 -3 -9 4.59 1.09
-6 3 9 2.15 2.69
5 -3 -9 -0.48 0.65
5 -3 -9 -1.65 0.9
5 -3 -9 0.42 1.22
-5 3 9 1.5 2.27
4 -3 -9 -0.07 1.07
4 -3 -9 1.03 1.24
4 -3 -9 -1 0.55
-4 3 9 -0.97 1.75
3 -3 -9 4.12 1.21
3 -3 -9 3.49 1.78
3 -3 -9 2.23 2.06
-3 3 9 2.55 2.12
2 -3 -9 0.88 0.89
2 -3 -9 0.48 0.48
2 -3 -9 1.72 1.68
1 -3 -9 1.8 1.06
1 -3 -9 1.37 1.2
0 -3 -9 0.63 0.84
0 -3 -9 0.15 1.22
0 -3 -9 1.2 1.82
0 -3 -9 1.86 1.44
0 -3 -9 2.22 1.08
-1 -3 -9 1.19 2.17
-1 -3 -9 2.72 1.58
-1 -3 -9 2.55 1.3
-1 -3 -9 1.27 1.24
-1 -3 -9 2.39 1.03
-2 -3 -9 1.61 1.92
-2 -3 -9 1.4 0.89
-2 -3 -9 -1.27 1.07
-2 -3 -9 -1.73 0.68
-2 -3 -9 0.41 0.83
-3 -3 -9 13.12 3.11
-3 -3 -9 22.68 4.81
-3 -3 -9 15.59 3.05
-3 -3 -9 18.04 4.27
-3 -3 -9 13.43 2.73
-4 -3 -9 -0.5 1.46
-4 -3 -9 2.54 1.25
-4 -3 -9 -0.26 0.71
-4 -3 -9 1.33 0.86
-5 -3 -9 2.41 0.99
-5 -3 -9 1.32 0.57
-5 -3 -9 1.97 1.95
-6 -3 -9 3.92 2.39
-6 -3 -9 1.92 1.18
-6 -3 -9 1.79 1.48
6 3 9 -2.69 2.04
-7 -3 -9 0.5 1.04
-7 -3 -9 -2.93 2.19
-7 -3 -9 1.67 1.19
7 3 9 1.16 2.51
-8 -3 -9 1.34 2.19
-8 -3 -9 1.66 1.65
-8 -3 -9 2.29 1.64
8 3 9 7.88 3.79
-9 -3 -9 -0.21 2.14
-9 -3 -9 2 1.96
-9 -3 -9 -0.73 1.69
-10 -3 -9 2.53 1.76
-10 -3 -9 1.14 2.58
10 3 9 5.62 4.84
7 -4 -9 2.52 2.58
7 -4 -9 1.67 1.84
7 -4 -9 1.77 1.14
6 -4 -9 1.48 2.45
6 -4 -9 2.06 2.6
6 -4 -9 0.85 1.03
-6 4 9 4.11 3.37
5 -4 -9 2.92 1.75
5 -4 -9 1.59 1.14
5 -4 -9 0.87 1.54
-5 4 9 0.63 2.6
4 -4 -9 -0.18 1.04
4 -4 -9 0.91 0.86
4 -4 -9 2.26 1.43
-4 4 9 -1.39 1.37
3 -4 -9 1.46 1.24
3 -4 -9 2.72 2.14
3 -4 -9 7.02 2.2
-3 4 9 2.78 2.13
2 -4 -9 0.54 1.06
2 -4 -9 1.53 1.19
1 -4 -9 -0.32 0.86
1 -4 -9 0.1 0.37
1 -4 -9 0.2 0.75
0 -4 -9 1.96 1.22
0 -4 -9 -0.19 1.08
0 -4 -9 1.96 1.11
0 -4 -9 2.12 2.1
-1 -4 -9 4.51 2
-1 -4 -9 3.66 1.19
-1 -4 -9 3.53 2.64
-1 -4 -9 3.49 1.74
-2 -4 -9 17.36 3.55
-2 -4 -9 13.37 4.16
-2 -4 -9 15.47 2.17
-2 -4 -9 13.59 3.22
-3 -4 -9 0.31 0.68
-3 -4 -9 -0.03 1
-3 -4 -9 2.2 1.95
-3 -4 -9 -0.01 0.55
-4 -4 -9 2.04 0.8
-4 -4 -9 2.34 2.29
-4 -4 -9 2 1.36
-4 -4 -9 -0.33 0.77
-5 -4 -9 0.66 0.65
-5 -4 -9 -0.96 1.41
-5 -4 -9 0.57 0.55
-5 -4 -9 0.71 0.59
-5 -4 -9 -0.75 0.96
5 4 9 -0.22 1.82
-6 -4 -9 3.75 2.12
-6 -4 -9 0.62 1.11
-6 -4 -9 -0.45 0.62
6 4 9 1.61 2.46
-7 -4 -9 -0.74 0.81
-7 -4 -9 0.82 1.12
-7 -4 -9 -4.28 2.63
7 4 9 -1.67 2.43
-8 -4 -9 -0.62 1.16
-8 -4 -9 -0.72 1.06
-8 -4 -9 1.06 2.3
-9 -4 -9 7.66 2.41
-9 -4 -9 -0.97 2.54
9 4 9 2.18 2.89
-10 -4 -9 3.39 2.96
-10 -4 -9 -0.22 1.74
-10 -4 -9 1.15 2.11
7 -5 -9 2.61 1.34
7 -5 -9 0.79 2.22
6 -5 -9 -0.69 1.2
6 -5 -9 -2.06 1.42
6 -5 -9 -0.04 1.59
-6 5 9 -4.48 2.29
5 -5 -9 2.11 1.75
5 -5 -9 2.44 1.45
5 -5 -9 -0.18 1.07
4 -5 -9 1.53 1.51
4 -5 -9 0.97 1.47
4 -5 -9 3.05 1.53
-4 5 9 0.14 2.03
3 -5 -9 0.95 1.24
3 -5 -9 1.98 1.38
3 -5 -9 0.99 1.25
-3 5 9 0.08 1.43
2 -5 -9 3.52 2.22
2 -5 -9 7.96 2.09
2 -5 -9 6.41 2.58
-2 5 9 5.96 2.51
1 -5 -9 1.36 2.2
1 -5 -9 0.24 0.95
1 -5 -9 0.16 0.73
-1 5 9 -1.94 0.97
0 -5 -9 0.14 0.67
0 -5 -9 0.1 0.42
0 -5 -9 0.94 1.49
0 -5 -9 -0.24 0.48
-1 -5 -9 0.13 0.56
-1 -5 -9 -0.55 2.12
-1 -5 -9 0.8 1.27
-2 -5 -9 1.54 1.95
-2 -5 -9 1.02 0.56
-2 -5 -9 -0.49 1.16
-3 -5 -9 -3.06 1.39
-3 -5 -9 -0.17 0.69
-4 -5 -9 -1.11 1.84
-4 -5 -9 0.11 1.15
-4 -5 -9 -0.29 0.62
-5 -5 -9 3.32 1.46
-5 -5 -9 5.25 1.97
-5 -5 -9 1.21 2.66
5 5 9 0.54 1.9
-6 -5 -9 3.7 3.32
-6 -5 -9 0.38 0.26
-6 -5 -9 -0.84 0.62
-6 -5 -9 -0.24 0.3
6 5 9 1.11 2.53
-7 -5 -9 1.07 0.61
-7 -5 -9 -0.18 0.81
-7 -5 -9 -0.99 2
-8 -5 -9 1.33 2.92
-8 -5 -9 0.21 0.8
-8 -5 -9 -0.48 0.82
8 5 9 2.09 3.89
-9 -5 -9 0.66 3.12
-9 -5 -9 1.37 1.24
-9 -5 -9 2.71 1.67
9 5 9 8.67 4.14
-10 -5 -9 1.81 1.91
-10 -5 -9 8.9 3.52
-10 -5 -9 -0.62 1.44
6 -6 -9 0.55 1.18
6 -6 -9 1.46 1.52
6 -6 -9 -0.79 1.2
-6 6 9 -2.06 2.92
5 -6 -9 1.57 1.41
5 -6 -9 2.61 1.85
5 -6 -9 1.73 1.81
4 -6 -9 0.75 1.43
4 -6 -9 -0.87 1.41
4 -6 -9 1.57 1.47
-4 6 9 -0.27 2.16
3 -6 -9 1.57 2.29
3 -6 -9 -1.04 1.29
3 -6 -9 3.2 1.42
-3 6 9 0.02 1.77
2 -6 -9 0.07 1.29
2 -6 -9 0.93 0.98
2 -6 -9 -1.25 1.06
-2 6 9 1.09 1.3
1 -6 -9 3.48 3.33
1 -6 -9 1.78 1.08
-1 6 9 0.54 1.26
-1 6 9 4.14 2.23
0 -6 -9 6.81 1.63
0 -6 -9 5.76 1.23
0 -6 -9 1.64 2.11
0 -6 -9 2.6 5.13
0 6 9 3.65 2.38
-1 -6 -9 0.33 0.59
-1 -6 -9 -1.91 2.54
-1 -6 -9 -0.65 0.98
1 6 9 -1.07 0.99
-2 -6 -9 0.37 0.66
-2 -6 -9 0.01 1.27
-2 -6 -9 -1.12 1.5
2 6 9 -0.66 0.85
-3 -6 -9 0.65 1.15
-3 -6 -9 -1.08 0.82
-3 -6 -9 4.85 2.73
3 6 9 1.19 1.24
-4 -6 -9 0.53 1.47
-4 -6 -9 5.43 2.1
-4 -6 -9 4.41 3.08
4 6 9 2.7 1.74
-5 -6 -9 -2.96 1.34
-5 -6 -9 0.44 1.03
-5 -6 -9 -0.67 0.88
5 6 9 0.35 2.2
5 6 9 0.06 0.92
-6 -6 -9 2.1 1.58
-6 -6 -9 13.34 3.9
6 6 9 2.87 1.47
-7 -6 -9 3.87 1.74
-7 -6 -9 2.67 2.51
7 6 9 0.53 0.8
7 6 9 -2.65 4.75
-8 -6 -9 0.33 1.24
-8 -6 -9 -1.64 1.91
-8 -6 -9 0.39 1.54
8 6 9 -4.57 3.25
8 6 9 0.25 0.65
-9 -6 -9 0.25 1.74
-9 -6 -9 0.3 2.71
-9 -6 -9 -0.28 0.73
-10 -6 -9 1.45 1.59
6 -7 -9 0.72 1.88
6 -7 -9 4.69 2.59
6 -7 -9 -0.89 1.49
-6 7 9 -1.42 3.44
5 -7 -9 1.63 1.47
5 -7 -9 -0.95 1.05
5 -7 -9 0.04 1.51
-5 7 9 -3.29 2.15
4 -7 -9 -0.38 1.15
4 -7 -9 0.45 1.86
4 -7 -9 0.06 1.28
-4 7 9 1.99 1.87
3 -7 -9 -0.11 1.15
3 -7 -9 1.68 1.36
-3 7 9 -0.41 1.29
-3 7 9 -0.17 1.77
2 -7 -9 1.44 1.07
2 -7 -9 1.09 1.36
2 -7 -9 -1.15 2.48
-2 7 9 -1.67 1.42
-2 7 9 1.24 1.41
1 -7 -9 -3.13 2.61
1 -7 -9 0.66 1.2
1 -7 -9 0.11 1.15
-1 7 9 1.31 1.12
0 -7 -9 -4.2 2.05
0 -7 -9 0.3 0.72
0 7 9 -0.14 1
0 7 9 0.23 0.93
-1 -7 -9 1.92 2.44
1 7 9 2.62 1.51
-2 -7 -9 1.62 2.48
-2 -7 -9 0.91 0.69
-2 -7 -9 -0.16 1.29
2 7 9 0.68 1.18
-3 -7 -9 -2.44 2.07
-3 -7 -9 0.6 1.17
-3 -7 -9 -1.24 1.16
3 7 9 0.58 1.52
-4 -7 -9 3.21 1.75
-4 -7 -9 3.28 2.58
-4 -7 -9 0.33 1.32
4 7 9 3.74 2.28
-5 -7 -9 5.18 3.39
-5 -7 -9 3.51 2.09
-5 -7 -9 0.32 1.17
5 7 9 1.18 1.42
-6 -7 -9 7.73 3.32
-6 -7 -9 6.59 2.75
-6 -7 -9 4.2 2.43
6 7 9 7.32 2.78
6 7 9 12.61 6.43
-7 -7 -9 -1.18 1.4
-7 -7 -9 4.71 2.59
7 7 9 1.38 1.29
7 7 9 -4.5 3.03
-8 -7 -9 -4.37 3.02
-8 -7 -9 2.39 2.27
-8 -7 -9 -0.65 1.76
8 7 9 -0.85 1.09
-9 -7 -9 2.74 3.5
-9 -7 -9 0.55 2.22
9 7 9 1.2 1.41
5 -8 -9 3.09 1.75
5 -8 -9 3.23 2.09
-5 8 9 -4.66 3.3
4 -8 -9 1.18 1.59
4 -8 -9 0 1.55
-4 8 9 0.89 2.07
3 -8 -9 -2.47 1.09
3 -8 -9 -0.2 1.48
-3 8 9 -1.58 1.76
-3 8 9 0.61 1.53
2 -8 -9 -1.27 3.03
2 -8 -9 -1.86 0.73
2 -8 -9 -0.33 1.56
-2 8 9 -1.07 1.38
-2 8 9 -1.85 1.51
1 -8 -9 0.58 2.92
1 -8 -9 5.85 2.07
1 -8 -9 9.67 3.08
-1 8 9 1.92 1.46
-1 8 9 6.88 3.07
0 -8 -9 -0.12 2.65
0 -8 -9 1.61 0.85
0 -8 -9 1.85 1.38
0 8 9 -0.09 0.8
-1 -8 -9 1.71 1.83
-1 -8 -9 0.68 1.31
-1 -8 -9 0.99 0.89
-2 -8 -9 1.08 1
-2 -8 -9 0.44 1.61
-2 -8 -9 3.48 2.4
2 8 9 -0.67 1.22
-3 -8 -9 -0.61 1.21
-3 -8 -9 -0.1 2.42
-3 -8 -9 2.18 1.63
3 8 9 4.13 2.51
-4 -8 -9 5.11 3.66
-4 -8 -9 13.28 3.21
-4 -8 -9 10.78 3.45
4 8 9 10.27 3.33
-5 -8 -9 3.16 1.7
-5 -8 -9 -0.62 1.2
-5 -8 -9 -4.95 2.54
5 8 9 -0.82 1.45
-6 -8 -9 7.72 3.89
6 8 9 6.38 3.97
-7 -8 -9 -3.03 3.31
-7 -8 -9 1.19 1.83
-7 -8 -9 1.86 2.4
7 8 9 3.95 2.15
-8 -8 -9 5.59 3.17
-8 -8 -9 14.39 5.03
8 8 9 10.13 3.01
-9 -8 -9 -0.26 5.36
-9 -8 -9 0.29 1.34
4 -9 -9 -2.95 1.7
3 -9 -9 -0.12 1.81
3 -9 -9 8.36 4.18
3 -9 -9 0.64 2.07
-3 9 9 -0.94 1.78
2 -9 -9 0.26 1.19
2 -9 -9 4.2 2.16
2 -9 -9 -1.16 2.57
1 -9 -9 3.55 2.05
1 -9 -9 -3.5 2.8
1 -9 -9 3.34 2.02
-1 9 9 5.18 3.09
0 -9 -9 0.81 0.88
0 -9 -9 -1.92 1.28
0 -9 -9 0.03 1.44
0 -9 -9 -1.57 2.84
0 9 9 -0.14 1.3
0 9 9 -1.01 0.76
-1 -9 -9 0.1 1.45
-1 -9 -9 -3.11 2.14
-1 -9 -9 1.06 1.04
1 9 9 -1.8 1.55
-2 -9 -9 1.08 2.28
-2 -9 -9 -0.38 1.68
-2 -9 -9 0.09 1.07
-3 -9 -9 6.34 3.42
-3 -9 -9 0.96 1.58
-3 -9 -9 3.68 2.54
3 9 9 3.57 3.05
-4 -9 -9 1.67 1.21
-4 -9 -9 -0.34 1.42
-4 -9 -9 0.32 2.14
4 9 9 5.15 2.72
-5 -9 -9 2.96 2.97
-5 -9 -9 3.19 2.01
5 9 9 0.98 1.48
-6 -9 -9 1.73 3.1
-6 -9 -9 3.05 3.63
6 9 9 2.66 2.19
-7 -9 -9 2.12 2.2
-7 -9 -9 8.64 4.2
7 9 9 -2.74 1.93
-8 -9 -9 5.15 2.37
-8 -9 -9 8.77 5.96
8 9 9 2.97 2.63
3 -10 -9 -2.71 3.45
3 -10 -9 -0.95 2.3
-3 10 9 -0.45 1.91
2 -10 -9 -0.05 3.96
-2 10 9 -1.39 1.71
1 -10 -9 -1.37 0.98
1 -10 -9 -3.33 3.02
-1 10 9 1.16 1.4
0 -10 -9 3.73 2.18
0 -10 -9 0.3 0.97
0 -10 -9 -1.21 2.49
0 10 9 -0.47 0.86
-1 -10 -9 0.78 1.44
-1 -10 -9 -5.18 2.84
-1 -10 -9 -0.35 2.26
1 10 9 2.55 1.77
-2 -10 -9 1.25 2.17
-2 -10 -9 -2.54 2.18
-2 -10 -9 -0.16 1.46
2 10 9 0.04 1.7
-3 -10 -9 0.59 1.29
-3 -10 -9 0.98 1.84
3 10 9 1.84 1.59
-4 -10 -9 0.38 1.57
-4 -10 -9 2.34 3.78
-4 -10 -9 -0.31 1.2
4 10 9 2.1 2.92
-5 -10 -9 -0.53 1.51
-5 -10 -9 0.95 2.15
-5 -10 -9 1.93 3.75
5 10 9 -2.15 1.48
-6 -10 -9 -0.08 2.4
-6 -10 -9 3.97 3.12
6 10 9 0.92 2.3
-7 -10 -9 -2.5 4.45
7 10 9 3.2 2.6
2 -11 -9 -4.68 1.95
1 -11 -9 7.13 3.82
0 -11 -9 11.35 3.85
0 -11 -9 2.44 2.54
0 11 9 -0.37 1.11
-1 -11 -9 0.67 1.95
-1 -11 -9 5.92 3.92
-2 -11 -9 -1.26 1.41
-2 -11 -9 -5.34 2.95
-2 -11 -9 -1.27 1.58
-3 -11 -9 -1.25 3.05
-3 -11 -9 -2.58 1.86
-3 -11 -9 2.43 1.94
-4 -11 -9 -1.8 3.87
-4 -11 -9 -1.32 1.8
-4 -11 -9 -3.24 2.01
-5 -11 -9 -3.26 3.86
-5 -11 -9 -1.93 2.04
-5 -11 -9 2.7 2.49
-6 -11 -9 3.76 4.6
-1 3 -10 -0.14 1.11
-1 3 -10 -3.04 2.32
-2 3 -10 -1.19 1.48
-2 3 -10 -1.65 2.78
2 2 -10 -2.26 2.17
2 2 -10 0.92 1.86
2 2 -10 -1.04 1.51
2 2 -10 -1.5 1.53
1 2 -10 2.02 1.22
1 2 -10 3.54 2.6
1 2 -10 -0.7 2.25
0 2 -10 -3.92 1.7
0 2 -10 0.72 0.35
0 2 -10 -0.39 0.88
0 2 -10 -1.74 2.08
0 2 -10 0.1 0.13
-1 2 -10 0.73 2.48
-1 2 -10 0.2 1.03
-1 2 -10 -1.67 2.1
-2 2 -10 0.17 1.33
-2 2 -10 2.71 2.63
-2 2 -10 1.69 2.11
-2 2 -10 3.26 2.48
-3 2 -10 1.76 2.41
-3 2 -10 2.48 1.78
-3 2 -10 1.38 2.37
-3 2 -10 -1 1.1
-4 2 -10 -0.66 0.89
-4 2 -10 1.32 1.41
-4 2 -10 1.59 1.91
-4 2 -10 -3.22 2.73
-5 2 -10 -0.08 1.03
-5 2 -10 -2.2 1.34
-5 2 -10 1.77 1.25
4 1 -10 2.11 2.15
4 1 -10 0.47 2.37
3 1 -10 -0.29 1.82
3 1 -10 1.33 2.11
3 1 -10 1.04 1.85
3 1 -10 -0.69 2.12
2 1 -10 1.31 2.38
2 1 -10 -2.45 1.43
2 1 -10 -2.24 2.47
2 1 -10 1.46 1.93
2 1 -10 3.06 1.95
1 1 -10 6 2.14
1 1 -10 4.21 3.39
1 1 -10 4.64 2.6
1 1 -10 1.04 2.1
0 1 -10 -0.75 1.37
0 1 -10 2.66 1.39
0 1 -10 0.62 2.17
0 1 -10 3.48 2.38
0 1 -10 1.46 1.02
-1 1 -10 0.94 1.91
-1 1 -10 -0.03 1.19
-1 1 -10 -0.34 0.95
-1 1 -10 1.18 1.07
-1 1 -10 3.5 1.95
-2 1 -10 -1.48 1.76
-2 1 -10 -0.58 1.1
-2 1 -10 0.6 0.79
-2 1 -10 -3.02 1.56
-2 1 -10 1.32 0.71
-3 1 -10 1.37 1.3
-3 1 -10 -1.07 0.51
-3 1 -10 0.19 1.97
-3 1 -10 1.5 1.16
-3 1 -10 0.25 2.44
-4 1 -10 1.78 1.04
-4 1 -10 0.01 1.06
-4 1 -10 -0.84 0.76
-4 1 -10 0.85 2.98
-5 1 -10 1.31 1.3
-5 1 -10 0.56 0.9
-5 1 -10 5.13 3.71
-5 1 -10 -0.6 0.57
-6 1 -10 -2.37 1.48
-6 1 -10 1.87 3.19
5 0 -10 0.06 1.07
5 0 -10 -3.12 1.73
4 0 -10 3.47 2.98
4 0 -10 0.15 1.65
4 0 -10 9.37 3.53
4 0 -10 -0.12 1.83
3 0 -10 1.85 1.65
3 0 -10 1.91 2.29
3 0 -10 0.24 1.81
3 0 -10 -1.61 1.64
2 0 -10 4.02 2.29
2 0 -10 2.36 2.34
2 0 -10 6.26 2.49
1 0 -10 4.21 2.27
1 0 -10 5.94 2.6
1 0 -10 8.24 3.05
1 0 -10 9.81 3.11
1 0 -10 4.57 1.13
0 0 -10 -0.37 2.9
0 0 -10 1.04 0.75
0 0 -10 0.42 1.73
0 0 -10 0.84 1.47
0 0 -10 0.08 1.85
-1 0 -10 1.72 1.7
-1 0 -10 1.5 2.1
-1 0 -10 -0.95 0.66
-1 0 -10 -0.04 1
-1 0 -10 -0.94 1.41
-2 0 -10 1.78 1.54
-2 0 -10 -1.2 1.36
-2 0 -10 2.25 1.2
-2 0 -10 0.6 1.82
-2 0 -10 -1.13 0.99
-3 0 -10 -0.15 1.64
-3 0 -10 -0.33 0.96
-3 0 -10 0.68 0.93
-3 0 -10 -1.5 1.61
-4 0 -10 -0.04 1.14
-4 0 -10 0.43 0.93
-4 0 -10 0.43 1.2
-4 0 -10 -0.79 0.97
-4 0 -10 1 2.22
-5 0 -10 0.53 2.14
-5 0 -10 0.2 1.26
-5 0 -10 0 1.02
-5 0 -10 1.5 1.38
-5 0 -10 -0.14 0.39
-6 0 -10 0.32 1.45
-6 0 -10 8.82 3.58
-7 0 -10 -1.37 1.47
-7 0 -10 0.39 1.54
-7 0 -10 3.11 2.34
5 -1 -10 -2.07 2.63
5 -1 -10 -2.9 1.75
5 -1 -10 0.76 2
4 -1 -10 -0.36 1.31
4 -1 -10 0.52 1.01
4 -1 -10 -1.47 1.72
3 -1 -10 0.62 1.71
3 -1 -10 0.46 1.18
3 -1 -10 1.12 1.57
2 -1 -10 5.75 2.22
2 -1 -10 2.35 1.53
2 -1 -10 4.29 2.59
2 -1 -10 2.25 0.56
1 -1 -10 0.49 0.92
1 -1 -10 0.25 2.12
1 -1 -10 0.7 1.39
1 -1 -10 1.32 1.61
0 -1 -10 0.26 1.18
0 -1 -10 -0.26 0.7
0 -1 -10 0.77 1.79
0 -1 -10 0.57 1.34
0 -1 -10 0.96 1.1
-1 -1 -10 0.39 1.3
-1 -1 -10 -1.19 1.53
-1 -1 -10 1.26 0.96
-1 -1 -10 0.71 0.97
-1 -1 -10 0.57 1.35
-2 -1 -10 1.69 1.46
-2 -1 -10 2.69 1.81
-2 -1 -10 -0.91 1.31
-2 -1 -10 -0.8 1.4
-2 -1 -10 0.9 0.99
-3 -1 -10 -0.29 1.66
-3 -1 -10 0.73 1.15
-3 -1 -10 3.16 1.79
-3 -1 -10 1.11 1.17
-3 -1 -10 0.78 1.53
-4 -1 -10 -1.27 1.58
-4 -1 -10 -1.39 0.92
-4 -1 -10 0.93 1.5
-4 -1 -10 -0.22 0.7
-4 -1 -10 2.18 1.37
-5 -1 -10 10.48 2.85
-5 -1 -10 4.24 0.89
-5 -1 -10 6.6 1.35
-5 -1 -10 5.33 3.63
-5 -1 -10 9.35 2.83
-6 -1 -10 1.92 1.86
-6 -1 -10 1.14 2.03
-6 -1 -10 -0.07 1.66
-7 -1 -10 1.17 1.99
-7 -1 -10 0.07 2.79
-7 -1 -10 3.41 1.9
-7 -1 -10 1.98 1.96
-8 -1 -10 2.15 2.14
-8 -1 -10 1.52 2.66
-8 -1 -10 0.05 2.04
8 1 10 -3.29 3.1
6 -2 -10 -1.43 2.44
5 -2 -10 3.63 2.29
5 -2 -10 0.79 1.75
4 -2 -10 0.23 1.9
4 -2 -10 0.02 1.46
3 -2 -10 1.49 0.99
3 -2 -10 3.19 2.18
3 -2 -10 2.38 1.43
2 -2 -10 4.05 1.57
2 -2 -10 0.66 0.86
2 -2 -10 3.01 2.49
2 -2 -10 0.08 1.9
1 -2 -10 0.89 0.82
1 -2 -10 1.02 2.63
1 -2 -10 0.28 1.06
1 -2 -10 -0.11 1.17
0 -2 -10 -0.41 1.51
0 -2 -10 1.55 1.27
0 -2 -10 0.66 1.15
0 -2 -10 2.37 1.43
0 -2 -10 -0.82 0.57
-1 -2 -10 1.44 1.44
-1 -2 -10 2.8 1.84
-1 -2 -10 2.59 1.33
-1 -2 -10 -0.84 0.9
-2 -2 -10 3.41 1.54
-2 -2 -10 1.68 1.99
-2 -2 -10 1.93 1.17
-2 -2 -10 -0.44 1.96
-2 -2 -10 0.23 1.31
-3 -2 -10 5.71 2.18
-3 -2 -10 5.73 3.03
-3 -2 -10 8.04 3.04
-3 -2 -10 10.01 2.43
-3 -2 -10 5.32 2.14
-4 -2 -10 0.04 0.67
-4 -2 -10 -0.1 1.67
-4 -2 -10 -1.12 1.61
-4 -2 -10 -1 0.97
-5 -2 -10 10.29 3.46
-5 -2 -10 11.73 3.13
-5 -2 -10 10.5 3.87
-5 -2 -10 9.61 1.43
-6 -2 -10 1.47 1.65
-6 -2 -10 -0.69 2.11
-6 -2 -10 2.11 2.24
-6 -2 -10 0.82 1.48
-7 -2 -10 0.08 1.63
-7 -2 -10 -1.19 1.55
-7 -2 -10 -0.72 1.74
-7 -2 -10 2.25 1.93
-8 -2 -10 2.24 1.79
8 2 10 3.17 3.75
-9 -2 -10 -3.36 1.73
6 -3 -10 1.41 1.88
6 -3 -10 -2.24 1.68
5 -3 -10 5.46 2.48
5 -3 -10 -0.42 0.61
5 -3 -10 -1.61 1.82
5 -3 -10 0.44 0.44
-5 3 10 -1.84 2.2
4 -3 -10 -0.49 1.4
4 -3 -10 0.24 0.66
4 -3 -10 -0.12 0.88
-4 3 10 4.94 2.16
3 -3 -10 0.77 0.82
3 -3 -10 1.57 1.36
3 -3 -10 0.54 0.66
3 -3 -10 0.1 1.11
2 -3 -10 2.47 1.2
2 -3 -10 1.48 0.87
2 -3 -10 3.95 2.16
2 -3 -10 0.2 0.95
2 -3 -10 -0.72 0.86
1 -3 -10 -0.25 0.77
1 -3 -10 0.8 1.03
1 -3 -10 0.84 1.55
1 -3 -10 1.17 0.82
1 -3 -10 -1.95 2.12
0 -3 -10 4.7 2.68
0 -3 -10 1.61 1.21
0 -3 -10 -1.03 0.83
0 -3 -10 1.18 1.31
0 -3 -10 1.14 1.2
-1 -3 -10 1.41 1.03
-1 -3 -10 0.42 1.13
-1 -3 -10 1.11 1.21
-1 -3 -10 2.44 2.44
-1 -3 -10 1.84 1.18
-2 -3 -10 0.57 0.96
-2 -3 -10 1.11 1.15
-2 -3 -10 3.96 1.55
-2 -3 -10 3.13 2.36
-2 -3 -10 2.38 1.52
-3 -3 -10 -0.02 0.95
-3 -3 -10 6.88 2.52
-3 -3 -10 3.03 1.48
-3 -3 -10 1.69 0.99
-3 -3 -10 -0.97 1.93
-4 -3 -10 2.07 1.18
-4 -3 -10 1.98 1.28
-4 -3 -10 5.59 2.57
-4 -3 -10 4.81 2.55
-5 -3 -10 0.23 1.31
-5 -3 -10 0.21 2.06
-5 -3 -10 0.89 0.64
-5 -3 -10 1.61 1.15
-6 -3 -10 -1.23 1.25
-6 -3 -10 1.78 2.34
-6 -3 -10 1.02 1.3
-7 -3 -10 -3.07 2.57
-7 -3 -10 -1.45 1.26
-8 -3 -10 -1.03 1.66
-8 -3 -10 -0.97 1.51
-8 -3 -10 2.73 2.22
-9 -3 -10 4.7 2.35
-9 -3 -10 1.44 2.26
9 3 10 12.44 4.37
6 -4 -10 2.58 2.32
6 -4 -10 0.71 2.24
6 -4 -10 1.8 1.08
5 -4 -10 -0.61 0.84
5 -4 -10 -0.31 1.33
5 -4 -10 0.32 2.13
-5 4 10 3.74 2.25
4 -4 -10 0.61 1.47
4 -4 -10 -0.62 0.89
4 -4 -10 -1.08 1.04
3 -4 -10 9.56 2.34
3 -4 -10 10.33 2.62
3 -4 -10 8.94 3.18
-3 4 10 9.42 2.98
2 -4 -10 0.45 1.38
2 -4 -10 -1.22 0.87
2 -4 -10 0.11 0.99
1 -4 -10 -1.41 0.7
1 -4 -10 -5 4.48
1 -4 -10 0.14 0.52
0 -4 -10 0.91 0.89
0 -4 -10 0.86 0.92
0 -4 -10 4.73 2.16
-1 -4 -10 -0.37 0.82
-1 -4 -10 2.38 2.39
-1 -4 -10 -0.34 0.77
-1 -4 -10 2.76 1.44
-1 -4 -10 1.07 0.77
-2 -4 -10 1.55 2.31
-2 -4 -10 -0.84 1.25
-2 -4 -10 3.25 1.73
-2 -4 -10 5.17 2.5
-2 -4 -10 3.48 1.19
-3 -4 -10 -1.74 2.39
-3 -4 -10 0.8 1.66
-3 -4 -10 -0.51 1.17
-3 -4 -10 1.83 1.55
-3 -4 -10 0 0.79
-4 -4 -10 0.59 1.15
-4 -4 -10 -1.04 2.09
-4 -4 -10 0.49 0.79
-5 -4 -10 0.02 2.01
-5 -4 -10 -1.14 0.64
-5 -4 -10 0.06 0.65
-5 -4 -10 2.01 1.52
-6 -4 -10 -0.45 2.66
-6 -4 -10 0.07 0.75
-6 -4 -10 -0.63 1.25
-7 -4 -10 1.47 1.55
-7 -4 -10 0.51 1.05
-7 -4 -10 1.49 2.71
-8 -4 -10 -0.51 1.3
-8 -4 -10 0.43 1.49
-8 -4 -10 2.95 2.98
-9 -4 -10 -2.28 2.85
-9 -4 -10 0.45 1.81
-9 -4 -10 -0.41 2.73
9 4 10 0.39 4.01
6 -5 -10 1.08 2.11
6 -5 -10 -0.98 1.41
5 -5 -10 -0.48 2.36
5 -5 -10 2.33 1.84
5 -5 -10 1.86 1.4
-5 5 10 3.85 2.49
4 -5 -10 1.09 2.24
4 -5 -10 -0.48 1.26
4 -5 -10 1.3 1.41
-4 5 10 -0.2 2.54
3 -5 -10 0.9 1.25
3 -5 -10 0.86 1.14
3 -5 -10 0.71 1.02
-3 5 10 3.71 2.02
2 -5 -10 0.13 1.14
2 -5 -10 -1.51 1.12
2 -5 -10 0.63 1.09
-2 5 10 -0.39 1.68
1 -5 -10 -2.18 2.91
1 -5 -10 0.34 1.27
1 -5 -10 -0.69 0.78
0 -5 -10 3.16 1.11
0 -5 -10 3.45 1.87
0 -5 -10 3.51 3.8
0 -5 -10 1.99 1.17
-1 -5 -10 3.98 1.59
-1 -5 -10 4 3.87
-1 -5 -10 3.02 1.93
-1 -5 -10 3.69 1.66
-2 -5 -10 1.17 0.63
-2 -5 -10 0.72 1.12
-2 -5 -10 1.6 2.63
-2 -5 -10 0.28 1.42
-3 -5 -10 5.24 2.29
-3 -5 -10 4.65 0.96
-3 -5 -10 5.79 2.33
-3 -5 -10 5.68 3.58
-4 -5 -10 1.69 0.39
-4 -5 -10 2.33 1.37
-4 -5 -10 1.14 0.36
-4 -5 -10 -2.27 3.29
-4 -5 -10 4.63 1.96
-5 -5 -10 -1.04 0.79
-5 -5 -10 1.53 2.25
-5 -5 -10 1.43 1.42
-6 -5 -10 0.29 0.31
-6 -5 -10 -3 1.2
-6 -5 -10 -3.06 2.24
-6 -5 -10 0.51 0.53
-7 -5 -10 0.82 3.1
-7 -5 -10 1.24 0.68
-7 -5 -10 0.34 1.52
-7 -5 -10 1.18 0.68
7 5 10 5.18 4.54
-8 -5 -10 4.4 2.46
-8 -5 -10 5.47 3.31
-8 -5 -10 1.19 0.94
8 5 10 -5.58 3.74
-9 -5 -10 -0.21 3.13
-9 -5 -10 -0.42 1.1
-9 -5 -10 0.06 1.38
5 -6 -10 0.19 1.59
5 -6 -10 1.6 1.54
5 -6 -10 -0.99 2.37
-5 6 10 5.06 2.65
4 -6 -10 1.64 1.7
4 -6 -10 3.65 2.04
4 -6 -10 0.59 2.52
-4 6 10 -2.06 1.92
3 -6 -10 -0.07 1.73
3 -6 -10 -0.8 1.17
3 -6 -10 0.44 1.2
-3 6 10 -2.96 1.72
2 -6 -10 0.34 1.12
2 -6 -10 0.74 0.96
2 -6 -10 0.1 1.15
-2 6 10 3.31 2.75
1 -6 -10 1.28 1.01
1 -6 -10 -0.84 0.8
1 -6 -10 0.11 3.02
0 -6 -10 0.78 0.6
0 -6 -10 -2.36 1.65
0 -6 -10 1.21 2.42
0 -6 -10 1.56 0.91
-1 -6 -10 27.04 5.55
-1 -6 -10 27.5 2.98
-1 -6 -10 30.47 3.55
-1 -6 -10 24.41 6.45
-2 -6 -10 0.72 1.56
-2 -6 -10 1.67 2.63
-2 -6 -10 -0.96 0.68
-3 -6 -10 -0.83 2.61
-3 -6 -10 2.47 1.65
3 6 10 4.79 2.31
-4 -6 -10 5.05 2.09
-4 -6 -10 0.98 1.49
-4 -6 -10 1.07 2.37
4 6 10 2.02 1.67
-5 -6 -10 2.56 1.29
-5 -6 -10 1.68 2.93
-5 -6 -10 1.63 1.61
-6 -6 -10 2.12 1.97
-6 -6 -10 6.44 3.21
-6 -6 -10 0.49 0.81
6 6 10 -1 3.21
-7 -6 -10 -5.58 3.18
-7 -6 -10 2.65 1.59
7 6 10 -0.33 3.49
-8 -6 -10 -2.32 1.56
-8 -6 -10 2.36 3.75
8 6 10 1.77 4.02
-9 -6 -10 -5.47 3.99
5 -7 -10 -0.88 1.38
5 -7 -10 -2.82 2.14
5 -7 -10 1.62 1.73
-5 7 10 1.33 2.97
4 -7 -10 -2.12 1.41
4 -7 -10 0.35 1.49
4 -7 -10 2.29 2.25
-4 7 10 -3.79 2.17
3 -7 -10 3.1 1.96
3 -7 -10 -1.93 1.13
-3 7 10 1.1 2.27
2 -7 -10 0.07 0.94
2 -7 -10 -0.42 1.97
2 -7 -10 -1.87 1.1
2 -7 -10 -0.82 1.03
-2 7 10 -0.57 1.82
1 -7 -10 -0.51 1.22
1 -7 -10 0.88 0.91
1 -7 -10 5.58 3.73
-1 7 10 1.62 2.15
-1 7 10 -2.31 1.38
0 -7 -10 7.23 3.16
0 -7 -10 1.83 3.52
-1 -7 -10 4.07 1.31
-1 -7 -10 4.77 3.61
1 7 10 15.39 4.27
-2 -7 -10 1.57 1.45
-2 -7 -10 0.44 2.75
-2 -7 -10 -1.6 0.65
2 7 10 0.01 1.31
-3 -7 -10 -1.8 0.89
-3 -7 -10 1.64 1.24
-3 -7 -10 -0.39 2.52
3 7 10 1.31 1.64
-4 -7 -10 1.61 1.31
-4 -7 -10 0 0.97
-4 -7 -10 3.36 2.31
4 7 10 -0.67 1.08
-5 -7 -10 -2.97 2.39
-5 -7 -10 -0.92 1.06
-5 -7 -10 -0.93 0.66
-5 -7 -10 -0.39 0.96
-6 -7 -10 2.31 1.38
-6 -7 -10 3.26 1.56
-6 -7 -10 -0.72 3.07
-6 -7 -10 -2.21 1.32
6 7 10 0.68 1.46
-7 -7 -10 1.04 1.98
-7 -7 -10 -5.01 3.09
-7 -7 -10 -0.02 1.72
7 7 10 -0.96 1.07
7 7 10 0.19 4.07
-8 -7 -10 -3.05 3.57
-8 -7 -10 -0.47 1.49
8 7 10 -1 1.1
-9 -7 -10 0.42 1.75
-9 -7 -10 -0.39 5.69
4 -8 -10 1.74 3.67
4 -8 -10 1.9 1.83
3 -8 -10 2.92 4.33
3 -8 -10 -1.12 1.73
3 -8 -10 4.96 2.82
-3 8 10 -1.17 2.23
2 -8 -10 -0.77 2.91
2 -8 -10 -2.42 3.26
-2 8 10 -1.82 2.48
-2 8 10 0.7 2.12
1 -8 -10 2.29 1.73
1 -8 -10 -2.41 1.06
1 -8 -10 -2.44 2.81
-1 8 10 -2.75 1.13
-1 8 10 1.77 1.74
0 -8 -10 7.34 2.88
0 -8 -10 3.98 3.53
0 8 10 4.41 3.76
-1 -8 -10 3.37 2.83
-1 -8 -10 3.21 2.13
-2 -8 -10 2.31 2.87
-2 -8 -10 0.46 0.91
-2 -8 -10 -0.25 1.55
2 8 10 0.19 1.89
-3 -8 -10 1.5 1.61
-3 -8 -10 4.6 3.13
-3 -8 -10 -4.24 1.89
3 8 10 0.39 1.93
-4 -8 -10 0.73 1.54
-4 -8 -10 4.01 2.88
-4 -8 -10 4.44 2.14
4 8 10 0.85 1.9
-5 -8 -10 1.39 1.41
-5 -8 -10 -1.79 1.23
-5 -8 -10 2.2 3.44
5 8 10 3.29 2.26
-6 -8 -10 2.44 1.46
-6 -8 -10 6.46 4.1
-6 -8 -10 1.39 1.61
-6 -8 -10 3.89 2.02
6 8 10 4.33 2.11
-7 -8 -10 -3.68 1.58
-7 -8 -10 1.52 1.96
-7 -8 -10 6.27 4.46
7 8 10 1.43 2.04
-8 -8 -10 1.19 2.19
8 8 10 0.46 2.02
4 -9 -10 -1.06 2.03
3 -9 -10 -4.99 4.61
3 -9 -10 -2.43 1.1
-3 9 10 0.15 2.19
2 -9 -10 1.49 1.95
2 -9 -10 6.35 3.58
1 -9 -10 3.31 3.56
1 -9 -10 -1.38 1.23
1 -9 -10 -2.26 1.59
-1 9 10 0.75 1.43
0 -9 -10 2.93 3.77
0 -9 -10 4.21 2.49
0 9 10 -0.28 1.19
-1 -9 -10 -0.53 1.72
-1 -9 -10 -0.61 0.79
1 9 10 2.55 2.28
-2 -9 -10 0.54 2.86
-2 -9 -10 4.58 2.21
-2 -9 -10 0.8 1.18
2 9 10 -0.2 1.52
-3 -9 -10 4.11 1.96
-3 -9 -10 -4.24 2.58
-3 -9 -10 -0.01 1.41
-4 -9 -10 -0.84 3.35
-4 -9 -10 1.08 1.93
-4 -9 -10 1 1.58
4 9 10 2.98 2.22
-5 -9 -10 1.93 1.84
-5 -9 -10 3.86 3.41
-5 -9 -10 -1.63 1.75
5 9 10 -0.91 1.23
-6 -9 -10 -2.95 1.34
-6 -9 -10 2.69 4.01
-6 -9 -10 -0.7 1.99
6 9 10 1.05 1.79
-7 -9 -10 5.43 2.93
-7 -9 -10 -2.68 4.15
-7 -9 -10 5.58 3.78
7 9 10 1.85 2.17
2 -10 -10 -1.17 3.16
2 -10 -10 -0.57 3.4
-2 10 10 1.08 2.08
1 -10 -10 -1.03 1.29
-1 10 10 0.15 1.57
0 -10 -10 0.59 3.2
0 -10 -10 1.23 2.32
0 10 10 0.23 1.44
-1 -10 -10 -0.11 1.25
-1 -10 -10 0.18 3.07
-1 -10 -10 3.55 2.55
-2 -10 -10 -0.38 1.39
-2 -10 -10 4.36 3.55
-2 -10 -10 1.83 2.2
2 10 10 -0.02 2.4
-3 -10 -10 -0.28 1.6
-3 -10 -10 0.51 1.76
-3 -10 -10 6.26 3.75
3 10 10 -1.08 1.76
-4 -10 -10 -1.03 1.53
-4 -10 -10 4.03 2.9
-4 -10 -10 3.4 2.07
4 10 10 1.74 1.98
-5 -10 -10 4.96 1.97
-5 -10 -10 -0.54 1.67
5 10 10 -2.26 3.48
-6 -10 -10 -4.03 1.94
6 10 10 2.47 2.34
0 -11 -10 0.5 2.61
0 -11 -10 -5.2 3.64
0 -11 -10 1.33 1.37
-1 -11 -10 0.82 4.77
-1 -11 -10 3.69 3.51
-1 -11 -10 0.19 1.45
-2 -11 -10 0.54 1.79
-2 -11 -10 -2.56 4.63
-2 -11 -10 1.31 2.08
-3 -11 -10 0.3 2.04
-3 -11 -10 1.79 1.88
-3 -11 -10 -4.32 4.02
-4 -11 -10 0.95 5.19
-4 -11 -10 1.81 2.3
-5 -11 -10 -0.48 1.61
1 1 -11 3.18 2.28
1 1 -11 0.67 2
1 1 -11 -1.28 2.18
1 1 -11 1.52 1.85
0 1 -11 1.47 1.43
0 1 -11 -0.09 0.79
0 1 -11 0.52 2.02
0 1 -11 0.17 1.05
0 1 -11 0.09 2.21
0 1 -11 -0.28 1.51
-1 1 -11 -0.47 1.02
-1 1 -11 -3.5 2.52
-1 1 -11 0.48 0.84
-1 1 -11 -0.19 1.4
-1 1 -11 2.23 2.68
-1 1 -11 -1.57 0.98
-2 1 -11 0.41 2.18
-2 1 -11 0.3 1.2
-2 1 -11 1.93 3.15
-2 1 -11 3.11 2.63
-3 1 -11 -3.99 2.26
-3 1 -11 -1.09 1.09
-3 1 -11 -0.16 1.18
-3 1 -11 -4.19 1.71
-4 1 -11 1.68 1.48
-4 1 -11 -0.83 1.53
-4 1 -11 0.37 1.25
3 0 -11 -1.58 2.07
2 0 -11 -1.63 1.81
2 0 -11 3.42 2.22
2 0 -11 1.07 2.74
2 0 -11 0.65 1.96
2 0 -11 3.63 2.24
1 0 -11 0.57 1.82
1 0 -11 0.54 1.89
1 0 -11 2.88 2.29
1 0 -11 -0.65 0.43
1 0 -11 3.41 2.36
0 0 -11 -2.45 1.47
0 0 -11 1.45 2.11
0 0 -11 -2.19 1.36
0 0 -11 1.16 0.89
0 0 -11 0.01 2.03
-1 0 -11 -0.74 1.79
-1 0 -11 -1.91 1.22
-1 0 -11 4.25 2.24
-1 0 -11 0.67 1.7
-1 0 -11 -1.3 0.78
-2 0 -11 -1.04 0.76
-2 0 -11 1.49 1.55
-2 0 -11 -0.09 2.16
-2 0 -11 -2.74 1.78
-2 0 -11 -0.61 1.13
-3 0 -11 -1.78 1.74
-3 0 -11 -1.16 2.52
-3 0 -11 -0.39 1.17
-3 0 -11 -1.14 1.14
-3 0 -11 0.11 0.93
-4 0 -11 -1.12 0.97
-4 0 -11 1.25 1.51
-4 0 -11 -1.57 0.99
-4 0 -11 -0.75 1.1
-4 0 -11 1.48 2.4
-4 0 -11 0.97 1.82
-5 0 -11 0.54 1.4
-5 0 -11 0.66 0.8
-5 0 -11 0.93 0.69
-5 0 -11 6.43 3.66
-5 0 -11 2.27 1.41
4 -1 -11 3.19 2.13
3 -1 -11 -2.61 1.27
3 -1 -11 4.21 2.82
3 -1 -11 -0.13 1.46
2 -1 -11 1.28 1.66
2 -1 -11 -1.99 4.27
2 -1 -11 3.1 1.83
1 -1 -11 2.93 2.41
1 -1 -11 2.35 1.99
1 -1 -11 3.42 2.48
1 -1 -11 2.81 2.19
0 -1 -11 2.61 2.2
0 -1 -11 -3.44 1.28
0 -1 -11 -0.59 1.45
0 -1 -11 -0.58 0.8
-1 -1 -11 -0.01 0.85
-1 -1 -11 1.19 1.85
-1 -1 -11 -1.63 1.41
-1 -1 -11 1.59 1.4
-1 -1 -11 1.76 2.46
-2 -1 -11 0.05 1.18
-2 -1 -11 -0.29 1.97
-2 -1 -11 -2.91 1.62
-2 -1 -11 1.25 2.02
-3 -1 -11 -0.62 1.73
-3 -1 -11 -0.4 0.98
-3 -1 -11 0.94 1.87
-3 -1 -11 2.71 1.78
-3 -1 -11 4.05 2.82
-4 -1 -11 -0.47 1.54
-4 -1 -11 1.23 1.5
-4 -1 -11 -0.29 0.82
-4 -1 -11 -1.83 2.1
-4 -1 -11 -1.19 1.34
-5 -1 -11 1.22 3.05
-5 -1 -11 3.24 2.01
-5 -1 -11 1.01 0.86
-5 -1 -11 6.57 2.26
-5 -1 -11 -1.3 1.6
-5 -1 -11 0.95 0.63
-6 -1 -11 -2.16 1.24
-6 -1 -11 -1.19 3.1
-6 -1 -11 -2.41 1.73
4 -2 -11 -3.62 2.39
3 -2 -11 0.45 1.59
3 -2 -11 0.18 1.07
3 -2 -11 -0.31 1.58
2 -2 -11 3.4 1.9
2 -2 -11 0.92 0.72
2 -2 -11 3.68 2.89
2 -2 -11 -1.36 1.06
2 -2 -11 1.04 1.33
2 -2 -11 -0.01 0.59
1 -2 -11 -1.87 1.31
1 -2 -11 1.45 1.54
1 -2 -11 3.43 3.02
1 -2 -11 3.26 1.84
1 -2 -11 2.42 0.97
0 -2 -11 2.82 1.66
0 -2 -11 0.44 1.16
0 -2 -11 -1.85 1
0 -2 -11 -1.62 0.62
0 -2 -11 -1.02 2.42
-1 -2 -11 -3.14 1.21
-1 -2 -11 -0.87 1.04
-1 -2 -11 -2.33 1.98
-1 -2 -11 -0.74 0.74
-1 -2 -11 -0.59 0.95
-2 -2 -11 0.2 1.46
-2 -2 -11 -0.47 0.9
-2 -2 -11 0.11 1.15
-2 -2 -11 0.73 0.96
-2 -2 -11 2.18 2.12
-3 -2 -11 -1.91 1.21
-3 -2 -11 3.07 1.93
-3 -2 -11 4.73 2.87
-3 -2 -11 5.43 2.23
-3 -2 -11 1.5 1.16
-4 -2 -11 -0.24 1.15
-4 -2 -11 4.02 2.14
-4 -2 -11 0.09 1.76
-4 -2 -11 0.67 0.8
-4 -2 -11 0.22 1.78
-5 -2 -11 -3.56 1.64
-5 -2 -11 0.19 0.52
-5 -2 -11 -0.92 1.29
-5 -2 -11 2.45 2.69
-5 -2 -11 -1.47 1.28
-6 -2 -11 -1.43 1.98
-6 -2 -11 0.19 1.64
-6 -2 -11 0.45 1.6
-6 -2 -11 0.59 2.35
-7 -2 -11 -0.09 1.7
-7 -2 -11 1.87 3.66
-7 -2 -11 6.23 2.98
-7 -2 -11 -4.04 1.97
4 -3 -11 -1.6 1.7
4 -3 -11 1.62 0.91
4 -3 -11 0.32 0.36
4 -3 -11 -0.36 1.3
3 -3 -11 0.06 1.44
3 -3 -11 -0.81 0.83
3 -3 -11 0.61 1.91
2 -3 -11 -2.24 1
2 -3 -11 -0.55 0.89
2 -3 -11 2.68 2.86
2 -3 -11 1.48 0.83
1 -3 -11 -1.73 2.61
1 -3 -11 0.93 1.05
1 -3 -11 -0.3 1.11
1 -3 -11 -0.09 0.93
1 -3 -11 -1.28 1.6
0 -3 -11 -0.18 1.2
0 -3 -11 -0.39 0.78
0 -3 -11 -1.89 2.23
0 -3 -11 1.05 1.59
0 -3 -11 -0.12 0.89
-1 -3 -11 1.22 0.89
-1 -3 -11 2.21 2
-1 -3 -11 0.08 0.8
-1 -3 -11 -1.21 0.74
-1 -3 -11 -0.24 1.27
-2 -3 -11 -0.4 0.84
-2 -3 -11 1.77 1.13
-2 -3 -11 0.57 2.46
-2 -3 -11 0.01 1.42
-2 -3 -11 1.19 1.23
-3 -3 -11 1.06 1.52
-3 -3 -11 0.96 1.24
-3 -3 -11 -2.18 1.98
-3 -3 -11 1.07 1.28
-3 -3 -11 -2.13 2.04
-4 -3 -11 -1.22 1.57
-4 -3 -11 3.02 1.71
-4 -3 -11 2.84 1.43
-4 -3 -11 6.87 3.42
-4 -3 -11 1.62 1.36
-5 -3 -11 -0.07 1.04
-5 -3 -11 0.03 0.73
-5 -3 -11 2.46 2.15
-5 -3 -11 0.9 2.03
-6 -3 -11 1.78 2.56
-6 -3 -11 0.08 1.38
-6 -3 -11 0.19 1.42
-6 -3 -11 0.62 1.85
-6 -3 -11 1.44 3.27
-7 -3 -11 -1.23 1.1
-7 -3 -11 0.92 2.45
-7 -3 -11 -0.7 1.57
-7 -3 -11 -0.37 1.8
-8 -3 -11 0.08 2.34
-8 -3 -11 1.52 2.77
5 -4 -11 3.2 3.19
4 -4 -11 0.82 1.4
4 -4 -11 0.26 1.02
4 -4 -11 -0.08 1.81
3 -4 -11 -0.6 0.98
3 -4 -11 2.3 1.18
3 -4 -11 -0.36 1.72
3 -4 -11 0.81 0.99
2 -4 -11 0.3 1.44
2 -4 -11 0.7 1.18
2 -4 -11 1.58 1.13
2 -4 -11 0.57 1.1
2 -4 -11 5.65 3.66
1 -4 -11 0.36 0.84
1 -4 -11 -1.17 0.81
1 -4 -11 2.01 1.61
1 -4 -11 1.05 1.6
1 -4 -11 3.61 3.05
0 -4 -11 -0.2 0.94
0 -4 -11 -0.68 0.68
0 -4 -11 -1.18 1.12
0 -4 -11 -0.4 2.02
0 -4 -11 1.04 1
-1 -4 -11 2.63 1.12
-1 -4 -11 -1.53 0.92
-1 -4 -11 -1.26 0.96
-1 -4 -11 -0.54 0.93
-1 -4 -11 -3.48 2.17
-2 -4 -11 0.86 1.22
-2 -4 -11 2.67 1.41
-2 -4 -11 2.48 1.52
-2 -4 -11 2.14 1.27
-2 -4 -11 0.42 4.56
-3 -4 -11 1.89 1.5
-3 -4 -11 2.72 1.3
-3 -4 -11 4.61 2.29
-3 -4 -11 -0.1 3.25
-3 -4 -11 0.33 1.5
-4 -4 -11 1.39 1.23
-4 -4 -11 0.72 1
-4 -4 -11 0.1 0.82
-4 -4 -11 3.63 2.17
-5 -4 -11 0.03 0.87
-5 -4 -11 -0.62 0.81
-5 -4 -11 0.33 2.31
-5 -4 -11 2.5 1.89
-6 -4 -11 0.19 0.9
-6 -4 -11 -0.08 2.59
-6 -4 -11 -1.89 0.97
-6 -4 -11 -0.37 1.06
-7 -4 -11 0.43 2.97
-7 -4 -11 -1.86 1.57
-7 -4 -11 0.65 1.14
-7 -4 -11 -0.33 1.22
-8 -4 -11 -1.93 2.72
-8 -4 -11 1.82 1.39
-8 -4 -11 -1.32 1.16
8 4 11 3.99 3.59
4 -5 -11 -0.63 1.52
4 -5 -11 4.04 2.64
4 -5 -11 1.63 1.51
3 -5 -11 -0.72 1.14
3 -5 -11 -2.45 0.98
3 -5 -11 0.03 1.3
2 -5 -11 -0.55 1.86
2 -5 -11 1.62 1.22
2 -5 -11 -0.05 3.63
2 -5 -11 -0.61 1.17
1 -5 -11 0.69 0.98
1 -5 -11 2.54 1.79
1 -5 -11 0.22 1.92
0 -5 -11 -0.04 0.87
0 -5 -11 -0.45 1.52
0 -5 -11 -0.13 0.62
0 -5 -11 1.27 2.25
-1 -5 -11 0.21 0.73
-1 -5 -11 1.34 1.09
-1 -5 -11 0.9 1.13
-1 -5 -11 0.85 1.45
-1 -5 -11 3.9 3.25
-2 -5 -11 -1.03 1.44
-2 -5 -11 -4.65 2.46
-2 -5 -11 1.13 1.6
-3 -5 -11 0.88 0.7
-3 -5 -11 3.49 1.91
-3 -5 -11 2.21 1.63
-3 -5 -11 1.07 1.43
-4 -5 -11 0.81 2.26
-4 -5 -11 0.29 0.42
-4 -5 -11 0.75 1.44
-4 -5 -11 -0.37 0.86
-5 -5 -11 0.14 0.36
-5 -5 -11 1.51 2.35
-5 -5 -11 0.55 0.94
-5 -5 -11 -0.25 0.55
-6 -5 -11 0.63 1.11
-6 -5 -11 -0.25 0.79
-6 -5 -11 -2.58 2.45
-7 -5 -11 3.26 3.2
-7 -5 -11 0.78 1.85
-7 -5 -11 -0.76 1.07
-7 -5 -11 0.52 0.52
-8 -5 -11 -2.88 2.02
-8 -5 -11 -0.31 1.24
-8 -5 -11 0.37 3.47
8 5 11 -6.13 5.01
4 -6 -11 4.12 1.81
4 -6 -11 0.07 1.66
-4 6 11 -4.28 2.46
3 -6 -11 -2.38 1.18
3 -6 -11 0.4 1.28
3 -6 -11 -0.37 1.46
-3 6 11 2.12 2.41
2 -6 -11 0.4 1.02
2 -6 -11 4.55 3.38
2 -6 -11 -0.02 1.74
2 -6 -11 0.91 1.24
1 -6 -11 0.28 1.01
1 -6 -11 -3.42 2.67
1 -6 -11 2.71 2.08
0 -6 -11 0.1 1.19
0 -6 -11 1.68 1.04
0 -6 -11 2.17 2.7
0 -6 -11 0.39 0.4
0 -6 -11 0.88 0.55
-1 -6 -11 0.1 0.88
-1 -6 -11 1.73 0.87
-1 -6 -11 4.92 3.13
-1 -6 -11 2.29 1.47
-2 -6 -11 0.72 2.82
-2 -6 -11 -1.5 0.83
-2 -6 -11 0.16 1.38
-2 -6 -11 -0.39 0.32
-3 -6 -11 -0.55 0.98
-3 -6 -11 1.77 1.38
-3 -6 -11 0.47 2.78
-4 -6 -11 -0.47 2.73
-4 -6 -11 -1.66 1.3
-4 -6 -11 0.89 1.26
-5 -6 -11 3.42 2.3
-5 -6 -11 -0.33 1.07
-6 -6 -11 1.7 1.98
-6 -6 -11 -1.86 0.78
-6 -6 -11 -1.14 2.83
-7 -6 -11 2.71 3.51
-7 -6 -11 2.14 2.16
-8 -6 -11 -1.65 1.3
-8 -6 -11 -1.6 3.5
4 -7 -11 0.37 1.37
4 -7 -11 -1.77 2.15
3 -7 -11 -0.09 1.27
3 -7 -11 -3.28 1.63
3 -7 -11 -3.55 4.54
3 -7 -11 3.31 1.61
-3 7 11 -2.22 2.05
2 -7 -11 -1.09 1.09
2 -7 -11 -2.4 1.6
2 -7 -11 0.74 1.68
-2 7 11 -0.3 2.13
1 -7 -11 0.51 3.43
1 -7 -11 1.92 1.23
1 -7 -11 4.92 2.13
1 -7 -11 3.24 2.83
0 -7 -11 7.69 3.55
-1 -7 -11 0.32 0.75
-1 -7 -11 4.35 3.09
-1 -7 -11 -0.28 1.4
-1 -7 -11 0.52 0.97
-2 -7 -11 2 1.25
-3 -7 -11 -0.95 2.16
-3 -7 -11 1.12 1.57
-3 -7 -11 -0.05 1.27
-4 -7 -11 -0.19 0.94
-4 -7 -11 -0.2 2.32
-4 -7 -11 -0.41 1.03
4 7 11 -0.49 1.5
-5 -7 -11 -1.39 1.12
-5 -7 -11 0.14 3.18
-5 -7 -11 1.03 1.48
-6 -7 -11 -2.43 1.54
-6 -7 -11 0.46 3.83
-6 -7 -11 -1.32 0.94
-6 -7 -11 4.33 2.52
-7 -7 -11 -0.03 1.85
-7 -7 -11 1.77 2.16
-7 -7 -11 -2.55 3.7
-8 -7 -11 -1.91 1.9
-8 -7 -11 4.73 5.8
3 -8 -11 2.55 2.47
3 -8 -11 3.71 1.77
3 -8 -11 2.33 3.94
-3 8 11 2.29 2.4
2 -8 -11 2.01 1.67
2 -8 -11 -2.02 2.88
2 -8 -11 -0.7 1.93
-2 8 11 2.24 2.53
1 -8 -11 0.57 1.43
1 -8 -11 -0.91 1.58
1 -8 -11 -0.91 3.58
0 -8 -11 -5.89 2.94
0 -8 -11 -0.67 1.23
0 8 11 -1.69 1.76
-1 -8 -11 9.22 5.12
-1 -8 -11 4.07 2.56
-1 -8 -11 8.29 1.94
-1 -8 -11 4.19 1.35
1 8 11 0.39 3.39
-2 -8 -11 2.12 2.16
-2 -8 -11 1.34 1.1
-2 -8 -11 2.46 3.65
-3 -8 -11 0.07 1.18
-3 -8 -11 -0.69 3.05
-3 -8 -11 -2.69 1.32
3 8 11 -1.26 1.71
-4 -8 -11 -1.08 1.44
-4 -8 -11 0.03 1.68
4 8 11 -0.34 1.53
-5 -8 -11 -0.6 2.45
-5 -8 -11 1.39 1.4
-5 -8 -11 2.32 1.56
5 8 11 -0.24 1.8
-6 -8 -11 1.74 1.44
-6 -8 -11 2.08 2.23
-6 -8 -11 1.99 1.82
-6 -8 -11 0.12 2.93
6 8 11 0.69 1.67
-7 -8 -11 0.5 3.51
-7 -8 -11 2.91 2.27
2 -9 -11 1 3.02
2 -9 -11 1.2 1.47
-2 9 11 -1.68 3.23
1 -9 -11 0.57 4.47
1 -9 -11 4.21 2.54
-1 9 11 2.48 1.7
0 -9 -11 -5.41 3.23
0 -9 -11 -2.86 1.53
-1 -9 -11 2.45 3.48
-1 -9 -11 3.25 2.09
1 9 11 2.33 1.97
-2 -9 -11 -1.52 2.95
-2 -9 -11 -1.1 1.63
-2 -9 -11 -0.11 1.15
2 9 11 1.69 2.23
-3 -9 -11 4.89 3.86
-3 -9 -11 -0.68 1.31
-3 -9 -11 0.18 1.34
3 9 11 2.75 2.11
-4 -9 -11 -0.12 1.4
-4 -9 -11 0.9 1.56
-4 -9 -11 0 3.42
-5 -9 -11 -1.71 3.63
-5 -9 -11 2.92 2.1
-5 -9 -11 4 1.96
5 9 11 0.92 2.21
-6 -9 -11 8.63 5.9
-6 -9 -11 0.28 1.32
-6 -9 -11 0.54 2.87
-6 -9 -11 0.15 1.8
6 9 11 -2.84 1.82
1 -10 -11 -2.26 1.43
0 -10 -11 -4.24 3.57
0 -10 -11 2.07 2.23
-1 -10 -11 -0.72 0.95
-1 -10 -11 0.37 1.08
-2 -10 -11 -0.2 1.88
-2 -10 -11 -0.73 1.35
-2 -10 -11 8.79 6.47
-3 -10 -11 2.85 1.81
-3 -10 -11 1.3 1.97
-3 -10 -11 5.96 5.09
3 10 11 1.78 2.84
-4 -10 -11 0.85 1.66
-4 -10 -11 -1.28 4.89
-4 -10 -11 -0.11 1.45
4 10 11 -0.8 2.18
-5 -10 -11 1.15 1.98
-5 -10 -11 -2.58 4.58
-5 -10 -11 0.27 2.11
5 10 11 -3.29 2.67
1 -1 -12 2.51 2.78
1 -1 -12 1.67 1.06
0 -1 -12 2.32 2.16
0 -1 -12 -3.44 2.26
0 -1 -12 3.01 2.04
0 -1 -12 -0.07 0.86
-1 -1 -12 2.43 1.88
-1 -1 -12 3.34 2.93
-1 -1 -12 -0.84 2.32
-1 -1 -12 2.04 2.04
-1 -1 -12 0.49 1.16
-2 -1 -12 -1.4 1.47
-2 -1 -12 3.07 2.22
-2 -1 -12 -0.83 1.14
-2 -1 -12 -1.04 1.78
-2 -1 -12 0.99 3.06
-3 -1 -12 3.44 2.03
-3 -1 -12 0.73 1.32
-3 -1 -12 0.59 1.34
-3 -1 -12 -2.49 2.31
-4 -1 -12 0.81 1.54
-4 -1 -12 0.39 1.87
-4 -1 -12 -0.26 1.11
2 -2 -12 0.53 1.61
2 -2 -12 0.04 0.42
2 -2 -12 1.14 2.79
1 -2 -12 2.26 1.82
1 -2 -12 2.78 2.44
1 -2 -12 2.88 3.35
1 -2 -12 1.17 0.89
1 -2 -12 0.7 2.02
0 -2 -12 1.61 1.31
0 -2 -12 -2.65 1.68
0 -2 -12 0.17 1.7
0 -2 -12 -1.24 0.94
0 -2 -12 -2.94 2.79
-1 -2 -12 1 1.29
-1 -2 -12 -1.02 2.57
-1 -2 -12 3.38 2.89
-1 -2 -12 -0.82 1
-1 -2 -12 0.2 1.32
-2 -2 -12 0.79 1.1
-2 -2 -12 -0.9 1.45
-2 -2 -12 -1.87 2.37
-2 -2 -12 -2.55 1.11
-2 -2 -12 -1.86 1.44
-3 -2 -12 -0.62 0.95
-3 -2 -12 3.14 1.25
-3 -2 -12 -0.58 1.89
-3 -2 -12 0.15 1.88
-3 -2 -12 -1.42 2.11
-4 -2 -12 1.19 1.54
-4 -2 -12 3.3 2.92
-4 -2 -12 3.54 2.46
-4 -2 -12 1.19 2.43
-4 -2 -12 0.94 1.13
-5 -2 -12 0.72 1.82
-5 -2 -12 1.89 2.28
-5 -2 -12 -1.25 0.81
-5 -2 -12 -1.63 2.1
3 -3 -12 3.43 3.76
2 -3 -12 0.54 3.33
2 -3 -12 0.18 0.74
2 -3 -12 -0.96 0.87
2 -3 -12 0.06 1.04
2 -3 -12 -2.2 1.98
2 -3 -12 2.69 1.63
1 -3 -12 2.84 2.12
1 -3 -12 2.42 1.38
1 -3 -12 0.09 0.87
1 -3 -12 -0.71 1.3
1 -3 -12 1.86 2.76
0 -3 -12 0.37 1.09
0 -3 -12 8.06 3.62
0 -3 -12 0.57 1.51
0 -3 -12 1.61 1.7
0 -3 -12 -0.54 1.43
-1 -3 -12 -1.54 1.13
-1 -3 -12 0.47 2.8
-1 -3 -12 0.44 1.94
-1 -3 -12 0.92 1.37
-1 -3 -12 -0.65 1.02
-2 -3 -12 -3.31 3.83
-2 -3 -12 0.29 1.24
-2 -3 -12 1.53 1.54
-3 -3 -12 2.8 1.25
-3 -3 -12 0.75 1.38
-3 -3 -12 4.36 3.77
-3 -3 -12 -1.44 1.19
-3 -3 -12 5.59 2.49
-4 -3 -12 3.13 2.36
-4 -3 -12 0.46 1.57
-4 -3 -12 0.84 1.23
-4 -3 -12 0.66 1.33
-5 -3 -12 -1.42 1.03
-5 -3 -12 -0.3 1.48
-5 -3 -12 2.77 2.72
-5 -3 -12 5.07 3.29
-5 -3 -12 0.57 1.39
-6 -3 -12 3.84 3.01
-6 -3 -12 1.27 2.04
-6 -3 -12 8.52 3.67
3 -4 -12 0.42 1.13
3 -4 -12 1.78 3.05
3 -4 -12 0.81 0.93
2 -4 -12 -3.66 3.4
2 -4 -12 -2.4 1.23
2 -4 -12 0.45 1.99
2 -4 -12 0.09 1.39
2 -4 -12 0.93 1.09
1 -4 -12 0.39 1.59
1 -4 -12 -1.15 1.23
1 -4 -12 -3.88 2.51
1 -4 -12 0.69 1.16
1 -4 -12 1.21 1.05
0 -4 -12 -0.88 1
0 -4 -12 -1.18 1.3
0 -4 -12 -2.95 3.21
0 -4 -12 0.07 1.68
0 -4 -12 -1.63 0.93
-1 -4 -12 -0.97 1.43
-1 -4 -12 -4.91 2.55
-1 -4 -12 0.44 0.95
-1 -4 -12 0.87 1.14
-1 -4 -12 -3.14 1.26
-2 -4 -12 -0.47 1.04
-2 -4 -12 0.34 1.22
-2 -4 -12 -0.48 1.46
-2 -4 -12 -0.1 1.58
-2 -4 -12 -2.67 2.67
-3 -4 -12 1.07 1.18
-3 -4 -12 0.6 1.54
-3 -4 -12 3.09 2.9
-3 -4 -12 -0.64 1.32
-3 -4 -12 -0.84 1.33
-4 -4 -12 1.2 1.43
-4 -4 -12 -0.16 1.06
-4 -4 -12 0.04 1.97
-4 -4 -12 3.82 2.24
-4 -4 -12 1.41 1.15
-5 -4 -12 -2.05 1.87
-5 -4 -12 3.8 1.97
-5 -4 -12 -2.02 0.99
-5 -4 -12 -2.62 2.66
-5 -4 -12 0.33 1.14
-5 -4 -12 0.13 0.93
-6 -4 -12 0.29 1.14
-6 -4 -12 0.96 2.55
-6 -4 -12 3.4 1.95
-6 -4 -12 2.98 2.59
-6 -4 -12 -1.55 1.34
3 -5 -12 -0.71 1.47
2 -5 -12 -0.24 3.75
2 -5 -12 4.05 2.06
2 -5 -12 2.39 1.49
2 -5 -12 1.53 1.47
2 -5 -12 4.71 2.3
1 -5 -12 -2.12 0.92
1 -5 -12 0.22 3.84
1 -5 -12 1.12 1.86
1 -5 -12 -1.56 0.86
0 -5 -12 -3.04 2.89
0 -5 -12 0.4 1
0 -5 -12 -1.72 1.18
0 -5 -12 2.01 1.33
-1 -5 -12 3.51 1.96
-1 -5 -12 0.19 3.42
-1 -5 -12 2.88 1.81
-1 -5 -12 1.79 1.71
-1 -5 -12 2.11 1.13
-2 -5 -12 -1.68 1.29
-2 -5 -12 1.08 1.34
-2 -5 -12 3.58 3.1
-2 -5 -12 1.92 1.69
-2 -5 -12 1.46 1.03
-3 -5 -12 2.66 1.8
-3 -5 -12 1.18 3.35
-3 -5 -12 0.83 1.16
-3 -5 -12 0.51 1.86
-4 -5 -12 0.6 1.42
-4 -5 -12 -1.23 1.35
-4 -5 -12 3.92 3.04
-4 -5 -12 0.84 0.69
-4 -5 -12 -0.26 0.6
-5 -5 -12 -3 2.56
-5 -5 -12 0.49 0.97
-5 -5 -12 -0.3 0.73
-5 -5 -12 0.53 0.53
-5 -5 -12 7.09 3.47
-5 -5 -12 -1.16 1.34
-6 -5 -12 0.21 0.45
-6 -5 -12 0.36 0.74
-6 -5 -12 -0.11 2.68
-6 -5 -12 -0.33 1.82
-7 -5 -12 -0.77 1.97
3 -6 -12 0.6 1.59
2 -6 -12 2.07 4.68
2 -6 -12 -3.07 1.46
2 -6 -12 2.14 1.38
2 -6 -12 -3.97 2.08
1 -6 -12 -0.71 3.77
1 -6 -12 -2.38 1.49
1 -6 -12 1.61 1.06
0 -6 -12 0.36 3.47
0 -6 -12 3.42 1.46
0 -6 -12 0.04 2.18
-1 -6 -12 5.91 4.76
-1 -6 -12 0.95 0.77
-1 -6 -12 -1.93 1.21
-1 -6 -12 1.19 1.27
-1 -6 -12 1.67 0.82
-2 -6 -12 1.82 4.1
-2 -6 -12 3.14 2.11
-2 -6 -12 -1.25 1.59
-2 -6 -12 2.86 1.8
-3 -6 -12 2.87 1.89
-3 -6 -12 12.39 4.65
-3 -6 -12 6.24 2.51
-3 -6 -12 1.11 1.79
-4 -6 -12 1.37 1.84
-4 -6 -12 -0.36 1.39
-4 -6 -12 0.52 3.17
-5 -6 -12 0.76 1.33
-5 -6 -12 -0.8 2.84
-5 -6 -12 0.63 1.44
-6 -6 -12 1.24 3.3
-6 -6 -12 1.03 1.74
-6 -6 -12 -0.46 0.95
-7 -6 -12 -0.35 1.99
2 -7 -12 -1.7 1.11
2 -7 -12 -1.44 1.56
2 -7 -12 -3.08 1.6
2 -7 -12 -6.13 4.98
1 -7 -12 2.03 1.9
1 -7 -12 -5.42 3.97
1 -7 -12 -0.75 1.51
1 -7 -12 0.32 1.13
0 -7 -12 1.06 4.28
0 -7 -12 -0.68 0.81
0 -7 -12 0.52 2.14
-1 -7 -12 3.31 4.04
-1 -7 -12 -0.67 0.78
-1 -7 -12 0.7 0.9
-1 -7 -12 1.14 1.9
-2 -7 -12 2.61 1.71
-2 -7 -12 0.4 0.96
-2 -7 -12 2.81 4.45
-2 -7 -12 0.27 1.5
-3 -7 -12 4.49 1.68
-3 -7 -12 10.15 5.92
-3 -7 -12 1.24 1.31
-4 -7 -12 1.45 1.25
-4 -7 -12 2.43 1.57
-4 -7 -12 0.79 1.76
-4 -7 -12 3.08 3.75
-5 -7 -12 1.49 1.42
-5 -7 -12 3.46 1.94
-5 -7 -12 -0.4 1.97
-5 -7 -12 -2 3.77
-6 -7 -12 2.77 1.67
-6 -7 -12 0.1 3.94
-6 -7 -12 0.64 1.37
1 -8 -12 -0.9 1.8
1 -8 -12 -0.53 1.44
1 -8 -12 -1.85 5.74
0 -8 -12 -4.61 3.18
0 -8 -12 2.27 2.31
-1 -8 -12 2.41 2.46
-1 -8 -12 0.76 0.72
-1 -8 -12 -3.49 3.62
-2 -8 -12 -2.21 1.53
-2 -8 -12 -0.26 1.29
-2 -8 -12 1.45 3.84
-2 -8 -12 0.35 1.13
-3 -8 -12 1.8 3.93
-3 -8 -12 0.58 1.58
-3 -8 -12 0.38 1.26
-4 -8 -12 0.49 3.75
-4 -8 -12 2.61 1.44
-4 -8 -12 -0.57 1.56
-5 -8 -12 -3.85 2.22
-5 -8 -12 -1.51 3.62
-5 -8 -12 -0.89 1.44
-5 -8 -12 -0.04 1.46
-6 -8 -12 0.59 1.73
-6 -8 -12 -0.13 2.69
-6 -8 -12 -4.16 1.87
0 -9 -12 0.88 4.95
0 -9 -12 -1.57 1.22
-1 -9 -12 2.61 4.04
-1 -9 -12 0.74 1.9
-2 -9 -12 0.22 1.93
-2 -9 -12 1.95 1.42
-2 -9 -12 0.33 4.72
2 9 12 0.88 1.94
-3 -9 -12 -3.19 1.51
-3 -9 -12 0.98 1.24
3 9 12 2.39 2.47
-4 -9 -12 1.92 1.9
-4 -9 -12 -2.92 5.65
-4 -9 -12 2.79 2.04
4 9 12 -2.24 2.97
-5 -9 -12 -2.07 1.5
-2 -3 -13 1.19 1.67
0 -4 -13 -1.24 1.73
-1 -4 -13 1.35 1.75
-1 -4 -13 2.17 3.28
-1 -4 -13 -0.83 1.09
-1 -4 -13 -2.01 1.49
-2 -4 -13 0.72 1.73
-2 -4 -13 0.11 1.8
-2 -4 -13 -1.43 2.65
-2 -4 -13 -3.17 1.23
-3 -4 -13 -3.19 2.19
-3 -4 -13 -1.49 1.4
-3 -4 -13 1.52 1.7
-3 -4 -13 -0.11 2.62
-4 -4 -13 1.22 1.52
0 -5 -13 -3.36 1.7
0 -5 -13 -1.46 1.27
-1 -5 -13 1.6 1.59
-1 -5 -13 -1.26 3.41
-1 -5 -13 -0.57 0.92
-1 -5 -13 0.5 1.62
-1 -5 -13 0.03 1.71
-2 -5 -13 -6.3 3
-2 -5 -13 2.83 1.59
-2 -5 -13 0.52 1.73
-2 -5 -13 0.04 0.97
-2 -5 -13 -1.7 1.45
-3 -5 -13 1.01 1.69
-3 -5 -13 -5.87 2.86
-3 -5 -13 1.6 0.99
-3 -5 -13 1.5 3.35
-4 -5 -13 -4.9 3.24
-4 -5 -13 2.58 1.49
-4 -5 -13 3.48 2.51
-4 -5 -13 -1.07 1.76
0 -6 -13 0.8 1.92
0 -6 -13 -0.42 1.46
-1 -6 -13 0.63 0.91
-1 -6 -13 0.73 1.4
-1 -6 -13 1.32 1.71
-1 -6 -13 2.09 3.51
-1 -6 -13 0.66 1.62
-1 -6 -13 0.33 0.94
-2 -6 -13 -3.45 4.17
-2 -6 -13 1.45 1.85
-2 -6 -13 0 1.89
-2 -6 -13 0.51 1.4
-3 -6 -13 -0.27 1.72
-3 -6 -13 1.07 1.56
-3 -6 -13 -0.94 1.64
-3 -6 -13 0.03 3.32
-4 -6 -13 -4.37 3.43
-4 -6 -13 -0.22 1.88
-4 -6 -13 0.1 1.4
-4 -6 -13 0.19 1.63
-1 -7 -13 0.24 0.77
-1 -7 -13 -2.18 1.29
-1 -7 -13 -0.35 0.81
-2 -7 -13 7.84 4.88
-2 -7 -13 1.95 1.5
-2 -7 -13 3.88 1.97
-2 -7 -13 0.75 2.17
-2 -7 -13 -0.29 1.11
-3 -7 -13 -6.75 3.98
-3 -7 -13 4.09 2.25
-3 -7 -13 -2.28 2.35
-3 -7 -13 -0.43 1.64
-3 -7 -13 0.71 1.48
-4 -7 -13 2.94 1.75
