#------------------------------------------------------------------------------
#$Date: 2021-06-18 11:04:29 +0300 (Fri, 18 Jun 2021) $
#$Revision: 266559 $
#$URL: file:///home/coder/svn-repositories/cod/cif/1/56/35/1563565.cif $
#------------------------------------------------------------------------------
#
# This file is available in the Crystallography Open Database (COD),
# http://www.crystallography.net/
#
# All data on this site have been placed in the public domain by the
# contributors.
#
data_1563565
loop_
_publ_author_name
'Beekman, M.'
'Stefanoski, S.'
'Wong-Ng, W.'
'Kaduk, J.A.'
'Huang, Q.'
'Reeg, C.'
'Bowers, C.R.'
'Nolas, G.S.'
_publ_section_title
;
 Structure and thermal conductivity of Na1&#x2212;Ge3+
;
_journal_issue                   6
_journal_name_full               'Journal of Solid State Chemistry'
_journal_page_first              1272
_journal_page_last               1277
_journal_paper_doi               10.1016/j.jssc.2010.03.035
_journal_volume                  183
_journal_year                    2010
_chemical_formula_sum            Ge
_chemical_formula_weight         72.59
_space_group_IT_number           227
_space_group_name_Hall           '-F 4vw 2vw 3'
_space_group_name_H-M_alt        'F d -3 m :2'
_symmetry_cell_setting           cubic
_symmetry_space_group_name_H-M   'F d -3 m :2'
_cell_angle_alpha                90.0
_cell_angle_beta                 90.0
_cell_angle_gamma                90.0
_cell_formula_units_Z            16
_cell_length_a                   5.6455(22)
_cell_length_b                   5.6455
_cell_length_c                   5.6455
_cell_volume                     179.93(7)
_diffrn_radiation_probe          neutron
_diffrn_radiation_wavelength     1.5403
_exptl_absorpt_correction_T_max  0.51008
_exptl_absorpt_correction_T_min  0.46200
_exptl_absorpt_process_details
;   GSAS Absorption/surface roughness correction: function number 0
 Debye-Scherrer absorption correction
Term (= MU.r/wave) =     0.30000    
Correction is not refined.
;
_pd_calc_method                  'Rietveld Refinement'
_pd_instr_location               ' ?'
_pd_meas_2theta_range_inc        0.05
_pd_meas_2theta_range_max        166.45
_pd_meas_2theta_range_min        3.0
_pd_meas_number_of_points        3270
_pd_proc_2theta_range_inc        0.05
_pd_proc_2theta_range_max        166.5046
_pd_proc_2theta_range_min        3.0546
_pd_proc_info_datetime           2006-07-17T09:46:43
_pd_proc_info_excluded_regions   ' ?'
_pd_proc_ls_background_function
;   GSAS Background function number 2 with 24 terms.
 Cosine Fourier series
      1:    3100.05     2:    463.194     3:    564.567     4:   -326.475    
      5:    380.151     6:   -198.174     7:    275.523     8:   -109.726    
      9:    224.676    10:   -26.0413    11:    99.6707    12:   -32.2903    
     13:    38.5737    14:    71.6428    15:    43.6155    16:    76.9575    
     17:   -2.60762    18:    38.6871    19:   -46.8284    20:    22.8265    
     21:   -17.2059    22:    26.0367    23:   -10.3946    24:    16.8229    
;
_pd_proc_ls_prof_R_factor        0.0178
_pd_proc_ls_prof_wR_expected     0.0178
_pd_proc_ls_prof_wR_factor       0.0213
_pd_proc_number_of_points        3270
_pd_spec_mounting                ' ?'
_refine_ls_R_Fsqd_factor         0.05565
_reflns_d_resolution_high        0.783
_reflns_d_resolution_low         12.995
_reflns_limit_h_max              16
_reflns_limit_h_min              0
_reflns_limit_k_max              16
_reflns_limit_k_min              0
_reflns_limit_l_max              5
_reflns_limit_l_min              0
_reflns_number_total             664
_cod_data_source_file            JSSC-2010-183-1272.cif
_cod_data_source_block           NAGE3K4_phase_2
_cod_original_cell_volume        179.93(21)
_cod_original_sg_symbol_H-M      'F d -3 m'
_cod_database_code               1563565
_gsas_exptl_extinct_corr_t_min   1.00000
_gsas_exptl_extinct_corr_t_max   1.00000
loop_
_symmetry_equiv_pos_site_id
_symmetry_equiv_pos_as_xyz
1 +x,+y,+z
2 +z,+x,+y
3 +y,+z,+x
4 +x+1/4,+y+1/4,-z
5 -z,+x+1/4,+y+1/4
6 +y+1/4,-z,+x+1/4
7 -z+1/4,+x+1/2,-y+3/4
8 -y+3/4,-z+1/4,+x+1/2
9 +y+1/2,-z+1/4,-x+3/4
10 -x+3/4,+y+1/2,-z+1/4
11 -z+1/4,-x+3/4,+y+1/2
12 +x+1/2,-y+3/4,-z+1/4
13 +y,+x,+z
14 +z,+y,+x
15 +x,+z,+y
16 +y+1/4,+x+1/4,-z
17 -z,+y+1/4,+x+1/4
18 +x+1/4,-z,+y+1/4
19 -z+1/4,+y+1/2,-x+3/4
20 -x+3/4,-z+1/4,+y+1/2
21 +x+1/2,-z+1/4,-y+3/4
22 -y+3/4,+x+1/2,-z+1/4
23 -z+1/4,-y+3/4,+x+1/2
24 +y+1/2,-x+3/4,-z+1/4
-1 -x,-y,-z
-2 -z,-x,-y
-3 -y,-z,-x
-4 -x+3/4,-y+3/4,+z
-5 +z,-x+3/4,-y+3/4
-6 -y+3/4,+z,-x+3/4
-7 +z+3/4,-x+1/2,+y+1/4
-8 +y+1/4,+z+3/4,-x+1/2
-9 -y+1/2,+z+3/4,+x+1/4
-10 +x+1/4,-y+1/2,+z+3/4
-11 +z+3/4,+x+1/4,-y+1/2
-12 -x+1/2,+y+1/4,+z+3/4
-13 -y,-x,-z
-14 -z,-y,-x
-15 -x,-z,-y
-16 -y+3/4,-x+3/4,+z
-17 +z,-y+3/4,-x+3/4
-18 -x+3/4,+z,-y+3/4
-19 +z+3/4,-y+1/2,+x+1/4
-20 +x+1/4,+z+3/4,-y+1/2
-21 -x+1/2,+z+3/4,+y+1/4
-22 +y+1/4,-x+1/2,+z+3/4
-23 +z+3/4,+y+1/4,-x+1/2
-24 -y+1/2,+x+1/4,+z+3/4
101 +x,+y+1/2,+z+1/2
102 +z,+x+1/2,+y+1/2
103 +y,+z+1/2,+x+1/2
104 +x+1/4,+y+3/4,-z+1/2
105 -z,+x+3/4,+y+3/4
106 +y+1/4,-z+1/2,+x+3/4
107 -z+1/4,+x,-y+1/4
108 -y+3/4,-z+3/4,+x
109 +y+1/2,-z+3/4,-x+1/4
110 -x+3/4,+y,-z+3/4
111 -z+1/4,-x+1/4,+y
112 +x+1/2,-y+1/4,-z+3/4
113 +y,+x+1/2,+z+1/2
114 +z,+y+1/2,+x+1/2
115 +x,+z+1/2,+y+1/2
116 +y+1/4,+x+3/4,-z+1/2
117 -z,+y+3/4,+x+3/4
118 +x+1/4,-z+1/2,+y+3/4
119 -z+1/4,+y,-x+1/4
120 -x+3/4,-z+3/4,+y
121 +x+1/2,-z+3/4,-y+1/4
122 -y+3/4,+x,-z+3/4
123 -z+1/4,-y+1/4,+x
124 +y+1/2,-x+1/4,-z+3/4
-101 -x,-y+1/2,-z+1/2
-102 -z,-x+1/2,-y+1/2
-103 -y,-z+1/2,-x+1/2
-104 -x+3/4,-y+1/4,+z+1/2
-105 +z,-x+1/4,-y+1/4
-106 -y+3/4,+z+1/2,-x+1/4
-107 +z+3/4,-x,+y+3/4
-108 +y+1/4,+z+1/4,-x
-109 -y+1/2,+z+1/4,+x+3/4
-110 +x+1/4,-y,+z+1/4
-111 +z+3/4,+x+3/4,-y
-112 -x+1/2,+y+3/4,+z+1/4
-113 -y,-x+1/2,-z+1/2
-114 -z,-y+1/2,-x+1/2
-115 -x,-z+1/2,-y+1/2
-116 -y+3/4,-x+1/4,+z+1/2
-117 +z,-y+1/4,-x+1/4
-118 -x+3/4,+z+1/2,-y+1/4
-119 +z+3/4,-y,+x+3/4
-120 +x+1/4,+z+1/4,-y
-121 -x+1/2,+z+1/4,+y+3/4
-122 +y+1/4,-x,+z+1/4
-123 +z+3/4,+y+3/4,-x
-124 -y+1/2,+x+3/4,+z+1/4
201 +x+1/2,+y,+z+1/2
202 +z+1/2,+x,+y+1/2
203 +y+1/2,+z,+x+1/2
204 +x+3/4,+y+1/4,-z+1/2
205 -z+1/2,+x+1/4,+y+3/4
206 +y+3/4,-z,+x+3/4
207 -z+3/4,+x+1/2,-y+1/4
208 -y+1/4,-z+1/4,+x
209 +y,-z+1/4,-x+1/4
210 -x+1/4,+y+1/2,-z+3/4
211 -z+3/4,-x+3/4,+y
212 +x,-y+3/4,-z+3/4
213 +y+1/2,+x,+z+1/2
214 +z+1/2,+y,+x+1/2
215 +x+1/2,+z,+y+1/2
216 +y+3/4,+x+1/4,-z+1/2
217 -z+1/2,+y+1/4,+x+3/4
218 +x+3/4,-z,+y+3/4
219 -z+3/4,+y+1/2,-x+1/4
220 -x+1/4,-z+1/4,+y
221 +x,-z+1/4,-y+1/4
222 -y+1/4,+x+1/2,-z+3/4
223 -z+3/4,-y+3/4,+x
224 +y,-x+3/4,-z+3/4
-201 -x+1/2,-y,-z+1/2
-202 -z+1/2,-x,-y+1/2
-203 -y+1/2,-z,-x+1/2
-204 -x+1/4,-y+3/4,+z+1/2
-205 +z+1/2,-x+3/4,-y+1/4
-206 -y+1/4,+z,-x+1/4
-207 +z+1/4,-x+1/2,+y+3/4
-208 +y+3/4,+z+3/4,-x
-209 -y,+z+3/4,+x+3/4
-210 +x+3/4,-y+1/2,+z+1/4
-211 +z+1/4,+x+1/4,-y
-212 -x,+y+1/4,+z+1/4
-213 -y+1/2,-x,-z+1/2
-214 -z+1/2,-y,-x+1/2
-215 -x+1/2,-z,-y+1/2
-216 -y+1/4,-x+3/4,+z+1/2
-217 +z+1/2,-y+3/4,-x+1/4
-218 -x+1/4,+z,-y+1/4
-219 +z+1/4,-y+1/2,+x+3/4
-220 +x+3/4,+z+3/4,-y
-221 -x,+z+3/4,+y+3/4
-222 +y+3/4,-x+1/2,+z+1/4
-223 +z+1/4,+y+1/4,-x
-224 -y,+x+1/4,+z+1/4
301 +x+1/2,+y+1/2,+z
302 +z+1/2,+x+1/2,+y
303 +y+1/2,+z+1/2,+x
304 +x+3/4,+y+3/4,-z
305 -z+1/2,+x+3/4,+y+1/4
306 +y+3/4,-z+1/2,+x+1/4
307 -z+3/4,+x,-y+3/4
308 -y+1/4,-z+3/4,+x+1/2
309 +y,-z+3/4,-x+3/4
310 -x+1/4,+y,-z+1/4
311 -z+3/4,-x+1/4,+y+1/2
312 +x,-y+1/4,-z+1/4
313 +y+1/2,+x+1/2,+z
314 +z+1/2,+y+1/2,+x
315 +x+1/2,+z+1/2,+y
316 +y+3/4,+x+3/4,-z
317 -z+1/2,+y+3/4,+x+1/4
318 +x+3/4,-z+1/2,+y+1/4
319 -z+3/4,+y,-x+3/4
320 -x+1/4,-z+3/4,+y+1/2
321 +x,-z+3/4,-y+3/4
322 -y+1/4,+x,-z+1/4
323 -z+3/4,-y+1/4,+x+1/2
324 +y,-x+1/4,-z+1/4
-301 -x+1/2,-y+1/2,-z
-302 -z+1/2,-x+1/2,-y
-303 -y+1/2,-z+1/2,-x
-304 -x+1/4,-y+1/4,+z
-305 +z+1/2,-x+1/4,-y+3/4
-306 -y+1/4,+z+1/2,-x+3/4
-307 +z+1/4,-x,+y+1/4
-308 +y+3/4,+z+1/4,-x+1/2
-309 -y,+z+1/4,+x+1/4
-310 +x+3/4,-y,+z+3/4
-311 +z+1/4,+x+3/4,-y+1/2
-312 -x,+y+3/4,+z+3/4
-313 -y+1/2,-x+1/2,-z
-314 -z+1/2,-y+1/2,-x
-315 -x+1/2,-z+1/2,-y
-316 -y+1/4,-x+1/4,+z
-317 +z+1/2,-y+1/4,-x+3/4
-318 -x+1/4,+z+1/2,-y+3/4
-319 +z+1/4,-y,+x+1/4
-320 +x+3/4,+z+1/4,-y+1/2
-321 -x,+z+1/4,+y+1/4
-322 +y+3/4,-x,+z+3/4
-323 +z+1/4,+y+3/4,-x+1/2
-324 -y,+x+3/4,+z+3/4
loop_
_atom_site_type_symbol
_atom_site_label
_atom_site_fract_x
_atom_site_fract_y
_atom_site_fract_z
_atom_site_occupancy
_atom_site_thermal_displace_type
_atom_site_U_iso_or_equiv
_atom_site_symmetry_multiplicity
Ge Ge 0.0 0.0 0.0 1.0 Uiso 0.01 16
loop_
_atom_type_symbol
_atom_type_scat_length_neutron
_atom_type_scat_source
Ge 0.8185 International_Tables_Vol_C
Na 0.3630 International_Tables_Vol_C
loop_
_pd_meas_intensity_total
_pd_proc_ls_weight
_pd_proc_intensity_bkg_calc
_pd_calc_intensity_total
4760(150) 0.0 4569. .
4780(150) 0.0 4566. .
4650(150) 0.0 4562. .
4830(150) 0.0 4559. .
4580(150) 0.0 4556. .
4680(150) 0.0 4552. .
4510(150) 0.0 4548. .
4330(140) 0.0 4545. .
4750(150) 0.0 4541. .
4470(150) 0.0 4538. .
4370(150) 0.0 4534. .
4800(150) 0.0 4530. .
4360(140) 0.0 4526. .
4620(150) 0.0 4522. .
4630(150) 0.0 4519. .
4640(150) 0.0 4515. .
4570(150) 0.0 4511. .
4400(150) 0.0 4507. .
4570(150) 0.0 4503. .
4500(150) 0.0 4499. .
4400(150) 0.0 4494. .
4570(150) 0.0000457 4490. 4490.
4610(150) 0.0000457 4486. 4486.
4440(150) 0.0000469 4482. 4482.
4420(150) 0.0000476 4478. 4478.
4390(150) 0.0000476 4473. 4473.
4700(150) 0.0000444 4469. 4469.
4390(150) 0.0000476 4465. 4465.
4390(150) 0.0000476 4460. 4460.
4540(150) 0.0000463 4456. 4456.
4400(150) 0.0000476 4452. 4452.
4420(150) 0.0000476 4447. 4447.
4440(150) 0.0000469 4443. 4443.
4550(150) 0.0000463 4438. 4438.
4340(140) 0.0000482 4434. 4434.
4650(150) 0.0000450 4429. 4429.
4380(150) 0.0000476 4424. 4424.
4500(150) 0.0000463 4420. 4420.
4370(150) 0.0000476 4415. 4415.
4260(140) 0.0000489 4410. 4410.
4250(140) 0.0000489 4406. 4406.
4540(150) 0.0000463 4401. 4401.
4160(140) 0.0000503 4396. 4396.
4560(150) 0.0000457 4392. 4391.
4540(150) 0.0000463 4387. 4387.
4220(140) 0.0000496 4382. 4382.
4230(140) 0.0000496 4377. 4377.
4380(150) 0.0000476 4372. 4372.
4290(140) 0.0000489 4367. 4367.
4420(150) 0.0000476 4362. 4362.
4570(150) 0.0000457 4358. 4358.
4700(150) 0.0000444 4353. 4353.
4470(150) 0.0000469 4348. 4348.
4620(150) 0.0000457 4343. 4343.
4280(140) 0.0000489 4338. 4338.
4440(150) 0.0000469 4333. 4333.
4440(150) 0.0000469 4328. 4328.
4270(140) 0.0000489 4323. 4323.
4550(150) 0.0000463 4318. 4318.
4320(140) 0.0000482 4313. 4313.
4440(150) 0.0000469 4308. 4345.
4680(150) 0.0000450 4303. 4345.
4510(150) 0.0000463 4298. 4346.
4980(150) 0.0000422 4293. 4350.
5220(160) 0.0000406 4287. 4356.
4920(150) 0.0000427 4282. 4368.
4950(150) 0.0000427 4277. 4393.
5210(160) 0.0000406 4272. 4449.
5370(160) 0.0000396 4267. 4569.
5350(160) 0.0000396 4262. 4805.
5830(170) 0.0000363 4257. 5219.
6290(170) 0.00003380 4252. 5846.
6550(180) 0.00003265 4246. 6652.
7200(180) 0.00002954 4241. 7498.
7450(190) 0.00002860 4236. 8138.
7350(190) 0.00002922 4231. 8311.
7220(180) 0.00002954 4226. 7928.
6330(170) 0.00003341 4221. 7167.
5770(170) 0.0000367 4216. 6302.
5230(160) 0.0000406 4210. 5542.
4620(150) 0.0000457 4205. 4986.
4460(150) 0.0000469 4200. 4635.
4170(140) 0.0000503 4195. 4440.
4270(140) 0.0000489 4190. 4339.
4180(140) 0.0000496 4185. 4287.
4320(140) 0.0000482 4180. 4257.
4210(140) 0.0000496 4174. 4238.
4020(140) 0.0000518 4169. 4223.
4060(140) 0.0000510 4164. 4210.
4280(140) 0.0000489 4159. 4159.
3840(140) 0.0000541 4154. 4154.
3870(140) 0.0000533 4149. 4149.
4080(140) 0.0000510 4144. 4144.
4040(140) 0.0000518 4139. 4138.
4130(140) 0.0000503 4133. 4133.
3870(140) 0.0000533 4128. 4128.
3810(140) 0.0000541 4123. 4123.
3950(140) 0.0000525 4118. 4118.
4170(140) 0.0000503 4113. 4113.
4080(140) 0.0000510 4108. 4108.
4060(95) 0.0001108 4103. 4103.
4113(96) 0.0001085 4098. 4098.
4162(96) 0.0001085 4093. 4093.
4039(95) 0.0001108 4088. 4088.
3932(94) 0.0001132 4083. 4083.
4097(95) 0.0001108 4078. 4078.
3929(94) 0.0001132 4073. 4073.
3874(93) 0.0001156 4068. 4068.
4014(95) 0.0001108 4063. 4063.
4072(95) 0.0001108 4058. 4058.
4067(95) 0.0001108 4053. 4053.
3998(94) 0.0001132 4048. 4048.
3878(93) 0.0001156 4043. 4043.
3873(93) 0.0001156 4039. 4039.
4049(95) 0.0001108 4034. 4034.
4004(94) 0.0001132 4029. 4029.
4000(94) 0.0001132 4024. 4024.
3991(94) 0.0001132 4019. 4019.
3889(93) 0.0001156 4015. 4015.
3812(92) 0.0001181 4010. 4010.
3937(94) 0.0001132 4005. 4005.
4082(95) 0.0001108 4000. 4000.
3933(94) 0.0001132 3996. 3996.
3975(94) 0.0001132 3991. 3991.
4009(94) 0.0001132 3986. 3986.
3743(91) 0.0001208 3982. 3982.
3877(93) 0.0001156 3977. 3977.
3993(94) 0.0001132 3972. 3972.
3932(94) 0.0001132 3968. 3968.
4067(95) 0.0001108 3963. 3963.
3945(94) 0.0001132 3959. 3959.
3819(92) 0.0001181 3954. 3954.
3819(92) 0.0001181 3950. 3950.
3947(94) 0.0001132 3945. 3945.
4148(96) 0.0001085 3941. 3941.
3950(94) 0.0001132 3937. 3937.
3923(93) 0.0001156 3932. 3932.
4163(96) 0.0001085 3928. 3928.
3991(94) 0.0001132 3923. 3923.
4001(94) 0.0001132 3919. 3919.
3911(93) 0.0001156 3915. 3915.
3864(93) 0.0001156 3911. 3911.
3911(93) 0.0001156 3906. 3906.
3737(91) 0.0001208 3902. 3902.
4028(95) 0.0001108 3898. 3898.
3797(92) 0.0001181 3894. 3894.
3823(92) 0.0001181 3890. 3890.
3923(93) 0.0001156 3886. 3886.
3786(92) 0.0001181 3882. 3882.
3909(93) 0.0001156 3878. 3878.
3888(93) 0.0001156 3874. 3874.
3901(93) 0.0001156 3870. 3870.
3899(93) 0.0001156 3866. 3866.
3866(93) 0.0001156 3862. 3862.
3906(93) 0.0001156 3858. 3858.
3751(91) 0.0001208 3854. 3854.
3893(93) 0.0001156 3850. 3850.
3912(93) 0.0001156 3846. 3846.
3856(93) 0.0001156 3842. 3842.
3982(94) 0.0001132 3839. 3839.
3924(93) 0.0001156 3835. 3836.
3868(93) 0.0001156 3831. 3832.
3934(94) 0.0001132 3828. 3829.
3879(93) 0.0001156 3824. 3826.
3934(94) 0.0001132 3820. 3822.
3766(92) 0.0001181 3817. 3819.
3762(92) 0.0001181 3813. 3817.
3896(93) 0.0001156 3810. 3815.
3884(93) 0.0001156 3806. 3815.
3693(91) 0.0001208 3803. 3818.
3802(92) 0.0001181 3799. 3827.
3854(93) 0.0001156 3796. 3842.
3935(94) 0.0001132 3793. 3862.
3709(91) 0.0001208 3789. 3882.
3742(91) 0.0001208 3786. 3895.
3945(94) 0.0001132 3783. 3893.
4006(94) 0.0001132 3780. 3876.
3942(94) 0.0001132 3776. 3850.
3793(92) 0.0001181 3773. 3823.
3754(92) 0.0001181 3770. 3800.
3785(92) 0.0001181 3767. 3784.
3672(90) 0.0001235 3764. 3773.
3830(92) 0.0001181 3761. 3766.
3755(91) 0.0001208 3758. 3761.
3833(92) 0.0001181 3755. 3757.
3799(92) 0.0001181 3752. 3754.
3811(92) 0.0001181 3749. 3751.
3648(90) 0.0001235 3746. 3748.
3652(90) 0.0001235 3743. 3745.
3713(91) 0.0001208 3741. 3740.
3648(90) 0.0001235 3738. 3738.
3722(91) 0.0001208 3735. 3735.
3680(91) 0.0001208 3732. 3732.
3689(91) 0.0001208 3730. 3730.
3473(88) 0.0001291 3727. 3727.
3734(91) 0.0001208 3724. 3724.
3690(120) 0.0000650 3722. 3722.
3770(130) 0.0000640 3719. 3725.
3980(130) 0.0000610 3717. 3723.
3830(130) 0.0000630 3714. 3721.
3768(90) 0.0001235 3712. 3720.
3719(89) 0.0001262 3709. 3720.
3727(89) 0.0001262 3707. 3720.
3857(91) 0.0001208 3704. 3723.
3955(92) 0.0001181 3702. 3732.
4004(93) 0.0001156 3700. 3752.
3959(92) 0.0001181 3697. 3794.
4048(93) 0.0001156 3695. 3865.
4172(95) 0.0001108 3693. 3968.
4280(96) 0.0001085 3691. 4090.
4319(96) 0.0001085 3689. 4201.
4337(97) 0.0001063 3687. 4257.
4288(96) 0.0001085 3684. 4229.
4187(95) 0.0001108 3682. 4131.
3904(92) 0.0001181 3680. 4004.
3815(90) 0.0001235 3678. 3887.
3797(90) 0.0001235 3676. 3798.
3717(89) 0.0001262 3674. 3741.
3677(89) 0.0001262 3673. 3710.
3625(88) 0.0001291 3671. 3693.
3736(89) 0.0001262 3669. 3684.
3743(90) 0.0001235 3667. 3678.
3671(89) 0.0001262 3665. 3674.
3778(90) 0.0001235 3663. 3671.
3672(89) 0.0001262 3662. 3668.
3664(89) 0.0001262 3660. 3666.
3753(90) 0.0001235 3658. 3658.
3648(88) 0.0001291 3657. 3657.
3637(88) 0.0001291 3655. 3655.
3576(88) 0.0001291 3654. 3654.
3671(89) 0.0001262 3652. 3652.
3660(89) 0.0001262 3650. 3650.
3800(90) 0.0001235 3649. 3649.
3586(88) 0.0001291 3647. 3647.
3612(88) 0.0001291 3646. 3646.
3672(89) 0.0001262 3645. 3645.
3660(89) 0.0001262 3643. 3643.
3663(89) 0.0001262 3642. 3642.
3616(88) 0.0001291 3641. 3641.
3591(88) 0.0001291 3639. 3639.
3631(88) 0.0001291 3638. 3638.
3638(88) 0.0001291 3637. 3637.
3645(88) 0.0001291 3635. 3635.
3581(88) 0.0001291 3634. 3634.
3672(89) 0.0001262 3633. 3633.
3703(89) 0.0001262 3632. 3632.
3705(89) 0.0001262 3631. 3631.
3650(88) 0.0001291 3630. 3630.
3709(89) 0.0001262 3629. 3629.
3701(89) 0.0001262 3628. 3628.
3644(88) 0.0001291 3627. 3627.
3634(88) 0.0001291 3626. 3626.
3643(88) 0.0001291 3625. 3625.
3679(89) 0.0001262 3624. 3624.
3700(89) 0.0001262 3623. 3623.
3702(89) 0.0001262 3622. 3622.
3630(88) 0.0001291 3621. 3621.
3418(86) 0.0001352 3620. 3620.
3493(86) 0.0001352 3619. 3619.
3565(87) 0.0001321 3619. 3619.
3673(89) 0.0001262 3618. 3618.
3765(90) 0.0001235 3617. 3617.
3691(89) 0.0001262 3616. 3616.
3815(90) 0.0001235 3616. 3616.
3656(89) 0.0001262 3615. 3615.
3741(90) 0.0001235 3614. 3614.
3685(89) 0.0001262 3614. 3614.
3685(89) 0.0001262 3613. 3613.
3708(89) 0.0001262 3613. 3613.
3620(88) 0.0001291 3612. 3612.
3476(86) 0.0001352 3611. 3611.
3574(88) 0.0001291 3611. 3611.
3591(88) 0.0001291 3610. 3610.
3566(87) 0.0001321 3610. 3610.
3547(87) 0.0001321 3609. 3609.
3470(86) 0.0001352 3609. 3609.
3551(87) 0.0001321 3609. 3609.
3579(88) 0.0001291 3608. 3608.
3529(87) 0.0001321 3608. 3608.
3650(88) 0.0001291 3607. 3607.
3576(88) 0.0001291 3607. 3607.
3504(87) 0.0001321 3607. 3607.
3576(88) 0.0001291 3607. 3607.
3440(86) 0.0001352 3606. 3606.
3440(86) 0.0001352 3606. 3606.
3557(87) 0.0001321 3606. 3612.
3589(88) 0.0001291 3606. 3612.
3523(87) 0.0001321 3605. 3613.
3521(87) 0.0001321 3605. 3614.
3715(89) 0.0001262 3605. 3616.
3688(89) 0.0001262 3605. 3618.
3622(88) 0.0001291 3605. 3622.
3693(89) 0.0001262 3605. 3630.
3778(90) 0.0001235 3604. 3646.
3816(90) 0.0001235 3604. 3680.
3883(91) 0.0001208 3604. 3744.
4090(140) 0.0000549 3604. 3846.
4277(93) 0.0001156 3604. 3985.
4440(95) 0.0001108 3604. 4136.
4506(96) 0.0001085 3604. 4252.
4318(94) 0.0001132 3604. 4281.
4224(93) 0.0001156 3604. 4205.
4116(92) 0.0001181 3604. 4065.
3880(89) 0.0001262 3604. 3915.
3824(88) 0.0001291 3605. 3792.
3748(87) 0.0001321 3605. 3709.
3601(85) 0.0001384 3605. 3661.
3614(86) 0.0001352 3605. 3637.
3697(87) 0.0001321 3605. 3626.
3572(85) 0.0001384 3605. 3620.
3573(85) 0.0001384 3605. 3617.
3437(83) 0.0001452 3605. 3615.
3602(86) 0.0001352 3606. 3614.
3508(84) 0.0001417 3606. 3613.
3532(85) 0.0001384 3606. 3606.
3536(85) 0.0001384 3606. 3606.
3592(85) 0.0001384 3607. 3607.
3754(87) 0.0001321 3607. 3607.
3579(85) 0.0001384 3607. 3607.
3555(85) 0.0001384 3607. 3607.
3698(87) 0.0001321 3608. 3608.
3579(85) 0.0001384 3608. 3608.
3577(85) 0.0001384 3608. 3608.
3725(87) 0.0001321 3609. 3609.
3568(85) 0.0001384 3609. 3609.
3582(85) 0.0001384 3609. 3609.
3512(84) 0.0001417 3610. 3610.
3453(84) 0.0001417 3610. 3610.
3435(83) 0.0001452 3610. 3610.
3577(85) 0.0001384 3611. 3611.
3572(85) 0.0001384 3611. 3611.
3615(86) 0.0001352 3612. 3612.
3506(84) 0.0001417 3612. 3612.
3538(85) 0.0001384 3612. 3612.
3547(85) 0.0001384 3613. 3614.
3624(86) 0.0001352 3613. 3614.
3605(86) 0.0001352 3614. 3615.
3457(84) 0.0001417 3614. 3616.
3642(86) 0.0001352 3615. 3616.
3715(87) 0.0001321 3615. 3617.
3542(85) 0.0001384 3616. 3618.
3592(85) 0.0001384 3616. 3620.
3578(85) 0.0001384 3617. 3623.
3762(87) 0.0001321 3617. 3630.
3696(87) 0.0001321 3618. 3640.
3578(85) 0.0001384 3618. 3657.
3608(86) 0.0001352 3619. 3680.
3600(85) 0.0001384 3619. 3703.
3621(86) 0.0001352 3620. 3719.
3551(85) 0.0001384 3620. 3721.
3564(85) 0.0001384 3621. 3707.
3684(87) 0.0001321 3622. 3685.
3568(85) 0.0001384 3622. 3664.
3571(85) 0.0001384 3623. 3647.
3723(87) 0.0001321 3623. 3637.
3673(86) 0.0001352 3624. 3631.
3592(85) 0.0001384 3624. 3629.
3564(85) 0.0001384 3625. 3628.
3616(86) 0.0001352 3626. 3628.
3576(85) 0.0001384 3626. 3628.
3659(86) 0.0001352 3627. 3628.
3576(85) 0.0001384 3627. 3629.
3646(86) 0.0001352 3628. 3629.
3744(87) 0.0001321 3629. 3629.
3649(86) 0.0001352 3629. 3629.
3706(87) 0.0001321 3630. 3630.
3536(85) 0.0001384 3630. 3630.
3616(86) 0.0001352 3631. 3631.
3551(85) 0.0001384 3632. 3632.
3624(86) 0.0001352 3632. 3632.
3488(84) 0.0001417 3633. 3633.
3564(85) 0.0001384 3634. 3634.
3693(87) 0.0001321 3634. 3634.
3659(86) 0.0001352 3635. 3635.
3574(85) 0.0001384 3636. 3636.
3550(85) 0.0001384 3636. 3636.
3617(86) 0.0001352 3637. 3637.
3618(86) 0.0001352 3638. 3638.
3621(86) 0.0001352 3638. 3638.
3563(85) 0.0001384 3639. 3639.
3682(86) 0.0001352 3639. 3640.
3760(87) 0.0001321 3640. 3640.
3676(86) 0.0001352 3641. 3641.
3683(86) 0.0001352 3641. 3642.
3727(87) 0.0001321 3642. 3643.
3636(86) 0.0001352 3643. 3644.
3611(86) 0.0001352 3643. 3645.
3539(85) 0.0001384 3644. 3646.
3575(85) 0.0001384 3645. 3647.
3710(87) 0.0001321 3645. 3647.
3658(86) 0.0001352 3646. 3648.
3637(86) 0.0001352 3647. 3648.
3589(85) 0.0001384 3647. 3648.
3716(87) 0.0001321 3648. 3648.
3635(86) 0.0001352 3648. 3651.
3609(86) 0.0001352 3649. 3652.
3653(82) 0.0001487 3650. 3653.
3594(82) 0.0001487 3650. 3654.
3551(81) 0.0001524 3651. 3658.
3607(82) 0.0001487 3651. 3660.
3679(83) 0.0001452 3652. 3662.
3606(82) 0.0001487 3653. 3667.
3725(83) 0.0001452 3653. 3675.
3755(83) 0.0001452 3654. 3691.
3619(82) 0.0001487 3655. 3721.
3651(82) 0.0001487 3655. 3770.
3734(83) 0.0001452 3656. 3839.
3910(85) 0.0001384 3656. 3919.
3949(85) 0.0001384 3657. 3992.
3875(85) 0.0001384 3657. 4036.
3923(85) 0.0001384 3658. 4043.
3905(85) 0.0001384 3659. 4027.
3786(84) 0.0001417 3659. 3998.
3733(83) 0.0001452 3660. 3954.
3694(83) 0.0001452 3660. 3894.
3737(83) 0.0001452 3661. 3829.
3698(83) 0.0001452 3661. 3771.
3746(83) 0.0001452 3662. 3728.
3695(83) 0.0001452 3662. 3709.
3636(82) 0.0001487 3663. 3695.
3672(82) 0.0001487 3663. 3689.
3783(84) 0.0001417 3664. 3687.
3793(84) 0.0001417 3664. 3688.
3803(84) 0.0001417 3665. 3688.
3822(84) 0.0001417 3665. 3695.
3777(84) 0.0001417 3666. 3707.
3700(83) 0.0001452 3666. 3734.
3703(83) 0.0001452 3667. 3788.
4023(86) 0.0001352 3667. 3892.
4128(87) 0.0001321 3667. 4055.
4303(89) 0.0001262 3668. 4268.
4529(92) 0.0001181 3668. 4485.
4713(93) 0.0001156 3669. 4625.
4671(93) 0.0001156 3669. 4626.
4476(91) 0.0001208 3669. 4474.
4223(88) 0.0001291 3670. 4257.
4088(87) 0.0001321 3670. 4051.
3893(85) 0.0001384 3670. 3898.
3675(82) 0.0001487 3671. 3806.
3721(83) 0.0001452 3671. 3761.
3853(84) 0.0001417 3671. 3749.
3877(85) 0.0001384 3672. 3764.
4025(86) 0.0001352 3672. 3813.
4149(88) 0.0001291 3672. 3914.
4384(90) 0.0001235 3673. 4080.
4568(92) 0.0001181 3673. 4306.
5034(97) 0.0001063 3673. 4547.
5051(97) 0.0001063 3673. 4713.
5164(98) 0.0001041 3674. 4734.
5078(97) 0.0001063 3674. 4588.
4692(93) 0.0001156 3674. 4352.
4335(90) 0.0001235 3674. 4122.
3930(85) 0.0001384 3674. 3940.
3825(84) 0.0001417 3675. 3823.
3648(82) 0.0001487 3675. 3760.
3616(82) 0.0001487 3675. 3730.
3585(81) 0.0001524 3675. 3718.
3613(82) 0.0001487 3675. 3714.
3674(82) 0.0001487 3675. 3716.
3737(83) 0.0001452 3675. 3726.
3889(85) 0.0001384 3675. 3751.
3881(85) 0.0001384 3675. 3803.
3912(85) 0.0001384 3675. 3885.
4024(86) 0.0001352 3675. 4023.
4051(87) 0.0001321 3675. 4187.
4216(88) 0.0001291 3675. 4333.
4182(88) 0.0001291 3675. 4397.
4204(88) 0.0001291 3675. 4343.
4086(87) 0.0001321 3675. 4202.
4114(87) 0.0001321 3675. 4038.
3944(85) 0.0001384 3675. 3896.
3725(83) 0.0001452 3675. 3798.
3735(83) 0.0001452 3675. 3741.
3750(83) 0.0001452 3675. 3712.
3743(83) 0.0001452 3675. 3699.
3639(82) 0.0001487 3675. 3692.
3797(84) 0.0001417 3674. 3689.
3780(84) 0.0001417 3674. 3687.
3700(83) 0.0001452 3674. 3688.
3702(83) 0.0001452 3674. 3694.
3796(84) 0.0001417 3674. 3710.
3724(83) 0.0001452 3673. 3734.
3775(84) 0.0001417 3673. 3783.
3833(84) 0.0001417 3673. 3842.
4071(87) 0.0001321 3673. 3896.
4103(87) 0.0001321 3672. 3925.
4003(86) 0.0001352 3672. 3919.
3952(86) 0.0001352 3672. 3882.
3812(84) 0.0001417 3671. 3826.
3746(83) 0.0001452 3671. 3772.
3734(83) 0.0001452 3670. 3729.
3663(82) 0.0001487 3670. 3701.
3743(83) 0.0001452 3670. 3685.
3714(83) 0.0001452 3669. 3676.
3707(83) 0.0001452 3669. 3672.
3686(83) 0.0001452 3668. 3670.
3672(82) 0.0001487 3668. 3669.
3660(82) 0.0001487 3667. 3668.
3810(84) 0.0001417 3667. 3668.
3693(82) 0.0001487 3666. 3667.
3680(82) 0.0001487 3666. 3666.
3710(82) 0.0001487 3665. 3666.
3685(82) 0.0001487 3664. 3664.
3690(82) 0.0001487 3664. 3664.
3649(82) 0.0001487 3663. 3666.
3661(82) 0.0001487 3663. 3666.
3733(83) 0.0001452 3662. 3666.
3729(83) 0.0001452 3661. 3666.
3753(83) 0.0001452 3660. 3666.
3754(83) 0.0001452 3660. 3667.
3748(83) 0.0001452 3659. 3669.
3794(83) 0.0001452 3658. 3674.
3638(82) 0.0001487 3658. 3685.
3684(82) 0.0001487 3657. 3708.
3794(83) 0.0001452 3656. 3748.
3773(83) 0.0001452 3655. 3809.
3979(85) 0.0001384 3654. 3882.
4010(86) 0.0001352 3653. 3947.
3961(85) 0.0001384 3653. 3977.
4052(86) 0.0001352 3652. 3953.
3990(86) 0.0001352 3651. 3889.
3899(85) 0.0001384 3650. 3814.
3829(84) 0.0001417 3649. 3749.
3664(82) 0.0001487 3648. 3706.
3606(81) 0.0001524 3647. 3679.
3510(80) 0.0001562 3646. 3666.
3507(80) 0.0001562 3645. 3659.
3655(82) 0.0001487 3644. 3656.
3709(82) 0.0001487 3643. 3654.
3574(81) 0.0001524 3642. 3653.
3555(81) 0.0001524 3641. 3654.
3608(81) 0.0001524 3640. 3657.
3718(83) 0.0001452 3639. 3667.
3671(82) 0.0001487 3638. 3685.
3671(82) 0.0001487 3636. 3721.
3907(85) 0.0001384 3635. 3772.
3909(85) 0.0001384 3634. 3855.
3875(84) 0.0001417 3633. 3904.
3995(86) 0.0001352 3632. 3918.
4159(87) 0.0001321 3631. 3892.
4125(87) 0.0001321 3629. 3843.
4055(86) 0.0001352 3628. 3796.
4007(86) 0.0001352 3627. 3767.
3984(85) 0.0001384 3626. 3772.
4027(86) 0.0001352 3624. 3829.
3986(85) 0.0001384 3623. 3975.
4301(89) 0.0001262 3622. 4261.
4647(92) 0.0001181 3620. 4724.
5073(96) 0.0001085 3619. 5339.
5830(100) 0.0000943 3618. 5978.
6220(110) 0.0000873 3616. 6411.
6270(110) 0.0000873 3615. 6411.
5900(100) 0.0000925 3614. 5975.
5353(99) 0.0001020 3612. 5333.
4711(93) 0.0001156 3611. 4713.
4130(87) 0.0001321 3609. 4288.
3924(85) 0.0001384 3608. 4001.
3814(84) 0.0001417 3606. 3852.
3702(82) 0.0001487 3605. 3785.
3524(80) 0.0001562 3603. 3762.
3744(83) 0.0001452 3602. 3762.
3777(83) 0.0001452 3600. 3783.
3821(84) 0.0001417 3599. 3840.
3948(85) 0.0001384 3597. 3976.
4177(88) 0.0001291 3596. 4266.
4622(92) 0.0001181 3594. 4777.
5500(100) 0.0001000 3593. 5618.
6530(110) 0.0000842 3591. 6690.
7650(120) 0.0000706 3590. 7730.
8450(130) 0.0000640 3588. 8318.
8600(130) 0.0000630 3586. 8120.
7640(120) 0.0000718 3585. 7257.
6350(110) 0.0000857 3583. 6154.
5241(98) 0.0001041 3582. 5169.
4427(90) 0.0001235 3580. 4468.
3950(85) 0.0001384 3578. 4053.
3832(84) 0.0001417 3577. 3840.
3695(82) 0.0001487 3575. 3739.
3649(82) 0.0001487 3573. 3690.
3570(81) 0.0001524 3572. 3663.
3519(80) 0.0001562 3570. 3645.
3485(80) 0.0001562 3568. 3632.
3453(80) 0.0001562 3567. 3643.
3454(80) 0.0001562 3565. 3638.
3454(80) 0.0001562 3563. 3593.
3563(81) 0.0001524 3562. 3596.
3539(80) 0.0001562 3560. 3601.
3533(80) 0.0001562 3558. 3609.
3574(81) 0.0001524 3556. 3623.
3642(82) 0.0001487 3555. 3653.
3654(82) 0.0001487 3553. 3719.
3800(83) 0.0001452 3551. 3857.
3995(86) 0.0001352 3550. 4113.
4358(89) 0.0001262 3548. 4520.
4860(94) 0.0001132 3546. 5052.
5390(100) 0.0001000 3544. 5593.
5810(100) 0.0001000 3543. 5941.
5710(99) 0.0001020 3541. 5940.
5346(95) 0.0001108 3539. 5552.
4726(90) 0.0001235 3537. 5004.
4324(86) 0.0001352 3536. 4489.
3898(81) 0.0001524 3534. 4110.
3792(80) 0.0001562 3532. 3884.
3705(79) 0.0001602 3530. 3782.
3666(79) 0.0001602 3529. 3772.
3770(80) 0.0001562 3527. 3855.
4046(83) 0.0001452 3525. 4065.
4515(88) 0.0001291 3523. 4455.
5164(94) 0.0001132 3522. 5045.
5820(100) 0.0001000 3520. 5767.
6440(110) 0.0000907 3518. 6428.
6800(110) 0.0000857 3516. 6722.
6700(110) 0.0000873 3515. 6513.
6010(100) 0.0000980 3513. 5897.
5225(94) 0.0001132 3511. 5161.
4491(87) 0.0001321 3509. 4521.
3952(82) 0.0001487 3508. 4074.
3654(79) 0.0001602 3506. 3811.
3537(77) 0.0001687 3504. 3677.
3499(77) 0.0001687 3502. 3613.
3458(76) 0.0001731 3501. 3583.
3416(76) 0.0001731 3499. 3567.
3439(76) 0.0001731 3497. 3560.
3501(77) 0.0001687 3496. 3561.
3691(79) 0.0001602 3494. 3574.
3693(79) 0.0001602 3492. 3599.
3698(79) 0.0001602 3491. 3608.
3755(80) 0.0001562 3489. 3649.
3843(81) 0.0001524 3487. 3674.
3813(80) 0.0001562 3486. 3669.
3657(79) 0.0001602 3484. 3636.
3595(78) 0.0001644 3482. 3590.
3538(77) 0.0001687 3481. 3548.
3490(77) 0.0001687 3479. 3517.
3546(77) 0.0001687 3478. 3498.
3451(76) 0.0001731 3476. 3487.
3444(76) 0.0001731 3474. 3481.
3474(77) 0.0001687 3473. 3478.
3498(77) 0.0001687 3471. 3475.
3452(76) 0.0001731 3470. 3477.
3362(75) 0.0001778 3468. 3475.
3443(76) 0.0001731 3467. 3474.
3551(77) 0.0001687 3465. 3477.
3560(78) 0.0001644 3464. 3475.
3514(77) 0.0001687 3462. 3476.
3532(77) 0.0001687 3461. 3478.
3476(77) 0.0001687 3459. 3482.
3402(76) 0.0001731 3458. 3493.
3457(76) 0.0001731 3457. 3516.
3538(77) 0.0001687 3455. 3562.
3648(79) 0.0001602 3454. 3639.
3818(80) 0.0001562 3452. 3751.
3877(81) 0.0001524 3451. 3887.
3964(82) 0.0001487 3450. 4017.
4079(83) 0.0001452 3448. 4104.
4216(85) 0.0001384 3447. 4124.
4157(84) 0.0001417 3446. 4078.
3925(82) 0.0001487 3445. 3973.
3797(80) 0.0001562 3443. 3836.
3637(78) 0.0001644 3442. 3703.
3600(78) 0.0001644 3441. 3600.
3532(77) 0.0001687 3440. 3530.
3458(76) 0.0001731 3438. 3490.
3409(76) 0.0001731 3437. 3469.
3442(76) 0.0001731 3436. 3459.
3424(76) 0.0001731 3435. 3454.
3458(76) 0.0001731 3434. 3453.
3310(75) 0.0001778 3433. 3454.
3361(75) 0.0001778 3432. 3453.
3476(77) 0.0001687 3431. 3455.
3536(77) 0.0001687 3430. 3455.
3540(77) 0.0001687 3429. 3449.
3505(77) 0.0001687 3428. 3443.
3404(76) 0.0001731 3427. 3437.
3475(77) 0.0001687 3426. 3432.
3351(75) 0.0001778 3425. 3428.
3428(76) 0.0001731 3424. 3426.
3522(77) 0.0001687 3423. 3424.
3451(76) 0.0001731 3422. 3423.
3416(76) 0.0001731 3421. 3427.
3424(76) 0.0001731 3421. 3427.
3404(76) 0.0001731 3420. 3427.
3355(75) 0.0001778 3419. 3428.
3437(76) 0.0001731 3418. 3429.
3368(75) 0.0001778 3418. 3430.
3367(75) 0.0001778 3417. 3432.
3471(77) 0.0001687 3416. 3438.
3534(77) 0.0001687 3415. 3449.
3599(78) 0.0001644 3415. 3475.
3589(78) 0.0001644 3414. 3526.
3674(79) 0.0001602 3414. 3614.
3753(80) 0.0001562 3413. 3740.
3986(82) 0.0001487 3413. 3888.
4094(83) 0.0001452 3412. 4014.
4281(85) 0.0001384 3412. 4060.
4087(83) 0.0001452 3411. 4004.
3951(64) 0.0002441 3411. 3872.
3685(73) 0.0001877 3410. 3725.
3518(71) 0.0001984 3410. 3602.
3527(71) 0.0001984 3410. 3520.
3514(71) 0.0001984 3409. 3473.
3548(72) 0.0001929 3409. 3451.
3656(73) 0.0001877 3409. 3443.
3515(71) 0.0001984 3408. 3447.
3603(72) 0.0001929 3408. 3462.
3715(73) 0.0001877 3408. 3496.
3809(74) 0.0001826 3408. 3554.
3853(75) 0.0001778 3408. 3634.
3797(74) 0.0001826 3408. 3715.
3764(74) 0.0001826 3407. 3779.
3723(73) 0.0001877 3407. 3786.
3712(73) 0.0001877 3407. 3732.
3628(72) 0.0001929 3407. 3647.
3600(72) 0.0001929 3407. 3564.
3471(71) 0.0001984 3407. 3503.
3510(71) 0.0001984 3407. 3470.
3610(72) 0.0001929 3407. 3460.
3649(73) 0.0001877 3408. 3466.
3549(72) 0.0001929 3408. 3480.
3557(72) 0.0001929 3408. 3494.
3557(72) 0.0001929 3408. 3497.
3600(72) 0.0001929 3408. 3488.
3531(71) 0.0001984 3408. 3470.
3498(71) 0.0001984 3409. 3451.
3461(71) 0.0001984 3409. 3432.
3413(70) 0.0002041 3409. 3422.
3411(70) 0.0002041 3410. 3416.
3447(70) 0.0002041 3410. 3414.
3341(69) 0.0002100 3410. 3413.
3315(69) 0.0002100 3411. 3413.
3468(71) 0.0001984 3411. 3413.
3357(70) 0.0002041 3412. 3413.
3398(70) 0.0002041 3412. 3413.
3486(71) 0.0001984 3413. 3414.
3389(70) 0.0002041 3413. 3413.
3433(70) 0.0002041 3414. 3414.
3451(71) 0.0001984 3414. 3414.
3509(71) 0.0001984 3415. 3415.
3407(70) 0.0002041 3416. 3416.
3448(71) 0.0001984 3416. 3416.
3512(71) 0.0001984 3417. 3417.
3438(70) 0.0002041 3418. 3418.
3518(71) 0.0001984 3418. 3418.
3513(71) 0.0001984 3419. 3419.
3545(72) 0.0001929 3420. 3420.
3555(72) 0.0001929 3421. 3421.
3563(72) 0.0001929 3421. 3421.
3434(70) 0.0002041 3422. 3422.
3468(71) 0.0001984 3423. 3423.
3456(71) 0.0001984 3424. 3424.
3401(70) 0.0002041 3425. 3425.
3342(69) 0.0002100 3426. 3426.
3343(69) 0.0002100 3427. 3427.
3349(69) 0.0002100 3428. 3428.
3418(70) 0.0002041 3429. 3429.
3425(70) 0.0002041 3430. 3431.
3431(70) 0.0002041 3431. 3433.
3404(70) 0.0002041 3432. 3434.
3454(71) 0.0001984 3433. 3436.
3452(71) 0.0001984 3434. 3437.
3405(70) 0.0002041 3435. 3439.
3400(70) 0.0002041 3436. 3441.
3391(70) 0.0002041 3437. 3444.
3428(70) 0.0002041 3438. 3450.
3513(71) 0.0001984 3440. 3460.
3462(71) 0.0001984 3441. 3478.
3405(70) 0.0002041 3442. 3507.
3520(71) 0.0001984 3443. 3546.
3484(71) 0.0001984 3445. 3590.
3587(72) 0.0001929 3446. 3625.
3537(71) 0.0001984 3447. 3638.
3495(71) 0.0001984 3448. 3623.
3531(71) 0.0001984 3450. 3590.
3504(71) 0.0001984 3451. 3552.
3587(72) 0.0001929 3452. 3518.
3555(72) 0.0001929 3454. 3493.
3458(71) 0.0001984 3455. 3478.
3392(70) 0.0002041 3456. 3471.
3419(70) 0.0002041 3458. 3468.
3398(70) 0.0002041 3459. 3472.
3418(70) 0.0002041 3461. 3476.
3538(71) 0.0001984 3462. 3483.
3610(72) 0.0001929 3464. 3492.
3546(72) 0.0001929 3465. 3500.
3637(72) 0.0001929 3466. 3504.
3656(73) 0.0001877 3468. 3505.
3508(71) 0.0001984 3469. 3504.
3580(72) 0.0001929 3471. 3504.
3478(71) 0.0001984 3472. 3512.
3503(71) 0.0001984 3474. 3533.
3497(71) 0.0001984 3476. 3572.
3515(71) 0.0001984 3477. 3632.
3694(73) 0.0001877 3479. 3690.
3671(73) 0.0001877 3480. 3749.
3740(73) 0.0001877 3482. 3761.
3660(73) 0.0001877 3483. 3734.
3615(69) 0.0002100 3485. 3687.
3522(68) 0.0002163 3486. 3642.
3590(68) 0.0002163 3488. 3615.
3608(69) 0.0002100 3490. 3617.
3604(68) 0.0002163 3491. 3660.
3690(69) 0.0002100 3493. 3763.
3944(72) 0.0001929 3494. 3950.
4218(74) 0.0001826 3496. 4240.
4622(78) 0.0001644 3498. 4629.
4866(80) 0.0001562 3499. 5064.
5422(84) 0.0001417 3501. 5439.
5777(87) 0.0001321 3503. 5640.
5810(87) 0.0001321 3504. 5573.
5388(84) 0.0001417 3506. 5243.
4824(79) 0.0001602 3507. 4781.
4371(75) 0.0001778 3509. 4339.
4020(72) 0.0001929 3511. 4001.
3668(69) 0.0002100 3512. 3784.
3598(68) 0.0002163 3514. 3665.
3562(68) 0.0002163 3516. 3607.
3509(68) 0.0002163 3517. 3580.
3497(67) 0.0002228 3519. 3567.
3417(67) 0.0002228 3520. 3559.
3438(67) 0.0002228 3522. 3555.
3458(67) 0.0002228 3524. 3545.
3494(67) 0.0002228 3525. 3544.
3418(67) 0.0002228 3527. 3527.
3471(67) 0.0002228 3528. 3528.
3553(68) 0.0002163 3530. 3530.
3575(68) 0.0002163 3532. 3532.
3586(68) 0.0002163 3533. 3542.
3520(68) 0.0002163 3535. 3545.
3580(68) 0.0002163 3536. 3549.
3607(69) 0.0002100 3538. 3553.
3609(69) 0.0002100 3539. 3557.
3644(69) 0.0002100 3541. 3563.
3787(70) 0.0002041 3542. 3573.
3761(70) 0.0002041 3544. 3592.
3687(69) 0.0002100 3546. 3629.
3815(70) 0.0002041 3547. 3700.
3925(71) 0.0001984 3549. 3820.
3921(71) 0.0001984 3550. 3994.
4175(74) 0.0001826 3551. 4201.
4236(74) 0.0001826 3553. 4389.
4329(75) 0.0001778 3554. 4477.
4454(76) 0.0001731 3556. 4442.
4238(74) 0.0001826 3557. 4276.
4102(73) 0.0001877 3559. 4077.
4074(73) 0.0001877 3560. 3904.
3964(72) 0.0001929 3561. 3785.
3982(72) 0.0001929 3563. 3722.
4092(73) 0.0001877 3564. 3706.
4052(73) 0.0001877 3566. 3733.
4053(73) 0.0001877 3567. 3816.
4076(73) 0.0001877 3568. 3985.
4302(75) 0.0001778 3569. 4281.
4854(80) 0.0001562 3571. 4736.
5356(84) 0.0001417 3572. 5311.
5823(87) 0.0001321 3573. 5897.
6146(90) 0.0001235 3574. 6307.
6081(89) 0.0001262 3576. 6366.
5912(88) 0.0001291 3577. 6015.
5356(84) 0.0001417 3578. 5425.
4897(80) 0.0001562 3579. 4819.
4516(77) 0.0001687 3580. 4342.
3948(72) 0.0001929 3581. 4044.
3850(71) 0.0001984 3582. 3909.
3910(71) 0.0001984 3584. 3898.
3867(71) 0.0001984 3585. 3971.
3974(72) 0.0001929 3586. 4086.
3968(72) 0.0001929 3587. 4193.
3904(71) 0.0001984 3588. 4235.
3986(72) 0.0001929 3589. 4178.
3920(71) 0.0001984 3589. 4056.
3731(70) 0.0002041 3590. 3892.
3700(69) 0.0002100 3591. 3776.
3626(69) 0.0002100 3592. 3696.
3567(68) 0.0002163 3593. 3650.
3613(69) 0.0002100 3594. 3627.
3508(68) 0.0002163 3595. 3616.
3476(67) 0.0002228 3595. 3612.
3443(67) 0.0002228 3596. 3625.
3519(68) 0.0002163 3597. 3626.
3530(68) 0.0002163 3598. 3627.
3493(67) 0.0002228 3598. 3630.
3559(68) 0.0002163 3599. 3634.
3484(67) 0.0002228 3599. 3634.
3554(68) 0.0002163 3600. 3643.
3491(67) 0.0002228 3601. 3657.
3642(69) 0.0002100 3601. 3679.
3529(68) 0.0002163 3602. 3710.
3605(68) 0.0002163 3602. 3752.
3670(69) 0.0002100 3603. 3812.
3632(69) 0.0002100 3603. 3893.
3884(71) 0.0001984 3603. 4032.
4174(74) 0.0001826 3604. 4273.
4654(78) 0.0001644 3604. 4659.
5098(82) 0.0001487 3605. 5177.
5725(86) 0.0001352 3605. 5730.
6281(91) 0.0001208 3605. 6133.
6308(86) 0.0001352 3605. 6191.
5903(83) 0.0001452 3605. 5872.
5242(78) 0.0001644 3606. 5343.
4669(74) 0.0001826 3606. 4806.
4338(71) 0.0001984 3606. 4392.
4232(70) 0.0002041 3606. 4152.
4094(69) 0.0002100 3606. 4083.
4261(70) 0.0002041 3606. 4157.
4394(71) 0.0001984 3606. 4334.
4710(74) 0.0001826 3606. 4558.
4930(76) 0.0001731 3606. 4750.
4921(76) 0.0001731 3606. 4828.
4769(74) 0.0001826 3606. 4762.
4551(73) 0.0001877 3606. 4617.
4352(71) 0.0001984 3605. 4381.
4048(69) 0.0002100 3605. 4154.
3807(67) 0.0002228 3605. 3977.
3829(67) 0.0002228 3605. 3865.
3727(66) 0.0002296 3604. 3794.
3831(67) 0.0002228 3604. 3786.
3716(66) 0.0002296 3604. 3810.
3679(65) 0.0002367 3603. 3856.
3752(66) 0.0002296 3603. 3912.
3829(67) 0.0002228 3602. 3969.
3898(67) 0.0002228 3602. 4034.
4078(69) 0.0002100 3601. 4153.
4393(71) 0.0001984 3601. 4415.
4943(76) 0.0001731 3600. 4935.
5747(82) 0.0001487 3600. 5800.
6954(90) 0.0001235 3599. 6983.
8333(98) 0.0001041 3598. 8296.
9410(100) 0.0000925 3598. 9334.
9750(110) 0.0000890 3597. 9639.
9180(100) 0.0000943 3596. 9047.
7970(96) 0.0001085 3595. 7880.
6780(89) 0.0001262 3594. 6595.
5590(80) 0.0001562 3594. 5509.
4781(74) 0.0001826 3593. 4736.
4367(71) 0.0001984 3592. 4258.
3999(68) 0.0002163 3591. 3991.
3865(67) 0.0002228 3590. 3848.
3785(66) 0.0002296 3589. 3772.
3680(65) 0.0002367 3588. 3727.
3692(65) 0.0002367 3587. 3701.
3744(66) 0.0002296 3586. 3683.
3943(68) 0.0002163 3584. 3671.
4041(68) 0.0002163 3583. 3663.
4134(69) 0.0002100 3582. 3660.
4246(70) 0.0002041 3581. 3663.
4216(70) 0.0002041 3580. 3681.
4158(69) 0.0002100 3578. 3682.
3940(68) 0.0002163 3577. 3757.
3887(67) 0.0002228 3576. 3863.
4026(68) 0.0002163 3574. 3986.
4122(69) 0.0002100 3573. 4092.
4106(69) 0.0002100 3571. 4141.
4120(69) 0.0002100 3570. 4103.
3997(68) 0.0002163 3568. 4002.
3859(67) 0.0002228 3567. 3879.
3721(66) 0.0002296 3565. 3769.
3602(65) 0.0002367 3564. 3687.
3592(65) 0.0002367 3562. 3636.
3529(64) 0.0002441 3561. 3607.
3565(64) 0.0002441 3559. 3593.
3574(64) 0.0002441 3557. 3586.
3571(64) 0.0002441 3556. 3585.
3574(64) 0.0002441 3554. 3589.
3703(66) 0.0002296 3552. 3603.
3687(65) 0.0002367 3550. 3634.
3777(66) 0.0002296 3548. 3690.
3969(68) 0.0002163 3547. 3776.
4094(69) 0.0002100 3545. 3887.
4151(69) 0.0002100 3543. 3999.
4114(69) 0.0002100 3541. 4070.
4052(69) 0.0002100 3539. 4072.
3939(68) 0.0002163 3537. 3999.
3907(67) 0.0002228 3535. 3884.
3775(66) 0.0002296 3533. 3768.
3639(65) 0.0002367 3531. 3675.
3696(66) 0.0002296 3529. 3615.
3502(64) 0.0002441 3527. 3579.
3627(65) 0.0002367 3525. 3561.
3630(65) 0.0002367 3523. 3555.
3522(64) 0.0002441 3521. 3558.
3482(64) 0.0002441 3518. 3567.
3615(65) 0.0002367 3516. 3581.
3571(64) 0.0002441 3514. 3598.
3527(64) 0.0002441 3512. 3611.
3620(65) 0.0002367 3509. 3620.
3583(65) 0.0002367 3507. 3612.
3537(64) 0.0002441 3505. 3599.
3641(65) 0.0002367 3503. 3591.
3676(65) 0.0002367 3500. 3595.
3710(66) 0.0002296 3498. 3628.
3731(66) 0.0002296 3496. 3694.
3821(67) 0.0002228 3493. 3789.
3917(67) 0.0002228 3491. 3898.
4027(68) 0.0002163 3488. 3991.
4028(68) 0.0002163 3486. 4031.
3932(68) 0.0002163 3483. 4006.
3833(63) 0.0002520 3481. 3945.
3937(64) 0.0002441 3478. 3900.
3949(64) 0.0002441 3476. 3912.
4070(65) 0.0002367 3473. 3998.
4195(66) 0.0002296 3471. 4138.
4326(67) 0.0002228 3468. 4276.
4476(68) 0.0002163 3466. 4338.
4316(67) 0.0002228 3463. 4278.
4155(66) 0.0002296 3461. 4120.
3919(64) 0.0002441 3458. 3930.
3804(63) 0.0002520 3455. 3759.
3607(61) 0.0002687 3453. 3634.
3599(61) 0.0002687 3450. 3560.
3562(61) 0.0002687 3447. 3525.
3404(59) 0.0002873 3445. 3520.
3456(60) 0.0002778 3442. 3539.
3557(61) 0.0002687 3439. 3562.
3630(61) 0.0002687 3437. 3590.
3666(62) 0.0002601 3434. 3609.
3618(61) 0.0002687 3431. 3611.
3534(60) 0.0002778 3428. 3596.
3558(61) 0.0002687 3426. 3568.
3435(60) 0.0002778 3423. 3537.
3493(60) 0.0002778 3420. 3511.
3376(59) 0.0002873 3417. 3493.
3470(60) 0.0002778 3414. 3480.
3553(61) 0.0002687 3412. 3482.
3630(61) 0.0002687 3409. 3500.
3652(61) 0.0002687 3406. 3542.
3689(62) 0.0002601 3403. 3621.
3769(62) 0.0002601 3400. 3750.
4051(65) 0.0002367 3398. 3927.
4323(67) 0.0002228 3395. 4126.
4405(67) 0.0002228 3392. 4292.
4501(68) 0.0002163 3389. 4357.
4364(67) 0.0002228 3386. 4285.
4218(66) 0.0002296 3383. 4111.
3922(64) 0.0002441 3380. 3904.
3736(62) 0.0002601 3378. 3721.
3641(61) 0.0002687 3375. 3590.
3536(60) 0.0002778 3372. 3514.
3458(60) 0.0002778 3369. 3486.
3494(60) 0.0002778 3366. 3495.
3516(60) 0.0002778 3363. 3527.
3589(61) 0.0002687 3360. 3570.
3683(62) 0.0002601 3357. 3610.
3620(61) 0.0002687 3355. 3618.
3630(61) 0.0002687 3352. 3593.
3570(61) 0.0002687 3349. 3545.
3463(60) 0.0002778 3346. 3493.
3500(60) 0.0002778 3343. 3451.
3359(59) 0.0002873 3340. 3427.
3387(59) 0.0002873 3337. 3422.
3350(59) 0.0002873 3334. 3431.
3349(59) 0.0002873 3331. 3465.
3399(59) 0.0002873 3329. 3514.
3492(60) 0.0002778 3326. 3574.
3544(61) 0.0002687 3323. 3639.
3613(61) 0.0002687 3320. 3731.
3671(62) 0.0002601 3317. 3832.
4033(65) 0.0002367 3314. 3979.
4135(65) 0.0002367 3311. 4171.
4454(68) 0.0002163 3309. 4375.
4607(69) 0.0002100 3306. 4523.
4640(69) 0.0002100 3303. 4551.
4370(67) 0.0002228 3300. 4450.
4164(66) 0.0002296 3297. 4267.
3970(64) 0.0002441 3294. 4068.
3800(63) 0.0002520 3291. 3911.
3668(62) 0.0002601 3289. 3826.
3628(61) 0.0002687 3286. 3830.
3872(63) 0.0002520 3283. 3939.
4147(65) 0.0002367 3280. 4176.
4554(69) 0.0002100 3277. 4557.
5127(73) 0.0001877 3275. 5061.
5457(75) 0.0001778 3272. 5601.
5901(78) 0.0001644 3269. 6016.
6233(80) 0.0001562 3266. 6129.
5901(78) 0.0001644 3264. 5868.
5327(74) 0.0001826 3261. 5347.
4846(71) 0.0001984 3258. 4753.
4290(67) 0.0002228 3255. 4227.
3892(63) 0.0002520 3253. 3830.
3593(61) 0.0002687 3250. 3580.
3377(59) 0.0002873 3247. 3436.
3381(59) 0.0002873 3245. 3363.
3242(58) 0.0002973 3242. 3324.
3261(58) 0.0002973 3239. 3302.
3303(59) 0.0002873 3237. 3288.
3244(58) 0.0002973 3234. 3278.
3278(58) 0.0002973 3231. 3270.
3222(58) 0.0002973 3229. 3262.
3167(57) 0.0003078 3226. 3256.
3194(58) 0.0002973 3224. 3251.
3183(57) 0.0003078 3221. 3247.
3122(57) 0.0003078 3219. 3223.
3207(58) 0.0002973 3216. 3222.
3235(58) 0.0002973 3213. 3223.
3084(57) 0.0003078 3211. 3227.
3177(57) 0.0003078 3208. 3235.
3241(57) 0.0003078 3206. 3248.
3224(57) 0.0003078 3203. 3266.
3299(57) 0.0003078 3201. 3284.
3368(58) 0.0002973 3199. 3298.
3411(58) 0.0002973 3196. 3302.
3314(57) 0.0003078 3194. 3296.
3328(57) 0.0003078 3191. 3287.
3323(57) 0.0003078 3189. 3284.
3164(56) 0.0003189 3186. 3293.
3290(57) 0.0003078 3184. 3311.
3277(57) 0.0003078 3182. 3334.
3360(58) 0.0002973 3179. 3352.
3255(57) 0.0003078 3177. 3355.
3323(57) 0.0003078 3175. 3343.
3175(56) 0.0003189 3173. 3322.
3268(57) 0.0003078 3170. 3297.
3200(56) 0.0003189 3168. 3268.
3203(56) 0.0003189 3166. 3239.
3150(56) 0.0003189 3164. 3215.
3162(56) 0.0003189 3161. 3196.
3201(56) 0.0003189 3159. 3182.
3188(56) 0.0003189 3157. 3172.
3224(57) 0.0003078 3155. 3166.
3126(56) 0.0003189 3153. 3162.
3091(55) 0.0003306 3151. 3159.
3108(56) 0.0003189 3149. 3158.
3113(56) 0.0003189 3146. 3159.
3092(55) 0.0003306 3144. 3163.
3097(55) 0.0003306 3142. 3173.
3174(56) 0.0003189 3140. 3191.
3235(57) 0.0003078 3138. 3217.
3272(57) 0.0003078 3136. 3250.
3312(57) 0.0003078 3134. 3284.
3369(58) 0.0002973 3132. 3307.
3288(57) 0.0003078 3130. 3311.
3307(57) 0.0003078 3129. 3293.
3241(57) 0.0003078 3127. 3259.
3214(56) 0.0003189 3125. 3221.
3103(55) 0.0003306 3123. 3187.
3150(56) 0.0003189 3121. 3163.
3094(55) 0.0003306 3119. 3147.
3138(56) 0.0003189 3117. 3140.
3144(56) 0.0003189 3116. 3137.
3035(55) 0.0003306 3114. 3137.
3118(56) 0.0003189 3112. 3141.
3109(56) 0.0003189 3110. 3147.
3162(56) 0.0003189 3109. 3155.
3123(56) 0.0003189 3107. 3164.
3125(56) 0.0003189 3105. 3170.
3149(56) 0.0003189 3104. 3173.
3154(56) 0.0003189 3102. 3166.
3147(56) 0.0003189 3100. 3156.
3139(56) 0.0003189 3099. 3146.
3129(56) 0.0003189 3097. 3141.
3151(56) 0.0003189 3096. 3145.
3119(56) 0.0003189 3094. 3161.
3186(56) 0.0003189 3093. 3189.
3275(57) 0.0003078 3091. 3227.
3346(58) 0.0002973 3090. 3269.
3321(57) 0.0003078 3088. 3306.
3264(57) 0.0003078 3087. 3329.
3392(58) 0.0002973 3085. 3342.
3347(58) 0.0002973 3084. 3360.
3370(58) 0.0002973 3082. 3403.
3545(59) 0.0002873 3081. 3479.
3588(60) 0.0002778 3080. 3582.
3768(61) 0.0002687 3078. 3685.
3717(61) 0.0002687 3077. 3751.
3825(61) 0.0002687 3076. 3756.
3721(61) 0.0002687 3074. 3704.
3615(60) 0.0002778 3073. 3615.
3485(59) 0.0002873 3072. 3510.
3385(58) 0.0002973 3071. 3405.
3345(58) 0.0002973 3069. 3313.
3262(57) 0.0003078 3068. 3242.
3279(57) 0.0003078 3067. 3193.
3226(57) 0.0003078 3066. 3162.
3105(55) 0.0003306 3065. 3145.
3177(56) 0.0003189 3064. 3134.
3094(55) 0.0003306 3062. 3127.
3122(56) 0.0003189 3061. 3122.
3094(55) 0.0003306 3060. 3123.
3125(56) 0.0003189 3059. 3135.
3080(55) 0.0003306 3058. 3160.
3165(56) 0.0003189 3057. 3200.
3307(57) 0.0003078 3056. 3249.
3271(57) 0.0003078 3055. 3288.
3342(58) 0.0002973 3054. 3311.
3225(57) 0.0003078 3053. 3302.
3282(57) 0.0003078 3052. 3263.
3307(57) 0.0003078 3051. 3212.
3166(56) 0.0003189 3051. 3163.
3130(56) 0.0003189 3050. 3122.
3079(55) 0.0003306 3049. 3095.
3120(56) 0.0003189 3048. 3080.
3028(55) 0.0003306 3047. 3073.
2995(55) 0.0003306 3046. 3076.
3070(55) 0.0003306 3046. 3085.
3149(56) 0.0003189 3045. 3107.
3266(57) 0.0003078 3044. 3142.
3288(55) 0.0003306 3043. 3191.
3276(55) 0.0003306 3042. 3249.
3284(55) 0.0003306 3042. 3305.
3443(56) 0.0003189 3041. 3341.
3427(56) 0.0003189 3040. 3343.
3360(55) 0.0003306 3040. 3310.
3261(55) 0.0003306 3039. 3255.
3195(54) 0.0003429 3038. 3199.
3332(55) 0.0003306 3038. 3154.
3190(54) 0.0003429 3037. 3128.
3174(54) 0.0003429 3037. 3123.
3169(54) 0.0003429 3036. 3137.
3264(55) 0.0003306 3035. 3164.
3262(55) 0.0003306 3035. 3196.
3264(55) 0.0003306 3034. 3221.
3295(55) 0.0003306 3034. 3228.
3237(54) 0.0003429 3033. 3215.
3276(55) 0.0003306 3033. 3187.
3169(54) 0.0003429 3032. 3152.
3115(53) 0.000356 3032. 3119.
3160(54) 0.0003429 3031. 3094.
3171(54) 0.0003429 3031. 3077.
3084(53) 0.000356 3031. 3066.
3131(54) 0.0003429 3030. 3064.
3119(53) 0.000356 3030. 3078.
3132(54) 0.0003429 3029. 3085.
3100(53) 0.000356 3029. 3096.
3131(54) 0.0003429 3029. 3116.
3100(53) 0.000356 3028. 3147.
3238(54) 0.0003429 3028. 3190.
3209(54) 0.0003429 3028. 3239.
3315(55) 0.0003306 3027. 3285.
3346(55) 0.0003306 3027. 3313.
3316(55) 0.0003306 3027. 3315.
3279(55) 0.0003306 3026. 3298.
3292(55) 0.0003306 3026. 3284.
3303(55) 0.0003306 3026. 3300.
3414(56) 0.0003189 3026. 3371.
3560(57) 0.0003078 3025. 3516.
3720(58) 0.0002973 3025. 3741.
4093(61) 0.0002687 3025. 4025.
4381(63) 0.0002520 3025. 4316.
4578(65) 0.0002367 3025. 4539.
4631(65) 0.0002367 3024. 4614.
4629(65) 0.0002367 3024. 4508.
4440(64) 0.0002441 3024. 4264.
4148(62) 0.0002601 3024. 3964.
3820(59) 0.0002873 3024. 3677.
3524(57) 0.0003078 3024. 3446.
3380(56) 0.0003189 3024. 3284.
3305(55) 0.0003306 3024. 3185.
3329(55) 0.0003306 3023. 3131.
3195(54) 0.0003429 3023. 3112.
3113(53) 0.000356 3023. 3114.
3079(53) 0.000356 3023. 3133.
3224(54) 0.0003429 3023. 3164.
3272(55) 0.0003306 3023. 3203.
3229(54) 0.0003429 3023. 3240.
3250(55) 0.0003306 3023. 3264.
3205(54) 0.0003429 3023. 3270.
3156(54) 0.0003429 3023. 3258.
3216(54) 0.0003429 3023. 3218.
3171(54) 0.0003429 3023. 3189.
3226(54) 0.0003429 3023. 3165.
3129(54) 0.0003429 3023. 3147.
3089(53) 0.000356 3023. 3135.
3122(54) 0.0003429 3023. 3127.
3083(53) 0.000356 3023. 3120.
3125(54) 0.0003429 3023. 3115.
3143(54) 0.0003429 3023. 3115.
3055(53) 0.000356 3023. 3122.
3181(54) 0.0003429 3023. 3140.
3182(54) 0.0003429 3023. 3172.
3192(54) 0.0003429 3023. 3216.
3217(54) 0.0003429 3024. 3268.
3253(55) 0.0003306 3024. 3319.
3382(56) 0.0003189 3024. 3361.
3386(56) 0.0003189 3024. 3384.
3278(55) 0.0003306 3024. 3383.
3337(55) 0.0003306 3024. 3352.
3313(55) 0.0003306 3024. 3299.
3239(55) 0.0003306 3024. 3236.
3157(54) 0.0003429 3024. 3176.
3162(54) 0.0003429 3025. 3127.
2994(52) 0.000370 3025. 3091.
3058(53) 0.000356 3025. 3067.
3111(53) 0.000356 3025. 3052.
3005(53) 0.000356 3025. 3043.
2969(52) 0.000370 3025. 3038.
3008(53) 0.000356 3025. 3035.
2968(52) 0.000370 3026. 3033.
2946(52) 0.000370 3026. 3034.
3001(52) 0.000370 3026. 3033.
2982(52) 0.000370 3026. 3032.
2979(52) 0.000370 3026. 3032.
2997(52) 0.000370 3026. 3032.
3042(53) 0.000356 3027. 3032.
2975(52) 0.000370 3027. 3031.
2945(52) 0.000370 3027. 3031.
3055(53) 0.000356 3027. 3033.
3059(73) 0.0001877 3027. 3035.
2952(50) 0.000400 3028. 3041.
2970(50) 0.000400 3028. 3048.
2997(50) 0.000400 3028. 3062.
3011(50) 0.000400 3028. 3081.
3047(51) 0.000384 3028. 3110.
3132(51) 0.000384 3029. 3147.
3149(51) 0.000384 3029. 3189.
3194(52) 0.000370 3029. 3232.
3255(52) 0.000370 3029. 3260.
3235(52) 0.000370 3030. 3266.
3248(52) 0.000370 3030. 3252.
3218(52) 0.000370 3030. 3229.
3164(51) 0.000384 3030. 3209.
3231(52) 0.000370 3030. 3209.
3246(52) 0.000370 3031. 3239.
3271(52) 0.000370 3031. 3306.
3390(53) 0.000356 3031. 3408.
3476(54) 0.0003429 3031. 3531.
3579(55) 0.0003306 3032. 3661.
3712(56) 0.0003189 3032. 3757.
3824(56) 0.0003189 3032. 3804.
3749(56) 0.0003189 3032. 3802.
3653(55) 0.0003306 3033. 3768.
3661(55) 0.0003306 3033. 3726.
3668(55) 0.0003306 3033. 3693.
3665(55) 0.0003306 3033. 3667.
3600(55) 0.0003306 3033. 3640.
3517(54) 0.0003429 3034. 3599.
3426(54) 0.0003429 3034. 3552.
3408(53) 0.000356 3034. 3507.
3440(54) 0.0003429 3034. 3480.
3398(53) 0.000356 3035. 3486.
3546(54) 0.0003429 3035. 3535.
3582(55) 0.0003306 3035. 3627.
3751(56) 0.0003189 3035. 3742.
3917(57) 0.0003078 3036. 3844.
3949(57) 0.0003078 3036. 3895.
3933(57) 0.0003078 3036. 3857.
3731(56) 0.0003189 3036. 3742.
3662(55) 0.0003306 3036. 3589.
3491(54) 0.0003429 3037. 3436.
3265(52) 0.000370 3037. 3306.
3248(52) 0.000370 3037. 3211.
3174(52) 0.000370 3037. 3150.
3209(52) 0.000370 3037. 3112.
3212(52) 0.000370 3038. 3097.
3144(51) 0.000384 3038. 3097.
3168(51) 0.000384 3038. 3110.
3166(51) 0.000384 3038. 3136.
3191(52) 0.000370 3039. 3183.
3255(52) 0.000370 3039. 3250.
3372(53) 0.000356 3039. 3336.
3426(54) 0.0003429 3039. 3435.
3548(54) 0.0003429 3039. 3529.
3625(55) 0.0003306 3039. 3598.
3557(54) 0.0003429 3040. 3614.
3555(54) 0.0003429 3040. 3580.
3463(54) 0.0003429 3040. 3502.
3382(53) 0.000356 3040. 3402.
3300(53) 0.000356 3040. 3303.
3226(52) 0.000370 3041. 3219.
3138(51) 0.000384 3041. 3156.
3120(51) 0.000384 3041. 3115.
3099(51) 0.000384 3041. 3092.
3058(51) 0.000384 3041. 3084.
3053(51) 0.000384 3041. 3085.
3163(51) 0.000384 3041. 3094.
3101(51) 0.000384 3042. 3109.
3138(51) 0.000384 3042. 3127.
3159(51) 0.000384 3042. 3142.
3227(52) 0.000370 3042. 3151.
3202(52) 0.000370 3042. 3149.
3129(51) 0.000384 3042. 3138.
3114(51) 0.000384 3042. 3115.
3018(50) 0.000400 3043. 3097.
2973(50) 0.000400 3043. 3080.
3009(50) 0.000400 3043. 3067.
3088(51) 0.000384 3043. 3058.
2996(50) 0.000400 3043. 3052.
2969(50) 0.000400 3043. 3058.
2995(50) 0.000400 3043. 3057.
3036(50) 0.000400 3043. 3058.
3032(50) 0.000400 3043. 3059.
3045(51) 0.000384 3043. 3060.
2971(50) 0.000400 3043. 3062.
3004(50) 0.000400 3044. 3065.
2995(50) 0.000400 3044. 3069.
3100(51) 0.000384 3044. 3077.
3187(52) 0.000370 3044. 3091.
3204(52) 0.000370 3044. 3116.
3180(52) 0.000370 3044. 3161.
3271(52) 0.000370 3044. 3234.
3308(53) 0.000356 3044. 3348.
3436(54) 0.0003429 3044. 3497.
3626(55) 0.0003306 3044. 3676.
3856(57) 0.0003078 3044. 3863.
4070(58) 0.0002973 3044. 4022.
4180(59) 0.0002873 3044. 4113.
4115(59) 0.0002873 3044. 4105.
4018(58) 0.0002973 3044. 4006.
3963(58) 0.0002973 3044. 3851.
3748(56) 0.0003189 3044. 3681.
3605(55) 0.0003306 3044. 3531.
3405(53) 0.000356 3044. 3420.
3277(52) 0.000370 3044. 3358.
3303(53) 0.000356 3044. 3346.
3490(54) 0.0003429 3044. 3379.
3512(54) 0.0003429 3044. 3447.
3481(54) 0.0003429 3044. 3536.
3581(55) 0.0003306 3044. 3630.
3727(56) 0.0003189 3043. 3694.
3703(56) 0.0003189 3043. 3709.
3615(55) 0.0003306 3043. 3667.
3519(54) 0.0003429 3043. 3579.
3446(54) 0.0003429 3043. 3472.
3268(52) 0.000370 3043. 3370.
3194(52) 0.000370 3043. 3280.
3242(52) 0.000370 3043. 3227.
3272(52) 0.000370 3043. 3202.
3168(52) 0.000370 3043. 3199.
3154(51) 0.000384 3042. 3213.
3199(52) 0.000370 3042. 3241.
3309(53) 0.000356 3042. 3283.
3352(53) 0.000356 3042. 3343.
3432(54) 0.0003429 3042. 3422.
3573(55) 0.0003306 3042. 3518.
3643(55) 0.0003306 3042. 3618.
3673(55) 0.0003306 3041. 3704.
3777(56) 0.0003189 3041. 3755.
3794(56) 0.0003189 3041. 3758.
3761(56) 0.0003189 3041. 3719.
3758(56) 0.0003189 3041. 3643.
3644(55) 0.0003306 3040. 3544.
3508(54) 0.0003429 3040. 3436.
3419(54) 0.0003429 3040. 3336.
3330(53) 0.000356 3040. 3252.
3299(53) 0.000356 3040. 3189.
3287(53) 0.000356 3039. 3146.
3257(52) 0.000370 3039. 3122.
3143(51) 0.000384 3039. 3116.
3139(51) 0.000384 3039. 3128.
3157(52) 0.000370 3038. 3159.
3178(52) 0.000370 3038. 3216.
3292(53) 0.000356 3038. 3292.
3346(53) 0.000356 3038. 3389.
3430(54) 0.0003429 3037. 3489.
3499(54) 0.0003429 3037. 3572.
3566(55) 0.0003306 3037. 3628.
3556(55) 0.0003306 3036. 3632.
3488(54) 0.0003429 3036. 3583.
3424(54) 0.0003429 3036. 3503.
3389(53) 0.000356 3035. 3412.
3312(53) 0.000356 3035. 3332.
3267(52) 0.000370 3035. 3275.
3211(52) 0.000370 3034. 3256.
3238(52) 0.000370 3034. 3271.
3292(53) 0.000356 3034. 3324.
3405(53) 0.000356 3033. 3412.
3435(54) 0.0003429 3033. 3528.
3594(55) 0.0003306 3033. 3657.
3713(56) 0.0003189 3032. 3775.
3824(57) 0.0003078 3032. 3855.
3874(57) 0.0003078 3031. 3883.
4034(58) 0.0002973 3031. 3844.
3877(57) 0.0003078 3031. 3761.
3799(56) 0.0003189 3030. 3664.
3733(56) 0.0003189 3030. 3578.
3715(56) 0.0003189 3029. 3538.
3652(55) 0.0003306 3029. 3542.
3597(55) 0.0003306 3029. 3584.
3656(55) 0.0003306 3028. 3645.
3599(55) 0.0003306 3028. 3699.
3595(55) 0.0003306 3027. 3724.
3622(55) 0.0003306 3027. 3713.
3611(55) 0.0003306 3026. 3675.
3561(55) 0.0003306 3026. 3634.
3600(55) 0.0003306 3025. 3610.
3642(55) 0.0003306 3025. 3618.
3662(55) 0.0003306 3024. 3654.
3718(56) 0.0003189 3024. 3699.
3853(57) 0.0003078 3023. 3739.
3786(56) 0.0003189 3023. 3745.
3786(56) 0.0003189 3022. 3715.
3807(56) 0.0003189 3022. 3654.
3753(56) 0.0003189 3021. 3578.
3608(55) 0.0003306 3021. 3498.
3573(55) 0.0003306 3020. 3424.
3554(55) 0.0003306 3020. 3358.
3421(54) 0.0003429 3019. 3300.
3376(53) 0.000356 3019. 3252.
3283(53) 0.000356 3018. 3220.
3230(52) 0.000370 3018. 3200.
3215(52) 0.000370 3017. 3199.
3124(51) 0.000384 3017. 3208.
3232(52) 0.000370 3016. 3221.
3242(52) 0.000370 3015. 3230.
3240(52) 0.000370 3015. 3228.
3152(51) 0.000384 3014. 3211.
3171(52) 0.000370 3014. 3184.
3151(42) 0.000567 3013. 3148.
3127(51) 0.000384 3013. 3121.
3107(51) 0.000384 3012. 3101.
3061(50) 0.000400 3011. 3090.
3095(51) 0.000384 3011. 3087.
3156(51) 0.000384 3010. 3089.
3129(51) 0.000384 3010. 3095.
3008(50) 0.000400 3009. 3101.
3150(51) 0.000384 3008. 3108.
3207(51) 0.000384 3008. 3112.
3185(51) 0.000384 3007. 3114.
3222(52) 0.000370 3006. 3111.
3188(51) 0.000384 3006. 3104.
3204(51) 0.000384 3005. 3091.
3189(51) 0.000384 3004. 3076.
3131(51) 0.000384 3004. 3058.
3038(50) 0.000400 3003. 3044.
3023(50) 0.000400 3003. 3032.
2986(50) 0.000400 3002. 3024.
2913(49) 0.000416 3001. 3027.
2947(49) 0.000416 3001. 3025.
3008(50) 0.000400 3000. 3027.
2989(50) 0.000400 2999. 3032.
3039(50) 0.000400 2998. 3042.
2996(50) 0.000400 2998. 3058.
3052(50) 0.000400 2997. 3082.
2973(50) 0.000400 2996. 3115.
3135(51) 0.000384 2996. 3158.
3134(51) 0.000384 2995. 3211.
3207(51) 0.000384 2994. 3272.
3340(53) 0.000356 2994. 3338.
3437(53) 0.000356 2993. 3411.
3511(54) 0.0003429 2992. 3492.
3596(54) 0.0003429 2991. 3586.
3761(56) 0.0003189 2991. 3693.
3883(57) 0.0003078 2990. 3806.
3900(57) 0.0003078 2989. 3906.
3983(57) 0.0003078 2989. 3966.
3991(57) 0.0003078 2988. 3963.
3852(56) 0.0003189 2987. 3888.
3820(56) 0.0003189 2986. 3761.
3578(54) 0.0003429 2986. 3612.
3455(53) 0.000356 2985. 3466.
3306(52) 0.000370 2984. 3345.
3237(52) 0.000370 2983. 3259.
3198(51) 0.000384 2983. 3209.
3172(51) 0.000384 2982. 3193.
3198(51) 0.000384 2981. 3203.
3184(51) 0.000384 2980. 3233.
3197(51) 0.000384 2980. 3277.
3289(52) 0.000370 2979. 3327.
3327(52) 0.000370 2978. 3376.
3360(53) 0.000356 2977. 3413.
3468(54) 0.0003429 2977. 3432.
3361(53) 0.000356 2976. 3431.
3349(53) 0.000356 2975. 3406.
3319(52) 0.000370 2974. 3356.
3273(52) 0.000370 2974. 3305.
3142(51) 0.000384 2973. 3251.
3236(52) 0.000370 2972. 3199.
3170(51) 0.000384 2971. 3154.
3148(51) 0.000384 2971. 3116.
3084(51) 0.000384 2970. 3088.
3020(50) 0.000400 2969. 3066.
3077(50) 0.000400 2968. 3052.
3035(50) 0.000400 2967. 3046.
3050(50) 0.000400 2967. 3048.
3074(50) 0.000400 2966. 3060.
3046(50) 0.000400 2965. 3083.
3132(51) 0.000384 2964. 3121.
3141(51) 0.000384 2964. 3176.
3198(51) 0.000384 2963. 3254.
3320(52) 0.000370 2962. 3355.
3471(54) 0.0003429 2961. 3478.
3514(54) 0.0003429 2960. 3609.
3774(56) 0.0003189 2960. 3733.
3803(56) 0.0003189 2959. 3831.
3764(56) 0.0003189 2958. 3882.
3843(56) 0.0003189 2957. 3878.
3838(56) 0.0003189 2956. 3827.
3718(55) 0.0003306 2956. 3749.
3577(54) 0.0003429 2955. 3665.
3512(54) 0.0003429 2954. 3586.
3498(54) 0.0003429 2953. 3518.
3413(53) 0.000356 2952. 3462.
3447(53) 0.000356 2952. 3412.
3257(52) 0.000370 2951. 3362.
3185(51) 0.000384 2950. 3314.
3233(52) 0.000370 2949. 3275.
3193(51) 0.000384 2948. 3251.
3164(51) 0.000384 2947. 3249.
3232(52) 0.000370 2947. 3269.
3311(52) 0.000370 2946. 3309.
3286(52) 0.000370 2945. 3360.
3407(53) 0.000356 2944. 3409.
3399(53) 0.000356 2943. 3444.
3450(53) 0.000356 2943. 3455.
3476(54) 0.0003429 2942. 3439.
3414(53) 0.000356 2941. 3405.
3303(52) 0.000370 2940. 3359.
3313(72) 0.0001929 2939. 3310.
3286(50) 0.000400 2939. 3274.
3195(50) 0.000400 2938. 3248.
3210(50) 0.000400 2937. 3233.
3176(50) 0.000400 2936. 3215.
3133(49) 0.000416 2935. 3192.
3155(49) 0.000416 2934. 3165.
3067(49) 0.000416 2934. 3132.
3102(49) 0.000416 2933. 3095.
2997(48) 0.000434 2932. 3065.
3014(48) 0.000434 2931. 3041.
3063(49) 0.000416 2930. 3027.
3106(49) 0.000416 2929. 3026.
3003(48) 0.000434 2929. 3037.
3027(48) 0.000434 2928. 3062.
3144(49) 0.000416 2927. 3104.
3276(50) 0.000400 2926. 3161.
3376(51) 0.000384 2925. 3234.
3480(52) 0.000370 2925. 3321.
3525(52) 0.000370 2924. 3418.
3706(54) 0.0003429 2923. 3523.
3717(54) 0.0003429 2922. 3630.
3841(54) 0.0003429 2921. 3734.
3922(55) 0.0003306 2920. 3829.
3854(55) 0.0003306 2919. 3907.
3993(56) 0.0003189 2919. 3955.
4022(56) 0.0003189 2918. 3963.
3927(55) 0.0003306 2917. 3926.
3801(54) 0.0003429 2916. 3853.
3765(54) 0.0003429 2915. 3756.
3606(53) 0.000356 2914. 3648.
3524(52) 0.000370 2914. 3545.
3461(52) 0.000370 2913. 3455.
3316(51) 0.000384 2912. 3382.
3228(50) 0.000400 2911. 3324.
3250(50) 0.000400 2910. 3274.
3221(50) 0.000400 2909. 3225.
3196(50) 0.000400 2908. 3175.
3186(50) 0.000400 2908. 3125.
3151(49) 0.000416 2907. 3078.
3050(49) 0.000416 2906. 3035.
3036(48) 0.000434 2905. 3000.
2974(48) 0.000434 2904. 2972.
2911(47) 0.000453 2903. 2952.
2800(47) 0.000453 2902. 2936.
2889(47) 0.000453 2902. 2927.
2821(47) 0.000453 2901. 2926.
2944(48) 0.000434 2900. 2922.
2895(47) 0.000453 2899. 2920.
2926(48) 0.000434 2898. 2914.
2877(47) 0.000453 2897. 2914.
2855(47) 0.000453 2896. 2914.
2867(47) 0.000453 2895. 2913.
2897(47) 0.000453 2895. 2915.
2841(47) 0.000453 2894. 2923.
2873(47) 0.000453 2893. 2927.
2893(47) 0.000453 2892. 2932.
2897(47) 0.000453 2891. 2939.
2917(48) 0.000434 2890. 2949.
2863(47) 0.000453 2889. 2966.
3007(48) 0.000434 2888. 2993.
3065(49) 0.000416 2887. 3034.
3067(49) 0.000416 2886. 3093.
3159(49) 0.000416 2886. 3170.
3284(50) 0.000400 2885. 3266.
3424(51) 0.000384 2884. 3376.
3495(52) 0.000370 2883. 3488.
3718(54) 0.0003429 2882. 3592.
3865(55) 0.0003306 2881. 3672.
3882(55) 0.0003306 2880. 3719.
3897(55) 0.0003306 2879. 3754.
3869(55) 0.0003306 2878. 3743.
3874(55) 0.0003306 2877. 3723.
3719(54) 0.0003429 2876. 3706.
3641(53) 0.000356 2875. 3698.
3710(54) 0.0003429 2874. 3699.
3757(54) 0.0003429 2873. 3699.
3684(53) 0.000356 2873. 3687.
3717(54) 0.0003429 2872. 3655.
3658(53) 0.000356 2871. 3601.
3585(53) 0.000356 2870. 3536.
3561(52) 0.000370 2869. 3469.
3519(52) 0.000370 2868. 3417.
3496(52) 0.000370 2867. 3394.
3441(52) 0.000370 2866. 3417.
3622(53) 0.000356 2865. 3503.
3697(53) 0.000356 2864. 3666.
3967(55) 0.0003306 2863. 3913.
4245(57) 0.0003078 2862. 4240.
4557(59) 0.0002873 2861. 4627.
5045(62) 0.0002601 2860. 5038.
5331(64) 0.0002441 2859. 5418.
5593(66) 0.0002296 2858. 5703.
5749(67) 0.0002228 2857. 5842.
5702(66) 0.0002296 2856. 5794.
5462(65) 0.0002367 2855. 5570.
5087(63) 0.0002520 2854. 5219.
4673(60) 0.0002778 2853. 4804.
4375(58) 0.0002973 2851. 4382.
4059(56) 0.0003189 2850. 4002.
3759(54) 0.0003429 2849. 3676.
3418(51) 0.000384 2848. 3428.
3324(51) 0.000384 2847. 3252.
3205(50) 0.000400 2846. 3133.
3151(49) 0.000416 2845. 3059.
3064(49) 0.000416 2844. 3014.
3065(49) 0.000416 2843. 2989.
3068(49) 0.000416 2842. 2978.
3001(48) 0.000434 2841. 2975.
2973(48) 0.000434 2840. 2980.
2956(48) 0.000434 2839. 2994.
2922(47) 0.000453 2837. 3016.
3013(48) 0.000434 2836. 3047.
3126(49) 0.000416 2835. 3087.
3159(49) 0.000416 2834. 3134.
3188(50) 0.000400 2833. 3188.
3196(50) 0.000400 2832. 3221.
3315(51) 0.000384 2831. 3283.
3327(51) 0.000384 2830. 3347.
3302(51) 0.000384 2828. 3412.
3583(53) 0.000356 2827. 3473.
3528(52) 0.000370 2826. 3524.
3521(52) 0.000370 2825. 3552.
3549(52) 0.000370 2824. 3551.
3468(52) 0.000370 2822. 3518.
3424(51) 0.000384 2821. 3456.
3308(51) 0.000384 2820. 3375.
3213(50) 0.000400 2819. 3283.
3129(49) 0.000416 2818. 3189.
3005(48) 0.000434 2816. 3103.
3016(48) 0.000434 2815. 3029.
2972(48) 0.000434 2814. 2969.
2962(48) 0.000434 2813. 2926.
2858(47) 0.000453 2812. 2893.
2824(47) 0.000453 2810. 2871.
2785(46) 0.000473 2809. 2856.
2824(47) 0.000453 2808. 2847.
2885(47) 0.000453 2807. 2842.
2819(47) 0.000453 2805. 2839.
2849(47) 0.000453 2804. 2837.
2875(47) 0.000453 2803. 2837.
2880(47) 0.000453 2801. 2839.
2887(47) 0.000453 2800. 2842.
2978(48) 0.000434 2799. 2847.
3036(48) 0.000434 2797. 2854.
2997(48) 0.000434 2796. 2861.
3111(49) 0.000416 2795. 2876.
2985(48) 0.000434 2794. 2898.
3037(48) 0.000434 2792. 2925.
2998(48) 0.000434 2791. 2959.
3068(49) 0.000416 2790. 2999.
3078(49) 0.000416 2788. 3044.
3073(49) 0.000416 2787. 3084.
3161(49) 0.000416 2785. 3115.
3082(49) 0.000416 2784. 3132.
3142(49) 0.000416 2783. 3131.
3116(49) 0.000416 2781. 3110.
2985(48) 0.000434 2780. 3080.
3009(48) 0.000434 2779. 3036.
2991(48) 0.000434 2777. 2989.
2958(48) 0.000434 2776. 2946.
2864(47) 0.000453 2774. 2909.
2943(48) 0.000434 2773. 2882.
2828(47) 0.000453 2772. 2865.
2880(47) 0.000453 2770. 2859.
2857(47) 0.000453 2769. 2865.
2878(47) 0.000453 2767. 2882.
2804(47) 0.000453 2766. 2910.
2919(47) 0.000453 2764. 2949.
3059(49) 0.000416 2763. 2998.
3053(49) 0.000416 2761. 3055.
3131(49) 0.000416 2760. 3119.
3156(49) 0.000416 2758. 3187.
3317(51) 0.000384 2757. 3254.
3214(50) 0.000400 2756. 3317.
3357(51) 0.000384 2754. 3376.
3437(52) 0.000370 2753. 3428.
3465(52) 0.000370 2751. 3472.
3493(52) 0.000370 2750. 3503.
3476(52) 0.000370 2748. 3519.
3416(51) 0.000384 2747. 3512.
3326(51) 0.000384 2745. 3476.
3414(51) 0.000384 2744. 3414.
3307(51) 0.000384 2742. 3335.
3201(50) 0.000400 2741. 3249.
3105(49) 0.000416 2739. 3166.
3051(49) 0.000416 2737. 3093.
3044(48) 0.000434 2736. 3032.
2955(48) 0.000434 2734. 2986.
2969(48) 0.000434 2733. 2952.
2928(48) 0.000434 2731. 2931.
2984(48) 0.000434 2730. 2924.
2911(47) 0.000453 2728. 2924.
2911(47) 0.000453 2727. 2932.
2902(47) 0.000453 2725. 2947.
3045(48) 0.000434 2724. 2965.
2958(48) 0.000434 2722. 2983.
2991(48) 0.000434 2720. 2993.
3075(49) 0.000416 2719. 3000.
3049(49) 0.000416 2717. 2999.
2917(47) 0.000453 2716. 2987.
2915(49) 0.000416 2714. 2968.
2944(49) 0.000416 2712. 2947.
2918(49) 0.000416 2711. 2921.
2869(49) 0.000416 2709. 2904.
2790(48) 0.000434 2708. 2895.
2921(49) 0.000416 2706. 2896.
2870(49) 0.000416 2705. 2911.
2939(49) 0.000416 2703. 2938.
3091(51) 0.000384 2701. 2977.
2996(50) 0.000400 2700. 3024.
3097(51) 0.000384 2698. 3073.
3108(51) 0.000384 2697. 3121.
3218(52) 0.000370 2695. 3159.
3264(52) 0.000370 2693. 3182.
3181(51) 0.000384 2692. 3189.
3188(51) 0.000384 2690. 3179.
3208(51) 0.000384 2689. 3158.
3130(51) 0.000384 2687. 3131.
2982(50) 0.000400 2685. 3102.
2986(50) 0.000400 2684. 3073.
2958(49) 0.000416 2682. 3041.
2956(49) 0.000416 2681. 3010.
2875(49) 0.000416 2679. 2977.
2790(48) 0.000434 2677. 2940.
2911(49) 0.000416 2676. 2902.
2855(49) 0.000416 2674. 2864.
2788(48) 0.000434 2673. 2830.
2753(48) 0.000434 2671. 2801.
2717(47) 0.000453 2669. 2779.
2792(48) 0.000434 2668. 2766.
2710(47) 0.000453 2666. 2760.
2796(48) 0.000434 2665. 2761.
2752(48) 0.000434 2663. 2769.
2771(48) 0.000434 2661. 2782.
2841(48) 0.000434 2660. 2799.
2788(48) 0.000434 2658. 2816.
2911(49) 0.000416 2657. 2829.
2921(49) 0.000416 2655. 2845.
2893(49) 0.000416 2654. 2856.
2843(48) 0.000434 2652. 2864.
2838(48) 0.000434 2650. 2870.
2889(49) 0.000416 2649. 2875.
3003(50) 0.000400 2647. 2880.
2954(49) 0.000416 2646. 2889.
2893(49) 0.000416 2644. 2892.
2894(49) 0.000416 2643. 2895.
2861(49) 0.000416 2641. 2896.
2966(49) 0.000416 2639. 2895.
2921(49) 0.000416 2638. 2892.
2851(48) 0.000434 2636. 2887.
2969(49) 0.000416 2635. 2880.
2857(49) 0.000416 2633. 2873.
2902(49) 0.000416 2632. 2863.
2814(48) 0.000434 2630. 2853.
2846(48) 0.000434 2629. 2844.
2842(48) 0.000434 2627. 2839.
2868(49) 0.000416 2626. 2840.
2750(48) 0.000434 2624. 2851.
2851(48) 0.000434 2623. 2872.
2903(49) 0.000416 2621. 2904.
2864(49) 0.000416 2620. 2945.
2971(50) 0.000400 2618. 2996.
3020(50) 0.000400 2617. 3052.
3066(50) 0.000400 2616. 3120.
3088(50) 0.000400 2614. 3172.
3128(51) 0.000384 2613. 3210.
3187(51) 0.000384 2611. 3228.
3101(51) 0.000384 2610. 3220.
3099(51) 0.000384 2608. 3186.
3063(50) 0.000400 2607. 3133.
3038(50) 0.000400 2606. 3069.
2897(49) 0.000416 2604. 3001.
2841(48) 0.000434 2603. 2938.
2856(49) 0.000416 2601. 2887.
2848(48) 0.000434 2600. 2851.
2808(48) 0.000434 2599. 2836.
2804(48) 0.000434 2597. 2845.
2878(49) 0.000416 2596. 2880.
2967(49) 0.000416 2595. 2941.
2949(49) 0.000416 2593. 3027.
3096(51) 0.000384 2592. 3135.
3234(52) 0.000370 2591. 3257.
3415(53) 0.000356 2589. 3385.
3556(54) 0.0003429 2588. 3505.
3637(55) 0.0003306 2587. 3605.
3675(55) 0.0003306 2586. 3670.
3716(55) 0.0003306 2584. 3687.
3767(56) 0.0003189 2583. 3655.
3611(55) 0.0003306 2582. 3578.
3454(53) 0.000356 2581. 3469.
3295(52) 0.000370 2579. 3337.
3168(51) 0.000384 2578. 3205.
3106(51) 0.000384 2577. 3080.
2981(50) 0.000400 2576. 2969.
2958(49) 0.000416 2575. 2876.
2699(47) 0.000453 2573. 2804.
2754(48) 0.000434 2572. 2750.
2714(47) 0.000453 2571. 2711.
2731(47) 0.000453 2570. 2684.
2743(48) 0.000434 2569. 2664.
2696(48) 0.000434 2568. 2650.
2748(48) 0.000434 2567. 2639.
2627(47) 0.000453 2566. 2629.
2624(47) 0.000453 2564. 2621.
2664(47) 0.000453 2563. 2615.
2640(47) 0.000453 2562. 2610.
2631(47) 0.000453 2561. 2607.
2642(47) 0.000453 2560. 2606.
2708(48) 0.000434 2559. 2609.
2531(46) 0.000473 2558. 2603.
2682(48) 0.000434 2557. 2613.
2699(48) 0.000434 2556. 2625.
2725(48) 0.000434 2555. 2645.
2672(47) 0.000453 2554. 2663.
2742(48) 0.000434 2553. 2682.
2736(48) 0.000434 2552. 2702.
2798(49) 0.000416 2551. 2719.
2735(48) 0.000434 2551. 2731.
2789(48) 0.000434 2550. 2737.
2751(48) 0.000434 2549. 2735.
2766(48) 0.000434 2548. 2727.
2694(48) 0.000434 2547. 2712.
2766(48) 0.000434 2546. 2694.
2661(47) 0.000453 2545. 2675.
2646(47) 0.000453 2544. 2656.
2636(47) 0.000453 2544. 2641.
2602(47) 0.000453 2543. 2630.
2689(48) 0.000434 2542. 2626.
2605(47) 0.000453 2541. 2630.
2657(47) 0.000453 2540. 2645.
2736(48) 0.000434 2540. 2671.
2759(48) 0.000434 2539. 2711.
2817(49) 0.000416 2538. 2765.
2815(49) 0.000416 2538. 2835.
2880(49) 0.000416 2537. 2917.
2971(50) 0.000400 2536. 3010.
3122(51) 0.000384 2535. 3107.
3244(52) 0.000370 2535. 3201.
3209(52) 0.000370 2534. 3284.
3317(53) 0.000356 2533. 3346.
3419(54) 0.0003429 2533. 3379.
3285(53) 0.000356 2532. 3381.
3279(53) 0.000356 2532. 3351.
3306(53) 0.000356 2531. 3295.
3143(51) 0.000384 2530. 3220.
3151(52) 0.000370 2530. 3133.
2976(50) 0.000400 2529. 3043.
2989(50) 0.000400 2529. 2956.
2818(49) 0.000416 2528. 2877.
2808(49) 0.000416 2528. 2808.
2793(49) 0.000416 2527. 2753.
2727(48) 0.000434 2527. 2709.
2746(48) 0.000434 2526. 2677.
2655(47) 0.000453 2526. 2654.
2676(47) 0.000453 2525. 2639.
2650(47) 0.000453 2525. 2629.
2721(48) 0.000434 2524. 2627.
2611(47) 0.000453 2524. 2624.
2593(47) 0.000453 2523. 2622.
2600(47) 0.000453 2523. 2622.
2642(47) 0.000453 2523. 2621.
2632(47) 0.000453 2522. 2624.
2600(47) 0.000453 2522. 2625.
2696(48) 0.000434 2522. 2626.
2688(48) 0.000434 2521. 2629.
2655(47) 0.000453 2521. 2633.
2680(48) 0.000434 2520. 2638.
2708(48) 0.000434 2520. 2644.
2689(48) 0.000434 2520. 2646.
2702(48) 0.000434 2520. 2656.
2681(48) 0.000434 2519. 2665.
2702(48) 0.000434 2519. 2673.
2734(48) 0.000434 2519. 2685.
2644(47) 0.000453 2518. 2699.
2665(47) 0.000453 2518. 2716.
2709(48) 0.000434 2518. 2737.
2776(48) 0.000434 2518. 2762.
2699(48) 0.000434 2517. 2794.
2929(50) 0.000400 2517. 2834.
2925(50) 0.000400 2517. 2881.
2946(50) 0.000400 2517. 2934.
3046(51) 0.000384 2517. 2992.
3030(51) 0.000384 2516. 3050.
3048(51) 0.000384 2516. 3106.
3136(51) 0.000384 2516. 3153.
3229(52) 0.000370 2516. 3190.
3280(53) 0.000356 2516. 3214.
3332(53) 0.000356 2516. 3223.
3262(52) 0.000370 2515. 3219.
3224(52) 0.000370 2515. 3204.
3167(52) 0.000370 2515. 3176.
3071(51) 0.000384 2515. 3141.
3087(51) 0.000384 2515. 3104.
3083(51) 0.000384 2515. 3066.
3055(51) 0.000384 2515. 3030.
2985(50) 0.000400 2515. 2996.
3109(51) 0.000384 2515. 2962.
2958(50) 0.000400 2515. 2928.
2887(49) 0.000416 2514. 2891.
2944(50) 0.000400 2514. 2852.
2859(47) 0.000453 2514. 2813.
2851(47) 0.000453 2514. 2775.
2802(47) 0.000453 2514. 2739.
2709(46) 0.000473 2514. 2708.
2695(46) 0.000473 2514. 2684.
2680(45) 0.000494 2514. 2668.
2721(46) 0.000473 2514. 2659.
2615(45) 0.000494 2514. 2658.
2663(45) 0.000494 2514. 2665.
2707(46) 0.000473 2514. 2678.
2651(45) 0.000494 2514. 2698.
2756(46) 0.000473 2514. 2722.
2759(46) 0.000473 2514. 2746.
2763(46) 0.000473 2514. 2772.
2667(45) 0.000494 2514. 2796.
2817(47) 0.000453 2514. 2815.
2867(47) 0.000453 2514. 2825.
2872(47) 0.000453 2514. 2824.
2812(47) 0.000453 2514. 2816.
2741(46) 0.000473 2514. 2802.
2774(46) 0.000473 2514. 2779.
2719(46) 0.000473 2514. 2752.
2676(45) 0.000494 2514. 2724.
2678(45) 0.000494 2514. 2698.
2649(45) 0.000494 2514. 2675.
2624(45) 0.000494 2514. 2654.
2618(45) 0.000494 2514. 2642.
2635(45) 0.000494 2514. 2635.
2638(45) 0.000494 2514. 2633.
2663(45) 0.000494 2514. 2635.
2615(45) 0.000494 2514. 2640.
2630(45) 0.000494 2514. 2647.
2585(45) 0.000494 2514. 2653.
2658(45) 0.000494 2514. 2660.
2700(46) 0.000473 2514. 2666.
2615(45) 0.000494 2514. 2672.
2580(45) 0.000494 2514. 2681.
2665(45) 0.000494 2514. 2691.
2658(45) 0.000494 2514. 2704.
2714(46) 0.000473 2514. 2725.
2732(46) 0.000473 2514. 2749.
2782(46) 0.000473 2514. 2778.
2794(46) 0.000473 2514. 2811.
2886(47) 0.000453 2514. 2844.
2824(47) 0.000453 2514. 2877.
2931(48) 0.000434 2514. 2901.
2908(47) 0.000453 2514. 2919.
2888(47) 0.000453 2514. 2925.
2876(47) 0.000453 2514. 2920.
2949(48) 0.000434 2514. 2904.
2928(48) 0.000434 2514. 2881.
2780(46) 0.000473 2514. 2855.
2826(47) 0.000453 2514. 2831.
2772(46) 0.000473 2514. 2812.
2795(46) 0.000473 2514. 2802.
2730(46) 0.000473 2514. 2803.
2725(46) 0.000473 2514. 2817.
2739(46) 0.000473 2514. 2844.
2899(47) 0.000453 2514. 2883.
2920(48) 0.000434 2514. 2932.
2856(47) 0.000453 2514. 2988.
2987(48) 0.000434 2514. 3047.
3036(48) 0.000434 2514. 3104.
3105(49) 0.000416 2514. 3155.
3209(50) 0.000400 2514. 3196.
3200(50) 0.000400 2514. 3222.
3202(50) 0.000400 2514. 3232.
3186(50) 0.000400 2513. 3226.
3160(49) 0.000416 2513. 3205.
3163(49) 0.000416 2513. 3173.
2962(48) 0.000434 2513. 3128.
2982(48) 0.000434 2513. 3076.
2976(48) 0.000434 2513. 3019.
2985(48) 0.000434 2513. 2960.
2859(47) 0.000453 2513. 2901.
2736(46) 0.000473 2512. 2841.
2743(46) 0.000473 2512. 2789.
2727(46) 0.000473 2512. 2743.
2677(45) 0.000494 2512. 2703.
2596(45) 0.000494 2512. 2670.
2569(45) 0.000494 2512. 2645.
2616(45) 0.000494 2511. 2626.
2625(45) 0.000494 2511. 2614.
2573(45) 0.000494 2511. 2607.
2616(45) 0.000494 2511. 2606.
2674(45) 0.000494 2511. 2611.
2626(45) 0.000494 2510. 2620.
2695(46) 0.000473 2510. 2635.
2743(46) 0.000473 2510. 2654.
2783(46) 0.000473 2510. 2679.
2761(46) 0.000473 2509. 2705.
2924(48) 0.000434 2509. 2734.
2874(47) 0.000453 2509. 2762.
2856(47) 0.000453 2509. 2792.
2811(47) 0.000453 2508. 2819.
2846(47) 0.000453 2508. 2838.
2876(47) 0.000453 2508. 2853.
2893(47) 0.000453 2507. 2859.
2818(47) 0.000453 2507. 2855.
2807(64) 0.0002441 2507. 2842.
2753(46) 0.000473 2506. 2819.
2686(45) 0.000494 2506. 2793.
2779(46) 0.000473 2506. 2765.
2701(46) 0.000473 2505. 2737.
2658(45) 0.000494 2505. 2711.
2699(46) 0.000473 2505. 2689.
2650(45) 0.000494 2504. 2673.
2622(45) 0.000494 2504. 2673.
2607(45) 0.000494 2503. 2670.
2634(45) 0.000494 2503. 2674.
2638(45) 0.000494 2503. 2684.
2669(45) 0.000494 2502. 2698.
2710(46) 0.000473 2502. 2715.
2796(46) 0.000473 2501. 2734.
2811(47) 0.000453 2501. 2754.
2856(47) 0.000453 2500. 2773.
2845(47) 0.000453 2500. 2788.
2854(47) 0.000453 2499. 2800.
2834(47) 0.000453 2499. 2808.
2826(47) 0.000453 2498. 2813.
2873(47) 0.000453 2498. 2818.
2851(47) 0.000453 2497. 2822.
2823(47) 0.000453 2497. 2831.
2915(47) 0.000453 2496. 2846.
2865(47) 0.000453 2496. 2870.
2824(47) 0.000453 2495. 2906.
2908(47) 0.000453 2495. 2953.
2989(48) 0.000434 2494. 3012.
3031(48) 0.000434 2493. 3082.
3081(49) 0.000416 2493. 3159.
3235(50) 0.000400 2492. 3239.
3329(51) 0.000384 2492. 3318.
3379(51) 0.000384 2491. 3389.
3471(52) 0.000370 2490. 3445.
3522(52) 0.000370 2490. 3480.
3530(52) 0.000370 2489. 3496.
3527(52) 0.000370 2488. 3487.
3535(52) 0.000370 2488. 3462.
3427(51) 0.000384 2487. 3420.
3379(51) 0.000384 2486. 3364.
3291(50) 0.000400 2486. 3303.
3187(50) 0.000400 2485. 3242.
3129(49) 0.000416 2484. 3184.
3098(49) 0.000416 2484. 3131.
3097(49) 0.000416 2483. 3084.
3051(49) 0.000416 2482. 3045.
3011(48) 0.000434 2482. 3009.
3024(48) 0.000434 2481. 2981.
3061(49) 0.000416 2480. 2957.
2980(48) 0.000434 2479. 2937.
2991(48) 0.000434 2479. 2919.
2973(48) 0.000434 2478. 2906.
3000(48) 0.000434 2477. 2899.
2978(48) 0.000434 2476. 2900.
2931(48) 0.000434 2475. 2912.
2964(48) 0.000434 2475. 2936.
3011(48) 0.000434 2474. 2975.
3033(48) 0.000434 2473. 3029.
3098(49) 0.000416 2472. 3095.
3172(49) 0.000416 2471. 3173.
3199(50) 0.000400 2471. 3257.
3385(51) 0.000384 2470. 3345.
3517(52) 0.000370 2469. 3429.
3573(53) 0.000356 2468. 3503.
3571(53) 0.000356 2467. 3559.
3604(53) 0.000356 2466. 3593.
3598(53) 0.000356 2466. 3600.
3569(53) 0.000356 2465. 3578.
3537(52) 0.000370 2464. 3531.
3438(52) 0.000370 2463. 3460.
3375(51) 0.000384 2462. 3373.
3202(50) 0.000400 2461. 3275.
3128(49) 0.000416 2460. 3173.
3069(49) 0.000416 2460. 3072.
2987(48) 0.000434 2459. 2977.
2867(47) 0.000453 2458. 2891.
2846(47) 0.000453 2457. 2816.
2740(46) 0.000473 2456. 2753.
2694(46) 0.000473 2455. 2703.
2769(46) 0.000473 2454. 2659.
2710(46) 0.000473 2453. 2630.
2680(45) 0.000494 2452. 2609.
2652(45) 0.000494 2451. 2595.
2684(45) 0.000494 2451. 2585.
2664(45) 0.000494 2450. 2579.
2660(45) 0.000494 2449. 2574.
2652(45) 0.000494 2448. 2569.
2680(45) 0.000494 2447. 2565.
2672(45) 0.000494 2446. 2562.
2634(45) 0.000494 2445. 2558.
2592(45) 0.000494 2444. 2555.
2589(45) 0.000494 2443. 2551.
2603(45) 0.000494 2442. 2548.
2633(45) 0.000494 2441. 2545.
2656(45) 0.000494 2440. 2542.
2615(45) 0.000494 2439. 2539.
2562(44) 0.000517 2438. 2537.
2524(44) 0.000517 2438. 2535.
2530(44) 0.000517 2437. 2534.
2504(44) 0.000517 2436. 2534.
2546(44) 0.000517 2435. 2536.
2539(44) 0.000517 2434. 2539.
2523(44) 0.000517 2433. 2546.
2498(44) 0.000517 2432. 2548.
2523(44) 0.000517 2431. 2560.
2490(44) 0.000517 2430. 2576.
2576(45) 0.000494 2429. 2593.
2599(45) 0.000494 2428. 2613.
2621(45) 0.000494 2427. 2635.
2609(45) 0.000494 2426. 2657.
2612(45) 0.000494 2425. 2678.
2684(45) 0.000494 2424. 2699.
2688(45) 0.000494 2423. 2717.
2703(46) 0.000473 2422. 2730.
2689(45) 0.000494 2422. 2741.
2709(46) 0.000473 2421. 2747.
2785(46) 0.000473 2420. 2750.
2738(46) 0.000473 2419. 2750.
2716(46) 0.000473 2418. 2746.
2722(46) 0.000473 2417. 2739.
2685(45) 0.000494 2416. 2731.
2687(45) 0.000494 2415. 2720.
2682(45) 0.000494 2414. 2706.
2616(45) 0.000494 2413. 2691.
2600(45) 0.000494 2412. 2674.
2636(45) 0.000494 2411. 2657.
2554(44) 0.000517 2411. 2639.
2619(45) 0.000494 2410. 2621.
2565(44) 0.000517 2409. 2603.
2501(44) 0.000517 2408. 2584.
2485(44) 0.000517 2407. 2567.
2501(44) 0.000517 2406. 2551.
2504(44) 0.000517 2405. 2538.
2498(44) 0.000517 2404. 2525.
2491(44) 0.000517 2403. 2515.
2452(43) 0.000541 2403. 2508.
2481(44) 0.000517 2402. 2503.
2545(44) 0.000517 2401. 2501.
2505(44) 0.000517 2400. 2502.
2462(44) 0.000517 2399. 2505.
2473(44) 0.000517 2398. 2510.
2501(44) 0.000517 2397. 2518.
2544(44) 0.000517 2397. 2526.
2552(44) 0.000517 2396. 2535.
2543(44) 0.000517 2395. 2544.
2531(44) 0.000517 2394. 2552.
2569(44) 0.000517 2393. 2559.
2588(45) 0.000494 2392. 2567.
2546(44) 0.000517 2392. 2574.
2569(44) 0.000517 2391. 2579.
2574(44) 0.000517 2390. 2582.
2547(44) 0.000517 2389. 2584.
2620(45) 0.000494 2388. 2585.
2610(45) 0.000494 2388. 2584.
2599(45) 0.000494 2387. 2581.
2595(45) 0.000494 2386. 2575.
2574(44) 0.000517 2385. 2570.
2568(44) 0.000517 2384. 2564.
2564(44) 0.000517 2384. 2558.
2548(44) 0.000517 2383. 2556.
2543(44) 0.000517 2382. 2552.
2498(44) 0.000517 2381. 2549.
2508(44) 0.000517 2381. 2546.
2568(44) 0.000517 2380. 2546.
2561(44) 0.000517 2379. 2546.
2541(44) 0.000517 2379. 2547.
2526(44) 0.000517 2378. 2549.
2550(44) 0.000517 2377. 2551.
2517(44) 0.000517 2376. 2556.
2541(44) 0.000517 2376. 2560.
2509(44) 0.000517 2375. 2565.
2527(44) 0.000517 2374. 2570.
2586(45) 0.000494 2374. 2577.
2536(44) 0.000517 2373. 2585.
2508(44) 0.000517 2372. 2594.
2511(44) 0.000517 2372. 2603.
2557(44) 0.000517 2371. 2613.
2533(44) 0.000517 2370. 2623.
2581(45) 0.000494 2370. 2633.
2664(45) 0.000494 2369. 2644.
2682(45) 0.000494 2368. 2656.
2691(45) 0.000494 2368. 2668.
2747(46) 0.000473 2367. 2681.
2776(46) 0.000473 2367. 2695.
2814(47) 0.000453 2366. 2711.
2756(46) 0.000473 2365. 2729.
2769(46) 0.000473 2365. 2749.
2817(47) 0.000453 2364. 2769.
2906(47) 0.000453 2364. 2790.
2953(48) 0.000434 2363. 2811.
2970(48) 0.000434 2363. 2831.
2914(47) 0.000453 2362. 2847.
2873(47) 0.000453 2361. 2862.
2925(47) 0.000453 2361. 2869.
2886(47) 0.000453 2360. 2869.
2818(47) 0.000453 2360. 2864.
2803(46) 0.000473 2359. 2853.
2777(46) 0.000473 2359. 2837.
2777(46) 0.000473 2358. 2817.
2760(46) 0.000473 2358. 2793.
2742(47) 0.000453 2357. 2768.
2725(47) 0.000453 2357. 2741.
2691(47) 0.000453 2356. 2713.
2643(46) 0.000473 2356. 2686.
2633(46) 0.000473 2355. 2659.
2604(46) 0.000473 2355. 2634.
2616(46) 0.000473 2354. 2610.
2578(46) 0.000473 2354. 2590.
2613(46) 0.000473 2353. 2571.
2542(45) 0.000494 2353. 2558.
2544(45) 0.000494 2352. 2548.
2514(45) 0.000494 2352. 2544.
2502(45) 0.000494 2352. 2545.
2530(45) 0.000494 2351. 2551.
2563(46) 0.000473 2351. 2564.
2600(46) 0.000473 2350. 2584.
2578(46) 0.000473 2350. 2607.
2575(46) 0.000473 2349. 2636.
2698(47) 0.000453 2349. 2668.
2699(47) 0.000453 2349. 2703.
2766(47) 0.000453 2348. 2739.
2794(48) 0.000434 2348. 2774.
2862(48) 0.000434 2347. 2807.
2872(48) 0.000434 2347. 2834.
2935(49) 0.000416 2347. 2855.
2926(49) 0.000416 2346. 2868.
2868(48) 0.000434 2346. 2868.
2867(48) 0.000434 2346. 2863.
2882(48) 0.000434 2345. 2849.
2881(48) 0.000434 2345. 2828.
2865(48) 0.000434 2344. 2800.
2780(48) 0.000434 2344. 2770.
2742(47) 0.000453 2344. 2738.
2705(47) 0.000453 2343. 2706.
2688(47) 0.000453 2343. 2677.
2681(47) 0.000453 2343. 2651.
2653(46) 0.000473 2342. 2631.
2592(46) 0.000473 2342. 2617.
2643(46) 0.000473 2342. 2609.
2621(46) 0.000473 2341. 2607.
2624(46) 0.000473 2341. 2611.
2636(46) 0.000473 2341. 2619.
2668(47) 0.000453 2340. 2630.
2652(46) 0.000473 2340. 2644.
2733(47) 0.000453 2340. 2658.
2711(47) 0.000453 2339. 2670.
2735(47) 0.000453 2339. 2681.
2693(47) 0.000453 2339. 2688.
2674(47) 0.000453 2339. 2690.
2696(47) 0.000453 2338. 2687.
2769(47) 0.000453 2338. 2680.
2666(47) 0.000453 2338. 2668.
2691(47) 0.000453 2337. 2652.
2703(47) 0.000453 2337. 2634.
2649(46) 0.000473 2337. 2614.
2525(45) 0.000494 2336. 2593.
2553(46) 0.000473 2336. 2572.
2540(45) 0.000494 2336. 2553.
2489(45) 0.000494 2336. 2536.
2496(45) 0.000494 2335. 2519.
2482(45) 0.000494 2335. 2505.
2462(45) 0.000494 2335. 2493.
2472(45) 0.000494 2334. 2482.
2498(45) 0.000494 2334. 2473.
2447(45) 0.000494 2334. 2466.
2429(44) 0.000517 2334. 2460.
2383(44) 0.000517 2333. 2455.
2404(44) 0.000517 2333. 2451.
2505(45) 0.000494 2333. 2448.
2435(44) 0.000517 2333. 2445.
2420(44) 0.000517 2332. 2444.
2371(44) 0.000517 2332. 2443.
2410(44) 0.000517 2332. 2442.
2417(44) 0.000517 2332. 2441.
2414(44) 0.000517 2331. 2441.
2366(44) 0.000517 2331. 2441.
2436(44) 0.000517 2331. 2441.
2469(45) 0.000494 2330. 2442.
2451(45) 0.000494 2330. 2443.
2426(44) 0.000517 2330. 2445.
2446(45) 0.000494 2330. 2446.
2392(44) 0.000517 2329. 2450.
2364(44) 0.000517 2329. 2451.
2386(44) 0.000517 2329. 2457.
2408(44) 0.000517 2329. 2462.
2452(45) 0.000494 2328. 2468.
2451(45) 0.000494 2328. 2474.
2484(45) 0.000494 2328. 2479.
2479(45) 0.000494 2327. 2484.
2472(45) 0.000494 2327. 2487.
2459(45) 0.000494 2327. 2489.
2464(45) 0.000494 2327. 2490.
2485(45) 0.000494 2326. 2488.
2433(44) 0.000517 2326. 2485.
2460(45) 0.000494 2326. 2481.
2511(45) 0.000494 2326. 2475.
2514(45) 0.000494 2325. 2468.
2456(45) 0.000494 2325. 2461.
2471(45) 0.000494 2325. 2455.
2418(36) 0.000772 2324. 2449.
2438(46) 0.000473 2324. 2445.
2366(45) 0.000494 2324. 2442.
2451(46) 0.000473 2324. 2440.
2448(46) 0.000473 2323. 2440.
2476(46) 0.000473 2323. 2441.
2520(46) 0.000473 2323. 2444.
2481(46) 0.000473 2322. 2448.
2424(46) 0.000473 2322. 2453.
2419(45) 0.000494 2322. 2458.
2438(46) 0.000473 2322. 2464.
2470(46) 0.000473 2321. 2471.
2501(46) 0.000473 2321. 2476.
2539(47) 0.000453 2321. 2481.
2548(47) 0.000453 2320. 2484.
2471(46) 0.000473 2320. 2487.
2482(46) 0.000473 2320. 2488.
2583(47) 0.000453 2319. 2488.
2499(46) 0.000473 2319. 2487.
2535(47) 0.000453 2319. 2484.
2489(46) 0.000473 2319. 2479.
2457(46) 0.000473 2318. 2474.
2479(46) 0.000473 2318. 2467.
2429(46) 0.000473 2318. 2459.
2496(46) 0.000473 2317. 2450.
2367(45) 0.000494 2317. 2444.
2481(46) 0.000473 2317. 2433.
2439(46) 0.000473 2316. 2424.
2454(46) 0.000473 2316. 2416.
2407(45) 0.000494 2316. 2409.
2396(45) 0.000494 2315. 2403.
2407(45) 0.000494 2315. 2398.
2413(45) 0.000494 2315. 2395.
2446(46) 0.000473 2314. 2394.
2381(45) 0.000494 2314. 2395.
2378(45) 0.000494 2314. 2397.
2417(45) 0.000494 2313. 2402.
2483(46) 0.000473 2313. 2409.
2422(45) 0.000494 2313. 2417.
2419(45) 0.000494 2312. 2428.
2463(46) 0.000473 2312. 2440.
2450(46) 0.000473 2312. 2455.
2462(46) 0.000473 2311. 2469.
2500(46) 0.000473 2311. 2485.
2499(46) 0.000473 2311. 2501.
2498(46) 0.000473 2310. 2517.
2597(47) 0.000453 2310. 2533.
2604(47) 0.000453 2310. 2548.
2610(47) 0.000453 2309. 2562.
2605(47) 0.000453 2309. 2575.
2686(48) 0.000434 2309. 2586.
2539(47) 0.000453 2308. 2596.
2633(47) 0.000453 2308. 2605.
2654(48) 0.000434 2308. 2613.
2658(48) 0.000434 2307. 2619.
2593(47) 0.000453 2307. 2625.
2636(47) 0.000453 2307. 2630.
2696(48) 0.000434 2306. 2634.
2638(47) 0.000453 2306. 2638.
2565(47) 0.000453 2305. 2642.
2632(47) 0.000453 2305. 2645.
2640(47) 0.000453 2305. 2650.
2687(48) 0.000434 2304. 2653.
2743(48) 0.000434 2304. 2654.
2651(48) 0.000434 2304. 2656.
2681(48) 0.000434 2303. 2657.
2736(48) 0.000434 2303. 2657.
2608(47) 0.000453 2303. 2657.
2657(48) 0.000434 2302. 2657.
2625(47) 0.000453 2302. 2657.
2647(48) 0.000434 2302. 2658.
2606(47) 0.000453 2301. 2660.
2660(48) 0.000434 2301. 2663.
2673(48) 0.000434 2301. 2668.
2646(48) 0.000434 2300. 2673.
2689(48) 0.000434 2300. 2680.
2716(48) 0.000434 2300. 2687.
2707(48) 0.000434 2299. 2694.
2781(49) 0.000416 2299. 2700.
2781(49) 0.000416 2299. 2706.
2696(48) 0.000434 2298. 2710.
2755(49) 0.000416 2298. 2712.
2670(48) 0.000434 2298. 2712.
2754(49) 0.000416 2297. 2711.
2608(47) 0.000453 2297. 2707.
2721(48) 0.000434 2297. 2702.
2650(48) 0.000434 2296. 2697.
2727(48) 0.000434 2296. 2692.
2639(47) 0.000453 2296. 2687.
2636(47) 0.000453 2295. 2683.
2575(47) 0.000453 2295. 2680.
2633(47) 0.000453 2295. 2680.
2668(48) 0.000434 2294. 2682.
2679(48) 0.000434 2294. 2686.
2730(48) 0.000434 2294. 2691.
2609(47) 0.000453 2293. 2698.
2662(48) 0.000434 2293. 2706.
2700(48) 0.000434 2293. 2713.
2712(48) 0.000434 2292. 2719.
2772(49) 0.000416 2292. 2724.
2744(48) 0.000434 2292. 2726.
2758(47) 0.000453 2291. 2725.
2769(47) 0.000453 2291. 2721.
2690(46) 0.000473 2291. 2714.
2795(47) 0.000453 2291. 2702.
2712(47) 0.000453 2290. 2687.
2686(46) 0.000473 2290. 2669.
2653(46) 0.000473 2290. 2649.
2620(46) 0.000473 2289. 2626.
2586(46) 0.000473 2289. 2603.
2625(46) 0.000473 2289. 2579.
2563(45) 0.000494 2289. 2555.
2507(45) 0.000494 2288. 2532.
2546(45) 0.000494 2288. 2509.
2500(45) 0.000494 2288. 2489.
2467(45) 0.000494 2287. 2470.
2475(45) 0.000494 2287. 2453.
2468(45) 0.000494 2287. 2438.
2433(44) 0.000517 2287. 2426.
2450(44) 0.000517 2286. 2415.
2389(44) 0.000517 2286. 2407.
2364(44) 0.000517 2286. 2400.
2512(45) 0.000494 2286. 2396.
2419(44) 0.000517 2286. 2393.
2336(43) 0.000541 2285. 2391.
2355(43) 0.000541 2285. 2391.
2396(44) 0.000517 2285. 2391.
2355(43) 0.000541 2285. 2393.
2345(43) 0.000541 2284. 2395.
2342(43) 0.000541 2284. 2398.
2369(44) 0.000517 2284. 2402.
2480(45) 0.000494 2284. 2406.
2326(43) 0.000541 2284. 2411.
2355(43) 0.000541 2283. 2416.
2365(44) 0.000517 2283. 2421.
2430(44) 0.000517 2283. 2427.
2397(44) 0.000517 2283. 2432.
2410(44) 0.000517 2283. 2438.
2423(44) 0.000517 2283. 2443.
2443(44) 0.000517 2282. 2449.
2370(44) 0.000517 2282. 2454.
2453(44) 0.000517 2282. 2459.
2480(45) 0.000494 2282. 2459.
2527(45) 0.000494 2282. 2464.
2436(44) 0.000517 2282. 2467.
2515(45) 0.000494 2282. 2471.
2444(44) 0.000517 2281. 2474.
2526(45) 0.000494 2281. 2478.
2491(45) 0.000494 2281. 2483.
2468(45) 0.000494 2281. 2487.
2618(46) 0.000473 2281. 2494.
2505(45) 0.000494 2281. 2499.
2522(45) 0.000494 2281. 2506.
2495(45) 0.000494 2281. 2512.
2570(45) 0.000494 2281. 2520.
2507(45) 0.000494 2281. 2527.
2536(45) 0.000494 2280. 2535.
2580(46) 0.000473 2280. 2542.
2513(45) 0.000494 2280. 2550.
2548(45) 0.000494 2280. 2557.
2580(46) 0.000473 2280. 2564.
2560(45) 0.000494 2280. 2572.
2505(45) 0.000494 2280. 2578.
2512(45) 0.000494 2280. 2583.
2552(45) 0.000494 2280. 2588.
2603(46) 0.000473 2280. 2592.
2587(46) 0.000473 2280. 2595.
2578(45) 0.000494 2280. 2597.
2523(45) 0.000494 2280. 2597.
2578(45) 0.000494 2280. 2597.
2598(46) 0.000473 2280. 2596.
2609(46) 0.000473 2280. 2594.
2550(45) 0.000494 2280. 2592.
2567(45) 0.000494 2280. 2588.
2593(46) 0.000473 2280. 2584.
2598(46) 0.000473 2280. 2579.
2589(46) 0.000473 2280. 2575.
2582(46) 0.000473 2280. 2570.
2568(45) 0.000494 2280. 2565.
2574(45) 0.000494 2280. 2561.
2595(46) 0.000473 2280. 2557.
2534(45) 0.000494 2280. 2555.
2569(45) 0.000494 2280. 2554.
2497(45) 0.000494 2280. 2555.
2585(46) 0.000473 2280. 2558.
2547(45) 0.000494 2280. 2563.
2538(45) 0.000494 2280. 2569.
2545(45) 0.000494 2280. 2578.
2575(45) 0.000494 2280. 2588.
2604(46) 0.000473 2280. 2599.
2673(46) 0.000473 2280. 2611.
2576(45) 0.000494 2280. 2624.
2586(46) 0.000473 2280. 2637.
2622(46) 0.000473 2281. 2649.
2658(46) 0.000473 2281. 2660.
2729(47) 0.000453 2281. 2670.
2705(47) 0.000453 2281. 2677.
2715(47) 0.000453 2281. 2683.
2683(46) 0.000473 2281. 2686.
2726(47) 0.000453 2281. 2685.
2664(65) 0.0002367 2281. 2682.
2707(46) 0.000473 2281. 2677.
2638(45) 0.000494 2281. 2668.
2619(45) 0.000494 2281. 2657.
2690(46) 0.000473 2282. 2643.
2698(46) 0.000473 2282. 2628.
2593(45) 0.000494 2282. 2612.
2629(45) 0.000494 2282. 2595.
2539(44) 0.000517 2282. 2577.
2568(45) 0.000494 2282. 2558.
2596(45) 0.000494 2282. 2543.
2479(44) 0.000517 2282. 2524.
2506(44) 0.000517 2282. 2507.
2484(44) 0.000517 2283. 2490.
2470(44) 0.000517 2283. 2473.
2460(44) 0.000517 2283. 2458.
2422(43) 0.000541 2283. 2445.
2451(44) 0.000517 2283. 2433.
2451(44) 0.000517 2283. 2422.
2413(43) 0.000541 2283. 2413.
2414(43) 0.000541 2284. 2405.
2417(43) 0.000541 2284. 2398.
2412(43) 0.000541 2284. 2392.
2384(43) 0.000541 2284. 2388.
2441(44) 0.000517 2284. 2386.
2450(44) 0.000517 2284. 2384.
2423(43) 0.000541 2284. 2384.
2364(43) 0.000541 2284. 2385.
2346(43) 0.000541 2285. 2387.
2411(43) 0.000541 2285. 2391.
2438(44) 0.000517 2285. 2396.
2432(44) 0.000517 2285. 2401.
2401(43) 0.000541 2285. 2408.
2403(43) 0.000541 2285. 2415.
2393(43) 0.000541 2285. 2424.
2487(44) 0.000517 2286. 2434.
2425(43) 0.000541 2286. 2445.
2468(44) 0.000517 2286. 2457.
2436(44) 0.000517 2286. 2471.
2484(44) 0.000517 2286. 2485.
2538(44) 0.000517 2286. 2501.
2507(44) 0.000517 2286. 2517.
2529(44) 0.000517 2287. 2532.
2436(44) 0.000517 2287. 2552.
2492(44) 0.000517 2287. 2570.
2578(45) 0.000494 2287. 2589.
2618(45) 0.000494 2287. 2610.
2565(45) 0.000494 2287. 2629.
2648(45) 0.000494 2287. 2648.
2681(46) 0.000473 2287. 2665.
2679(46) 0.000473 2288. 2682.
2692(46) 0.000473 2288. 2697.
2731(46) 0.000473 2288. 2709.
2781(47) 0.000453 2288. 2719.
2750(46) 0.000473 2288. 2727.
2729(46) 0.000473 2288. 2733.
2745(46) 0.000473 2288. 2735.
2801(47) 0.000453 2288. 2735.
2745(46) 0.000473 2288. 2731.
2736(46) 0.000473 2289. 2724.
2693(46) 0.000473 2289. 2715.
2684(46) 0.000473 2289. 2704.
2684(46) 0.000473 2289. 2691.
2726(46) 0.000473 2289. 2677.
2643(45) 0.000494 2289. 2662.
2658(46) 0.000473 2289. 2646.
2631(45) 0.000494 2289. 2630.
2586(45) 0.000494 2289. 2615.
2604(45) 0.000494 2289. 2601.
2561(45) 0.000494 2289. 2587.
2542(45) 0.000494 2290. 2576.
2544(45) 0.000494 2290. 2566.
2596(45) 0.000494 2290. 2558.
2519(44) 0.000517 2290. 2552.
2524(44) 0.000517 2290. 2548.
2603(45) 0.000494 2290. 2547.
2596(45) 0.000494 2290. 2549.
2515(44) 0.000517 2290. 2552.
2494(44) 0.000517 2290. 2559.
2531(44) 0.000517 2290. 2567.
2523(44) 0.000517 2290. 2578.
2591(45) 0.000494 2290. 2591.
2595(45) 0.000494 2290. 2606.
2584(45) 0.000494 2290. 2623.
2650(45) 0.000494 2290. 2642.
2587(45) 0.000494 2290. 2662.
2676(46) 0.000473 2290. 2682.
2670(46) 0.000473 2290. 2703.
2662(46) 0.000473 2290. 2724.
2773(46) 0.000473 2290. 2744.
2812(47) 0.000453 2290. 2763.
2840(47) 0.000453 2290. 2782.
2777(47) 0.000453 2290. 2798.
2825(47) 0.000453 2290. 2813.
2853(47) 0.000453 2290. 2825.
2859(47) 0.000453 2290. 2835.
2854(47) 0.000453 2290. 2841.
2892(47) 0.000453 2290. 2844.
2839(47) 0.000453 2290. 2844.
2884(47) 0.000453 2290. 2840.
2840(39) 0.000657 2290. 2832.
2793(47) 0.000453 2290. 2821.
2801(47) 0.000453 2290. 2803.
2803(47) 0.000453 2290. 2786.
2724(46) 0.000473 2290. 2766.
2747(46) 0.000473 2290. 2744.
2791(47) 0.000453 2290. 2721.
2693(46) 0.000473 2290. 2696.
2681(46) 0.000473 2290. 2671.
2678(46) 0.000473 2289. 2645.
2602(45) 0.000494 2289. 2619.
2607(45) 0.000494 2289. 2594.
2561(45) 0.000494 2289. 2572.
2526(44) 0.000517 2289. 2547.
2499(44) 0.000517 2289. 2524.
2456(44) 0.000517 2289. 2503.
2540(44) 0.000517 2289. 2482.
2575(45) 0.000494 2289. 2463.
2532(44) 0.000517 2289. 2446.
2463(44) 0.000517 2289. 2431.
2466(44) 0.000517 2288. 2423.
2513(44) 0.000517 2288. 2410.
2494(44) 0.000517 2288. 2400.
2463(44) 0.000517 2288. 2391.
2397(43) 0.000541 2288. 2384.
2403(43) 0.000541 2288. 2379.
2456(44) 0.000517 2288. 2375.
2440(44) 0.000517 2287. 2373.
2366(43) 0.000541 2287. 2372.
2330(43) 0.000541 2287. 2372.
2346(43) 0.000541 2287. 2373.
2380(43) 0.000541 2287. 2376.
2350(43) 0.000541 2287. 2380.
2318(42) 0.000567 2287. 2386.
2403(43) 0.000541 2286. 2393.
2435(44) 0.000517 2286. 2399.
2418(43) 0.000541 2286. 2408.
2380(43) 0.000541 2286. 2418.
2433(44) 0.000517 2286. 2429.
2488(44) 0.000517 2286. 2442.
2458(44) 0.000517 2285. 2456.
2428(43) 0.000541 2285. 2471.
2475(44) 0.000517 2285. 2487.
2480(44) 0.000517 2285. 2505.
2529(44) 0.000517 2285. 2525.
2578(45) 0.000494 2285. 2545.
2462(44) 0.000517 2284. 2567.
2520(44) 0.000517 2284. 2591.
2612(45) 0.000494 2284. 2616.
2605(45) 0.000494 2284. 2643.
2575(45) 0.000494 2284. 2671.
2662(46) 0.000473 2283. 2700.
2611(45) 0.000494 2283. 2729.
2680(46) 0.000473 2283. 2761.
2821(47) 0.000453 2283. 2795.
2768(46) 0.000473 2283. 2830.
2816(47) 0.000453 2282. 2865.
2893(47) 0.000453 2282. 2902.
2921(48) 0.000434 2282. 2938.
2928(48) 0.000434 2282. 2975.
2963(48) 0.000434 2282. 3012.
3059(49) 0.000416 2281. 3048.
3109(49) 0.000416 2281. 3083.
3100(49) 0.000416 2281. 3116.
3162(50) 0.000400 2281. 3147.
3228(50) 0.000400 2281. 3176.
3254(50) 0.000400 2280. 3202.
3254(50) 0.000400 2280. 3224.
3275(50) 0.000400 2280. 3243.
3348(51) 0.000384 2280. 3257.
3340(51) 0.000384 2280. 3266.
3368(51) 0.000384 2279. 3271.
3287(50) 0.000400 2279. 3271.
3254(50) 0.000400 2279. 3266.
3267(50) 0.000400 2279. 3256.
3296(51) 0.000384 2279. 3242.
3313(51) 0.000384 2279. 3223.
3183(50) 0.000400 2278. 3200.
3141(49) 0.000416 2278. 3173.
3146(49) 0.000416 2278. 3143.
3090(49) 0.000416 2278. 3111.
3057(49) 0.000416 2278. 3076.
3058(49) 0.000416 2277. 3040.
3011(48) 0.000434 2277. 3003.
2950(48) 0.000434 2277. 2965.
2923(48) 0.000434 2277. 2926.
2927(48) 0.000434 2277. 2888.
2866(47) 0.000453 2277. 2850.
2815(47) 0.000453 2276. 2813.
2736(46) 0.000473 2276. 2777.
2721(46) 0.000473 2276. 2743.
2693(46) 0.000473 2276. 2711.
2683(46) 0.000473 2276. 2680.
2564(45) 0.000494 2276. 2652.
2605(45) 0.000494 2276. 2626.
2643(45) 0.000494 2275. 2601.
2562(45) 0.000494 2275. 2580.
2477(44) 0.000517 2275. 2560.
2492(44) 0.000517 2275. 2542.
2482(44) 0.000517 2275. 2527.
2481(44) 0.000517 2275. 2515.
2423(44) 0.000517 2275. 2503.
2535(45) 0.000494 2274. 2494.
2498(45) 0.000494 2274. 2485.
2492(44) 0.000517 2274. 2478.
2462(44) 0.000517 2274. 2473.
2528(45) 0.000494 2274. 2468.
2513(45) 0.000494 2274. 2465.
2526(45) 0.000494 2274. 2462.
2535(45) 0.000494 2274. 2460.
2491(44) 0.000517 2274. 2458.
2518(45) 0.000494 2274. 2457.
2441(44) 0.000517 2274. 2456.
2451(44) 0.000517 2274. 2455.
2464(44) 0.000517 2274. 2454.
2473(44) 0.000517 2273. 2453.
2462(44) 0.000517 2273. 2452.
2443(44) 0.000517 2273. 2451.
2433(44) 0.000517 2273. 2450.
2476(44) 0.000517 2273. 2449.
2463(44) 0.000517 2273. 2448.
2421(44) 0.000517 2273. 2447.
2442(44) 0.000517 2273. 2446.
2390(44) 0.000517 2273. 2445.
2444(44) 0.000517 2273. 2444.
2448(44) 0.000517 2273. 2443.
2451(44) 0.000517 2273. 2442.
2458(44) 0.000517 2273. 2441.
2415(44) 0.000517 2273. 2441.
2405(44) 0.000517 2273. 2441.
2455(44) 0.000517 2273. 2441.
2414(44) 0.000517 2273. 2441.
2431(44) 0.000517 2273. 2441.
2480(44) 0.000517 2273. 2442.
2407(44) 0.000517 2274. 2443.
2462(44) 0.000517 2274. 2444.
2482(44) 0.000517 2274. 2445.
2456(44) 0.000517 2274. 2447.
2501(45) 0.000494 2274. 2449.
2419(44) 0.000517 2274. 2451.
2452(44) 0.000517 2274. 2453.
2425(44) 0.000517 2274. 2455.
2441(44) 0.000517 2274. 2457.
2471(44) 0.000517 2274. 2459.
2513(45) 0.000494 2274. 2461.
2486(44) 0.000517 2274. 2464.
2461(44) 0.000517 2275. 2465.
2440(44) 0.000517 2275. 2467.
2486(44) 0.000517 2275. 2468.
2476(44) 0.000517 2275. 2469.
2445(44) 0.000517 2275. 2470.
2491(44) 0.000517 2275. 2471.
2432(44) 0.000517 2275. 2471.
2411(44) 0.000517 2276. 2471.
2427(44) 0.000517 2276. 2470.
2460(44) 0.000517 2276. 2470.
2520(45) 0.000494 2276. 2469.
2480(44) 0.000517 2276. 2467.
2433(44) 0.000517 2277. 2465.
2487(44) 0.000517 2277. 2463.
2478(44) 0.000517 2277. 2460.
2434(44) 0.000517 2277. 2457.
2458(44) 0.000517 2277. 2454.
2422(44) 0.000517 2278. 2450.
2424(44) 0.000517 2278. 2446.
2474(44) 0.000517 2278. 2442.
2422(44) 0.000517 2278. 2437.
2338(43) 0.000541 2279. 2433.
2382(44) 0.000517 2279. 2428.
2469(44) 0.000517 2279. 2424.
2408(44) 0.000517 2279. 2419.
2341(43) 0.000541 2280. 2415.
2381(44) 0.000517 2280. 2411.
2352(43) 0.000541 2280. 2407.
2397(44) 0.000517 2280. 2403.
2422(44) 0.000517 2281. 2401.
2392(44) 0.000517 2281. 2394.
2369(43) 0.000541 2281. 2395.
2389(44) 0.000517 2281. 2393.
2400(44) 0.000517 2282. 2392.
2399(44) 0.000517 2282. 2391.
2374(43) 0.000541 2282. 2390.
2367(43) 0.000541 2283. 2390.
2378(43) 0.000541 2283. 2391.
2408(44) 0.000517 2283. 2392.
2412(44) 0.000517 2284. 2394.
2354(43) 0.000541 2284. 2395.
2375(43) 0.000541 2284. 2397.
2337(43) 0.000541 2284. 2400.
2404(44) 0.000517 2285. 2403.
2444(44) 0.000517 2285. 2407.
2409(44) 0.000517 2285. 2411.
2407(44) 0.000517 2286. 2415.
2451(44) 0.000517 2286. 2419.
2453(44) 0.000517 2286. 2424.
2458(44) 0.000517 2287. 2429.
2402(44) 0.000517 2287. 2434.
2428(44) 0.000517 2287. 2439.
2447(44) 0.000517 2288. 2445.
2491(44) 0.000517 2288. 2450.
2457(44) 0.000517 2288. 2456.
2474(44) 0.000517 2289. 2462.
2461(44) 0.000517 2289. 2468.
2477(44) 0.000517 2290. 2474.
2498(44) 0.000517 2290. 2479.
2546(45) 0.000494 2290. 2485.
2494(44) 0.000517 2291. 2491.
2505(44) 0.000517 2291. 2497.
2527(45) 0.000494 2291. 2505.
2486(44) 0.000517 2292. 2512.
2524(45) 0.000494 2292. 2518.
2571(45) 0.000494 2292. 2525.
2497(44) 0.000517 2293. 2532.
2523(45) 0.000494 2293. 2539.
2602(45) 0.000494 2293. 2546.
2667(46) 0.000473 2294. 2554.
2617(45) 0.000494 2294. 2562.
2586(45) 0.000494 2294. 2570.
2627(46) 0.000473 2295. 2578.
2565(45) 0.000494 2295. 2588.
2578(45) 0.000494 2295. 2597.
2615(45) 0.000494 2296. 2606.
2626(46) 0.000473 2296. 2616.
2671(46) 0.000473 2296. 2628.
2686(46) 0.000473 2297. 2639.
2731(46) 0.000473 2297. 2651.
2709(46) 0.000473 2297. 2665.
2698(46) 0.000473 2298. 2678.
2685(46) 0.000473 2298. 2692.
2737(46) 0.000473 2298. 2706.
2748(47) 0.000453 2299. 2720.
2732(46) 0.000473 2299. 2735.
2742(46) 0.000473 2299. 2750.
2808(47) 0.000453 2300. 2765.
2791(47) 0.000453 2300. 2779.
2882(48) 0.000434 2300. 2794.
2887(48) 0.000434 2301. 2808.
2784(47) 0.000453 2301. 2823.
2795(47) 0.000453 2301. 2837.
2830(47) 0.000453 2302. 2849.
2821(47) 0.000453 2302. 2861.
2891(48) 0.000434 2302. 2872.
2945(48) 0.000434 2302. 2882.
2902(48) 0.000434 2303. 2891.
2927(48) 0.000434 2303. 2898.
2885(48) 0.000434 2303. 2904.
2853(47) 0.000453 2304. 2909.
2873(48) 0.000434 2304. 2912.
2900(48) 0.000434 2304. 2914.
2831(47) 0.000453 2304. 2914.
2850(47) 0.000453 2305. 2913.
2924(48) 0.000434 2305. 2911.
2901(48) 0.000434 2305. 2907.
2868(48) 0.000434 2305. 2902.
2868(48) 0.000434 2306. 2897.
2819(47) 0.000453 2306. 2890.
2861(47) 0.000453 2306. 2883.
2892(48) 0.000434 2306. 2874.
2931(48) 0.000434 2306. 2865.
2873(48) 0.000434 2307. 2855.
2791(47) 0.000453 2307. 2845.
2747(47) 0.000453 2307. 2835.
2772(47) 0.000453 2307. 2824.
2837(47) 0.000453 2308. 2814.
2813(47) 0.000453 2308. 2804.
2798(47) 0.000453 2308. 2794.
2781(47) 0.000453 2308. 2784.
2732(46) 0.000473 2308. 2775.
2695(46) 0.000473 2309. 2766.
2694(46) 0.000473 2309. 2758.
2735(46) 0.000473 2309. 2750.
2763(47) 0.000453 2309. 2743.
2716(46) 0.000473 2309. 2736.
2746(47) 0.000453 2309. 2731.
2732(46) 0.000473 2310. 2726.
2710(46) 0.000473 2310. 2721.
2691(46) 0.000473 2310. 2717.
2647(46) 0.000473 2310. 2713.
2715(46) 0.000473 2310. 2710.
2722(46) 0.000473 2310. 2708.
2643(46) 0.000473 2310. 2705.
2657(46) 0.000473 2311. 2703.
2677(46) 0.000473 2311. 2701.
2719(46) 0.000473 2311. 2699.
2762(47) 0.000453 2311. 2698.
2777(47) 0.000453 2311. 2697.
2721(46) 0.000473 2311. 2696.
2711(46) 0.000473 2311. 2695.
2757(47) 0.000453 2311. 2695.
2742(46) 0.000473 2311. 2696.
2689(46) 0.000473 2312. 2695.
2725(46) 0.000473 2312. 2694.
2742(47) 0.000453 2312. 2693.
2760(47) 0.000453 2312. 2692.
2688(46) 0.000473 2312. 2691.
2670(46) 0.000473 2312. 2690.
2711(46) 0.000473 2312. 2690.
2710(46) 0.000473 2312. 2689.
2688(46) 0.000473 2312. 2688.
2753(47) 0.000453 2313. 2687.
2693(38) 0.000693 2313. 2686.
2673(46) 0.000473 2313. 2684.
2678(46) 0.000473 2313. 2683.
2657(46) 0.000473 2313. 2683.
2665(46) 0.000473 2313. 2682.
2702(46) 0.000473 2313. 2681.
2650(46) 0.000473 2313. 2680.
2666(46) 0.000473 2313. 2679.
2717(46) 0.000473 2314. 2678.
2679(46) 0.000473 2314. 2678.
2655(46) 0.000473 2314. 2677.
2664(46) 0.000473 2314. 2677.
2624(46) 0.000473 2314. 2677.
2689(46) 0.000473 2314. 2677.
2741(47) 0.000453 2314. 2677.
2689(46) 0.000473 2314. 2677.
2669(46) 0.000473 2315. 2677.
2679(46) 0.000473 2315. 2678.
2679(46) 0.000473 2315. 2678.
2711(46) 0.000473 2315. 2679.
2710(46) 0.000473 2315. 2680.
2699(46) 0.000473 2315. 2681.
2660(46) 0.000473 2316. 2682.
2659(46) 0.000473 2316. 2684.
2676(46) 0.000473 2316. 2685.
2710(46) 0.000473 2316. 2687.
2740(46) 0.000473 2316. 2689.
2743(47) 0.000453 2317. 2691.
2707(46) 0.000473 2317. 2693.
2694(46) 0.000473 2317. 2692.
2637(46) 0.000473 2317. 2694.
2638(46) 0.000473 2318. 2697.
2656(46) 0.000473 2318. 2700.
2653(46) 0.000473 2318. 2702.
2666(46) 0.000473 2318. 2705.
2661(46) 0.000473 2319. 2708.
2691(46) 0.000473 2319. 2710.
2698(46) 0.000473 2319. 2713.
2674(46) 0.000473 2320. 2716.
2682(46) 0.000473 2320. 2718.
2717(46) 0.000473 2320. 2721.
2763(47) 0.000453 2321. 2723.
2745(47) 0.000453 2321. 2725.
2717(46) 0.000473 2322. 2728.
2705(46) 0.000473 2322. 2730.
2693(46) 0.000473 2323. 2732.
2737(46) 0.000473 2323. 2734.
2757(47) 0.000453 2324. 2736.
2721(46) 0.000473 2324. 2737.
2732(46) 0.000473 2325. 2739.
2757(47) 0.000453 2325. 2741.
2731(46) 0.000473 2326. 2742.
2728(46) 0.000473 2326. 2743.
2725(46) 0.000473 2327. 2744.
2809(47) 0.000453 2328. 2745.
2807(47) 0.000453 2328. 2746.
2759(47) 0.000453 2329. 2747.
2729(46) 0.000473 2330. 2748.
2777(47) 0.000453 2330. 2748.
2809(47) 0.000453 2331. 2748.
2784(47) 0.000453 2332. 2748.
2721(46) 0.000473 2333. 2748.
2714(46) 0.000473 2334. 2747.
2779(47) 0.000453 2334. 2747.
2820(47) 0.000453 2335. 2746.
2775(47) 0.000453 2336. 2744.
2724(46) 0.000473 2337. 2743.
2760(47) 0.000453 2338. 2741.
2803(47) 0.000453 2339. 2739.
2808(47) 0.000453 2340. 2737.
2750(47) 0.000453 2341. 2734.
2663(46) 0.000473 2342. 2731.
2671(46) 0.000473 2343. 2727.
2716(46) 0.000473 2345. 2724.
2695(46) 0.000473 2346. 2719.
2659(46) 0.000473 2347. 2715.
2702(46) 0.000473 2348. 2710.
2737(46) 0.000473 2350. 2705.
2731(46) 0.000473 2351. 2699.
2676(46) 0.000473 2352. 2694.
2624(46) 0.000473 2354. 2688.
2637(46) 0.000473 2355. 2682.
2620(45) 0.000494 2357. 2675.
2653(46) 0.000473 2358. 2668.
2668(46) 0.000473 2360. 2662.
2657(46) 0.000473 2361. 2655.
2654(46) 0.000473 2363. 2648.
2651(46) 0.000473 2365. 2641.
2624(46) 0.000473 2366. 2634.
2570(45) 0.000494 2368. 2627.
2583(45) 0.000494 2370. 2623.
2591(45) 0.000494 2372. 2616.
2655(46) 0.000473 2374. 2609.
2580(45) 0.000494 2376. 2602.
2557(45) 0.000494 2378. 2596.
2613(45) 0.000494 2380. 2589.
2602(45) 0.000494 2382. 2583.
2582(45) 0.000494 2384. 2577.
2567(45) 0.000494 2386. 2572.
2585(45) 0.000494 2388. 2566.
2530(46) 0.000473 2391. 2561.
2563(46) 0.000473 2393. 2557.
2583(46) 0.000473 2395. 2552.
2537(46) 0.000473 2398. 2548.
2502(45) 0.000494 2400. 2544.
2554(46) 0.000473 2403. 2541.
2509(46) 0.000473 2405. 2538.
2544(46) 0.000473 2408. 2535.
2564(46) 0.000473 2410. 2533.
2547(46) 0.000473 2413. 2531.
2542(46) 0.000473 2416. 2529.
2529(46) 0.000473 2419. 2528.
2549(46) 0.000473 2422. 2527.
2591(46) 0.000473 2425. 2527.
2501(46) 0.000473 2428. 2527.
2475(45) 0.000494 2431. 2527.
2511(46) 0.000473 2434. 2527.
2505(46) 0.000473 2437. 2528.
2561(46) 0.000473 2440. 2529.
2606(46) 0.000473 2443. 2531.
2502(46) 0.000473 2447. 2532.
2579(46) 0.000473 2450. 2535.
2593(46) 0.000473 2454. 2537.
2604(46) 0.000473 2457. 2539.
2546(46) 0.000473 2461. 2542.
2578(46) 0.000473 2464. 2545.
2561(46) 0.000473 2468. 2549.
2577(46) 0.000473 2472. 2552.
2562(46) 0.000473 2476. 2556.
2574(46) 0.000473 2480. 2560.
2581(46) 0.000473 2483. 2564.
2605(46) 0.000473 2487. 2568.
2572(46) 0.000473 2492. 2573.
2551(46) 0.000473 2496. 2578.
2560(46) 0.000473 2500. 2582.
2592(46) 0.000473 2504. 2587.
2573(46) 0.000473 2508. 2593.
2568(46) 0.000473 2513. 2598.
2676(47) 0.000453 2517. 2604.
2626(47) 0.000453 2522. 2609.
2572(46) 0.000473 2526. 2615.
2582(46) 0.000473 2531. 2621.
2613(46) 0.000473 2536. 2627.
2594(46) 0.000473 2540. 2634.
2580(46) 0.000473 2545. 2640.
2551(46) . . .
2586(46) . . .
2637(47) . . .
2689(47) . . .
2688(47) . . .
2650(47) . . .
2705(47) . . .
2693(47) . . .
2645(47) . . .
2600(46) . . .
2638(47) . . .
2619(46) . . .
2586(46) . . .
2670(47) . . .
2650(47) . . .
2588(46) . . .
2670(47) . . .
2691(47) . . .
2681(47) . . .
2723(47) . . .
2772(48) . . .
2763(48) . . .
2754(48) . . .
2742(48) . . .
2746(48) . . .
2767(48) . . .
2733(47) . . .
2800(48) . . .
2827(48) . . .
2823(48) . . .
2805(48) . . .
2761(48) . . .
2782(48) . . .
2875(49) . . .
2961(49) . . .
2959(49) . . .
2921(49) . . .
2985(49) . . .
3024(50) . . .
3074(50) . . .
3059(50) . . .
3065(50) . . .
3128(51) . . .
3115(50) . . .
3117(50) . . .
3207(51) . . .
3252(52) . . .
3260(52) . . .
3264(52) . . .
3284(52) . . .
3302(52) . . .
3379(52) . . .
3430(53) . . .
3480(53) . . .
3446(53) . . .
3400(76) . . .
3535(77) . . .
3684(79) . . .
3666(79) . . .
3684(79) . . .
3631(78) . . .
3704(79) . . .
3774(80) . . .
3827(80) . . .
3869(81) . . .
3954(81) . . .
3876(81) . . .
3858(80) . . .
4107(83) . . .
4121(83) . . .
4179(83) . . .
4376(85) . . .
4301(85) . . .
4301(85) . . .
4330(85) . . .
4436(86) . . .
4461(86) . . .
4593(87) . . .
4711(88) . . .
4611(87) . . .
4692(88) . . .
4702(88) . . .
4822(89) . . .
4804(89) . . .
4886(90) . . .
4947(90) . . .
5056(91) . . .
5003(91) . . .
5092(92) . . .
5111(92) . . .
5166(92) . . .
5068(91) . . .
5197(92) . . .
5120(92) . . .
5151(92) . . .
5008(91) . . .
5204(93) . . .
5091(92) . . .
5124(92) . . .
5178(92) . . .
5126(92) . . .
5116(92) . . .
5123(92) . . .
5117(92) . . .
5113(92) . . .
5083(92) . . .
5098(92) . . .
5146(92) . . .
5102(92) . . .
5082(91) . . .
5041(91) . . .
4985(91) . . .
4958(90) . . .
4886(90) . . .
4925(90) . . .
4917(90) . . .
4978(91) . . .
4784(89) . . .
4807(89) . . .
4695(88) . . .
4881(90) . . .
4717(88) . . .
4678(88) . . .
4810(89) . . .
4749(89) . . .
4832(89) . . .
4738(89) . . .
4611(87) . . .
4621(87) . . .
loop_
_refln_index_h
_refln_index_k
_refln_index_l
_pd_refln_phase_id
_refln_observed_status
_refln_F_squared_meas
_refln_F_squared_calc
_refln_phase_calc
_refln_d_spacing
_gsas_i100_meas
0 1 0 1 o 6.774 6.638 180.00 12.99488 94.86
1 1 0 1 o 0.654 0.529 180.00 7.50260 3.06
0 2 0 1 o 5.379 3.556 0.00 6.49744 18.94
1 2 0 1 o 8.530 6.771 0.00 4.91160 17.28
2 1 0 1 o 0.541 0.430 0.00 4.91160 1.10
0 3 0 1 o 0.000 1.368 180.00 4.33163 0.00
0 0 1 1 o 0.000 0.115 180.00 3.95456 0.00
0 1 1 1 o 1.409 2.682 0.00 3.78325 3.42
2 2 0 1 o 1.867 3.778 180.00 3.75130 2.23
3 1 0 1 o 9.491 8.601 180.00 3.60413 10.49
1 3 0 1 o 10.909 9.886 0.00 3.60413 12.05
1 1 1 1 o 15.359 10.834 180.00 3.49834 32.02
0 2 1 1 o 7.205 7.786 0.00 3.37807 14.04
0 4 0 1 o 2.729 1.326 180.00 3.24872 2.47
1 1 1 2 o 56.051 41.312 180.00 3.25941 5.40
1 2 1 1 o 0.849 0.682 0.00 3.08024 1.38
2 1 1 1 o 4.340 3.487 180.00 3.08024 7.08
2 3 0 1 o 8.309 5.617 0.00 2.98123 6.37
3 2 0 1 o 1.873 1.266 180.00 2.98123 1.43
0 3 1 1 o 39.359 40.603 0.00 2.92052 57.96
1 4 0 1 o 44.288 44.925 180.00 2.83572 30.84
4 1 0 1 o 95.476 96.849 0.00 2.83572 66.47
2 2 1 1 o 33.244 39.647 0.00 2.72159 42.81
3 1 1 1 o 53.300 54.379 180.00 2.66379 65.90
1 3 1 1 o 0.017 0.017 0.00 2.66379 0.02
0 5 0 1 o 9.261 6.648 180.00 2.59898 5.47
0 4 1 1 o 7.793 8.131 180.00 2.51027 8.62
3 3 0 1 o 13.308 14.014 180.00 2.50087 7.31
2 4 0 1 o 0.403 0.201 180.00 2.45580 0.21
4 2 0 1 o 1.321 0.660 180.00 2.45580 0.70
2 3 1 1 o 0.240 0.198 180.00 2.38055 0.24
3 2 1 1 o 16.341 13.443 180.00 2.38055 16.36
5 1 0 1 o 21.513 15.146 180.00 2.33395 10.38
1 5 0 1 o 1.879 1.323 180.00 2.33395 0.91
4 1 1 1 o 2.043 1.044 180.00 2.30447 1.93
1 4 1 1 o 1.580 0.807 180.00 2.30447 1.49
0 5 1 1 o 1.871 4.309 0.00 2.17191 1.58
0 6 0 1 o 0.837 1.462 0.00 2.16581 0.35
3 4 0 1 o 3.736 1.435 180.00 2.13635 1.53
4 3 0 1 o 0.544 0.209 0.00 2.13635 0.22
3 3 1 1 o 4.915 6.720 180.00 2.11367 3.95
4 2 1 1 o 12.850 13.499 0.00 2.08625 10.10
2 4 1 1 o 5.071 5.327 180.00 2.08625 3.98
5 2 0 1 o 56.130 58.147 0.00 2.08085 21.95
2 5 0 1 o 29.945 31.021 0.00 2.08085 11.71
1 5 1 1 o 0.627 0.529 0.00 2.00999 0.46
5 1 1 1 o 31.217 26.323 0.00 2.00999 22.93
2 2 0 2 o 0.000 0.000 180.00 1.99597 0.00
1 6 0 1 o 1.362 1.237 180.00 1.98170 0.49
6 1 0 1 o 24.846 22.571 180.00 1.98170 8.90
0 0 2 1 o 456.173 450.579 0.00 1.97728 54.21
0 1 2 1 o 10.182 18.403 180.00 1.95478 7.11
1 1 2 1 o 0.859 3.345 180.00 1.91199 0.58
0 6 1 1 o 78.338 84.305 180.00 1.89958 52.03
0 2 2 1 o 0.973 0.980 0.00 1.89163 0.64
3 4 1 1 o 14.542 13.979 180.00 1.87961 9.48
4 3 1 1 o 15.217 14.627 0.00 1.87961 9.92
4 4 0 1 o 26.802 27.958 180.00 1.87565 8.70
5 3 0 1 o 5.838 8.093 180.00 1.85641 1.86
3 5 0 1 o 0.077 0.106 180.00 1.85641 0.02
0 7 0 1 o 2.886 4.001 180.00 1.85641 0.92
5 2 1 1 o 58.951 56.601 180.00 1.84147 37.07
2 5 1 1 o 159.026 152.685 0.00 1.84147 100.00
2 1 2 1 o 0.051 0.046 0.00 1.83423 0.03
1 2 2 1 o 5.586 5.019 0.00 1.83423 3.49
2 6 0 1 o 0.018 0.014 0.00 1.80207 0.01
6 2 0 1 o 50.606 37.936 180.00 1.80207 15.32
0 3 2 1 o 1.768 1.778 180.00 1.79874 1.07
6 1 1 1 o 22.541 18.993 0.00 1.77169 13.25
1 6 1 1 o 1.647 1.388 180.00 1.77169 0.97
2 2 2 1 o 2.814 3.418 180.00 1.74917 1.62
3 1 2 1 o 8.899 8.613 180.00 1.73354 5.04
1 3 2 1 o 12.037 11.650 0.00 1.73354 6.82
7 1 0 1 o 44.997 42.376 0.00 1.72121 12.59
1 7 0 1 o 26.319 24.786 180.00 1.72121 7.36
4 4 1 1 o 0.721 0.798 0.00 1.69469 0.39
3 1 1 2 o 31.066 37.415 0.00 1.70217 2.71
0 4 2 1 o 0.880 0.641 180.00 1.68904 0.48
0 7 1 1 o 5.681 4.919 0.00 1.68046 3.05
5 3 1 1 o 0.026 0.022 180.00 1.68046 0.01
3 5 1 1 o 41.036 35.533 180.00 1.68046 22.04
5 4 0 1 o 9.466 9.084 0.00 1.66382 2.50
4 5 0 1 o 11.525 11.059 0.00 1.66382 3.04
3 2 2 1 o 0.497 0.711 180.00 1.64779 0.26
2 3 2 1 o 6.046 8.658 0.00 1.64779 3.14
2 6 1 1 o 34.741 36.494 180.00 1.63983 17.91
6 2 1 1 o 6.542 6.872 180.00 1.63983 3.37
3 6 0 1 o 10.210 11.090 180.00 1.63720 2.63
6 3 0 1 o 10.498 11.402 0.00 1.63720 2.70
0 8 0 1 o 1.749 1.819 0.00 1.62436 0.44
4 1 2 1 o 94.043 96.193 0.00 1.62192 47.60
1 4 2 1 o 32.015 32.746 180.00 1.62192 16.20
2 2 2 2 o 128.826 147.816 0.00 1.62970 3.48
2 7 0 1 o 7.255 8.736 0.00 1.58758 1.77
7 2 0 1 o 0.196 0.236 180.00 1.58758 0.05
7 1 1 1 o 3.873 6.488 0.00 1.57821 1.87
1 7 1 1 o 0.217 0.363 180.00 1.57821 0.10
0 5 2 1 o 1.566 3.190 180.00 1.57363 0.75
3 3 2 1 o 6.997 9.153 180.00 1.55105 3.29
4 2 2 1 o 0.000 0.140 180.00 1.54012 0.00
2 4 2 1 o 0.000 0.215 0.00 1.54012 0.00
4 5 1 1 o 0.726 1.326 0.00 1.53361 0.34
5 4 1 1 o 0.932 1.702 0.00 1.53361 0.43
8 1 0 1 o 15.781 15.242 0.00 1.52094 3.60
1 8 0 1 o 4.905 4.738 0.00 1.52094 1.12
6 3 1 1 o 31.420 30.299 0.00 1.51269 14.20
3 6 1 1 o 0.001 0.001 180.00 1.51269 0.00
5 1 2 1 o 11.255 10.601 180.00 1.50866 5.06
1 5 2 1 o 0.031 0.030 180.00 1.50866 0.01
0 8 1 1 o 0.054 0.048 0.00 1.50254 0.02
5 5 0 1 o 3.809 3.790 180.00 1.50052 0.85
6 4 0 1 o 22.074 22.364 0.00 1.49062 4.87
4 6 0 1 o 4.631 4.692 180.00 1.49062 1.02
2 7 1 1 o 0.906 0.706 180.00 1.47329 0.39
7 2 1 1 o 20.613 16.076 180.00 1.47329 8.93
3 7 0 1 o 0.271 0.191 180.00 1.46204 0.06
7 3 0 1 o 20.398 14.382 0.00 1.46204 4.37
0 6 2 1 o 5.373 3.720 0.00 1.46026 2.30
3 4 2 1 o 0.404 0.253 180.00 1.45113 0.17
4 3 2 1 o 1.396 0.876 0.00 1.45113 0.59
0 9 0 1 o 30.481 28.763 180.00 1.44388 6.40
5 2 2 1 o 65.252 58.889 0.00 1.43336 27.10
2 5 2 1 o 40.971 36.976 0.00 1.43336 17.01
1 8 1 1 o 2.396 2.282 180.00 1.41956 0.98
8 1 1 1 o 1.175 1.119 0.00 1.41956 0.48
8 2 0 1 o 15.120 15.649 180.00 1.41786 3.09
2 8 0 1 o 4.143 4.287 0.00 1.41786 0.85
4 0 0 2 o 128.518 140.671 0.00 1.41136 2.07
5 5 1 1 o 6.615 7.557 0.00 1.40292 2.66
1 6 2 1 o 0.124 0.153 180.00 1.39971 0.05
6 1 2 1 o 14.966 18.458 180.00 1.39971 5.99
4 6 1 1 o 0.062 0.355 0.00 1.39482 0.02
6 4 1 1 o 0.001 0.004 180.00 1.39482 0.00
3 7 1 1 o 4.679 7.289 0.00 1.37132 1.82
7 3 1 1 o 4.527 7.053 180.00 1.37132 1.76
9 1 0 1 o 8.631 9.450 0.00 1.36223 1.66
1 9 0 1 o 6.191 6.779 180.00 1.36223 1.19
6 5 0 1 o 0.348 0.381 0.00 1.36223 0.07
5 6 0 1 o 28.950 31.698 180.00 1.36223 5.57
4 4 2 1 o 21.748 23.582 180.00 1.36079 8.35
0 9 1 1 o 22.636 25.096 0.00 1.35630 8.65
3 5 2 1 o 0.005 0.005 0.00 1.35339 0.00
0 7 2 1 o 1.981 2.192 180.00 1.35339 0.76
5 3 2 1 o 7.086 7.839 180.00 1.35339 2.70
7 4 0 1 o 44.757 42.265 180.00 1.34751 8.48
4 7 0 1 o 72.243 68.220 0.00 1.34751 13.68
8 2 1 1 o 0.486 0.427 0.00 1.33467 0.18
2 8 1 1 o 1.390 1.223 0.00 1.33467 0.52
6 2 2 1 o 40.609 40.035 180.00 1.33190 15.12
2 6 2 1 o 0.259 0.255 0.00 1.33190 0.10
8 3 0 1 o 8.950 11.125 0.00 1.31943 1.64
3 8 0 1 o 2.164 2.690 180.00 1.31943 0.40
0 0 3 1 o 1.211 2.587 180.00 1.31819 0.07
0 1 3 1 o 0.000 0.029 0.00 1.31146 0.00
0 10 0 1 o 0.070 0.070 180.00 1.29949 0.01
1 1 3 1 o 20.695 20.620 180.00 1.29830 7.43
7 1 2 1 o 37.558 37.372 0.00 1.29824 13.49
1 7 2 1 o 20.076 19.977 180.00 1.29824 7.21
3 3 1 2 o 34.827 33.885 0.00 1.29516 1.98
0 2 3 1 o 2.011 1.986 0.00 1.29187 0.72
6 5 1 1 o 2.817 2.950 180.00 1.28796 1.00
1 9 1 1 o 37.439 39.198 180.00 1.28796 13.31
9 1 1 1 o 1.948 2.040 0.00 1.28796 0.69
5 6 1 1 o 3.559 3.726 180.00 1.28796 1.26
2 9 0 1 o 10.797 11.194 180.00 1.28042 1.90
9 2 0 1 o 2.152 2.231 180.00 1.28042 0.38
7 4 1 1 o 1.025 0.951 0.00 1.27549 0.36
4 7 1 1 o 40.522 37.613 180.00 1.27549 14.21
2 1 3 1 o 6.700 5.610 180.00 1.27313 2.34
1 2 3 1 o 0.000 0.000 180.00 1.27313 0.00
5 4 2 1 o 8.563 7.125 0.00 1.27307 3.00
4 5 2 1 o 13.702 11.401 0.00 1.27307 4.79
0 3 3 1 o 29.185 32.153 0.00 1.26108 10.08
6 3 2 1 o 5.385 5.926 0.00 1.26103 1.86
3 6 2 1 o 8.152 8.971 180.00 1.26103 2.82
0 8 2 1 o 1.886 2.064 0.00 1.25513 0.65
3 8 1 1 o 34.937 34.507 0.00 1.25160 11.95
8 3 1 1 o 0.166 0.164 0.00 1.25160 0.06
6 6 0 1 o 70.894 66.394 0.00 1.25043 12.11
5 7 0 1 o 30.624 30.520 180.00 1.24468 5.20
7 5 0 1 o 1.203 1.199 0.00 1.24468 0.20
2 2 3 1 o 35.759 36.666 0.00 1.24364 12.13
3 1 3 1 o 45.725 40.639 180.00 1.23798 15.41
1 3 3 1 o 0.015 0.014 0.00 1.23798 0.01
7 2 2 1 o 2.315 2.052 180.00 1.23793 0.78
2 7 2 1 o 11.610 10.291 0.00 1.23793 3.91
0 10 1 1 o 11.855 9.263 180.00 1.23454 3.98
10 1 0 1 o 0.820 0.637 180.00 1.23342 0.14
1 10 0 1 o 16.929 13.142 0.00 1.23342 2.84
8 4 0 1 o 10.156 10.082 0.00 1.22790 1.69
4 8 0 1 o 22.428 22.263 180.00 1.22790 3.74
0 4 3 1 o 5.733 4.498 180.00 1.22147 1.90
2 9 1 1 o 10.649 6.877 180.00 1.21816 3.52
9 2 1 1 o 0.006 0.004 0.00 1.21816 0.00
8 1 2 1 o 9.291 10.741 0.00 1.20554 3.03
1 8 2 1 o 4.920 5.688 0.00 1.20554 1.60
3 2 3 1 o 5.472 6.358 180.00 1.20559 1.78
2 3 3 1 o 0.004 0.005 0.00 1.20559 0.00
3 9 0 1 o 0.512 0.519 0.00 1.20138 0.08
9 3 0 1 o 161.711 163.798 0.00 1.20138 26.26
4 1 3 1 o 0.001 0.002 0.00 1.19535 0.00
1 4 3 1 o 0.195 0.217 180.00 1.19535 0.06
5 5 2 1 o 4.534 5.049 180.00 1.19530 1.46
6 6 1 1 o 23.172 25.801 0.00 1.19225 7.46
6 4 2 1 o 12.326 13.456 0.00 1.19028 3.96
4 6 2 1 o 3.520 3.843 180.00 1.19028 1.13
7 5 1 1 o 3.199 3.327 180.00 1.18726 1.02
5 7 1 1 o 0.497 0.517 0.00 1.18726 0.16
0 11 0 1 o 7.379 7.967 0.00 1.18135 1.17
1 10 1 1 o 62.041 66.133 0.00 1.17748 19.67
10 1 1 1 o 7.698 8.206 180.00 1.17748 2.44
0 5 3 1 o 6.570 7.070 0.00 1.17562 2.08
7 3 2 1 o 5.154 5.550 0.00 1.17557 1.63
3 7 2 1 o 0.000 0.000 180.00 1.17557 0.00
8 4 1 1 o 2.823 3.209 0.00 1.17267 0.89
4 8 1 1 o 22.256 25.301 0.00 1.17267 7.02
2 10 0 1 o 0.650 0.697 180.00 1.16698 0.10
10 2 0 1 o 29.055 31.133 180.00 1.16698 4.56
3 3 3 1 o 3.079 3.257 180.00 1.16611 0.97
0 9 2 1 o 26.568 28.107 180.00 1.16607 8.33
2 4 3 1 o 2.121 2.350 180.00 1.16145 0.66
4 2 3 1 o 16.625 18.427 0.00 1.16145 5.19
7 6 0 1 o 4.414 3.684 0.00 1.15311 0.68
6 7 0 1 o 3.269 2.728 0.00 1.15311 0.51
4 2 2 2 o 0.000 0.000 180.00 1.15237 0.00
2 8 2 1 o 6.653 5.706 0.00 1.15224 2.06
8 2 2 1 o 29.241 25.082 180.00 1.15224 9.05
9 3 1 1 o 17.782 17.154 0.00 1.14950 5.49
3 9 1 1 o 52.323 50.476 180.00 1.14950 16.15
1 5 3 1 o 1.738 1.772 0.00 1.14777 0.54
5 1 3 1 o 29.392 29.964 0.00 1.14777 9.05
8 5 0 1 o 31.895 34.078 180.00 1.14414 4.90
5 8 0 1 o 10.904 11.650 0.00 1.14414 1.67
0 11 1 1 o 0.222 1.488 0.00 1.13193 0.07
1 11 0 1 o 8.416 7.995 0.00 1.12680 1.27
4 9 0 1 o 10.520 9.995 180.00 1.12680 1.59
9 4 0 1 o 5.491 5.217 180.00 1.12680 0.83
11 1 0 1 o 0.006 0.005 180.00 1.12680 0.00
0 6 3 1 o 74.478 69.594 180.00 1.12602 22.48
3 4 3 1 o 9.122 8.559 180.00 1.12182 2.74
4 3 3 1 o 16.232 15.229 0.00 1.12182 4.88
5 6 2 1 o 34.978 32.806 180.00 1.12178 10.52
9 1 2 1 o 6.414 6.015 0.00 1.12178 1.93
6 5 2 1 o 0.043 0.041 180.00 1.12178 0.01
1 9 2 1 o 5.926 5.558 180.00 1.12178 1.78
2 10 1 1 o 6.720 6.162 180.00 1.11926 2.02
10 2 1 1 o 3.920 3.595 0.00 1.11926 1.18
5 2 3 1 o 48.787 48.939 180.00 1.11355 14.56
2 5 3 1 o 158.313 158.808 0.00 1.11355 47.25
4 7 2 1 o 68.849 69.052 0.00 1.11351 20.55
7 4 2 1 o 57.385 57.554 180.00 1.11351 17.13
6 7 1 1 o 3.840 3.278 0.00 1.10701 1.14
7 6 1 1 o 0.663 0.566 180.00 1.10701 0.20
10 3 0 1 o 41.922 42.824 180.00 1.10221 6.20
3 10 0 1 o 2.461 2.514 0.00 1.10221 0.36
5 8 1 1 o 57.346 59.719 180.00 1.09906 16.91
8 5 1 1 o 0.090 0.094 0.00 1.09906 0.03
6 1 3 1 o 16.390 17.732 0.00 1.09755 4.82
1 6 3 1 o 0.130 0.141 180.00 1.09755 0.04
8 3 2 1 o 3.394 3.674 0.00 1.09751 1.00
3 8 2 1 o 0.959 1.038 180.00 1.09751 0.28
5 1 1 2 o 52.596 30.688 180.00 1.08647 2.44
3 3 3 2 o 52.596 30.688 180.00 1.08647 0.81
0 10 2 1 o 0.240 0.142 180.00 1.08596 0.07
9 4 1 1 o 0.052 0.046 180.00 1.08367 0.02
11 1 1 1 o 31.839 28.032 0.00 1.08367 9.27
4 9 1 1 o 3.692 3.250 0.00 1.08367 1.07
1 11 1 1 o 5.496 4.839 180.00 1.08367 1.60
0 12 0 1 o 3.734 3.544 180.00 1.08291 0.54
4 4 3 1 o 0.585 0.617 0.00 1.07848 0.17
5 3 3 1 o 0.165 0.172 180.00 1.07479 0.05
0 7 3 1 o 4.846 5.048 0.00 1.07479 1.40
3 5 3 1 o 23.203 24.169 180.00 1.07479 6.70
2 9 2 1 o 7.623 7.940 180.00 1.07476 2.20
9 2 2 1 o 5.510 5.739 180.00 1.07476 1.59
2 11 0 1 o 62.764 66.859 180.00 1.07180 9.05
11 2 0 1 o 55.804 59.445 0.00 1.07180 8.05
7 7 0 1 o 21.166 22.547 180.00 1.07180 3.05
8 6 0 1 o 11.667 11.919 0.00 1.06817 1.68
6 8 0 1 o 9.114 9.311 0.00 1.06817 1.31
2 6 3 1 o 21.308 21.590 180.00 1.06393 6.11
6 2 3 1 o 7.082 7.176 180.00 1.06393 2.03
3 10 1 1 o 6.279 6.692 0.00 1.06174 1.80
10 3 1 1 o 0.209 0.222 0.00 1.06174 0.06
9 5 0 1 o 1.487 1.475 0.00 1.05751 0.21
5 9 0 1 o 2.428 2.408 180.00 1.05751 0.35
6 6 2 1 o 53.508 53.966 0.00 1.05683 15.26
7 5 2 1 o 0.028 0.034 0.00 1.05336 0.01
5 7 2 1 o 24.479 29.534 180.00 1.05336 6.96
1 7 3 1 o 0.002 0.002 180.00 1.04653 0.00
7 1 3 1 o 4.825 4.417 0.00 1.04653 1.37
1 10 2 1 o 14.385 13.155 0.00 1.04650 4.07
10 1 2 1 o 1.567 1.433 180.00 1.04650 0.44
0 12 1 1 o 1.706 1.545 180.00 1.04445 0.48
4 8 2 1 o 18.320 16.901 180.00 1.04313 5.17
8 4 2 1 o 4.298 3.965 0.00 1.04313 1.21
4 10 0 1 o 23.020 22.725 0.00 1.04042 3.25
10 4 0 1 o 12.643 12.481 0.00 1.04042 1.78
1 12 0 1 o 7.774 8.605 0.00 1.03710 1.09
12 1 0 1 o 11.531 12.764 180.00 1.03710 1.62
2 11 1 1 o 0.006 0.007 0.00 1.03448 0.00
11 2 1 1 o 62.460 71.538 180.00 1.03448 17.54
7 7 1 1 o 2.361 2.704 0.00 1.03448 0.66
5 4 3 1 o 0.338 0.388 0.00 1.03322 0.09
4 5 3 1 o 0.877 1.006 0.00 1.03322 0.25
6 8 1 1 o 1.532 1.700 0.00 1.03122 0.43
8 6 1 1 o 0.019 0.021 0.00 1.03122 0.01
3 6 3 1 o 0.320 0.314 0.00 1.02675 0.09
6 3 3 1 o 21.505 21.152 0.00 1.02675 6.01
9 3 2 1 o 131.679 129.454 0.00 1.02672 36.81
3 9 2 1 o 1.868 1.836 0.00 1.02672 0.52
0 8 3 1 o 0.003 0.002 0.00 1.02356 0.00
9 5 1 1 o 0.036 0.026 180.00 1.02161 0.01
5 9 1 1 o 7.876 5.723 180.00 1.02161 2.20
11 3 0 1 o 1.741 1.123 180.00 1.01784 0.24
3 11 0 1 o 1.369 0.883 0.00 1.01784 0.19
2 7 3 1 o 0.000 0.000 0.00 1.01416 0.00
7 2 3 1 o 22.786 18.422 180.00 1.01416 6.33
0 11 2 1 o 8.852 7.174 0.00 1.01413 2.46
4 10 1 1 o 71.162 71.579 0.00 1.00618 19.68
10 4 1 1 o 18.612 18.721 180.00 1.00618 5.15
2 10 2 1 o 0.119 0.119 180.00 1.00499 0.03
10 2 2 1 o 36.434 36.605 180.00 1.00499 10.07
12 1 1 1 o 0.148 0.141 0.00 1.00318 0.04
1 12 1 1 o 4.163 3.954 180.00 1.00318 1.15
4 4 0 2 o 133.509 115.380 0.00 0.99799 2.92
8 7 0 1 o 6.522 5.651 180.00 0.99961 0.90
7 8 0 1 o 0.208 0.180 180.00 0.99961 0.03
0 13 0 1 o 4.105 3.557 180.00 0.99961 0.57
8 1 3 1 o 0.159 0.132 0.00 0.99613 0.04
1 8 3 1 o 1.495 1.247 180.00 0.99613 0.41
7 6 2 1 o 2.421 2.018 0.00 0.99610 0.67
6 7 2 1 o 2.325 1.938 0.00 0.99610 0.64
6 9 0 1 o 25.474 24.036 180.00 0.99374 3.50
9 6 0 1 o 0.399 0.376 180.00 0.99374 0.05
2 12 0 1 o 0.004 0.004 0.00 0.99085 0.00
12 2 0 1 o 0.095 0.093 180.00 0.99085 0.01
5 5 3 1 o 3.651 3.545 0.00 0.99032 1.00
8 5 2 1 o 41.415 40.203 180.00 0.99030 11.38
5 8 2 1 o 12.509 12.143 0.00 0.99030 3.44
0 0 4 1 o 345.055 332.387 0.00 0.98864 15.79
4 6 3 1 o 0.249 0.236 0.00 0.98746 0.07
6 4 3 1 o 0.997 0.945 180.00 0.98746 0.27
0 1 4 1 o 23.953 21.893 180.00 0.98579 6.57
3 11 1 1 o 0.788 0.719 180.00 0.98571 0.22
11 3 1 1 o 21.202 19.354 0.00 0.98571 5.82
5 10 0 1 o 0.819 0.781 180.00 0.98232 0.11
10 5 0 1 o 5.191 4.950 0.00 0.98232 0.71
1 1 4 1 o 3.554 3.647 180.00 0.98017 0.97
7 3 3 1 o 10.778 11.381 180.00 0.97902 2.95
3 7 3 1 o 8.404 8.874 0.00 0.97902 2.30
11 1 2 1 o 0.044 0.047 180.00 0.97899 0.01
1 11 2 1 o 8.137 8.598 0.00 0.97899 2.23
9 4 2 1 o 8.685 9.178 180.00 0.97899 2.38
4 9 2 1 o 5.921 6.257 180.00 0.97899 1.62
0 2 4 1 o 0.766 0.839 0.00 0.97739 0.21
0 9 3 1 o 16.205 18.635 0.00 0.97351 4.43
1 2 4 1 o 4.997 5.297 0.00 0.96920 1.37
2 1 4 1 o 0.039 0.042 0.00 0.96920 0.01
7 8 1 1 o 7.907 8.387 180.00 0.96912 2.16
0 13 1 1 o 20.117 21.338 180.00 0.96912 5.50
8 7 1 1 o 24.591 26.083 180.00 0.96912 6.72
4 11 0 1 o 2.573 2.903 180.00 0.96590 0.35
11 4 0 1 o 0.217 0.245 0.00 0.96590 0.03
8 2 3 1 o 0.116 0.131 180.00 0.96541 0.03
2 8 3 1 o 2.144 2.412 0.00 0.96541 0.59
0 3 4 1 o 1.419 1.571 180.00 0.96385 0.39
9 6 1 1 o 43.194 47.744 0.00 0.96378 11.80
6 9 1 1 o 2.056 2.273 0.00 0.96378 0.56
10 3 2 1 o 44.922 49.582 180.00 0.96274 12.27
3 10 2 1 o 4.445 4.906 0.00 0.96274 1.21
12 2 1 1 o 18.315 20.665 0.00 0.96114 5.00
2 12 1 1 o 4.241 4.785 180.00 0.96114 1.16
13 1 0 1 o 0.562 0.639 0.00 0.96061 0.08
1 13 0 1 o 5.648 6.417 0.00 0.96061 0.77
5 3 1 2 o 29.543 27.793 0.00 0.95426 2.56
2 2 4 1 o 3.874 3.177 180.00 0.95600 1.06
1 3 4 1 o 12.769 12.166 0.00 0.95342 3.48
3 1 4 1 o 10.032 9.559 180.00 0.95342 2.74
10 5 1 1 o 0.036 0.035 180.00 0.95335 0.01
5 10 1 1 o 31.165 29.915 180.00 0.95335 8.51
0 12 2 1 o 2.921 3.116 180.00 0.94979 0.80
9 1 3 1 o 0.221 0.211 0.00 0.94729 0.06
5 6 3 1 o 4.945 4.705 180.00 0.94729 1.35
6 5 3 1 o 6.484 6.169 180.00 0.94729 1.77
1 9 3 1 o 33.340 31.722 180.00 0.94729 9.10
0 4 4 1 o 0.596 0.578 180.00 0.94581 0.16
3 12 0 1 o 7.998 7.888 180.00 0.94524 1.09
12 3 0 1 o 0.012 0.012 0.00 0.94524 0.00
4 4 2 2 o 0.000 0.000 0.00 0.94091 0.00
7 4 3 1 o 0.074 0.074 180.00 0.94229 0.02
4 7 3 1 o 33.614 33.545 180.00 0.94229 9.18
7 7 2 1 o 21.781 21.733 180.00 0.94227 5.95
11 2 2 1 o 53.037 52.920 0.00 0.94227 14.49
2 11 2 1 o 56.320 56.195 180.00 0.94227 15.38
8 6 2 1 o 10.631 10.281 0.00 0.93980 2.91
6 8 2 1 o 9.935 9.608 0.00 0.93980 2.71
3 2 4 1 o 1.226 1.148 180.00 0.93839 0.33
2 3 4 1 o 9.700 9.087 0.00 0.93839 2.65
11 4 1 1 o 0.007 0.006 180.00 0.93832 0.00
4 11 1 1 o 26.312 24.611 180.00 0.93832 7.19
8 8 0 1 o 22.472 20.878 0.00 0.93782 3.07
7 9 0 1 o 7.330 6.991 0.00 0.93539 1.00
9 7 0 1 o 11.795 11.250 180.00 0.93539 1.61
8 3 3 1 o 0.633 0.607 180.00 0.93254 0.17
3 8 3 1 o 36.411 34.915 0.00 0.93254 9.97
1 4 4 1 o 24.307 23.635 180.00 0.93353 6.65
4 1 4 1 o 76.107 74.003 0.00 0.93353 20.82
1 13 1 1 o 57.651 56.081 0.00 0.93346 15.78
13 1 1 1 o 9.978 9.706 0.00 0.93346 2.73
5 9 2 1 o 1.479 1.419 180.00 0.93252 0.40
9 5 2 1 o 0.718 0.689 0.00 0.93252 0.20
10 6 0 1 o 18.028 12.040 0.00 0.92821 2.47
0 14 0 1 o 2.209 1.475 180.00 0.92821 0.30
6 10 0 1 o 18.604 12.424 0.00 0.92821 2.55
0 10 3 1 o 12.916 9.837 180.00 0.92542 3.54
0 5 4 1 o 2.037 1.917 180.00 0.92404 0.56
13 2 0 1 o 5.184 5.913 0.00 0.92118 0.71
2 13 0 1 o 0.753 0.859 180.00 0.92118 0.10
10 4 2 1 o 7.726 8.781 0.00 0.92074 2.13
4 10 2 1 o 22.777 25.886 0.00 0.92074 6.27
3 3 4 1 o 6.301 7.209 180.00 0.91941 1.73
3 12 1 1 o 1.397 1.599 180.00 0.91934 0.38
12 3 1 1 o 0.771 0.882 180.00 0.91934 0.21
9 2 3 1 o 0.922 1.091 180.00 0.91846 0.25
2 9 3 1 o 3.098 3.663 180.00 0.91846 0.85
12 1 2 1 o 9.348 11.057 180.00 0.91843 2.57
1 12 2 1 o 8.224 9.727 0.00 0.91843 2.27
2 4 4 1 o 0.599 0.749 0.00 0.91711 0.17
4 2 4 1 o 0.140 0.175 180.00 0.91711 0.04
11 5 0 1 o 16.660 21.165 180.00 0.91659 2.30
5 11 0 1 o 4.807 6.107 180.00 0.91659 0.66
8 8 1 1 o 15.285 16.167 0.00 0.91252 4.23
1 5 4 1 o 0.105 0.107 0.00 0.91034 0.03
5 1 4 1 o 8.077 8.187 180.00 0.91034 2.24
9 7 1 1 o 13.395 13.570 180.00 0.91027 3.71
7 9 1 1 o 4.312 4.368 0.00 0.91027 1.19
6 6 3 1 o 17.564 19.338 0.00 0.90720 4.87
7 5 3 1 o 6.743 7.447 180.00 0.90499 1.87
5 7 3 1 o 0.615 0.680 0.00 0.90499 0.17
3 11 2 1 o 1.829 2.022 0.00 0.90497 0.51
11 3 2 1 o 1.373 1.518 180.00 0.90497 0.38
6 10 1 1 o 0.002 0.002 180.00 0.90365 0.00
0 14 1 1 o 26.202 26.386 180.00 0.90365 7.29
10 6 1 1 o 1.385 1.395 0.00 0.90365 0.39
12 4 0 1 o 2.281 2.146 180.00 0.90103 0.32
4 12 0 1 o 1.172 1.102 0.00 0.90103 0.16
1 10 3 1 o 69.609 66.643 0.00 0.90064 19.43
10 1 3 1 o 12.797 12.251 180.00 0.90064 3.57
0 6 4 1 o 4.657 4.704 0.00 0.89937 1.30
4 8 3 1 o 24.591 25.440 0.00 0.89848 6.88
8 4 3 1 o 0.231 0.239 0.00 0.89848 0.06
4 3 4 1 o 1.285 1.343 0.00 0.89722 0.36
3 4 4 1 o 0.043 0.045 180.00 0.89722 0.01
2 13 1 1 o 2.732 2.854 0.00 0.89716 0.77
13 2 1 1 o 3.573 3.733 0.00 0.89716 1.00
6 2 0 2 o 0.000 0.000 0.00 0.89263 0.00
1 14 0 1 o 1.974 1.965 0.00 0.89460 0.28
14 1 0 1 o 0.570 0.567 0.00 0.89460 0.08
5 2 4 1 o 53.415 51.262 0.00 0.89298 15.03
2 5 4 1 o 32.738 31.418 0.00 0.89298 9.21
5 11 1 1 o 11.654 11.169 0.00 0.89292 3.28
11 5 1 1 o 4.211 4.036 0.00 0.89292 1.19
7 8 2 1 o 0.014 0.014 180.00 0.89209 0.00
0 13 2 1 o 2.744 2.612 180.00 0.89209 0.77
8 7 2 1 o 4.702 4.476 180.00 0.89209 1.32
9 3 3 1 o 8.411 8.077 0.00 0.88793 2.38
3 9 3 1 o 42.435 40.750 180.00 0.88793 12.02
9 6 2 1 o 0.326 0.313 180.00 0.88791 0.09
6 9 2 1 o 21.023 20.181 180.00 0.88791 5.95
12 2 2 1 o 0.007 0.008 180.00 0.88585 0.00
2 12 2 1 o 0.199 0.212 0.00 0.88585 0.06
6 1 4 1 o 11.921 13.650 180.00 0.88466 3.39
1 6 4 1 o 0.021 0.024 180.00 0.88466 0.01
3 13 0 1 o 1.019 1.280 180.00 0.88215 0.15
13 3 0 1 o 1.680 2.110 180.00 0.88215 0.24
8 9 0 1 o 1.303 1.636 180.00 0.88215 0.19
9 8 0 1 o 15.642 19.646 180.00 0.88215 2.23
0 11 3 1 o 1.254 1.502 0.00 0.87975 0.36
5 10 2 1 o 0.347 0.416 180.00 0.87974 0.10
10 5 2 1 o 3.652 4.371 0.00 0.87974 1.05
12 4 1 1 o 20.700 23.016 180.00 0.87852 5.95
4 12 1 1 o 0.699 0.778 0.00 0.87852 0.20
10 7 0 1 o 0.195 0.212 0.00 0.87811 0.03
7 10 0 1 o 5.902 6.393 180.00 0.87811 0.85
4 4 4 1 o 19.333 18.041 180.00 0.87459 5.59
2 10 3 1 o 3.294 3.032 180.00 0.87377 0.95
10 2 3 1 o 1.076 0.991 0.00 0.87377 0.31
0 7 4 1 o 1.126 1.030 180.00 0.87261 0.33
5 3 4 1 o 6.416 5.870 180.00 0.87261 1.86
3 5 4 1 o 0.000 0.000 0.00 0.87261 0.00
14 1 1 1 o 12.202 11.163 180.00 0.87256 3.54
1 14 1 1 o 2.977 2.724 0.00 0.87256 0.86
6 11 0 1 o 0.072 0.065 0.00 0.87020 0.01
11 6 0 1 o 2.002 1.806 0.00 0.87020 0.29
7 6 3 1 o 1.622 1.483 180.00 0.86790 0.48
6 7 3 1 o 3.867 3.534 0.00 0.86790 1.13
11 4 2 1 o 0.204 0.187 0.00 0.86788 0.06
4 11 2 1 o 2.428 2.220 180.00 0.86788 0.71
2 6 4 1 o 0.051 0.048 0.00 0.86677 0.02
6 2 4 1 o 38.471 35.769 180.00 0.86677 11.30
0 15 0 1 o 12.594 11.810 180.00 0.86633 1.85
5 3 3 2 o 25.248 25.171 0.00 0.86092 1.19
8 5 3 1 o 0.496 0.485 180.00 0.86406 0.15
5 8 3 1 o 48.675 47.559 180.00 0.86406 14.39
13 1 2 1 o 1.225 1.197 0.00 0.86404 0.36
1 13 2 1 o 7.421 7.254 0.00 0.86404 2.19
9 8 1 1 o 0.186 0.188 0.00 0.86099 0.06
8 9 1 1 o 9.555 9.627 0.00 0.86099 2.85
13 3 1 1 o 12.371 12.464 180.00 0.86099 3.68
3 13 1 1 o 20.867 21.024 0.00 0.86099 6.21
14 2 0 1 o 47.776 48.454 180.00 0.86061 7.12
2 14 0 1 o 12.219 12.392 0.00 0.86061 1.82
5 12 0 1 o 6.608 6.775 0.00 0.85873 0.99
12 5 0 1 o 0.531 0.545 0.00 0.85873 0.08
1 7 4 1 o 17.390 17.253 180.00 0.85729 5.23
7 1 4 1 o 31.203 30.958 0.00 0.85729 9.38
10 7 1 1 o 14.147 14.014 180.00 0.85723 4.25
7 10 1 1 o 0.806 0.798 180.00 0.85723 0.24
4 9 3 1 o 4.601 4.494 0.00 0.85652 1.39
1 11 3 1 o 2.184 2.133 180.00 0.85652 0.66
9 4 3 1 o 1.021 0.998 180.00 0.85652 0.31
11 1 3 1 o 22.318 21.799 0.00 0.85652 6.72
6 2 2 2 o 94.954 99.444 0.00 0.85109 4.62
3 12 2 1 o 6.009 6.514 180.00 0.85280 1.83
12 3 2 1 o 0.085 0.092 0.00 0.85280 0.03
5 4 4 1 o 6.470 6.807 0.00 0.84992 1.99
4 5 4 1 o 10.423 10.966 0.00 0.84992 3.20
6 11 1 1 o 5.363 5.623 180.00 0.84987 1.65
11 6 1 1 o 0.414 0.434 180.00 0.84987 0.13
8 8 2 1 o 22.776 22.926 0.00 0.84735 7.06
3 6 4 1 o 8.433 8.652 180.00 0.84631 2.62
6 3 4 1 o 3.161 3.243 0.00 0.84631 0.98
0 15 1 1 o 1.006 1.033 0.00 0.84626 0.31
3 10 3 1 o 7.716 7.952 0.00 0.84557 2.41
10 3 3 1 o 0.003 0.003 180.00 0.84557 0.00
7 9 2 1 o 8.559 8.825 0.00 0.84555 2.67
9 7 2 1 o 8.649 8.918 180.00 0.84555 2.70
0 8 4 1 o 2.345 2.402 0.00 0.84452 0.73
13 4 0 1 o 15.765 16.078 0.00 0.84411 2.47
4 13 0 1 o 47.689 48.636 0.00 0.84411 7.48
2 14 1 1 o 52.848 52.433 180.00 0.84092 16.78
14 2 1 1 o 0.515 0.511 0.00 0.84092 0.16
6 10 2 1 o 13.607 13.396 0.00 0.84023 4.33
0 14 2 1 o 0.940 0.925 180.00 0.84023 0.30
10 6 2 1 o 13.181 12.977 0.00 0.84023 4.20
7 2 4 1 o 3.500 3.399 180.00 0.83922 1.12
2 7 4 1 o 8.126 7.890 0.00 0.83922 2.60
5 12 1 1 o 1.141 1.107 0.00 0.83917 0.36
12 5 1 1 o 12.720 12.347 180.00 0.83917 4.07
15 1 0 1 o 10.486 9.748 0.00 0.83707 1.69
1 15 0 1 o 0.051 0.048 0.00 0.83707 0.01
0 12 3 1 o 0.880 0.818 180.00 0.83676 0.28
2 13 2 1 o 0.501 0.483 180.00 0.83501 0.16
13 2 2 1 o 8.184 7.892 0.00 0.83501 2.67
9 9 0 1 o 25.153 25.319 0.00 0.83362 4.12
10 8 0 1 o 0.720 0.724 180.00 0.83191 0.12
8 10 0 1 o 8.545 8.601 180.00 0.83191 1.41
2 11 3 1 o 0.250 0.252 0.00 0.83160 0.08
7 7 3 1 o 2.218 2.232 0.00 0.83160 0.73
11 2 3 1 o 70.132 70.570 180.00 0.83160 23.22
11 5 2 1 o 18.548 18.657 180.00 0.83158 6.14
5 11 2 1 o 6.134 6.170 180.00 0.83158 2.03
6 8 3 1 o 2.685 2.733 0.00 0.82990 0.90
8 6 3 1 o 0.097 0.099 180.00 0.82990 0.03
8 1 4 1 o 8.523 8.757 0.00 0.82891 2.86
1 8 4 1 o 5.044 5.183 0.00 0.82891 1.69
14 3 0 1 o 5.385 5.429 180.00 0.82684 0.91
11 7 0 1 o 4.338 4.372 180.00 0.82684 0.74
7 11 0 1 o 3.164 3.190 180.00 0.82684 0.54
3 14 0 1 o 50.395 50.800 180.00 0.82684 8.56
5 5 4 1 o 4.196 4.072 180.00 0.82556 1.44
4 13 1 1 o 18.846 18.278 180.00 0.82551 6.45
13 4 1 1 o 88.528 85.861 0.00 0.82551 30.30
5 9 3 1 o 3.105 2.927 180.00 0.82487 1.07
9 5 3 1 o 0.409 0.386 180.00 0.82487 0.14
4 6 4 1 o 2.878 2.583 180.00 0.82390 0.99
6 4 4 1 o 10.823 9.713 0.00 0.82390 3.74
4 4 4 2 o 94.419 94.637 0.00 0.81485 1.84
12 4 2 1 o 1.429 1.436 180.00 0.81992 0.51
4 12 2 1 o 0.657 0.660 0.00 0.81992 0.23
3 7 4 1 o 0.013 0.013 0.00 0.81897 0.00
7 3 4 1 o 2.250 2.342 0.00 0.81897 0.80
1 15 1 1 o 6.037 6.306 0.00 0.81893 2.16
15 1 1 1 o 1.678 1.753 180.00 0.81893 0.60
6 12 0 1 o 9.598 10.057 180.00 0.81860 1.72
12 6 0 1 o 24.706 25.889 180.00 0.81860 4.42
10 4 3 1 o 18.385 18.606 180.00 0.81669 6.68
4 10 3 1 o 69.490 70.327 0.00 0.81669 25.24
0 9 4 1 o 22.676 22.711 180.00 0.81574 8.29
9 9 1 1 o 141.988 142.022 180.00 0.81570 51.96
12 1 3 1 o 0.127 0.128 0.00 0.81508 0.05
1 12 3 1 o 1.801 1.806 180.00 0.81508 0.66
14 1 2 1 o 1.164 1.168 0.00 0.81506 0.43
1 14 2 1 o 2.281 2.288 0.00 0.81506 0.84
8 10 1 1 o 1.493 1.507 0.00 0.81409 0.55
10 8 1 1 o 30.110 30.384 0.00 0.81409 11.16
0 16 0 1 o 0.001 0.001 0.00 0.81218 0.00
2 8 4 1 o 4.900 4.775 0.00 0.81096 1.87
8 2 4 1 o 26.824 26.137 180.00 0.81096 10.21
14 3 1 1 o 5.506 5.456 180.00 0.80934 2.13
7 11 1 1 o 4.805 4.761 180.00 0.80934 1.86
11 7 1 1 o 0.086 0.085 180.00 0.80934 0.03
3 14 1 1 o 1.110 1.100 0.00 0.80934 0.43
15 2 0 1 o 12.139 12.311 0.00 0.80746 2.39
2 15 0 1 o 16.613 16.848 180.00 0.80746 3.27
5 13 0 1 o 10.490 10.639 0.00 0.80746 2.07
13 5 0 1 o 6.944 7.043 0.00 0.80746 1.37
3 11 3 1 o 0.320 0.339 180.00 0.80562 0.13
11 3 3 1 o 16.064 17.017 0.00 0.80562 6.45
13 3 2 1 o 0.960 1.018 180.00 0.80561 0.39
3 13 2 1 o 1.453 1.540 180.00 0.80561 0.58
9 8 2 1 o 15.035 15.938 180.00 0.80561 6.04
8 9 2 1 o 0.754 0.799 180.00 0.80561 0.30
10 7 2 1 o 0.574 0.585 0.00 0.80253 0.24
7 10 2 1 o 4.720 4.803 180.00 0.80253 1.96
6 12 1 1 o 9.279 9.102 0.00 0.80161 3.91
12 6 1 1 o 1.482 1.454 0.00 0.80161 0.62
9 1 4 1 o 5.700 5.425 0.00 0.80013 2.45
1 9 4 1 o 4.923 4.686 180.00 0.80013 2.11
5 6 4 1 o 29.230 27.820 180.00 0.80013 12.55
6 5 4 1 o 0.141 0.134 180.00 0.80013 0.06
0 13 3 1 o 15.312 15.445 180.00 0.79649 6.93
7 8 3 1 o 6.303 6.357 180.00 0.79649 2.85
8 7 3 1 o 22.867 23.065 180.00 0.79649 10.35
7 4 4 1 o 55.677 55.535 180.00 0.79711 24.96
4 7 4 1 o 61.538 61.381 0.00 0.79711 27.58
11 6 2 1 o 2.646 2.671 0.00 0.79648 1.20
6 11 2 1 o 0.066 0.067 0.00 0.79648 0.03
7 1 1 2 o 22.836 22.796 0.00 0.79052 1.83
5 5 1 2 o 22.836 22.796 180.00 0.79052 1.83
0 16 1 1 o 8.547 8.682 180.00 0.79557 3.93
14 4 0 1 o 1.969 1.959 180.00 0.79379 0.47
4 14 0 1 o 21.846 21.737 180.00 0.79379 5.17
6 9 3 1 o 3.189 3.164 0.00 0.79352 1.52
9 6 3 1 o 41.804 41.477 0.00 0.79352 19.90
0 15 2 1 o 10.421 10.335 180.00 0.79350 4.96
2 12 3 1 o 3.540 3.498 180.00 0.79204 1.73
12 2 3 1 o 18.543 18.325 0.00 0.79204 9.08
3 8 4 1 o 0.375 0.373 180.00 0.79118 0.19
8 3 4 1 o 1.705 1.696 0.00 0.79118 0.85
15 2 1 1 o 10.663 10.611 0.00 0.79114 5.31
13 5 1 1 o 0.033 0.032 0.00 0.79114 0.02
2 15 1 1 o 8.569 8.527 0.00 0.79114 4.27
5 13 1 1 o 11.862 11.804 0.00 0.79114 5.91
0 0 5 1 o 0.017 0.017 180.00 0.79091 0.00
0 1 5 1 o 1.176 1.183 0.00 0.78945 0.61
10 9 0 1 o 0.839 0.844 180.00 0.78938 0.22
9 10 0 1 o 19.191 19.303 180.00 0.78938 4.97
14 2 2 1 o 39.966 40.168 180.00 0.78910 20.82
2 14 2 1 o 11.490 11.549 0.00 0.78910 5.99
10 5 3 1 o 0.014 0.014 180.00 0.78767 0.01
5 10 3 1 o 22.253 22.293 180.00 0.78767 12.00
5 12 2 1 o 4.772 4.781 0.00 0.78765 2.58
12 5 2 1 o 0.929 0.930 0.00 0.78765 0.50
0 10 4 1 o 0.078 0.079 180.00 0.78682 0.04
1 1 5 1 o 14.585 14.610 180.00 0.78655 8.10
16 1 0 1 o 9.747 9.762 0.00 0.78649 2.71
1 16 0 1 o 3.066 3.071 180.00 0.78649 0.85
11 8 0 1 o 57.337 57.428 0.00 0.78649 15.95
8 11 0 1 o 47.524 47.599 0.00 0.78649 13.22
0 2 5 1 o 2.208 2.168 0.00 0.78512 1.28
2 9 4 1 o 6.600 6.340 180.00 0.78253 4.16
9 2 4 1 o 5.842 5.612 180.00 0.78253 3.69
