#------------------------------------------------------------------------------
#$Date: 2021-06-30 10:08:34 +0300 (Wed, 30 Jun 2021) $
#$Revision: 266801 $
#$URL: file:///home/coder/svn-repositories/cod/cif/1/56/37/1563785.cif $
#------------------------------------------------------------------------------
#
# This file is available in the Crystallography Open Database (COD),
# http://www.crystallography.net/
#
# All data on this site have been placed in the public domain by the
# contributors.
#
data_1563785
loop_
_publ_author_name
'Zhang, Ying'
'Lin, Longzhen'
'Zeng, Hongmei'
'Zou, Guohong'
'Lin, Zhien'
_publ_section_title
;
 Organically templated metal sulfate-oxalates: Solvent-free synthesis,
 crystal structure, and proton conduction
;
_journal_name_full               'Journal of Solid State Chemistry'
_journal_page_first              1
_journal_page_last               5
_journal_paper_doi               10.1016/j.jssc.2019.04.031
_journal_volume                  276
_journal_year                    2019
_chemical_formula_moiety         'C2 O9 S V, C5 H14 N2'
_chemical_formula_sum            'C7 H14 N2 O9 S V'
_chemical_formula_weight         353.20
_space_group_crystal_system      triclinic
_space_group_IT_number           2
_space_group_name_Hall           '-P 1'
_space_group_name_H-M_alt        'P -1'
_atom_sites_solution_hydrogens   geom
_atom_sites_solution_primary     direct
_cell_angle_alpha                77.130(5)
_cell_angle_beta                 76.207(5)
_cell_angle_gamma                82.987(5)
_cell_formula_units_Z            2
_cell_length_a                   6.2031(4)
_cell_length_b                   8.6599(4)
_cell_length_c                   12.1853(7)
_cell_measurement_reflns_used    3759
_cell_measurement_temperature    293(2)
_cell_measurement_theta_max      72.2140
_cell_measurement_theta_min      5.2310
_cell_volume                     618.08(6)
_computing_cell_refinement
;
CrysAlisPro, Agilent Technologies,
Version 1.171.37.35 (release 13-08-2014 CrysAlis171 .NET)
(compiled Aug 13 2014,18:06:01)
;
_computing_data_collection
;
CrysAlisPro, Agilent Technologies,
Version 1.171.37.35 (release 13-08-2014 CrysAlis171 .NET)
(compiled Aug 13 2014,18:06:01)
;
_computing_data_reduction
;
CrysAlisPro, Agilent Technologies,
Version 1.171.37.35 (release 13-08-2014 CrysAlis171 .NET)
(compiled Aug 13 2014,18:06:01)
;
_computing_molecular_graphics    'Olex2 (Dolomanov et al., 2009)'
_computing_publication_material  'Olex2 (Dolomanov et al., 2009)'
_computing_structure_refinement  'ShelXL (Sheldrick, 2015)'
_computing_structure_solution    'ShelXT (Sheldrick, 2015)'
_diffrn_ambient_environment      air
_diffrn_ambient_temperature      293(2)
_diffrn_detector                 'CCD plate'
_diffrn_detector_area_resol_mean 15.9595
_diffrn_detector_type            EosS2
_diffrn_measured_fraction_theta_full 1.000
_diffrn_measured_fraction_theta_max 1.000
_diffrn_measurement_details
;
#__ type_ start__ end____ width___ exp.time_
  1 omega   23.00   90.00   1.0000    5.6500
omega____ theta____ kappa____ phi______ frames
    -       36.5421 -125.0000   60.0000 67

#__ type_ start__ end____ width___ exp.time_
  2 omega   20.00  104.00   1.0000    5.6500
omega____ theta____ kappa____ phi______ frames
    -       36.5421   57.0000   90.0000 84

#__ type_ start__ end____ width___ exp.time_
  3 omega   20.00  104.00   1.0000    5.6500
omega____ theta____ kappa____ phi______ frames
    -       36.5421   57.0000    0.0000 84

#__ type_ start__ end____ width___ exp.time_
  4 omega   20.00  104.00   1.0000    5.6500
omega____ theta____ kappa____ phi______ frames
    -       36.5421   57.0000  -30.0000 84

#__ type_ start__ end____ width___ exp.time_
  5 omega  -31.00   53.00   1.0000    5.6500
omega____ theta____ kappa____ phi______ frames
    -       36.5421  -57.0000  120.0000 84

#__ type_ start__ end____ width___ exp.time_
  6 omega    1.00   75.00   1.0000    5.6500
omega____ theta____ kappa____ phi______ frames
    -       36.5421  -99.0000   90.0000 74

#__ type_ start__ end____ width___ exp.time_
  7 omega  -33.00   55.00   1.0000    5.6500
omega____ theta____ kappa____ phi______ frames
    -       36.5421  -38.0000 -180.0000 88

#__ type_ start__ end____ width___ exp.time_
  8 omega   23.00   90.00   1.0000    5.6500
omega____ theta____ kappa____ phi______ frames
    -       36.5421 -125.0000  -90.0000 67

#__ type_ start__ end____ width___ exp.time_
  9 omega   39.00  109.00   1.0000   22.6100
omega____ theta____ kappa____ phi______ frames
    -      108.0000  -94.0000    0.0000 70

#__ type_ start__ end____ width___ exp.time_
 10 omega   40.00   98.00   1.0000   22.6100
omega____ theta____ kappa____ phi______ frames
    -      108.0000  -45.0000  150.0000 58

#__ type_ start__ end____ width___ exp.time_
 11 omega   38.00  116.00   1.0000   22.6100
omega____ theta____ kappa____ phi______ frames
    -      108.0000 -111.0000  -60.0000 78

#__ type_ start__ end____ width___ exp.time_
 12 omega   38.00  116.00   1.0000   22.6100
omega____ theta____ kappa____ phi______ frames
    -      108.0000 -111.0000  150.0000 78

#__ type_ start__ end____ width___ exp.time_
 13 omega   41.00  126.00   1.0000   22.6100
omega____ theta____ kappa____ phi______ frames
    -      108.0000  -61.0000  -90.0000 85

#__ type_ start__ end____ width___ exp.time_
 14 omega  100.00  178.00   1.0000   22.6100
omega____ theta____ kappa____ phi______ frames
    -      108.0000  111.0000    0.0000 78

#__ type_ start__ end____ width___ exp.time_
 15 omega   40.00   98.00   1.0000   22.6100
omega____ theta____ kappa____ phi______ frames
    -      108.0000  -45.0000 -150.0000 58

#__ type_ start__ end____ width___ exp.time_
 16 omega   37.00  146.00   1.0000   22.6100
omega____ theta____ kappa____ phi______ frames
    -      108.0000  -15.0000 -120.0000 109

#__ type_ start__ end____ width___ exp.time_
 17 omega   91.00  176.00   1.0000   22.6100
omega____ theta____ kappa____ phi______ frames
    -      108.0000   45.0000  150.0000 85

#__ type_ start__ end____ width___ exp.time_
 18 omega   38.00   91.00   1.0000   22.6100
omega____ theta____ kappa____ phi______ frames
    -      108.0000  -30.0000   30.0000 53

#__ type_ start__ end____ width___ exp.time_
 19 omega   41.00  126.00   1.0000   22.6100
omega____ theta____ kappa____ phi______ frames
    -      108.0000  -61.0000    0.0000 85

#__ type_ start__ end____ width___ exp.time_
 20 omega   70.00  178.00   1.0000   22.6100
omega____ theta____ kappa____ phi______ frames
    -      108.0000   15.0000   90.0000 108

#__ type_ start__ end____ width___ exp.time_
 21 omega   39.00  109.00   1.0000   22.6100
omega____ theta____ kappa____ phi______ frames
    -      108.0000  -94.0000 -180.0000 70

#__ type_ start__ end____ width___ exp.time_
 22 omega   38.00   91.00   1.0000   22.6100
omega____ theta____ kappa____ phi______ frames
    -      108.0000  -30.0000  120.0000 53

#__ type_ start__ end____ width___ exp.time_
 23 omega  100.00  178.00   1.0000   22.6100
omega____ theta____ kappa____ phi______ frames
    -      108.0000  111.0000  -60.0000 78

#__ type_ start__ end____ width___ exp.time_
 24 omega  -35.00   66.00   1.0000    5.6500
omega____ theta____ kappa____ phi______ frames
    -       36.5421  -19.0000  -90.0000 101

#__ type_ start__ end____ width___ exp.time_
 25 omega   10.00  104.00   1.0000    5.6500
omega____ theta____ kappa____ phi______ frames
    -       36.5421   77.0000 -150.0000 94

#__ type_ start__ end____ width___ exp.time_
 26 omega   20.00  104.00   1.0000    5.6500
omega____ theta____ kappa____ phi______ frames
    -       36.5421   57.0000  -90.0000 84

#__ type_ start__ end____ width___ exp.time_
 27 omega   10.00  104.00   1.0000    5.6500
omega____ theta____ kappa____ phi______ frames
    -       36.5421   77.0000    0.0000 94

#__ type_ start__ end____ width___ exp.time_
 28 omega  -33.00   55.00   1.0000    5.6500
omega____ theta____ kappa____ phi______ frames
    -       36.5421  -38.0000    0.0000 88

#__ type_ start__ end____ width___ exp.time_
 29 omega   20.00  104.00   1.0000    5.6500
omega____ theta____ kappa____ phi______ frames
    -       36.5421   57.0000  150.0000 84

#__ type_ start__ end____ width___ exp.time_
 30 omega   70.00  178.00   1.0000   22.6100
omega____ theta____ kappa____ phi______ frames
    -      108.0000   15.0000  -60.0000 108
;
_diffrn_measurement_device       'four-circle diffractometer'
_diffrn_measurement_device_type  'New Gemini, Dual, Cu at zero, EosS2'
_diffrn_measurement_method       '\w scans'
_diffrn_orient_matrix_UB_11      0.1378753000
_diffrn_orient_matrix_UB_12      0.0582027000
_diffrn_orient_matrix_UB_13      -0.1224414000
_diffrn_orient_matrix_UB_21      0.2152526000
_diffrn_orient_matrix_UB_22      -0.0373648000
_diffrn_orient_matrix_UB_23      0.0460515000
_diffrn_orient_matrix_UB_31      0.0200737000
_diffrn_orient_matrix_UB_32      -0.1693902000
_diffrn_orient_matrix_UB_33      -0.0233949000
_diffrn_radiation_monochromator  graphite
_diffrn_radiation_probe          x-ray
_diffrn_radiation_type           CuK\a
_diffrn_radiation_wavelength     1.54184
_diffrn_reflns_av_R_equivalents  0.0411
_diffrn_reflns_av_unetI/netI     0.0375
_diffrn_reflns_Laue_measured_fraction_full 1.000
_diffrn_reflns_Laue_measured_fraction_max 1.000
_diffrn_reflns_limit_h_max       7
_diffrn_reflns_limit_h_min       -7
_diffrn_reflns_limit_k_max       7
_diffrn_reflns_limit_k_min       -10
_diffrn_reflns_limit_l_max       14
_diffrn_reflns_limit_l_min       -14
_diffrn_reflns_number            6715
_diffrn_reflns_point_group_measured_fraction_full 1.000
_diffrn_reflns_point_group_measured_fraction_max 1.000
_diffrn_reflns_theta_full        67.079
_diffrn_reflns_theta_max         67.079
_diffrn_reflns_theta_min         5.253
_diffrn_source                   'Enhance (Cu) X-ray Source'
_exptl_absorpt_coefficient_mu    8.798
_exptl_absorpt_correction_T_max  1.00000
_exptl_absorpt_correction_T_min  0.56754
_exptl_absorpt_correction_type   multi-scan
_exptl_absorpt_process_details
;
CrysAlisPro, Agilent Technologies,
Version 1.171.37.35 (release 13-08-2014 CrysAlis171 .NET)
(compiled Aug 13 2014,18:06:01)
Empirical absorption correction using spherical harmonics,
 implemented in SCALE3 ABSPACK scaling algorithm.
;
_exptl_crystal_colour            'clear green'
_exptl_crystal_colour_lustre     clear
_exptl_crystal_colour_primary    green
_exptl_crystal_density_diffrn    1.898
_exptl_crystal_density_method    'not measured'
_exptl_crystal_description       block
_exptl_crystal_F_000             362
_exptl_crystal_size_max          0.28
_exptl_crystal_size_mid          0.24
_exptl_crystal_size_min          0.16
_refine_diff_density_max         0.484
_refine_diff_density_min         -0.499
_refine_diff_density_rms         0.105
_refine_ls_extinction_coef       .
_refine_ls_extinction_method     none
_refine_ls_goodness_of_fit_ref   1.058
_refine_ls_hydrogen_treatment    constr
_refine_ls_matrix_type           full
_refine_ls_number_parameters     182
_refine_ls_number_reflns         2216
_refine_ls_number_restraints     0
_refine_ls_restrained_S_all      1.058
_refine_ls_R_factor_all          0.0456
_refine_ls_R_factor_gt           0.0436
_refine_ls_shift/su_max          0.000
_refine_ls_shift/su_mean         0.000
_refine_ls_structure_factor_coef Fsqd
_refine_ls_weighting_details
'w=1/[\s^2^(Fo^2^)+(0.0832P)^2^+0.1135P] where P=(Fo^2^+2Fc^2^)/3'
_refine_ls_weighting_scheme      calc
_refine_ls_wR_factor_gt          0.1150
_refine_ls_wR_factor_ref         0.1179
_reflns_Friedel_coverage         0.000
_reflns_Friedel_fraction_full    .
_reflns_Friedel_fraction_max     .
_reflns_number_gt                2068
_reflns_number_total             2216
_reflns_threshold_expression     'I > 2\s(I)'
_iucr_refine_instructions_details
;

    1.res created by SHELXL-2014/7

TITL cc3-219-3_a.res in P-1
REM Old TITL cc3-219-3 in P-1 #2
REM SHELXT solution in P-1
REM R1 0.096, Rweak 0.007, Alpha 0.029, Orientation as input
REM Formula found by SHELXT: C8 N3 O7 S V
CELL 1.54184 6.203088 8.659899 12.185313 77.1303 76.2067 82.9872
ZERR 2 0.00038 0.000438 0.000688 0.0046 0.0051 0.0046
LATT 1
SFAC C H N O S V
UNIT 14 28 4 18 2 2
EQIV $1 1-X,1-Y,1-Z
EQIV $2 -X,1-Y,1-Z
 
L.S. 10
PLAN  20
TEMP 20(2)
HTAB N1 O2_$1
HTAB N1 O7_$1
HTAB N1 O4_$2
HTAB N2 O3
BOND $H
LIST 6
fmap 2
acta
SHEL 999 0.837
REM <olex2.extras>
REM <HklSrc "%.\\1.hkl">
REM </olex2.extras>
 
WGHT    0.083200    0.113500
FVAR       0.87615
V1    6    0.627844    0.194910    0.111589    11.00000    0.02596    0.01721 =
         0.02022   -0.00275   -0.00816   -0.00281
S1    5    0.408788    0.377499    0.318246    11.00000    0.02508    0.01970 =
         0.01797   -0.00249   -0.00484   -0.00373
O1    4    0.451713    0.234817    0.262332    11.00000    0.05145    0.02341 =
         0.02226   -0.00361   -0.00409   -0.00554
O2    4    0.595402    0.384530    0.368424    11.00000    0.05316    0.03730 =
         0.04759   -0.00284   -0.03234   -0.00687
O3    4    0.201699    0.352788    0.405433    11.00000    0.04606    0.03325 =
         0.03876   -0.00069    0.01014   -0.00486
O4    4    0.378167    0.521003    0.232320    11.00000    0.02864    0.02312 =
         0.02800   -0.00022   -0.00743   -0.00306
O5    4    0.436147    0.007191    0.145503    11.00000    0.03269    0.02010 =
         0.02076   -0.00341   -0.00309   -0.00833
O6    4    0.310954   -0.144879    0.051872    11.00000    0.03184    0.02446 =
         0.02196   -0.00645   -0.00171   -0.00879
O7    4    0.742925    0.415017    0.044299    11.00000    0.02014    0.01981 =
         0.02544   -0.00251   -0.00814   -0.00437
O8    4    0.656590    0.663304   -0.041023    11.00000    0.02349    0.02204 =
         0.02704   -0.00121   -0.00890   -0.00527
O9    4    0.853980    0.115524    0.144893    11.00000    0.04026    0.03081 =
         0.04640   -0.00223   -0.01843   -0.00114
C1    1    0.426249   -0.040083    0.057293    11.00000    0.02158    0.01611 =
         0.02214   -0.00351   -0.00263   -0.00073
C2    1    0.615142    0.524692    0.000599    11.00000    0.02146    0.02054 =
         0.01548   -0.00587   -0.00436   -0.00378
C3    1    0.181104    0.286500    0.801484    11.00000    0.02525    0.02840 =
         0.02703   -0.00612   -0.00927   -0.00540
AFIX  23
H3A   2    0.095776    0.212361    0.863614    11.00000   -1.20000
H3B   2    0.326301    0.287163    0.818093    11.00000   -1.20000
AFIX   0
C4    1    0.209442    0.230808    0.689266    11.00000    0.02414    0.02714 =
         0.02796   -0.01006   -0.00460   -0.00450
AFIX  23
H4A   2    0.317982    0.140168    0.688251    11.00000   -1.20000
H4B   2    0.267351    0.314994    0.625646    11.00000   -1.20000
AFIX   0
C5    1   -0.006187    0.184411    0.671476    11.00000    0.02273    0.02979 =
         0.02298   -0.00916   -0.00477   -0.00156
AFIX  23
H5A   2   -0.070641    0.106377    0.737991    11.00000   -1.20000
H5B   2   -0.110754    0.277231    0.665837    11.00000   -1.20000
AFIX   0
C6    1    0.154105   -0.042709    0.573685    11.00000    0.02660    0.02508 =
         0.02827   -0.00776   -0.01506    0.00363
AFIX  23
H6A   2    0.072018   -0.117483    0.636711    11.00000   -1.20000
H6B   2    0.297130   -0.035170    0.590573    11.00000   -1.20000
AFIX   0
C7    1   -0.189897    0.102861    0.537201    11.00000    0.02100    0.02838 =
         0.02824   -0.00899   -0.00905    0.00146
AFIX  23
H7A   2   -0.272490    0.205855    0.529444    11.00000   -1.20000
H7B   2   -0.276768    0.030258    0.599824    11.00000   -1.20000
AFIX   0
N1    3    0.065551    0.448967    0.797127    11.00000    0.02726    0.03673 =
         0.03231   -0.01571   -0.01136   -0.00137
AFIX 137
H1A   2    0.142803    0.517239    0.739859    11.00000   -1.20000
H1B   2    0.055341    0.478609    0.863692    11.00000   -1.20000
H1C   2   -0.070288    0.447778    0.785237    11.00000   -1.20000
AFIX   0
N2    3    0.028088    0.116771    0.564579    11.00000    0.01935    0.02169 =
         0.02043   -0.00532   -0.00462   -0.00154
AFIX  13
H2    2    0.113045    0.190078    0.500077    11.00000   -1.20000
AFIX   0
HKLF 4
 
REM  cc3-219-3_a.res in P-1
REM R1 =  0.0436 for    2068 Fo > 4sig(Fo)  and  0.0456 for all    2216 data
REM    182 parameters refined using      0 restraints
 
END  
     
WGHT      0.0832      0.1135 

REM Highest difference peak  0.484,  deepest hole -0.499,  1-sigma level  0.105
Q1    1   0.3828  0.4575  0.2611  11.00000  0.05    0.48
Q2    1   0.6482  0.1921  0.0255  11.00000  0.05    0.37
Q3    1   0.7971  0.1570  0.0832  11.00000  0.05    0.37
Q4    1   0.7342  0.1025  0.1153  11.00000  0.05    0.36
Q5    1   0.4388 -0.1386  0.0433  11.00000  0.05    0.36
Q6    1   0.4474  0.2911  0.2770  11.00000  0.05    0.35
Q7    1   0.7019  0.1202  0.1664  11.00000  0.05    0.35
Q8    1   0.5714  0.6565 -0.0012  11.00000  0.05    0.34
Q9    1   0.3725 -0.2652  0.0754  11.00000  0.05    0.33
Q10   1   0.5660  0.2739  0.1522  11.00000  0.05    0.33
Q11   1   0.2754 -0.1004  0.0412  11.00000  0.05    0.33
Q12   1   0.4309 -0.0038  0.2199  11.00000  0.05    0.33
Q13   1   0.2073  0.3246  0.3613  11.00000  0.05    0.32
Q14   1   0.5050 -0.0501  0.1227  11.00000  0.05    0.30
Q15   1   0.5203  0.1845  0.1894  11.00000  0.05    0.30
Q16   1   0.3331  0.3393  0.3989  11.00000  0.05    0.30
Q17   1  -0.1935  0.0744  0.4907  11.00000  0.05    0.29
Q18   1   0.6388  0.6168 -0.0839  11.00000  0.05    0.29
Q19   1   0.3536  0.5174  0.1653  11.00000  0.05    0.29
Q20   1   0.6663  0.4657  0.0671  11.00000  0.05    0.29

  REM The information below was added by Olex2.
  REM
  REM R1 = 0.0436 for 2068 Fo > 4sig(Fo) and 0.0456 for all 7033 data
  REM n/a parameters refined using n/a restraints
  REM Highest difference peak 0.48, deepest hole -0.50
  REM Mean Shift 0, Max Shift 0.000.

  REM +++ Tabular Listing of Refinement Information +++
  REM R1_all = 0.0456
  REM R1_gt = 0.0436
  REM wR_ref = 0.1179
  REM GOOF = 1.058
  REM Shift_max = 0.000
  REM Shift_mean = 0
  REM Reflections_all = 7033
  REM Reflections_gt = 2068
  REM Parameters = n/a
  REM Hole = -0.50
  REM Peak = 0.48
  REM Flack = n/a

  
;
_cod_data_source_file            JSSC-2019-276-1.CIF
_cod_data_source_block           1
_cod_database_code               1563785
_shelx_space_group_comment
;
The symmetry employed for this shelxl refinement is uniquely defined
by the following loop, which should always be used as a source of
symmetry information in preference to the above space-group names.
They are only intended as comments.
;
_reflns_odcompleteness_completeness 99.95
_reflns_odcompleteness_iscentric 1
_reflns_odcompleteness_theta     66.97
_olex2_refinement_description
;
1. Fixed Uiso
 At 1.2 times of:
  All C(H,H) groups, All N(H) groups, All N(H,H,H) groups
2.a Ternary CH refined with riding coordinates:
 N2(H2)
2.b Secondary CH2 refined with riding coordinates:
 C3(H3A,H3B), C4(H4A,H4B), C5(H5A,H5B), C6(H6A,H6B), C7(H7A,H7B)
2.c Idealised Me refined as rotating group:
 N1(H1A,H1B,H1C)
;
_shelx_shelxl_version_number     2014/7
loop_
_space_group_symop_operation_xyz
'x, y, z'
'-x, -y, -z'
loop_
_atom_site_label
_atom_site_type_symbol
_atom_site_fract_x
_atom_site_fract_y
_atom_site_fract_z
_atom_site_U_iso_or_equiv
_atom_site_adp_type
_atom_site_occupancy
_atom_site_site_symmetry_order
_atom_site_calc_flag
_atom_site_refinement_flags_posn
_atom_site_refinement_flags_adp
_atom_site_refinement_flags_occupancy
_atom_site_disorder_assembly
_atom_site_disorder_group
V1 V 0.62784(7) 0.19491(5) 0.11159(4) 0.02065(19) Uani 1 1 d . . . . .
S1 S 0.40879(10) 0.37750(7) 0.31825(5) 0.0209(2) Uani 1 1 d . . . . .
O1 O 0.4517(4) 0.2348(2) 0.26233(17) 0.0330(5) Uani 1 1 d . . . . .
O2 O 0.5954(5) 0.3845(3) 0.3684(2) 0.0429(6) Uani 1 1 d . . . . .
O3 O 0.2017(4) 0.3528(3) 0.4054(2) 0.0436(6) Uani 1 1 d . . . . .
O4 O 0.3782(3) 0.5210(2) 0.23232(17) 0.0271(4) Uani 1 1 d . . . . .
O5 O 0.4361(3) 0.0072(2) 0.14550(16) 0.0245(4) Uani 1 1 d . . . . .
O6 O 0.3110(3) -0.1449(2) 0.05187(16) 0.0259(4) Uani 1 1 d . . . . .
O7 O 0.7429(3) 0.4150(2) 0.04430(16) 0.0213(4) Uani 1 1 d . . . . .
O8 O 0.6566(3) 0.6633(2) -0.04102(16) 0.0239(4) Uani 1 1 d . . . . .
O9 O 0.8540(4) 0.1155(3) 0.1449(2) 0.0386(5) Uani 1 1 d . . . . .
C1 C 0.4262(4) -0.0401(3) 0.0573(2) 0.0204(5) Uani 1 1 d . . . . .
C2 C 0.6151(4) 0.5247(3) 0.0006(2) 0.0185(5) Uani 1 1 d . . . . .
C3 C 0.1811(5) 0.2865(3) 0.8015(2) 0.0259(6) Uani 1 1 d . . . . .
H3A H 0.0958 0.2124 0.8636 0.031 Uiso 1 1 calc R . . . .
H3B H 0.3263 0.2872 0.8181 0.031 Uiso 1 1 calc R . . . .
C4 C 0.2094(5) 0.2308(4) 0.6893(2) 0.0256(6) Uani 1 1 d . . . . .
H4A H 0.3180 0.1402 0.6883 0.031 Uiso 1 1 calc R . . . .
H4B H 0.2674 0.3150 0.6256 0.031 Uiso 1 1 calc R . . . .
C5 C -0.0062(4) 0.1844(3) 0.6715(2) 0.0246(6) Uani 1 1 d . . . . .
H5A H -0.0706 0.1064 0.7380 0.030 Uiso 1 1 calc R . . . .
H5B H -0.1108 0.2772 0.6658 0.030 Uiso 1 1 calc R . . . .
C6 C 0.1541(5) -0.0427(3) 0.5737(2) 0.0252(6) Uani 1 1 d . . . . .
H6A H 0.0720 -0.1175 0.6367 0.030 Uiso 1 1 calc R . . . .
H6B H 0.2971 -0.0352 0.5906 0.030 Uiso 1 1 calc R . . . .
C7 C -0.1899(5) 0.1029(4) 0.5372(2) 0.0250(6) Uani 1 1 d . . . . .
H7A H -0.2725 0.2059 0.5294 0.030 Uiso 1 1 calc R . . . .
H7B H -0.2768 0.0303 0.5998 0.030 Uiso 1 1 calc R . . . .
N1 N 0.0656(4) 0.4490(3) 0.7971(2) 0.0299(6) Uani 1 1 d . . . . .
H1A H 0.1428 0.5172 0.7399 0.036 Uiso 1 1 calc GR . . . .
H1B H 0.0553 0.4786 0.8637 0.036 Uiso 1 1 calc GR . . . .
H1C H -0.0703 0.4478 0.7852 0.036 Uiso 1 1 calc GR . . . .
N2 N 0.0281(4) 0.1168(3) 0.56458(19) 0.0203(5) Uani 1 1 d . . . . .
H2 H 0.1130 0.1901 0.5001 0.024 Uiso 1 1 calc R . . . .
loop_
_atom_site_aniso_label
_atom_site_aniso_U_11
_atom_site_aniso_U_22
_atom_site_aniso_U_33
_atom_site_aniso_U_23
_atom_site_aniso_U_13
_atom_site_aniso_U_12
V1 0.0260(3) 0.0172(3) 0.0202(3) -0.00275(19) -0.00816(19) -0.00281(19)
S1 0.0251(4) 0.0197(4) 0.0180(3) -0.0025(2) -0.0048(2) -0.0037(3)
O1 0.0515(13) 0.0234(10) 0.0223(9) -0.0036(8) -0.0041(9) -0.0055(9)
O2 0.0532(15) 0.0373(13) 0.0476(13) -0.0028(11) -0.0323(12) -0.0069(11)
O3 0.0461(14) 0.0332(13) 0.0388(12) -0.0007(10) 0.0101(11) -0.0049(10)
O4 0.0286(10) 0.0231(10) 0.0280(10) -0.0002(8) -0.0074(8) -0.0031(8)
O5 0.0327(10) 0.0201(9) 0.0208(9) -0.0034(7) -0.0031(8) -0.0083(8)
O6 0.0318(10) 0.0245(10) 0.0220(9) -0.0065(8) -0.0017(8) -0.0088(8)
O7 0.0201(9) 0.0198(9) 0.0254(9) -0.0025(7) -0.0081(7) -0.0044(7)
O8 0.0235(9) 0.0220(10) 0.0270(10) -0.0012(8) -0.0089(7) -0.0053(8)
O9 0.0403(13) 0.0308(12) 0.0464(13) -0.0022(10) -0.0184(10) -0.0011(10)
C1 0.0216(12) 0.0161(12) 0.0221(13) -0.0035(10) -0.0026(10) -0.0007(10)
C2 0.0215(13) 0.0205(13) 0.0155(11) -0.0059(10) -0.0044(9) -0.0038(10)
C3 0.0252(13) 0.0284(15) 0.0270(14) -0.0061(11) -0.0093(11) -0.0054(11)
C4 0.0241(13) 0.0271(14) 0.0280(14) -0.0101(11) -0.0046(11) -0.0045(11)
C5 0.0227(13) 0.0298(15) 0.0230(13) -0.0092(11) -0.0048(10) -0.0016(11)
C6 0.0266(13) 0.0251(14) 0.0283(14) -0.0078(11) -0.0151(11) 0.0036(11)
C7 0.0210(13) 0.0284(15) 0.0282(14) -0.0090(11) -0.0091(10) 0.0015(11)
N1 0.0273(12) 0.0367(14) 0.0323(13) -0.0157(11) -0.0114(10) -0.0014(10)
N2 0.0194(10) 0.0217(11) 0.0204(10) -0.0053(8) -0.0046(8) -0.0015(9)
loop_
_atom_type_symbol
_atom_type_description
_atom_type_scat_dispersion_real
_atom_type_scat_dispersion_imag
_atom_type_scat_source
C C 0.0181 0.0091 'International Tables Vol C Tables 4.2.6.8 and 6.1.1.4'
H H 0.0000 0.0000 'International Tables Vol C Tables 4.2.6.8 and 6.1.1.4'
N N 0.0311 0.0180 'International Tables Vol C Tables 4.2.6.8 and 6.1.1.4'
O O 0.0492 0.0322 'International Tables Vol C Tables 4.2.6.8 and 6.1.1.4'
S S 0.3331 0.5567 'International Tables Vol C Tables 4.2.6.8 and 6.1.1.4'
V V 0.0687 2.1097 'International Tables Vol C Tables 4.2.6.8 and 6.1.1.4'
loop_
_geom_angle_atom_site_label_1
_geom_angle_atom_site_label_2
_geom_angle_atom_site_label_3
_geom_angle
_geom_angle_site_symmetry_1
_geom_angle_site_symmetry_3
O1 V1 O5 84.30(8) . .
O1 V1 O6 157.83(9) . 2_655
O1 V1 O7 98.65(8) . .
O1 V1 O8 84.58(9) . 2_665
O5 V1 O6 80.45(8) . 2_655
O5 V1 O7 160.49(8) . .
O5 V1 O8 84.85(8) . 2_665
O6 V1 O8 78.14(8) 2_655 2_665
O7 V1 O6 90.69(8) . 2_655
O7 V1 O8 76.29(7) . 2_665
O9 V1 O1 101.30(12) . .
O9 V1 O5 103.36(10) . .
O9 V1 O6 97.84(11) . 2_655
O9 V1 O7 95.00(10) . .
O9 V1 O8 170.24(10) . 2_665
O2 S1 O1 108.28(15) . .
O2 S1 O3 112.21(16) . .
O2 S1 O4 111.44(13) . .
O3 S1 O1 105.76(14) . .
O4 S1 O1 109.64(12) . .
O4 S1 O3 109.34(13) . .
S1 O1 V1 133.60(13) . .
C1 O5 V1 113.49(16) . .
C1 O6 V1 112.66(16) . 2_655
C2 O7 V1 118.73(16) . .
C2 O8 V1 111.82(16) . 2_665
O5 C1 C1 116.4(3) . 2_655
O6 C1 O5 127.1(2) . .
O6 C1 C1 116.6(3) . 2_655
O7 C2 C2 115.5(3) . 2_665
O8 C2 O7 126.9(2) . .
O8 C2 C2 117.7(3) . 2_665
H3A C3 H3B 107.9 . .
C4 C3 H3A 109.2 . .
C4 C3 H3B 109.2 . .
N1 C3 H3A 109.2 . .
N1 C3 H3B 109.2 . .
N1 C3 C4 112.1(2) . .
C3 C4 H4A 109.0 . .
C3 C4 H4B 109.0 . .
C3 C4 C5 113.0(2) . .
H4A C4 H4B 107.8 . .
C5 C4 H4A 109.0 . .
C5 C4 H4B 109.0 . .
C4 C5 H5A 109.1 . .
C4 C5 H5B 109.1 . .
H5A C5 H5B 107.9 . .
N2 C5 C4 112.3(2) . .
N2 C5 H5A 109.1 . .
N2 C5 H5B 109.1 . .
H6A C6 H6B 108.0 . .
C7 C6 H6A 109.4 2_556 .
C7 C6 H6B 109.4 2_556 .
N2 C6 H6A 109.4 . .
N2 C6 H6B 109.4 . .
N2 C6 C7 111.0(2) . 2_556
C6 C7 H7A 109.6 2_556 .
C6 C7 H7B 109.6 2_556 .
H7A C7 H7B 108.1 . .
N2 C7 C6 110.5(2) . 2_556
N2 C7 H7A 109.6 . .
N2 C7 H7B 109.6 . .
C3 N1 H1A 109.5 . .
C3 N1 H1B 109.5 . .
C3 N1 H1C 109.5 . .
H1A N1 H1B 109.5 . .
H1A N1 H1C 109.5 . .
H1B N1 H1C 109.5 . .
C5 N2 H2 108.1 . .
C6 N2 C5 113.2(2) . .
C6 N2 H2 108.1 . .
C7 N2 C5 110.7(2) . .
C7 N2 C6 108.5(2) . .
C7 N2 H2 108.1 . .
loop_
_geom_bond_atom_site_label_1
_geom_bond_atom_site_label_2
_geom_bond_distance
_geom_bond_site_symmetry_2
V1 O1 1.980(2) .
V1 O5 2.0410(19) .
V1 O6 2.0695(19) 2_655
V1 O7 2.0426(18) .
V1 O8 2.2548(19) 2_665
V1 O9 1.586(2) .
S1 O1 1.507(2) .
S1 O2 1.445(2) .
S1 O3 1.463(2) .
S1 O4 1.461(2) .
O5 C1 1.249(3) .
O6 V1 2.0695(19) 2_655
O6 C1 1.244(3) .
O7 C2 1.267(3) .
O8 V1 2.2548(19) 2_665
O8 C2 1.227(3) .
C1 C1 1.544(5) 2_655
C2 C2 1.545(5) 2_665
C3 H3A 0.9700 .
C3 H3B 0.9700 .
C3 C4 1.514(4) .
C3 N1 1.495(4) .
C4 H4A 0.9700 .
C4 H4B 0.9700 .
C4 C5 1.518(4) .
C5 H5A 0.9700 .
C5 H5B 0.9700 .
C5 N2 1.504(3) .
C6 H6A 0.9700 .
C6 H6B 0.9700 .
C6 C7 1.513(4) 2_556
C6 N2 1.497(4) .
C7 C6 1.513(4) 2_556
C7 H7A 0.9700 .
C7 H7B 0.9700 .
C7 N2 1.492(3) .
N1 H1A 0.8900 .
N1 H1B 0.8900 .
N1 H1C 0.8900 .
N2 H2 0.9800 .
loop_
_geom_hbond_atom_site_label_D
_geom_hbond_atom_site_label_H
_geom_hbond_atom_site_label_A
_geom_hbond_distance_DH
_geom_hbond_distance_HA
_geom_hbond_distance_DA
_geom_hbond_angle_DHA
_geom_hbond_site_symmetry_A
N1 H1A O2 0.89 1.98 2.827(4) 158.8 2_666
N1 H1B O7 0.89 2.25 2.997(3) 140.8 2_666
N1 H1C O4 0.89 1.95 2.833(3) 170.4 2_566
N2 H2 O3 0.98 1.67 2.622(3) 163.4 .
loop_
_refln_index_h
_refln_index_k
_refln_index_l
_refln_F_squared_meas
_refln_F_squared_sigma
0 0 2 3.32 1.59
0 0 -2 2.52 0.81
0 0 2 1.51 1.5
0 0 3 377.55 20.89
0 0 -3 377.53 16.05
0 0 3 369.24 19.55
0 0 3 378.1 21.11
0 0 4 646.13 31.53
0 0 4 632.55 34.18
0 0 -4 635.79 32.45
0 0 -4 633.53 26.13
0 0 4 685.58 33.87
0 0 4 699.56 34.69
0 0 -4 719.29 34.95
0 0 5 180.96 17.52
0 0 5 149.52 15.51
0 0 5 170.52 15.17
0 0 -5 173.98 16.2
0 0 5 152.34 16.35
0 0 -5 191.91 17.62
0 0 -6 13.43 4.57
0 0 6 16.64 5.42
0 0 6 11.81 4.62
0 0 -6 12.48 5.42
0 0 6 15.98 5.9
0 0 6 11.43 4.73
0 0 -7 106.65 15.56
0 0 7 108.85 16.18
0 0 7 110.62 15.83
0 0 -7 100.52 15.34
0 0 7 100.28 15.33
0 0 8 43.89 10.69
0 0 8 68.03 13.9
0 0 8 53.89 12.06
0 0 -8 75.6 14.06
0 0 -9 354.58 18.35
0 0 -9 322.19 17.81
0 0 9 307.02 32.87
0 0 9 308.68 31.71
0 0 -9 293.62 30.81
0 0 9 305.24 17.92
0 0 -10 3.89 2.42
0 0 -10 0.08 1.36
0 0 10 5.4 2.28
0 0 -11 418.34 21.54
0 0 -11 475.35 22.71
0 0 11 420.93 22.23
0 0 12 47 5.72
0 0 -12 48.92 5.81
0 0 -12 50.63 5.96
0 0 -13 35.01 4.36
0 0 -13 43.48 5.08
0 0 -14 178.12 9.23
0 0 -14 158.47 8.55
0 0 14 152.73 9.44
0 1 -13 7.99 2.13
0 -1 13 7.27 2.65
0 1 -13 9.21 2.4
0 1 -12 5.97 2.11
0 1 -12 11.1 2.85
0 -1 12 5.62 1.93
0 -1 11 219.4 14.5
0 1 -11 240.36 14.62
0 1 -11 218 14.16
0 -1 10 7.04 2.44
0 1 -10 4.04 1.79
0 1 -10 7.32 2.8
0 1 -9 7.84 2.36
0 -1 9 10.23 2.8
0 1 -9 8.26 2.65
0 1 -8 62.58 13.31
0 1 -8 38.25 9.85
0 -1 8 46.38 11.06
0 -1 8 59.64 13.32
0 -1 7 67.03 13.41
0 -1 7 53.5 11
0 1 -7 56.45 11.2
0 1 -7 61.85 13.1
0 -1 7 52.55 10.89
0 1 -6 985.27 51.09
0 -1 6 888.16 49.84
0 1 -6 1056.89 53.93
0 -1 6 874.39 51.53
0 -1 6 952.77 50.64
0 -1 6 885.31 51.87
0 1 -5 1620.99 63.84
0 -1 5 1706.71 71.86
0 1 -5 1773.12 74.01
0 -1 5 1675.75 71.07
0 -1 5 1611.45 73.35
0 1 -5 1671.67 70.79
0 -1 5 1666.59 73.81
0 -1 4 67.61 10.26
0 -1 4 62.36 9.19
0 -1 4 69.85 9.34
0 1 -4 77.55 10.34
0 1 -4 70.15 7.96
0 1 -4 58.89 8.51
0 -1 4 64.73 9.81
0 1 -3 217.46 15.47
0 -1 3 216.25 16.25
0 -1 3 213.57 16.64
0 -1 3 210.4 15.29
0 -1 3 217.01 15.82
0 -1 2 2537.84 91.7
0 1 -2 2714.72 89.66
0 -1 2 2697.26 88.88
0 -1 2 2633.07 88.71
0 -1 2 2681.79 88.62
0 -1 1 1123.83 39.2
0 -1 1 1141.98 37.55
0 -1 1 1048.58 36.94
0 -1 1 1113.29 39.72
0 -1 1 1152.63 38.26
0 1 -1 1031.36 36.42
0 1 -1 1059.19 37.74
0 -1 0 17.39 1.73
0 1 0 17.23 1.82
0 -1 0 17.03 1.94
0 -1 -1 1208.31 40.96
0 -1 -1 1269.41 40.93
0 -1 -1 1278.91 40.57
0 1 2 148.71 7.48
0 -1 -2 165.65 9.28
0 1 2 151.81 9.93
0 -1 -2 134.02 9.83
0 -1 -2 152.08 9.69
0 1 3 6178.82 196.23
0 -1 -3 6151.48 188.8
0 -1 -3 6618.74 195.18
0 1 3 5913.68 190.14
0 1 3 5830.78 187.89
0 -1 -4 3480.04 115.45
0 1 4 4022.52 128.88
0 1 4 3562.81 118.89
0 -1 -4 3913.73 126.77
0 1 4 3827.42 127.77
0 1 4 3717.57 128.04
0 -1 -5 274.46 20.76
0 1 5 236.07 19.83
0 1 5 268.61 21.56
0 1 5 250.49 16.12
0 1 5 265.67 21.26
0 1 6 58.54 10.75
0 1 6 41.32 9.39
0 -1 -6 49.91 9.69
0 1 6 50.17 10.35
0 -1 -7 2858.13 113.92
0 1 7 2719 115.77
0 1 7 2891.79 117.37
0 1 7 2796.71 114.86
0 1 8 12.62 6.26
0 1 8 16.46 7.16
0 -1 -8 25.27 8.36
0 1 8 14.11 6.28
0 1 9 103.84 18.65
0 -1 -9 130.23 10.09
0 1 9 118.85 19.53
0 -1 -9 127.7 19.37
0 1 9 91.71 17.67
0 -1 -10 596.41 26.7
0 -1 -10 576.01 26.39
0 1 11 32.3 5.1
0 -1 -11 39.29 5.58
0 -1 -11 30.38 4.92
0 -1 -12 76.58 7.6
0 -1 -12 87.56 8.02
0 -1 -13 248.81 13.69
0 -1 -13 240.84 13.43
0 -1 -14 43.37 4.01
0 -1 -14 61.36 5.12
0 -2 13 103.77 7.58
0 2 -13 111.81 7.22
0 2 -13 106.22 6.97
0 -2 12 385.84 19.65
0 2 -12 372.31 18.16
0 2 -12 399.73 18.63
0 -2 11 15.31 4.12
0 -2 11 15.89 3.82
0 2 -11 17.89 3.4
0 2 -11 17.55 3.72
0 2 -10 241.43 14.8
0 -2 10 247.17 15.56
0 2 -10 220.6 14.61
0 -2 9 3.6 2.19
0 2 -9 2.72 1.78
0 2 -9 3.33 1.76
0 2 -8 206.78 25.97
0 2 -8 184.11 12.88
0 2 -8 208.96 13.39
0 -2 8 219.69 14.16
0 2 -8 181.14 23.49
0 -2 7 1342.71 74.52
0 2 -7 1392.55 70
0 -2 7 1468.3 73.28
0 -2 6 194.42 23.28
0 2 -6 191.23 21.83
0 -2 6 157.76 19.77
0 -2 6 181.47 20.93
0 2 -6 165.04 19.31
0 2 -5 95.03 11.6
0 2 -5 102.67 14.48
0 -2 5 78.26 13.06
0 2 -5 88.9 12.32
0 -2 5 61.02 11.11
0 -2 5 85.02 13.2
0 -2 4 486.04 29.82
0 -2 4 539.59 33.11
0 2 -4 522.2 29.79
0 -2 4 495.91 32.48
0 2 -4 569.45 32.86
0 -2 3 904.62 43.83
0 2 -3 1304.14 51.76
0 -2 3 1275.97 48.68
0 -2 3 1310.8 53.03
0 2 -3 1271.91 48.63
0 -2 3 1362.19 54.98
0 -2 2 6060.98 182.2
0 2 -2 5182.77 182.97
0 -2 2 6030.63 185.81
0 2 -2 5472.98 178.11
0 2 -2 5547.62 180.42
0 -2 2 5674.3 179.56
0 2 -1 309.56 14.53
0 2 -1 317.99 14.99
0 -2 1 340.74 20.13
0 2 -1 360.17 18.44
0 -2 1 369.77 18.95
0 -2 0 46.58 6
0 -2 0 38.86 3.7
0 2 0 36.62 3.76
0 -2 0 32.48 5.08
0 -2 -1 439.45 16.92
0 -2 -1 472.66 20.23
0 -2 -1 424.03 17.97
0 2 2 3483.11 110.24
0 2 2 3442.87 107.47
0 -2 -2 3396.82 108.14
0 -2 -2 3189.19 108.04
0 -2 -2 3368.19 115.1
0 2 3 492.92 26.02
0 2 3 486.7 19.84
0 -2 -3 480.7 26.85
0 -2 -3 527.14 27.78
0 2 3 543.59 25.95
0 -2 -3 506.95 24.33
0 -2 -3 480.6 22.62
0 2 3 487.9 26.36
0 -2 -3 532.12 26.29
0 2 4 3725.91 129.79
0 -2 -4 3804.57 135.04
0 -2 -4 4354.66 139.27
0 -2 -4 4181.5 136.28
0 2 4 4196.74 141.6
0 -2 -4 4411.24 145.32
0 2 4 4352.63 142.07
0 2 4 4352.44 142.49
0 2 5 5032.5 176.14
0 -2 -5 4945.49 180.24
0 -2 -5 5260.66 173.93
0 2 5 5092.07 176.67
0 2 5 5028.53 176.86
0 -2 -6 926.33 54.16
0 2 6 869.98 50
0 -2 -6 915.73 48.01
0 2 6 933.83 50.16
0 2 6 966.46 51.57
0 2 7 2191.05 95.02
0 -2 -7 2010.25 87.66
0 -2 -7 2118.32 91.73
0 -2 -7 2169.73 100.09
0 2 7 2096.03 94.97
0 2 7 2213.96 97.65
0 -2 -8 37.21 8.89
0 -2 -8 31.73 10.37
0 2 8 20.35 6.89
0 -2 -8 33.35 8.94
0 2 8 29.05 8.93
0 2 8 22.18 8.92
0 -2 -9 131.45 18.32
0 2 9 110.58 19.41
0 -2 -9 119.89 18.75
0 -2 -9 95.81 17.93
0 2 9 135.09 20.58
0 2 9 120.52 19.75
0 -2 -9 120.76 9.75
0 -2 -10 57.9 6.72
0 -2 -10 53.99 6.47
0 -2 -10 55.46 6.57
0 -2 -11 220.17 13.64
0 -2 -11 200.56 12.68
0 -2 -12 182.3 11.97
0 -2 -12 147.59 10.36
0 -2 -12 157.12 11.11
0 -2 -13 262.43 14.3
0 -2 -14 256.71 12.55
0 -3 12 67.46 6.37
0 3 -12 80.56 6.36
0 3 -11 146.83 10.06
0 3 -11 168.29 10.89
0 -3 11 152.18 11.45
0 -3 11 155.77 10.98
0 -3 10 3.03 2.43
0 -3 10 4.36 2.93
0 3 -10 6.71 2.65
0 3 -10 3.5 2.12
0 -3 9 665.64 32.28
0 3 -9 589.95 28.03
0 3 -9 641.01 28.85
0 -3 9 663.59 29.85
0 3 -8 86.33 8.45
0 -3 8 96.19 9.16
0 -3 7 375.92 36.33
0 3 -7 440.92 38.79
0 3 -7 410.37 20.94
0 -3 7 409.59 21.42
0 -3 7 419.58 21.7
0 -3 6 401.19 35.98
0 3 -6 473.39 38.32
0 -3 5 74.71 13.81
0 3 -5 50.95 9.92
0 3 -5 79.23 12.54
0 3 -5 69.96 13.33
0 3 -4 67.6 10.33
0 3 -4 96.99 14.21
0 -3 4 91.81 14.17
0 -3 3 655.01 39.89
0 3 -3 607.67 32.61
0 -3 3 656.4 34.05
0 3 -3 734.62 39.02
0 -3 2 655.78 36.72
0 3 -2 544.13 25.59
0 3 -2 530.95 26.45
0 3 -2 647.04 33.17
0 -3 2 630.94 35.05
0 -3 2 621.26 31.98
0 3 -1 273.44 13.82
0 -3 1 383.86 23
0 3 -1 338.04 20.73
0 -3 1 389.82 25.12
0 -3 1 411.07 25.52
0 3 -1 307.3 15.81
0 -3 1 355.33 18.42
0 -3 0 425.61 24.55
0 3 0 363.45 20.54
0 -3 0 407.38 24.38
0 3 0 338.94 17.52
0 -3 0 353.53 24.17
0 -3 0 373.99 17.56
0 -3 0 396.6 24.28
0 -3 -1 1925.04 64.89
0 -3 -1 1851 68.22
0 -3 -1 1686.5 65.68
0 -3 -1 1567.85 55.49
0 -3 -1 1801.59 69.75
0 -3 -1 1591.09 58.55
0 -3 -2 1340.67 52.64
0 -3 -2 1012.05 44.38
0 -3 -2 1387.9 55.6
0 -3 -2 1144.34 40.03
0 -3 -2 1396.74 54.42
0 -3 -2 1200.87 43.73
0 3 3 397.97 17.52
0 -3 -3 467.43 27.3
0 -3 -3 436.83 26.4
0 -3 -3 423.16 25.56
0 3 3 445.41 22.8
0 3 3 424.73 23.92
0 -3 -4 792.95 41.19
0 -3 -4 769.46 34.95
0 3 4 819.87 38.49
0 3 4 828.2 40.63
0 3 4 744.46 38.27
0 -3 -4 855.35 40.05
0 3 5 3338.48 121.27
0 -3 -5 3093.91 113.35
0 -3 -5 3141.47 116.06
0 -3 -5 3078.86 115.72
0 3 5 3272.95 121.44
0 -3 -5 3234.45 125.34
0 3 5 3332.16 123.23
0 3 6 18.46 5.81
0 -3 -6 13.25 4.88
0 3 6 4.64 3.01
0 -3 -6 5.76 4.29
0 -3 -6 7.31 4.83
0 -3 -7 600.49 40.69
0 3 7 677.81 45.17
0 3 7 670.35 44.92
0 3 7 679.07 46.38
0 -3 -7 612.65 47.24
0 -3 -8 954.5 63.72
0 -3 -8 937 56.13
0 3 8 952.92 59.49
0 3 8 937.61 59.05
0 3 8 1004.97 63.07
0 -3 -9 164.62 11.87
0 -3 -9 170.27 22.92
0 3 9 162.14 23.63
0 -3 -9 187.23 26.61
0 3 9 186.96 26.25
0 3 9 184.05 24.92
0 -3 -9 175.77 12.21
0 -3 -10 184.71 12.78
0 -3 -10 187.3 12.92
0 -3 -11 40.29 5.59
0 -3 -11 55.37 6.4
0 -3 -12 341.03 17.72
0 -3 -12 318.03 16.94
0 -3 -13 14.96 3
0 -3 -13 8.96 2.07
0 -3 -14 1.53 1.01
0 -3 -14 4.98 1.81
0 -4 12 49.3 4.41
0 -4 12 61.67 4.78
0 4 -12 52.67 4.29
0 -4 11 5.19 2.16
0 4 -11 2.28 1.18
0 4 -10 13.1 3.29
0 -4 10 5.4 1.89
0 -4 10 14.31 3.47
0 -4 9 2.3 1.98
0 4 -9 0.78 1.81
0 -4 9 -1.5 1.82
0 -4 8 760.87 34.03
0 4 -8 780.51 33.87
0 -4 8 835.75 38.33
0 4 -7 277.87 16.79
0 -4 7 297.41 20.42
0 -4 7 279.2 17.15
0 -4 6 22.34 5.01
0 -4 6 25.96 4.43
0 -4 6 28 4.77
0 4 -6 40.55 11.51
0 -4 6 34.61 10.6
0 -4 5 61.9 14.21
0 4 -5 54.61 11.71
0 4 -5 70.31 14.45
0 4 -4 5.12 2.43
0 -4 4 12.26 6.19
0 -4 3 1789.7 86.33
0 4 -3 1938.4 83.9
0 -4 2 2336.35 99.23
0 -4 2 2377.01 98.97
0 4 -2 2545.7 96.09
0 -4 1 266.76 23.64
0 -4 1 265.73 24.41
0 4 -1 298.02 22.04
0 -4 1 255.52 22.17
0 -4 0 312.84 26.05
0 4 0 324.62 22.06
0 -4 0 344.37 26.07
0 -4 0 324.63 24.37
0 -4 0 311.96 24.35
0 -4 -1 621.64 38.66
0 -4 -1 698.51 35.8
0 4 1 585.86 29.6
0 -4 -1 696.61 38.75
0 4 1 605.25 32.07
0 -4 -1 664.6 37.73
0 -4 -2 19.37 6.09
0 -4 -2 14.4 4.18
0 -4 -2 22.99 6.5
0 -4 -2 17.79 6.02
0 4 3 83.24 10.74
0 4 3 85.28 9.91
0 -4 -3 67.47 11.22
0 -4 -3 81.8 12.67
0 -4 -3 86.2 12.28
0 -4 -4 907.7 49.67
0 4 4 961.6 49.86
0 4 4 846.53 45.91
0 -4 -4 950.95 50.89
0 -4 -4 915.43 50.79
0 4 4 897.23 44.54
0 -4 -5 0.91 3.23
0 4 5 5.33 4.61
0 4 5 1.81 3.04
0 -4 -5 -2.61 3.99
0 4 5 -0.01 2.6
0 4 6 810.98 50.45
0 4 6 918.72 54.65
0 -4 -6 822.91 54.4
0 4 6 878.72 50.69
0 4 7 202.6 23.58
0 -4 -7 214.29 27.85
0 4 7 253.79 28.21
0 4 7 215.08 24.85
0 4 8 137.79 22.25
0 -4 -8 123 9.83
0 4 8 100.35 17.69
0 -4 -8 105.77 19.99
0 -4 -9 55.67 6.61
0 -4 -10 21.52 4.26
0 -4 -11 512.94 24.2
0 -4 -12 238.71 13.84
0 -4 -13 6.32 1.98
0 -4 -13 3.77 1.73
0 -4 -14 17.26 2.41
0 -4 -14 39.39 4.39
0 5 -11 164.01 8.56
0 -5 11 157.86 8.92
0 -5 11 181.4 9.34
0 -5 10 2.57 1.5
0 5 -10 3.23 1.56
0 5 -9 235.68 13.82
0 -5 9 226.62 14.99
0 -5 8 82.63 8.11
0 -5 8 68.22 8.66
0 5 -8 63.86 7.03
0 -5 7 3.72 2.1
0 -5 7 3.65 1.86
0 5 -7 7.91 2.66
0 -5 6 2.58 2.45
0 5 -6 0.61 1.72
0 -5 5 332.51 18.9
0 -5 5 307.57 18.15
0 -5 5 312.08 20.19
0 5 -4 1114.81 65.2
0 5 -4 985.65 60.75
0 -5 4 971.95 64.63
0 5 -3 160.65 21.02
0 -5 3 158.04 22.58
0 5 -2 29.98 8.02
0 -5 2 18.47 7.62
0 -5 1 74.94 13.45
0 -5 1 73.11 13.21
0 5 -1 71.4 11.98
0 -5 1 76.32 14.42
0 -5 0 978.94 53.89
0 -5 0 955.28 54.93
0 5 0 984.85 50.24
0 -5 0 983.86 57.62
0 -5 -1 1079.09 61.67
0 -5 -1 1088.89 55.16
0 -5 -1 1217.46 62.16
0 -5 -1 1058.84 58.83
0 5 1 1073.37 52.21
0 -5 -2 46.48 10.73
0 -5 -2 35.41 9.05
0 -5 -2 33.87 9.66
0 5 2 50.56 8.63
0 -5 -3 172.47 22.22
0 -5 -3 180.31 20.77
0 -5 -3 174.76 21.39
0 5 3 193.66 20.42
0 5 4 889.41 51.74
0 -5 -4 851.49 53.99
0 -5 -4 885.67 54.38
0 -5 -4 827.91 51.25
0 5 5 2614.79 112.13
0 -5 -5 2497.28 112.2
0 -5 -5 2492.71 111.02
0 5 6 78.53 15.35
0 -5 -6 68.95 15.39
0 5 6 84.63 15.43
0 -5 -7 58.64 7.35
0 5 7 65.79 14.93
0 -5 -7 59.64 14.76
0 5 7 69.97 14.85
0 -5 -8 9.69 3.03
0 -5 -8 9.35 2.79
0 -5 -8 8.56 2.79
0 -5 -9 9.07 3.21
0 -5 -9 8.64 2.62
0 -5 -10 327.96 19.74
0 -5 -10 305.77 17.4
0 -5 -11 -1.11 2.08
0 -5 -11 1.12 1.64
0 -5 -12 87.46 8.17
0 -5 -12 83.86 7.3
0 -5 -13 12.35 2.6
0 -5 -13 12.7 2.55
0 -5 -14 130.14 7.6
0 -6 10 208.34 10.57
0 -6 10 202.92 10.02
0 6 -9 1.16 0.99
0 -6 9 2.37 1.49
0 -6 8 4.12 2.34
0 6 -8 8.62 2.39
0 6 -7 8.78 2.28
0 -6 7 13.19 4.02
0 -6 6 108.01 11.13
0 -6 5 4.96 2.54
0 -6 4 45.52 6.68
0 -6 4 51.63 7.2
0 -6 3 72.37 8.15
0 -6 3 62.59 8.01
0 -6 2 34.31 11.6
0 6 -2 19.21 7.08
0 -6 2 27.96 5.15
0 -6 2 26.57 4.65
0 -6 1 2351.42 110.87
0 -6 0 167.78 23.92
0 -6 0 144.27 21.49
0 -6 0 148.17 20.68
0 -6 -1 428.26 39.41
0 -6 -1 419.62 37.95
0 -6 -2 91.88 17.02
0 -6 -2 89.94 16.48
0 -6 -2 61.55 14.4
0 -6 -3 280.83 30.89
0 -6 -3 276.43 29.68
0 -6 -3 242.38 29.73
0 -6 -4 113.77 19.49
0 -6 -4 137.3 21.63
0 -6 -5 6.54 4.8
0 6 5 15.35 7.83
0 -6 -5 9.92 2.91
0 -6 -6 40.19 6.07
0 -6 -6 51.24 6.95
0 6 6 58.65 14.94
0 -6 -7 51.8 7.05
0 -6 -7 44.39 5.97
0 -6 -7 48.14 7.01
0 -6 -8 387 21.94
0 -6 -8 395.69 23
0 -6 -8 417.08 21.4
0 -6 -9 186.77 14.68
0 -6 -9 198.95 13.37
0 -6 -9 196.82 13.98
0 -6 -10 164.81 11.59
0 -6 -10 155.83 12.83
0 -6 -11 269.4 16.28
0 -6 -11 245.65 14.2
0 -6 -12 44.01 5.39
0 -6 -12 36.16 4.45
0 -6 -13 23.21 3
0 -6 -13 30.42 3.74
0 -7 8 39.31 4.76
0 -7 8 33.58 4.1
0 -7 8 29.63 3.53
0 -7 7 182.23 12.61
0 -7 7 215.54 14.04
0 -7 6 74.22 8.59
0 -7 6 60.13 7.51
0 -7 5 214.62 16.51
0 -7 5 233.66 15.34
0 -7 5 253.36 16.94
0 -7 4 20.55 4.77
0 -7 4 21.8 4.74
0 -7 4 17.65 4.9
0 -7 3 78.73 8.97
0 -7 3 97.17 9.99
0 -7 3 71.75 9
0 -7 2 219.55 16.77
0 -7 2 237.39 16.23
0 -7 2 236.39 16.08
0 -7 1 14.26 3.75
0 -7 1 16.67 3.8
0 -7 1 16.56 4.51
0 -7 0 248.17 15.87
0 -7 0 244.53 15.89
0 -7 0 248.86 15.99
0 -7 0 255.57 17.31
0 -7 -1 234.47 15.46
0 -7 -1 258.72 15.97
0 -7 -1 271.17 17.5
0 -7 -1 244.54 15.65
0 -7 -2 40.61 5.74
0 -7 -2 38 5.62
0 -7 -2 44.36 6.55
0 -7 -2 40.69 6.04
0 -7 -2 44.64 6.01
0 -7 -3 962.64 40.75
0 -7 -3 1018.66 40.86
0 -7 -3 900.3 38.66
0 -7 -3 859.61 37.93
0 -7 -3 953.78 39.25
0 -7 -4 297.61 18.47
0 -7 -4 295.32 17.9
0 -7 -4 297.11 18.85
0 -7 -5 117.63 10.73
0 -7 -5 121.71 10.97
0 -7 -5 130.48 11.67
0 -7 -6 389.74 22.24
0 -7 -6 386.53 21.89
0 -7 -6 388.05 22.19
0 -7 -7 54.03 7.26
0 -7 -7 58.69 8.03
0 -7 -8 21.97 4.12
0 -7 -8 36.78 6.11
0 -7 -8 44.2 6.22
0 -7 -9 242.26 15.52
0 -7 -9 243.23 14.55
0 -7 -9 243.72 16.8
0 -7 -10 189.42 13.78
0 -7 -10 193.47 12.69
0 -7 -10 190.67 11.97
0 -7 -11 34.61 5.09
0 -7 -11 41.68 4.75
0 -7 -12 329.78 15.46
0 -7 -12 293.57 13.92
0 -8 7 78.34 6.05
0 -8 6 65.69 6.63
0 -8 6 59.06 5.91
0 -8 5 7.39 2.91
0 -8 5 3.7 1.89
0 -8 4 5.98 3.55
0 -8 4 1.07 1.56
0 -8 4 4.17 1.97
0 -8 3 22.17 4.76
0 -8 3 19.26 4.32
0 -8 3 19.32 4.38
0 -8 2 401.9 22.16
0 -8 2 376.9 22.94
0 -8 2 377.32 21.17
0 -8 1 294.62 17.93
0 -8 1 296.46 19.67
0 -8 1 277.37 17.45
0 -8 0 52.32 6.73
0 -8 0 48.85 6.41
0 -8 0 42.35 6.82
0 -8 -1 130.42 11.1
0 -8 -1 187.5 14.42
0 -8 -1 196.25 13.3
0 -8 -1 125.4 10.91
0 -8 -2 -0.19 1.28
0 -8 -2 0.56 1.49
0 -8 -2 -2.64 1.69
0 -8 -2 1.16 1.62
0 -8 -2 0.68 1.79
0 -8 -3 368.68 20.6
0 -8 -3 374.49 21.7
0 -8 -3 385.75 21.78
0 -8 -4 230.17 15.34
0 -8 -4 218.45 15.41
0 -8 -4 213.13 15.69
0 -8 -5 20.09 4.15
0 -8 -5 9.54 3.56
0 -8 -5 10.98 3.33
0 -8 -6 186 14.19
0 -8 -6 212.09 15.08
0 -8 -6 226.09 15.58
0 -8 -7 8.21 3.03
0 -8 -7 2.66 1.84
0 -8 -8 29.56 4.8
0 -8 -8 37.44 6.01
0 -8 -9 33.06 5.5
0 -8 -9 30.92 4.71
0 -8 -10 138.02 10.35
0 -8 -10 108.5 7.59
0 -8 -10 134.77 9.2
0 -8 -11 10.53 1.88
0 -8 -11 15.73 2.75
0 -9 4 11.41 2.43
0 -9 4 13.49 2.61
0 -9 4 8.31 1.9
0 -9 3 368.27 19.04
0 -9 3 346.43 18.06
0 -9 2 222.17 14.07
0 -9 2 218.31 13.66
0 -9 2 261.96 16.39
0 -9 1 1.26 1.61
0 -9 1 1.47 2.22
0 -9 1 2.15 1.16
0 -9 0 2.91 1.84
0 -9 0 0.85 1.66
0 -9 -1 30.12 4.63
0 -9 -1 34.53 6.09
0 -9 -2 596.95 27.78
0 -9 -2 702.73 31.28
0 -9 -3 3.91 2.62
0 -9 -3 5.19 2.2
0 -9 -3 -0.76 2.14
0 -9 -4 50.52 6.54
0 -9 -4 41.18 5.62
0 -9 -4 46.11 6.28
0 -9 -5 80.96 8.42
0 -9 -5 68.12 7.58
0 -9 -5 74.04 7.81
0 -9 -6 20.1 4.19
0 -9 -6 24.94 4.43
0 -9 -6 20.79 3.99
0 -9 -7 16.28 3.77
0 -9 -7 17.56 3.83
0 -9 -8 1.29 1.43
0 -9 -8 1.86 1.51
0 -9 -9 0.54 1.14
0 -9 -9 0.88 1.19
0 -10 1 0.66 1.72
0 -10 0 88.63 8.39
0 -10 -1 68.15 7.47
0 -10 -2 75.16 7.63
0 -10 -3 23.19 4.25
0 -10 -4 20.13 3.66
0 -10 -5 251.43 13.71
1 -10 -3 69.4 6.06
1 -10 -2 44.82 5.16
1 -10 -1 171.98 11.28
1 -10 0 55.61 6.08
1 -10 1 33.47 4.41
1 -9 -9 210.52 10.88
1 -9 -8 14.2 3.1
1 -9 -7 67.41 6.86
1 -9 -6 67.87 7.08
1 -9 -5 50.5 6.44
1 -9 -5 50.13 6.3
1 -9 -4 225.97 14.13
1 -9 -4 206.42 13.34
1 -9 -3 3.88 2.1
1 -9 -3 2.03 1.67
1 -9 -2 78.01 7.82
1 -9 -2 91.9 8.87
1 -9 -1 25.19 5.31
1 -9 0 366.23 21.28
1 -9 1 29.05 5.6
1 -9 2 135.02 11.7
1 -9 3 120.94 10.2
1 -9 4 7.89 2.19
1 -8 -10 150.57 9.68
1 -8 -9 45.15 5.7
1 -8 -8 58.83 6.91
1 -8 -8 70.19 7.47
1 -8 -7 3.33 2.71
1 -8 -7 4.37 2.93
1 -8 -6 245.3 16.33
1 -8 -6 269.2 16.85
1 -8 -5 273.67 17.3
1 -8 -5 278.32 17.78
1 -8 -4 119.21 10.55
1 -8 -4 99.1 10.04
1 -8 -3 632.89 30.15
1 -8 -3 664.02 31.15
1 -8 -3 711.36 32.29
1 -8 -2 29.54 5.56
1 -8 -2 38.3 5.83
1 -8 -2 42.1 6.5
1 -8 -1 234.85 16.74
1 -8 -1 259.66 16.51
1 -8 -1 243.65 15.68
1 -8 0 116.87 10.2
1 -8 0 115.25 11.53
1 -8 1 12.82 3.34
1 -8 2 2.07 2.99
1 -8 3 540.51 28.87
1 -8 4 103.63 9.24
1 -8 4 151.55 12.29
1 -8 5 1.86 1.73
1 -8 5 -1.12 1.42
1 -8 6 14.88 2.8
1 -8 6 17.47 2.97
1 -7 -11 219.52 11.52
1 -7 -11 250.89 13.09
1 -7 -10 1.58 1.7
1 -7 -10 0.63 1.6
1 -7 -9 33.23 5.37
1 -7 -9 36.05 5.15
1 -7 -9 32.37 4.59
1 -7 -8 18.06 3.99
1 -7 -8 12.85 2.96
1 -7 -8 25.13 4.94
1 -7 -7 384.7 21.72
1 -7 -7 365.89 21.12
1 -7 -6 47.93 6.98
1 -7 -6 42.15 6.4
1 -7 -5 66.74 8.02
1 -7 -5 75.71 8.43
1 -7 -4 66.66 7.81
1 -7 -4 70.74 8.18
1 -7 -4 66.67 8.19
1 -7 -3 244.18 16.79
1 -7 -3 265.63 16.5
1 -7 -3 243.95 16.49
1 -7 -2 940.45 39.39
1 -7 -2 930.64 40.41
1 -7 -2 951.04 40.59
1 -7 -1 8.45 2.35
1 -7 -1 5.91 2.37
1 -7 -1 10.18 3.32
1 -7 0 102.63 10.6
1 -7 0 93.86 9.14
1 -7 1 131.3 12.41
1 -7 1 121.73 10.79
1 -7 2 320.51 19.47
1 -7 2 525.85 26.89
1 -7 3 53.03 6.89
1 -7 3 57.13 6.89
1 -7 4 23.39 4.93
1 -7 4 14.54 3.71
1 -7 4 22.35 5.22
1 -7 5 335.63 18.67
1 -7 5 333.05 20.1
1 -7 5 344.57 20.8
1 -7 6 203.89 14.57
1 -7 6 231.1 14.74
1 -7 7 156.91 11.41
1 -7 8 30.83 4.11
1 -6 -12 3.58 1.61
1 -6 -12 8.49 1.92
1 -6 -11 44.67 5.56
1 -6 -11 39.94 4.64
1 -6 -10 15.07 3.23
1 -6 -10 16.78 3.9
1 -6 -9 66.02 6.91
1 -6 -9 59.49 7.63
1 -6 -9 61.04 7.1
1 -6 -8 54.35 7.04
1 -6 -8 49.75 7.03
1 -6 -8 57.45 6.69
1 -6 -7 14.16 3.1
1 -6 -7 11.13 3.16
1 -6 -7 12.83 3.51
1 -6 -6 81.63 8.68
1 -6 -6 81.49 8.73
1 -6 -6 64.35 7.14
1 -6 -5 157.36 12.13
1 -6 -5 133.48 11.56
1 -6 -4 1296.67 78.38
1 -6 -4 1396.37 52.15
1 -6 -4 1336.86 52.54
1 -6 -4 1298.21 81.82
1 -6 -3 560.98 45.75
1 -6 -3 534.86 48.38
-1 6 2 80.54 14.24
1 -6 -2 105.95 20.37
1 -6 -2 105.34 18.42
-1 6 1 12.33 6.05
1 -6 -1 8.35 5.95
1 -6 -1 -6.12 5.01
1 -6 0 180.02 26.06
-1 6 0 179.89 22.03
1 -6 1 2098.72 76.44
1 -6 1 2107.81 74.04
-1 6 -1 2024.49 97.34
1 -6 1 2007.26 104.91
-1 6 -2 232.4 27.46
1 -6 2 269.69 18.37
1 -6 2 240.4 31.16
1 -6 2 248.32 15.53
1 -6 2 276.56 16.51
1 -6 2 259.57 31.62
1 -6 3 184.47 13.13
1 -6 3 189.2 15.6
1 -6 4 102.82 9.63
1 -6 4 92.98 10.85
1 -6 4 112.04 10.13
1 -6 5 46.79 6.71
1 -6 5 47.1 7.36
1 -6 5 45.71 6.43
1 -6 5 50.62 6.53
1 -6 6 42.71 6.59
1 -6 6 49.55 6.54
1 -6 6 50.34 6.67
1 -6 6 39.99 6.11
1 -6 7 33.27 5.21
-1 6 -7 40.83 5.43
1 -6 7 40.25 5.87
-1 6 -8 181.75 11.43
1 -6 8 149.79 10.97
-1 6 -9 188.91 10.84
1 -6 10 232.67 11.56
1 -5 -13 3.36 1.25
1 -5 -13 5.01 1.64
1 -5 -12 5.75 2.16
1 -5 -12 2.39 1.34
1 -5 -11 10.22 2.58
1 -5 -11 9.19 2.69
1 -5 -10 128.27 11.11
1 -5 -10 167.4 11.45
1 -5 -9 96.63 9.66
1 -5 -9 99.41 8.87
1 -5 -8 191.72 14.12
1 -5 -8 187.78 12.79
1 -5 -8 169.81 12.91
1 -5 -7 53.91 6.4
1 -5 -7 49.49 6.75
1 -5 -7 57.77 7.01
1 -5 -6 107.63 21.5
-1 5 6 122.93 20.96
1 -5 -6 119.86 10.27
-1 5 5 17.02 7.64
1 -5 -5 8.58 6.14
1 -5 -5 6.17 4.22
1 -5 -4 8.63 6.31
1 -5 -4 8.78 6.29
-1 5 4 10.52 6.51
-1 5 4 4.54 2.88
1 -5 -3 731.61 47.55
1 -5 -3 686.82 50.87
-1 5 3 699.77 43.15
1 -5 -2 14.29 7.23
1 -5 -2 19.83 7.09
-1 5 2 20.31 6.54
1 -5 -1 12.74 5.75
-1 5 1 5.49 2.76
1 -5 -1 8.75 5.09
1 -5 0 1719.46 80.46
1 -5 0 1647.08 82.83
1 -5 0 1449.91 72.83
-1 5 0 1616.64 74.35
-1 5 -1 201.09 21.44
1 -5 1 163.84 21.23
1 -5 1 159.71 21.83
-1 5 -2 11.97 4.76
1 -5 2 7.95 5.54
1 -5 2 4.39 4.58
1 -5 3 672.95 48.99
-1 5 -3 708.89 48.12
1 -5 3 649.25 51.19
-1 5 -4 1457.77 77.61
1 -5 4 1233.51 78.79
1 -5 5 418.35 21.58
1 -5 5 345.64 20.82
1 -5 5 428.73 22.06
1 -5 5 395.4 23.41
1 -5 6 6.43 2.87
1 -5 6 1.32 1.66
1 -5 6 6.41 2.54
1 -5 6 2.26 1.57
1 -5 7 127.11 10.68
1 -5 7 62.23 8.02
1 -5 8 33.22 5.66
1 -5 8 44.48 5.93
-1 5 -8 51.03 6.4
-1 5 -9 22 3.94
1 -5 9 22.78 4.19
1 -5 9 24.36 4.13
1 -5 10 86.29 7.05
1 -5 10 75.61 6.73
-1 5 -11 226.79 11.23
1 -4 -13 201.68 10.64
1 -4 -13 231.13 11.98
1 -4 -12 130.62 9.01
1 -4 -12 120.01 9.3
1 -4 -11 464.16 22.17
1 -4 -11 492.99 23.83
1 -4 -10 4.67 2.35
1 -4 -9 423.1 21.3
1 -4 -8 5.24 2.49
1 -4 -7 382.91 42.6
-1 4 7 404.49 35.95
-1 4 7 405.6 39.34
1 -4 -6 328.92 36.51
-1 4 6 289.6 28.39
-1 4 6 323.7 32.91
-1 4 5 84.53 13.79
1 -4 -5 82.14 14.23
1 -4 -5 100.58 17.74
-1 4 5 87.35 15.01
1 -4 -4 1154.1 63.14
-1 4 4 1032.76 53.55
1 -4 -4 1198.38 63.86
-1 4 4 1205.16 62.25
1 -4 -4 1053.74 52.4
-1 4 3 12.72 5.23
1 -4 -3 9.56 3.62
1 -4 -3 17.25 6.18
1 -4 -3 23.15 8.04
1 -4 -2 37.57 7.01
1 -4 -2 40.07 8.68
-1 4 2 46.57 8.56
-1 4 2 40.34 8.48
1 -4 -2 49.68 10.67
1 -4 -1 125.45 15.21
1 -4 -1 116.92 12.52
-1 4 1 129.32 13.83
1 -4 -1 110.11 12.41
1 -4 -1 120.52 16.88
1 -4 0 288.73 26.29
-1 4 0 258.61 20.29
1 -4 0 292.18 24.07
1 -4 0 287.51 23.05
-1 4 -1 2004.47 79.99
1 -4 1 2011.34 84.96
1 -4 1 1916.87 84.72
-1 4 -2 9.15 3.6
-1 4 -2 9.71 4.79
1 -4 2 5.4 2.83
1 -4 2 6.59 4.25
1 -4 3 1850.16 85.92
-1 4 -3 1994.61 85.36
1 -4 3 1782.12 89.39
-1 4 -4 4.32 4.42
1 -4 4 -0.68 2.37
1 -4 4 5.08 6.91
1 -4 5 255.68 29.46
-1 4 -5 251.82 27.49
1 -4 6 78.2 8.33
1 -4 6 63.51 14.76
-1 4 -6 81.09 16.12
1 -4 7 211.09 14.57
1 -4 7 224.6 14.89
1 -4 7 246.77 15.59
1 -4 8 341.55 19.35
1 -4 8 305.51 19.81
-1 4 -8 292.64 17.67
1 -4 8 325.7 18.74
-1 4 -9 100.4 9.21
1 -4 9 115 10.55
1 -4 9 109.22 9.68
1 -4 10 440.44 21.22
-1 4 -10 436.79 20.92
1 -4 10 391.06 21.14
1 -4 11 2.53 1.78
-1 4 -11 3.03 2.18
1 -4 11 2.01 1.54
-1 4 -12 35.65 3.69
1 -3 -13 7.74 2.02
1 -3 -13 10.53 2.15
1 -3 -13 6.97 1.61
1 -3 -12 3.55 2.09
1 -3 -12 7.31 2.41
1 -3 -12 5.01 1.97
1 -3 -11 346.45 18.22
1 -3 -11 353.06 18.57
1 -3 -11 352.83 18.5
1 -3 -10 810.34 36.51
1 -3 -10 792.12 36.47
1 -3 -9 67.89 7.28
1 -3 -9 61.57 7.12
1 -3 -9 71.35 7.31
-1 3 8 550.37 43.63
-1 3 8 516.59 44.96
1 -3 -8 480.82 46.62
1 -3 -8 459.85 22.48
1 -3 -8 455.23 38.42
1 -3 -7 243.73 31.64
-1 3 7 215.28 25.01
-1 3 7 248.2 28.84
1 -3 -7 233.68 24.67
1 -3 -7 221.78 24.31
-1 3 6 1249.81 64.57
-1 3 6 1286.7 69.34
1 -3 -6 1163.59 60.64
1 -3 -6 1104.89 71.63
1 -3 -6 1164.75 60.51
1 -3 -5 1065.16 55.07
1 -3 -5 1078.44 53.36
-1 3 5 1129.65 61.04
-1 3 5 1065.42 55.85
1 -3 -5 1071.87 64.18
1 -3 -5 1065.46 53.41
1 -3 -4 7.14 4.81
-1 3 4 7.53 4.73
-1 3 4 6.64 3.5
1 -3 -4 5.51 2.85
1 -3 -4 -1.05 3.53
1 -3 -4 4.57 2.05
-1 3 3 57.6 10.55
1 -3 -3 74.97 9.61
-1 3 3 57.43 8.98
1 -3 -3 68.96 11.15
1 -3 -3 73.38 8.97
1 -3 -2 105.5 12.52
1 -3 -2 97.68 10.34
1 -3 -2 105.18 13.76
-1 3 2 69.39 8.35
-1 3 2 89.1 11.51
-1 3 1 727.97 33.29
-1 3 1 662.52 32.44
1 -3 -1 709.54 35.1
1 -3 -1 705.81 38.59
1 -3 -1 714.83 32.3
1 -3 0 1682.25 71.39
1 -3 0 1627 66.5
-1 3 0 1649.05 64.58
1 -3 0 1683.2 64.84
1 -3 0 1837.45 69
-1 3 0 1596.91 60.28
1 -3 1 5.91 3.36
-1 3 -1 1.32 2.86
1 -3 1 3.62 3.52
-1 3 -1 2.07 1.67
1 -3 1 1.21 2.19
-1 3 -2 166.16 13.43
1 -3 2 176.87 17.54
1 -3 2 191.66 19.34
-1 3 -2 157.98 14.06
-1 3 -2 167.46 15.68
1 -3 3 1185.89 55.16
-1 3 -3 1000.52 48.09
-1 3 -3 1036.6 48.51
-1 3 -3 1190.76 53.73
1 -3 3 1164.42 58.87
1 -3 4 256.6 25.27
-1 3 -4 228.68 19.97
1 -3 4 206.51 19.99
-1 3 -4 244.32 22.31
-1 3 -4 220.65 19.34
-1 3 -5 168.22 20.08
-1 3 -5 150.26 17.29
1 -3 5 179.79 21.81
-1 3 -6 55.14 12.35
1 -3 6 53.45 12.43
1 -3 7 61.76 7.94
1 -3 7 46.8 12.57
-1 3 -7 41.06 11.05
1 -3 7 35.96 5.37
1 -3 8 572.12 26.88
1 -3 8 497.21 27.97
1 -3 8 559.09 26.78
1 -3 9 778 33.67
-1 3 -9 732.1 32.32
1 -3 9 786.12 35.84
-1 3 -9 705.05 31.89
1 -3 9 765.52 33.71
1 -3 10 107.57 9.48
-1 3 -10 93.57 8.65
1 -3 10 98.19 9.92
-1 3 -10 86.22 8.18
-1 3 -11 12.43 3.26
-1 3 -11 8.25 2.43
1 -3 11 6.76 2.67
1 -3 11 13.81 3.22
1 -3 12 46.31 5.05
-1 3 -12 45.18 4.8
1 -3 12 30.02 4.11
-1 3 -13 131.97 7.48
1 -2 -13 67.31 5.71
1 -2 -13 66.53 5.89
1 -2 -12 82.94 7.45
1 -2 -12 81.65 7.47
1 -2 -11 581.91 26.02
1 -2 -11 502.87 24.21
1 -2 -11 584.33 26.06
1 -2 -10 22.81 4.36
1 -2 -10 27.9 4.72
1 -2 -10 20.16 4.05
1 -2 -9 2.11 2.06
1 -2 -9 1.72 1.16
1 -2 -9 0.74 1.81
-1 2 8 61.33 14.26
1 -2 -8 55.23 12.17
1 -2 -8 60.04 12.73
-1 2 8 46.8 11.77
1 -2 -8 83.8 17.15
-1 2 8 63.34 14.62
-1 2 7 1269.83 68.11
1 -2 -7 1248.79 65.76
1 -2 -7 1309.04 67.27
-1 2 7 1308.43 72.7
-1 2 7 1259.68 68.52
-1 2 6 2733.81 110.89
-1 2 6 2662.68 108.59
1 -2 -6 2670.43 107.52
1 -2 -6 2561.28 106.11
-1 2 6 2628.33 113.09
1 -2 -5 79.78 10.79
1 -2 -5 81.08 11.74
-1 2 5 79.21 12.03
-1 2 5 88.23 12.68
-1 2 5 83.49 13.83
1 -2 -5 82.57 11.59
-1 2 4 51.41 8.48
-1 2 4 51.49 9.92
-1 2 4 45.15 8.42
1 -2 -4 41.95 8.44
1 -2 -4 58.77 8.92
1 -2 -4 57.45 8.68
1 -2 -3 3.6 3.57
1 -2 -3 10.31 3.58
-1 2 3 10.4 3.77
1 -2 -3 13.27 4.47
1 -2 -3 7.33 4.38
-1 2 3 7.75 3.84
-1 2 3 6.41 2.7
-1 2 2 217.15 12.7
1 -2 -2 251.98 16.12
-1 2 2 245.35 16.12
-1 2 2 253.97 18.55
1 -2 -2 192.37 8.92
1 -2 -2 247.96 15.27
1 -2 -2 277.93 20.26
1 -2 -2 221.56 17.42
1 -2 -1 12.01 3.84
1 -2 -1 13.36 3.63
-1 2 1 12.74 2.69
-1 2 1 14.79 4.08
1 -2 -1 11.41 4.35
1 -2 -1 12.83 2.84
1 -2 0 3393.7 115.63
1 -2 0 3494.98 115.26
-1 2 0 3462.92 115.1
1 -2 0 3564.74 117.55
-1 2 0 3308.61 111.86
1 -2 1 328.04 19.05
1 -2 1 370.89 20.13
1 -2 1 368 23.08
1 -2 1 316.93 21.04
-1 2 -1 322.54 18.91
-1 2 -2 2106.98 74.9
1 -2 2 2075.81 77
1 -2 2 2122.32 80.38
-1 2 -2 1977.91 73.12
1 -2 2 1864.42 70.2
-1 2 -3 61.69 8.06
1 -2 3 53.79 8.68
-1 2 -3 63.24 8.34
-1 2 -3 56.86 8.47
1 -2 3 50.87 9.74
1 -2 3 42.89 5.11
1 -2 3 54.99 8.48
-1 2 -4 1095.06 49.88
-1 2 -4 974.43 46.16
1 -2 4 893.99 49.27
1 -2 4 963.4 44.56
-1 2 -4 1002.43 47.31
1 -2 4 981.77 51.35
1 -2 5 10.76 4.72
-1 2 -5 9.85 4.54
-1 2 -5 14.58 5.01
1 -2 5 11.69 5.55
1 -2 6 287.8 27.85
-1 2 -6 259.87 24.55
1 -2 6 270.9 27.71
-1 2 -6 301.04 27.65
1 -2 7 780.85 52.27
-1 2 -7 831.47 53.17
-1 2 -7 795.02 49.74
1 -2 7 731.39 52.17
-1 2 -8 693.37 49.11
1 -2 8 766.29 32.17
1 -2 8 602.98 49.24
1 -2 8 742.37 52.58
1 -2 8 670.84 31.01
-1 2 -8 788.5 53.98
1 -2 9 22.6 4.49
-1 2 -9 26.25 4.57
1 -2 9 19.46 4.13
-1 2 -9 18.82 4.07
-1 2 -10 29.19 4.89
-1 2 -10 26.73 4.57
1 -2 10 34.65 5.39
1 -2 11 18.81 4.27
1 -2 11 15.69 3.71
-1 2 -11 20.39 4
-1 2 -11 25.03 4.56
1 -2 12 256.76 14.7
-1 2 -12 247.64 14.06
1 -2 12 237.18 14.66
-1 2 -12 264.67 14.41
-1 2 -13 135.46 8.52
1 -2 13 142.56 8.99
-1 2 -13 134.47 8.39
1 -2 13 117.22 8.36
1 -1 -13 153.85 9.53
1 -1 -13 164.72 9.91
1 -1 -12 424.67 20.33
1 -1 -12 419.35 20.27
1 -1 -11 1.64 1.71
1 -1 -11 3.14 2.16
1 -1 -10 20.66 4.17
1 -1 -10 22.69 4.21
1 -1 -9 114.41 9.73
1 -1 -9 114.98 9.74
1 -1 -8 810.42 52.56
-1 1 8 763.07 52.86
-1 1 8 831.7 55.07
-1 1 8 799.45 55.93
1 -1 -8 797.2 51.1
1 -1 -7 320.92 28
-1 1 7 260.5 28.43
-1 1 7 317.65 29.85
1 -1 -7 328.21 28.98
-1 1 7 335.32 30.45
-1 1 6 242.48 23.96
1 -1 -6 258.32 23.31
1 -1 -6 260.05 23.95
-1 1 6 273.47 26.32
-1 1 6 265.21 24.82
-1 1 5 684.23 39.8
1 -1 -5 613 36.96
-1 1 5 648.02 40.62
1 -1 -5 687.75 37.93
-1 1 5 690.18 39.99
-1 1 4 3268 116.24
1 -1 -4 3629.1 115.93
1 -1 -4 3556.69 114.47
-1 1 4 3422.06 119.66
-1 1 4 3272.17 115.18
1 -1 -3 4040.86 121.76
1 -1 -3 3870.28 121.95
1 -1 -3 3270.78 108.43
-1 1 3 3580.67 125.64
1 -1 -3 3381.37 122.94
-1 1 3 3673.27 121.44
-1 1 3 3741.12 123.4
1 -1 -2 499.86 26.36
-1 1 2 467 25.28
-1 1 2 449.08 21.44
1 -1 -2 466.9 22.62
1 -1 -2 382.48 15.05
-1 1 2 458.33 23.27
1 -1 -1 807.48 35.23
1 -1 -1 809.62 31.32
1 -1 -1 747.19 28.08
-1 1 1 753.74 32.92
-1 1 1 743.29 27.67
-1 1 1 733.05 30.32
-1 1 0 210.81 9.81
-1 1 0 223.69 11.91
1 -1 0 235.24 13.37
1 -1 0 218.08 12.41
-1 1 0 209.57 10.36
1 -1 1 9896.46 302.99
1 -1 1 9110.59 296.59
1 -1 1 9999 305.11
1 -1 2 1104.25 43.79
1 -1 2 1161.36 44.82
-1 1 -2 1141.27 44.41
1 -1 3 2189.48 78.04
1 -1 3 1973.02 70.75
-1 1 -3 2122.12 75.24
1 -1 3 2042.75 71.79
1 -1 3 1838.64 67.8
-1 1 -3 2060.65 74.77
1 -1 3 2093.9 78.39
-1 1 -3 2266.51 76.05
1 -1 4 15.78 4.95
1 -1 4 21.92 4.82
-1 1 -4 17.58 4.56
-1 1 -4 6.98 3.8
1 -1 4 16.03 4.34
1 -1 4 20.55 6.08
-1 1 -4 25.42 5.92
1 -1 4 15.79 3.39
-1 1 -5 313.98 24.03
1 -1 5 333.74 25.54
1 -1 5 311.67 25.46
1 -1 5 352.25 23.79
-1 1 -5 352.06 25.61
1 -1 6 505.31 35.3
1 -1 6 449.39 34.27
-1 1 -6 498.06 34.63
-1 1 -6 481.88 33.44
1 -1 6 481.37 31.72
1 -1 7 18.96 7.15
1 -1 7 19.21 6.95
-1 1 -7 6.9 4.64
1 -1 7 16.83 7.21
-1 1 -7 6.27 3.41
-1 1 -8 192.58 24.09
1 -1 8 146.87 21.04
-1 1 -8 159.91 21.06
1 -1 8 152.5 21.17
-1 1 -9 8.39 5.16
-1 1 -9 5.45 1.99
-1 1 -9 6.09 2.23
-1 1 -9 4.63 2.09
1 -1 9 -4.31 4.46
1 -1 9 3.43 2.54
1 -1 9 4.71 2.21
-1 1 -10 30.62 5.08
-1 1 -10 33.94 5.32
1 -1 10 35.99 5.63
1 -1 11 214.06 14.74
-1 1 -11 252.98 15.3
-1 1 -11 233.39 14.81
-1 1 -12 65.24 6.76
1 -1 12 53.06 6.41
-1 1 -12 56.54 6.42
1 -1 13 202.18 11.91
-1 1 -13 207.77 11.72
-1 1 -13 191.55 11.49
1 -1 13 183.81 11.98
-1 1 -14 15.89 2.32
1 -1 14 18.18 2.71
1 0 -13 3.99 1.84
1 0 -13 3.25 1.61
-1 0 13 3.33 1.7
1 0 -12 214.17 12.88
1 0 -12 224.56 13.14
1 0 -11 16.32 3.65
1 0 -11 14.01 3.19
1 0 -10 32.79 5.15
-1 0 10 28.17 4.97
1 0 -10 32.81 4.96
-1 0 9 12.3 3.44
1 0 -9 10.38 3
1 0 -9 13.97 3.49
1 0 -8 33 9.6
-1 0 8 28.83 10.22
-1 0 8 47.55 11.64
-1 0 8 49.3 11.8
1 0 -7 212.91 23.28
-1 0 7 197.82 23.17
-1 0 7 202.22 24.47
-1 0 7 233.07 25.46
1 0 -6 262.26 24.06
-1 0 6 255.14 24.9
-1 0 6 217.88 23.94
-1 0 6 239.29 23.67
-1 0 5 2931.76 112.71
-1 0 5 2971.76 113.73
-1 0 5 2778.73 103.84
-1 0 5 2812.07 114.89
1 0 -5 3049.92 111.94
-1 0 4 179.97 14.22
-1 0 4 194.41 17.86
1 0 -4 219.82 16.78
1 0 -4 192.9 16.97
-1 0 4 187.53 18.42
-1 0 4 195.05 17.93
-1 0 3 1731 65.61
-1 0 3 1811.29 73.28
1 0 -3 1783.94 69.29
-1 0 3 1804.47 70.97
1 0 -3 2017.01 70.64
-1 0 3 1820.15 71.01
1 0 -2 808.18 35
-1 0 2 745.52 33.68
-1 0 2 744.67 30.94
1 0 -1 4605.09 149.83
-1 0 1 4581.51 146.15
-1 0 0 3221 104.39
1 0 0 3329.98 104.59
1 0 1 1407.03 48.36
-1 0 -2 1494.7 51.12
1 0 2 1445.4 52.39
-1 0 -3 416.44 20.32
1 0 3 409.15 21.5
1 0 3 348.86 15.56
-1 0 -4 30.87 5.45
1 0 4 26.07 5.96
-1 0 -4 28.43 5.73
1 0 4 29.41 5.8
1 0 4 42.42 7.32
1 0 4 27.08 4.93
1 0 5 5.43 3
1 0 5 7.58 3.87
-1 0 -5 8.56 4.24
1 0 5 3.35 2.58
-1 0 -5 5.42 3.4
-1 0 -6 181.53 18.58
1 0 6 185.66 18.54
1 0 6 168.91 16.93
1 0 6 186.24 19.37
-1 0 -6 202.11 19.33
1 0 6 171.64 17.5
1 0 7 274.06 25.16
1 0 7 295.61 25.83
-1 0 -7 316.88 27.01
1 0 7 280.41 24.97
1 0 7 283.72 27.2
-1 0 -7 321.21 27.43
1 0 8 733.68 49.48
-1 0 -8 592.2 43.45
1 0 8 717.84 46.43
-1 0 -8 788.29 49.07
-1 0 -9 49.93 11.71
-1 0 -9 50.5 6.21
-1 0 -9 75.36 14.98
-1 0 -9 49.3 5.95
1 0 9 43.77 11.01
1 0 9 54.08 13.08
1 0 10 7.03 3.15
-1 0 -10 6.56 2.42
-1 0 -10 5.36 2.24
-1 0 -11 393.91 20.58
1 0 11 370.83 20.76
-1 0 -11 417.71 21.29
-1 0 -12 421.03 20.74
-1 0 -12 396.76 20.18
1 0 12 388.8 20.53
-1 0 -13 28.95 4.11
-1 0 -13 26.59 4.09
1 0 13 29.47 4.09
-1 0 -14 73.64 5.59
1 0 14 71.16 6.34
-1 0 -14 89.5 6.46
1 1 -13 144.81 8.47
1 1 -13 135.95 8.21
-1 -1 13 146.54 9.13
1 1 -12 28.22 4.21
1 1 -12 37.15 4.77
-1 -1 12 40.52 5.45
1 1 -11 23.3 4.17
1 1 -11 22.42 4.07
1 1 -10 724.67 31.61
-1 -1 10 711.8 31.94
1 1 -10 726.95 31.31
-1 -1 9 662.49 29.91
1 1 -9 641.18 29.09
1 1 -9 630.67 28.62
1 1 -8 431.99 21.32
-1 -1 8 415.76 21.7
1 1 -8 417.14 37
1 1 -8 428.64 21.42
-1 -1 8 408.05 37.73
-1 -1 7 187.01 23.19
1 1 -7 199.56 23.29
-1 -1 7 177.52 24.37
-1 -1 6 825.42 54.62
1 1 -6 1000.48 54.08
-1 -1 6 894.47 53.61
1 1 -6 972.67 52.53
-1 -1 6 793.05 50.67
-1 -1 6 844.38 47.57
1 1 -5 -6.75 3.45
-1 -1 5 -7.57 3.79
1 1 -5 -0.02 4.18
-1 -1 5 4.17 4.56
1 1 -5 2.01 3.64
-1 -1 5 5.83 4.62
-1 -1 5 -2.81 4.01
-1 -1 4 413.18 28.85
-1 -1 4 427.62 29.66
1 1 -4 463.47 27.36
1 1 -4 440.81 28.28
1 1 -4 457.97 29.75
-1 -1 4 443.74 32.11
-1 -1 4 452.82 27.89
-1 -1 3 76.4 10.64
1 1 -3 72.96 10.01
1 1 -3 72.92 9.36
1 1 -3 64.59 8.83
-1 -1 3 68.12 9.09
-1 -1 3 78.21 10.28
1 1 -2 2139.9 78.62
-1 -1 2 2264.5 81.68
-1 -1 2 2112.25 77.75
1 1 -2 2076.62 76.89
1 1 -2 2298.6 79.16
-1 -1 2 2064.85 78.31
1 1 -1 5512.14 178.56
-1 -1 1 5580.92 180.67
1 1 -1 5715.05 178.23
1 1 0 844.97 30.99
-1 -1 0 883.14 29.71
-1 -1 -1 4331.13 132.69
1 1 1 4228.8 130.15
1 1 1 4026.86 135.28
-1 -1 -2 140.95 8
-1 -1 -2 134.78 10.01
1 1 2 146.3 9.28
-1 -1 -2 134.59 7.07
-1 -1 -2 147.71 9.81
-1 -1 -3 149.97 10.06
1 1 3 151.9 11.83
-1 -1 -3 129.31 9.34
-1 -1 -3 151.75 11.52
-1 -1 -3 140.83 9.15
1 1 3 140.73 8.35
-1 -1 -4 10.79 3.36
1 1 4 14.77 4.49
-1 -1 -4 14.66 2.93
-1 -1 -4 11.51 3
-1 -1 -4 13.55 3.81
1 1 4 11.71 3.25
-1 -1 -5 1124.88 50.54
1 1 5 1197.57 50.96
1 1 5 1135.69 51.46
-1 -1 -5 1106.87 51.23
1 1 5 1169.56 53.76
1 1 5 1144.31 51.61
1 1 6 1992.68 82.17
1 1 6 2059.02 84.43
-1 -1 -6 2117.26 86.15
1 1 6 2192.31 89.23
-1 -1 -6 2177.73 84.86
1 1 6 2029.49 85.21
-1 -1 -7 226.24 21.77
1 1 7 194.98 22.06
1 1 7 215.37 21.89
1 1 7 227.71 22.3
1 1 7 209.4 19.79
-1 -1 -7 196.06 20.74
1 1 8 15.11 6.77
-1 -1 -8 10.22 5.92
1 1 8 2.33 3.43
-1 -1 -8 13.72 6.9
1 1 8 1.87 3.85
-1 -1 -9 44.4 10.89
1 1 9 33.25 10.35
1 1 9 39.07 11.08
-1 -1 -10 449.55 22.05
1 1 10 400.57 21.65
-1 -1 -10 437.87 21.93
-1 -1 -10 419.39 21.48
-1 -1 -11 123.33 10
1 1 11 112.04 9.85
-1 -1 -12 48.02 5.94
-1 -1 -12 41.42 5.53
1 1 12 42.72 5.79
-1 -1 -13 212.03 12.38
-1 -1 -13 211.26 12.66
1 1 13 190.66 12.11
-1 -1 -14 18.61 3.15
1 2 -13 109.69 6.26
-1 -2 13 92.4 6.33
1 2 -12 261.5 13.1
-1 -2 12 258.46 14.06
1 2 -12 264.21 13.1
1 2 -11 21.06 3.7
1 2 -11 23.09 3.84
-1 -2 11 14.02 3.47
1 2 -10 216.14 14.03
1 2 -10 243.37 14.87
-1 -2 9 36.49 5.61
1 2 -9 25.52 4.59
1 2 -9 26.62 4.6
1 2 -8 52.11 6.32
1 2 -8 51.59 6.31
-1 -2 8 46.07 6.13
-1 -2 7 312.8 33.01
1 2 -7 358.95 32.48
1 2 -7 341.44 33
-1 -2 6 245.63 27.13
1 2 -6 254.44 26.14
1 2 -6 251.53 25.06
-1 -2 6 220.53 28.65
-1 -2 6 232.09 24.57
-1 -2 5 1651.24 81.55
-1 -2 5 1744.66 79.38
1 2 -5 1883.25 81.91
1 2 -5 1701.56 75.1
1 2 -5 1762.65 77.9
-1 -2 5 1625.39 85.81
-1 -2 4 6.36 4.35
1 2 -4 10.5 5.22
1 2 -4 9.01 5.58
1 2 -4 5.96 3.42
-1 -2 4 4.8 3.32
-1 -2 4 18.18 5.57
-1 -2 3 941.85 46.1
-1 -2 3 891.36 45.71
1 2 -3 960.33 44.76
1 2 -3 851.51 42.31
-1 -2 3 956.56 49.39
1 2 -3 905.36 45.39
1 2 -2 703.77 35.01
-1 -2 2 760.79 37.14
1 2 -2 647.54 31.66
-1 -2 2 663.68 35.6
-1 -2 2 642.01 33.67
-1 -2 2 658.04 33.73
1 2 -2 743.82 35.42
1 2 -1 2544.77 88.89
1 2 -1 2414.52 86.01
-1 -2 1 2396.32 89.36
1 2 -1 2400.81 82.65
-1 -2 1 2505.66 86.68
-1 -2 0 4765.17 143.56
1 2 0 4117.88 139.49
1 2 1 727.63 31.5
1 2 1 640.42 23.91
1 2 2 16.32 3.76
1 2 2 14.25 3.55
-1 -2 -2 10.12 3.17
-1 -2 -2 14.74 3.54
-1 -2 -2 16.19 3.64
1 2 3 86.29 8.86
1 2 3 82.25 7.19
-1 -2 -3 90.97 9.05
-1 -2 -3 91.38 8.59
-1 -2 -3 94.02 9.67
-1 -2 -3 85.57 8.5
-1 -2 -4 1864.42 67.07
1 2 4 1942.33 70.41
-1 -2 -4 1792.3 67.55
-1 -2 -4 1961.29 68.9
1 2 4 1995.03 68.43
1 2 5 95.2 12.04
-1 -2 -5 92.96 11.72
-1 -2 -5 100.2 11.1
-1 -2 -5 77.03 9.87
1 2 5 92.59 10.82
1 2 6 1036.4 49.37
1 2 6 1011.88 51.68
-1 -2 -6 944.27 48.65
1 2 6 1007.13 51.04
-1 -2 -6 1004.8 50.48
1 2 6 1093.71 54.58
-1 -2 -7 5.05 3.7
1 2 7 7.96 4.1
1 2 7 5.69 3.42
-1 -2 -7 6.88 4.34
1 2 7 6.77 3.34
1 2 8 77 14.4
-1 -2 -8 85.54 14.37
1 2 8 94.58 16.33
1 2 8 83.58 15.59
1 2 9 319.23 33.23
-1 -2 -9 308.57 30.49
1 2 9 332.35 33.34
1 2 9 304.83 31.75
-1 -2 -10 61.82 6.9
-1 -2 -10 65.78 7.36
-1 -2 -10 55.42 6.42
-1 -2 -11 59.09 6.67
-1 -2 -11 63.42 7.02
-1 -2 -12 23.18 4.3
-1 -2 -12 22.28 3.93
-1 -2 -13 310.98 16.44
-1 -2 -14 329.96 15.71
1 3 -12 2.49 1.29
-1 -3 12 1.47 1.23
-1 -3 12 3.16 1.16
1 3 -11 254.98 13.62
1 3 -11 226.37 12.71
-1 -3 11 266.6 14.88
1 3 -10 31.37 4.55
1 3 -10 28.03 4.3
-1 -3 10 26.6 5.08
-1 -3 9 0.97 2.28
1 3 -9 -1.31 1.9
-1 -3 9 -0.59 1.6
1 3 -9 1.65 1.68
-1 -3 8 261.63 18.56
1 3 -8 243.62 15.56
-1 -3 8 287.93 16.98
1 3 -8 260.43 16
-1 -3 7 565.53 26.54
1 3 -7 571.74 25.85
1 3 -7 468.95 24.49
-1 -3 7 511.71 43.97
-1 -3 7 605.33 30.61
1 3 -6 1549.26 79.06
-1 -3 6 1328.79 74.63
-1 -3 6 1406.3 77.33
-1 -3 5 2.77 4.44
-1 -3 5 0.79 3.4
1 3 -5 1.69 3.82
1 3 -5 16.71 6.64
1 3 -5 3.23 5.2
-1 -3 4 1022.19 57.04
1 3 -4 1124.03 56.71
1 3 -4 1030.14 53.38
1 3 -4 930.13 49.34
-1 -3 4 985.94 53.82
-1 -3 4 919.76 51.5
-1 -3 3 188.43 19.09
1 3 -3 190.55 18.95
-1 -3 3 173.31 19.14
1 3 -3 164.12 15.53
1 3 -3 179.15 18.15
-1 -3 3 203.16 19.13
-1 -3 2 2773.06 103.38
1 3 -2 2661.78 97.97
-1 -3 2 2619.38 100.32
1 3 -2 2610.62 98.52
-1 -3 2 2730.72 96.9
-1 -3 1 1841.56 75.09
1 3 -1 1738.45 68.97
-1 -3 1 1749.26 73.22
1 3 -1 1781.62 72.4
-1 -3 1 1803.25 68.97
-1 -3 0 95.29 9.77
-1 -3 0 97.01 11.69
1 3 0 87.3 10.75
1 3 0 76.8 8.32
-1 -3 0 95.79 11.66
-1 -3 -1 62.21 8.87
-1 -3 -1 65.11 7.68
-1 -3 -1 66.47 9.39
1 3 1 52.7 8.02
1 3 1 50 5.22
1 3 2 775.6 29.84
-1 -3 -2 971.5 43.02
-1 -3 -2 783.68 30.73
1 3 2 912.66 39.86
-1 -3 -2 1003.54 38.48
-1 -3 -2 972.33 41.75
-1 -3 -3 1517.72 59.23
1 3 3 1599.36 55.3
1 3 3 1365.63 52.75
-1 -3 -3 1486.01 56.61
-1 -3 -3 1466.88 53.49
1 3 4 7.22 3.59
-1 -3 -4 2.05 1.89
-1 -3 -4 2.91 2.07
-1 -3 -4 6.54 3.86
1 3 4 2.61 1.78
-1 -3 -5 669.87 36.89
1 3 5 667.29 34
-1 -3 -5 652.67 35.3
1 3 5 719.7 38.86
-1 -3 -5 650.58 37.52
-1 -3 -6 2.97 2.65
1 3 6 9.27 4.77
1 3 6 9.18 4.24
1 3 6 4.83 4.1
-1 -3 -6 11.3 4.96
1 3 7 440.97 34.39
1 3 7 445.35 34.64
1 3 7 508.38 37.78
-1 -3 -7 433.23 32.16
-1 -3 -7 397.54 32.05
1 3 8 54.49 12.54
1 3 8 45.55 11.21
1 3 8 46.28 12.65
-1 -3 -8 60.59 12.46
-1 -3 -9 102.02 9.17
1 3 9 146.71 22.17
-1 -3 -9 119.99 9.86
1 3 9 114.13 19.12
-1 -3 -9 127.4 18.82
1 3 9 126.28 20.91
-1 -3 -10 138.92 10.94
-1 -3 -10 158.51 11.57
-1 -3 -10 132.83 10.87
-1 -3 -11 4.67 1.97
-1 -3 -11 6.68 2.24
-1 -3 -11 6.34 2.29
-1 -3 -12 188.35 12.47
-1 -3 -12 167.7 11.78
-1 -3 -13 205.85 12.43
-1 -3 -13 203.5 12.02
-1 -3 -14 86.32 6.51
1 4 -11 7.79 2.05
-1 -4 11 8.63 2.13
-1 -4 11 5.74 2.02
1 4 -10 15.33 2.97
-1 -4 10 9.47 2.85
1 4 -9 35.15 5.11
-1 -4 9 34.13 5.66
1 4 -8 598.65 27.74
-1 -4 8 635.26 31.69
1 4 -7 548.31 26.21
-1 -4 7 598.06 27.51
-1 -4 7 531.16 29.9
1 4 -6 175.97 12.53
-1 -4 6 197.26 13.79
-1 -4 6 178.47 15.39
-1 -4 5 147.86 21.92
1 4 -5 154.9 21.6
1 4 -5 139.6 19.78
-1 -4 5 135.65 20.2
1 4 -4 16.27 7.46
1 4 -4 28.17 9.09
-1 -4 4 14.37 6.16
-1 -4 4 19.64 6.78
-1 -4 3 922.92 55.83
1 4 -3 963.95 53.62
1 4 -3 982.55 53.53
-1 -4 3 879.21 49.96
-1 -4 3 878.97 52.21
-1 -4 2 89.9 14.06
1 4 -2 91.09 13.61
1 4 -2 99.54 13.72
-1 -4 2 81.42 11.7
-1 -4 2 115.26 16.51
1 4 -1 533.89 35.02
1 4 -1 513.08 31.89
-1 -4 1 517.96 35.49
-1 -4 1 604.69 38.61
-1 -4 1 560.3 31.79
-1 -4 0 2026.02 81.88
-1 -4 0 1853.25 79.99
-1 -4 0 1916.66 72.88
1 4 0 1820.87 78.51
1 4 0 1683.86 70.59
-1 -4 -1 3456.35 132.69
-1 -4 -1 3650.75 131.15
1 4 1 3528.75 130.82
-1 -4 -1 3621.43 124.36
1 4 2 1644.86 69.84
-1 -4 -2 1636.07 64.08
-1 -4 -2 1610.42 71.8
-1 -4 -2 1619.07 71.24
-1 -4 -3 829.26 45.76
1 4 3 909.76 41.91
-1 -4 -3 824.05 44.33
1 4 3 810.65 42.07
-1 -4 -3 794.38 38.17
-1 -4 -4 115.73 14.57
1 4 4 115.01 12.18
1 4 4 112.93 12.29
-1 -4 -4 101.1 14.07
1 4 4 134.13 14.7
-1 -4 -5 315.75 26.4
1 4 5 417.7 29.43
-1 -4 -5 390.43 29.98
-1 -4 -6 1288.66 66.29
1 4 6 1350.12 67.21
1 4 6 1417.86 67.58
-1 -4 -6 1185.86 63.76
1 4 6 1304.03 66.39
1 4 7 262.57 27.21
1 4 7 210.81 24.02
1 4 7 221.85 24.59
-1 -4 -7 192.69 22.66
1 4 8 317.13 32.62
1 4 8 340.55 33.73
1 4 8 333.9 32.94
-1 -4 -9 135.01 10.71
-1 -4 -9 139.69 10.9
-1 -4 -10 41.56 5.83
-1 -4 -10 48.92 6.39
-1 -4 -11 31.75 4.92
-1 -4 -11 32.94 5.18
-1 -4 -12 7.81 2.72
-1 -4 -13 250.73 13.78
-1 -4 -14 25.02 3.66
-1 -4 -14 16.05 2.67
1 5 -10 5.53 1.65
-1 -5 10 4.96 1.66
-1 -5 10 6.18 2.16
1 5 -9 244.82 13.49
-1 -5 9 273.26 15.9
1 5 -8 21.19 3.81
-1 -5 8 26.7 5.53
1 5 -7 94.7 8.64
-1 -5 7 87.36 10.11
-1 -5 6 15.18 4.55
-1 -5 5 112.66 11.91
1 5 -4 508.07 41.56
-1 -5 4 492.97 26.46
-1 -5 4 488.02 43.79
-1 -5 3 46.07 12.75
1 5 -3 59.42 13.5
-1 -5 2 167.97 22.91
-1 -5 2 136.94 19.78
1 5 -2 155.21 20.29
-1 -5 1 233.69 25.95
1 5 -1 252.95 25.97
-1 -5 0 983.72 58.19
-1 -5 0 1121.95 60.3
1 5 0 1014.4 57.51
-1 -5 -1 170.73 20.96
1 5 1 192.75 21.26
-1 -5 -1 178.11 19.92
1 5 2 1222.83 62.41
-1 -5 -2 1148.87 62.78
1 5 3 831.51 44.71
1 5 3 811.53 47.06
-1 -5 -3 808.41 49.93
-1 -5 -3 776.19 48.57
1 5 4 742.69 42.73
-1 -5 -4 727.24 47.27
-1 -5 -4 668.56 44.59
-1 -5 -5 1475.55 75.88
1 5 5 1441.28 70.18
1 5 5 1488.55 72.36
-1 -5 -5 1447.92 73.68
1 5 6 26.19 8.98
-1 -5 -6 27.62 9.24
1 5 6 24.83 7.56
1 5 6 30.44 8.54
-1 -5 -6 6.71 4.83
1 5 7 705.23 50.22
-1 -5 -7 621.17 47.86
1 5 7 769.53 52.08
1 5 7 821.28 54.08
-1 -5 -8 173.69 13.25
1 5 8 155.37 23.43
-1 -5 -8 207.97 13.73
-1 -5 -9 5.47 2.56
-1 -5 -9 4.87 1.99
-1 -5 -9 4.47 1.98
-1 -5 -10 85.88 8.45
-1 -5 -10 56.48 6.82
-1 -5 -11 32.43 5.11
-1 -5 -11 33.38 5.63
-1 -5 -12 431.27 22.19
-1 -5 -12 435.44 20.83
-1 -5 -13 2.5 1.17
-1 -5 -13 1.56 1.47
-1 -5 -14 0.26 0.81
-1 -5 -14 1.02 1.06
-1 -6 9 1.9 1.26
-1 -6 9 3.27 1.49
-1 -6 9 4.92 1.81
-1 -6 8 383.25 18.67
-1 -6 8 393.86 20.46
-1 -6 7 56.87 7.51
-1 -6 6 276.18 19.31
-1 -6 5 421.05 25.19
-1 -6 4 324.44 20.92
-1 -6 3 17.51 4.31
-1 -6 2 14.31 7.31
-1 -6 2 13.75 3.6
1 6 -2 8.66 5.76
-1 -6 2 7.73 2.83
-1 -6 1 382.62 37.14
1 6 -1 355.26 34.75
-1 -6 1 316.05 33.73
-1 -6 0 167.41 23.19
1 6 0 211.27 25.77
-1 -6 0 150.2 22.27
-1 -6 -1 87.63 16.74
1 6 1 90.74 16.16
1 6 2 18.5 7.87
-1 -6 -2 24.03 9.44
1 6 3 28.91 8.79
-1 -6 -3 10.82 5.83
-1 -6 -4 194.74 25.24
-1 -6 -4 160.05 22.56
1 6 5 629.35 46.34
-1 -6 -5 582.16 46.94
-1 -6 -5 534.37 44.27
-1 -6 -6 1437.49 84.36
-1 -6 -6 1649.62 60.3
-1 -6 -6 1635.94 60.69
-1 -6 -6 1621.39 61.17
-1 -6 -6 1594.71 60.67
1 6 6 1468.85 84.22
-1 -6 -7 406.17 22.07
-1 -6 -7 424.79 23.61
-1 -6 -7 441.99 24.01
-1 -6 -7 464.08 24.27
-1 -6 -7 474.27 24.37
-1 -6 -8 118.18 11.29
-1 -6 -8 112.15 11.46
-1 -6 -8 117.23 10.33
-1 -6 -8 118.75 11.03
-1 -6 -9 26.28 5.16
-1 -6 -9 26.91 5.41
-1 -6 -9 23.07 4.55
-1 -6 -10 268.97 18.56
-1 -6 -10 295.03 16.84
-1 -6 -10 273.97 16.94
-1 -6 -11 593.53 28.78
-1 -6 -11 587.31 26.24
-1 -6 -12 20.11 3.96
-1 -6 -12 25.96 4.12
-1 -6 -13 6.27 1.96
-1 -6 -13 4.94 1.78
-1 -7 8 3.85 1.23
-1 -7 8 3.97 1.56
-1 -7 8 5.92 1.81
-1 -7 7 0.93 2.13
-1 -7 7 0.99 1.63
-1 -7 7 0.18 1.38
-1 -7 6 135.25 11.44
-1 -7 6 128.6 11.5
-1 -7 6 120.41 9.78
-1 -7 5 161.75 13.54
-1 -7 5 155.91 13.67
-1 -7 5 172.69 12.49
-1 -7 4 5.65 2.86
-1 -7 4 3.77 1.99
-1 -7 3 12.32 3.94
-1 -7 3 0.01 2.44
-1 -7 3 8.47 3.03
-1 -7 2 515.13 27.07
-1 -7 2 480.99 26.71
-1 -7 1 16.51 4.26
-1 -7 1 14.94 3.95
-1 -7 1 15.4 4.19
-1 -7 0 547.49 26.7
-1 -7 0 553.49 26.89
-1 -7 0 525.94 27.89
-1 -7 -1 1.29 1.65
-1 -7 -1 -1.81 1.45
-1 -7 -1 -1.9 2.15
-1 -7 -2 6.7 2.25
-1 -7 -2 4.86 2.26
-1 -7 -2 15.08 4.04
-1 -7 -2 7.09 2.79
-1 -7 -2 8.69 3.14
-1 -7 -3 4.77 2.37
-1 -7 -3 8.06 3
-1 -7 -3 7.7 2.67
-1 -7 -3 4.02 2.49
-1 -7 -3 7.23 2.84
-1 -7 -4 186.66 14.64
-1 -7 -4 197.96 13.98
-1 -7 -4 200.78 14.74
-1 -7 -4 186.93 13.69
-1 -7 -4 199.06 14.6
-1 -7 -5 630.8 30.44
-1 -7 -5 619.1 30.19
-1 -7 -5 616.99 29.4
-1 -7 -5 620.84 30.84
-1 -7 -6 3.02 2.75
-1 -7 -6 4.89 2.23
-1 -7 -6 -0.44 1.82
-1 -7 -6 8.54 3.17
-1 -7 -7 3.27 1.52
-1 -7 -7 4.14 2.43
-1 -7 -7 3.7 2.82
-1 -7 -7 3.04 2.44
-1 -7 -8 0.4 2.12
-1 -7 -8 1.22 1.92
-1 -7 -8 0.29 1.44
-1 -7 -8 1.38 2.37
-1 -7 -8 5.43 3.24
-1 -7 -9 578.06 27.02
-1 -7 -9 526.13 24.75
-1 -7 -10 310.29 16.56
-1 -7 -10 317.38 17.64
-1 -7 -11 12.81 2.79
-1 -7 -11 10.21 3.14
-1 -7 -11 10.87 2.67
-1 -7 -12 14.88 2.93
-1 -7 -12 13.37 2.63
-1 -7 -13 32.35 3.26
-1 -8 6 355.58 17.93
-1 -8 6 389.55 18.47
-1 -8 5 81.44 8.43
-1 -8 5 76.72 8.04
-1 -8 4 34.34 5.89
-1 -8 4 25.27 5.04
-1 -8 3 160.15 13.18
-1 -8 3 149.08 12.68
-1 -8 3 135.49 11.05
-1 -8 2 1095.17 44.18
-1 -8 2 1060.51 43.94
-1 -8 1 628.4 30.16
-1 -8 1 649.45 30.56
-1 -8 1 596.53 30.5
-1 -8 0 -0.62 1.75
-1 -8 0 -2.94 2.07
-1 -8 0 -0.34 2.38
-1 -8 -1 5.8 3.1
-1 -8 -1 5.36 2.49
-1 -8 -1 3.05 2.29
-1 -8 -2 196.64 13.75
-1 -8 -2 202.99 13.89
-1 -8 -2 180.32 14.2
-1 -8 -3 169.06 13.9
-1 -8 -3 160.12 12.56
-1 -8 -3 163.55 12.97
-1 -8 -3 169.54 12.55
-1 -8 -4 166.74 12.76
-1 -8 -4 164.93 13.27
-1 -8 -4 169.28 13.82
-1 -8 -5 28.39 5.58
-1 -8 -5 32.46 5.56
-1 -8 -5 21.35 4.64
-1 -8 -6 42.81 6.82
-1 -8 -6 44.3 6.66
-1 -8 -6 42.22 6.5
-1 -8 -7 59.52 7.56
-1 -8 -7 62.02 7.85
-1 -8 -7 74.42 8.67
-1 -8 -8 43.33 6.08
-1 -8 -8 38.69 6.17
-1 -8 -9 14.93 3.86
-1 -8 -9 9.13 2.78
-1 -8 -10 126.49 9.55
-1 -8 -10 106.54 9.38
-1 -8 -11 24.21 3.42
-1 -8 -11 23.11 3.47
-1 -8 -11 18.07 2.67
-1 -9 4 1.83 1.31
-1 -9 4 -0.48 1.27
-1 -9 3 200.37 13.41
-1 -9 3 203.33 13.22
-1 -9 2 54.78 6.79
-1 -9 2 59.05 7.01
-1 -9 2 61.9 6.68
-1 -9 1 81.08 8.55
-1 -9 1 82.63 8.47
-1 -9 1 91.23 8.88
-1 -9 0 24.54 4.55
-1 -9 0 28.99 5.39
-1 -9 0 34.73 5.5
-1 -9 -1 99.53 9.19
-1 -9 -1 100.93 10.17
-1 -9 -1 102.18 9.31
-1 -9 -2 284.42 16.78
-1 -9 -2 266.87 16.14
-1 -9 -2 259.77 17.36
-1 -9 -3 137.16 11.52
-1 -9 -3 130.88 10.46
-1 -9 -3 107.9 9.72
-1 -9 -4 157.84 11.65
-1 -9 -4 143.41 11.83
-1 -9 -4 131.93 11.21
-1 -9 -5 3.69 2.22
-1 -9 -5 5.92 2.52
-1 -9 -5 3.02 2.09
-1 -9 -6 0.7 2.3
-1 -9 -6 2.22 2.33
-1 -9 -6 5.98 3.03
-1 -9 -7 6.09 2.49
-1 -9 -7 13.36 3.85
-1 -9 -8 97.46 8.64
-1 -9 -9 87.82 7.46
-1 -9 -10 12.49 2.38
-1 -10 1 14.47 2.67
-1 -10 1 16.16 2.89
-1 -10 0 14.12 2.98
-1 -10 0 11.95 2.97
-1 -10 -1 10.54 2.64
-1 -10 -1 11.44 3.31
-1 -10 -2 300.3 17
-1 -10 -2 247.89 14.19
-1 -10 -3 297.77 16.87
-1 -10 -3 262.1 14.46
-1 -10 -4 66.96 6.33
-1 -10 -4 70.99 7.43
-1 -10 -5 209.73 12.83
-1 -10 -5 243.53 14.21
-1 -10 -6 85.4 7.49
-1 -10 -6 80.05 7.19
-1 -10 -7 150.32 9.97
-1 -10 -8 49.17 4.83
2 -9 -7 33.21 3.87
2 -9 -6 49.5 5.19
2 -9 -5 340.89 17.1
2 -9 -4 33.07 4.63
2 -9 -3 28.42 4.35
2 -9 -2 54.99 6.16
2 -9 -2 47.1 5.45
2 -9 -1 55.45 6.22
2 -9 0 181.95 12.55
2 -9 1 11.63 3.12
2 -9 2 27.07 4.69
2 -9 3 16.75 3.43
2 -9 4 172.54 10.07
2 -8 -9 6.13 1.72
2 -8 -8 7.23 2.33
2 -8 -7 57.75 6.53
2 -8 -6 286.36 16.64
2 -8 -5 243.16 15.28
2 -8 -4 1.81 2.35
2 -8 -4 -0.5 1.76
2 -8 -3 0.35 1.75
2 -8 -3 1.21 1.57
2 -8 -2 21.7 4.31
2 -8 -2 22.59 4.39
2 -8 -2 17.17 3.83
2 -8 -1 190.79 13.17
2 -8 -1 181.32 13.61
2 -8 -1 178.12 12.53
2 -8 0 24.17 4.23
2 -8 0 21.55 4.78
2 -8 0 35.09 5.44
2 -8 1 465.1 24.62
2 -8 1 388.46 20.53
2 -8 2 250.71 17.75
2 -8 2 251.45 14.9
2 -8 3 134.3 9.97
2 -8 3 118.5 11.65
2 -8 4 152.14 12.32
2 -8 4 129.32 9.51
2 -8 5 82.56 7.96
2 -8 6 79.66 6.51
2 -7 -10 73.52 6.02
2 -7 -10 59.26 4.98
2 -7 -9 31.8 4.01
2 -7 -9 39.1 5.04
2 -7 -9 25.31 3.82
2 -7 -8 6.21 1.94
2 -7 -8 3.17 2.09
2 -7 -8 5.39 2.3
2 -7 -7 274.76 16.62
2 -7 -7 244.53 14.32
2 -7 -7 238.98 15.65
2 -7 -6 4.8 2.61
2 -7 -6 -0.78 2.5
2 -7 -6 -0.34 2.35
2 -7 -5 130.39 11.14
2 -7 -5 115.08 10.6
2 -7 -5 120.72 11.11
2 -7 -4 8.99 3.58
2 -7 -4 10.61 3.42
2 -7 -4 2.04 2.03
2 -7 -3 847.99 36.27
2 -7 -3 931.27 38.4
2 -7 -2 839.74 34.35
2 -7 -2 962.95 37.18
2 -7 -2 716.95 32.69
2 -7 -1 45.27 6.42
2 -7 -1 48.69 6.93
2 -7 -1 46.55 6.31
2 -7 0 228.38 15.44
2 -7 0 259.72 17.58
2 -7 0 250.28 15.74
2 -7 1 16.17 3.75
2 -7 1 19.95 4.28
2 -7 1 19.42 5.04
2 -7 2 155.57 14.13
2 -7 2 154.42 11.94
2 -7 3 9.25 4.42
2 -7 3 14.06 3.85
2 -7 4 533.59 30.3
2 -7 4 605.08 27.44
2 -7 5 308.03 17.62
2 -7 5 335.64 20.81
2 -7 5 332.99 18.11
2 -7 6 32.46 4.74
2 -7 6 34.5 5.58
2 -7 6 32.73 4.79
-2 7 -7 94.68 7.25
2 -7 7 98.63 8.05
-2 7 -8 12.47 2.11
2 -6 -11 113.12 7.22
2 -6 -11 121.66 7.82
2 -6 -10 3.08 2.02
2 -6 -10 2.99 1.33
2 -6 -10 7.04 2.21
2 -6 -9 3.18 1.66
2 -6 -9 4.26 2.07
2 -6 -9 -0.54 1.74
2 -6 -8 193.59 13.88
2 -6 -8 198.43 14.18
2 -6 -8 206.34 13.2
2 -6 -7 33.97 5.11
2 -6 -7 34.94 5.71
2 -6 -7 29.99 5.33
2 -6 -7 36.05 5.88
2 -6 -6 2.16 2.59
2 -6 -6 4.46 2.3
2 -6 -6 8.11 2.98
2 -6 -6 9.12 3.15
2 -6 -5 172.85 12.49
2 -6 -5 190.73 14.08
2 -6 -5 196.54 14.38
2 -6 -5 195.36 13.97
2 -6 -4 276.62 17.31
2 -6 -4 277.91 17.8
2 -6 -4 275.26 16.9
2 -6 -3 3.11 2.46
2 -6 -3 2.42 1.38
2 -6 -3 5.37 2.27
2 -6 -2 426.07 22.1
2 -6 -2 430.55 22.62
2 -6 -2 459.22 23.96
2 -6 -1 212.36 27.84
2 -6 -1 247.05 15.77
2 -6 -1 249.57 16.41
2 -6 -1 262.6 16.82
2 -6 -1 251.04 15.6
2 -6 0 42.95 6.41
2 -6 0 39.96 5.8
2 -6 0 45.96 5.99
2 -6 1 372.17 20.61
2 -6 1 409.24 21.08
2 -6 1 379.82 22.61
2 -6 2 88.54 8.78
2 -6 2 76.38 9.65
2 -6 2 81.84 8.4
2 -6 3 319.36 18.94
2 -6 3 329.43 22.21
2 -6 3 323.22 18.77
2 -6 4 281.92 17.71
2 -6 4 323.85 18.42
2 -6 4 274.01 20.66
2 -6 5 59.59 7.27
2 -6 5 53.82 7.02
2 -6 5 49 7.98
2 -6 6 30.98 5.24
2 -6 6 27.87 5.62
2 -6 6 20.48 4.38
2 -6 7 157.74 11.89
2 -6 7 162.07 12.79
2 -6 7 186.59 12.88
-2 6 -8 464.06 20.87
2 -6 8 391.74 20.21
-2 6 -9 44.68 4.75
2 -5 -12 53.31 4.54
2 -5 -12 57.29 4.59
2 -5 -12 51.32 4.33
2 -5 -11 6.06 1.91
2 -5 -11 4.55 1.73
2 -5 -10 11.59 2.9
2 -5 -10 38.3 5.35
2 -5 -9 46.98 6.36
2 -5 -9 35.23 5.21
2 -5 -8 375.14 21.44
2 -5 -8 405.65 20.52
2 -5 -7 514.38 24.39
2 -5 -7 496.11 25.56
2 -5 -7 473.92 24.91
2 -5 -6 575.56 27.9
2 -5 -6 565.43 26.38
2 -5 -6 566.33 27.82
2 -5 -5 80.84 8.49
2 -5 -5 73.93 7.51
2 -5 -5 69.32 7.99
2 -5 -4 13.17 3.66
2 -5 -4 23.6 9.82
2 -5 -4 14.76 3.29
2 -5 -4 5.82 7.94
2 -5 -4 12.41 3.45
-2 5 4 19.88 8.84
2 -5 -3 359.84 41.49
-2 5 3 405.68 35.03
2 -5 -3 412.39 37.03
2 -5 -2 105.73 17.44
2 -5 -2 62.63 15.54
2 -5 -2 68 12.48
-2 5 2 80.38 14.06
2 -5 -1 96.34 14.8
2 -5 -1 138.73 24.1
-2 5 1 98.03 15.1
2 -5 -1 98.86 16.49
2 -5 0 208.2 28.28
2 -5 0 173.82 22.63
-2 5 0 189.05 22.55
-2 5 0 194.14 21.94
2 -5 1 37.72 11.27
-2 5 -1 32.2 8.66
-2 5 -2 2522.27 109.55
2 -5 2 2201.41 115.54
2 -5 2 2392.22 114.03
2 -5 3 241.36 15
2 -5 3 211.27 27.31
-2 5 -3 259.41 28.62
2 -5 3 231.91 32.27
2 -5 4 0.88 1.14
2 -5 4 3.56 2.62
2 -5 5 74.13 8.21
2 -5 5 82.93 8.45
2 -5 6 132.03 11.28
2 -5 6 141.37 11.43
2 -5 7 63.93 7.46
2 -5 7 66.71 7.78
2 -5 8 3.12 2.4
2 -5 8 0.62 1.53
-2 5 -9 6.23 2.35
2 -5 9 9.93 2.63
-2 5 -10 35.03 4.34
2 -5 10 26.35 3.58
-2 5 -11 357.68 15.4
2 -4 -12 3.5 1.34
2 -4 -12 1.3 0.92
2 -4 -11 0.33 1.29
2 -4 -11 -0.13 1.09
2 -4 -11 2.61 1.59
2 -4 -10 13.03 3.03
2 -4 -10 16 3.52
2 -4 -10 16.53 3.41
2 -4 -9 832.61 35.05
2 -4 -9 824.59 33.25
2 -4 -8 23.7 4.5
2 -4 -8 22.34 4.14
2 -4 -8 19.13 4.24
2 -4 -7 25.7 4.69
2 -4 -7 28.19 5.22
2 -4 -7 25.07 4.43
2 -4 -6 47.06 6.48
2 -4 -6 42.02 13.27
2 -4 -6 40.88 5.71
2 -4 -6 52.55 12.15
2 -4 -6 53.22 6.65
2 -4 -6 58.97 6.45
-2 4 6 33.84 10.06
2 -4 -5 198.33 22.99
-2 4 5 185.74 23.26
-2 4 5 158.47 22.78
2 -4 -5 187.33 27.17
2 -4 -4 1739.81 93.05
2 -4 -4 1782.32 90.42
-2 4 4 1539.48 83.12
-2 4 4 1714.89 82.47
2 -4 -4 1686.01 79.54
-2 4 3 417.32 32.89
2 -4 -3 401.3 39.61
2 -4 -3 410.01 35
2 -4 -3 380.35 30.12
2 -4 -2 9.82 7.84
2 -4 -2 4.48 2.44
2 -4 -2 -0.63 4.84
-2 4 2 -4.74 4.96
2 -4 -1 29.92 7.87
2 -4 -1 21.44 9.73
2 -4 -1 11.75 4.8
-2 4 1 23.01 6.5
-2 4 0 597.58 37.87
2 -4 0 582.23 38.06
2 -4 0 543.37 36.35
2 -4 0 615.55 45.98
-2 4 -1 64.96 11.52
2 -4 1 74.04 15.26
2 -4 1 84.18 15.26
2 -4 1 65.78 11.44
-2 4 -1 67.55 12.18
-2 4 -2 16.8 5.87
2 -4 2 26.24 9.75
2 -4 2 23.6 8.87
-2 4 -2 23.9 6.89
2 -4 3 18.62 7.97
-2 4 -3 12.18 5.99
-2 4 -3 4.28 2.22
2 -4 3 18.83 9.19
2 -4 4 5.72 4.62
2 -4 4 15.08 7.27
-2 4 -4 20.28 7.3
-2 4 -4 -0.97 2.83
2 -4 5 429.45 42.26
-2 4 -5 422.17 37.4
2 -4 6 232.47 15.35
2 -4 6 236.68 15.19
2 -4 7 104.47 9.78
2 -4 7 77.02 8.53
2 -4 7 87.46 8.84
2 -4 8 66.78 7.69
2 -4 8 46.85 6.6
2 -4 8 47.43 6.5
2 -4 9 240.03 15.64
-2 4 -9 239.29 14.92
2 -4 9 249.95 15.51
2 -4 10 419.21 20.83
-2 4 -10 431.73 20.83
-2 4 -11 11.76 2.55
2 -4 11 9.81 2.33
-2 4 -12 75.2 5.51
2 -4 12 72.1 5.35
2 -3 -12 8.31 2
2 -3 -12 10.99 2.26
2 -3 -12 4.54 1.39
2 -3 -12 8.05 1.94
2 -3 -11 67.88 6.54
2 -3 -11 64.99 6.62
2 -3 -11 68.14 6.37
2 -3 -11 62.02 6.24
2 -3 -10 597.55 26.49
2 -3 -10 555.52 26.66
2 -3 -10 573.78 25.99
2 -3 -10 563.13 25.68
2 -3 -9 230.12 15.03
2 -3 -9 254.67 15.18
2 -3 -9 242.89 14.46
2 -3 -8 175.98 12.78
2 -3 -8 170.43 12.14
2 -3 -7 204.84 13.66
-2 3 7 156.5 24.72
2 -3 -7 200.21 25.27
-2 3 7 154.78 22.95
2 -3 -7 190.78 24.27
2 -3 -7 202.75 13.08
2 -3 -6 366.97 40.46
2 -3 -6 369.5 33.8
-2 3 6 452.5 37.61
-2 3 6 448.01 40.67
2 -3 -6 422.37 35.44
2 -3 -5 917.97 56.68
-2 3 5 843.68 51.93
2 -3 -5 852.71 52
2 -3 -5 870.73 61.37
-2 3 5 964.97 59.82
-2 3 4 143.56 17.38
2 -3 -4 125.99 19.45
2 -3 -4 113.4 19.16
2 -3 -4 136.92 17.06
-2 3 4 136.33 19.82
2 -3 -3 241.33 27.51
-2 3 3 240.35 20.78
-2 3 3 243.05 24.27
2 -3 -3 231.73 21.47
2 -3 -3 287.18 27.13
-2 3 3 251.17 22.85
2 -3 -2 184.99 23.89
2 -3 -2 190.41 18.14
-2 3 2 174.96 18.15
-2 3 2 181.77 19.09
2 -3 -2 198.49 20.1
-2 3 1 116.3 13.93
2 -3 -1 119.98 18.23
-2 3 1 103.29 12.48
2 -3 -1 111.19 13.85
2 -3 -1 100.77 12.98
-2 3 0 679.11 37.92
2 -3 0 636.84 36.65
2 -3 0 632.67 36
2 -3 0 663.43 44.06
2 -3 0 743.43 42.01
2 -3 1 19.31 5.25
2 -3 1 19.3 6.79
-2 3 -1 14.27 5.69
2 -3 1 13.16 5.44
2 -3 1 17.76 5.47
2 -3 2 158.67 18.83
2 -3 2 175.08 21.91
-2 3 -2 166.08 17.41
-2 3 -2 165.11 17
2 -3 3 809.92 47.78
-2 3 -3 761.77 44.1
2 -3 3 843.16 53.55
-2 3 -3 773.04 42.43
-2 3 -3 786.11 43.71
-2 3 -4 1284.91 63.95
2 -3 4 1350.82 73.22
-2 3 -4 1237.53 61.34
-2 3 -4 1199.25 61.18
2 -3 4 1272.88 64.09
-2 3 -5 284.41 27.46
-2 3 -5 242 24.51
2 -3 5 288.2 30.96
-2 3 -5 276.94 25.93
2 -3 6 956.03 63.16
-2 3 -6 979.27 59.8
2 -3 7 121.38 10.25
2 -3 7 124.43 10.27
-2 3 -7 94.62 9
2 -3 7 109.59 9.81
2 -3 7 106.38 19.4
-2 3 -7 92.67 17.32
2 -3 8 124.65 10.7
2 -3 8 118.33 10.32
-2 3 -8 94.07 9.01
2 -3 8 104.38 9.93
2 -3 9 510.07 25.32
-2 3 -9 465.51 23.93
2 -3 9 514.82 25.33
2 -3 10 0.73 2.5
-2 3 -10 0.71 2.02
2 -3 10 -0.31 2.39
-2 3 -11 171.37 11.53
2 -3 11 185.3 12.25
-2 3 -12 7.22 2.16
2 -3 12 8.22 2.32
-2 3 -13 126.42 7.25
2 -3 13 141.91 7.88
2 -2 -12 23.27 3.48
2 -2 -12 21.64 3.26
2 -2 -11 330.82 17.87
2 -2 -11 385.83 18.61
2 -2 -11 358.65 17.43
2 -2 -11 360.08 18.14
2 -2 -10 23.32 4.31
2 -2 -10 27.83 4.6
2 -2 -10 23.67 4.23
2 -2 -9 25.83 4.61
2 -2 -9 25 4.57
2 -2 -9 23.56 4.2
2 -2 -8 152.99 11.45
2 -2 -8 132.87 10.81
2 -2 -8 124.91 10.17
2 -2 -7 231.3 26.78
-2 2 7 250.91 28.93
-2 2 7 248.23 30.31
2 -2 -7 222.89 26.04
2 -2 -7 208.98 29.05
2 -2 -6 45.61 10.73
-2 2 6 43.22 12.45
2 -2 -6 42.7 10.44
-2 2 6 47.51 11.91
2 -2 -5 1078.6 58.93
-2 2 5 1020.2 58.33
2 -2 -5 1074.69 58.01
-2 2 5 1044.2 62.38
2 -2 -5 1074.82 57.48
-2 2 4 28.14 7.71
2 -2 -4 24.71 8.29
2 -2 -4 23.39 6.69
-2 2 4 21.31 7.42
2 -2 -4 15.53 6.23
-2 2 3 262.35 22.09
2 -2 -3 275.86 27.14
2 -2 -3 273.17 22.08
-2 2 3 267.11 24.85
2 -2 -3 262.97 25.16
-2 2 2 903.29 42.96
2 -2 -2 862.8 52.11
-2 2 2 849.3 43.55
2 -2 -2 928.8 47.56
2 -2 -2 898.1 43.86
-2 2 2 857.16 46.58
2 -2 -1 334.72 28.27
-2 2 1 290.7 21.16
2 -2 -1 300.36 21.39
-2 2 1 294.57 21.74
-2 2 1 278.02 18.43
2 -2 -1 294.8 21.64
2 -2 0 889.39 41.52
2 -2 0 935.86 49.38
-2 2 0 864.6 41.57
-2 2 0 816.27 37.9
2 -2 0 825.53 39.46
-2 2 -1 3533.98 122.61
2 -2 1 3592.96 129.23
2 -2 1 3184.1 116.3
2 -2 1 3626.58 122.67
2 -2 2 2730.17 105.16
2 -2 2 2704.5 100.86
2 -2 2 2548.96 93.77
-2 2 -2 2841.34 102.15
2 -2 3 1767.57 75.37
-2 2 -3 1801.08 73.62
2 -2 3 1920.97 82.77
-2 2 -3 1738.34 73.91
2 -2 4 114.51 13.93
-2 2 -4 132.65 15.18
2 -2 4 109.65 16.6
-2 2 -4 108.1 13.84
-2 2 -4 109.74 13.84
-2 2 -5 255.93 23.68
-2 2 -5 244.44 22.93
-2 2 -5 231.73 22.7
2 -2 5 236.1 25.38
-2 2 -6 115.06 17.27
2 -2 6 100.91 17.03
-2 2 -6 110.13 16.6
2 -2 7 272.33 30.14
-2 2 -7 289.26 30.29
-2 2 -7 282.56 29.1
2 -2 8 204.93 14.04
2 -2 8 232.41 29.3
2 -2 8 212.08 14.48
-2 2 -8 212.14 26.31
-2 2 -8 212.94 14.02
-2 2 -8 228.12 28.45
2 -2 8 224.3 14.99
2 -2 9 405.84 21.93
-2 2 -9 393.31 21.22
-2 2 -9 390.62 21.16
2 -2 9 442.57 22.66
2 -2 10 337.91 19.63
-2 2 -10 392.52 20.27
2 -2 10 380.82 20.49
-2 2 -10 324.72 19.04
-2 2 -10 341.36 19.28
-2 2 -11 24.17 4.25
2 -2 11 16.21 3.71
-2 2 -11 21.06 4.1
-2 2 -12 14.25 3.15
-2 2 -12 9.8 2.67
2 -2 12 6.42 2.49
-2 2 -13 10.36 2.26
2 -2 13 15.2 2.83
-2 2 -13 7.51 1.93
2 -1 -13 34.36 3.35
2 -1 -13 34.78 3.38
2 -1 -12 32.23 4.09
2 -1 -12 32.87 4.12
2 -1 -11 88 7.84
2 -1 -11 94.53 8.06
2 -1 -10 331.93 18.13
2 -1 -10 316.05 17.9
2 -1 -9 15.71 3.64
2 -1 -9 12.64 3.26
2 -1 -9 11.39 3.1
2 -1 -8 1.7 1.19
2 -1 -8 1.72 1.61
2 -1 -8 2.12 1.77
-2 1 7 0.18 4.52
-2 1 7 1.23 2.42
-2 1 7 11.81 6.1
2 -1 -7 1.06 2.08
2 -1 -7 10.5 3.79
-2 1 6 552.39 42
2 -1 -6 554.92 39.95
-2 1 6 499.21 41.83
2 -1 -6 544.35 39.68
-2 1 6 506.5 37.41
2 -1 -5 20.97 7.37
-2 1 5 15.9 7.2
-2 1 5 29.14 9.2
2 -1 -5 26.6 7.39
-2 1 5 28.17 7.23
-2 1 4 711.46 43.7
-2 1 4 726.71 46.18
2 -1 -4 796.82 43.6
2 -1 -4 727.07 42.09
2 -1 -4 816.54 46.98
-2 1 4 742.12 40.65
-2 1 3 665.96 38.22
-2 1 3 615.57 39.35
2 -1 -3 661.08 36.33
2 -1 -3 686.1 41.99
2 -1 -3 622.94 35.79
-2 1 3 617.11 33.35
-2 1 2 667.21 35.91
2 -1 -2 723.77 36
-2 1 2 702.34 38.87
2 -1 -2 619.98 29.76
2 -1 -2 715.83 42.08
-2 1 2 674.1 32.14
-2 1 1 901.09 39.77
2 -1 -1 872.21 39.4
-2 1 1 879.19 41.57
-2 1 1 855.78 35.73
2 -1 -1 965.49 47.57
-2 1 1 903.7 39.46
-2 1 0 688.54 33.11
2 -1 0 605.5 30.36
2 -1 0 743.68 34.88
2 -1 0 648.47 32.25
-2 1 0 646.8 32.42
-2 1 0 637.65 29.1
2 -1 0 728.52 38.7
2 -1 1 759.56 35.42
2 -1 1 697.97 30.48
-2 1 -1 757.12 32.86
2 -1 1 862.48 40.04
-2 1 -1 806.88 36.82
-2 1 -2 318.83 20.83
2 -1 2 311.33 19.7
2 -1 2 284.86 16.6
2 -1 2 261.57 12.96
2 -1 3 118.82 12.54
2 -1 3 148.09 16.26
-2 1 -3 125.78 12.32
2 -1 3 130.7 12.43
-2 1 -3 143.74 14.28
2 -1 4 1348.76 63.18
-2 1 -4 1378.6 56.39
-2 1 -4 1287.97 57.09
2 -1 4 1318.93 57.13
2 -1 4 1183.79 51.89
-2 1 -5 113.29 14.74
-2 1 -5 124.12 15.04
2 -1 5 112.9 15.92
-2 1 -5 135.25 15.65
2 -1 5 123.43 15.44
-2 1 -6 753.11 45.39
2 -1 6 725.46 47.06
-2 1 -6 757.26 45.07
2 -1 6 666.4 44.21
-2 1 -7 21.56 8.16
-2 1 -7 28.66 8.61
2 -1 7 27.94 9.54
2 -1 7 21.66 8.59
2 -1 8 909.39 59.47
2 -1 8 798.29 55.37
-2 1 -8 903.07 57.13
-2 1 -8 949.61 59.47
2 -1 9 124.89 10.42
2 -1 9 123.77 10.54
-2 1 -9 106.44 9.44
2 -1 10 116.64 10.32
-2 1 -10 132.31 10.73
-2 1 -10 118.95 10.13
-2 1 -10 96.58 9.48
2 -1 10 118.38 10.48
-2 1 -11 22.32 4.23
-2 1 -11 17.19 3.92
2 -1 11 21.45 4.37
-2 1 -12 167.07 11.39
2 -1 12 154.26 11.39
-2 1 -12 151.57 11.12
-2 1 -13 554.25 24.01
-2 1 -13 617.14 24.98
2 -1 13 589.24 25.05
2 -1 14 2.14 1.18
-2 1 -14 0.23 0.7
2 0 -13 29.58 3.01
2 0 -12 573.45 22.78
2 0 -12 591.46 23.02
2 0 -11 312.47 16.45
2 0 -11 304.07 16.32
2 0 -10 81.79 7.92
2 0 -10 77.87 8.04
2 0 -9 191.37 13.09
2 0 -9 192.15 13.28
2 0 -8 132.78 10.54
2 0 -8 103.67 9.39
-2 0 7 731.7 53.09
-2 0 7 723.16 54.98
2 0 -7 813.76 52.07
2 0 -7 787.45 52.53
-2 0 7 743.83 51.36
-2 0 6 48.49 12.33
2 0 -6 45.77 10.87
-2 0 6 63.89 13.94
-2 0 6 67.85 13.05
2 0 -6 38.3 9.72
-2 0 5 601.69 42.21
-2 0 5 581.07 44.02
2 0 -5 623.36 40.82
2 0 -5 645.39 40.34
-2 0 5 659.84 41.78
2 0 -4 82.32 12.05
-2 0 4 67.43 12.16
-2 0 4 79.52 13.96
2 0 -4 78.09 12.58
2 0 -4 113 14.43
-2 0 4 68.43 10.88
-2 0 3 740 41.21
2 0 -3 738.36 38.63
-2 0 3 738.59 43.2
2 0 -3 792.77 40.4
2 0 -3 896.77 45.55
-2 0 3 780.32 39.49
-2 0 2 1213.57 55.83
2 0 -2 1335.61 51.22
-2 0 2 1194.22 57.53
2 0 -2 1213.97 53.24
-2 0 2 1241.17 53.3
2 0 -2 1393.6 61.27
2 0 -2 1257.79 54.63
2 0 -1 2614.75 93.59
-2 0 1 2659.11 92.72
2 0 -1 2738.83 92.09
2 0 -1 2722.31 101.58
-2 0 1 2504.25 92.28
-2 0 1 2518.24 97.3
-2 0 1 2628.9 95.94
2 0 0 6.64 2.52
2 0 0 2 3.25
-2 0 0 3.74 2.98
-2 0 0 5.04 2.78
-2 0 0 0.74 1.79
2 0 0 3.25 2.07
2 0 1 830.29 35.57
2 0 1 890.46 38.09
-2 0 -1 830.71 35.95
-2 0 -1 842.31 36.67
2 0 2 1178.12 51.78
2 0 2 1165.93 47.7
2 0 2 1282.79 52.08
-2 0 -2 1209.03 49.1
-2 0 -2 1211.19 49.92
2 0 3 1461.14 57.45
-2 0 -3 1478.97 60.1
-2 0 -3 1432.24 55.92
2 0 3 1495.09 62.02
-2 0 -4 -0.03 2.34
2 0 4 5.2 4.21
2 0 4 -1.81 2.22
-2 0 -4 0.6 2.22
-2 0 -5 185.05 17.05
2 0 5 204.67 20.51
-2 0 -5 194.52 18.3
-2 0 -5 178.37 18.32
2 0 5 185.55 18.36
-2 0 -6 716.67 41.21
2 0 6 623.32 38.11
-2 0 -6 691.29 41.27
2 0 6 681.52 42.58
2 0 6 773.09 47.43
-2 0 -7 2456.06 102.5
-2 0 -7 2540.87 104.94
2 0 7 2463.96 106.45
2 0 7 2451.34 106.17
2 0 7 2212.34 98.51
2 0 8 539.94 39.83
-2 0 -8 578.36 42.73
2 0 8 551.13 43.37
2 0 8 575.35 43.57
-2 0 -8 580.89 41.95
-2 0 -9 16.65 3.73
-2 0 -9 25.11 4.53
2 0 9 22.53 4.25
-2 0 -9 20.85 7.9
-2 0 -9 22.47 4.01
2 0 9 28.68 9.83
-2 0 -10 79.2 8.06
-2 0 -10 67.52 7.52
-2 0 -10 67.48 7.43
-2 0 -10 71.21 7.48
2 0 10 72.32 7.93
-2 0 -11 274.36 16.12
-2 0 -11 283.77 16.25
2 0 11 293.2 17.14
-2 0 -12 196.45 12.82
2 0 12 187.22 12.9
-2 0 -12 181.6 12.44
-2 0 -13 -0.36 1.33
2 0 13 -2.99 1.75
-2 0 -13 -0.91 1.45
-2 0 -14 18.91 2.95
2 0 14 19.28 2.96
2 1 -12 25.88 3.3
2 1 -12 24.19 3.29
-2 -1 12 17.25 2.99
2 1 -11 13.2 3.25
2 1 -11 11.8 2.92
-2 -1 11 10.5 2.75
2 1 -10 117.34 9.45
2 1 -10 120.84 9.85
2 1 -9 355.09 19.15
2 1 -9 324.37 18.38
2 1 -8 830.45 35.04
2 1 -8 835.3 35.38
-2 -1 7 168.84 24.15
2 1 -7 153.24 11.4
2 1 -7 159.67 11.58
2 1 -7 160.22 21.36
2 1 -7 165.15 23.08
-2 -1 7 130.22 22.62
-2 -1 7 142.76 21.09
2 1 -6 6.84 4.46
-2 -1 6 1.15 3.44
2 1 -6 4.61 3.29
-2 -1 6 10.44 5.81
-2 -1 6 1.22 4.74
2 1 -5 103.43 14.96
-2 -1 5 104.34 16.95
2 1 -5 117.82 16.34
2 1 -5 125.81 17.21
-2 -1 5 128.24 20.26
-2 -1 5 102.21 15.86
-2 -1 4 1696.9 81.05
2 1 -4 1660.18 75.31
-2 -1 4 1720.87 85.9
2 1 -4 1787.74 79.25
2 1 -4 1950.05 81.54
-2 -1 4 1854.54 80.16
2 1 -3 661.29 37.45
2 1 -3 606.06 34.82
-2 -1 3 644.93 41.89
2 1 -3 644.09 38.65
-2 -1 3 630.35 36.98
-2 -1 3 621.94 38.51
2 1 -2 4.67 3.08
-2 -1 2 2.4 4.02
-2 -1 2 6.38 4.24
2 1 -2 14.51 5.75
2 1 -2 9.23 4.02
-2 -1 2 5.05 2.22
-2 -1 2 2.46 3.37
2 1 -1 310.37 19.95
-2 -1 1 250.29 15.54
-2 -1 1 253.48 20.66
2 1 -1 251.44 17.28
2 1 -1 305.37 22.36
-2 -1 1 243.54 18.05
2 1 0 201.49 14.86
2 1 0 160.51 12.17
-2 -1 0 184.6 15.91
2 1 0 162.11 15.65
-2 -1 0 163.09 13.59
-2 -1 0 156.6 11.54
2 1 1 830 41.37
2 1 1 907.14 35.94
-2 -1 -1 908.66 36.87
2 1 2 6.28 3.25
-2 -1 -2 3.76 2.15
2 1 2 5.27 2.2
2 1 2 6.95 3.62
-2 -1 -2 3.76 2.08
2 1 3 6516.6 215.42
2 1 3 6775.12 217.63
-2 -1 -3 6433.99 207.05
-2 -1 -3 6852.77 216.27
-2 -1 -3 6742.82 215.9
-2 -1 -4 38.39 7.47
-2 -1 -4 28.34 4.78
2 1 4 43.53 6.72
-2 -1 -4 38.74 5.67
2 1 4 37.46 7.05
2 1 4 46.5 8.19
-2 -1 -5 17.33 4.67
2 1 5 25.26 7.18
-2 -1 -5 19.15 5.94
2 1 5 14.09 4.61
2 1 6 814.71 47.11
-2 -1 -6 775.29 44.21
2 1 6 832.5 46.67
-2 -1 -6 751.81 40.75
2 1 7 130.45 17.25
2 1 7 137.37 16.49
2 1 7 172.32 21.13
-2 -1 -7 138.91 17.93
2 1 7 134.37 19
2 1 8 106.85 16.63
2 1 8 87.44 15.06
-2 -1 -8 83.97 14.82
2 1 8 93.6 17.03
2 1 9 90 16.65
-2 -1 -9 113.34 18.28
2 1 9 102.7 18.99
-2 -1 -10 703 31.36
2 1 10 652.48 31.14
-2 -1 -11 706.1 30.26
-2 -1 -11 681.5 30.03
-2 -1 -11 688.87 30.37
2 1 12 176.48 12.7
-2 -1 -12 183.17 12.49
-2 -1 -13 5.78 2.19
2 1 13 8.54 2.35
2 1 14 4.54 1.48
-2 -1 -14 7.13 2.13
2 2 -12 9.82 1.89
2 2 -12 11.39 1.95
-2 -2 12 10.01 1.91
2 2 -11 24.81 3.73
2 2 -11 22.96 3.38
-2 -2 11 29.99 4.42
2 2 -10 279.89 15.53
2 2 -10 275.01 15.43
-2 -2 10 290.68 16.87
-2 -2 10 257.17 14.98
2 2 -9 31.52 5.02
2 2 -9 33.12 5.11
-2 -2 9 26.22 5.08
2 2 -8 350.57 19.22
2 2 -8 360.22 19.76
2 2 -7 143.95 10.97
2 2 -7 134.88 10.88
-2 -2 6 659.53 54.69
2 2 -6 615.36 43.18
2 2 -6 562.53 43.26
-2 -2 6 590.91 44.93
-2 -2 6 538.82 45.88
2 2 -5 2886.33 114.06
2 2 -5 2771.1 112.55
-2 -2 5 2727.28 126.83
2 2 -5 2552.61 107.67
-2 -2 5 2542.72 116.36
-2 -2 4 2.8 3.38
-2 -2 4 7.17 5.9
2 2 -4 7.18 4.72
2 2 -4 10.8 5.57
-2 -2 4 5.04 2.74
-2 -2 4 8.05 4.57
-2 -2 3 1489.92 69.99
2 2 -3 1449.18 64.83
-2 -2 3 1589.39 77.66
2 2 -3 1501.05 69.92
2 2 -3 1441.23 66.51
-2 -2 3 1526.11 69.22
-2 -2 2 598.03 38.09
2 2 -2 510.49 29.88
2 2 -2 541.9 31.74
2 2 -2 589.48 35.85
-2 -2 2 543.65 33.32
2 2 -1 2289.71 83.97
2 2 -1 2432.37 93.23
-2 -2 1 2293.71 88.39
2 2 0 41.33 8.32
2 2 0 29.12 4.61
-2 -2 0 27.81 3.78
-2 -2 0 28.52 5.81
-2 -2 -1 159.84 14.12
2 2 1 130.71 9.43
2 2 1 188.6 15.44
2 2 1 180.57 16.39
-2 -2 -1 143.12 10.49
2 2 2 28.63 5.52
2 2 2 22.49 3.2
-2 -2 -2 24.61 4.52
2 2 2 26.89 5.91
-2 -2 -2 30.46 6.13
2 2 3 719.52 36.41
-2 -2 -3 766.94 37.98
-2 -2 -3 714.72 36.36
2 2 3 760.85 37.56
2 2 4 684.48 36.01
2 2 4 632.15 31.79
-2 -2 -4 600.88 32.71
-2 -2 -4 631.63 34.14
2 2 5 88.43 12.05
-2 -2 -5 70.98 9.31
-2 -2 -5 87.05 11.64
2 2 5 92.91 12.41
2 2 6 693.71 42.01
2 2 6 706.73 42.08
-2 -2 -6 653.38 40.03
2 2 7 777.47 49.08
2 2 7 730.88 45.75
2 2 7 711.82 44.12
2 2 7 763.41 47.57
-2 -2 -7 799.49 47.47
2 2 8 180.82 22.48
2 2 8 152.17 20.1
2 2 8 153.19 20.97
-2 -2 -8 158.2 20.68
2 2 8 167.83 22.46
-2 -2 -9 386.24 20.25
-2 -2 -9 441.55 37.44
2 2 9 372.16 35.39
2 2 9 458.98 41.13
-2 -2 -10 242.35 15.29
-2 -2 -10 235.24 15.12
-2 -2 -11 76.6 7.97
-2 -2 -11 70.29 7.67
-2 -2 -11 77.87 7.97
-2 -2 -12 0.95 1.71
-2 -2 -12 4.57 2.4
-2 -2 -12 6.51 2.65
-2 -2 -13 116.65 9.21
-2 -2 -14 467.51 20.36
2 3 -11 152.62 8.58
2 3 -11 120.38 7.47
-2 -3 11 138.03 8.8
-2 -3 11 132.98 8.06
2 3 -10 22.55 3.55
2 3 -10 22.75 3.5
-2 -3 10 20.05 3.53
-2 -3 10 25.15 4.23
2 3 -9 233.47 13.95
-2 -3 9 217.47 14.85
-2 -3 9 213.36 13.77
2 3 -9 212.87 13.47
2 3 -8 15.44 3.63
2 3 -8 12.25 3.31
-2 -3 8 17.9 4.5
2 3 -7 69.51 7.46
2 3 -7 69.91 7.61
-2 -3 7 65.9 8.6
2 3 -6 727.06 31.25
2 3 -6 682.91 31.15
2 3 -6 692.08 48.47
-2 -3 6 787.98 35.73
-2 -3 5 1094.85 65.56
2 3 -5 1070.45 63.26
-2 -3 5 1061.39 63.89
-2 -3 4 852.09 53.8
2 3 -4 799.66 50.85
-2 -3 4 783.79 50.49
-2 -3 3 669.45 45.02
2 3 -3 782.7 46.41
2 3 -3 640.67 39.06
-2 -3 3 686.35 43.36
2 3 -3 649.15 40.77
-2 -3 2 815.98 47.55
2 3 -2 676.43 39.4
2 3 -2 741.05 44.54
-2 -3 2 751.47 42.72
2 3 -1 22.91 7.05
2 3 -1 17.05 4.34
-2 -3 1 35.66 7.76
2 3 0 333.47 25.43
-2 -3 0 314.58 22.91
2 3 1 3001.74 106.32
2 3 1 2607.57 104.99
-2 -3 -1 2673.69 106.91
-2 -3 -1 2792.14 102.85
-2 -3 -2 1215.44 54.81
2 3 2 1330.43 56.86
2 3 2 1230.44 56.41
-2 -3 -2 1220.89 58.05
2 3 3 317.99 22.54
2 3 3 279.76 21.32
-2 -3 -3 250.89 21.64
-2 -3 -3 288.16 21.43
2 3 4 20.61 6.28
2 3 4 11.27 3.83
-2 -3 -4 17.89 4.81
-2 -3 -4 10.39 4.79
-2 -3 -4 9.11 3.83
-2 -3 -4 22.76 6.17
2 3 5 1410.49 63.14
-2 -3 -5 1259.51 59.06
2 3 5 1350.78 62.55
-2 -3 -5 1367.45 62.26
-2 -3 -6 21.18 6.46
-2 -3 -6 30.77 7.34
2 3 6 33.96 8.11
2 3 6 23.12 7.18
2 3 7 427.42 33.14
-2 -3 -7 420.17 32.88
2 3 7 454.32 35.83
2 3 8 4.61 3.15
2 3 8 4.67 2.43
2 3 8 1.93 3.46
2 3 9 32.84 9.78
-2 -3 -9 30.29 4.83
-2 -3 -9 39.79 11.27
2 3 9 30.85 9.72
2 3 9 38.21 10.55
-2 -3 -10 512.51 24.68
-2 -3 -10 466.65 23.91
-2 -3 -10 531.13 24.86
-2 -3 -11 1.91 1.5
-2 -3 -11 3.21 2.02
-2 -3 -11 2.93 2.16
-2 -3 -12 85.25 8.19
-2 -3 -12 77.9 8.05
-2 -3 -12 94.21 8.53
-2 -3 -13 112.02 8.63
-2 -3 -13 104.45 8.52
-2 -3 -14 297.56 13.9
-2 -3 -14 242.65 12.34
2 4 -10 34.47 3.78
-2 -4 10 34.37 4.21
-2 -4 10 25.65 3.77
2 4 -9 26.46 3.89
-2 -4 9 25 4.22
-2 -4 9 23.31 4.28
2 4 -8 81.25 7.77
-2 -4 8 79.26 8.76
2 4 -7 248 15.22
-2 -4 7 273.36 18.38
-2 -4 6 339.47 21.64
-2 -4 5 429.93 24.31
2 4 -5 351.36 35.44
-2 -4 4 35.75 11.05
2 4 -4 40.78 11.24
-2 -4 4 40.4 11.02
-2 -4 3 272.48 29.35
2 4 -3 237.36 25.96
-2 -4 3 196.03 25.95
-2 -4 3 233.79 25.26
-2 -4 2 578.36 43.2
-2 -4 2 521.28 42.31
2 4 -2 589.52 41.4
-2 -4 2 545.14 37.89
2 4 -1 1522.71 72.59
-2 -4 1 1439.97 75.25
-2 -4 1 1414.48 67.16
-2 -4 0 2285.39 92.82
2 4 0 2332.95 98.15
-2 -4 0 2289.4 100.45
2 4 1 1759.82 80.09
-2 -4 -1 1732.56 81.42
-2 -4 -1 1924.49 77.84
2 4 2 11.77 4.81
2 4 2 11.25 4.04
-2 -4 -2 10.34 5.16
-2 -4 -2 5.29 3.28
-2 -4 -3 837.7 45.35
2 4 3 872.51 46.97
-2 -4 -3 859.86 49.73
2 4 3 968.79 48.54
-2 -4 -4 1421.04 68.75
2 4 4 1440.13 64.9
2 4 4 1327.47 62.07
-2 -4 -4 1392.16 63.69
-2 -4 -5 8.32 4.99
-2 -4 -5 8.89 4.62
2 4 5 10.24 4.26
2 4 5 17.23 6.35
2 4 6 151.04 17.86
-2 -4 -6 129.62 17.47
2 4 6 140.69 18.38
2 4 7 503.46 39.57
2 4 8 648.72 48.32
2 4 8 678.83 48.63
2 4 8 698.58 51.17
-2 -4 -9 95.19 8.85
-2 -4 -10 401.94 21.11
-2 -4 -10 387.37 20.99
-2 -4 -11 118.19 9.95
-2 -4 -11 93.15 9.15
-2 -4 -12 152.59 11.01
-2 -4 -12 119.12 10.05
-2 -4 -13 439.36 20.59
-2 -4 -14 28.19 3.69
-2 -4 -14 36.12 3.96
-2 -5 10 12.48 2.18
-2 -5 10 8.72 1.7
-2 -5 9 21.57 3.68
-2 -5 9 20.52 3.29
-2 -5 9 14.62 2.69
-2 -5 8 39.82 5.64
-2 -5 8 36.26 4.94
-2 -5 7 400.01 22.76
-2 -5 7 392.22 20.42
-2 -5 6 39.9 7.08
-2 -5 5 2.35 2.42
-2 -5 4 267.55 18.29
-2 -5 3 70.57 8.18
2 5 -3 72.99 15.68
-2 -5 3 58.42 13.35
2 5 -2 344.3 33.15
-2 -5 2 269.79 31.39
-2 -5 2 280.19 28.04
2 5 -1 44.28 11.62
-2 -5 1 59.96 14.21
-2 -5 1 51.21 11.02
2 5 0 25.02 8.72
-2 -5 0 19.32 6.86
-2 -5 0 19.49 8.21
2 5 1 496.31 38.45
-2 -5 -1 464.14 38.32
-2 -5 -1 449.31 32.56
2 5 2 435.25 34.01
2 5 2 420.81 34.28
-2 -5 -2 387.91 34.12
-2 -5 -2 378.13 29.43
-2 -5 -3 520.78 39.83
2 5 3 548 37.21
2 5 3 487.73 36.48
-2 -5 -3 449.26 32.83
2 5 4 -0.68 3.99
-2 -5 -4 6.07 5.89
-2 -5 -4 3.85 3.87
-2 -5 -5 22.23 8.27
2 5 5 25.18 8.25
-2 -5 -6 74.75 14.96
2 5 6 84.1 15.42
2 5 7 1686.62 86.81
-2 -5 -7 1487.13 82.71
2 5 7 1743.74 87.27
-2 -5 -8 361.97 21.03
-2 -5 -8 358.59 19.77
-2 -5 -8 364.65 20.63
-2 -5 -9 82.35 8.96
-2 -5 -9 97.64 9.12
-2 -5 -9 88.66 8.99
-2 -5 -10 41.85 6.24
-2 -5 -10 40.78 5.78
-2 -5 -10 43.45 5.95
-2 -5 -11 9.61 2.8
-2 -5 -11 8.67 2.97
-2 -5 -11 9.61 3.04
-2 -5 -12 216.24 13.33
-2 -5 -12 188.75 13.41
-2 -5 -12 217.55 13.4
-2 -5 -13 5.09 1.59
-2 -5 -13 7.35 2.47
-2 -5 -14 15.32 2.45
-2 -5 -14 31.26 3.54
-2 -6 9 28.42 3.19
-2 -6 9 32.16 3.4
-2 -6 9 31.94 3.25
-2 -6 8 462.15 19.74
-2 -6 8 491.55 21.17
-2 -6 7 89.22 8.65
-2 -6 7 77.48 7.46
-2 -6 7 80.5 7.3
-2 -6 6 8.75 3.86
-2 -6 6 3.32 2.11
-2 -6 6 4.74 3.43
-2 -6 5 71.6 8.96
-2 -6 5 58.38 7.29
-2 -6 5 61.32 7.53
-2 -6 4 200.12 15.81
-2 -6 4 218 14.74
-2 -6 4 183.03 14.5
-2 -6 3 26.21 5.45
-2 -6 3 15.65 3.82
-2 -6 3 26.03 4.72
-2 -6 2 302.97 18.64
-2 -6 2 290.48 17.36
-2 -6 2 298.29 18.3
-2 -6 1 10.38 3.01
-2 -6 1 15.43 8.38
-2 -6 1 10.06 2.89
-2 -6 0 15.25 3.58
-2 -6 0 14.72 3.52
2 6 1 505.91 41.34
2 6 1 511.44 43.38
-2 -6 -1 423.7 40.88
2 6 2 118.9 18.25
2 6 2 108.72 18.88
-2 -6 -2 118.81 20.14
2 6 3 276.13 27.9
2 6 3 257.33 28.73
-2 -6 -3 298.08 32.16
-2 -6 -4 366.56 36.52
-2 -6 -5 336.37 20.26
-2 -6 -5 320.25 18.99
-2 -6 -5 379.15 37.25
2 6 5 314.06 31.63
-2 -6 -5 337.38 18.81
-2 -6 -5 342.27 20.05
-2 -6 -6 1419.72 54.68
-2 -6 -6 1243.1 77.88
2 6 6 1196.05 73.43
-2 -6 -6 1412.02 54.81
-2 -6 -6 1334.43 53.27
-2 -6 -6 1429.32 53.48
-2 -6 -7 45.68 6.76
-2 -6 -7 55.63 7.39
-2 -6 -7 41.91 6.01
-2 -6 -7 50.52 6.96
-2 -6 -7 53.69 7.68
-2 -6 -8 481.96 24.9
-2 -6 -8 515.23 26.43
-2 -6 -8 539.65 27.52
-2 -6 -8 485.63 26.04
-2 -6 -9 91.52 8.96
-2 -6 -9 95.32 9.21
-2 -6 -9 103.78 10.21
-2 -6 -10 148.76 11.58
-2 -6 -10 179.56 12.73
-2 -6 -10 191.31 13.8
-2 -6 -11 514.96 23.84
-2 -6 -11 519.05 24.12
-2 -6 -11 492.58 24.23
-2 -6 -12 0.5 1.66
-2 -6 -13 14.23 2.59
-2 -6 -14 8.07 1.69
-2 -7 7 134.77 8.78
-2 -7 7 157.29 9.95
-2 -7 7 140.19 8.57
-2 -7 7 138.71 8.81
-2 -7 6 32.12 5.13
-2 -7 6 24.32 3.91
-2 -7 6 22.77 4.1
-2 -7 5 505.84 24.06
-2 -7 5 518.48 26.73
-2 -7 5 518.72 25.42
-2 -7 4 3.56 2.52
-2 -7 4 11.74 3.83
-2 -7 4 7.92 2.93
-2 -7 3 107.9 11.16
-2 -7 3 113.83 10.83
-2 -7 2 -1.69 2.27
-2 -7 2 2.95 2.27
-2 -7 1 498.73 25.05
-2 -7 1 519.77 26.42
-2 -7 1 513.56 26.26
-2 -7 1 510.1 26.64
-2 -7 0 466.83 24.14
-2 -7 0 456.38 23.77
-2 -7 0 423.92 24.39
-2 -7 -1 0.79 1.61
-2 -7 -1 -1.67 2.13
-2 -7 -1 0.19 2.31
-2 -7 -1 2.06 2.19
-2 -7 -2 514.98 26.68
-2 -7 -2 476.4 24.83
-2 -7 -2 510.41 25.02
-2 -7 -2 496.71 26.61
-2 -7 -3 149.09 12.47
-2 -7 -3 153.19 11.97
-2 -7 -3 157.16 12.04
-2 -7 -3 150.1 12.95
-2 -7 -3 143.11 12.57
-2 -7 -4 7.1 2.32
-2 -7 -4 10.3 3.02
-2 -7 -4 10.6 3.36
-2 -7 -4 9.54 3.17
-2 -7 -4 14.49 4.29
-2 -7 -5 262.53 17.28
-2 -7 -5 280.97 17.34
-2 -7 -5 264.52 17.85
-2 -7 -5 251.7 17.88
-2 -7 -6 6.67 2.64
-2 -7 -6 13.24 3.83
-2 -7 -6 8.27 3.02
-2 -7 -6 6.02 3.15
-2 -7 -7 3.53 2.29
-2 -7 -7 8.54 3.49
-2 -7 -7 10.31 4.08
-2 -7 -8 45.62 6.76
-2 -7 -8 50.03 7.22
-2 -7 -9 80.12 8.82
-2 -7 -9 88.98 8.57
-2 -7 -10 4.54 2.55
-2 -7 -10 6.19 2.11
-2 -7 -11 282.63 15.27
-2 -7 -11 303.16 16.48
-2 -7 -12 98.64 7.34
-2 -7 -13 15.66 2.29
-2 -8 6 145.66 8.69
-2 -8 6 129.56 7.88
-2 -8 5 1.51 1.16
-2 -8 5 -0.8 1.37
-2 -8 5 1.94 2.06
-2 -8 4 395.55 20.6
-2 -8 4 462.55 23.33
-2 -8 4 467.19 22.45
-2 -8 3 53.69 7.36
-2 -8 3 72.1 8.13
-2 -8 2 272.02 17.75
-2 -8 2 272.49 17.47
-2 -8 1 500.89 25.95
-2 -8 1 477.78 25.4
-2 -8 0 40.78 6.33
-2 -8 0 34.5 5.81
-2 -8 0 28.5 5.43
-2 -8 -1 110.08 10.27
-2 -8 -1 128.24 10.9
-2 -8 -1 127.43 11.88
-2 -8 -2 4.34 2.82
-2 -8 -2 2.67 1.86
-2 -8 -2 3.88 2.21
-2 -8 -2 -3.74 3.34
-2 -8 -3 4.61 3.04
-2 -8 -3 8.17 3.09
-2 -8 -3 7.09 3.09
-2 -8 -3 3.13 1.94
-2 -8 -3 9.97 3.43
-2 -8 -4 73.27 8.08
-2 -8 -4 80.76 9.47
-2 -8 -4 87.25 9.61
-2 -8 -4 75.02 9.04
-2 -8 -5 210.39 14.73
-2 -8 -5 208.42 15.45
-2 -8 -5 194.17 14.82
-2 -8 -5 199.1 15.48
-2 -8 -6 1008.39 42.11
-2 -8 -6 1000.96 41.84
-2 -8 -6 1002.04 42.99
-2 -8 -6 916.71 42.01
-2 -8 -7 35.94 6.21
-2 -8 -7 43.35 6.66
-2 -8 -7 51.34 7.53
-2 -8 -8 7.15 3.48
-2 -8 -8 9.13 3.85
-2 -8 -9 147.14 11.41
-2 -8 -10 317.77 17.1
-2 -8 -11 3.78 1.41
-2 -8 -11 2.18 1.15
-2 -9 4 9.94 2.14
-2 -9 4 8.33 1.93
-2 -9 3 88.22 7.8
-2 -9 3 79.93 7.3
-2 -9 2 31.02 4.81
-2 -9 2 32.33 4.94
-2 -9 1 243.86 15.19
-2 -9 1 243.31 14.88
-2 -9 0 168.79 12.39
-2 -9 0 137.28 11.28
-2 -9 0 169.8 12.15
-2 -9 -1 23.1 4.74
-2 -9 -1 12.91 3.46
-2 -9 -1 22.32 4.55
-2 -9 -2 21.5 4.24
-2 -9 -2 20.77 4.24
-2 -9 -2 29.3 5.35
-2 -9 -2 19.63 4.49
-2 -9 -3 46.8 6.09
-2 -9 -3 33.34 5.69
-2 -9 -3 44.43 6.81
-2 -9 -4 597.82 26.82
-2 -9 -4 609.23 28.65
-2 -9 -5 63.17 7.18
-2 -9 -5 86.01 8.95
-2 -9 -5 66.85 7.9
-2 -9 -6 1.47 2.2
-2 -9 -6 -1.49 2.25
-2 -9 -6 2.09 1.99
-2 -9 -7 1.75 1.88
-2 -9 -7 4.02 2.47
-2 -9 -8 223.74 14.12
-2 -9 -9 397.72 19.23
-2 -9 -10 11.27 2.34
-2 -10 1 26.56 3.55
-2 -10 0 7.31 2.2
-2 -10 -1 9.57 2.78
-2 -10 -1 6.39 2.38
-2 -10 -2 69.02 6.69
-2 -10 -2 67.08 7.25
-2 -10 -3 279.34 15.29
-2 -10 -3 285.31 16.64
-2 -10 -4 180.77 11.61
-2 -10 -4 191.81 13.05
-2 -10 -5 0.79 1.47
-2 -10 -5 2.06 1.66
-2 -10 -6 2.1 1.06
-2 -10 -6 2.63 1.68
-2 -10 -7 142.26 9.63
-2 -10 -8 201.22 11.19
3 -8 -7 2.26 1.28
3 -8 -6 215.52 11.51
3 -8 -6 165.4 10.18
3 -8 -5 5.42 2.2
3 -8 -5 4.7 1.97
3 -8 -4 220.26 13.04
3 -8 -4 187.35 12.13
3 -8 -3 91.26 8.06
3 -8 -3 68.63 7.05
3 -8 -2 22.01 4.12
3 -8 -2 18 3.47
3 -8 -1 48.36 5.88
3 -8 0 23.01 3.87
3 -8 0 27.68 4.15
3 -8 1 293.01 16.85
3 -8 1 290.44 15.75
3 -8 2 22.37 4.25
3 -8 2 23.47 3.98
3 -8 3 2.16 1.64
3 -8 3 -0.36 1.47
3 -8 4 52.85 6.13
3 -8 4 55.79 5.37
3 -8 5 87.86 7.07
3 -7 -8 1.86 0.8
3 -7 -8 -0.19 1.03
3 -7 -8 1.18 1.13
3 -7 -7 -1.62 1.82
3 -7 -7 1.54 1.22
3 -7 -7 -0.33 1.25
3 -7 -6 16.56 3.75
3 -7 -6 16.21 3.48
3 -7 -5 231.13 14.57
3 -7 -5 201.27 13.72
3 -7 -4 0.57 1.61
3 -7 -4 0.49 1.99
3 -7 -3 25.74 4.8
3 -7 -3 27.73 4.81
3 -7 -2 3.03 2.53
3 -7 -2 -1.46 2.18
3 -7 -1 166.82 12.76
3 -7 -1 179.37 12.64
3 -7 0 353.22 20.07
3 -7 0 376.46 20.89
3 -7 0 378.75 20.04
3 -7 1 38.72 6.09
3 -7 1 41.5 5.89
3 -7 2 49.13 7.17
3 -7 2 49.16 6.17
3 -7 3 2.1 2.19
3 -7 3 5.15 2.78
3 -7 4 167.05 13.79
3 -7 4 177.16 12.07
3 -7 5 287.15 17.45
3 -7 5 279.73 15.33
3 -7 6 1.43 1.63
3 -7 6 2.26 2.56
3 -7 6 1.02 1.3
-3 7 -7 3.22 1.28
3 -7 7 2.86 1.23
3 -6 -10 75.49 5.3
3 -6 -10 76.53 5.44
3 -6 -9 8.74 2.07
3 -6 -9 14.44 2.76
3 -6 -9 8.34 1.96
3 -6 -8 9.3 2.55
3 -6 -8 11.23 2.91
3 -6 -7 34.16 5.19
3 -6 -7 35.42 4.81
3 -6 -7 30.84 5
3 -6 -6 281 17.15
3 -6 -6 268.88 15.64
3 -6 -6 268.41 16.59
3 -6 -5 115.39 10.41
3 -6 -5 128.51 10.58
3 -6 -4 70.4 8.15
3 -6 -4 70.14 7.98
3 -6 -3 2.21 1.75
3 -6 -3 9.06 3.02
3 -6 -2 694.66 32.16
3 -6 -2 731.12 32.08
3 -6 -1 140.08 11.73
3 -6 -1 151.46 11.79
3 -6 0 84.45 8.79
3 -6 0 91.96 9.53
3 -6 0 94.13 9.05
3 -6 1 94.22 9.3
3 -6 1 85.7 9.49
3 -6 1 92.08 8.96
3 -6 2 4.22 2.15
3 -6 2 9.01 3.12
3 -6 2 6.52 2.8
3 -6 3 453.08 25.16
3 -6 3 437.49 21.57
3 -6 4 562.2 27.29
3 -6 4 525.7 30.05
3 -6 4 605.88 27.64
3 -6 5 98.81 9.2
3 -6 5 81.85 9.99
3 -6 5 105.85 9.58
3 -6 6 0.42 1.49
3 -6 6 3.69 2.62
3 -6 6 7.86 3.02
3 -6 7 40.42 5.31
3 -6 7 41.28 6.1
3 -6 7 40.08 5.51
3 -6 8 73.33 6.92
3 -6 8 85.28 7.2
-3 6 -9 6.97 1.69
3 -5 -11 6.15 1.55
3 -5 -10 108.97 7.53
3 -5 -10 110.36 7.87
3 -5 -9 41.02 4.96
3 -5 -9 50.93 5.42
3 -5 -9 49.63 5.77
3 -5 -8 422.25 21.58
3 -5 -8 450.83 21.13
3 -5 -8 435.48 21.86
3 -5 -7 231.28 15.43
3 -5 -7 253.07 15.01
3 -5 -7 248.95 15.84
3 -5 -6 13.42 3.67
3 -5 -6 12.8 3.43
3 -5 -6 7.93 3.15
3 -5 -5 4.7 2.24
3 -5 -5 2.09 1.49
3 -5 -5 2.16 1.61
3 -5 -4 82.01 8.71
3 -5 -4 75.74 7.87
3 -5 -4 80.79 8.41
3 -5 -3 507.48 25.27
3 -5 -3 472.22 23.47
3 -5 -3 531.25 25.07
3 -5 -2 36.44 5.69
3 -5 -2 40.64 5.67
3 -5 -1 161.24 12.3
3 -5 -1 175.32 12.39
3 -5 0 86.82 8.65
3 -5 0 100.2 8.97
3 -5 1 32.17 5.18
3 -5 1 35.32 5.84
3 -5 1 32.46 5.15
3 -5 2 71.75 7.94
3 -5 2 71.26 8
3 -5 2 83.15 8.3
3 -5 3 61.23 7.27
3 -5 3 65.03 7.29
3 -5 4 486.09 24.67
3 -5 4 480.49 24.29
3 -5 5 104.38 9.89
3 -5 5 101.21 9.54
3 -5 6 5.19 2.45
3 -5 6 2.9 1.75
3 -5 7 276.27 16.86
3 -5 7 262.37 16.39
3 -5 8 91.62 8.5
3 -5 8 86.67 9
3 -5 8 93.61 8.81
3 -5 9 39.58 5.17
-3 5 -9 27.49 4.37
3 -5 9 34.5 4.81
-3 5 -10 11.4 2.33
3 -5 10 9.99 2.11
3 -4 -11 22.26 2.84
3 -4 -11 18.48 2.83
3 -4 -10 31.36 4.12
3 -4 -9 342.93 17.51
3 -4 -8 522.52 25.15
3 -4 -8 527.74 24.38
3 -4 -7 402.53 20.99
3 -4 -7 350.22 20.32
3 -4 -7 412.18 20.54
3 -4 -6 152.71 12.16
3 -4 -6 164.12 12.05
3 -4 -5 121.91 10.62
3 -4 -5 139.05 10.82
3 -4 -4 827 65.82
3 -4 -4 815.1 35.98
3 -4 -4 790.04 59.23
3 -4 -4 938.6 36.28
3 -4 -3 -13.09 8.06
-3 4 3 1.24 2.74
3 -4 -3 -6.13 4.34
3 -4 -3 8.67 4.64
3 -4 -3 1.37 1.67
3 -4 -2 48.79 15.32
3 -4 -2 52.86 11.76
-3 4 2 45.08 11.37
3 -4 -1 45.46 14.42
3 -4 -1 39.34 9.87
-3 4 1 46.48 10.91
3 -4 0 52.54 15.31
3 -4 0 42.12 10.98
-3 4 0 49.92 11.56
3 -4 1 36.95 11.57
-3 4 -1 38.98 10.16
3 -4 1 39.22 10.06
3 -4 2 213.2 28.17
-3 4 -2 233.71 25.68
-3 4 -2 201.19 23.74
3 -4 3 1229.62 74.99
3 -4 3 1146.41 81.3
-3 4 -3 1373.12 72.27
-3 4 -3 1302.05 71.82
3 -4 4 4.93 2.33
-3 4 -4 1.17 4.25
3 -4 4 -2.92 4.54
3 -4 4 3.69 1.98
3 -4 5 77.28 8.21
3 -4 5 63.82 7.25
3 -4 6 50.2 6.65
3 -4 6 54.28 6.89
3 -4 7 1041.02 41.33
3 -4 7 1000 40.83
3 -4 8 337.42 18.92
3 -4 8 390.72 20.05
3 -4 9 38.81 5.98
3 -4 9 38.08 5.31
3 -4 10 157.74 10.85
-3 4 -10 152.77 10.42
3 -4 10 125.18 9.47
3 -4 10 134.38 10
-3 4 -11 13.53 2.6
3 -4 11 12.55 2.38
3 -3 -11 1.19 0.85
3 -3 -10 231.27 12.9
3 -3 -10 196.97 11.85
3 -3 -10 230.62 12.76
3 -3 -9 45.52 5.64
3 -3 -9 42.36 5.33
3 -3 -9 39.34 5.24
3 -3 -8 258.2 15.7
3 -3 -8 234.5 14.83
3 -3 -8 251.87 15.14
3 -3 -7 16.05 3.92
3 -3 -7 15.21 3.52
3 -3 -6 11.84 2.92
3 -3 -6 17.32 3.76
3 -3 -5 329.48 17.93
-3 3 5 279.65 30.51
3 -3 -5 287.38 31.03
-3 3 5 252.95 31.93
3 -3 -5 307.1 17.19
3 -3 -5 264.45 33.71
3 -3 -4 156.78 25.04
-3 3 4 149.69 20.96
3 -3 -4 134.41 19.57
-3 3 4 135.38 21.62
3 -3 -4 144.38 23.1
3 -3 -3 1153.62 75.76
-3 3 3 1113.81 63.12
3 -3 -3 1092.51 61.88
3 -3 -3 1105.18 65.74
3 -3 -2 792.82 61.53
-3 3 2 851.94 51.58
3 -3 -2 806.88 49.56
3 -3 -2 855.98 51.82
-3 3 1 930.61 52.97
3 -3 -1 911.67 64.54
3 -3 -1 842.08 50.18
3 -3 0 42.99 12.89
3 -3 0 37.66 9.13
-3 3 0 40.09 9.74
3 -3 1 752.37 52.8
3 -3 1 663.98 42.91
3 -3 1 610.82 48.52
-3 3 -1 712.52 44.38
3 -3 2 912.63 59.06
-3 3 -2 961.67 53.75
3 -3 2 969.99 54.35
3 -3 2 883.33 62.65
-3 3 -2 949.13 54.12
3 -3 3 172.69 22.4
-3 3 -3 184.77 21.36
3 -3 3 170.52 25.67
-3 3 -3 179.62 21.43
3 -3 4 19.94 7.11
-3 3 -4 24.07 8.07
-3 3 -4 30.22 9
3 -3 4 30.06 11.65
-3 3 -4 21.79 6.89
-3 3 -5 11.14 5.68
-3 3 -5 19.48 5.76
3 -3 5 12.49 6.97
3 -3 6 1281 47.13
3 -3 6 1152.31 46.25
-3 3 -6 1127.54 68.86
-3 3 -6 1067.27 44.96
3 -3 6 1242.13 46.91
3 -3 7 3.04 1.46
3 -3 7 4.37 2.09
-3 3 -7 0.63 1.56
3 -3 7 1.37 1.47
3 -3 8 177.35 13.21
3 -3 8 187.53 13.64
-3 3 -8 160.74 12.37
3 -3 8 177.59 13.43
3 -3 9 50.35 6.68
-3 3 -9 54.45 6.61
3 -3 9 59.52 7.4
3 -3 10 300.13 17.43
-3 3 -10 320.79 17.47
-3 3 -10 282.79 16.45
3 -3 10 318.23 17.72
-3 3 -11 224.91 13.23
3 -3 11 239.62 13.91
-3 3 -12 25.49 3.44
3 -3 12 24.25 3.42
3 -2 -11 10.64 2.31
3 -2 -11 8.05 1.93
3 -2 -10 9.33 2.6
3 -2 -10 4.71 1.5
3 -2 -10 11.18 2.69
3 -2 -9 68.4 7.37
3 -2 -9 61.74 6.84
3 -2 -9 73.2 7.26
3 -2 -8 159.53 11.9
3 -2 -8 148.08 11.17
3 -2 -8 154.89 11.59
3 -2 -7 26.16 4.72
3 -2 -7 29.08 5.06
3 -2 -7 22.05 4.16
3 -2 -6 8.87 2.76
3 -2 -6 12.06 2.99
3 -2 -6 10.5 2.93
3 -2 -5 1030.8 68.88
3 -2 -5 1050.62 63.18
-3 2 5 1035.73 68.96
-3 2 5 1030.19 62.13
-3 2 5 1035.96 64.53
3 -2 -4 1010.03 64.92
3 -2 -4 1033.4 59.56
-3 2 4 976.73 58.34
-3 2 4 991.28 64.32
3 -2 -4 980.67 63.81
-3 2 4 994 59.81
3 -2 -3 174.54 24.93
-3 2 3 175.84 20.86
3 -2 -3 167.79 22.34
3 -2 -3 181.2 20.85
-3 2 3 188.01 23.84
-3 2 3 180.61 20.92
3 -2 -2 119.03 16.86
3 -2 -2 107.07 19.07
3 -2 -2 111.49 15.41
-3 2 2 113.66 17.28
-3 2 2 106.05 15.42
-3 2 1 299.98 26.09
3 -2 -1 313.34 33.25
3 -2 -1 308.99 25.75
-3 2 1 330.52 27.48
3 -2 -1 308.63 25.42
-3 2 0 838.07 46.89
3 -2 0 883.99 56.82
3 -2 0 810.23 45.54
3 -2 1 2053.25 94.4
3 -2 1 1954.61 82.9
3 -2 1 1732.94 90.84
-3 2 -1 2024.29 84.37
3 -2 2 963.7 56.51
3 -2 2 941.93 50.89
3 -2 2 980.98 61.82
-3 2 -2 1000.33 52.29
3 -2 3 676.26 44.4
-3 2 -3 656.9 40.24
-3 2 -3 674.1 42.27
3 -2 4 102.75 15.52
-3 2 -4 115.46 15.79
3 -2 4 128.61 19.9
-3 2 -4 117.44 16.56
-3 2 -5 1123.21 61.68
3 -2 5 1098.59 67.61
-3 2 -5 1145.42 63.16
-3 2 -5 1153.09 63.78
-3 2 -6 157.23 21.28
3 -2 6 164.24 23.87
-3 2 -6 153.56 21.09
-3 2 -6 192.94 23.93
3 -2 7 283.06 16.99
3 -2 7 328.34 35.37
-3 2 -7 285.48 31.31
-3 2 -7 291.54 31.4
-3 2 -7 282.15 16.73
3 -2 7 313.98 17.96
3 -2 7 284.61 17.35
3 -2 8 4.68 1.97
3 -2 8 3.87 1.91
-3 2 -8 0.51 1.34
3 -2 8 7.56 2.85
3 -2 9 527.08 26.5
3 -2 9 576.83 27.42
-3 2 -9 527.64 26.14
3 -2 10 255.38 16.46
-3 2 -10 295.18 17.08
3 -2 10 285.22 17.28
-3 2 -10 266.36 16.35
-3 2 -11 569.75 25.87
-3 2 -11 574.24 26.03
-3 2 -11 583.17 26.24
3 -2 11 593.17 26.93
3 -2 11 561.96 26.29
-3 2 -12 77.88 6.7
3 -2 12 76.81 7.16
-3 2 -12 81.18 7.09
-3 2 -13 126.91 7.51
3 -2 13 159.59 9.08
-3 2 -13 143.39 8
3 -1 -12 3.91 1.08
3 -1 -12 0.9 0.86
3 -1 -11 277.8 13.71
3 -1 -11 255.55 13.37
3 -1 -10 254.17 14.33
3 -1 -10 247.56 14.2
3 -1 -9 0 1.71
3 -1 -9 3.45 2.83
3 -1 -9 2.21 2.08
3 -1 -8 1.5 2.19
3 -1 -8 1.62 1.53
3 -1 -8 0.12 1.39
3 -1 -7 25.93 4.79
3 -1 -7 24 4.51
3 -1 -7 28.54 4.69
3 -1 -6 193.96 13.18
3 -1 -6 215.96 13.79
3 -1 -6 190.63 12.88
3 -1 -5 28.58 8.68
-3 1 5 29.36 9.96
-3 1 5 35.02 9.48
-3 1 4 82.92 15.17
-3 1 4 93.12 17.94
3 -1 -4 72.53 13.75
3 -1 -4 42.59 10.35
-3 1 4 66.42 12.5
3 -1 -3 71.59 12.52
-3 1 3 66.66 14.39
3 -1 -3 64.39 13.82
-3 1 3 69.4 12.41
-3 1 3 70.76 11.49
-3 1 3 68.37 13.43
-3 1 2 216.25 21.26
3 -1 -2 237.18 22.11
-3 1 2 235.12 24.77
3 -1 -2 213.59 24.93
-3 1 2 190.62 18.06
-3 1 1 430.49 29.99
3 -1 -1 442.08 30.17
3 -1 -1 403.71 34.4
-3 1 1 491.13 34.33
-3 1 1 380.3 25.71
-3 1 0 228.27 20.25
3 -1 0 198.2 17.31
3 -1 0 218.94 19.69
-3 1 0 221.59 20.52
3 -1 0 234.31 21.34
-3 1 0 200.46 17.08
3 -1 1 2.02 2.74
3 -1 1 4.66 2.97
-3 1 -1 -1.11 3.39
-3 1 -1 5.4 3.62
3 -1 2 292.41 23.15
3 -1 2 356.47 29.1
-3 1 -2 300.27 21.94
-3 1 -2 317.56 24.87
3 -1 3 764.87 45.62
3 -1 3 800.96 43.52
3 -1 3 832.08 49.56
-3 1 -3 790.47 41.77
-3 1 -3 782.44 44.5
3 -1 4 1803.77 82.01
-3 1 -4 2004.57 82.04
3 -1 4 2007.03 92.05
-3 1 -4 1946.81 85.38
-3 1 -5 1.74 2.29
-3 1 -5 -0.51 3.05
3 -1 5 6.25 4.9
-3 1 -6 231.03 24.36
3 -1 6 189.03 24.83
-3 1 -6 249.64 25.67
-3 1 -6 278.93 28.33
-3 1 -7 13.92 7.18
3 -1 7 1.04 2.76
-3 1 -7 7.99 5.08
3 -1 8 991.47 41.27
3 -1 8 1152.71 42.98
-3 1 -8 1067.49 41.41
3 -1 8 927.42 41.31
3 -1 9 84.93 8.69
3 -1 9 98.38 9.37
-3 1 -9 91.21 8.79
3 -1 10 252.18 15.97
3 -1 10 260.57 16.26
-3 1 -10 254.9 15.6
-3 1 -11 234.02 14.38
-3 1 -11 216.02 14.26
3 -1 11 206.75 14.23
-3 1 -11 216.88 14.01
3 -1 11 200.78 13.82
-3 1 -12 78.75 7.21
3 -1 12 79.73 7.77
-3 1 -12 88.31 7.95
3 -1 13 67.54 6.25
-3 1 -13 70.89 6.23
3 -1 14 8.99 1.76
3 0 -11 128.85 8.35
3 0 -11 125.07 8.33
3 0 -10 32.35 4.61
3 0 -10 33.65 4.67
3 0 -9 99.97 9.01
3 0 -9 100.72 8.9
3 0 -8 72.62 7.75
3 0 -8 73.54 7.77
3 0 -7 203.02 13.88
3 0 -7 222.56 14.34
3 0 -6 -0.07 1.62
3 0 -6 4.14 2.48
-3 0 5 23.13 9.13
-3 0 5 23.7 10.45
3 0 -5 33.18 9.78
-3 0 5 19.84 6.81
-3 0 4 447.38 34.17
3 0 -4 486.91 36.81
-3 0 4 478.89 42.37
-3 0 4 453.18 35.34
-3 0 4 496.27 40.55
3 0 -4 509.99 40.29
-3 0 3 196.59 20.89
3 0 -3 234.22 22.81
-3 0 3 217.76 25.58
-3 0 3 208.46 21.29
3 0 -3 235.16 25.84
3 0 -2 25.57 7.34
-3 0 2 23.65 8.61
3 0 -2 22.94 8.91
-3 0 2 12.43 4.28
-3 0 2 18.1 5.23
-3 0 1 1673.59 71.9
3 0 -1 1734.75 73.2
-3 0 1 1707.8 78.8
3 0 -1 1747.54 82.18
-3 0 1 1728.3 72.25
3 0 -1 1685.3 71.47
-3 0 0 500.24 31.27
3 0 0 535.82 32.16
-3 0 0 561.04 35.86
3 0 0 581.44 33.58
3 0 0 567.7 39.04
-3 0 0 564.01 32.45
3 0 1 331.9 23.5
3 0 1 357.18 28.9
-3 0 -1 360.99 24.54
3 0 1 356.48 25.94
-3 0 -1 360.28 24.8
3 0 2 569.03 32.77
3 0 2 606.12 36.49
3 0 2 629.67 38.78
-3 0 -2 598.71 34.21
-3 0 -2 588.14 34.47
3 0 3 2693.06 104.07
3 0 3 2770.34 110.21
-3 0 -3 2846.36 106.52
-3 0 -3 2694.08 106.87
3 0 3 2889.12 103.2
-3 0 -3 2795.71 101.43
3 0 4 1357.94 67.41
-3 0 -4 1401.72 59.66
-3 0 -4 1382.56 65.38
3 0 4 1341.95 60.89
-3 0 -5 518.59 36.52
3 0 5 469.28 33.08
-3 0 -5 507.84 32.31
3 0 5 518.47 38.4
3 0 6 150.22 20.93
-3 0 -6 119.86 17.12
-3 0 -6 128.82 18.52
3 0 6 123.95 17.44
-3 0 -7 1276.32 71.14
3 0 7 1461.17 75.09
3 0 8 57.85 6.77
3 0 8 26.48 9.65
-3 0 -8 59.03 13.55
-3 0 -8 55.44 6.27
3 0 8 48.34 11.94
3 0 9 313.54 18.33
-3 0 -9 317.38 17.88
3 0 10 13.26 3.63
-3 0 -10 10.91 2.72
-3 0 -10 10.4 2.95
-3 0 -11 78.62 7.97
-3 0 -11 92.98 8.72
3 0 11 90.3 8.95
3 0 12 243.16 15.13
-3 0 -12 238.29 14.56
-3 0 -12 260.53 15.03
-3 0 -13 196.87 11.8
3 0 13 189.25 11.83
-3 0 -14 134.17 8.05
3 0 14 115.32 7.55
3 1 -11 204.73 10.75
3 1 -11 210.39 11
3 1 -10 20.46 3.61
3 1 -10 17.44 3.47
3 1 -9 47.77 5.9
3 1 -9 47.96 5.98
3 1 -8 51.02 6.35
3 1 -8 52.93 6.47
3 1 -7 113.11 9.75
3 1 -7 92.4 8.94
-3 -1 7 92 8.9
3 1 -6 189.09 12.84
3 1 -6 192.06 13.15
-3 -1 6 156.94 11.96
-3 -1 5 281.54 33.8
3 1 -5 258.33 27.74
-3 -1 5 282.92 29.64
3 1 -4 1171.64 63.82
-3 -1 4 1120.42 71.94
3 1 -4 1272.7 70.34
-3 -1 4 1195.01 66.18
3 1 -3 6.06 4
-3 -1 3 0.93 3.35
3 1 -3 8.45 5.41
-3 -1 3 6.42 3.97
3 1 -2 896.06 48.27
-3 -1 2 964.76 56.63
3 1 -2 887.49 47.5
3 1 -2 938.91 55.98
-3 -1 2 868.16 49.05
3 1 -1 14.69 4.96
3 1 -1 19.64 6.07
3 1 -1 17.45 7.06
-3 -1 1 12.9 4.3
-3 -1 1 8.61 4.5
-3 -1 1 25.22 7.16
3 1 0 115.55 12.89
3 1 0 131.95 14.81
3 1 0 127.35 16.98
-3 -1 0 128.07 14.51
-3 -1 0 110.14 12.19
3 1 1 45.07 7.58
3 1 1 29.19 6.42
-3 -1 -1 39.06 7.13
3 1 1 37.06 9.4
-3 -1 -1 32.5 7.23
3 1 2 389.94 24.8
3 1 2 506.45 33.72
-3 -1 -2 432.76 28.61
-3 -1 -2 413.29 26.71
3 1 2 470.68 30.22
3 1 3 272.45 23.13
3 1 3 250.68 19.13
3 1 3 263.44 23.22
-3 -1 -3 299.29 23.28
-3 -1 -3 253.43 21.05
3 1 4 1371.66 65.05
3 1 4 1277.34 61.53
-3 -1 -4 1292.33 61.93
-3 -1 -4 1360.16 62.6
3 1 4 1329.55 60.76
-3 -1 -5 58.48 11.33
3 1 5 72.28 12.79
3 1 5 60.53 11
3 1 6 492.49 38.05
-3 -1 -6 451.22 34.61
3 1 6 441.16 34.28
3 1 7 70.44 14.9
-3 -1 -7 55.76 11.94
3 1 7 59.08 13.42
3 1 8 483.65 39.44
3 1 8 628.46 50.51
-3 -1 -8 518.53 42.17
3 1 8 522.96 43.83
3 1 9 15.92 3.62
-3 -1 -9 16.03 3.61
-3 -1 -9 17.86 3.74
3 1 10 529.17 26.65
-3 -1 -10 545.14 26.69
-3 -1 -10 604.01 27.31
3 1 11 53.21 6.92
-3 -1 -11 41.77 5.91
-3 -1 -11 42.15 5.97
3 1 12 258.89 16.06
-3 -1 -12 280.63 16.15
-3 -1 -12 285.5 16.29
-3 -1 -12 284.22 16.31
-3 -1 -13 53.57 5.81
3 1 13 50.66 5.72
3 1 14 0.79 0.88
-3 -1 -14 1.59 1.4
3 2 -11 5.01 1.28
3 2 -11 8.48 1.63
3 2 -10 103.61 7.56
3 2 -10 100.61 7.58
3 2 -9 68.85 6.78
3 2 -9 74.1 7.04
-3 -2 9 62.7 6.42
-3 -2 9 64.06 6.72
3 2 -8 312.5 17.37
3 2 -8 319.87 17.66
-3 -2 8 283.44 17.47
-3 -2 8 306.65 17.44
3 2 -7 461.92 23.1
3 2 -7 474.73 23.71
-3 -2 7 464.52 23.56
3 2 -6 -0.35 1.69
3 2 -6 3.67 2.08
-3 -2 6 3.27 1.75
3 2 -5 128.12 10.4
3 2 -5 147.61 20.55
-3 -2 5 143.72 24.8
-3 -2 5 148.68 11.4
3 2 -5 157.77 11.73
-3 -2 5 143.22 21.57
3 2 -4 120.89 18.01
-3 -2 4 139.75 23.16
3 2 -4 170.48 23.71
-3 -2 4 136.6 19.96
3 2 -3 958.85 54.7
-3 -2 3 1060.34 67.01
3 2 -3 1097.3 58.89
3 2 -3 1065.42 63.54
-3 -2 3 978.51 58.32
3 2 -2 6.88 3.27
3 2 -2 7.8 5.35
3 2 -2 10.26 4.69
-3 -2 2 3.37 3.38
3 2 -1 129.3 14.48
3 2 -1 152.24 17.47
3 2 -1 143.33 19.3
-3 -2 1 122.12 16.19
3 2 0 166.08 15.52
3 2 0 209.41 20.06
3 2 0 214.9 23.07
-3 -2 0 185.4 18.75
3 2 1 168.87 14.22
3 2 1 180.8 18.31
3 2 1 219.21 22.53
-3 -2 -1 197.26 18.76
3 2 2 3594.93 128.94
3 2 2 3693.29 135.24
-3 -2 -2 3491.93 127.67
-3 -2 -3 8.05 4.16
3 2 3 11.2 4.99
3 2 3 13.17 6.1
-3 -2 -3 5.22 3.47
3 2 4 815.51 45.1
3 2 4 867.06 47.07
-3 -2 -4 745.15 42.97
-3 -2 -4 709.67 42.36
3 2 5 5.36 4.6
3 2 5 6.63 4.41
3 2 6 1291.76 68.89
-3 -2 -6 1269.25 65.83
3 2 6 1311.32 67.07
3 2 7 944.47 58.92
-3 -2 -7 921.74 56.1
3 2 7 916.18 57.18
3 2 8 5.7 7.33
-3 -2 -8 -4.5 3.81
3 2 8 8.84 5.02
3 2 8 2.04 2.79
-3 -2 -9 1.57 1.55
-3 -2 -9 -1.48 1.5
-3 -2 -10 46.7 6.33
3 2 10 40.99 5.98
-3 -2 -10 42.05 5.92
3 2 11 588.59 29.1
-3 -2 -11 653.76 29.73
-3 -2 -11 696.26 30.22
3 2 12 12.71 3.44
-3 -2 -12 10.57 3.17
-3 -2 -12 8.27 2.51
-3 -2 -12 10.2 2.98
-3 -2 -12 12.53 3.29
-3 -2 -13 4.09 1.83
-3 -2 -14 40.06 4.44
3 3 -10 80.38 5.71
3 3 -10 78.9 5.67
-3 -3 10 90.27 6.12
3 3 -9 267.51 13.89
3 3 -9 253.92 13.64
-3 -3 9 243.55 13.99
-3 -3 9 278 14.57
3 3 -8 9.52 2.47
3 3 -8 13.5 3.11
-3 -3 8 6.88 2.2
-3 -3 8 14.78 3.34
3 3 -7 42.04 5.53
3 3 -7 47.97 6.15
-3 -3 7 38.59 5.86
-3 -3 7 44.8 5.94
3 3 -6 80.64 8.24
-3 -3 6 64.88 7.97
-3 -3 6 76.74 8.26
3 3 -5 21.33 4.15
-3 -3 5 31.31 5.26
3 3 -4 824.07 54.73
3 3 -4 886.62 59.57
-3 -3 4 795.12 34.57
-3 -3 4 830.77 56.17
3 3 -3 13.29 6.93
3 3 -3 12.68 6.16
-3 -3 3 10.39 5.37
3 3 -2 14.25 7.53
3 3 -2 24.87 8.27
-3 -3 2 16.31 6.66
3 3 -1 100.68 15.75
3 3 -1 93.9 16.68
-3 -3 1 88.68 14.4
3 3 0 2920.29 114.36
3 3 0 2838.18 117.78
-3 -3 0 2562.45 109.2
3 3 1 439.59 32.1
3 3 1 440.62 34.41
-3 -3 -1 396.05 30.2
3 3 2 293.72 24.72
3 3 2 310.36 27.65
-3 -3 -2 284.02 26.79
-3 -3 -2 258.61 23.66
3 3 3 3.92 4.08
-3 -3 -3 11.51 5.84
-3 -3 -3 -0.41 4.02
3 3 3 12.53 4.7
3 3 4 69.61 12.34
3 3 4 70.5 11.91
-3 -3 -4 64.17 11.75
-3 -3 -4 60.42 11.2
3 3 5 500.32 36.56
-3 -3 -5 471.95 33.49
-3 -3 -5 461.16 34.26
-3 -3 -5 468.44 34.4
3 3 6 181.9 22.16
-3 -3 -6 148.59 18.99
3 3 6 169.55 20.64
3 3 7 455.24 38.13
-3 -3 -7 396.71 34.54
3 3 7 405.46 35.55
3 3 8 298.53 30.27
-3 -3 -8 231.32 14.5
3 3 8 247.95 28.97
-3 -3 -8 249.25 28.03
3 3 8 283.37 31.2
-3 -3 -9 1065.28 42.38
-3 -3 -10 424.54 22.08
-3 -3 -10 418.32 21.99
-3 -3 -11 64.3 7.26
-3 -3 -11 43.72 6.07
-3 -3 -12 59.51 6.81
-3 -3 -12 64.55 7
-3 -3 -12 56.27 6.61
-3 -3 -13 9.35 2.56
-3 -3 -13 14.26 3.27
-3 -3 -13 12.74 2.94
-3 -3 -14 177.86 9.76
-3 -3 -14 143.27 8.51
-3 -4 9 15.49 2.75
-3 -4 9 16.34 2.75
-3 -4 8 51.75 5.99
-3 -4 8 60.63 6.32
-3 -4 7 -1.26 2.25
-3 -4 7 2.84 2.4
-3 -4 6 355.6 21.28
-3 -4 6 438.87 21.87
-3 -4 5 611.45 30.67
-3 -4 5 687.49 30.48
-3 -4 4 16.69 4.07
-3 -4 4 15.67 4.15
3 4 -3 92.83 18.01
-3 -4 3 80.83 8.45
-3 -4 3 91.27 8.8
-3 -4 3 101.58 21.09
-3 -4 3 81.51 16.22
3 4 -2 10.44 5.78
3 4 -2 0.42 4.64
-3 -4 2 16.98 8.54
-3 -4 2 3.9 3.65
3 4 -1 11.48 7.24
3 4 -1 14.35 6.8
-3 -4 1 -4.26 4.95
-3 -4 1 17.39 6.98
3 4 0 74.57 14.47
3 4 0 83.08 15.49
-3 -4 0 86.69 17.31
-3 -4 0 86.6 14.41
3 4 1 35.9 9.72
3 4 1 34.61 10.27
-3 -4 -1 39.2 10.55
-3 -4 -1 36.1 9.29
3 4 2 46.18 10.68
-3 -4 -2 48 11.83
-3 -4 -2 51.16 10.99
3 4 2 59.86 12.05
3 4 3 70.09 13.11
3 4 3 95.28 15.99
-3 -4 -3 70.19 13.82
-3 -4 -3 64.89 12.59
3 4 4 761.57 47.14
3 4 4 715.81 46.23
-3 -4 -4 735.37 49.1
-3 -4 -4 708.4 45.67
3 4 5 9.54 5.28
-3 -4 -5 3.94 2.81
-3 -4 -5 -0.88 3.53
3 4 6 427.89 36.23
3 4 6 491.52 38.54
3 4 7 140.63 20.53
3 4 7 146.65 21.22
-3 -4 -8 61.92 7.48
-3 -4 -8 61.42 6.88
-3 -4 -9 602.51 29.58
-3 -4 -9 620.6 28.5
-3 -4 -10 310.9 18.15
-3 -4 -11 192.46 13.36
-3 -4 -11 185.02 13.26
-3 -4 -12 86.14 8.15
-3 -4 -12 68.99 7.48
-3 -4 -13 379.19 18.64
-3 -4 -13 384.56 18.64
-3 -4 -14 43.53 4.33
-3 -5 9 12.6 2.08
-3 -5 8 4.58 1.66
-3 -5 8 7.4 2.22
-3 -5 7 213.1 13.66
-3 -5 7 249.81 14.07
-3 -5 6 29.84 5.15
-3 -5 6 29.07 4.77
-3 -5 5 418.72 23.58
-3 -5 5 474.85 23.5
-3 -5 4 15.59 4.32
-3 -5 4 24.81 4.83
-3 -5 4 20.39 4.61
-3 -5 3 6.23 2.95
-3 -5 3 5.24 2.56
-3 -5 3 6.32 2.86
-3 -5 2 213.51 16.41
-3 -5 2 210.19 14.86
-3 -5 2 202.43 14.52
3 5 -1 40.11 12.8
3 5 -1 27.82 10.66
-3 -5 1 29.87 5.69
-3 -5 1 31.36 5.22
-3 -5 1 29.41 12.02
-3 -5 1 35.33 5.43
-3 -5 1 35.08 5.37
-3 -5 1 36.39 9.99
3 5 0 158.33 23.14
3 5 0 183.41 25.24
-3 -5 0 149.05 24.84
-3 -5 0 109.44 17.57
3 5 1 20.69 8.6
3 5 1 -2.12 5.71
-3 -5 -1 19.34 8.26
-3 -5 -1 20.98 7.41
3 5 2 102.73 18.28
-3 -5 -2 111.91 19.22
3 5 2 106.8 17.75
-3 -5 -2 94.65 15.59
3 5 3 0.56 4.14
-3 -5 -3 0.28 2.87
-3 -5 -3 3.55 3.8
3 5 3 8.32 5.81
3 5 4 655.15 45.73
-3 -5 -4 634.76 48.47
-3 -5 -4 606.82 43.68
3 5 5 658.4 46.91
-3 -5 -5 676.92 50.62
-3 -5 -5 665.95 46.46
-3 -5 -6 84.28 9.12
3 5 6 92.3 16.78
-3 -5 -6 80.73 7.94
-3 -5 -6 81.99 8.73
-3 -5 -6 90.8 16.89
-3 -5 -6 80.28 8.5
3 5 6 86.53 16.23
-3 -5 -7 1203.71 49.38
-3 -5 -7 1287.98 48.03
-3 -5 -7 1175.71 48.59
-3 -5 -7 1243.34 49.89
-3 -5 -8 527.37 27.27
-3 -5 -8 558.59 26.51
-3 -5 -8 545.12 28.51
-3 -5 -9 458.17 24.93
-3 -5 -9 485.41 24.31
-3 -5 -10 16.5 3.82
-3 -5 -10 25.22 4.63
-3 -5 -11 25.29 4.58
-3 -5 -11 23.36 4.32
-3 -5 -12 273.02 15.44
-3 -5 -12 241.21 14.86
-3 -5 -13 1.78 1.6
-3 -5 -13 0.92 1.71
-3 -5 -14 247.43 11.87
-3 -6 8 14.28 2.11
-3 -6 8 12.42 2
-3 -6 7 18.66 3.11
-3 -6 7 18.1 3.07
-3 -6 7 18.69 3.1
-3 -6 6 196.42 12.94
-3 -6 6 211.35 12.66
-3 -6 5 62.1 7.34
-3 -6 5 57.3 6.47
-3 -6 5 49.01 5.97
-3 -6 4 26.54 5.17
-3 -6 4 26.24 4.87
-3 -6 4 29.99 5.08
-3 -6 3 0.89 1.58
-3 -6 3 1.24 1.52
-3 -6 3 -0.43 1.61
-3 -6 2 731.88 34.06
-3 -6 2 776.7 33.73
-3 -6 2 724 33.84
-3 -6 1 580.63 31.05
-3 -6 1 576.05 28.95
-3 -6 1 645.13 29.07
-3 -6 1 589.58 29.22
-3 -6 1 676.7 29.86
-3 -6 0 518.61 24.46
-3 -6 0 438.78 25.91
-3 -6 0 447.6 23.72
-3 -6 0 454.59 23.03
-3 -6 0 476.81 24.38
-3 -6 -1 170.84 12.18
-3 -6 -1 159.22 13.67
-3 -6 -1 146.43 11.79
-3 -6 -1 160.05 12.28
-3 -6 -1 152.33 12.86
-3 -6 -2 23.92 4.31
-3 -6 -2 20.19 4.1
-3 -6 -2 18.88 3.9
-3 -6 -2 19.29 4.16
-3 -6 -2 20.47 4.45
-3 -6 -3 90.59 9.99
-3 -6 -3 99.56 8.96
-3 -6 -3 110.88 10.48
-3 -6 -3 100.51 9.43
-3 -6 -3 101.96 9.42
-3 -6 -3 102.05 10.65
-3 -6 -4 11.27 3.78
-3 -6 -4 11.8 3.09
-3 -6 -4 16.3 4.07
-3 -6 -4 10.63 3.2
-3 -6 -4 19.43 4.12
-3 -6 -4 23.79 5.28
-3 -6 -5 43.82 7.06
-3 -6 -5 50.75 6.93
-3 -6 -5 53.91 7.05
-3 -6 -5 48.76 7.4
-3 -6 -6 61.32 8.1
-3 -6 -6 54.37 6.6
-3 -6 -6 55.97 7.38
-3 -6 -6 43.36 6.55
-3 -6 -6 63.67 8.72
-3 -6 -7 1.77 2.21
-3 -6 -7 0.13 1.9
-3 -6 -7 2.48 2.56
-3 -6 -7 1.22 1.85
-3 -6 -8 250.79 17.15
-3 -6 -8 241.74 15.65
-3 -6 -8 244.51 16.76
-3 -6 -8 247.41 17.44
-3 -6 -9 4.44 2.64
-3 -6 -9 5.83 2.32
-3 -6 -9 6.38 2.78
-3 -6 -9 7.74 2.94
-3 -6 -10 2.1 2.26
-3 -6 -10 6.72 2.83
-3 -6 -10 2.06 2.15
-3 -6 -11 52.15 6.43
-3 -6 -11 50.21 6.14
-3 -6 -11 54.16 6.14
-3 -6 -12 106.71 8.36
-3 -6 -12 105.24 8.4
-3 -6 -13 57.01 5.33
-3 -7 6 117.18 7.79
-3 -7 6 108.5 7.58
-3 -7 6 112.95 7.45
-3 -7 5 71.45 6.81
-3 -7 5 82.13 7.6
-3 -7 5 84.81 7.1
-3 -7 5 76.2 6.62
-3 -7 4 3.2 2.01
-3 -7 4 1.94 1.93
-3 -7 4 1.57 1.28
-3 -7 4 1.65 1.49
-3 -7 3 729.62 31.46
-3 -7 3 712.48 32.22
-3 -7 3 650.18 29.89
-3 -7 3 681.01 30.87
-3 -7 2 574.35 27.16
-3 -7 2 558.27 27.89
-3 -7 2 537.65 26.13
-3 -7 2 558.05 27.35
-3 -7 1 82.74 8.54
-3 -7 1 67.89 8.16
-3 -7 1 70.27 8.44
-3 -7 0 96.55 9.19
-3 -7 0 92.75 9.37
-3 -7 0 89.19 9.11
-3 -7 -1 32.68 5.19
-3 -7 -1 50.32 7.67
-3 -7 -1 43.32 6.22
-3 -7 -1 42.79 6.41
-3 -7 -1 43.44 6.81
-3 -7 -2 657.28 31.27
-3 -7 -2 598.82 28.11
-3 -7 -2 647.09 28.65
-3 -7 -2 597.6 30.35
-3 -7 -3 199.87 15.46
-3 -7 -3 193.95 15
-3 -7 -3 188.67 13.74
-3 -7 -3 186.64 13.9
-3 -7 -3 206.06 16.16
-3 -7 -4 54.1 8.05
-3 -7 -4 68.8 8.44
-3 -7 -4 63.05 7.7
-3 -7 -4 65.5 7.83
-3 -7 -4 74.35 9.28
-3 -7 -5 44.27 7.42
-3 -7 -5 47.84 6.7
-3 -7 -5 46.76 6.7
-3 -7 -5 45.35 7.5
-3 -7 -6 9.22 3.27
-3 -7 -6 22.87 4.89
-3 -7 -6 12.32 3.43
-3 -7 -6 16.89 4.44
-3 -7 -7 527.89 27.92
-3 -7 -7 519.31 26.82
-3 -7 -7 513.86 26.8
-3 -7 -8 427.19 23.17
-3 -7 -8 418.98 23.7
-3 -7 -8 389.82 22.66
-3 -7 -9 148.24 11.48
-3 -7 -9 171.9 13.04
-3 -7 -10 34.1 5.46
-3 -7 -10 35.09 5.03
-3 -7 -11 323.84 16.64
-3 -7 -11 352.67 17.94
-3 -7 -12 146.8 8.74
-3 -7 -12 109.11 7.77
-3 -8 4 145.58 9.33
-3 -8 4 155.97 9.9
-3 -8 4 140.02 8.9
-3 -8 3 20.2 3.67
-3 -8 3 24.86 4.04
-3 -8 3 18.09 3.55
-3 -8 2 6.79 2.43
-3 -8 2 10.19 2.77
-3 -8 2 11.23 2.94
-3 -8 1 29.05 4.67
-3 -8 1 34.24 5.38
-3 -8 1 30.05 5.11
-3 -8 0 178.16 12.29
-3 -8 0 159.96 12.94
-3 -8 0 182.86 13.2
-3 -8 0 168.79 12.7
-3 -8 -1 658.77 32.96
-3 -8 -1 720.02 31.56
-3 -8 -1 706.59 31.44
-3 -8 -1 677.94 32.52
-3 -8 -2 8.56 3.04
-3 -8 -2 5 2.68
-3 -8 -2 4.64 2.53
-3 -8 -2 3.48 2.99
-3 -8 -3 368.96 21.92
-3 -8 -3 356.06 19.94
-3 -8 -3 311.68 19.02
-3 -8 -3 386.03 22.75
-3 -8 -4 247.36 17.37
-3 -8 -4 214.51 15.86
-3 -8 -4 232.32 16.28
-3 -8 -5 859.26 37.66
-3 -8 -5 819.42 36.18
-3 -8 -5 900.29 40
-3 -8 -5 819.34 38.78
-3 -8 -6 177.88 13.48
-3 -8 -6 165.33 12.97
-3 -8 -6 176.29 14.62
-3 -8 -7 8.21 3.34
-3 -8 -7 1.3 2.35
-3 -8 -8 5.57 2.45
-3 -8 -8 4.12 2.83
-3 -8 -9 4.75 2.55
-3 -8 -10 213.82 13.12
-3 -8 -11 20.76 3.28
-3 -9 2 1.35 0.87
-3 -9 2 2.37 1.07
-3 -9 1 184.31 11.85
-3 -9 1 192.31 11.84
-3 -9 0 117.75 9.51
-3 -9 0 131.53 9.82
-3 -9 -1 116.86 9.41
-3 -9 -1 94.26 8.42
-3 -9 -1 94.04 8.6
-3 -9 -2 173.89 13.32
-3 -9 -2 187.87 12.6
-3 -9 -2 198.91 14.02
-3 -9 -3 63.41 6.84
-3 -9 -3 73.54 8.38
-3 -9 -4 94.16 9.63
-3 -9 -4 83.49 8.23
-3 -9 -4 107.39 10.4
-3 -9 -5 488.46 23.9
-3 -9 -5 454.76 22.14
-3 -9 -6 199.54 13.13
-3 -9 -6 171.5 13.29
-3 -9 -7 99.89 9.06
-3 -9 -7 99.98 9.46
-3 -9 -8 309.97 17.27
-3 -9 -9 331.31 16.78
-3 -9 -10 7.77 1.92
-3 -10 -1 3.71 1.34
-3 -10 -2 6.31 2.01
-3 -10 -3 247.59 13.58
-3 -10 -4 58.93 5.94
-3 -10 -5 175.52 11
-3 -10 -6 56.17 5.65
4 -8 -3 93.83 6.64
4 -8 -2 19.64 3.03
4 -8 -1 2.86 1.39
4 -8 0 3.63 1.44
4 -8 1 78.65 6.27
4 -8 2 39.77 4.13
4 -7 -6 6.65 1.81
4 -7 -5 26.49 3.77
4 -7 -4 27.52 3.79
4 -7 -4 30.08 4.33
4 -7 -3 237.99 13.71
4 -7 -3 275.59 14.9
4 -7 -2 23.62 3.97
4 -7 -2 20.09 3.76
4 -7 -1 128.8 9.79
4 -7 0 360.22 18.46
4 -7 1 26.62 4.32
4 -7 2 71.66 7.15
4 -7 2 83.91 7.44
4 -7 3 3.22 1.7
4 -7 3 3.13 1.92
4 -7 4 50.13 5.41
4 -7 4 39.63 5.18
4 -7 5 71.74 5.84
4 -7 5 88.97 7.37
4 -7 5 96.94 7.09
4 -7 6 0.81 0.74
4 -6 -8 87.64 6.12
4 -6 -7 28.24 3.86
4 -6 -6 32.62 4.57
4 -6 -5 87.74 8.09
4 -6 -4 140.03 10.89
4 -6 -3 11.23 3.17
4 -6 -3 10.36 3.55
4 -6 -2 25.79 4.44
4 -6 -2 33.54 5.21
4 -6 -1 90.85 8.67
4 -6 -1 93.66 8.7
4 -6 0 337.47 19.14
4 -6 0 370.36 19.56
4 -6 1 239.15 15.52
4 -6 1 253.88 15.43
4 -6 2 4.79 2.23
4 -6 2 3.8 1.67
4 -6 2 6.11 2.35
4 -6 3 20.71 3.99
4 -6 3 30.24 5.39
4 -6 3 23.22 4.33
4 -6 4 155.62 11.45
4 -6 4 154.7 12.49
4 -6 4 174.21 11.97
4 -6 5 61.66 6.59
4 -6 5 58.66 6.45
4 -6 5 49.99 6.87
4 -6 6 19.61 3.57
4 -6 6 22.7 4.39
4 -6 6 22.78 3.83
4 -6 7 30.67 4.05
4 -6 7 31.55 4.5
4 -6 7 31.24 4.23
-4 6 -8 84.04 6
4 -6 8 78.91 6.13
4 -6 8 78.71 5.86
4 -5 -9 66.99 5.21
4 -5 -8 101.32 7.21
4 -5 -8 92.73 7.31
4 -5 -7 165.56 10.49
4 -5 -7 166 11.1
4 -5 -6 15.62 3.43
4 -5 -6 10.98 2.96
4 -5 -5 330.68 17.53
4 -5 -5 317.97 18.18
4 -5 -4 5.07 2.02
4 -5 -4 2.34 2.56
4 -5 -3 97.72 8.73
4 -5 -3 107.11 9.68
4 -5 -2 75.97 8.06
4 -5 -1 335.43 19.11
4 -5 0 9.13 2.86
4 -5 1 276.1 16.83
4 -5 2 87.8 8.82
4 -5 2 100.9 9.26
4 -5 3 36.38 5.75
4 -5 3 42.47 5.95
4 -5 4 783.49 34.05
4 -5 4 768.17 33.7
4 -5 5 85.78 8.66
4 -5 5 85.4 8.46
4 -5 6 24.04 4.54
4 -5 6 27.04 4.92
4 -5 7 1.33 1.58
4 -5 7 -0.68 1.98
4 -5 8 95.84 8.08
4 -5 8 87.34 8.2
4 -5 9 90.02 6.89
-4 5 -9 80.8 6.44
4 -5 9 74.01 6.43
4 -4 -9 118.08 7.65
4 -4 -9 114.97 8.01
4 -4 -8 13.12 2.78
4 -4 -8 15.86 3.19
4 -4 -7 277.27 15.26
4 -4 -7 272.25 15.9
4 -4 -6 144.97 10.69
4 -4 -6 139.34 11.24
4 -4 -5 34.35 5.32
4 -4 -5 20.92 4.51
4 -4 -4 63.3 7.06
4 -4 -4 51.8 6.78
4 -4 -3 18.51 3.62
4 -4 -3 12.67 3.47
4 -4 -2 581.63 26.97
4 -4 -2 603.81 28
4 -4 -1 46.91 6.24
4 -4 0 40.71 5.81
4 -4 1 19.1 3.97
4 -4 2 662.14 29.97
4 -4 3 556 26.59
4 -4 4 6.93 2.7
4 -4 4 10.5 3.04
4 -4 5 683.55 30.76
4 -4 5 645.85 30.16
4 -4 6 9.71 3.45
4 -4 6 16.63 4.01
4 -4 7 282.78 17.39
4 -4 7 294.89 17.42
4 -4 8 126.71 10.34
4 -4 8 132.87 10.49
4 -4 9 18.08 3.42
4 -4 9 14.13 2.78
4 -4 10 95.9 7.41
-4 4 -10 82.96 6.7
4 -4 10 70.61 5.84
4 -4 10 87.54 7.17
4 -3 -10 3.95 1.49
4 -3 -9 24.55 3.54
-4 3 9 21.29 3.15
4 -3 -8 224.89 12.78
-4 3 8 188.23 12.23
4 -3 -7 10.51 2.77
-4 3 7 16.41 3.53
4 -3 -6 145.28 11.09
-4 3 6 147.25 11.6
4 -3 -5 18.06 3.88
-4 3 5 21.12 4.29
4 -3 -4 302.06 17.14
-4 3 4 258.18 16.54
4 -3 -3 1006.98 38.96
-4 3 3 875.82 38.06
4 -3 -3 934.82 38.95
4 -3 -2 125.4 9.97
-4 3 2 97.22 9.03
4 -3 -2 119.83 10.07
4 -3 -1 92.9 8.27
-4 3 1 75.93 7.78
4 -3 -1 87.16 8.34
4 -3 0 236.51 33.1
4 -3 0 230.78 26.39
-4 3 0 206.8 13.74
-4 3 0 219.81 26.35
4 -3 0 248.24 14.87
4 -3 1 300.55 36.07
4 -3 1 280.65 29.67
-4 3 -1 275.47 29.55
4 -3 1 281.95 16.45
4 -3 2 203.78 28.71
-4 3 -2 215.95 25.17
4 -3 2 196.51 24.42
-4 3 -2 186.31 12.89
-4 3 -2 211.07 25.52
4 -3 2 216.69 13.79
4 -3 3 259.77 32.18
-4 3 -3 268.06 28.84
-4 3 -3 262.32 15.91
4 -3 3 292.15 16.63
-4 3 -4 104.61 9.39
4 -3 4 111.72 9.72
4 -3 5 6.98 3.22
-4 3 -5 4.36 2.24
4 -3 5 10.45 3.39
4 -3 6 298.04 17.69
4 -3 6 272.46 17.29
-4 3 -6 275.49 17.01
4 -3 6 300.06 17.7
4 -3 7 0.99 2.06
4 -3 7 -2.18 2.19
-4 3 -7 -0.66 1.36
4 -3 7 1.5 2.05
4 -3 8 475.59 24.16
4 -3 8 490.96 24.29
-4 3 -8 474.53 23.57
4 -3 8 461.74 23.84
4 -3 9 94.39 9
4 -3 9 92.92 8.64
-4 3 -9 91.67 8.49
4 -3 10 110.01 9.06
4 -3 10 111.7 8.96
-4 3 -10 105.5 8.4
-4 3 -11 197.79 11.13
4 -3 11 223.33 12.06
4 -3 11 214.99 11.89
4 -2 -10 61.85 4.79
-4 2 10 57.73 4.95
4 -2 -9 128.46 8.83
4 -2 -9 120.43 8.39
4 -2 -9 120.33 8.16
4 -2 -8 15.36 3.38
4 -2 -8 11.03 2.81
4 -2 -8 11.88 2.91
4 -2 -7 170.97 11.93
4 -2 -7 158.96 11.58
4 -2 -7 161.86 11.57
4 -2 -6 111.75 9.88
4 -2 -6 115.79 9.85
4 -2 -6 117.81 9.96
4 -2 -5 94.31 8.94
4 -2 -5 101.85 9.26
4 -2 -5 104.93 9.36
4 -2 -4 532.11 25.78
4 -2 -4 567.01 26.27
4 -2 -4 563.75 26.26
4 -2 -3 14.95 3.43
4 -2 -3 17.34 3.62
-4 2 3 20.3 3.99
4 -2 -2 145.56 24.95
4 -2 -2 138.6 20.62
4 -2 -2 151.37 11.1
-4 2 2 149.78 21.4
-4 2 2 135.29 10.54
4 -2 -1 7.92 5.73
4 -2 -1 11.23 6.3
-4 2 1 7.9 4.32
4 -2 0 117.99 21.42
4 -2 0 101.56 16.37
-4 2 0 119.79 18.06
4 -2 1 12.87 7.11
4 -2 1 1.36 4.34
-4 2 -1 5.32 4.14
4 -2 2 8.33 5.53
4 -2 2 5.63 3.8
-4 2 -2 3.01 1.74
4 -2 3 455.5 40.84
-4 2 -3 484.75 37.18
-4 2 -3 483.44 38.98
-4 2 -4 67.25 13.37
-4 2 -4 91.97 16.87
4 -2 4 81.64 17.91
4 -2 5 505.65 23.99
4 -2 5 475.38 44.95
-4 2 -5 476.5 40.9
-4 2 -5 491.03 23.5
4 -2 5 416.06 22.47
4 -2 6 193.83 13.39
4 -2 6 177.5 12.97
-4 2 -6 171.49 12.52
4 -2 6 153.79 12.09
4 -2 7 989.84 40.02
4 -2 7 989.79 40.28
-4 2 -7 931.99 39.24
4 -2 7 887.95 39.16
4 -2 8 18.46 4.1
4 -2 8 19.2 4.54
-4 2 -8 14.97 3.68
4 -2 8 16.18 3.72
4 -2 9 41.18 5.96
4 -2 9 43.89 6.17
-4 2 -9 45.07 6.14
4 -2 10 8.92 2.77
4 -2 10 9.17 3.09
-4 2 -10 8.45 2.82
4 -2 11 12.3 2.98
-4 2 -11 9.34 2.49
-4 2 -11 16.14 3.19
4 -2 11 15.96 3.39
-4 2 -11 16.57 3.54
4 -2 12 309.62 14.72
-4 2 -12 265.73 13.23
4 -1 -10 129.38 7.92
4 -1 -10 127.45 7.9
-4 1 10 134.98 8.23
4 -1 -9 41.29 4.85
4 -1 -9 38.32 4.78
4 -1 -8 46.93 5.56
4 -1 -8 42.95 5.5
4 -1 -8 41.32 5.03
4 -1 -7 2.51 1.6
4 -1 -7 4.48 2.76
4 -1 -7 1.42 1.78
4 -1 -6 61.73 7.08
4 -1 -6 57.41 6.78
4 -1 -6 52.57 6.4
4 -1 -5 11.7 3.24
4 -1 -5 10.17 3.26
4 -1 -5 9.27 2.92
4 -1 -4 532.53 25.75
4 -1 -4 584.25 26.45
4 -1 -4 542.64 26.02
4 -1 -3 97.15 8.59
4 -1 -3 102.45 8.86
4 -1 -3 95.09 17.02
-4 1 3 133.46 23.37
4 -1 -3 91.81 8.66
-4 1 3 93.3 16.85
4 -1 -2 19.63 7.43
-4 1 2 19.92 8.39
-4 1 2 6.94 2.66
4 -1 -1 256.75 26.21
-4 1 1 246.43 26.27
4 -1 0 45.84 10.74
-4 1 0 34.84 9.13
4 -1 1 1274.85 65.79
-4 1 -1 1282.76 67.59
4 -1 2 6.35 3.25
-4 1 -2 7.96 5.77
4 -1 2 6.88 5.63
4 -1 3 87.67 15.81
-4 1 -3 73.54 12.15
4 -1 3 89.96 14.74
-4 1 -3 75.63 14.22
4 -1 3 89.39 16.9
4 -1 4 21.66 8.52
-4 1 -4 50.45 12.12
4 -1 4 38.46 11.72
4 -1 5 850 61.99
-4 1 -5 860.31 56.45
4 -1 6 549.04 25.44
4 -1 6 494.75 24.42
4 -1 6 519.98 45.8
-4 1 -6 502.5 42.29
-4 1 -6 483.29 42.55
-4 1 -6 503.75 24.35
4 -1 7 13.29 3.09
4 -1 7 4.45 2.43
-4 1 -7 10.42 3.05
4 -1 8 185.45 13.43
4 -1 8 194.22 13.86
-4 1 -8 180.76 13.06
4 -1 9 294.19 18.23
4 -1 9 350.4 19.63
-4 1 -9 331.76 18.67
4 -1 10 668.68 30.96
4 -1 10 754.97 32.44
-4 1 -10 726.43 31.37
4 -1 11 25.22 4.99
-4 1 -11 27.61 4.49
4 -1 12 4.28 1.98
-4 1 -12 0.65 1.83
-4 1 -12 2.64 1.81
4 -1 13 1.17 1.35
-4 1 -13 -1.23 0.81
4 0 -10 122.71 7.54
4 0 -10 132.24 7.92
4 0 -9 124.47 8.63
4 0 -9 112.15 8.36
4 0 -8 63.11 6.62
4 0 -8 74 7.13
4 0 -7 9.75 3.06
4 0 -7 9.2 2.68
4 0 -6 87.42 8.51
4 0 -6 99.61 9.08
4 0 -6 90.56 8.4
4 0 -5 156.95 11.89
4 0 -5 163.61 12.13
4 0 -5 159.82 11.86
4 0 -4 176.71 12.56
4 0 -4 200.31 13.42
4 0 -4 182.1 12.75
4 0 -3 16.6 7.88
4 0 -3 35.53 5.12
4 0 -3 41.54 11.2
-4 0 3 29.15 11.75
4 0 -3 35.14 5.07
4 0 -2 122.09 18
-4 0 2 113.95 20.33
4 0 -2 105.78 19.58
-4 0 2 89.56 15.13
4 0 -1 1022.63 57.66
4 0 -1 1151.05 70.04
-4 0 1 993.01 56.39
-4 0 1 993.42 56.81
4 0 0 1070.84 57.6
4 0 0 1143.28 68.19
-4 0 0 1069.14 57.74
-4 0 0 1055.39 57.87
4 0 1 46.72 9.79
4 0 1 38.45 10.09
-4 0 -1 28.15 7.99
4 0 1 24.55 9.81
-4 0 -1 31.79 8.31
4 0 2 2.4 4.12
-4 0 -2 -1.58 4.23
4 0 2 1.86 4.21
-4 0 -2 -1.98 2.58
4 0 3 20.13 6.58
-4 0 -3 30.63 9.03
4 0 3 40.5 11.17
-4 0 -3 23.95 7.07
4 0 4 186.04 23.78
-4 0 -4 160.64 20.78
4 0 5 185.33 24.88
-4 0 -5 181.57 23.37
4 0 6 238.17 29.73
-4 0 -6 209.44 25.17
-4 0 -6 193.19 25.11
4 0 7 -0.32 1.19
-4 0 -7 3.6 1.93
4 0 8 372.47 20.63
-4 0 -8 389.83 20.47
4 0 9 506.78 25.43
-4 0 -9 511.08 24.97
4 0 10 70.92 8.02
-4 0 -10 77.51 8.03
4 0 11 1.91 2.3
-4 0 -11 4.11 2.74
4 0 12 5.87 2.58
-4 0 -12 9.61 2.84
-4 0 -12 6.19 2.23
4 0 13 37.74 4.5
-4 0 -13 46.57 4.89
4 1 -10 3.03 1.12
4 1 -10 0.49 0.91
-4 -1 10 0.69 0.63
4 1 -9 2.57 1.63
4 1 -9 0.75 1.14
4 1 -8 0.07 1.24
4 1 -8 1.69 1.5
4 1 -7 27.8 4.41
4 1 -7 22.83 4.24
4 1 -6 546.92 26.26
4 1 -6 588.91 27.05
4 1 -5 40.31 5.72
4 1 -5 41.39 5.77
-4 -1 5 38.62 5.7
4 1 -4 11.72 3.17
4 1 -4 7.86 2.82
-4 -1 4 16.56 3.73
4 1 -3 -0.66 1.67
4 1 -3 12.13 6.06
4 1 -3 9.39 7.17
-4 -1 3 0.77 1.51
-4 -1 3 -8.22 5.26
4 1 -2 1094.88 62.46
4 1 -2 1214.11 73.95
-4 -1 2 1124.04 64.83
4 1 -1 604.71 41.31
4 1 -1 684.65 52.13
-4 -1 1 626.54 43.68
4 1 0 329.98 27.82
4 1 0 357.93 30.97
4 1 0 352.58 35.29
-4 -1 0 335.12 29.67
4 1 1 29.74 7.29
-4 -1 -1 27.04 6.99
4 1 1 36.07 9.95
4 1 1 28.87 9.49
-4 -1 -1 19.71 7.19
4 1 2 125.31 15.55
4 1 2 131.08 18.57
4 1 2 173.67 23.1
-4 -1 -2 119.87 16.86
-4 -1 -2 120.39 16.14
4 1 3 3150.51 126.77
4 1 3 3023.99 127.28
-4 -1 -3 3007.71 121.44
-4 -1 -3 2769.16 117.79
4 1 4 611.15 44.51
-4 -1 -4 549.02 39.99
-4 -1 -4 593.43 41.23
4 1 4 590.99 39.43
4 1 5 248 27.57
-4 -1 -5 179 22.99
4 1 5 203.03 22.62
4 1 6 147.91 22.62
-4 -1 -6 171.57 22.6
4 1 6 108.01 17.8
4 1 7 120.24 9.99
-4 -1 -7 119.62 9.86
4 1 7 134.36 22.37
-4 -1 -7 148.84 21.85
-4 -1 -7 134.32 10.53
4 1 8 306.56 17.92
-4 -1 -8 289.19 17.41
-4 -1 -8 341.1 18.62
4 1 9 310.94 18.52
-4 -1 -9 310.86 18.3
-4 -1 -9 335.18 18.81
-4 -1 -10 248.27 15.96
-4 -1 -10 277.63 16.62
4 1 10 256.09 16.41
4 1 11 4.95 2.23
-4 -1 -11 7.32 2.37
-4 -1 -11 3.53 2.18
4 1 12 298.87 16.73
-4 -1 -12 284.27 15.57
-4 -1 -12 311.51 16.59
-4 -1 -12 295.15 16.34
-4 -1 -13 110.86 8.13
4 1 13 102.62 7.95
-4 -1 -14 17.22 2.64
4 2 -9 22.9 2.96
4 2 -9 29.1 3.61
4 2 -8 118.87 8.53
4 2 -8 130.04 9.37
4 2 -7 31.77 4.67
4 2 -7 41.44 5.45
-4 -2 7 36.33 5.17
4 2 -6 29.33 4.61
4 2 -6 35.63 5.46
-4 -2 6 38.74 5.94
-4 -2 6 32.23 5
4 2 -5 53.72 6.87
-4 -2 5 53.88 6.8
4 2 -4 22.15 4.4
-4 -2 4 16.51 3.96
-4 -2 4 19.72 4.19
4 2 -3 571.71 26.55
-4 -2 3 500.48 25.5
-4 -2 3 590.62 26.97
4 2 -2 224.43 29.54
-4 -2 2 198.46 25.06
4 2 -1 169.29 21.53
4 2 -1 237.74 29.82
-4 -2 1 184.11 23.29
4 2 0 63.07 12.54
4 2 0 40.38 13.25
-4 -2 0 68.34 13.47
4 2 1 2308.71 102.36
4 2 1 2334.27 110.29
-4 -2 -1 2227.03 100.41
4 2 2 2055.79 94.33
4 2 2 2093.81 100.33
-4 -2 -2 1952 91.3
4 2 3 158.6 20.98
4 2 3 165.68 22.51
-4 -2 -3 149.46 19.49
4 2 4 664.89 46.65
4 2 4 648.4 46.48
-4 -2 -4 637.78 43.98
4 2 5 45.35 11.45
4 2 5 45.26 11.01
4 2 6 226.45 27.54
-4 -2 -6 262.24 28.42
4 2 6 232.88 26.4
4 2 7 85.56 8.39
-4 -2 -7 97.18 8.71
4 2 7 111.4 19.84
-4 -2 -7 100.16 18.49
-4 -2 -7 105.64 9.29
4 2 7 116.74 19.37
-4 -2 -8 158.36 11.84
-4 -2 -8 155.07 11.92
4 2 8 153.42 11.82
4 2 9 37.81 5.88
-4 -2 -9 47.14 6.38
-4 -2 -9 52.1 6.72
4 2 10 140.36 11.51
-4 -2 -10 135.78 11.16
-4 -2 -10 133.33 11.23
4 2 11 158.14 12.23
-4 -2 -11 171.09 12.4
-4 -2 -11 172.94 12.46
4 2 12 200.26 13.27
-4 -2 -12 212.38 13.33
-4 -2 -12 200.78 12.75
-4 -2 -12 226.09 13.63
-4 -2 -12 216.62 13.48
4 2 13 541.99 24.24
-4 -2 -13 674.63 25.96
-4 -2 -14 116.25 7.28
4 3 -8 55.86 5.3
-4 -3 8 66.7 5.84
-4 -3 7 45.9 5.43
4 3 -7 39.59 4.9
-4 -3 7 40.89 5.21
4 3 -6 4.15 2.29
-4 -3 6 5.89 2.49
-4 -3 6 4.04 2.47
4 3 -5 10.03 3.11
-4 -3 5 8.16 2.62
-4 -3 5 8.59 3.25
-4 -3 5 6.62 2.54
4 3 -4 194.85 13.68
-4 -3 4 185.88 13.84
-4 -3 4 205.06 16.04
-4 -3 4 208.49 14.3
4 3 -3 11.75 2.97
-4 -3 3 13.9 3.72
-4 -3 3 24.68 5.7
-4 -3 3 15.78 3.61
4 3 -2 252.53 15.89
-4 -3 2 299.53 17.44
4 3 -2 247.17 28.23
-4 -3 2 291.98 20.43
-4 -3 2 284.5 17.01
-4 -3 1 112.38 9.82
4 3 -1 120.8 18.93
4 3 -1 137.96 23.22
-4 -3 1 115.84 11.95
-4 -3 1 110.08 9.58
-4 -3 1 118.44 18.92
4 3 0 11.43 5.75
4 3 0 14.93 6.47
-4 -3 0 12.75 6.46
4 3 1 863.69 54.39
4 3 1 944.26 62.29
-4 -3 -1 774.24 51.82
4 3 2 191.23 23.38
4 3 2 194.95 25.88
-4 -3 -2 189.18 25.39
-4 -3 -2 148.16 20.18
4 3 3 92.4 15.81
4 3 3 133.18 20.7
-4 -3 -3 100.7 16.79
-4 -3 -3 84.53 14.99
4 3 4 85.94 16.04
4 3 4 65.11 13.99
-4 -3 -4 55 12.48
-4 -3 -4 67.56 13.96
4 3 5 633.96 47.27
-4 -3 -5 621.76 45.04
-4 -3 -6 157.67 11.36
4 3 6 181.27 24.42
-4 -3 -6 131.07 19.89
4 3 6 175.07 22.7
-4 -3 -7 299.95 16.84
4 3 7 268.68 16.33
-4 -3 -7 286.83 16.59
-4 -3 -7 259.55 29.8
4 3 8 926.11 39.66
-4 -3 -8 1023.01 40.16
4 3 9 46.6 6.48
-4 -3 -9 50.84 6.49
-4 -3 -9 51.63 6.61
4 3 10 177.17 13.12
-4 -3 -10 209.33 13.88
-4 -3 -10 168.33 12.68
-4 -3 -11 258.39 15.83
-4 -3 -11 264.71 15.78
-4 -3 -12 274.94 15.49
-4 -3 -12 273.93 15.49
-4 -3 -12 260.98 15.25
-4 -3 -12 252.1 14.58
-4 -3 -13 4.79 1.85
-4 -3 -13 5.2 1.98
-4 -3 -13 5.12 1.65
-4 -3 -14 1.76 0.89
-4 -4 8 177.3 9.58
-4 -4 8 226.06 10.93
-4 -4 7 17.18 2.95
-4 -4 7 19.06 3.44
-4 -4 6 64.94 6.88
-4 -4 6 68.48 7.22
-4 -4 5 266.15 16.31
-4 -4 5 259.24 16
-4 -4 4 2.24 1.81
-4 -4 4 3.54 2.43
-4 -4 4 1.4 2.29
-4 -4 3 54.93 7.08
-4 -4 3 50.9 7.94
-4 -4 3 51.29 6.85
-4 -4 2 758.06 34.21
-4 -4 2 732.72 37.81
-4 -4 2 805.88 34.52
-4 -4 1 3.75 2.35
-4 -4 1 2.7 1.68
-4 -4 0 55.64 6.8
-4 -4 0 64.56 8.82
-4 -4 0 56.66 6.71
-4 -4 -1 430.12 21.83
4 4 1 441.88 38.73
4 4 1 501.64 44.76
-4 -4 -1 405.39 23.7
-4 -4 -1 371.6 41.32
-4 -4 -1 459.57 22.33
-4 -4 -1 392.69 36.38
4 4 2 79.79 15.51
4 4 2 103.84 19.67
-4 -4 -2 91.85 18.56
-4 -4 -2 90.17 16.66
4 4 3 26.54 8.98
4 4 3 24.57 9.48
-4 -4 -3 37.56 11.86
-4 -4 -3 36.58 10.44
-4 -4 -4 262.36 15.49
4 4 4 285.18 30.41
-4 -4 -4 243.64 29.27
-4 -4 -4 254.95 28.1
-4 -4 -5 259.04 15.09
4 4 5 236.67 28.09
-4 -4 -5 207.93 14.94
-4 -4 -5 252.07 28.05
-4 -4 -6 1737.86 66.59
-4 -4 -6 1702.57 67.59
-4 -4 -7 5.97 2.9
-4 -4 -7 2.13 1.47
-4 -4 -8 533.82 25.73
-4 -4 -9 316.93 19.51
-4 -4 -9 326.16 18.68
-4 -4 -10 63.98 8.09
-4 -4 -10 66.74 7.47
-4 -4 -11 275.87 16.31
-4 -4 -12 41.47 5.49
-4 -4 -12 42.95 5.49
-4 -4 -13 80.13 6.78
-4 -4 -13 72.41 6.43
-4 -5 7 0.7 0.97
-4 -5 7 0.34 1.12
-4 -5 6 33.71 4.53
-4 -5 6 35.1 4.59
-4 -5 5 383.54 19.85
-4 -5 5 382.01 19.62
-4 -5 4 424.17 22.13
-4 -5 4 424.89 21.99
-4 -5 3 19.04 4.17
-4 -5 3 16.17 4.08
-4 -5 3 19.14 4.04
-4 -5 2 46.81 6.67
-4 -5 2 31.46 6.6
-4 -5 2 49.85 6.82
-4 -5 1 2.77 2.17
-4 -5 1 5.64 3.18
-4 -5 1 11.42 2.89
-4 -5 0 246.95 15.97
-4 -5 0 221.62 18.07
-4 -5 0 255.38 16.11
-4 -5 -1 3.26 1.91
-4 -5 -1 2.07 1.88
-4 -5 -1 1.84 1.53
-4 -5 -2 12.2 3.17
-4 -5 -2 11.94 3.64
-4 -5 -2 11.14 2.92
-4 -5 -3 5.45 2.32
-4 -5 -3 4.61 2.39
-4 -5 -3 0.01 1
-4 -5 -4 481.79 22.94
-4 -5 -4 464.09 24.25
-4 -5 -5 125.82 10.3
-4 -5 -5 133.62 11.54
-4 -5 -5 115.29 10.77
-4 -5 -6 24.04 4.47
-4 -5 -6 27.44 4.71
-4 -5 -6 24.61 4.7
-4 -5 -6 24.59 4.78
-4 -5 -7 2.08 2.38
-4 -5 -7 -0.42 1.7
-4 -5 -7 6.64 2.84
-4 -5 -7 0.73 1.56
-4 -5 -7 0.43 2.41
-4 -5 -8 155.66 13.01
-4 -5 -8 168.4 12.6
-4 -5 -9 488.91 25.97
-4 -5 -9 519.88 25.3
-4 -5 -10 225.35 15.6
-4 -5 -10 247.55 15.45
-4 -5 -11 3.84 2.26
-4 -5 -11 3.86 2.63
-4 -5 -12 4.51 2.41
-4 -5 -12 0.8 1.52
-4 -5 -13 88.41 6.83
-4 -5 -13 86.57 6.81
-4 -6 6 329.4 14.85
-4 -6 6 315.46 14.63
-4 -6 5 100.99 8.02
-4 -6 5 106.05 8.07
-4 -6 4 106.65 8.72
-4 -6 4 88.69 8.08
-4 -6 3 5.13 2.87
-4 -6 3 3.29 1.66
-4 -6 2 266.03 16.57
-4 -6 2 257.73 17.94
-4 -6 2 270.35 16.57
-4 -6 1 1359.06 51.49
-4 -6 1 1359.04 51.3
-4 -6 0 17.71 4.24
-4 -6 0 7.74 3.58
-4 -6 0 13.27 3.52
-4 -6 -1 22.9 4.73
-4 -6 -1 15.17 4.59
-4 -6 -1 10.25 2.94
-4 -6 -1 25.96 4.7
-4 -6 -2 187.35 13.18
-4 -6 -2 193.19 15.46
-4 -6 -2 165.64 12.15
-4 -6 -2 150.91 12.34
-4 -6 -3 42.84 7.22
-4 -6 -3 46.73 6.21
-4 -6 -3 47.53 7.21
-4 -6 -3 44.42 6.43
-4 -6 -4 13.55 3.86
-4 -6 -4 8.39 3.39
-4 -6 -4 7.63 3.37
-4 -6 -4 8.23 2.94
-4 -6 -5 684.09 36.37
-4 -6 -5 763.83 32.49
-4 -6 -5 772.42 34.75
-4 -6 -5 709.61 33.76
-4 -6 -6 -1.17 2.12
-4 -6 -6 3.34 2.31
-4 -6 -6 0.97 1.55
-4 -6 -6 0.78 2.01
-4 -6 -6 2.13 1.75
-4 -6 -7 19.49 4.82
-4 -6 -7 12.31 3.14
-4 -6 -7 18.72 4.12
-4 -6 -7 14.92 4.2
-4 -6 -7 14.36 3.53
-4 -6 -8 447.04 24.98
-4 -6 -8 480.23 23.69
-4 -6 -8 473.28 24.58
-4 -6 -9 2.82 2.95
-4 -6 -9 1.22 2.23
-4 -6 -10 343.71 19.06
-4 -6 -10 332.92 17.91
-4 -6 -10 288.83 16.96
-4 -6 -11 58.87 6.2
-4 -6 -11 50.35 5.81
-4 -6 -11 58.45 6.56
-4 -6 -12 63.85 5.95
-4 -6 -12 72.77 6.3
-4 -6 -13 311.46 13.84
-4 -7 5 0.44 0.66
-4 -7 4 25.76 3.58
-4 -7 4 25 3.51
-4 -7 3 226.69 13.28
-4 -7 3 207.93 12.54
-4 -7 2 33.38 5.09
-4 -7 2 33.88 4.88
-4 -7 1 114.88 9.73
-4 -7 1 119.83 11.04
-4 -7 1 115.94 9.48
-4 -7 1 103.21 9.12
-4 -7 0 75.69 7.91
-4 -7 0 73.24 9.16
-4 -7 0 84.33 8
-4 -7 0 75.25 7.92
-4 -7 -1 9.46 3.21
-4 -7 -1 1.68 2.47
-4 -7 -1 10.06 3.08
-4 -7 -2 704.17 30.06
-4 -7 -2 683.99 33.95
-4 -7 -2 604.13 29.99
-4 -7 -3 26.47 4.68
-4 -7 -3 18.93 5.13
-4 -7 -3 19.86 4.47
-4 -7 -4 94.54 11.06
-4 -7 -4 111.56 9.38
-4 -7 -4 105.49 10.86
-4 -7 -4 103.74 10.11
-4 -7 -5 16.29 4.76
-4 -7 -5 11.49 2.82
-4 -7 -5 19.35 4.52
-4 -7 -5 14.35 4.2
-4 -7 -6 80.69 10.21
-4 -7 -6 66.45 7.11
-4 -7 -6 84.18 8.02
-4 -7 -6 81.8 8.9
-4 -7 -6 97.93 9.85
-4 -7 -7 58.81 8.17
-4 -7 -7 56.37 6.46
-4 -7 -7 60.25 7.42
-4 -7 -7 58.34 7.92
-4 -7 -8 175.79 13.8
-4 -7 -8 148.06 11.06
-4 -7 -8 179.04 12.98
-4 -7 -9 242.43 14.48
-4 -7 -9 268.13 15.86
-4 -7 -9 250.34 15.11
-4 -7 -9 292.62 17.26
-4 -7 -10 18.55 4.04
-4 -7 -10 15.51 3.09
-4 -7 -10 12.88 2.98
-4 -7 -11 131.2 8.55
-4 -7 -11 124.01 8.44
-4 -7 -11 146.4 9.68
-4 -7 -12 25.19 3.01
-4 -8 3 22.4 2.9
-4 -8 2 363.4 17.01
-4 -8 1 25.22 3.89
-4 -8 1 19.51 3.12
-4 -8 1 21.03 3.29
-4 -8 0 22 3.66
-4 -8 0 20.36 4
-4 -8 0 22.99 3.77
-4 -8 0 26.03 4.22
-4 -8 -1 261.5 14.51
-4 -8 -1 237.26 16.62
-4 -8 -1 232.17 14.14
-4 -8 -1 249.64 14.86
-4 -8 -2 24.01 3.87
-4 -8 -2 31.83 5.52
-4 -8 -2 28.22 4.75
-4 -8 -3 652.06 31.18
-4 -8 -3 678.66 28.95
-4 -8 -4 91.54 9.62
-4 -8 -4 106.75 9.66
-4 -8 -5 32.37 5.81
-4 -8 -5 32.57 5.57
-4 -8 -5 46.39 8.8
-4 -8 -6 328.7 18.57
-4 -8 -6 327.11 18.66
-4 -8 -6 271.25 19.15
-4 -8 -7 12.95 4.12
-4 -8 -7 12.72 3.43
-4 -8 -7 12.65 3.73
-4 -8 -8 18.65 4.44
-4 -8 -8 23.09 4.26
-4 -8 -9 9.76 2.62
-4 -8 -10 52.49 5.62
-4 -9 -1 110.93 7.96
-4 -9 -2 161.2 11.52
-4 -9 -2 160.76 10.48
-4 -9 -3 33.2 5.21
-4 -9 -3 30.79 4.43
-4 -9 -4 119.97 10.33
-4 -9 -4 115.89 9.2
-4 -9 -5 -0.2 1.44
-4 -9 -5 2.55 1.88
-4 -9 -6 165.29 11.24
-4 -9 -6 169.23 11.2
-4 -9 -7 168.5 11.69
-4 -9 -8 8.18 2.42
-4 -9 -9 24.1 3.29
5 -7 -2 59.79 4.93
5 -7 -1 2.18 1.09
5 -7 0 100.85 7.03
5 -7 1 3.66 1.46
5 -7 2 71.79 5.55
5 -6 -5 15.37 2.39
5 -6 -4 69.34 5.93
5 -6 -3 1.59 1.4
5 -6 -2 15.54 3.26
5 -6 -1 9.18 2.53
5 -6 0 66.83 6.49
5 -6 1 192.24 11.9
5 -6 1 217.62 12.63
5 -6 2 51.81 5.65
5 -6 2 55.56 5.88
5 -6 3 3.13 1.63
5 -6 3 8.69 2.35
5 -6 4 54.16 5.38
5 -6 4 46.28 4.92
5 -6 4 59.33 5.62
5 -6 5 67.58 5.7
5 -6 5 64.74 5.69
5 -6 5 72.74 5.94
5 -5 -6 39.34 4.17
5 -5 -5 100.38 7.71
5 -5 -4 0.97 1.58
5 -5 -3 174.48 11.71
5 -5 -2 72.16 7.31
5 -5 -1 254.33 15.2
5 -5 0 121.37 9.79
5 -5 1 252.29 15.39
5 -5 1 252.43 15.1
5 -5 2 103.22 8.99
5 -5 2 104.31 9.02
5 -5 3 9.2 2.64
5 -5 3 10.44 2.89
5 -5 4 401.1 19.93
5 -5 4 358.4 19.68
5 -5 4 423.88 20.11
5 -5 5 75.72 7.26
5 -5 5 77.64 7.76
5 -5 5 84.44 7.41
5 -5 6 96.71 7.86
5 -5 6 89.24 8.02
5 -5 6 95.68 7.62
5 -5 7 24.97 3.55
5 -5 7 30.71 3.77
5 -5 7 24.32 3.79
5 -5 8 46.87 4.32
5 -5 8 43.92 4.41
5 -4 -7 6.43 1.77
5 -4 -6 4.85 1.84
5 -4 -5 298.55 16.05
5 -4 -4 58.94 6.61
5 -4 -3 203.57 13.53
5 -4 -2 378.33 20.17
5 -4 -1 100.3 9.33
5 -4 0 172.97 12.53
5 -4 1 7.13 2.44
5 -4 2 59.96 7.01
5 -4 3 323.55 18.21
5 -4 3 300.43 17.48
5 -4 4 82.25 8.4
5 -4 4 93.18 8.67
5 -4 5 16.04 3.71
5 -4 5 15.93 3.42
5 -4 6 5.81 2.27
5 -4 6 10.05 2.79
5 -4 7 53.97 5.96
5 -4 7 47.62 5.48
5 -4 8 4.09 1.77
5 -4 9 106.95 7.37
5 -4 9 85.93 7
-5 3 7 2.55 1.19
5 -3 -7 5.57 1.82
-5 3 6 59.16 5.99
5 -3 -6 62.39 6.29
-5 3 5 273.15 15.75
5 -3 -5 288.83 16.09
-5 3 4 160.52 11.82
5 -3 -4 185.13 12.5
-5 3 3 3.5 1.88
5 -3 -3 4.68 2.12
-5 3 2 22.79 4.39
5 -3 -2 29.19 5.08
-5 3 1 383.9 20.84
5 -3 -1 399.75 21.06
-5 3 0 1.89 1.29
5 -3 0 -0.05 1.57
-5 3 -1 71.82 7.82
5 -3 1 67.96 7.6
-5 3 -2 77.21 8
5 -3 2 79.34 8.1
-5 3 -3 3.73 2
5 -3 3 4.99 2.07
-5 3 -4 217.77 14.4
5 -3 4 212.3 14.11
5 -3 5 3.64 2.06
-5 3 -5 7.4 2.33
5 -3 5 5.15 2.06
5 -3 6 79.28 8.22
5 -3 6 66.71 7.25
-5 3 -6 66.85 7.34
5 -3 6 64.42 7.19
5 -3 7 1.85 1.86
5 -3 7 -0.48 1.68
-5 3 -7 1.45 1.93
5 -3 8 328.79 17.17
5 -3 8 278.35 15.88
-5 3 -8 293.92 16.06
5 -3 9 96.41 7.9
5 -3 9 87.84 7.33
-5 3 -9 83.56 6.97
5 -3 10 -0.6 0.97
-5 3 -10 2.26 1.15
5 -3 10 -0.9 0.99
-5 3 -10 -0.36 1
5 -2 -8 54.53 4.43
-5 2 8 58.94 4.93
5 -2 -8 48.56 4.27
5 -2 -7 370.5 17.23
-5 2 7 413.05 18.39
5 -2 -7 362.22 17.23
5 -2 -6 45.08 5.24
-5 2 6 46.24 5.63
5 -2 -6 42.26 5.25
5 -2 -5 1.17 1.66
-5 2 5 1.9 1.97
5 -2 -5 -0.21 1.39
5 -2 -4 31.32 4.9
-5 2 4 32.3 5.13
5 -2 -4 28.72 4.64
5 -2 -3 7.66 2.48
-5 2 3 2.18 1.56
5 -2 -3 12.42 3.33
5 -2 -2 134.54 10.82
-5 2 2 156.17 11.85
5 -2 -2 140.18 11.13
5 -2 -1 111.32 9.6
-5 2 1 110.63 9.8
-5 2 0 134 10.86
-5 2 -1 71.31 7.81
-5 2 -2 1839.95 66.61
5 -2 3 4.54 2.47
-5 2 -3 10.32 2.88
5 -2 4 6.26 2.92
-5 2 -4 3.85 2.1
5 -2 5 117.25 10.46
-5 2 -5 174.46 12.39
5 -2 6 15.43 3.55
5 -2 6 21.53 4.68
-5 2 -6 21.93 4.53
5 -2 7 222.49 14.78
5 -2 7 224.4 14.86
-5 2 -7 227.24 14.74
5 -2 8 5.99 1.84
5 -2 8 5.27 2.43
-5 2 -8 11.71 3.07
5 -2 9 1.79 1.86
5 -2 9 4.31 2.33
-5 2 -9 3.99 2.13
5 -2 10 148.24 9.86
5 -2 10 150.82 10.28
-5 2 -10 144.94 9.88
5 -2 11 117.47 7.76
-5 2 -11 113.01 7.36
5 -1 -8 59.6 5.12
-5 1 8 64.77 5.44
5 -1 -7 83.88 6.96
-5 1 7 77.86 6.9
5 -1 -6 5.58 2.29
-5 1 6 6.32 2.62
5 -1 -5 33.29 5.03
-5 1 5 22.94 4.08
5 -1 -4 334.34 18.47
-5 1 4 324.45 18.48
5 -1 -3 401.88 20.9
-5 1 3 381.68 20.82
5 -1 -2 112.04 9.63
-5 1 2 107.76 9.63
5 -1 -1 34.19 5.32
-5 1 1 43.62 5.96
5 -1 0 71.3 7.48
-5 1 0 69.62 7.51
5 -1 1 9.26 2.67
5 -1 1 12.7 3.24
-5 1 -1 7.21 2.78
5 -1 2 60.77 6.93
-5 1 -2 58.51 6.71
5 -1 3 394.02 20.81
-5 1 -3 392.5 20.66
5 -1 4 31.58 4.97
-5 1 -4 19.15 4
5 -1 5 630.99 29.01
-5 1 -5 610.48 28.41
5 -1 6 382.35 21.14
5 -1 6 419.9 21.87
-5 1 -6 395.16 21.07
5 -1 7 9.5 3.19
5 -1 7 9.23 2.81
-5 1 -7 12.07 3.19
5 -1 8 1.08 1.3
5 -1 8 3.3 2.6
-5 1 -8 1.26 2.09
5 -1 9 13.03 3.02
5 -1 9 19.22 4.38
-5 1 -9 17.44 3.96
5 -1 10 12.39 3.36
-5 1 -10 4.88 2.01
5 -1 11 116.28 8.73
-5 1 -11 106.84 8.12
5 -1 12 4.84 1.45
-5 1 -12 4.86 1.6
-5 1 -12 7.38 1.91
5 0 -8 25.88 3.29
-5 0 8 21.02 3.09
5 0 -7 12.28 2.8
-5 0 7 11.87 2.7
5 0 -6 97.77 8.27
-5 0 6 95.7 8.34
5 0 -5 483.88 23.3
-5 0 5 486.55 23.64
5 0 -4 60.78 7.02
-5 0 4 51.45 6.61
5 0 -3 112.94 9.94
-5 0 3 123.76 10.5
5 0 -2 9.71 2.79
-5 0 2 11.65 3.42
5 0 -1 26.96 4.66
-5 0 1 21.05 4.15
5 0 0 1111.54 44.06
-5 0 0 1152.87 44.55
5 0 1 331.99 18.11
-5 0 -1 330.36 18.26
-5 0 -2 329.12 18.11
5 0 3 6.36 2.28
-5 0 -3 1.48 1.34
5 0 4 144.3 11.25
-5 0 -4 139.41 10.87
5 0 5 18.65 4.14
-5 0 -5 19.07 3.91
5 0 6 845.86 36.01
-5 0 -6 845.88 35.78
5 0 7 389.51 20.88
-5 0 -7 364.45 20.16
5 0 8 3.72 2.23
-5 0 -8 10.75 3.42
5 0 9 489.45 24.55
-5 0 -9 523.49 24.67
5 0 10 27.35 4.67
-5 0 -10 29.51 4.79
5 0 11 37.96 5.1
-5 0 -11 34.94 4.73
5 0 12 8.71 2.36
-5 0 -12 10.38 2.21
-5 0 -12 9.51 2.65
5 1 -8 3.63 1.44
-5 -1 8 4.52 1.51
5 1 -7 159.8 10
-5 -1 7 138.94 9.56
-5 -1 7 162.33 10.18
5 1 -6 5.32 2.31
-5 -1 6 4.95 2.36
-5 -1 6 4.82 2.15
5 1 -5 19.32 3.57
5 1 -5 19.59 3.95
-5 -1 5 21.77 4.01
5 1 -4 168.5 12.17
-5 -1 4 151.88 11.67
-5 -1 4 164.29 12.25
5 1 -3 88.83 8.66
-5 -1 3 79.56 8.25
-5 -1 3 67.21 7.72
5 1 -2 673.49 30.43
-5 -1 2 641.92 30.59
-5 -1 2 728.35 31.47
5 1 -1 402.42 21.08
-5 -1 1 385.11 21.37
-5 -1 1 427.13 21.82
5 1 0 352.98 19.14
-5 -1 0 367.15 20.05
-5 -1 0 350.68 19.33
5 1 1 282.64 16.43
-5 -1 -1 290.31 16.79
5 1 2 48.75 6.06
-5 -1 -2 50.13 6.14
5 1 3 518.41 24.13
-5 -1 -3 529.63 24.29
-5 -1 -4 -1 1.83
5 1 4 -0.53 1.23
-5 -1 -4 -0.66 1.6
5 1 5 264.65 16.19
-5 -1 -5 281.65 16.61
5 1 6 7 2.51
-5 -1 -6 8.46 2.72
-5 -1 -6 10 2.95
5 1 7 10.8 3.16
-5 -1 -7 9.76 2.82
-5 -1 -7 13.07 3.57
5 1 8 101.32 9.4
-5 -1 -8 103.81 9.29
-5 -1 -8 102.36 9.45
5 1 9 332.04 19.02
-5 -1 -9 344.65 19.1
5 1 10 403.48 21.14
-5 -1 -10 415.71 20.96
5 1 11 25.25 4.29
-5 -1 -11 21.9 3.75
5 1 12 34.31 4.37
-5 -1 -12 30.97 4.13
5 1 13 8.9 1.84
-5 -1 -13 8.61 1.76
5 2 -7 31.03 3.83
-5 -2 7 31.11 3.75
5 2 -6 132.68 9.43
-5 -2 6 118.38 9.24
-5 -2 6 112.89 8.5
-5 -2 6 122.96 8.97
5 2 -5 135.01 10.33
-5 -2 5 148.78 11.53
-5 -2 5 130.6 10.17
-5 -2 5 136.55 10.36
5 2 -4 104.58 9.33
-5 -2 4 106.23 10.39
-5 -2 4 95.91 9.1
-5 -2 4 102.84 9.3
5 2 -3 125.4 10.53
-5 -2 3 136.37 11.18
-5 -2 3 126.97 10.74
5 2 -2 85.09 8.45
-5 -2 2 71.59 8.15
-5 -2 2 93.6 8.93
-5 -2 1 652.01 30.77
5 2 -1 705.92 31.23
-5 -2 1 699.36 31.75
-5 -2 1 735.74 31.73
-5 -2 0 370.37 20.61
5 2 0 400.21 20.85
-5 -2 0 409.99 21.59
-5 -2 0 403.2 21.09
5 2 1 50.2 6.27
-5 -2 -1 45.32 6.21
-5 -2 -1 50.82 7.37
-5 -2 -1 50.09 6.5
-5 -2 -1 50.83 6.3
-5 -2 -2 542.1 26.1
5 2 2 550.05 25.86
-5 -2 -2 552.01 27.86
-5 -2 -2 573.63 26.51
-5 -2 -2 563.55 26.11
-5 -2 -3 6.31 2.13
-5 -2 -3 3.34 1.91
-5 -2 -3 6.05 2.2
-5 -2 -4 326.1 18.5
5 2 4 335.52 18.69
-5 -2 -4 365.01 19.24
-5 -2 -5 15.19 3.55
5 2 5 16.01 3.67
-5 -2 -5 19.6 3.88
5 2 6 1.15 1.23
-5 -2 -6 1.29 1.81
5 2 7 5.63 2.22
-5 -2 -7 9.72 2.93
-5 -2 -7 6.44 2.39
5 2 8 261.73 16.38
-5 -2 -8 252.65 16.01
-5 -2 -8 283.78 16.88
5 2 9 191.68 13.7
-5 -2 -9 204.39 13.77
-5 -2 -9 211.23 14.06
5 2 10 1.26 1.53
-5 -2 -10 -2.72 2.42
-5 -2 -10 -0.46 1.72
5 2 11 55.35 6.24
-5 -2 -11 47.39 5.7
-5 -2 -11 53.48 5.91
5 2 12 94.96 7.67
-5 -2 -12 92.09 7.07
-5 -2 -12 105.18 7.8
-5 -2 -13 487.19 19.85
5 3 -7 77.46 5.35
5 3 -6 25.53 3.54
-5 -3 6 18.39 3.08
5 3 -5 45.64 5.44
-5 -3 5 52.86 6.24
-5 -3 5 44.53 5.61
-5 -3 5 40.67 5
-5 -3 4 -1.1 1.69
5 3 -4 2 2.2
-5 -3 4 -3.34 2.71
-5 -3 4 -0.77 2.04
-5 -3 4 0.48 1.2
-5 -3 3 8.18 2.88
5 3 -3 16.59 3.67
-5 -3 3 12.43 3.99
-5 -3 3 11.96 3.49
-5 -3 3 7.75 2.47
5 3 -2 329.2 18.52
-5 -3 2 320.68 18.66
-5 -3 2 337.49 21.56
-5 -3 2 338.73 19.3
-5 -3 2 303.04 17.92
-5 -3 1 161.6 12.36
5 3 -1 133.76 11.08
-5 -3 1 162.37 14.38
-5 -3 1 162.03 12.42
-5 -3 0 3.94 2.65
5 3 0 5.16 2.55
-5 -3 0 3.86 2.11
-5 -3 0 5.85 2.79
-5 -3 -1 26.12 4.68
5 3 1 19.85 3.83
-5 -3 -1 21.25 4.75
-5 -3 -1 20.17 4.33
-5 -3 -2 495.1 24.9
-5 -3 -2 514.93 27.07
-5 -3 -2 553.12 25.83
-5 -3 -3 928.34 38.62
-5 -3 -3 950.37 40.5
-5 -3 -4 1.18 1.69
5 3 4 5.6 2.76
-5 -3 -4 1.81 2.03
-5 -3 -5 5.34 2.61
5 3 5 2.88 2.13
-5 -3 -6 116.87 10.15
5 3 6 124.1 10.41
5 3 7 735.7 32.08
-5 -3 -7 706.61 31.45
-5 -3 -7 682.72 31.11
5 3 8 57.75 7.27
-5 -3 -8 67.47 7.48
-5 -3 -8 56.02 6.85
5 3 9 0.88 1.57
-5 -3 -9 0.21 1.92
-5 -3 -9 2.75 2.22
-5 -3 -10 26.17 4.81
5 3 10 28.58 4.69
-5 -3 -10 24.02 4.48
-5 -3 -10 25.1 4.16
5 3 11 21.03 3.7
-5 -3 -11 23.08 4.04
-5 -3 -11 21.81 3.76
-5 -3 -12 113.79 8.22
-5 -3 -12 116.31 8.33
-5 -3 -13 3.28 1.35
-5 -3 -13 2.5 1.15
-5 -3 -13 2 1.08
-5 -4 6 13.65 2.55
-5 -4 5 11.78 2.52
-5 -4 5 8.99 2.15
-5 -4 4 6.8 2.36
-5 -4 4 5.43 2.42
-5 -4 4 8.2 2.74
-5 -4 3 89.98 8.72
-5 -4 3 100.45 10.12
-5 -4 3 100.98 9.13
-5 -4 2 44.26 6.3
-5 -4 2 41.71 6.97
-5 -4 2 37.65 5.82
-5 -4 1 606.33 29.32
-5 -4 1 619.2 32.75
-5 -4 1 654.33 29.83
-5 -4 0 69.44 8.02
-5 -4 0 78.73 10.06
-5 -4 0 74.34 8.23
-5 -4 -1 1025.02 42.93
-5 -4 -1 1017.63 45.67
-5 -4 -1 1123.29 43.66
-5 -4 -2 85.74 8.78
-5 -4 -2 95.34 10.16
-5 -4 -2 92.97 9.06
-5 -4 -3 165.63 12.3
-5 -4 -3 149.09 12.86
-5 -4 -4 3.4 1.48
5 4 4 5.54 2.28
-5 -4 -4 1.94 1.85
-5 -4 -5 140.87 11.04
5 4 5 127.87 10.76
-5 -4 -5 152.12 12.35
-5 -4 -6 287.11 16.77
5 4 6 264.43 16.42
-5 -4 -7 122.67 10.14
5 4 7 103.55 9.49
-5 -4 -7 106.12 9.67
-5 -4 -8 5.51 3.03
-5 -4 -9 4.65 2.05
-5 -4 -9 5.94 2.96
-5 -4 -10 90.44 8.56
-5 -4 -10 74.12 7.65
-5 -4 -11 152.52 10.84
-5 -4 -11 169.07 11.19
-5 -4 -12 88.39 7.02
-5 -4 -12 76.61 6.73
-5 -4 -13 99.14 6.41
-5 -4 -13 91.67 6.19
-5 -5 5 274.92 13.47
-5 -5 5 305.88 14.29
-5 -5 4 466.64 21.25
-5 -5 4 476.93 21.5
-5 -5 3 154.43 10.93
-5 -5 3 136.73 10.96
-5 -5 3 147.82 10.83
-5 -5 2 43.66 5.89
-5 -5 2 41.68 6.7
-5 -5 2 48.1 6.23
-5 -5 1 24.49 4.84
-5 -5 1 27.78 5.93
-5 -5 1 24.42 4.73
-5 -5 0 144.96 11.93
-5 -5 0 173.78 15.3
-5 -5 0 184.31 13.16
-5 -5 -1 32.76 5.32
-5 -5 -1 38.9 7.05
-5 -5 -1 35.43 5.48
-5 -5 -2 98.36 9.49
-5 -5 -2 110.08 11.35
-5 -5 -2 105.79 9.64
-5 -5 -3 10.75 3.27
-5 -5 -3 18.61 4.51
-5 -5 -4 186.23 12.91
-5 -5 -4 166.57 13.62
-5 -5 -5 420.79 21.78
-5 -5 -5 431.71 23.53
-5 -5 -6 479.75 23.72
-5 -5 -6 478.29 23.74
-5 -5 -6 480.97 24.99
-5 -5 -7 219.94 16.17
-5 -5 -7 229.11 14.52
-5 -5 -7 230.81 14.6
-5 -5 -7 197.6 14.29
-5 -5 -8 47.41 6.8
-5 -5 -8 50.21 6.44
-5 -5 -9 10.95 3.57
-5 -5 -9 17.55 3.82
-5 -5 -10 0.25 1.38
-5 -5 -10 -2 1.89
-5 -5 -11 109.67 8.62
-5 -5 -11 119.31 8.87
-5 -5 -12 133.17 8.8
-5 -5 -12 163.61 9.51
-5 -6 4 3.78 1.17
-5 -6 4 4 1.33
-5 -6 3 41.94 4.95
-5 -6 3 46.09 5.06
-5 -6 2 6.75 2.33
-5 -6 2 6.61 2.87
-5 -6 2 1.06 1.56
-5 -6 1 246.52 14.92
-5 -6 1 259.48 17.08
-5 -6 1 228.15 14.31
-5 -6 0 10.5 3.2
-5 -6 0 4.39 3.49
-5 -6 0 3.93 1.9
-5 -6 -1 211.87 14.15
-5 -6 -1 227.96 17.11
-5 -6 -1 206.97 13.77
-5 -6 -2 6.34 2.62
-5 -6 -2 11.87 4.45
-5 -6 -2 0.8 1.73
-5 -6 -3 242.98 15.25
-5 -6 -3 241 17.06
-5 -6 -4 4.59 2.16
-5 -6 -4 12.73 3.38
-5 -6 -4 12.95 3.77
-5 -6 -5 472.31 27.9
-5 -6 -5 507.75 23.94
-5 -6 -5 481 25.18
-5 -6 -6 279.02 19.51
-5 -6 -6 277.22 15.93
-5 -6 -6 255.76 15.46
-5 -6 -6 257.3 16.66
-5 -6 -7 -0.44 2.59
-5 -6 -7 1.91 1.96
-5 -6 -7 5.02 2
-5 -6 -7 2.72 1.55
-5 -6 -8 164.29 12.97
-5 -6 -8 158.34 11.32
-5 -6 -9 -0.85 1.62
-5 -6 -9 1.52 1.79
-5 -6 -10 352.17 18.33
-5 -6 -10 352.48 17.46
-5 -6 -11 165.13 9.82
-5 -6 -11 137.93 9.09
-5 -6 -11 161.65 9.97
-5 -6 -12 5.47 1.53
-5 -6 -12 5.27 1.4
-5 -7 3 2.39 1
-5 -7 2 49.93 4.78
-5 -7 2 44.32 4.45
-5 -7 1 125.67 8.74
-5 -7 1 104.37 8.55
-5 -7 1 107.25 7.81
-5 -7 0 222.08 12.96
-5 -7 0 208.35 14.37
-5 -7 0 198.96 11.98
-5 -7 -1 6.12 2.47
-5 -7 -1 6.2 3.4
-5 -7 -2 49.48 5.92
-5 -7 -2 51.22 7.49
-5 -7 -3 11.9 3.03
-5 -7 -3 12.14 3.68
-5 -7 -4 575.81 28.11
-5 -7 -4 580.35 25.16
-5 -7 -4 505.06 24.32
-5 -7 -4 597.24 28.17
-5 -7 -5 81.03 9.52
-5 -7 -5 74.62 7.11
-5 -7 -5 74.93 7.16
-5 -7 -5 89.28 8.85
-5 -7 -6 71.6 8.92
-5 -7 -6 73.6 6.9
-5 -7 -6 74.48 7.03
-5 -7 -6 79.7 8.08
-5 -7 -7 59.18 7.62
-5 -7 -7 41.72 5.21
-5 -7 -7 48.79 6.06
-5 -7 -8 46.9 5.34
-5 -7 -8 51.04 5.8
-5 -7 -9 311.94 16.52
-5 -7 -9 258.04 13.85
-5 -7 -10 35.64 3.85
-5 -7 -10 25.67 3.29
-5 -7 -10 38.41 4.65
-5 -8 0 86.55 6.23
-5 -8 -1 57.22 5.26
-5 -8 -1 63.92 6.41
-5 -8 -2 4.96 1.38
-5 -8 -2 4.6 1.69
-5 -8 -3 155.92 9.82
-5 -8 -3 194.26 13.2
-5 -8 -4 3.73 1.52
-5 -8 -4 1.11 1.9
-5 -8 -5 1.03 0.96
-5 -8 -5 1.37 1.57
-5 -8 -6 3.48 2.45
-5 -8 -6 2.13 1.92
-5 -8 -7 199.5 11.87
-5 -8 -7 204.47 13.34
-5 -8 -8 237.57 13.84
-5 -8 -9 15.61 2.76
6 -5 -1 66.51 5.15
6 -5 0 80.87 6.19
6 -5 0 84.27 6.07
6 -5 1 160.99 9.44
6 -5 1 146.36 8.66
6 -5 2 42.83 4.51
6 -5 2 37.12 3.88
6 -5 3 12.71 2.36
6 -5 4 6.38 1.66
6 -4 -3 5.16 1.55
6 -4 -2 20.76 3.13
6 -4 -1 38.7 4.35
6 -4 0 98.62 7.5
6 -4 1 44.01 4.86
6 -4 2 36.97 4.83
6 -4 3 75.66 7.07
6 -4 4 6.28 2.42
6 -4 5 150.69 9.81
6 -4 6 26.43 3.41
6 -4 6 18.71 2.81
6 -4 7 31.11 3.51
-6 3 4 94.37 6.73
-6 3 3 36.79 4.38
-6 3 2 11.57 2.56
-6 3 1 191.67 12.15
-6 3 0 9.82 2.87
-6 3 -1 1.17 1.36
-6 3 -2 57.72 6.42
-6 3 -3 327.72 17.35
6 -3 4 184.76 12.29
-6 3 -4 171.95 11.47
6 -3 5 47.02 5.46
-6 3 -5 44.72 5.32
6 -3 6 2.7 1.6
-6 3 -6 2.52 1.88
6 -3 7 17.87 3.19
-6 3 -7 14.98 2.68
6 -3 8 58.59 5.04
-6 3 -8 37.09 3.81
-6 2 5 87.62 6.47
-6 2 4 4.08 1.5
-6 2 3 4.06 1.96
-6 2 2 56.3 6.32
-6 2 1 77.08 7.61
-6 2 0 294.12 16.75
-6 2 -1 178.62 12.43
-6 2 -2 70.15 7.34
-6 2 -3 17 3.63
6 -2 4 53.44 6.32
-6 2 -4 64.12 7
6 -2 5 10.13 3.09
6 -2 5 8.59 2.59
-6 2 -5 11.21 2.91
6 -2 6 1.6 1.58
6 -2 6 1.92 1.39
-6 2 -6 0.19 1.42
6 -2 7 255.41 14.27
6 -2 7 237.78 13.88
-6 2 -7 247.08 14.07
6 -2 8 22.45 3.52
6 -2 8 17.69 3.14
-6 2 -8 21.93 3.49
6 -2 9 57.25 4.99
6 -2 9 69.56 5.71
-6 2 -9 71.89 5.75
6 -1 -6 35.24 3.43
-6 1 6 45.25 4.39
-6 1 6 37.28 3.71
6 -1 -5 6.36 1.97
-6 1 5 7.54 2.26
6 -1 -4 45.81 5.07
-6 1 4 52.71 5.62
6 -1 -3 31.76 4.59
-6 1 3 34.22 4.96
6 -1 -2 125.4 9.7
-6 1 2 143.03 10.55
6 -1 -1 89.02 8.17
-6 1 1 102.34 9.03
6 -1 0 110.93 9.44
-6 1 0 103.08 9.24
6 -1 1 135.42 10.56
-6 1 -1 112.87 9.82
6 -1 2 84.67 8.28
-6 1 -2 81.65 8.18
6 -1 3 392.57 19.98
-6 1 -3 318.89 18.49
6 -1 4 55.58 6.66
-6 1 -4 71.03 7.53
6 -1 5 206.78 13.59
-6 1 -5 187.21 12.86
6 -1 6 103.42 9.06
6 -1 6 105.82 9.23
-6 1 -6 117.07 9.56
6 -1 7 86.92 7.96
6 -1 7 93.48 8.44
-6 1 -7 91.07 8.07
6 -1 8 223.45 13.31
6 -1 8 252.46 14.53
6 -1 9 7.67 2.23
-6 1 -9 6.98 1.8
6 -1 10 1.64 1.09
-6 1 -10 0.04 0.88
6 0 -6 1.12 0.97
-6 0 6 1.07 0.99
-6 0 6 2.62 0.99
6 0 -5 45.38 4.79
-6 0 5 49.61 5.48
-6 0 5 44.86 4.71
6 0 -4 13.27 2.89
-6 0 4 19.96 3.55
6 0 -3 238.51 13.95
-6 0 3 235.99 14.08
6 0 -2 36.4 5.06
-6 0 2 29.61 4.94
6 0 -1 66.39 7.12
-6 0 1 65.35 7.34
6 0 0 21.22 4.11
-6 0 0 17.73 4.01
6 0 1 37.68 5.59
-6 0 -1 34.26 5.25
6 0 2 472.66 23.15
-6 0 -2 429.62 22.33
6 0 3 7.08 2.77
-6 0 -3 1.9 1.86
6 0 4 19.96 4.03
-6 0 -4 13.76 3.42
6 0 5 -1.32 2.38
-6 0 -5 -3.41 2.72
6 0 6 220.39 14.2
6 0 6 251.67 15.29
-6 0 -6 248.27 15.04
6 0 7 48.41 6.17
-6 0 -7 48.49 5.97
6 0 8 13.93 3.26
-6 0 -8 13.44 3.2
6 0 9 1.58 1.41
-6 0 -9 0.92 1.25
6 0 10 2.43 1.7
-6 0 -10 0.59 1.34
6 0 11 148.97 8.71
-6 0 -11 142.58 8.33
6 1 -6 4.47 1.21
-6 -1 6 1.25 0.83
6 1 -5 101.47 7.16
-6 -1 5 98.63 7.74
-6 -1 5 96.85 7.11
6 1 -4 188.2 11.36
-6 -1 4 187.67 12.33
-6 -1 4 177.9 11.27
6 1 -3 9.9 2.73
-6 -1 3 8.61 2.86
-6 -1 3 9.59 2.54
6 1 -2 4.85 2.18
-6 -1 2 5.68 3.56
-6 -1 2 4.41 2.05
6 1 -1 137.34 10.79
-6 -1 1 141.27 12.18
-6 -1 1 170.24 11.98
6 1 0 216.7 14.05
-6 -1 0 190.06 14.99
-6 -1 0 225.46 14.44
-6 -1 -1 256.2 17.18
-6 -1 -1 245.45 15.51
6 1 2 42.74 6
-6 -1 -2 50.18 6.95
-6 -1 -2 32.22 5.15
6 1 3 3.94 2.61
-6 -1 -3 -0.98 2.01
6 1 4 10.89 3.27
-6 -1 -4 10.19 3.09
6 1 5 156.51 11.66
-6 -1 -5 142.32 11.21
6 1 6 23.03 4.12
-6 -1 -6 24.93 4.29
6 1 7 40.32 5.53
-6 -1 -7 40.1 5.67
6 1 8 21.98 4.13
-6 -1 -8 22.2 4.13
6 1 9 145.99 10.44
-6 -1 -9 131.28 9.85
6 1 10 240.86 13.59
-6 -1 -10 246.24 13.39
6 1 11 8.78 2.19
-6 -1 -11 7.11 2.02
6 2 -5 95.44 6.52
-6 -2 5 89.77 6.64
-6 -2 5 76.39 5.72
6 2 -4 33.32 4.35
-6 -2 4 33.49 4.23
6 2 -3 8.62 2.58
-6 -2 3 6.33 2.63
-6 -2 3 7.1 2.25
6 2 -2 4.34 1.81
-6 -2 2 4.55 2.47
-6 -2 2 1.77 1.43
6 2 -1 140.16 10.75
-6 -2 1 118.63 11.05
-6 -2 1 124.13 10.16
-6 -2 0 2.86 2.25
-6 -2 0 3.69 2.14
-6 -2 -1 511.58 26.45
-6 -2 -1 481.73 23.93
-6 -2 -2 9.33 3.18
-6 -2 -2 5.63 2.85
-6 -2 -2 8.81 2.84
-6 -2 -3 14.61 3.46
6 2 3 16.69 3.8
-6 -2 -3 12.83 3.66
-6 -2 -3 11.37 3.04
-6 -2 -4 237.79 15.36
6 2 4 261.2 15.8
-6 -2 -4 257.08 15.68
6 2 5 13.17 3.35
-6 -2 -5 15.56 3.58
6 2 6 79.66 8.06
-6 -2 -6 74.06 7.64
-6 -2 -6 81.45 7.9
6 2 7 119.33 10
-6 -2 -7 122.56 9.79
-6 -2 -7 128.92 10.13
6 2 8 173.72 11.97
-6 -2 -8 162.89 11.27
-6 -2 -8 162.66 11.41
6 2 9 185.17 11.83
-6 -2 -9 154.21 10.5
-6 -2 -9 159.11 10.87
-6 -2 -10 1.3 1.17
6 2 10 -0.03 1.79
-6 -2 -10 -0.32 1.47
6 2 11 10.4 2.28
-6 -2 -11 12.56 2.38
6 3 -4 41.28 4.27
-6 -3 4 42.1 4.74
6 3 -3 16.04 3
-6 -3 3 21.13 3.84
-6 -3 3 16.5 3.08
6 3 -2 87.83 7.7
-6 -3 2 90.55 8.77
-6 -3 2 86.4 7.82
-6 -3 1 0.76 1.12
-6 -3 1 -0.42 1.87
-6 -3 1 3.77 2.14
-6 -3 1 1.01 1.12
-6 -3 0 327.72 17.85
-6 -3 0 342.35 20.26
-6 -3 0 323.05 17.57
-6 -3 -1 54.33 6.5
-6 -3 -1 56.45 7.5
-6 -3 -1 46.55 5.87
-6 -3 -2 106.23 9.37
-6 -3 -2 118.12 10.95
-6 -3 -2 98.47 8.96
-6 -3 -3 168.4 12.23
6 3 3 168.46 12.3
-6 -3 -3 175.65 13.35
-6 -3 -3 148.27 11.27
-6 -3 -4 241.43 15.25
6 3 4 249.11 15.47
-6 -3 -4 244.64 16.07
-6 -3 -4 248.65 15.02
-6 -3 -5 151.63 11.64
6 3 5 159 11.78
-6 -3 -5 159.69 11.4
6 3 6 10.43 2.85
-6 -3 -6 10.35 2.99
-6 -3 -6 16.76 3.55
6 3 7 27.3 4.53
-6 -3 -7 35.11 5.02
-6 -3 -7 26.52 4.26
6 3 8 4.97 2
-6 -3 -8 4.09 1.89
-6 -3 -8 5.46 2.08
6 3 9 2.4 1.23
-6 -3 -9 1.26 1.26
-6 -3 -10 14.49 2.93
6 3 10 12.23 2.61
-6 -3 -10 16.9 3.13
6 3 11 1.39 1.13
-6 -3 -11 1.76 1.21
-6 -4 3 245.78 13.64
-6 -4 3 271.72 13.56
-6 -4 2 79.36 6.77
-6 -4 2 91.54 8.26
-6 -4 2 93.16 7.73
-6 -4 1 244.84 14.19
-6 -4 1 257.67 16.15
-6 -4 1 267 15.04
-6 -4 0 90.37 8.21
-6 -4 0 99.26 9.72
-6 -4 -1 46.89 5.91
-6 -4 -1 43.55 6.55
-6 -4 -2 6.89 2.63
-6 -4 -2 12.03 4.09
-6 -4 -3 86.41 8.56
6 4 3 94.98 8.75
-6 -4 -3 101.08 9.86
-6 -4 -4 12.97 3.4
6 4 4 13.88 3.21
-6 -4 -4 14.99 3.79
-6 -4 -5 41.3 5.62
6 4 5 45.63 5.93
-6 -4 -5 44.78 6.06
6 4 6 8.12 2.95
-6 -4 -6 7.59 2.95
6 4 7 56.7 6.26
-6 -4 -7 48.16 5.9
6 4 8 318.07 16.91
-6 -4 -8 346.99 17.65
-6 -4 -9 61.27 6.63
-6 -4 -9 59.45 6.13
-6 -4 -10 2.31 1.3
-6 -4 -10 1.73 1.43
-6 -4 -11 57.94 5.08
-6 -5 2 213.67 11.27
-6 -5 2 212.33 12.16
-6 -5 1 23.33 3.5
-6 -5 1 20.12 3.82
-6 -5 0 114.9 9.06
-6 -5 0 128.96 10.66
-6 -5 -1 0.71 1.7
-6 -5 -1 2.26 1.92
-6 -5 -2 398 19.77
6 5 2 362.05 18.77
-6 -5 -2 380.77 21.16
-6 -5 -3 32.64 4.93
6 5 3 27.29 4.17
-6 -5 -3 20.43 4.62
-6 -5 -4 0.21 2.26
-6 -5 -4 0.6 1.97
6 5 4 -2.82 1.8
-6 -5 -4 1.41 1.55
-6 -5 -5 4.33 2.94
-6 -5 -5 2.13 1.57
6 5 5 4.07 1.91
-6 -5 -5 2.09 1.36
-6 -5 -6 319.17 19.1
-6 -5 -6 305.24 16.52
-6 -5 -6 282.46 15.93
-6 -5 -6 287.82 16.43
-6 -5 -7 299.5 17.88
-6 -5 -7 298.7 16.05
-6 -5 -8 28.35 4.91
-6 -5 -8 32.54 4.49
-6 -5 -9 193.53 12.18
-6 -5 -9 186.65 11.24
-6 -5 -10 13.27 2.67
-6 -5 -10 10.31 2.18
-6 -5 -11 154.18 8.29
-6 -5 -11 135.06 7.82
-6 -6 1 44.15 4.3
-6 -6 1 41.99 4.49
-6 -6 0 185.17 10.84
-6 -6 0 191.29 12.07
-6 -6 -1 386.68 18.23
-6 -6 -1 372.49 19.75
-6 -6 -2 70.04 6.67
-6 -6 -2 63.52 7.25
-6 -6 -3 2.58 1.56
-6 -6 -3 3.78 2.06
-6 -6 -4 7.59 2.59
-6 -6 -4 10.78 2.72
-6 -6 -4 10.76 3.45
-6 -6 -5 302.97 17.83
-6 -6 -5 322.39 16.37
-6 -6 -5 293.39 15.63
-6 -6 -5 317.02 17.08
-6 -6 -6 153.5 11.83
-6 -6 -6 161.53 10.26
-6 -6 -6 141.02 10.19
-6 -6 -7 -0.07 1.74
-6 -6 -7 0.71 1.18
-6 -6 -8 6.18 3.54
-6 -6 -8 3.97 1.93
-6 -6 -9 31.54 4.14
-6 -6 -9 41.03 4.26
-6 -6 -10 62.43 5.15
-6 -6 -10 57.92 4.74
-6 -7 -1 45.45 4.23
-6 -7 -1 47.98 4.89
-6 -7 -2 76.81 5.98
-6 -7 -2 74.29 6.76
-6 -7 -3 47.69 4.7
-6 -7 -3 35.82 3.93
-6 -7 -3 35.49 4.7
-6 -7 -4 309.26 14.46
-6 -7 -4 322.21 15.97
-6 -7 -5 183.45 10.22
-6 -7 -5 195.35 11.73
-6 -7 -6 34.78 4.49
-6 -7 -6 32.75 3.73
-6 -7 -6 34.42 4.1
-6 -7 -7 11.75 2.62
-6 -7 -7 12.65 2.22
-6 -7 -8 6.9 2.01
7 -3 1 137.32 7.99
7 -3 2 25.89 3.19
7 -3 3 4.11 1.35
-7 2 1 21.21 2.79
-7 2 0 60.17 5.21
-7 2 -1 0.23 1.14
-7 2 -2 0.48 0.98
7 -2 3 1.63 1.04
-7 2 -3 2.51 1.19
7 -2 4 308.34 14.4
-7 2 -4 286.23 14.02
7 -2 5 91.54 6.44
-7 2 -5 86.27 6.31
-7 1 2 83.69 5.88
-7 1 1 111 7.77
-7 1 1 140.1 8.44
-7 1 0 79.36 6.6
-7 1 -1 11.19 2.54
7 -1 2 35.8 4.11
-7 1 -2 37.21 4.54
7 -1 3 146.96 9.51
-7 1 -3 176.02 10.55
7 -1 4 38.81 4.53
7 -1 4 32.07 4.03
-7 1 -4 38.63 4.56
7 -1 5 120.77 8.09
7 -1 5 114.19 8.03
-7 1 -5 130.24 8.65
7 -1 6 6.26 1.65
7 -1 6 4.84 1.56
-7 1 -6 6.75 2.03
7 -1 7 41.99 4.11
-7 1 -7 40.93 4.16
-7 0 2 41.61 4.44
-7 0 2 39.19 3.98
7 0 -1 33.9 3.71
-7 0 1 42.82 4.8
-7 0 1 45.01 4.69
7 0 0 3.6 1.73
-7 0 0 0.41 1.33
-7 0 0 0.36 1.5
7 0 1 13.07 2.56
-7 0 -1 15.8 3.03
7 0 2 123.5 8.96
-7 0 -2 142.63 9.69
7 0 3 16.66 3.15
-7 0 -3 18.86 3.58
7 0 4 29.01 4.14
-7 0 -4 32.86 4.52
7 0 5 5.44 1.93
-7 0 -5 6.99 2.2
7 0 6 29.32 3.91
-7 0 -6 30.39 4.13
7 0 7 79.24 6.38
-7 0 -7 80.41 6.45
7 0 8 89.44 6.41
-7 0 -8 87.63 6.25
7 1 -2 21.43 2.72
-7 -1 2 34.6 4.05
-7 -1 2 27.19 3.26
7 1 -1 9.46 2.08
-7 -1 1 11.2 2.56
-7 -1 1 10.06 2.26
7 1 0 0.28 1.04
-7 -1 0 3.08 1.6
7 1 1 59.31 5.84
-7 -1 -1 60.05 6.32
-7 -1 -1 53.29 5.68
7 1 2 43.53 5.05
-7 -1 -2 44.9 5.32
7 1 3 258.84 14.24
-7 -1 -3 250.73 14.19
7 1 4 32.79 4.58
-7 -1 -4 31.63 4.46
7 1 5 124.78 9.07
-7 -1 -5 121.34 8.96
7 1 6 101.09 7.93
-7 -1 -6 93.99 7.56
7 1 7 57.16 5.52
-7 -1 -7 57.21 5.39
7 1 8 15.47 2.73
-7 -1 -8 14.53 2.51
7 1 9 4.03 1.39
7 2 -2 23.33 2.83
-7 -2 2 22.1 3.07
7 2 -1 9.84 2.17
-7 -2 1 10.69 2.54
-7 -2 1 6.1 1.75
7 2 0 32.49 4.08
-7 -2 0 29.26 4.28
-7 -2 0 26.41 3.5
7 2 1 337.15 16.34
-7 -2 -1 329.81 17.12
-7 -2 -1 302.56 15.56
7 2 2 167.3 10.63
-7 -2 -2 142.97 10.36
-7 -2 -2 150.18 10.04
7 2 3 1.51 1.23
-7 -2 -3 1.88 1.46
7 2 4 37.44 4.68
-7 -2 -4 26.51 3.72
-7 -2 -4 38.44 4.76
7 2 5 2.9 1.72
-7 -2 -5 1.85 1.32
-7 -2 -5 0.39 1.15
7 2 6 115.25 8.58
-7 -2 -6 107.53 7.95
7 2 7 78.75 6.72
-7 -2 -7 77.9 6.32
7 2 8 63.33 5.57
-7 -2 -8 56.39 4.93
7 2 9 163.91 9.03
7 3 -1 21.17 2.9
-7 -3 1 19.89 3.05
7 3 0 152.82 9.73
-7 -3 0 219.53 11.93
7 3 1 7.46 1.98
-7 -3 -1 2.59 1.6
7 3 2 36.15 4.56
-7 -3 -2 30.46 4.4
7 3 3 17.52 3.21
-7 -3 -3 12.65 2.8
7 3 4 7.5 2.04
-7 -3 -4 7.24 2.01
7 3 5 157.63 10.19
-7 -3 -5 143.45 9.5
7 3 6 1.71 1.41
-7 -3 -6 1.97 1.53
7 3 7 33.93 4.11
-7 -3 -7 31.22 3.76
-7 -3 -8 2.29 1.27
7 3 8 1.45 0.99
-7 -3 -8 -0.56 0.91
7 4 0 8.14 1.84
-7 -4 0 8.86 2.24
7 4 1 1.12 0.91
-7 -4 -1 4.66 1.71
7 4 2 31.44 3.96
-7 -4 -2 34.36 4.49
7 4 3 151.64 9.5
-7 -4 -3 141.7 9.71
-7 -4 -4 32.13 4.16
7 4 4 37.97 4.37
-7 -4 -4 37.67 4.3
-7 -4 -4 30.99 4.06
-7 -4 -5 94.7 7.9
7 4 5 105.12 7.58
-7 -4 -5 105.51 7.65
-7 -4 -6 115.93 8.73
7 4 6 109.55 7.67
-7 -4 -6 126.58 8.26
-7 -4 -7 52.97 5.43
7 4 7 41.33 4.19
-7 -4 -7 49.33 4.73
-7 -4 -8 153.2 9.04
-7 -4 -8 125.66 7.71
-7 -5 -2 32.62 3.6
-7 -5 -2 29.12 3.66
-7 -5 -3 0.59 1.01
-7 -5 -3 3.72 1.59
-7 -5 -4 85.12 6.28
-7 -5 -4 75.67 6.03
-7 -5 -5 16.49 2.65
-7 -5 -6 4.53 1.67
-7 -5 -6 4.28 1.51
-7 -5 -7 92.82 6.26
