#------------------------------------------------------------------------------
#$Date: 2021-07-02 10:59:21 +0300 (Fri, 02 Jul 2021) $
#$Revision: 266897 $
#$URL: file:///home/coder/svn-repositories/cod/cif/1/56/38/1563880.cif $
#------------------------------------------------------------------------------
#
# This file is available in the Crystallography Open Database (COD),
# http://www.crystallography.net/
#
# All data on this site have been placed in the public domain by the
# contributors.
#
data_1563880
loop_
_publ_author_name
'Lima, Francielle C.'
'Silva, Thayn\'a S.'
'Martins, Carlos H.G.'
'Gatto, Claudia C.'
_publ_section_title
;
 Synthesis, crystal structures and antimicrobial activity of dimeric
 copper(II) complexes with 2-hydroxyphenyl-ethylidene-dithiocarbazates
;
_journal_name_full               'Inorganica Chimica Acta'
_journal_page_first              464
_journal_page_last               472
_journal_paper_doi               10.1016/j.ica.2018.08.032
_journal_volume                  483
_journal_year                    2018
_chemical_formula_moiety         'C12 H14 N2 O S2'
_chemical_formula_sum            'C12 H14 N2 O S2'
_chemical_formula_weight         266.37
_space_group_crystal_system      triclinic
_space_group_IT_number           2
_space_group_name_Hall           '-P 1'
_space_group_name_H-M_alt        'P -1'
_atom_sites_solution_hydrogens   mixed
_cell_angle_alpha                88.200(3)
_cell_angle_beta                 83.616(2)
_cell_angle_gamma                78.528(3)
_cell_formula_units_Z            2
_cell_length_a                   5.3817(3)
_cell_length_b                   8.4286(4)
_cell_length_c                   15.1859(7)
_cell_measurement_reflns_used    4553
_cell_measurement_temperature    296(2)
_cell_measurement_theta_max      26.12
_cell_measurement_theta_min      2.47
_cell_volume                     670.86(6)
_computing_cell_refinement       'Bruker SAINT V8.18C (Bruker AXS Inc.)'
_computing_data_collection       'Bruker Instrument Service v2011.2.0.0'
_computing_data_reduction        'Bruker SAINT V8.18C (Bruker AXS Inc.)'
_computing_molecular_graphics    'Bruker SHELXTL'
_computing_publication_material  'Bruker SHELXTL'
_computing_structure_refinement  'SHELXL-2018/1 (Sheldrick, 2018)'
_computing_structure_solution    'SHELXS-97 (Sheldrick, 2008)'
_diffrn_ambient_temperature      296(2)
_diffrn_measured_fraction_theta_full 1.000
_diffrn_measured_fraction_theta_max 0.991
_diffrn_measurement_device_type  'Bruker APEX-II CCD'
_diffrn_measurement_method       '\f and \w scans'
_diffrn_radiation_type           MoK\a
_diffrn_radiation_wavelength     0.71073
_diffrn_reflns_av_R_equivalents  0.0294
_diffrn_reflns_av_unetI/netI     0.0310
_diffrn_reflns_Laue_measured_fraction_full 1.000
_diffrn_reflns_Laue_measured_fraction_max 0.991
_diffrn_reflns_limit_h_max       7
_diffrn_reflns_limit_h_min       -7
_diffrn_reflns_limit_k_max       11
_diffrn_reflns_limit_k_min       -11
_diffrn_reflns_limit_l_max       20
_diffrn_reflns_limit_l_min       -19
_diffrn_reflns_number            13994
_diffrn_reflns_point_group_measured_fraction_full 1.000
_diffrn_reflns_point_group_measured_fraction_max 0.991
_diffrn_reflns_theta_full        25.242
_diffrn_reflns_theta_max         28.175
_diffrn_reflns_theta_min         1.349
_diffrn_source                   'sealed tube'
_exptl_absorpt_coefficient_mu    0.382
_exptl_absorpt_correction_T_max  0.95
_exptl_absorpt_correction_T_min  0.87
_exptl_absorpt_correction_type   multi-scan
_exptl_absorpt_process_details   'SADABS V2008/1 (Bruker AXS)'
_exptl_crystal_colour            colourless
_exptl_crystal_density_diffrn    1.319
_exptl_crystal_description       block
_exptl_crystal_F_000             280
_exptl_crystal_size_max          0.805
_exptl_crystal_size_mid          0.196
_exptl_crystal_size_min          0.140
_refine_diff_density_max         0.205
_refine_diff_density_min         -0.296
_refine_diff_density_rms         0.048
_refine_ls_extinction_coef       .
_refine_ls_extinction_method     none
_refine_ls_goodness_of_fit_ref   1.109
_refine_ls_hydrogen_treatment    mixed
_refine_ls_matrix_type           full
_refine_ls_number_parameters     196
_refine_ls_number_reflns         3256
_refine_ls_number_restraints     0
_refine_ls_restrained_S_all      1.109
_refine_ls_R_factor_all          0.0721
_refine_ls_R_factor_gt           0.0435
_refine_ls_shift/su_max          0.049
_refine_ls_shift/su_mean         0.001
_refine_ls_structure_factor_coef Fsqd
_refine_ls_weighting_details
'w=1/[\s^2^(Fo^2^)+(0.0602P)^2^+0.0552P] where P=(Fo^2^+2Fc^2^)/3'
_refine_ls_weighting_scheme      calc
_refine_ls_wR_factor_gt          0.1142
_refine_ls_wR_factor_ref         0.1297
_reflns_Friedel_coverage         0.000
_reflns_Friedel_fraction_full    .
_reflns_Friedel_fraction_max     .
_reflns_number_gt                2127
_reflns_number_total             3256
_reflns_threshold_expression     'I > 2\s(I)'
_cod_data_source_file            ICA-2018-483-464.cif
_cod_data_source_block           3
_cod_database_code               1563880
_shelx_space_group_comment
;
The symmetry employed for this shelxl refinement is uniquely defined
by the following loop, which should always be used as a source of
symmetry information in preference to the above space-group names.
They are only intended as comments.
;
_shelx_estimated_absorpt_t_min   0.748
_shelx_estimated_absorpt_t_max   0.948
_shelx_res_file
;
TITL CCG_FL2_0m in P-1
    shelx.res
    created by SHELXL-2018/1 at 16:18:03 on 05-Feb-2018
CELL  0.71073   5.3817   8.4286  15.1859   88.200   83.616   78.528
ZERR     2.00   0.0003   0.0004   0.0007    0.003    0.002    0.003
LATT   1
SFAC  C    H    N    O    S
UNIT  24 28 4 2 4
MERG   2
HTAB N2 S1_$1
EQIV $1 -x+1, -y+2, -z
HTAB O1 N1
HTAB O1 S2
FMAP   2
PLAN    5
SIZE     0.140   0.196   0.805
ACTA
BOND   $H
CONF
L.S.  15
TEMP    23.00
WGHT    0.060200    0.055200
FVAR       0.22226
S2    5    0.552509    1.079207    0.272794    11.00000    0.05960    0.06608 =
         0.04706   -0.00742   -0.00727    0.01166
S1    5    0.309932    1.153372    0.102709    11.00000    0.06465    0.07067 =
         0.05178   -0.00941   -0.01314    0.01392
C2    1    1.470286    0.647352    0.336793    11.00000    0.06819    0.07566 =
         0.06672   -0.00215   -0.01888   -0.00048
O1    4    1.084362    0.826603    0.327219    11.00000    0.06809    0.08820 =
         0.05565   -0.01911   -0.01403    0.01484
C10   1    0.257771    1.219324    0.306796    11.00000    0.06207    0.06574 =
         0.05070   -0.00815   -0.00104    0.00888
C9    1    0.536924    1.054378    0.160616    11.00000    0.04916    0.04660 =
         0.04938   -0.00273   -0.00357   -0.00359
N2    3    0.731373    0.942612    0.122548    11.00000    0.05295    0.05631 =
         0.04556   -0.00536   -0.00600    0.00303
N1    3    0.914760    0.864183    0.173324    11.00000    0.04836    0.04972 =
         0.04868   -0.00237   -0.00437    0.00002
C7    1    1.098831    0.752567    0.138732    11.00000    0.04743    0.05011 =
         0.05118   -0.00592    0.00012   -0.00501
C6    1    1.292092    0.678313    0.196411    11.00000    0.04632    0.04564 =
         0.05651   -0.00248   -0.00223   -0.00595
C1    1    1.278632    0.718212    0.285842    11.00000    0.05091    0.05271 =
         0.06070   -0.00475   -0.00697   -0.00385
C3    1    1.674044    0.535937    0.300904    11.00000    0.05749    0.07058 =
         0.09265    0.00562   -0.02304    0.00372
C4    1    1.692394    0.493341    0.213680    11.00000    0.05362    0.06528 =
         0.08913   -0.00077   -0.00605    0.00591
C5    1    1.504523    0.562937    0.163081    11.00000    0.05575    0.05576 =
         0.06833   -0.00500   -0.00233   -0.00090
C8    1    1.119363    0.699039    0.045486    11.00000    0.07540    0.11276 =
         0.05726   -0.02321   -0.01071    0.02937
AFIX 137
H8A   2    0.952451    0.696677    0.029551    11.00000   -1.50000
H8B   2    1.223926    0.592676    0.039559    11.00000   -1.50000
H8C   2    1.194981    0.773171    0.007083    11.00000   -1.50000
AFIX   0
C11   1    0.208190    1.214377    0.403413    11.00000    0.12461    0.16662 =
         0.05406   -0.01557   -0.00450    0.07876
AFIX  13
H11   2    0.376561    1.152873    0.414585    11.00000   -1.20000
AFIX   0
C12B  1    0.175434    1.290022    0.463203    10.70000    0.12193    0.17237 =
         0.05939   -0.01966   -0.00435    0.01357
AFIX  93
H12A  2    0.085730    1.258283    0.514444    10.70000   -1.20000
H12B  2    0.237535    1.385504    0.462343    10.70000   -1.20000
AFIX   0
C12A  1    0.108935    1.174058    0.457661    10.30000    0.23176    0.13400 =
         0.04888   -0.03098    0.03437   -0.10912
AFIX  93
H12C  2    0.076470    1.233589    0.509648    10.30000   -1.20000
H12D  2    0.050722    1.077691    0.455235    10.30000   -1.20000
AFIX   0
H3    2    1.800270    0.491512    0.334736    11.00000    0.07151
H4    2    1.845425    0.416091    0.182758    11.00000    0.08275
H5    2    1.517566    0.540299    0.101521    11.00000    0.08179
H2    2    1.452310    0.674388    0.391632    11.00000    0.08484
H2A   2    0.722010    0.926615    0.064267    11.00000    0.06099
H1    2    1.001246    0.853858    0.293577    11.00000    0.07681
H10A  2    0.130535    1.181257    0.279936    11.00000    0.07510
H10B  2    0.281368    1.310857    0.283336    11.00000    0.07748
HKLF    4  1.0  1.00  0.00  0.00  0.00  1.00  0.00  0.00  0.00  1.00




REM  CCG_FL2_0m in P-1
REM R1 =  0.0435 for    2127 Fo > 4sig(Fo)  and  0.0721 for all    3256 data
REM    196 parameters refined using      0 restraints

END

WGHT      0.0629      0.0791

REM Highest difference peak  0.205,  deepest hole -0.296,  1-sigma level  0.048
Q1    1   0.4226  1.2874  0.4142  11.00000  0.05    0.20
Q2    1   0.2224  1.1277  0.4181  11.00000  0.05    0.20
Q3    1   1.2872  0.7003  0.0183  11.00000  0.05    0.19
Q4    1   0.1838  1.0642  0.4240  11.00000  0.05    0.19
Q5    1  -0.0123  1.1242  0.4409  11.00000  0.05    0.18
;
_shelx_res_checksum              93130
_shelx_hkl_file
;
  -1   0   0   46.89    1.20
  -1   0   0   47.90    1.20
  -1   0   0   46.26    1.20
  -1   0   0   46.01    1.26
   1   0   0   45.71    1.20
   1   0   0   46.64    1.20
   1   0   0   47.36    1.26
   1   0   0   47.09    1.29
  -2   0   0    6.21    0.25
  -2   0   0    6.18    0.23
  -2   0   0    6.81    0.27
  -2   0   0    6.19    0.24
   2   0   0    6.27    0.28
   2   0   0    6.39    0.22
   2   0   0    6.41    0.20
   2   0   0    6.27    0.20
   2   0   0    6.00    0.26
   2   0   0    6.28    0.24
  -3   0   0    0.00    0.03
  -3   0   0    0.01    0.03
  -3   0   0    0.04    0.04
  -3   0   0   -0.04    0.03
   3   0   0    0.01    0.04
   3   0   0    0.04    0.02
   3   0   0   -0.02    0.02
   3   0   0    0.00    0.04
   3   0   0    0.06    0.05
   3   0   0   -0.04    0.04
  -4   0   0    3.67    0.21
  -4   0   0    3.52    0.25
   4   0   0    3.37    0.19
   4   0   0    3.64    0.24
   4   0   0    3.36    0.25
   4   0   0    3.87    0.19
   4   0   0    3.42    0.27
   4   0   0    3.81    0.23
   5   0   0   14.23    0.52
   6   0   0    0.10    0.07
   6  -1   0   -0.01    0.07
   5  -1   0    0.96    0.14
   4  -1   0    3.70    0.22
   4  -1   0    3.40    0.24
   4  -1   0    3.94    0.24
  -4   1   0    3.12    0.23
  -4   1   0    3.80    0.25
   3  -1   0   23.16    0.71
   3  -1   0   22.62    0.72
   3  -1   0   21.67    0.69
   3  -1   0   22.71    0.65
  -3   1   0   22.54    0.76
  -3   1   0   22.54    0.72
   2  -1   0    0.36    0.06
   2  -1   0    0.40    0.06
   2  -1   0    0.46    0.05
   2  -1   0    0.40    0.07
   2  -1   0    0.42    0.07
  -2   1   0    0.35    0.06
  -2   1   0    0.34    0.07
   1  -1   0    9.54    0.33
   1  -1   0    9.93    0.31
   1  -1   0    8.79    0.28
   1  -1   0    9.57    0.31
   1  -1   0    9.12    0.33
  -1   1   0    9.53    0.33
  -1   1   0    9.16    0.28
   0  -1   0   53.56    1.39
   0  -1   0   54.14    1.34
   0  -1   0   53.00    1.23
   0  -1   0   54.26    1.45
   0  -1   0   50.52    1.35
   0  -1   0   54.11    1.39
   0  -1   0   52.92    1.43
   0  -1   0   53.26    1.46
   0  -1   0   52.63    1.33
   0   1   0   52.92    1.45
   0   1   0   55.84    1.46
   0   1   0   51.28    1.33
   0   1   0   54.97    1.44
  -1  -1   0   14.22    0.43
  -1  -1   0   13.73    0.44
  -1  -1   0   13.67    0.40
  -1  -1   0   13.82    0.43
  -1  -1   0   14.15    0.43
  -1  -1   0   13.91    0.40
   1   1   0   13.49    0.43
   1   1   0   13.71    0.40
   1   1   0   14.34    0.43
   1   1   0   13.91    0.43
   1   1   0   13.97    0.42
   1   1   0   14.32    0.40
  -2  -1   0   12.26    0.44
  -2  -1   0   12.22    0.43
  -2  -1   0   12.33    0.43
  -2  -1   0   12.23    0.40
   2   1   0   12.00    0.43
   2   1   0   11.93    0.43
   2   1   0   11.76    0.42
  -3  -1   0   10.77    0.40
  -3  -1   0   13.60    0.51
  -3  -1   0   13.50    0.48
   3   1   0   13.95    0.50
   3   1   0   14.20    0.51
   3   1   0   13.81    0.51
   3   1   0   13.07    0.51
  -4  -1   0    0.99    0.16
  -4  -1   0    1.41    0.18
  -4  -1   0    0.93    0.10
  -4  -1   0    1.34    0.18
   4   1   0    1.14    0.17
   4   1   0    1.05    0.16
   4   1   0    1.34    0.08
   4   1   0    1.04    0.08
   4   1   0    1.25    0.18
   4   1   0    1.17    0.17
  -5  -1   0    0.49    0.08
  -5  -1   0    0.54    0.16
   5   1   0    0.57    0.09
   6   1   0    1.50    0.16
   7   1   0    0.06    0.08
   6  -2   0   -0.01    0.07
   5  -2   0    0.04    0.07
   4  -2   0   19.82    0.80
   4  -2   0   18.68    0.69
   3  -2   0   22.55    0.76
   3  -2   0   23.59    0.85
   3  -2   0   23.07    0.72
   3  -2   0   23.99    0.79
  -3   2   0   21.93    0.82
  -3   2   0   23.92    0.73
   2  -2   0   13.46    0.51
   2  -2   0   13.88    0.49
   2  -2   0   13.72    0.53
   2  -2   0   13.01    0.47
   2  -2   0   13.34    0.42
  -2   2   0   13.35    0.52
  -2   2   0   13.46    0.43
   1  -2   0    2.54    0.16
   1  -2   0    2.24    0.16
   1  -2   0    2.68    0.15
   1  -2   0    2.55    0.16
   1  -2   0    2.43    0.11
   1  -2   0    2.75    0.12
   1  -2   0    2.77    0.16
  -1   2   0    2.54    0.17
  -1   2   0    2.25    0.16
  -1   2   0    2.65    0.11
  -1   2   0    2.71    0.12
  -1   2   0    2.65    0.15
   0  -2   0   21.78    0.67
   0  -2   0   22.73    0.70
   0  -2   0   21.38    0.62
   0  -2   0   22.34    0.55
   0  -2   0   21.34    0.62
   0  -2   0   20.69    0.67
   0  -2   0   22.63    0.64
   0  -2   0   21.50    0.64
   0  -2   0   22.14    0.61
   0   2   0   22.14    0.68
   0   2   0   22.01    0.55
   0   2   0   22.70    0.70
   0   2   0   22.60    0.61
   0   2   0   21.31    0.68
  -1  -2   0  340.39    8.29
  -1  -2   0  332.79    8.76
  -1  -2   0  332.82    8.29
  -1  -2   0  328.62    8.37
  -1  -2   0  323.79    8.91
  -1  -2   0  323.74    8.26
  -1  -2   0  357.93    8.93
   1   2   0  332.13    8.91
   1   2   0  338.17    8.29
   1   2   0  352.65    8.93
   1   2   0  344.67    8.77
   1   2   0  346.00    8.38
   1   2   0  338.55    8.30
   1   2   0  337.87    8.91
   1   2   0  321.09    8.57
   1   2   0  331.59    8.56
  -2  -2   0   13.88    0.51
  -2  -2   0   14.49    0.51
  -2  -2   0   13.27    0.46
  -2  -2   0   14.60    0.51
  -2  -2   0   14.40    0.44
  -2  -2   0   13.90    0.51
   2   2   0   14.29    0.50
   2   2   0   14.12    0.52
   2   2   0   14.11    0.39
   2   2   0   14.39    0.43
   2   2   0   14.31    0.51
   2   2   0   14.32    0.43
   2   2   0   14.56    0.43
   2   2   0   14.91    0.53
   2   2   0   14.45    0.39
  -3  -2   0   10.57    0.44
  -3  -2   0    9.35    0.42
  -3  -2   0    9.60    0.38
  -3  -2   0    9.63    0.42
   3   2   0    9.67    0.42
   3   2   0    8.97    0.43
   3   2   0    9.65    0.43
   3   2   0    8.56    0.41
  -4  -2   0    5.67    0.31
  -4  -2   0    5.58    0.35
  -4  -2   0    5.72    0.19
  -4  -2   0    5.69    0.34
   4   2   0    6.44    0.36
   4   2   0    5.27    0.35
   4   2   0    5.14    0.17
   4   2   0    5.29    0.32
   4   2   0    6.23    0.35
   4   2   0    5.56    0.17
  -5  -2   0    1.45    0.20
   5   2   0    1.23    0.09
   5   2   0    1.22    0.10
   6   2   0    0.40    0.09
   7   2   0    0.01    0.07
   6  -3   0   -0.06    0.08
   5  -3   0    0.00    0.06
   5  -3   0    0.00    0.09
   4  -3   0   17.48    0.69
   4  -3   0   16.60    0.74
   4  -3   0   17.82    0.73
   3  -3   0   20.20    0.80
   3  -3   0   20.97    0.64
   3  -3   0   21.04    0.74
   3  -3   0   19.61    0.75
  -3   3   0   21.46    0.82
  -3   3   0   20.24    0.65
   2  -3   0   16.69    0.48
   2  -3   0   16.11    0.63
   2  -3   0   15.63    0.49
   2  -3   0   15.88    0.63
   2  -3   0   15.10    0.58
   2  -3   0   16.05    0.58
  -2   3   0   16.17    0.64
  -2   3   0   16.09    0.51
   1  -3   0    0.07    0.05
   1  -3   0    0.09    0.05
   1  -3   0    0.27    0.05
   1  -3   0    0.17    0.07
   1  -3   0    0.22    0.04
   1  -3   0    0.13    0.06
   1  -3   0    0.23    0.06
   1  -3   0    0.21    0.04
  -1   3   0    0.04    0.05
  -1   3   0    0.19    0.05
  -1   3   0    0.15    0.03
  -1   3   0    0.18    0.06
  -1   3   0    0.21    0.05
  -1   3   0    0.18    0.07
   0  -3   0   34.92    1.10
   0  -3   0   34.19    0.98
   0  -3   0   35.08    1.08
   0  -3   0   34.92    1.01
   0  -3   0   33.57    1.01
   0  -3   0   35.34    0.97
   0  -3   0   34.23    1.06
   0  -3   0   35.32    0.98
   0  -3   0   35.82    0.86
   0   3   0   34.80    0.88
   0   3   0   34.56    1.08
   0   3   0   35.39    0.96
   0   3   0   35.67    1.07
  -1  -3   0   31.83    0.86
  -1  -3   0   28.91    0.89
  -1  -3   0   29.61    0.92
  -1  -3   0   30.65    0.90
  -1  -3   0   28.24    0.87
  -1  -3   0   29.30    0.93
   1   3   0   29.79    0.92
   1   3   0   29.02    0.87
   1   3   0   29.39    0.87
   1   3   0   29.22    0.88
   1   3   0   28.69    0.89
   1   3   0   30.30    0.90
   1   3   0   28.96    0.91
   1   3   0   29.71    0.88
  -2  -3   0    0.69    0.10
  -2  -3   0    0.63    0.11
  -2  -3   0    0.70    0.11
  -2  -3   0    0.94    0.13
  -2  -3   0    0.81    0.13
   2   3   0    0.72    0.11
   2   3   0    0.80    0.08
   2   3   0    0.71    0.11
   2   3   0    0.85    0.13
   2   3   0    0.72    0.09
   2   3   0    0.62    0.08
   2   3   0    0.76    0.12
   2   3   0    0.69    0.08
   2   3   0    0.72    0.09
  -3  -3   0    0.79    0.08
  -3  -3   0    0.47    0.10
  -3  -3   0    0.65    0.13
  -3  -3   0    0.51    0.12
  -3  -3   0    0.78    0.13
   3   3   0    0.78    0.09
   3   3   0    0.67    0.07
   3   3   0    0.76    0.12
   3   3   0    0.65    0.05
   3   3   0    0.69    0.14
   3   3   0    0.41    0.10
   3   3   0    0.57    0.06
   3   3   0    0.53    0.13
   3   3   0    0.67    0.05
  -4  -3   0    5.76    0.37
  -4  -3   0    6.22    0.37
  -4  -3   0    6.28    0.33
  -4  -3   0    5.83    0.36
   4   3   0    5.77    0.21
   4   3   0    5.54    0.21
   4   3   0    6.05    0.38
   4   3   0    5.76    0.35
   4   3   0    5.77    0.34
  -5  -3   0    3.22    0.31
  -5  -3   0    3.00    0.33
   5   3   0    2.98    0.15
   5   3   0    2.86    0.15
   6   3   0    0.01    0.05
   7   3   0    0.13    0.08
   5  -4   0    0.22    0.14
   5  -4   0    0.25    0.13
   4  -4   0    0.32    0.13
   4  -4   0    0.58    0.14
   4  -4   0    0.35    0.14
   3  -4   0    1.37    0.21
   3  -4   0    1.39    0.20
   3  -4   0    1.62    0.24
   2  -4   0    2.85    0.22
   2  -4   0    3.16    0.25
   2  -4   0    2.79    0.15
   2  -4   0    2.70    0.22
   2  -4   0    3.21    0.25
   2  -4   0    2.96    0.17
  -2   4   0    2.87    0.13
  -2   4   0    2.85    0.17
  -2   4   0    2.79    0.29
   1  -4   0   10.33    0.34
   1  -4   0    9.89    0.46
   1  -4   0    9.91    0.36
   1  -4   0    9.82    0.34
   1  -4   0   10.00    0.48
   1  -4   0    9.96    0.43
   1  -4   0   10.42    0.43
   1  -4   0   10.08    0.46
  -1   4   0    9.96    0.36
  -1   4   0    9.89    0.48
  -1   4   0   10.22    0.35
  -1   4   0   10.45    0.46
  -1   4   0    9.93    0.48
  -1   4   0   10.21    0.34
   0  -4   0    2.24    0.16
   0  -4   0    1.91    0.20
   0  -4   0    2.16    0.12
   0  -4   0    2.22    0.15
   0  -4   0    2.06    0.16
   0  -4   0    2.02    0.17
   0  -4   0    2.60    0.25
   0  -4   0    1.92    0.15
   0   4   0    2.32    0.19
   0   4   0    2.23    0.22
   0   4   0    2.24    0.13
   0   4   0    2.19    0.18
   0   4   0    1.99    0.14
  -1  -4   0   34.71    1.03
  -1  -4   0   34.35    1.12
  -1  -4   0   34.88    1.02
  -1  -4   0   35.90    0.83
  -1  -4   0   34.88    1.09
  -1  -4   0   35.34    1.04
  -1  -4   0   34.65    1.07
   1   4   0   36.77    1.14
   1   4   0   35.27    1.04
   1   4   0   34.75    1.09
   1   4   0   33.71    1.07
   1   4   0   33.50    1.11
   1   4   0   35.86    1.12
   1   4   0   33.59    1.05
   1   4   0   36.72    0.89
   1   4   0   34.93    1.10
  -2  -4   0   38.44    1.14
  -2  -4   0   39.91    1.22
  -2  -4   0   36.55    1.23
  -2  -4   0   37.86    1.15
  -2  -4   0   38.94    1.19
   2   4   0   39.60    1.12
   2   4   0   39.74    1.19
   2   4   0   37.91    1.15
   2   4   0   36.79    1.19
   2   4   0   38.48    1.21
   2   4   0   40.17    1.18
   2   4   0   40.09    1.19
   2   4   0   38.25    1.22
  -3  -4   0    0.78    0.15
  -3  -4   0    0.76    0.15
  -3  -4   0    1.13    0.18
  -3  -4   0    1.00    0.15
   3   4   0    1.11    0.11
   3   4   0    0.79    0.11
   3   4   0    1.13    0.17
   3   4   0    0.96    0.17
   3   4   0    0.81    0.11
   3   4   0    0.81    0.10
   3   4   0    1.00    0.15
  -4  -4   0    0.19    0.10
  -4  -4   0    0.23    0.09
  -4  -4   0    0.12    0.09
   4   4   0    0.16    0.05
   4   4   0    0.12    0.05
  -5  -4   0    0.87    0.17
   5   4   0    0.54    0.10
   6   4   0    0.86    0.12
   5  -5   0   -0.05    0.12
   5  -5   0    0.10    0.10
   4  -5   0   -0.01    0.09
   4  -5   0    0.03    0.09
   3  -5   0    1.81    0.26
   3  -5   0    1.84    0.19
   3  -5   0    1.94    0.25
   3  -5   0    2.07    0.27
  -3   5   0    2.33    0.30
   2  -5   0    0.35    0.11
   2  -5   0    0.62    0.14
   2  -5   0    0.58    0.09
   2  -5   0    0.39    0.12
   2  -5   0    0.52    0.10
  -2   5   0    0.58    0.10
  -2   5   0    0.56    0.08
   1  -5   0    0.61    0.13
   1  -5   0    0.43    0.13
   1  -5   0    0.46    0.08
   1  -5   0    0.44    0.09
   1  -5   0    0.41    0.11
   1  -5   0    0.46    0.13
   1  -5   0    0.41    0.08
  -1   5   0    0.47    0.12
  -1   5   0    0.49    0.09
  -1   5   0    0.38    0.08
  -1   5   0    0.60    0.15
  -1   5   0    0.56    0.10
  -1   5   0    0.69    0.15
   0  -5   0   13.81    0.51
   0  -5   0   13.44    0.60
   0  -5   0   14.36    0.43
   0  -5   0   13.73    0.52
   0  -5   0   13.39    0.58
   0  -5   0   13.38    0.58
   0  -5   0   14.23    0.54
   0  -5   0   13.47    0.54
   0   5   0   13.23    0.60
   0   5   0   13.32    0.49
   0   5   0   13.19    0.45
  -1  -5   0   11.83    0.54
  -1  -5   0   11.42    0.51
  -1  -5   0   11.48    0.46
  -1  -5   0   11.63    0.49
  -1  -5   0   11.77    0.51
  -1  -5   0   12.45    0.34
  -1  -5   0   12.23    0.50
   1   5   0   12.50    0.40
   1   5   0   11.67    0.53
   1   5   0   12.59    0.52
   1   5   0   12.87    0.54
   1   5   0   12.22    0.52
   1   5   0   12.54    0.49
   1   5   0   12.05    0.51
  -2  -5   0   -0.02    0.05
  -2  -5   0    0.04    0.06
  -2  -5   0    0.12    0.07
  -2  -5   0    0.02    0.05
  -2  -5   0    0.04    0.05
   2   5   0   -0.02    0.03
   2   5   0   -0.03    0.05
   2   5   0    0.00    0.06
   2   5   0    0.06    0.05
   2   5   0    0.14    0.08
   2   5   0    0.00    0.05
   2   5   0    0.03    0.06
  -3  -5   0    1.22    0.19
  -3  -5   0    1.58    0.20
  -3  -5   0    1.64    0.23
   3   5   0    1.37    0.16
   3   5   0    1.63    0.18
   3   5   0    1.55    0.24
   3   5   0    1.90    0.19
   3   5   0    2.12    0.25
  -4  -5   0    0.01    0.09
  -4  -5   0   -0.11    0.06
  -4  -5   0    0.08    0.08
   4   5   0    0.08    0.07
   5   5   0    0.51    0.11
   6   5   0    0.00    0.07
   5  -6   0    0.12    0.14
   5  -6   0    0.30    0.17
   5  -6   0    0.38    0.20
   4  -6   0    0.50    0.18
   4  -6   0    0.60    0.18
   3  -6   0    0.78    0.19
   3  -6   0    0.68    0.18
   3  -6   0    0.83    0.15
   2  -6   0    2.76    0.20
   2  -6   0    3.40    0.33
   2  -6   0    3.46    0.34
   2  -6   0    2.63    0.29
   2  -6   0    3.12    0.34
  -2   6   0    3.08    0.35
  -2   6   0    2.47    0.17
   1  -6   0    3.65    0.27
   1  -6   0    3.38    0.26
   1  -6   0    3.34    0.28
   1  -6   0    3.12    0.30
   1  -6   0    2.82    0.20
   1  -6   0    3.09    0.19
  -1   6   0    3.13    0.21
  -1   6   0    3.33    0.22
  -1   6   0    3.45    0.34
  -1   6   0    3.25    0.21
  -1   6   0    4.03    0.34
   0  -6   0    0.07    0.04
   0  -6   0    0.06    0.08
   0  -6   0    0.04    0.06
   0  -6   0    0.03    0.07
   0  -6   0    0.13    0.08
   0  -6   0    0.01    0.05
   0  -6   0    0.06    0.06
   0   6   0    0.00    0.05
   0   6   0    0.06    0.08
   0   6   0    0.00    0.07
   0   6   0    0.01    0.05
   0   6   0    0.09    0.07
   0   6   0    0.04    0.06
  -1  -6   0    1.46    0.22
  -1  -6   0    1.68    0.22
  -1  -6   0    2.10    0.24
  -1  -6   0    2.23    0.24
  -1  -6   0    1.58    0.10
  -1  -6   0    1.83    0.22
   1   6   0    1.60    0.16
   1   6   0    1.65    0.19
   1   6   0    1.73    0.23
   1   6   0    1.75    0.23
   1   6   0    1.52    0.20
  -2  -6   0    5.74    0.35
  -2  -6   0    5.21    0.36
  -2  -6   0    5.65    0.34
  -2  -6   0    5.11    0.35
  -2  -6   0    5.14    0.32
   2   6   0    5.04    0.34
   2   6   0    5.96    0.35
   2   6   0    5.30    0.36
  -3  -6   0   13.11    0.63
  -3  -6   0   11.78    0.54
  -3  -6   0   11.33    0.60
   3   6   0   12.32    0.55
  -4  -6   0    0.05    0.09
  -4  -6   0    0.22    0.12
   4   6   0    0.05    0.07
   5   6   0    0.11    0.09
   6   6   0    0.05    0.09
   4  -7   0    0.13    0.15
   4  -7   0    0.19    0.15
   4  -7   0    0.35    0.16
   3  -7   0    0.65    0.13
   3  -7   0    1.01    0.21
   3  -7   0    1.07    0.22
   3  -7   0    0.89    0.21
   2  -7   0    2.56    0.23
   2  -7   0    3.05    0.34
   2  -7   0    2.49    0.32
   2  -7   0    3.11    0.35
  -2   7   0    2.60    0.34
  -2   7   0    2.64    0.19
   1  -7   0    4.95    0.39
   1  -7   0    4.53    0.34
   1  -7   0    4.65    0.34
   1  -7   0    4.85    0.26
  -1   7   0    5.28    0.42
  -1   7   0    4.74    0.28
   0  -7   0    0.27    0.10
   0  -7   0    0.19    0.09
   0  -7   0    0.13    0.08
   0  -7   0    0.21    0.06
   0  -7   0    0.08    0.09
   0   7   0    0.09    0.09
   0   7   0    0.05    0.07
   0   7   0    0.29    0.13
   0   7   0    0.11    0.09
   0   7   0    0.16    0.08
  -1  -7   0    1.17    0.21
  -1  -7   0    1.23    0.20
  -1  -7   0    0.87    0.17
  -1  -7   0    1.11    0.20
  -1  -7   0    0.87    0.09
   1   7   0    0.73    0.16
   1   7   0    0.89    0.18
   1   7   0    0.62    0.13
   1   7   0    0.96    0.14
  -2  -7   0    0.18    0.11
  -2  -7   0    0.33    0.11
  -2  -7   0    0.31    0.13
   2   7   0    0.20    0.11
  -3  -7   0    0.58    0.15
  -3  -7   0    0.86    0.19
   3   7   0    0.64    0.16
  -4  -7   0    0.02    0.10
  -4  -7   0    0.05    0.12
   4   7   0   -0.01    0.06
   5   7   0    0.06    0.09
   6   7   0   -0.06    0.09
   3  -8   0    0.93    0.23
   3  -8   0    0.56    0.20
   3  -8   0    0.85    0.16
   2  -8   0    2.51    0.33
   2  -8   0    1.89    0.21
  -2   8   0    1.67    0.19
   1  -8   0    4.03    0.25
   1  -8   0    4.49    0.35
  -1   8   0    3.60    0.26
   0  -8   0    1.35    0.23
   0  -8   0    1.37    0.15
   0   8   0    1.76    0.29
   0   8   0    1.53    0.20
  -1  -8   0    0.24    0.11
  -1  -8   0    0.44    0.07
  -1  -8   0    0.33    0.12
   1   8   0    0.48    0.16
   1   8   0    0.61    0.13
  -2  -8   0    0.04    0.08
   2   8   0    0.15    0.12
  -3  -8   0    0.02    0.09
   3   8   0    0.00    0.09
  -4  -8   0    0.26    0.13
   4   8   0    0.18    0.13
   5   8   0    0.02    0.10
   3  -9   0    0.04    0.12
   2  -9   0   -0.02    0.11
   2  -9   0    0.04    0.09
  -2   9   0    0.01    0.09
   1  -9   0    0.80    0.20
   1  -9   0    0.88    0.15
  -1   9   0    0.71    0.16
   0  -9   0    0.82    0.13
   0  -9   0    0.75    0.20
   0   9   0    0.53    0.14
  -1  -9   0    0.17    0.05
  -1  -9   0    0.29    0.12
   1   9   0    0.20    0.16
   1   9   0    0.17    0.10
  -2  -9   0    0.53    0.18
   2   9   0    0.76    0.21
  -3  -9   0   -0.03    0.11
   3   9   0   -0.01    0.09
  -4  -9   0    0.10    0.15
   4   9   0   -0.15    0.12
   5   9   0   -0.05    0.12
   1 -10   0    0.04    0.12
   1 -10   0   -0.05    0.06
  -1  10   0    0.11    0.10
   0 -10   0    0.60    0.11
   0 -10   0    0.41    0.16
   0  10   0    0.63    0.17
  -1 -10   0    0.00    0.10
   1  10   0    0.00    0.10
  -2 -10   0    0.05    0.13
   2  10   0    0.16    0.17
   2  10   0   -0.05    0.11
  -3 -10   0    0.12    0.15
   3  10   0    0.03    0.13
   4  10   0   -0.12    0.14
  -1 -11   0    0.10    0.15
   1  11   0   -0.04    0.11
  -2 -11   0   -0.24    0.13
   2  11   0    0.11    0.18
   2  11   0    0.05    0.13
   2  11  -1   -0.06    0.13
  -2 -11   1    0.05    0.15
   1  11  -1    0.12    0.13
  -1 -11   1    0.44    0.20
   4  10  -1    0.07    0.16
   3  10  -1    0.01    0.13
  -3 -10   1   -0.13    0.11
   2  10  -1    0.07    0.11
   2  10  -1   -0.11    0.12
  -2 -10   1    0.21    0.13
   1  10  -1    0.42    0.15
  -1 -10   1    0.53    0.17
   0  10  -1    1.23    0.22
   0 -10   1    1.42    0.16
   0 -10   1    1.48    0.28
  -1  10  -1    0.14    0.11
   1 -10   1    0.10    0.13
   1 -10   1    0.15    0.09
   5   9  -1    0.03    0.13
   4   9  -1    0.03    0.13
   3   9  -1    0.05    0.12
  -3  -9   1    0.14    0.13
   2   9  -1    0.06    0.14
  -2  -9   1    0.20    0.13
   1   9  -1    0.25    0.16
   1   9  -1    0.10    0.10
  -1  -9   1    0.02    0.10
  -1  -9   1    0.19    0.05
   0   9  -1    1.48    0.21
   0  -9   1    1.22    0.15
   0  -9   1    1.06    0.23
  -1   9  -1    0.54    0.14
   1  -9   1    0.51    0.13
   1  -9   1    0.60    0.18
  -2   9  -1    0.06    0.09
   2  -9   1   -0.06    0.07
   2  -9   1    0.11    0.12
   3  -9   1   -0.01    0.14
   5   8  -1   -0.06    0.10
   4   8  -1    2.19    0.30
  -4  -8   1    2.15    0.30
   3   8  -1    1.03    0.22
  -3  -8   1    0.69    0.18
   2   8  -1    0.22    0.13
  -2  -8   1    0.00    0.09
  -2  -8   1    0.22    0.12
   1   8  -1    0.09    0.08
   1   8  -1    0.15    0.13
  -1  -8   1    0.17    0.10
  -1  -8   1    0.06    0.10
  -1  -8   1    0.08    0.04
   0   8  -1    0.29    0.10
   0  -8   1    0.16    0.07
   0  -8   1    0.34    0.14
  -1   8  -1    1.85    0.21
   1  -8   1    2.36    0.32
   1  -8   1    1.82    0.19
  -2   8  -1    0.04    0.07
   2  -8   1    0.03    0.09
   2  -8   1   -0.01    0.07
   3  -8   1    0.00    0.09
   3  -8   1    0.04    0.10
   3  -8   1    0.02    0.10
   6   7  -1   -0.05    0.10
   5   7  -1   -0.15    0.07
   4   7  -1    0.51    0.14
  -4  -7   1    0.42    0.17
  -4  -7   1    0.48    0.16
   3   7  -1    0.02    0.08
  -3  -7   1    0.16    0.12
  -3  -7   1    0.02    0.08
   2   7  -1    1.44    0.23
  -2  -7   1    1.83    0.27
  -2  -7   1    1.48    0.24
  -2  -7   1    1.75    0.24
   1   7  -1    1.91    0.24
   1   7  -1    1.54    0.24
   1   7  -1    1.36    0.20
   1   7  -1    1.67    0.19
  -1  -7   1    1.58    0.23
  -1  -7   1    2.01    0.26
  -1  -7   1    1.76    0.26
  -1  -7   1    1.49    0.22
  -1  -7   1    1.50    0.12
   0   7  -1    0.36    0.10
   0   7  -1    0.14    0.10
   0   7  -1    0.12    0.08
   0   7  -1    0.19    0.09
   0  -7   1    0.27    0.10
   0  -7   1    0.21    0.09
   0  -7   1    0.32    0.13
   0  -7   1    0.22    0.07
   0  -7   1    0.21    0.11
  -1   7  -1    0.66    0.13
  -1   7  -1    0.88    0.22
   1  -7   1    0.59    0.17
   1  -7   1    0.91    0.19
   1  -7   1    0.74    0.16
   1  -7   1    0.45    0.10
  -2   7  -1    1.73    0.18
  -2   7  -1    2.36    0.34
   2  -7   1    1.78    0.19
   2  -7   1    2.56    0.32
   2  -7   1    2.08    0.28
   3  -7   1   -0.03    0.07
   3  -7   1    0.14    0.10
   3  -7   1    0.00    0.08
   4  -7   1   -0.06    0.11
   4  -7   1   -0.05    0.11
   4  -7   1   -0.03    0.12
   6   6  -1    0.20    0.11
   5   6  -1   -0.02    0.08
   4   6  -1    0.12    0.08
  -4  -6   1   -0.04    0.09
  -4  -6   1    0.00    0.08
   3   6  -1    2.36    0.26
  -3  -6   1    2.46    0.26
  -3  -6   1    2.32    0.28
  -3  -6   1    2.01    0.29
   2   6  -1    4.32    0.31
   2   6  -1    5.22    0.24
   2   6  -1    5.37    0.36
   2   6  -1    4.74    0.33
  -2  -6   1    5.07    0.34
  -2  -6   1    4.66    0.33
  -2  -6   1    5.01    0.31
  -2  -6   1    4.55    0.33
   1   6  -1    0.04    0.08
   1   6  -1    0.31    0.12
   1   6  -1    0.16    0.08
   1   6  -1    0.39    0.08
   1   6  -1    0.26    0.09
   1   6  -1    0.26    0.09
  -1  -6   1    0.33    0.11
  -1  -6   1    0.46    0.11
  -1  -6   1    0.27    0.10
  -1  -6   1    0.28    0.11
  -1  -6   1    0.33    0.05
  -1  -6   1    0.22    0.08
   0   6  -1    6.47    0.30
   0   6  -1    6.57    0.32
   0   6  -1    6.43    0.40
   0   6  -1    6.54    0.42
   0  -6   1    6.16    0.34
   0  -6   1    6.45    0.36
   0  -6   1    6.39    0.40
   0  -6   1    6.55    0.33
   0  -6   1    6.71    0.27
   0  -6   1    6.45    0.36
   0  -6   1    6.98    0.41
  -1   6  -1    6.89    0.46
  -1   6  -1    7.18    0.33
  -1   6  -1    6.72    0.32
  -1   6  -1    6.79    0.32
  -1   6  -1    6.52    0.33
  -1   6  -1    6.75    0.43
   1  -6   1    7.81    0.33
   1  -6   1    7.25    0.40
   1  -6   1    5.84    0.29
   1  -6   1    7.51    0.33
   1  -6   1    7.38    0.44
   1  -6   1    7.50    0.40
  -2   6  -1    1.45    0.15
  -2   6  -1    1.09    0.23
   2  -6   1    1.11    0.20
   2  -6   1    1.24    0.15
   2  -6   1    1.39    0.23
   2  -6   1    1.19    0.20
   2  -6   1    1.40    0.22
   3  -6   1   -0.03    0.07
   3  -6   1    0.00    0.09
   3  -6   1    0.13    0.07
   3  -6   1    0.10    0.09
   4  -6   1    0.43    0.16
   4  -6   1    0.68    0.20
   4  -6   1    0.43    0.15
   5  -6   1    2.21    0.34
   5  -6   1    1.37    0.28
   5  -6   1    1.56    0.30
   6   5  -1    0.05    0.08
   5   5  -1    0.45    0.11
   4   5  -1    0.09    0.07
  -4  -5   1    0.13    0.10
  -4  -5   1    0.22    0.10
  -4  -5   1    0.15    0.11
   3   5  -1    0.63    0.11
   3   5  -1    0.37    0.09
  -3  -5   1    0.37    0.12
  -3  -5   1    0.22    0.09
  -3  -5   1    0.38    0.11
   2   5  -1    6.32    0.23
   2   5  -1    6.61    0.36
   2   5  -1    5.80    0.33
   2   5  -1    5.68    0.33
   2   5  -1    5.97    0.34
   2   5  -1    5.91    0.36
  -2  -5   1    5.46    0.34
  -2  -5   1    6.54    0.38
  -2  -5   1    6.66    0.33
  -2  -5   1    6.09    0.32
  -2  -5   1    6.21    0.36
   1   5  -1    3.65    0.24
   1   5  -1    3.51    0.25
   1   5  -1    3.19    0.18
   1   5  -1    3.76    0.26
   1   5  -1    3.42    0.26
   1   5  -1    3.59    0.24
   1   5  -1    3.79    0.26
  -1  -5   1    3.35    0.24
  -1  -5   1    3.00    0.24
  -1  -5   1    3.64    0.23
  -1  -5   1    3.72    0.25
  -1  -5   1    3.44    0.23
  -1  -5   1    3.72    0.22
  -1  -5   1    3.40    0.14
   0   5  -1   -0.02    0.06
   0   5  -1    0.02    0.04
   0   5  -1   -0.03    0.04
   0   5  -1   -0.03    0.05
   0   5  -1    0.00    0.04
   0   5  -1   -0.02    0.04
   0   5  -1   -0.02    0.06
   0  -5   1    0.00    0.05
   0  -5   1    0.04    0.04
   0  -5   1   -0.05    0.05
   0  -5   1   -0.04    0.03
   0  -5   1   -0.01    0.04
   0  -5   1   -0.02    0.04
   0  -5   1   -0.03    0.03
  -1   5  -1   26.89    0.78
  -1   5  -1   25.39    0.94
  -1   5  -1   25.90    0.76
  -1   5  -1   26.24    0.79
  -1   5  -1   26.37    0.99
  -1   5  -1   27.94    1.01
   1  -5   1   25.85    0.79
   1  -5   1   25.58    0.79
   1  -5   1   25.28    0.88
   1  -5   1   25.76    0.96
   1  -5   1   26.37    0.74
  -2   5  -1   18.14    0.58
  -2   5  -1   18.08    0.79
  -2   5  -1   18.23    0.53
   2  -5   1   17.28    0.57
   2  -5   1   18.52    0.72
   2  -5   1   18.25    0.72
   2  -5   1   17.86    0.72
   2  -5   1   18.84    0.78
   2  -5   1   18.40    0.56
  -3   5  -1   12.30    0.64
   3  -5   1   11.49    0.58
   3  -5   1   12.39    0.63
   3  -5   1   11.96    0.58
   4  -5   1    0.08    0.10
   4  -5   1    0.03    0.10
   5  -5   1   -0.04    0.09
   5  -5   1    0.08    0.13
   6   4  -1    0.04    0.06
   5   4  -1    0.83    0.13
   4   4  -1    0.38    0.08
  -4  -4   1    0.29    0.11
  -4  -4   1    0.26    0.11
  -4  -4   1    0.46    0.08
  -4  -4   1    0.36    0.11
   3   4  -1    3.61    0.20
   3   4  -1    2.99    0.19
   3   4  -1    3.16    0.18
   3   4  -1    3.37    0.32
   3   4  -1    3.12    0.20
   3   4  -1    3.06    0.22
   3   4  -1    2.88    0.27
  -3  -4   1    3.12    0.31
  -3  -4   1    2.84    0.19
  -3  -4   1    2.80    0.23
  -3  -4   1    3.04    0.29
  -3  -4   1    2.91    0.20
   2   4  -1  108.14    2.96
   2   4  -1  106.00    3.06
   2   4  -1  104.02    2.92
   2   4  -1  113.03    2.92
   2   4  -1  111.27    2.91
   2   4  -1  109.09    3.01
   2   4  -1  111.30    3.06
  -2  -4   1  109.42    2.91
  -2  -4   1  109.98    3.06
  -2  -4   1  106.58    2.91
  -2  -4   1  112.43    2.85
  -2  -4   1  103.52    3.08
  -2  -4   1  114.25    2.97
   1   4  -1    3.56    0.23
   1   4  -1    3.30    0.23
   1   4  -1    3.32    0.15
   1   4  -1    3.53    0.22
   1   4  -1    3.30    0.22
   1   4  -1    3.54    0.23
   1   4  -1    3.58    0.21
   1   4  -1    3.13    0.22
  -1  -4   1    2.86    0.20
  -1  -4   1    3.56    0.23
  -1  -4   1    3.20    0.21
  -1  -4   1    3.22    0.19
  -1  -4   1    3.86    0.21
  -1  -4   1    3.70    0.23
  -1  -4   1    3.15    0.12
   0   4  -1   -0.01    0.04
   0   4  -1    0.05    0.04
   0   4  -1    0.04    0.04
   0   4  -1    0.04    0.03
   0   4  -1    0.03    0.03
   0   4  -1   -0.01    0.03
   0   4  -1    0.08    0.06
   0   4  -1    0.03    0.04
   0   4  -1   -0.05    0.03
   0  -4   1    0.04    0.04
   0  -4   1    0.04    0.04
   0  -4   1    0.09    0.04
   0  -4   1    0.22    0.07
   0  -4   1    0.03    0.03
   0  -4   1    0.08    0.06
   0  -4   1    0.06    0.04
  -1   4  -1    5.16    0.22
  -1   4  -1    5.06    0.31
  -1   4  -1    5.42    0.33
  -1   4  -1    5.08    0.32
  -1   4  -1    4.77    0.21
  -1   4  -1    5.18    0.30
  -1   4  -1    5.16    0.22
   1  -4   1    5.08    0.28
   1  -4   1    4.68    0.29
   1  -4   1    5.03    0.22
   1  -4   1    4.56    0.20
   1  -4   1    5.06    0.22
   1  -4   1    4.84    0.27
   1  -4   1    5.23    0.28
   1  -4   1    5.38    0.31
  -2   4  -1   33.00    0.90
  -2   4  -1   31.32    0.80
  -2   4  -1   31.33    0.79
  -2   4  -1   34.18    1.14
  -2   4  -1   31.73    1.13
   2  -4   1   31.47    0.87
   2  -4   1   32.58    1.05
   2  -4   1   31.96    0.88
   2  -4   1   32.10    1.05
   2  -4   1   32.95    1.13
  -3   4  -1   32.50    1.18
   3  -4   1   33.89    1.11
   3  -4   1   31.75    1.11
   3  -4   1   32.31    1.18
   4  -4   1    0.12    0.10
   4  -4   1    0.08    0.08
   4  -4   1    0.10    0.10
   5  -4   1    0.03    0.11
   5  -4   1    0.07    0.10
   6  -4   1   -0.02    0.14
   6   3  -1    0.07    0.07
   5   3  -1    0.04    0.05
  -5  -3   1    0.05    0.04
  -5  -3   1    0.17    0.11
   4   3  -1    0.12    0.08
   4   3  -1    0.14    0.04
   4   3  -1    0.06    0.04
   4   3  -1    0.14    0.08
  -4  -3   1    0.09    0.08
  -4  -3   1    0.11    0.08
  -4  -3   1    0.10    0.07
  -4  -3   1    0.04    0.07
  -4  -3   1    0.04    0.04
   3   3  -1    4.81    0.31
   3   3  -1    4.48    0.29
   3   3  -1    4.69    0.20
   3   3  -1    4.34    0.21
   3   3  -1    4.46    0.29
   3   3  -1    4.50    0.21
   3   3  -1    4.32    0.25
   3   3  -1    4.87    0.20
   3   3  -1    4.70    0.20
  -3  -3   1    4.83    0.22
  -3  -3   1    4.62    0.30
  -3  -3   1    4.79    0.27
  -3  -3   1    4.27    0.24
  -3  -3   1    4.53    0.30
   2   3  -1    1.40    0.16
   2   3  -1    1.32    0.16
   2   3  -1    1.57    0.12
   2   3  -1    1.28    0.11
   2   3  -1    1.51    0.11
   2   3  -1    1.44    0.10
   2   3  -1    1.26    0.16
   2   3  -1    1.52    0.12
   2   3  -1    1.41    0.15
  -2  -3   1    1.42    0.16
  -2  -3   1    1.55    0.17
  -2  -3   1    1.51    0.12
  -2  -3   1    1.36    0.17
  -2  -3   1    1.22    0.14
  -2  -3   1    1.34    0.12
   1   3  -1   10.90    0.42
   1   3  -1   10.83    0.42
   1   3  -1   11.42    0.42
   1   3  -1   11.24    0.43
   1   3  -1   11.22    0.42
   1   3  -1   11.22    0.41
   1   3  -1   11.15    0.43
  -1  -3   1   10.45    0.42
  -1  -3   1   11.39    0.41
  -1  -3   1   11.31    0.42
  -1  -3   1   11.78    0.42
  -1  -3   1   10.87    0.38
  -1  -3   1   11.60    0.43
  -1  -3   1   11.37    0.43
   0   3  -1    3.47    0.21
   0   3  -1    3.45    0.16
   0   3  -1    3.23    0.20
   0   3  -1    3.38    0.18
   0   3  -1    3.36    0.15
   0   3  -1    3.20    0.20
   0  -3   1    3.43    0.20
   0  -3   1    3.80    0.19
   0  -3   1    3.15    0.16
   0  -3   1    3.71    0.19
   0  -3   1    3.44    0.20
   0  -3   1    3.67    0.18
   0  -3   1    3.47    0.14
  -1   3  -1   13.48    0.49
  -1   3  -1   12.47    0.50
  -1   3  -1   11.95    0.37
  -1   3  -1   12.08    0.37
  -1   3  -1   11.77    0.50
  -1   3  -1   12.18    0.38
  -1   3  -1   12.71    0.51
   1  -3   1   11.94    0.37
   1  -3   1   11.66    0.45
   1  -3   1   12.04    0.37
   1  -3   1   11.51    0.48
   1  -3   1   12.44    0.46
   1  -3   1   12.19    0.45
   1  -3   1   12.44    0.49
   1  -3   1   12.23    0.38
  -2   3  -1   22.58    0.63
  -2   3  -1   22.85    0.81
  -2   3  -1   22.37    0.82
   2  -3   1   22.63    0.82
   2  -3   1   21.49    0.61
   2  -3   1   22.50    0.76
  -3   3  -1    5.33    0.34
  -3   3  -1    5.24    0.23
  -3   3  -1    5.07    0.33
   3  -3   1    5.73    0.36
   3  -3   1    5.67    0.31
   3  -3   1    5.31    0.22
   4  -3   1    0.03    0.07
   4  -3   1    0.03    0.08
   5  -3   1    0.87    0.21
   5  -3   1    0.69    0.15
   6  -3   1    0.59    0.21
   6  -3   1    0.73    0.17
   7   2  -1    0.00    0.08
   6   2  -1    3.74    0.23
   5   2  -1    1.78    0.14
  -5  -2   1    2.03    0.26
  -5  -2   1    1.74    0.11
   4   2  -1    0.02    0.03
   4   2  -1    0.09    0.07
   4   2  -1    0.03    0.08
   4   2  -1    0.05    0.06
   4   2  -1   -0.02    0.03
   4   2  -1    0.02    0.06
  -4  -2   1    0.05    0.06
  -4  -2   1   -0.06    0.06
  -4  -2   1   -0.01    0.05
  -4  -2   1    0.03    0.04
   3   2  -1    1.02    0.15
   3   2  -1    1.37    0.18
   3   2  -1    1.29    0.08
   3   2  -1    1.36    0.15
   3   2  -1    1.33    0.08
   3   2  -1    1.40    0.18
  -3  -2   1    1.39    0.18
  -3  -2   1    1.32    0.15
  -3  -2   1    1.02    0.13
  -3  -2   1    1.38    0.17
  -3  -2   1    1.13    0.09
   2   2  -1   12.52    0.47
   2   2  -1   12.88    0.39
   2   2  -1   12.67    0.38
   2   2  -1   11.66    0.40
   2   2  -1   12.49    0.48
   2   2  -1   12.49    0.44
   2   2  -1   12.54    0.46
  -2  -2   1   13.20    0.48
  -2  -2   1   12.46    0.42
  -2  -2   1   12.13    0.45
  -2  -2   1   11.93    0.41
  -2  -2   1   12.42    0.47
   1   2  -1  940.53   24.04
   1   2  -1 1000.00   23.92
   1   2  -1  923.27   24.75
   1   2  -1  992.20   23.89
   1   2  -1  956.27   25.75
   1   2  -1  938.36   24.61
   1   2  -1  981.44   25.62
   1   2  -1  926.38   25.12
  -1  -2   1  918.97   24.09
  -1  -2   1  963.01   23.68
  -1  -2   1  968.54   25.71
  -1  -2   1  968.44   23.91
  -1  -2   1  986.76   23.86
  -1  -2   1  975.96   25.58
   0   2  -1  155.14    4.23
   0   2  -1  162.38    3.87
   0   2  -1  148.77    4.15
   0   2  -1  151.33    4.23
   0   2  -1  158.02    3.58
   0   2  -1  159.61    4.22
   0   2  -1  152.38    3.93
   0  -2   1  161.95    4.23
   0  -2   1  157.80    3.57
   0  -2   1  163.27    4.05
   0  -2   1  152.03    4.15
   0  -2   1  154.53    3.90
   0  -2   1  157.65    3.88
   0  -2   1  160.34    4.22
   0  -2   1  152.25    3.92
  -1   2  -1   30.55    0.95
  -1   2  -1   30.19    0.79
  -1   2  -1   30.24    0.90
  -1   2  -1   31.95    0.96
  -1   2  -1   31.03    0.75
   1  -2   1   31.24    0.85
   1  -2   1   30.87    0.89
   1  -2   1   31.33    0.80
   1  -2   1   30.30    0.79
   1  -2   1   29.49    0.92
   1  -2   1   30.79    0.96
   1  -2   1   30.32    0.76
  -2   2  -1    8.22    0.37
  -2   2  -1    9.02    0.29
   2  -2   1    8.64    0.28
   2  -2   1    8.62    0.29
   2  -2   1    8.76    0.34
   2  -2   1    8.85    0.40
   2  -2   1    8.80    0.36
   2  -2   1    8.52    0.37
   2  -2   1    8.73    0.24
  -3   2  -1    3.79    0.19
  -3   2  -1    3.93    0.26
   3  -2   1    4.16    0.24
   3  -2   1    3.57    0.13
   3  -2   1    3.72    0.22
   3  -2   1    4.05    0.20
   3  -2   1    3.83    0.17
  -4   2  -1   30.74    1.06
   4  -2   1   31.12    1.01
   4  -2   1   32.70    1.16
   5  -2   1    0.53    0.17
   5  -2   1    0.54    0.12
   6  -2   1    1.34    0.21
   6   1  -1    1.41    0.17
   5   1  -1    1.83    0.15
   4   1  -1    5.53    0.23
   4   1  -1    4.72    0.29
   4   1  -1    4.98    0.33
   4   1  -1    5.34    0.23
   4   1  -1    4.68    0.29
   4   1  -1    5.69    0.33
  -4  -1   1    5.11    0.24
  -4  -1   1    5.85    0.34
  -4  -1   1    4.87    0.27
  -4  -1   1    5.45    0.31
   3   1  -1    0.82    0.06
   3   1  -1    0.56    0.10
   3   1  -1    0.97    0.14
   3   1  -1    0.74    0.06
   3   1  -1    0.90    0.13
   3   1  -1    0.84    0.05
  -3  -1   1    0.78    0.13
  -3  -1   1    0.87    0.11
  -3  -1   1    0.90    0.10
   2   1  -1    0.10    0.04
   2   1  -1    0.06    0.03
   2   1  -1    0.11    0.05
   2   1  -1    0.16    0.02
   2   1  -1    0.26    0.03
   2   1  -1    0.14    0.03
   2   1  -1    0.14    0.05
  -2  -1   1    0.17    0.04
  -2  -1   1    0.15    0.04
  -2  -1   1    0.16    0.04
  -2  -1   1    0.17    0.05
  -2  -1   1    0.06    0.03
   1   1  -1   28.80    0.76
   1   1  -1   28.31    0.80
   1   1  -1   27.94    0.79
   1   1  -1   27.75    0.78
   1   1  -1   27.89    0.78
   1   1  -1   29.50    0.75
   1   1  -1   27.94    0.79
  -1  -1   1   26.64    0.78
  -1  -1   1   26.99    0.79
  -1  -1   1   29.15    0.73
  -1  -1   1   26.78    0.78
  -1  -1   1   28.18    0.80
   0   1  -1    0.00    0.01
   0   1  -1   -0.02    0.01
   0   1  -1   -0.03    0.01
   0   1  -1   -0.01    0.01
   0   1  -1   -0.01    0.01
   0   1  -1   -0.01    0.01
   0   1  -1   -0.02    0.01
   0   1  -1    0.03    0.02
   0  -1   1    0.00    0.01
   0  -1   1    0.00    0.01
   0  -1   1   -0.02    0.01
   0  -1   1    0.02    0.02
   0  -1   1   -0.02    0.01
   0  -1   1   -0.01    0.01
   0  -1   1    0.01    0.01
   0  -1   1    0.03    0.02
   0  -1   1   -0.01    0.01
   0  -1   1   -0.02    0.01
  -1   1  -1   87.10    2.47
  -1   1  -1   91.16    2.48
  -1   1  -1   87.00    2.23
   1  -1   1   95.68    2.38
   1  -1   1   93.31    2.44
   1  -1   1   91.59    2.37
   1  -1   1   90.59    2.23
  -2   1  -1   89.63    2.56
  -2   1  -1   91.25    2.34
   2  -1   1   96.73    2.35
   2  -1   1   89.72    2.43
   2  -1   1   94.11    2.45
   2  -1   1   92.90    2.34
   2  -1   1   94.40    2.51
  -3   1  -1   16.93    0.55
  -3   1  -1   17.24    0.59
   3  -1   1   17.22    0.52
   3  -1   1   16.66    0.56
   3  -1   1   16.07    0.54
   3  -1   1   16.71    0.54
   3  -1   1   16.45    0.55
  -4   1  -1    0.30    0.08
  -4   1  -1    0.10    0.07
  -4   1  -1    0.19    0.08
   4  -1   1    0.41    0.09
   4  -1   1    0.31    0.07
   4  -1   1    0.36    0.09
   5  -1   1    6.02    0.31
   6  -1   1    0.09    0.08
   6   0  -1    0.07    0.07
   5   0  -1    6.94    0.47
   5   0  -1    6.49    0.32
   4   0  -1    7.71    0.40
   4   0  -1    7.64    0.35
   4   0  -1    8.31    0.34
   4   0  -1    8.20    0.33
   4   0  -1    7.74    0.39
   4   0  -1    8.30    0.41
  -4   0   1    8.24    0.36
  -4   0   1    7.44    0.40
  -4   0   1    7.63    0.35
   3   0  -1    1.53    0.15
   3   0  -1    1.45    0.17
   3   0  -1    1.72    0.11
   3   0  -1    1.78    0.11
   3   0  -1    1.95    0.16
   3   0  -1    1.48    0.11
  -3   0   1    2.09    0.20
  -3   0   1    1.79    0.14
  -3   0   1    1.58    0.13
   2   0  -1    5.50    0.23
   2   0  -1    5.50    0.25
   2   0  -1    5.57    0.22
   2   0  -1    5.73    0.20
   2   0  -1    5.94    0.25
   2   0  -1    5.40    0.20
  -2   0   1    5.44    0.23
  -2   0   1    5.31    0.25
  -2   0   1    5.66    0.23
   1   0  -1   13.87    0.40
   1   0  -1   13.82    0.40
   1   0  -1   13.72    0.43
   1   0  -1   14.16    0.42
   1   0  -1   14.65    0.40
  -1   0   1   14.08    0.41
  -1   0   1   13.79    0.42
  -1   0   1   13.87    0.43
   0   0  -1   46.47    1.14
   0   0  -1   44.19    1.24
   0   0   1   45.45    1.24
  -1   0  -1   38.72    1.04
  -1   0  -1   39.67    1.01
  -1   0  -1   39.34    1.07
  -1   0  -1   39.53    1.01
   1   0   1   39.66    1.05
   1   0   1   40.84    1.13
   1   0   1   39.66    1.01
   1   0   1   38.81    1.01
  -2   0  -1   30.29    0.86
  -2   0  -1   30.30    0.89
  -2   0  -1   31.68    0.87
   2   0   1   30.42    0.86
   2   0   1   30.28    0.86
   2   0   1   30.77    0.85
   2   0   1   31.68    0.96
  -3   0  -1   30.26    0.90
  -3   0  -1   30.16    0.89
  -3   0  -1   30.36    0.93
   3   0   1   30.36    0.90
   3   0   1   27.19    0.99
   3   0   1   28.81    0.88
   3   0   1   29.45    0.82
   3   0   1   31.54    0.90
   3   0   1   30.77    0.82
  -4   0  -1    8.76    0.33
  -4   0  -1    8.20    0.34
  -4   0  -1    8.81    0.40
   4   0   1    8.57    0.31
   4   0   1    8.09    0.37
   4   0   1    8.20    0.38
   4   0   1    8.74    0.32
   4   0   1    8.63    0.41
   5   0   1    0.74    0.11
   6   0   1    0.09    0.06
   6  -1  -1   -0.07    0.07
   5  -1  -1   10.06    0.46
   4  -1  -1   13.75    0.61
   4  -1  -1   13.72    0.53
   4  -1  -1   14.53    0.57
  -4   1   1   14.19    0.57
  -4   1   1   15.18    0.59
   3  -1  -1    1.68    0.17
   3  -1  -1    1.56    0.15
   3  -1  -1    1.49    0.12
   3  -1  -1    1.46    0.10
   3  -1  -1    1.74    0.16
  -3   1   1    1.36    0.16
  -3   1   1    1.95    0.19
  -3   1   1    1.39    0.10
   2  -1  -1   13.14    0.45
   2  -1  -1   13.33    0.39
   2  -1  -1   14.48    0.46
   2  -1  -1   13.51    0.48
   2  -1  -1   13.46    0.45
  -2   1   1   12.41    0.48
  -2   1   1   13.53    0.46
  -2   1   1   13.52    0.39
   1  -1  -1   12.52    0.42
   1  -1  -1   13.44    0.44
   1  -1  -1   12.50    0.40
   1  -1  -1   12.81    0.39
   1  -1  -1   13.76    0.42
   1  -1  -1   12.87    0.40
  -1   1   1   12.79    0.44
  -1   1   1   12.83    0.39
  -1   1   1   12.96    0.41
  -1   1   1   12.70    0.34
   0  -1  -1   50.46    1.15
   0  -1  -1   50.44    1.26
   0  -1  -1   49.84    1.27
   0  -1  -1   48.71    1.38
   0  -1  -1   49.26    1.31
   0  -1  -1   49.72    1.37
   0   1   1   48.06    1.36
   0   1   1   50.84    1.15
   0   1   1   49.98    1.38
   0   1   1   51.04    1.26
  -1  -1  -1   17.84    0.56
  -1  -1  -1   17.50    0.51
  -1  -1  -1   17.75    0.50
  -1  -1  -1   16.86    0.51
  -1  -1  -1   17.74    0.52
   1   1   1   17.69    0.53
   1   1   1   17.92    0.49
   1   1   1   17.45    0.52
   1   1   1   17.48    0.48
   1   1   1   17.79    0.51
   1   1   1   18.05    0.56
  -2  -1  -1    8.02    0.31
  -2  -1  -1    8.11    0.32
  -2  -1  -1    8.39    0.35
  -2  -1  -1    8.51    0.33
  -2  -1  -1    8.22    0.32
   2   1   1    8.21    0.32
   2   1   1    8.00    0.32
   2   1   1    7.86    0.31
  -3  -1  -1   23.38    0.74
  -3  -1  -1   22.60    0.74
   3   1   1   22.31    0.75
   3   1   1   21.87    0.73
   3   1   1   22.57    0.79
   3   1   1   22.79    0.75
  -4  -1  -1   17.84    0.52
  -4  -1  -1   17.40    0.51
  -4  -1  -1   17.88    0.67
  -4  -1  -1   17.72    0.66
   4   1   1   17.44    0.48
   4   1   1   18.03    0.66
   4   1   1   18.44    0.66
   4   1   1   16.69    0.71
   4   1   1   18.44    0.68
  -5  -1  -1    0.05    0.09
  -5  -1  -1    0.04    0.08
   5   1   1    0.00    0.08
   5   1   1    0.04    0.04
   5   1   1    0.01    0.09
   5   1   1    0.03    0.04
   6   1   1    0.32    0.08
   7   1   1    0.04    0.07
   6  -2  -1   -0.03    0.08
   5  -2  -1    0.04    0.07
   4  -2  -1    0.86    0.15
   4  -2  -1    0.68    0.15
   4  -2  -1    0.64    0.12
  -4   2   1    0.74    0.14
   3  -2  -1    0.31    0.09
   3  -2  -1    0.42    0.09
   3  -2  -1    0.55    0.11
   3  -2  -1    0.32    0.09
   3  -2  -1    0.40    0.09
  -3   2   1    0.68    0.11
  -3   2   1    0.43    0.11
   2  -2  -1    0.69    0.09
   2  -2  -1    0.79    0.11
   2  -2  -1    0.70    0.10
   2  -2  -1    0.88    0.12
   2  -2  -1    0.71    0.11
   2  -2  -1    0.77    0.12
  -2   2   1    0.58    0.09
  -2   2   1    0.69    0.12
   1  -2  -1   11.35    0.44
   1  -2  -1   11.87    0.34
   1  -2  -1   11.27    0.39
   1  -2  -1   11.78    0.41
   1  -2  -1   11.18    0.36
   1  -2  -1   12.24    0.43
  -1   2   1   11.44    0.38
  -1   2   1   11.43    0.32
  -1   2   1   11.67    0.45
  -1   2   1   12.13    0.42
  -1   2   1   11.63    0.43
  -1   2   1   11.42    0.31
   0  -2  -1   58.04    1.33
   0  -2  -1   53.36    1.47
   0  -2  -1   56.35    1.53
   0  -2  -1   56.73    1.61
   0  -2  -1   58.81    1.47
   0  -2  -1   56.41    1.60
   0   2   1   58.57    1.34
   0   2   1   57.28    1.60
   0   2   1   55.01    1.61
   0   2   1   58.44    1.47
   0   2   1   54.15    1.54
  -1  -2  -1  315.44    8.25
  -1  -2  -1  313.83    7.82
  -1  -2  -1  306.61    8.33
  -1  -2  -1  314.56    7.74
  -1  -2  -1  320.52    8.36
  -1  -2  -1  314.18    7.74
   1   2   1  315.26    8.01
   1   2   1  310.13    8.33
   1   2   1  297.69    8.19
   1   2   1  318.57    8.35
   1   2   1  321.77    7.74
   1   2   1  315.30    7.99
   1   2   1  317.68    7.83
  -2  -2  -1   12.96    0.45
  -2  -2  -1   13.25    0.48
  -2  -2  -1   12.08    0.46
  -2  -2  -1   12.56    0.49
   2   2   1   13.35    0.48
   2   2   1   12.95    0.46
   2   2   1   12.82    0.37
   2   2   1   12.57    0.37
   2   2   1   12.65    0.38
   2   2   1   13.06    0.48
   2   2   1   13.17    0.48
  -3  -2  -1    0.02    0.04
  -3  -2  -1    0.06    0.05
  -3  -2  -1    0.04    0.05
  -3  -2  -1    0.01    0.04
   3   2   1    0.02    0.04
   3   2   1    0.01    0.05
   3   2   1    0.00    0.02
   3   2   1    0.01    0.04
   3   2   1    0.06    0.06
  -4  -2  -1    2.26    0.25
  -4  -2  -1    2.63    0.25
  -4  -2  -1    2.10    0.24
   4   2   1    2.08    0.23
   4   2   1    1.94    0.23
   4   2   1    2.52    0.26
  -5  -2  -1    4.43    0.31
   5   2   1    4.30    0.16
   5   2   1    4.20    0.15
   6   2   1    1.44    0.11
   7   2   1    0.06    0.06
   6  -3  -1    0.33    0.13
   5  -3  -1    0.79    0.17
   5  -3  -1    0.52    0.16
   4  -3  -1    0.09    0.10
   4  -3  -1    0.16    0.08
   4  -3  -1    0.49    0.14
   3  -3  -1    0.45    0.11
   3  -3  -1    0.28    0.09
   3  -3  -1    0.25    0.07
   3  -3  -1    0.31    0.11
   3  -3  -1    0.30    0.09
  -3   3   1    0.35    0.09
  -3   3   1    0.24    0.10
   2  -3  -1    3.46    0.24
   2  -3  -1    3.45    0.22
   2  -3  -1    3.67    0.18
   2  -3  -1    3.58    0.22
   2  -3  -1    3.43    0.25
   2  -3  -1    3.06    0.17
  -2   3   1    3.22    0.25
  -2   3   1    3.80    0.20
   1  -3  -1   99.07    2.69
   1  -3  -1  100.13    2.80
   1  -3  -1  100.37    2.60
   1  -3  -1   95.88    2.53
   1  -3  -1  100.50    2.35
   1  -3  -1   92.08    2.82
  -1   3   1  102.62    2.85
  -1   3   1  100.15    2.50
  -1   3   1  100.74    2.71
  -1   3   1  102.19    2.55
  -1   3   1  100.86    2.81
  -1   3   1   99.34    2.34
   0  -3  -1   16.48    0.58
   0  -3  -1   16.94    0.54
   0  -3  -1   16.14    0.57
   0  -3  -1   17.06    0.44
   0  -3  -1   16.33    0.53
   0  -3  -1   16.21    0.51
   0  -3  -1   16.45    0.51
   0  -3  -1   15.72    0.59
   0   3   1   16.90    0.46
   0   3   1   16.96    0.52
   0   3   1   13.59    0.55
   0   3   1   16.33    0.58
  -1  -3  -1    0.74    0.10
  -1  -3  -1    0.78    0.11
  -1  -3  -1    0.73    0.11
  -1  -3  -1    0.74    0.10
  -1  -3  -1    0.73    0.09
  -1  -3  -1    0.72    0.10
   1   3   1    0.74    0.10
   1   3   1    0.99    0.10
   1   3   1    0.64    0.10
   1   3   1    0.84    0.10
   1   3   1    0.65    0.09
   1   3   1    0.91    0.10
   1   3   1    0.79    0.09
   1   3   1    0.73    0.10
  -2  -3  -1    5.05    0.29
  -2  -3  -1    5.66    0.29
  -2  -3  -1    5.90    0.25
  -2  -3  -1    5.47    0.21
  -2  -3  -1    5.80    0.30
  -2  -3  -1    5.70    0.27
   2   3   1    5.43    0.28
   2   3   1    5.75    0.24
   2   3   1    6.09    0.31
   2   3   1    5.52    0.29
   2   3   1    5.84    0.22
   2   3   1    5.57    0.24
   2   3   1    5.70    0.24
   2   3   1    5.72    0.23
   2   3   1    5.54    0.29
  -3  -3  -1    0.04    0.06
  -3  -3  -1   -0.01    0.04
  -3  -3  -1    0.16    0.07
  -3  -3  -1    0.00    0.05
   3   3   1   -0.02    0.03
   3   3   1    0.08    0.07
   3   3   1    0.01    0.02
   3   3   1    0.03    0.02
   3   3   1   -0.07    0.04
   3   3   1    0.05    0.05
   3   3   1    0.02    0.05
  -4  -3  -1    0.63    0.13
  -4  -3  -1    0.44    0.13
  -4  -3  -1    0.28    0.11
   4   3   1    0.57    0.14
   4   3   1    0.52    0.13
  -5  -3  -1    0.17    0.10
   5   3   1    0.08    0.03
   5   3   1    0.09    0.03
   6   3   1    0.15    0.05
   7   3   1    0.02    0.05
   5  -4  -1    1.75    0.26
   5  -4  -1    1.33    0.24
   4  -4  -1    3.15    0.33
   4  -4  -1    2.95    0.33
   4  -4  -1    3.66    0.29
   3  -4  -1    2.60    0.28
   3  -4  -1    2.87    0.24
   3  -4  -1    3.03    0.30
   2  -4  -1    4.18    0.27
   2  -4  -1    4.33    0.31
   2  -4  -1    4.31    0.27
   2  -4  -1    3.91    0.21
   2  -4  -1    4.07    0.21
   2  -4  -1    4.15    0.28
  -2   4   1    4.34    0.32
  -2   4   1    4.20    0.17
  -2   4   1    3.94    0.22
   1  -4  -1    1.71    0.21
   1  -4  -1    1.65    0.13
   1  -4  -1    1.71    0.20
   1  -4  -1    2.00    0.20
   1  -4  -1    2.11    0.21
   1  -4  -1    1.87    0.13
   1  -4  -1    1.82    0.21
  -1   4   1    1.90    0.14
  -1   4   1    2.05    0.22
  -1   4   1    1.66    0.20
  -1   4   1    1.95    0.22
  -1   4   1    2.74    0.15
  -1   4   1    2.03    0.12
   0  -4  -1    8.28    0.27
   0  -4  -1    7.74    0.32
   0  -4  -1    8.06    0.38
   0  -4  -1    8.25    0.35
   0  -4  -1    7.59    0.32
   0  -4  -1    7.17    0.36
   0  -4  -1    7.22    0.33
   0  -4  -1    7.73    0.34
   0  -4  -1    7.76    0.39
   0   4   1    7.97    0.39
   0   4   1    8.02    0.28
   0   4   1    8.35    0.39
   0   4   1    7.63    0.32
  -1  -4  -1   11.35    0.46
  -1  -4  -1   13.23    0.50
  -1  -4  -1   12.47    0.50
  -1  -4  -1   12.20    0.51
  -1  -4  -1   13.35    0.49
  -1  -4  -1   12.83    0.52
  -1  -4  -1   13.27    0.32
  -1  -4  -1   13.81    0.33
  -1  -4  -1   12.30    0.45
   1   4   1   13.33    0.49
   1   4   1   11.93    0.50
   1   4   1   12.81    0.52
   1   4   1   13.00    0.38
   1   4   1   12.91    0.50
   1   4   1   12.77    0.51
   1   4   1   12.58    0.52
  -2  -4  -1   38.77    1.21
  -2  -4  -1   41.44    1.17
  -2  -4  -1   38.64    1.22
  -2  -4  -1   39.16    1.20
  -2  -4  -1   38.68    1.15
  -2  -4  -1   38.09    1.26
   2   4   1   37.65    1.20
   2   4   1   39.96    1.16
   2   4   1   39.84    1.23
   2   4   1   39.98    1.19
   2   4   1   38.54    1.12
   2   4   1   38.62    1.24
   2   4   1   39.59    1.19
   2   4   1   39.60    1.18
  -3  -4  -1    0.16    0.08
  -3  -4  -1    0.32    0.10
  -3  -4  -1    0.16    0.07
  -3  -4  -1    0.39    0.10
   3   4   1    0.23    0.06
   3   4   1    0.27    0.06
   3   4   1    0.22    0.06
   3   4   1    0.28    0.06
   3   4   1    0.21    0.08
   3   4   1    0.17    0.08
  -4  -4  -1    2.73    0.30
  -4  -4  -1    1.59    0.23
  -4  -4  -1    2.59    0.26
   4   4   1    2.19    0.13
   4   4   1    2.03    0.14
  -5  -4  -1    0.68    0.18
  -5  -4  -1    1.28    0.21
   5   4   1    0.64    0.09
   6   4   1    0.06    0.05
   5  -5  -1    0.66    0.19
   5  -5  -1    0.30    0.14
   4  -5  -1    2.77    0.33
   4  -5  -1    2.71    0.33
   3  -5  -1    7.64    0.44
   3  -5  -1    6.61    0.43
   3  -5  -1    6.64    0.32
   3  -5  -1    7.42    0.43
   2  -5  -1    7.68    0.33
   2  -5  -1    7.98    0.42
   2  -5  -1    7.72    0.44
   2  -5  -1    7.64    0.33
   2  -5  -1    8.21    0.43
  -2   5   1    7.87    0.29
  -2   5   1    7.89    0.36
   1  -5  -1    1.03    0.16
   1  -5  -1    1.09    0.13
   1  -5  -1    1.10    0.19
   1  -5  -1    1.37    0.21
   1  -5  -1    1.15    0.18
   1  -5  -1    1.36    0.14
  -1   5   1    0.84    0.17
  -1   5   1    1.30    0.14
  -1   5   1    1.30    0.15
  -1   5   1    1.33    0.20
  -1   5   1    1.05    0.12
   0  -5  -1    3.75    0.24
   0  -5  -1    4.37    0.26
   0  -5  -1    4.15    0.30
   0  -5  -1    4.89    0.30
   0  -5  -1    4.25    0.29
   0  -5  -1    4.08    0.26
   0  -5  -1    4.41    0.19
   0  -5  -1    3.89    0.23
   0  -5  -1    3.92    0.23
   0   5   1    4.18    0.21
   0   5   1    4.48    0.24
   0   5   1    3.31    0.22
  -1  -5  -1    0.11    0.06
  -1  -5  -1    0.14    0.08
  -1  -5  -1    0.09    0.05
  -1  -5  -1    0.09    0.06
  -1  -5  -1    0.02    0.06
  -1  -5  -1    0.03    0.05
  -1  -5  -1    0.23    0.08
  -1  -5  -1    0.08    0.03
   1   5   1    0.07    0.05
   1   5   1   -0.04    0.04
   1   5   1    0.00    0.05
   1   5   1    0.14    0.05
   1   5   1    0.04    0.06
   1   5   1    0.06    0.07
  -2  -5  -1    5.12    0.33
  -2  -5  -1    5.35    0.33
  -2  -5  -1    4.83    0.27
  -2  -5  -1    4.44    0.28
  -2  -5  -1    4.93    0.31
   2   5   1    5.21    0.20
   2   5   1    5.75    0.33
   2   5   1    5.10    0.27
   2   5   1    4.93    0.27
   2   5   1    4.54    0.28
   2   5   1    4.98    0.29
   2   5   1    4.76    0.31
   2   5   1    5.07    0.29
  -3  -5  -1    0.57    0.14
  -3  -5  -1    0.46    0.13
  -3  -5  -1    0.48    0.13
  -3  -5  -1    0.39    0.11
   3   5   1    0.44    0.12
   3   5   1    0.51    0.10
   3   5   1    0.36    0.09
   3   5   1    0.43    0.13
   3   5   1    0.53    0.11
  -4  -5  -1    1.79    0.24
  -4  -5  -1    1.35    0.23
  -4  -5  -1    1.38    0.23
   4   5   1    1.19    0.15
  -5  -5  -1    0.35    0.15
  -5  -5  -1    0.33    0.15
   5   5   1    0.28    0.08
   6   5   1    0.09    0.07
   5  -6  -1    0.25    0.17
   5  -6  -1    0.63    0.21
   4  -6  -1    1.47    0.27
   4  -6  -1    1.39    0.26
   3  -6  -1    5.83    0.33
   3  -6  -1    7.40    0.44
   3  -6  -1    6.53    0.43
   2  -6  -1    8.65    0.36
   2  -6  -1    6.41    0.42
   2  -6  -1    7.59    0.44
   2  -6  -1    7.71    0.46
  -2   6   1    7.95    0.32
   1  -6  -1    0.44    0.14
   1  -6  -1    0.62    0.14
   1  -6  -1    0.72    0.15
   1  -6  -1    0.42    0.12
   1  -6  -1    0.37    0.10
   1  -6  -1    0.58    0.15
   1  -6  -1    0.48    0.09
  -1   6   1    0.57    0.12
  -1   6   1    0.56    0.10
  -1   6   1    0.75    0.12
  -1   6   1    0.60    0.15
   0  -6  -1    1.99    0.23
   0  -6  -1    2.11    0.14
   0  -6  -1    2.03    0.22
   0  -6  -1    2.09    0.22
   0  -6  -1    2.06    0.27
   0  -6  -1    2.29    0.29
   0  -6  -1    1.94    0.24
   0   6   1    2.01    0.18
   0   6   1    2.39    0.28
   0   6   1    2.20    0.27
   0   6   1    1.90    0.20
   0   6   1    2.19    0.21
  -1  -6  -1    1.83    0.22
  -1  -6  -1    1.39    0.21
  -1  -6  -1    1.81    0.22
  -1  -6  -1    1.22    0.18
  -1  -6  -1    1.65    0.21
  -1  -6  -1    1.49    0.09
  -1  -6  -1    1.42    0.21
   1   6   1    1.19    0.18
   1   6   1    1.32    0.20
   1   6   1    1.59    0.21
   1   6   1    1.79    0.17
   1   6   1    1.55    0.22
   1   6   1    1.69    0.20
  -2  -6  -1    0.00    0.06
  -2  -6  -1   -0.01    0.06
  -2  -6  -1    0.03    0.06
  -2  -6  -1    0.02    0.07
  -2  -6  -1   -0.01    0.05
   2   6   1   -0.03    0.05
   2   6   1    0.08    0.06
   2   6   1   -0.02    0.06
  -3  -6  -1    0.68    0.17
  -3  -6  -1    0.83    0.19
  -3  -6  -1    0.77    0.17
   3   6   1    0.74    0.14
  -4  -6  -1    0.79    0.18
  -4  -6  -1    0.48    0.16
   4   6   1    0.30    0.10
  -5  -6  -1    0.03    0.10
   5   6   1    0.11    0.08
   6   6   1    0.22    0.10
   4  -7  -1   -0.06    0.11
   4  -7  -1    0.29    0.17
   4  -7  -1   -0.02    0.14
   3  -7  -1   -0.02    0.12
   3  -7  -1    0.08    0.08
   3  -7  -1    0.05    0.11
   3  -7  -1    0.10    0.10
   2  -7  -1    3.44    0.36
   2  -7  -1    2.90    0.34
   2  -7  -1    3.10    0.22
   2  -7  -1    3.15    0.35
  -2   7   1    3.43    0.40
  -2   7   1    3.01    0.21
   1  -7  -1    0.91    0.13
   1  -7  -1    1.21    0.21
   1  -7  -1    1.41    0.24
   1  -7  -1    1.15    0.20
   1  -7  -1    1.13    0.20
  -1   7   1    0.91    0.14
  -1   7   1    1.10    0.22
   0  -7  -1    4.03    0.33
   0  -7  -1    3.82    0.40
   0  -7  -1    3.24    0.33
   0  -7  -1    3.94    0.28
   0  -7  -1    3.53    0.20
   0   7   1    3.40    0.23
   0   7   1    3.75    0.39
   0   7   1    3.96    0.28
   0   7   1    3.43    0.25
  -1  -7  -1    7.37    0.25
  -1  -7  -1    6.53    0.44
  -1  -7  -1    7.23    0.41
  -1  -7  -1    7.45    0.42
  -1  -7  -1    7.42    0.41
   1   7   1    6.88    0.32
   1   7   1    6.77    0.42
   1   7   1    7.15    0.40
   1   7   1    6.50    0.44
  -2  -7  -1    2.18    0.30
  -2  -7  -1    2.28    0.28
  -2  -7  -1    1.86    0.26
   2   7   1    2.22    0.27
  -3  -7  -1    0.10    0.13
  -3  -7  -1    0.35    0.13
   3   7   1    0.06    0.09
  -4  -7  -1    0.10    0.11
  -4  -7  -1    0.02    0.10
   4   7   1    0.01    0.07
   5   7   1    0.30    0.11
   6   7   1    0.22    0.11
   3  -8  -1    0.33    0.15
   3  -8  -1    0.02    0.08
   2  -8  -1    0.10    0.12
   2  -8  -1   -0.04    0.07
  -2   8   1   -0.02    0.07
   1  -8  -1    2.25    0.21
   1  -8  -1    2.45    0.32
  -1   8   1    1.84    0.22
   0  -8  -1    0.34    0.12
   0  -8  -1    0.20    0.07
   0   8   1    0.16    0.12
   0   8   1    0.13    0.08
  -1  -8  -1    0.08    0.04
  -1  -8  -1    0.05    0.08
   1   8   1    0.08    0.12
   1   8   1    0.05    0.07
  -2  -8  -1    1.24    0.23
   2   8   1    0.93    0.21
  -3  -8  -1    0.22    0.11
   3   8   1    0.13    0.12
  -4  -8  -1    0.20    0.13
   4   8   1    0.10    0.10
   5   8   1    0.07    0.11
   2  -9  -1    0.86    0.22
   2  -9  -1    0.82    0.16
  -2   9   1    1.01    0.16
   1  -9  -1    0.20    0.10
   1  -9  -1    0.19    0.14
  -1   9   1    0.14    0.09
   0  -9  -1    0.04    0.06
   0  -9  -1    0.01    0.10
   0   9   1    0.06    0.08
  -1  -9  -1    0.02    0.04
  -1  -9  -1    0.00    0.08
   1   9   1    0.02    0.12
   1   9   1    0.03    0.09
  -2  -9  -1    1.90    0.30
   2   9   1    1.63    0.29
  -3  -9  -1    0.27    0.13
   3   9   1    0.20    0.13
  -4  -9  -1    0.14    0.14
   4   9   1   -0.01    0.10
   5   9   1    0.06    0.13
   1 -10  -1    0.33    0.15
   1 -10  -1    0.45    0.12
  -1  10   1    0.36    0.14
   0 -10  -1   -0.19    0.10
   0 -10  -1    0.04    0.06
   0  10   1    0.06    0.10
  -1 -10  -1    0.05    0.12
   1  10   1   -0.01    0.09
  -2 -10  -1   -0.02    0.13
   2  10   1    0.06    0.15
  -3 -10  -1    0.10    0.14
   3  10   1    0.08    0.15
  -4 -10  -1   -0.09    0.14
   4  10   1   -0.10    0.13
  -1 -11  -1   -0.20    0.14
   1  11   1   -0.08    0.11
  -2 -11  -1    0.00    0.12
   2  11   1    0.10    0.20
   2  11   1    0.03    0.13
  -2 -11   2    0.02    0.15
   1  11  -2    0.10    0.14
  -1 -11   2    0.00    0.13
   4  10  -2    0.09    0.16
   3  10  -2    0.02    0.16
  -3 -10   2   -0.11    0.13
   2  10  -2    0.01    0.11
   2  10  -2    0.04    0.19
  -2 -10   2    0.05    0.13
   1  10  -2    0.08    0.12
  -1 -10   2   -0.03    0.12
   0  10  -2    0.22    0.13
   0 -10   2    0.30    0.14
   0 -10   2    0.27    0.09
  -1  10  -2    0.02    0.10
   1 -10   2    0.02    0.08
   1 -10   2   -0.07    0.13
   5   9  -2    0.01    0.14
   4   9  -2    0.03    0.13
   3   9  -2    0.12    0.12
  -3  -9   2    0.14    0.14
   2   9  -2    0.00    0.08
   2   9  -2   -0.01    0.11
  -2  -9   2    0.04    0.11
   1   9  -2    0.09    0.17
   1   9  -2    0.27    0.12
  -1  -9   2    0.15    0.05
  -1  -9   2    0.04    0.09
   0   9  -2    0.12    0.10
   0  -9   2    0.28    0.08
   0  -9   2    0.28    0.15
  -1   9  -2    1.21    0.19
   1  -9   2    1.14    0.16
   1  -9   2    1.61    0.27
  -2   9  -2    0.06    0.09
   2  -9   2    0.00    0.12
   2  -9   2   -0.03    0.08
   5   8  -2    0.09    0.12
   4   8  -2    0.00    0.11
   3   8  -2    0.56    0.18
  -3  -8   2    0.42    0.15
   2   8  -2   -0.11    0.10
   2   8  -2    0.04    0.09
  -2  -8   2   -0.11    0.08
  -2  -8   2   -0.02    0.10
   1   8  -2    1.62    0.28
   1   8  -2    1.75    0.21
  -1  -8   2    1.81    0.26
  -1  -8   2    1.84    0.12
  -1  -8   2    1.74    0.25
   0   8  -2    2.69    0.27
   0  -8   2    2.40    0.30
   0  -8   2    2.88    0.19
  -1   8  -2    1.59    0.21
   1  -8   2    1.47    0.18
   1  -8   2    1.77    0.27
  -2   8  -2   -0.03    0.07
   2  -8   2    0.04    0.07
   2  -8   2   -0.12    0.07
   3  -8   2    0.14    0.11
   3  -8   2    0.18    0.13
   3  -8   2    0.19    0.14
   6   7  -2   -0.02    0.12
   5   7  -2   -0.06    0.08
   4   7  -2    0.14    0.11
   3   7  -2    0.44    0.15
  -3  -7   2    0.42    0.14
  -3  -7   2    0.62    0.15
   2   7  -2    0.02    0.06
   2   7  -2    0.04    0.08
  -2  -7   2    0.05    0.09
  -2  -7   2    0.04    0.07
  -2  -7   2   -0.01    0.08
   1   7  -2    0.18    0.09
   1   7  -2    0.03    0.06
   1   7  -2    0.25    0.11
   1   7  -2    0.14    0.10
  -1  -7   2    0.18    0.10
  -1  -7   2    0.25    0.06
  -1  -7   2    0.08    0.08
  -1  -7   2    0.22    0.10
  -1  -7   2    0.26    0.11
   0   7  -2    7.80    0.37
   0   7  -2    6.89    0.35
   0   7  -2    7.60    0.40
   0   7  -2    7.72    0.49
   0  -7   2    7.39    0.42
   0  -7   2    7.52    0.31
   0  -7   2    7.82    0.47
   0  -7   2    7.60    0.41
   0  -7   2    7.27    0.38
  -1   7  -2    7.20    0.51
  -1   7  -2    6.71    0.34
   1  -7   2    6.54    0.32
   1  -7   2    7.61    0.45
   1  -7   2    6.53    0.41
   1  -7   2    7.64    0.48
  -2   7  -2    3.69    0.44
  -2   7  -2    3.48    0.22
   2  -7   2    3.77    0.39
   2  -7   2    4.47    0.35
   2  -7   2    3.44    0.24
   3  -7   2    0.37    0.14
   3  -7   2    0.10    0.13
   3  -7   2    0.39    0.12
   4  -7   2    0.02    0.13
   4  -7   2   -0.01    0.12
   6   6  -2   -0.06    0.08
   5   6  -2    0.02    0.08
   4   6  -2    0.45    0.13
  -4  -6   2    0.52    0.16
   3   6  -2   21.48    0.85
  -3  -6   2   23.37    0.91
  -3  -6   2   22.19    0.92
  -3  -6   2   22.95    0.81
   2   6  -2    1.72    0.24
   2   6  -2    2.25    0.26
   2   6  -2    2.54    0.17
   2   6  -2    2.06    0.24
  -2  -6   2    2.37    0.28
  -2  -6   2    2.81    0.27
  -2  -6   2    2.27    0.26
  -2  -6   2    2.09    0.26
   1   6  -2   -0.06    0.06
   1   6  -2    0.00    0.06
   1   6  -2   -0.06    0.04
   1   6  -2   -0.03    0.07
   1   6  -2   -0.03    0.05
   1   6  -2    0.00    0.07
  -1  -6   2    0.02    0.03
  -1  -6   2    0.03    0.06
  -1  -6   2   -0.04    0.06
  -1  -6   2    0.01    0.02
  -1  -6   2   -0.02    0.06
  -1  -6   2    0.00    0.05
  -1  -6   2    0.05    0.06
   0   6  -2    0.82    0.17
   0   6  -2    0.69    0.12
   0   6  -2    0.79    0.14
   0   6  -2    0.55    0.12
   0   6  -2    0.85    0.13
   0   6  -2    0.84    0.17
   0   6  -2    0.87    0.17
   0  -6   2    0.56    0.11
   0  -6   2    0.81    0.14
   0  -6   2    0.82    0.16
   0  -6   2    1.07    0.17
   0  -6   2    0.79    0.15
   0  -6   2    0.72    0.15
   0  -6   2    0.83    0.10
  -1   6  -2   10.91    0.46
  -1   6  -2   11.87    0.62
  -1   6  -2   11.11    0.44
  -1   6  -2   11.96    0.45
  -1   6  -2   11.99    0.43
   1  -6   2   10.60    0.56
   1  -6   2   11.88    0.54
   1  -6   2   11.88    0.46
   1  -6   2   11.14    0.53
   1  -6   2   11.04    0.41
   1  -6   2   10.41    0.42
  -2   6  -2   30.55    1.19
  -2   6  -2   28.54    0.84
   2  -6   2   28.91    1.07
   2  -6   2   29.60    1.14
   2  -6   2   31.08    1.08
   3  -6   2    0.56    0.15
   3  -6   2    0.21    0.13
   3  -6   2    0.68    0.17
   3  -6   2    0.43    0.11
   4  -6   2    1.51    0.28
   4  -6   2    0.66    0.18
   4  -6   2    1.42    0.25
   5  -6   2    0.07    0.13
   5  -6   2    0.02    0.13
   5  -6   2    0.37    0.21
   6   5  -2    0.11    0.08
   5   5  -2    0.14    0.08
   4   5  -2    0.72    0.14
  -4  -5   2    0.69    0.15
  -4  -5   2    0.85    0.15
   3   5  -2    1.41    0.18
   3   5  -2    1.43    0.18
  -3  -5   2    1.20    0.21
  -3  -5   2    1.80    0.20
  -3  -5   2    1.46    0.19
  -3  -5   2    1.23    0.19
   2   5  -2    0.19    0.08
   2   5  -2    0.16    0.05
   2   5  -2    0.26    0.09
   2   5  -2    0.24    0.09
   2   5  -2    0.07    0.07
   2   5  -2    0.20    0.08
   2   5  -2    0.08    0.07
  -2  -5   2    0.33    0.10
  -2  -5   2    0.17    0.07
  -2  -5   2    0.37    0.11
  -2  -5   2    0.24    0.09
  -2  -5   2    0.12    0.08
   1   5  -2    1.31    0.16
   1   5  -2    1.48    0.20
   1   5  -2    1.74    0.15
   1   5  -2    1.52    0.19
   1   5  -2    1.55    0.20
   1   5  -2    2.09    0.21
   1   5  -2    1.55    0.20
  -1  -5   2    1.19    0.17
  -1  -5   2    1.90    0.20
  -1  -5   2    1.90    0.19
  -1  -5   2    1.97    0.22
  -1  -5   2    1.66    0.19
  -1  -5   2    1.94    0.21
  -1  -5   2    1.67    0.09
   0   5  -2    1.90    0.23
   0   5  -2    1.91    0.17
   0   5  -2    2.01    0.18
   0   5  -2    1.69    0.17
   0   5  -2    1.62    0.21
   0   5  -2    1.62    0.18
   0   5  -2    2.00    0.23
   0  -5   2    1.86    0.22
   0  -5   2    1.97    0.12
   0  -5   2    2.03    0.21
   0  -5   2    1.79    0.22
   0  -5   2    2.14    0.22
   0  -5   2    2.22    0.21
   0  -5   2    2.04    0.16
  -1   5  -2    1.44    0.14
  -1   5  -2    1.26    0.20
  -1   5  -2    1.33    0.15
  -1   5  -2    1.48    0.15
  -1   5  -2    1.35    0.21
  -1   5  -2    1.30    0.12
  -1   5  -2    1.47    0.21
   1  -5   2    1.65    0.20
   1  -5   2    1.84    0.23
   1  -5   2    1.72    0.16
   1  -5   2    1.05    0.16
   1  -5   2    1.62    0.15
   1  -5   2    1.47    0.14
  -2   5  -2    2.99    0.16
  -2   5  -2    3.13    0.33
   2  -5   2    3.26    0.31
   2  -5   2    3.00    0.18
   2  -5   2    2.52    0.29
   2  -5   2    2.64    0.27
   2  -5   2    2.92    0.28
  -3   5  -2    1.20    0.22
   3  -5   2    1.12    0.22
   3  -5   2    1.61    0.23
   3  -5   2    1.44    0.24
   3  -5   2    1.36    0.21
   4  -5   2    2.57    0.31
   4  -5   2    2.02    0.27
   4  -5   2    2.01    0.30
   5  -5   2    1.73    0.28
   5  -5   2    2.46    0.32
   5  -5   2    2.90    0.39
   6   4  -2    0.54    0.12
   5   4  -2   -0.02    0.06
   4   4  -2    0.34    0.09
  -4  -4   2    0.23    0.09
  -4  -4   2    0.19    0.10
  -4  -4   2    0.25    0.10
  -4  -4   2    0.17    0.07
   3   4  -2    3.56    0.22
   3   4  -2    3.45    0.22
   3   4  -2    3.41    0.23
   3   4  -2    2.95    0.28
   3   4  -2    3.45    0.20
   3   4  -2    3.17    0.21
   3   4  -2    3.27    0.32
  -3  -4   2    3.16    0.30
  -3  -4   2    3.55    0.23
  -3  -4   2    3.95    0.26
  -3  -4   2    2.88    0.30
  -3  -4   2    3.49    0.21
   2   4  -2  123.65    3.35
   2   4  -2  125.34    3.41
   2   4  -2  118.95    3.45
   2   4  -2  128.86    3.28
   2   4  -2  125.60    3.31
   2   4  -2  121.82    3.31
   2   4  -2  126.78    3.34
   2   4  -2  125.37    3.47
  -2  -4   2  123.35    3.47
  -2  -4   2  126.13    3.19
  -2  -4   2  126.05    3.29
  -2  -4   2  120.60    3.47
  -2  -4   2  120.42    3.33
   1   4  -2   19.50    0.72
   1   4  -2   20.24    0.68
   1   4  -2   20.50    0.73
   1   4  -2   20.91    0.75
   1   4  -2   20.19    0.72
   1   4  -2   20.72    0.71
   1   4  -2   21.56    0.58
   1   4  -2   21.27    0.73
   1   4  -2   20.70    0.75
  -1  -4   2   18.93    0.72
  -1  -4   2   21.29    0.73
  -1  -4   2   20.64    0.72
  -1  -4   2   20.47    0.66
  -1  -4   2   22.02    0.70
  -1  -4   2   21.41    0.68
  -1  -4   2   21.18    0.75
  -1  -4   2   21.53    0.53
   0   4  -2    7.99    0.39
   0   4  -2    7.79    0.34
   0   4  -2    7.38    0.31
   0   4  -2    8.44    0.41
   0   4  -2    8.50    0.39
   0   4  -2    8.06    0.33
   0   4  -2    8.75    0.41
   0   4  -2    8.20    0.30
   0   4  -2    5.98    0.35
   0  -4   2    7.32    0.37
   0  -4   2    7.80    0.35
   0  -4   2    8.51    0.39
   0  -4   2    8.26    0.27
   0  -4   2    8.16    0.35
   0  -4   2    8.01    0.32
   0  -4   2    8.13    0.35
  -1   4  -2   10.88    0.49
  -1   4  -2   11.34    0.38
  -1   4  -2   10.67    0.51
  -1   4  -2   11.41    0.52
  -1   4  -2   11.67    0.37
  -1   4  -2   11.11    0.40
  -1   4  -2   11.27    0.49
  -1   4  -2   11.11    0.38
   1  -4   2   11.42    0.37
   1  -4   2   10.91    0.39
   1  -4   2   11.13    0.47
   1  -4   2   11.26    0.51
   1  -4   2   11.75    0.47
   1  -4   2   12.09    0.51
   1  -4   2   11.26    0.37
  -2   4  -2    0.04    0.03
  -2   4  -2    0.02    0.03
  -2   4  -2   -0.01    0.03
  -2   4  -2    0.01    0.07
  -2   4  -2   -0.02    0.07
   2  -4   2    0.01    0.03
   2  -4   2    0.02    0.07
   2  -4   2   -0.05    0.04
   2  -4   2    0.07    0.03
   2  -4   2    0.00    0.05
   2  -4   2    0.11    0.07
   2  -4   2    0.01    0.05
  -3   4  -2   33.23    1.20
   3  -4   2   34.27    1.13
   3  -4   2   32.94    1.15
   3  -4   2   33.65    1.22
   4  -4   2    0.40    0.12
   4  -4   2    0.14    0.12
   4  -4   2    0.32    0.14
   5  -4   2    5.22    0.38
   5  -4   2    5.85    0.45
   6  -4   2    1.54    0.26
   6  -4   2    1.27    0.29
   6   3  -2    0.33    0.10
   5   3  -2    0.69    0.11
  -5  -3   2    0.44    0.15
   4   3  -2    0.02    0.06
   4   3  -2    0.00    0.04
   4   3  -2    0.06    0.05
  -4  -3   2    0.04    0.06
  -4  -3   2   -0.01    0.07
  -4  -3   2    0.02    0.06
  -4  -3   2    0.00    0.05
   3   3  -2    0.06    0.05
   3   3  -2    0.06    0.05
   3   3  -2    0.05    0.06
   3   3  -2    0.05    0.05
   3   3  -2    0.03    0.04
   3   3  -2    0.06    0.04
   3   3  -2    0.02    0.03
   3   3  -2    0.05    0.06
   3   3  -2    0.01    0.03
  -3  -3   2    0.07    0.06
  -3  -3   2    0.05    0.05
  -3  -3   2    0.05    0.05
  -3  -3   2    0.05    0.04
  -3  -3   2   -0.04    0.04
   2   3  -2   35.63    1.07
   2   3  -2   34.00    1.08
   2   3  -2   36.47    1.01
   2   3  -2   34.44    1.06
   2   3  -2   34.99    1.05
   2   3  -2   33.04    1.03
   2   3  -2   35.27    1.09
   2   3  -2   36.26    1.07
  -2  -3   2   33.29    1.07
  -2  -3   2   33.88    1.09
  -2  -3   2   35.90    1.08
  -2  -3   2   35.89    1.08
  -2  -3   2   34.83    0.97
   1   3  -2    4.91    0.25
   1   3  -2    5.85    0.27
   1   3  -2    5.17    0.26
   1   3  -2    5.24    0.27
   1   3  -2    5.79    0.27
   1   3  -2    5.30    0.19
   1   3  -2    5.10    0.27
   1   3  -2    5.35    0.25
  -1  -3   2    5.09    0.23
  -1  -3   2    5.25    0.26
  -1  -3   2    5.26    0.25
  -1  -3   2    5.91    0.23
  -1  -3   2    5.19    0.25
  -1  -3   2    5.36    0.15
  -1  -3   2    5.14    0.25
  -1  -3   2    5.53    0.27
  -1  -3   2    5.47    0.27
   0   3  -2    8.45    0.33
   0   3  -2    8.25    0.36
   0   3  -2    8.67    0.29
   0   3  -2    8.14    0.30
   0   3  -2    8.08    0.36
   0   3  -2    8.51    0.31
   0   3  -2    9.32    0.38
   0  -3   2    8.40    0.33
   0  -3   2    8.12    0.35
   0  -3   2    8.46    0.37
   0  -3   2    8.33    0.30
   0  -3   2    8.20    0.26
   0  -3   2    8.62    0.36
   0  -3   2    8.12    0.33
   0  -3   2    8.67    0.33
  -1   3  -2   40.56    1.04
  -1   3  -2   40.41    1.21
  -1   3  -2   40.34    1.26
  -1   3  -2   40.38    1.01
  -1   3  -2   39.32    1.03
  -1   3  -2   39.34    1.22
  -1   3  -2   40.81    1.26
   1  -3   2   39.93    1.08
   1  -3   2   39.53    1.17
   1  -3   2   41.17    1.00
   1  -3   2   39.84    1.04
   1  -3   2   40.47    1.26
   1  -3   2   39.11    1.17
   1  -3   2   38.56    1.22
  -2   3  -2   48.10    1.50
  -2   3  -2   49.04    1.51
   2  -3   2   47.36    1.32
   2  -3   2   47.26    1.20
   2  -3   2   48.51    1.20
   2  -3   2   48.00    1.23
   2  -3   2   48.91    1.53
   2  -3   2   46.14    1.41
  -3   3  -2    0.03    0.08
  -3   3  -2    0.19    0.09
  -3   3  -2    0.13    0.04
   3  -3   2    0.15    0.03
   3  -3   2   -0.01    0.05
   3  -3   2    0.11    0.03
   3  -3   2    0.13    0.08
   4  -3   2    8.21    0.50
   4  -3   2    8.56    0.43
   5  -3   2    0.19    0.10
   6  -3   2    1.23    0.22
   6   2  -2    1.02    0.15
   5   2  -2    1.28    0.15
  -5  -2   2    0.96    0.18
   4   2  -2    0.29    0.11
   4   2  -2    0.42    0.13
   4   2  -2    0.51    0.10
   4   2  -2    0.40    0.07
   4   2  -2    0.44    0.08
  -4  -2   2    0.38    0.08
  -4  -2   2    0.38    0.11
  -4  -2   2    0.31    0.12
  -4  -2   2    0.53    0.10
   3   2  -2    0.34    0.07
   3   2  -2    0.50    0.11
   3   2  -2    0.51    0.07
   3   2  -2    0.49    0.07
   3   2  -2    0.22    0.07
   3   2  -2    0.39    0.11
   3   2  -2    0.45    0.07
  -3  -2   2    0.25    0.09
  -3  -2   2    0.32    0.07
  -3  -2   2    0.55    0.08
  -3  -2   2    0.34    0.08
  -3  -2   2    0.46    0.11
   2   2  -2    0.54    0.07
   2   2  -2    0.46    0.09
   2   2  -2    0.52    0.07
   2   2  -2    0.43    0.09
   2   2  -2    0.46    0.07
   2   2  -2    0.38    0.06
   2   2  -2    0.50    0.10
  -2  -2   2    0.41    0.06
  -2  -2   2    0.37    0.08
  -2  -2   2    0.39    0.08
  -2  -2   2    0.45    0.07
  -2  -2   2    0.48    0.07
   1   2  -2    0.03    0.03
   1   2  -2    0.04    0.04
   1   2  -2    0.06    0.04
   1   2  -2    0.02    0.03
   1   2  -2    0.11    0.05
   1   2  -2   -0.04    0.03
   1   2  -2    0.04    0.04
   1   2  -2    0.05    0.03
  -1  -2   2    0.06    0.03
  -1  -2   2   -0.01    0.03
  -1  -2   2    0.00    0.02
  -1  -2   2    0.04    0.04
  -1  -2   2    0.08    0.04
   0   2  -2   11.09    0.32
   0   2  -2   11.22    0.34
   0   2  -2   10.34    0.40
   0   2  -2   11.48    0.41
   0   2  -2   11.16    0.37
   0   2  -2   11.13    0.40
   0  -2   2   11.04    0.36
   0  -2   2   11.17    0.35
   0  -2   2   10.48    0.37
   0  -2   2   12.39    0.41
   0  -2   2   10.83    0.37
   0  -2   2   10.64    0.39
   0  -2   2   11.25    0.31
   0  -2   2   10.94    0.41
  -1   2  -2   23.55    0.75
  -1   2  -2   23.23    0.77
  -1   2  -2   23.75    0.73
  -1   2  -2   22.96    0.77
  -1   2  -2   23.98    0.60
  -1   2  -2   23.79    0.60
  -1   2  -2   23.84    0.60
   1  -2   2   24.92    0.72
   1  -2   2   23.55    0.66
   1  -2   2   23.81    0.60
   1  -2   2   24.51    0.70
   1  -2   2   24.04    0.61
   1  -2   2   24.19    0.72
   1  -2   2   23.89    0.79
   1  -2   2   22.96    0.75
  -2   2  -2   37.82    1.15
  -2   2  -2   35.12    1.13
  -2   2  -2   36.24    0.93
   2  -2   2   36.53    1.09
   2  -2   2   36.50    0.93
   2  -2   2   36.29    1.04
   2  -2   2   37.40    1.07
   2  -2   2   36.42    1.12
   2  -2   2   36.87    0.93
  -3   2  -2   23.52    0.82
  -3   2  -2   23.89    0.83
  -3   2  -2   23.21    0.67
   3  -2   2   22.94    0.66
   3  -2   2   23.92    0.67
   3  -2   2   24.64    0.73
   3  -2   2   23.16    0.77
   3  -2   2   23.79    0.79
   3  -2   2   24.41    0.67
  -4   2  -2   -0.09    0.06
   4  -2   2   -0.05    0.06
   5  -2   2    0.29    0.10
   5  -2   2    0.28    0.14
   6  -2   2    0.30    0.11
   6   1  -2    2.57    0.24
   5   1  -2    2.98    0.21
   4   1  -2    0.06    0.08
   4   1  -2    0.14    0.09
   4   1  -2    0.11    0.07
   4   1  -2    0.08    0.06
   4   1  -2    0.14    0.03
   4   1  -2    0.11    0.05
   4   1  -2    0.10    0.05
  -4  -1   2    0.17    0.06
  -4  -1   2    0.11    0.07
  -4  -1   2    0.03    0.06
   3   1  -2   21.59    0.76
   3   1  -2   21.83    0.71
   3   1  -2   21.18    0.72
   3   1  -2   21.83    0.65
   3   1  -2   21.09    0.65
   3   1  -2   22.11    0.66
  -3  -1   2   22.01    0.65
  -3  -1   2   20.47    0.75
  -3  -1   2   21.63    0.70
   2   1  -2   32.12    0.91
   2   1  -2   31.84    0.95
   2   1  -2   29.62    0.88
   2   1  -2   31.50    0.93
   2   1  -2   31.97    0.93
   2   1  -2   33.78    0.88
  -2  -1   2   31.23    0.93
  -2  -1   2   30.42    0.84
  -2  -1   2   31.16    0.95
  -2  -1   2   30.95    0.94
  -2  -1   2   30.61    0.91
   1   1  -2  113.42    2.95
   1   1  -2  115.29    2.94
   1   1  -2  118.86    3.01
   1   1  -2  109.76    3.07
   1   1  -2  111.57    2.88
   1   1  -2  111.58    2.89
  -1  -1   2  114.58    3.07
  -1  -1   2  113.60    2.78
  -1  -1   2  111.76    2.88
  -1  -1   2  112.69    3.01
   0   1  -2   16.00    0.50
   0   1  -2   16.25    0.42
   0   1  -2   15.22    0.51
   0  -1   2   16.10    0.48
   0  -1   2   16.46    0.41
   0  -1   2   16.80    0.48
   0  -1   2   16.52    0.50
   0  -1   2   16.48    0.50
   0  -1   2   16.37    0.45
  -1   1  -2    2.94    0.15
  -1   1  -2    3.18    0.16
   1  -1   2    3.11    0.15
   1  -1   2    3.03    0.14
   1  -1   2    3.07    0.15
   1  -1   2    2.97    0.14
   1  -1   2    3.13    0.15
  -2   1  -2   19.95    0.54
  -2   1  -2   19.66    0.63
  -2   1  -2   18.67    0.63
   2  -1   2   19.52    0.62
   2  -1   2   19.59    0.54
   2  -1   2   19.16    0.55
   2  -1   2   19.82    0.59
   2  -1   2   20.72    0.61
  -3   1  -2   36.57    1.09
  -3   1  -2   34.26    1.09
  -3   1  -2   35.64    1.00
   3  -1   2   36.52    1.00
   3  -1   2   35.89    0.99
   3  -1   2   35.94    1.02
   3  -1   2   34.36    1.00
   3  -1   2   36.31    1.04
  -4   1  -2    0.10    0.07
  -4   1  -2    0.06    0.06
  -4   1  -2    0.07    0.05
   4  -1   2    0.03    0.04
   4  -1   2    0.05    0.06
   4  -1   2    0.02    0.05
   5  -1   2   -0.02    0.05
   6  -1   2    0.74    0.14
   6   0  -2   -0.08    0.06
   5   0  -2    0.03    0.06
   4   0  -2    0.04    0.05
   4   0  -2    0.06    0.04
   4   0  -2   -0.02    0.06
   4   0  -2    0.06    0.06
   4   0  -2    0.02    0.06
  -4   0   2    0.07    0.06
  -4   0   2    0.18    0.09
  -4   0   2    0.10    0.05
   3   0  -2    0.04    0.04
   3   0  -2   -0.03    0.03
   3   0  -2    0.01    0.04
   3   0  -2    0.01    0.03
   3   0  -2    0.02    0.03
   3   0  -2    0.04    0.05
  -3   0   2   -0.01    0.04
  -3   0   2    0.02    0.04
  -3   0   2   -0.01    0.03
   2   0  -2   39.29    1.10
   2   0  -2   40.05    1.13
   2   0  -2   39.14    1.09
   2   0  -2   38.53    1.12
   2   0  -2   39.80    1.08
   2   0  -2   39.51    1.15
  -2   0   2   38.74    1.16
  -2   0   2   38.97    1.09
  -2   0   2   39.28    1.12
   1   0  -2   45.40    1.32
   1   0  -2   46.19    1.17
   1   0  -2   46.11    1.25
   1   0  -2   46.31    1.24
   1   0  -2   46.89    1.25
   1   0  -2   47.04    1.25
   1   0  -2   46.05    1.22
  -1   0   2   47.58    1.25
  -1   0   2   46.87    1.23
  -1   0   2   46.75    1.32
   0   0  -2  210.40    6.14
   0   0  -2  234.06    5.73
   0   0  -2  241.00    5.91
   0   0  -2  248.64    5.25
   0   0  -2  219.84    5.66
   0   0  -2  229.59    6.11
   0   0   2  234.62    5.23
   0   0   2  242.96    5.73
   0   0   2  222.13    6.14
  -1   0  -2  111.81    2.74
  -1   0  -2  109.29    2.96
  -1   0  -2  111.65    2.79
  -1   0  -2  111.44    2.90
   1   0   2  110.26    2.91
   1   0   2  111.25    2.84
   1   0   2  113.77    2.83
   1   0   2  108.42    2.73
   1   0   2  109.02    2.95
   1   0   2  109.21    3.01
  -2   0  -2    1.27    0.14
  -2   0  -2    1.03    0.07
   2   0   2    1.13    0.05
   2   0   2    1.14    0.08
   2   0   2    0.93    0.10
   2   0   2    1.11    0.05
   2   0   2    1.11    0.10
   2   0   2    1.08    0.07
   2   0   2    1.23    0.14
  -3   0  -2    0.27    0.05
  -3   0  -2    0.28    0.05
  -3   0  -2    0.38    0.07
  -3   0  -2    0.23    0.08
   3   0   2    0.27    0.09
   3   0   2    0.19    0.06
   3   0   2    0.35    0.07
   3   0   2    0.25    0.04
   3   0   2    0.43    0.08
   3   0   2    0.26    0.04
  -4   0  -2    8.82    0.44
  -4   0  -2    9.26    0.35
  -4   0  -2    8.72    0.34
  -4   0  -2    9.45    0.40
   4   0   2    8.38    0.38
   4   0   2    8.88    0.32
   4   0   2    9.33    0.33
   4   0   2    8.56    0.40
   4   0   2    8.96    0.39
  -5   0  -2    6.74    0.32
   5   0   2    6.58    0.29
   6   0   2    0.64    0.12
   6  -1  -2    0.60    0.14
   5  -1  -2    0.02    0.06
   4  -1  -2    0.08    0.08
   4  -1  -2    0.07    0.08
   4  -1  -2    0.09    0.06
   4  -1  -2    0.09    0.07
  -4   1   2    0.14    0.08
   3  -1  -2    0.49    0.09
   3  -1  -2    0.37    0.07
   3  -1  -2    0.51    0.10
   3  -1  -2    0.42    0.09
   3  -1  -2    0.59    0.10
   3  -1  -2    0.44    0.08
  -3   1   2    0.45    0.10
  -3   1   2    0.38    0.07
  -3   1   2    0.51    0.10
   2  -1  -2  118.00    3.24
   2  -1  -2  119.45    3.28
   2  -1  -2  119.50    3.15
   2  -1  -2  121.07    3.15
   2  -1  -2  117.05    3.05
  -2   1   2  117.05    3.00
  -2   1   2  119.76    3.30
  -2   1   2  119.85    3.07
   1  -1  -2   49.06    1.46
   1  -1  -2   51.52    1.35
   1  -1  -2   50.70    1.41
   1  -1  -2   52.11    1.40
   1  -1  -2   49.82    1.32
  -1   1   2   50.96    1.39
  -1   1   2   51.16    1.47
  -1   1   2   51.28    1.35
  -1   1   2   50.33    1.42
  -1   1   2   52.03    1.18
   0  -1  -2    2.11    0.11
   0  -1  -2    2.06    0.08
   0  -1  -2    2.13    0.11
   0  -1  -2    2.27    0.11
   0  -1  -2    2.15    0.10
   0  -1  -2    2.06    0.12
   0   1   2    1.93    0.12
   0   1   2    2.20    0.11
   0   1   2    2.36    0.11
   0   1   2    1.74    0.10
   0   1   2    2.16    0.08
  -1  -1  -2    5.74    0.21
  -1  -1  -2    5.75    0.23
  -1  -1  -2    5.64    0.20
  -1  -1  -2    5.29    0.24
   1   1   2    5.62    0.17
   1   1   2    5.75    0.20
   1   1   2    5.81    0.17
   1   1   2    5.60    0.24
   1   1   2    5.79    0.21
  -2  -1  -2    0.68    0.10
  -2  -1  -2    0.61    0.04
  -2  -1  -2    0.58    0.08
  -2  -1  -2    0.71    0.11
   2   1   2    0.53    0.08
   2   1   2    0.61    0.08
   2   1   2    0.55    0.10
   2   1   2    0.50    0.08
  -3  -1  -2    0.40    0.10
   3   1   2    0.48    0.10
   3   1   2    0.61    0.10
   3   1   2    0.44    0.10
   3   1   2    0.33    0.09
   3   1   2    0.58    0.04
  -4  -1  -2    0.23    0.09
   4   1   2    0.19    0.08
   4   1   2    0.16    0.08
   4   1   2    0.24    0.10
  -5  -1  -2    0.49    0.15
   5   1   2    0.47    0.06
   5   1   2    0.39    0.13
   5   1   2    0.53    0.07
   5   1   2    0.44    0.13
   6   1   2    0.65    0.10
   7   1   2    0.35    0.10
   6  -2  -2    0.84    0.18
   5  -2  -2    3.24    0.34
   5  -2  -2    3.26    0.26
   4  -2  -2    2.20    0.23
   4  -2  -2    2.25    0.24
   4  -2  -2    2.73    0.26
   4  -2  -2    2.74    0.27
  -4   2   2    2.24    0.25
   3  -2  -2    1.89    0.20
   3  -2  -2    1.71    0.18
   3  -2  -2    1.78    0.18
   3  -2  -2    1.66    0.18
   3  -2  -2    2.23    0.19
  -3   2   2    1.70    0.19
  -3   2   2    1.89    0.22
   2  -2  -2    4.55    0.23
   2  -2  -2    4.58    0.19
   2  -2  -2    4.18    0.25
   2  -2  -2    4.59    0.23
   2  -2  -2    4.25    0.23
   2  -2  -2    4.36    0.24
  -2   2   2    4.36    0.23
  -2   2   2    4.38    0.14
  -2   2   2    3.97    0.25
   1  -2  -2   22.06    0.58
   1  -2  -2   21.84    0.68
   1  -2  -2   20.91    0.63
   1  -2  -2   20.45    0.68
   1  -2  -2   20.48    0.72
   1  -2  -2   20.58    0.64
  -1   2   2   22.83    0.74
  -1   2   2   21.62    0.69
  -1   2   2   22.86    0.69
  -1   2   2   21.14    0.65
  -1   2   2   21.14    0.55
   0  -2  -2   52.55    1.42
   0  -2  -2   54.88    1.28
   0  -2  -2   54.36    1.42
   0  -2  -2   53.19    1.54
   0  -2  -2   54.47    1.56
   0  -2  -2   53.68    1.47
   0   2   2   54.41    1.28
   0   2   2   55.20    1.57
   0   2   2   54.69    1.54
   0   2   2   55.29    1.43
   0   2   2   53.92    1.49
  -1  -2  -2   15.67    0.54
  -1  -2  -2   14.94    0.49
  -1  -2  -2   14.88    0.48
  -1  -2  -2   14.64    0.49
  -1  -2  -2   14.75    0.50
   1   2   2   15.71    0.53
   1   2   2   15.86    0.50
   1   2   2   15.55    0.46
   1   2   2   15.67    0.47
   1   2   2   15.63    0.49
   1   2   2   15.53    0.51
  -2  -2  -2    0.07    0.04
  -2  -2  -2    0.09    0.04
  -2  -2  -2    0.07    0.04
  -2  -2  -2    0.16    0.03
   2   2   2    0.04    0.04
   2   2   2    0.16    0.06
   2   2   2    0.14    0.05
   2   2   2    0.07    0.02
   2   2   2    0.07    0.02
   2   2   2    0.04    0.04
   2   2   2    0.08    0.01
  -3  -2  -2    8.17    0.39
  -3  -2  -2    9.61    0.41
  -3  -2  -2    9.19    0.44
   3   2   2    9.31    0.44
   3   2   2    9.53    0.42
   3   2   2    9.26    0.40
   3   2   2    9.52    0.42
  -4  -2  -2    6.08    0.35
  -4  -2  -2    5.61    0.37
   4   2   2    6.42    0.37
   4   2   2    5.83    0.37
   4   2   2    6.28    0.35
  -5  -2  -2    0.03    0.08
  -6  -2  -2    1.04    0.22
   6   2   2    0.97    0.09
   7   2   2    0.13    0.06
   6  -3  -2   -0.07    0.09
   5  -3  -2    1.58    0.25
   5  -3  -2    1.37    0.22
   4  -3  -2    6.15    0.38
   4  -3  -2    6.17    0.37
   4  -3  -2    6.37    0.37
   3  -3  -2    7.82    0.41
   3  -3  -2    7.81    0.36
   3  -3  -2    8.42    0.41
   3  -3  -2    7.91    0.39
  -3   3   2    7.88    0.38
   2  -3  -2   14.93    0.56
   2  -3  -2   15.43    0.59
   2  -3  -2   14.34    0.61
   2  -3  -2   16.18    0.49
   2  -3  -2   15.10    0.52
   2  -3  -2   15.86    0.59
  -2   3   2   15.17    0.54
  -2   3   2   15.68    0.65
   1  -3  -2    0.99    0.12
   1  -3  -2    1.00    0.14
   1  -3  -2    1.06    0.13
   1  -3  -2    0.81    0.11
   1  -3  -2    1.05    0.10
   1  -3  -2    0.96    0.10
  -1   3   2    1.04    0.09
  -1   3   2    0.88    0.08
  -1   3   2    1.07    0.12
  -1   3   2    0.89    0.15
  -1   3   2    0.96    0.13
  -1   3   2    0.77    0.12
   0  -3  -2    0.38    0.07
   0  -3  -2    0.43    0.07
   0  -3  -2    0.51    0.09
   0  -3  -2    0.48    0.09
   0  -3  -2    0.49    0.06
   0  -3  -2    0.53    0.08
   0   3   2    0.36    0.07
   0   3   2    0.49    0.09
   0   3   2    0.34    0.07
   0   3   2    0.42    0.06
  -1  -3  -2   10.59    0.41
  -1  -3  -2   12.21    0.43
  -1  -3  -2   11.28    0.42
  -1  -3  -2   12.16    0.45
  -1  -3  -2   11.67    0.46
   1   3   2   11.05    0.43
   1   3   2   11.57    0.40
   1   3   2   11.14    0.45
   1   3   2   12.24    0.43
   1   3   2   11.44    0.45
   1   3   2   11.20    0.41
  -2  -3  -2    1.19    0.08
  -2  -3  -2    1.31    0.15
  -2  -3  -2    1.00    0.14
  -2  -3  -2    1.22    0.15
  -2  -3  -2    1.42    0.17
  -2  -3  -2    1.44    0.11
   2   3   2    1.22    0.10
   2   3   2    1.38    0.09
   2   3   2    1.20    0.08
   2   3   2    1.35    0.10
   2   3   2    1.27    0.14
   2   3   2    1.11    0.15
   2   3   2    1.08    0.14
   2   3   2    1.26    0.16
  -3  -3  -2   15.09    0.58
  -3  -3  -2   14.51    0.62
  -3  -3  -2   13.63    0.57
   3   3   2   15.46    0.61
   3   3   2   14.67    0.61
   3   3   2   15.07    0.42
   3   3   2   15.22    0.58
   3   3   2   14.63    0.60
   3   3   2   14.80    0.43
  -4  -3  -2    3.69    0.31
  -4  -3  -2    3.93    0.28
   4   3   2    4.22    0.31
   4   3   2    4.19    0.29
  -5  -3  -2    0.48    0.15
  -5  -3  -2    0.65    0.17
   7   3   2   -0.05    0.04
   5  -4  -2    0.60    0.17
   5  -4  -2    0.66    0.19
   4  -4  -2    6.89    0.42
   4  -4  -2    5.85    0.39
   4  -4  -2    6.21    0.40
   3  -4  -2   11.68    0.54
   3  -4  -2   10.90    0.44
   3  -4  -2   11.61    0.52
   3  -4  -2   10.60    0.52
  -3   4   2   11.74    0.53
   2  -4  -2    0.60    0.13
   2  -4  -2    0.34    0.08
   2  -4  -2    0.34    0.11
   2  -4  -2    0.32    0.09
   2  -4  -2    0.36    0.08
   2  -4  -2    0.39    0.11
  -2   4   2    0.50    0.10
  -2   4   2    0.42    0.06
  -2   4   2    0.37    0.12
   1  -4  -2    1.45    0.17
   1  -4  -2    1.54    0.18
   1  -4  -2    1.72    0.21
   1  -4  -2    1.75    0.14
   1  -4  -2    1.60    0.19
   1  -4  -2    1.82    0.12
  -1   4   2    1.58    0.12
  -1   4   2    1.72    0.17
  -1   4   2    1.47    0.18
  -1   4   2    1.67    0.11
  -1   4   2    1.62    0.20
  -1   4   2    1.62    0.21
   0  -4  -2   10.13    0.40
   0  -4  -2    9.66    0.31
   0  -4  -2    9.03    0.42
   0  -4  -2    9.82    0.43
   0  -4  -2    9.53    0.38
   0  -4  -2    9.50    0.39
   0  -4  -2    8.93    0.44
   0   4   2    9.40    0.32
   0   4   2    9.62    0.38
   0   4   2    9.57    0.45
   0   4   2    9.10    0.42
  -1  -4  -2    2.12    0.20
  -1  -4  -2    1.90    0.16
  -1  -4  -2    1.96    0.14
  -1  -4  -2    1.56    0.18
  -1  -4  -2    1.94    0.20
  -1  -4  -2    1.93    0.07
  -1  -4  -2    1.81    0.18
   1   4   2    2.02    0.20
   1   4   2    1.68    0.17
   1   4   2    1.75    0.18
   1   4   2    1.71    0.17
   1   4   2    1.65    0.18
   1   4   2    1.70    0.10
  -2  -4  -2    0.62    0.13
  -2  -4  -2    0.58    0.09
  -2  -4  -2    0.30    0.09
  -2  -4  -2    0.52    0.11
  -2  -4  -2    0.35    0.11
  -2  -4  -2    0.53    0.10
   2   4   2    0.39    0.11
   2   4   2    0.46    0.09
   2   4   2    0.44    0.09
   2   4   2    0.51    0.12
   2   4   2    0.53    0.09
   2   4   2    0.38    0.10
   2   4   2    0.29    0.09
  -3  -4  -2    3.75    0.28
  -3  -4  -2    3.58    0.27
  -3  -4  -2    3.73    0.29
  -3  -4  -2    4.34    0.28
   3   4   2    4.15    0.20
   3   4   2    3.58    0.28
   3   4   2    3.92    0.19
   3   4   2    3.81    0.27
   3   4   2    3.88    0.18
  -4  -4  -2    0.42    0.13
  -4  -4  -2    0.30    0.11
   4   4   2    0.35    0.06
   4   4   2    0.28    0.05
  -5  -4  -2    1.35    0.22
  -5  -4  -2    1.15    0.23
   5   4   2    1.13    0.08
   5   4   2    1.21    0.09
   6   4   2   -0.03    0.04
   7   4   2    0.08    0.05
   5  -5  -2    0.26    0.15
   5  -5  -2    0.41    0.16
   4  -5  -2    0.10    0.11
   4  -5  -2    0.00    0.10
   4  -5  -2    0.05    0.11
   3  -5  -2    2.89    0.32
   3  -5  -2    3.07    0.26
   3  -5  -2    3.44    0.33
   3  -5  -2    3.49    0.34
   2  -5  -2    1.04    0.19
   2  -5  -2    1.52    0.16
   2  -5  -2    1.59    0.21
   2  -5  -2    1.25    0.19
   2  -5  -2    0.99    0.13
  -2   5   2    1.64    0.19
  -2   5   2    1.23    0.12
   1  -5  -2   20.29    0.73
   1  -5  -2   20.36    0.83
   1  -5  -2   20.48    0.67
   1  -5  -2   20.41    0.80
   1  -5  -2   20.07    0.61
   1  -5  -2   17.29    0.73
   1  -5  -2   19.95    0.78
  -1   5   2   20.55    0.84
  -1   5   2   19.64    0.61
  -1   5   2   20.41    0.78
  -1   5   2   20.08    0.69
  -1   5   2   19.61    0.63
   0  -5  -2   51.09    1.47
   0  -5  -2   47.67    1.58
   0  -5  -2   49.92    1.56
   0  -5  -2   47.96    1.40
   0  -5  -2   50.05    1.55
   0  -5  -2   51.77    1.23
   0  -5  -2   48.76    1.43
   0  -5  -2   48.81    1.46
   0   5   2   42.30    1.39
   0   5   2   49.16    1.40
   0   5   2   49.24    1.26
  -1  -5  -2    7.17    0.22
  -1  -5  -2    6.89    0.35
  -1  -5  -2    7.23    0.33
  -1  -5  -2    6.39    0.38
  -1  -5  -2    7.06    0.37
  -1  -5  -2    7.78    0.41
  -1  -5  -2    6.88    0.35
   1   5   2    7.02    0.27
   1   5   2    8.19    0.37
   1   5   2    7.27    0.38
   1   5   2    7.05    0.37
  -2  -5  -2    0.55    0.12
  -2  -5  -2    0.66    0.13
  -2  -5  -2    0.41    0.11
  -2  -5  -2    0.53    0.13
  -2  -5  -2    0.34    0.09
  -2  -5  -2    0.70    0.14
   2   5   2    0.67    0.15
   2   5   2    0.45    0.10
   2   5   2    0.46    0.10
   2   5   2    0.52    0.10
   2   5   2    0.49    0.11
  -3  -5  -2   -0.12    0.06
  -3  -5  -2    0.00    0.06
  -3  -5  -2    0.01    0.07
  -3  -5  -2   -0.03    0.06
   3   5   2   -0.04    0.06
   3   5   2   -0.01    0.04
   3   5   2   -0.02    0.05
  -4  -5  -2    2.24    0.28
  -4  -5  -2    1.58    0.24
   4   5   2    1.86    0.18
  -5  -5  -2    1.54    0.26
  -5  -5  -2    1.51    0.24
   5   5   2    2.12    0.16
   6   5   2    0.04    0.06
   5  -6  -2   -0.06    0.12
   4  -6  -2    1.55    0.28
   4  -6  -2    1.71    0.28
   3  -6  -2    0.18    0.10
   3  -6  -2    0.05    0.09
   3  -6  -2    0.01    0.07
   3  -6  -2    0.06    0.09
   2  -6  -2    4.27    0.34
   2  -6  -2    4.29    0.31
   2  -6  -2    4.09    0.25
   2  -6  -2    4.28    0.33
  -2   6   2    4.52    0.23
   1  -6  -2    1.34    0.17
   1  -6  -2    1.12    0.21
   1  -6  -2    0.99    0.17
   1  -6  -2    1.22    0.20
   1  -6  -2    0.97    0.12
   1  -6  -2    1.23    0.19
  -1   6   2    0.97    0.19
  -1   6   2    1.15    0.17
  -1   6   2    0.97    0.13
   0  -6  -2    2.92    0.24
   0  -6  -2    3.28    0.28
   0  -6  -2    3.30    0.25
   0  -6  -2    3.68    0.35
   0  -6  -2    3.38    0.35
   0  -6  -2    3.50    0.26
   0  -6  -2    3.49    0.24
   0  -6  -2    3.37    0.18
   0   6   2    3.14    0.32
   0   6   2    3.04    0.23
   0   6   2    3.25    0.20
   0   6   2    2.83    0.23
  -1  -6  -2    7.71    0.41
  -1  -6  -2    6.70    0.43
  -1  -6  -2    8.14    0.25
  -1  -6  -2    7.86    0.41
  -1  -6  -2    8.19    0.46
  -1  -6  -2    8.55    0.44
   1   6   2    7.58    0.43
   1   6   2    8.30    0.40
   1   6   2    7.84    0.44
   1   6   2    7.73    0.32
  -2  -6  -2    0.02    0.07
  -2  -6  -2    0.01    0.06
  -2  -6  -2   -0.04    0.05
  -2  -6  -2   -0.06    0.07
  -2  -6  -2   -0.04    0.06
  -2  -6  -2    0.00    0.06
   2   6   2   -0.07    0.05
   2   6   2    0.05    0.06
   2   6   2    0.03    0.07
  -3  -6  -2    0.69    0.17
  -3  -6  -2    1.03    0.14
  -3  -6  -2    1.17    0.21
  -3  -6  -2    0.82    0.17
   3   6   2    0.73    0.14
  -4  -6  -2   -0.04    0.09
  -4  -6  -2    0.04    0.10
   4   6   2   -0.05    0.05
  -5  -6  -2    0.05    0.10
   5   6   2    0.05    0.07
   6   6   2    0.00    0.07
   4  -7  -2    1.66    0.29
   4  -7  -2    2.66    0.38
   3  -7  -2    3.30    0.37
   3  -7  -2    3.81    0.33
   3  -7  -2    4.07    0.44
   2  -7  -2    0.59    0.17
   2  -7  -2    0.33    0.10
   2  -7  -2    0.27    0.12
  -2   7   2    0.24    0.08
   1  -7  -2    0.01    0.09
   1  -7  -2   -0.06    0.07
   1  -7  -2   -0.07    0.05
   1  -7  -2   -0.01    0.05
   1  -7  -2    0.00    0.07
   1  -7  -2    0.04    0.07
  -1   7   2   -0.04    0.07
  -1   7   2   -0.02    0.05
   0  -7  -2    0.06    0.08
   0  -7  -2    0.16    0.09
   0  -7  -2    0.12    0.06
   0  -7  -2    0.05    0.08
   0  -7  -2    0.20    0.13
   0   7   2   -0.04    0.08
   0   7   2    0.21    0.09
   0   7   2   -0.02    0.08
   0   7   2    0.11    0.07
  -1  -7  -2   10.25    0.52
  -1  -7  -2   10.32    0.57
  -1  -7  -2   10.58    0.32
  -1  -7  -2   10.48    0.58
   1   7   2   10.20    0.41
   1   7   2    9.84    0.55
  -2  -7  -2    0.50    0.15
  -2  -7  -2    0.51    0.15
   2   7   2    0.31    0.13
  -3  -7  -2    0.81    0.21
  -3  -7  -2    0.78    0.18
   3   7   2    0.57    0.15
  -4  -7  -2    0.11    0.10
   4   7   2    0.03    0.07
  -5  -7  -2   -0.04    0.12
   5   7   2    0.04    0.08
   6   7   2    0.15    0.11
   3  -8  -2    2.16    0.25
   3  -8  -2    2.42    0.35
   2  -8  -2    1.50    0.19
   2  -8  -2    1.67    0.28
  -2   8   2    2.29    0.22
   1  -8  -2   -0.01    0.10
   1  -8  -2   -0.02    0.05
  -1   8   2    0.00    0.06
   0  -8  -2    0.13    0.05
   0  -8  -2    0.33    0.08
   0  -8  -2    0.17    0.11
   0   8   2    0.16    0.14
   0   8   2    0.45    0.12
  -1  -8  -2    0.89    0.20
  -1  -8  -2    1.26    0.11
   1   8   2    1.22    0.24
   1   8   2    1.39    0.18
  -2  -8  -2    0.23    0.11
   2   8   2    0.61    0.17
  -3  -8  -2    0.08    0.10
   3   8   2   -0.04    0.08
  -4  -8  -2    0.10    0.12
   4   8   2    0.05    0.10
  -5  -8  -2    0.02    0.12
   5   8   2    0.01    0.10
   2  -9  -2    0.79    0.16
   2  -9  -2    1.06    0.25
  -2   9   2    1.29    0.19
   1  -9  -2    0.27    0.13
   1  -9  -2    0.25    0.10
  -1   9   2    0.27    0.11
   0  -9  -2    0.13    0.12
   0  -9  -2    0.29    0.08
   0   9   2    0.20    0.10
  -1  -9  -2    0.56    0.17
  -1  -9  -2    0.90    0.09
   1   9   2    0.85    0.16
   1   9   2    1.38    0.29
  -2  -9  -2   -0.09    0.09
   2   9   2   -0.07    0.10
  -3  -9  -2    0.09    0.12
   3   9   2    0.22    0.14
  -4  -9  -2   -0.02    0.13
   4   9   2    0.09    0.13
   5   9   2   -0.02    0.11
   1 -10  -2    0.02    0.08
   1 -10  -2    0.12    0.09
  -1  10   2    0.17    0.11
   0 -10  -2    0.12    0.14
   0 -10  -2    0.18    0.08
   0  10   2   -0.01    0.09
  -1 -10  -2    0.60    0.20
   1  10   2    0.39    0.14
  -2 -10  -2   -0.20    0.09
   2  10   2    0.21    0.16
  -3 -10  -2    0.00    0.09
   3  10   2    0.01    0.12
  -4 -10  -2   -0.02    0.16
   4  10   2    0.00    0.12
  -1 -11  -2   -0.07    0.11
   1  11   2    0.05    0.12
  -2 -11  -2    0.12    0.14
   2  11   2    0.13    0.14
   2  11   2    0.16    0.18
   3  10  -3   -0.04    0.12
   2  10  -3    0.21    0.14
   2  10  -3    0.52    0.22
  -2 -10   3    0.42    0.17
   1  10  -3    0.44    0.16
  -1 -10   3    0.63    0.19
   0  10  -3    0.19    0.12
   0 -10   3    0.73    0.21
   0 -10   3    0.36    0.11
  -1  10  -3    0.09    0.10
   1 -10   3    0.02    0.08
   1 -10   3    0.00    0.13
   4   9  -3   -0.02    0.13
   3   9  -3    0.01    0.13
  -3  -9   3   -0.09    0.11
   2   9  -3    0.21    0.12
   2   9  -3    0.21    0.16
  -2  -9   3    0.13    0.11
   1   9  -3    1.23    0.28
   1   9  -3    1.03    0.19
  -1  -9   3    1.19    0.23
  -1  -9   3    1.12    0.11
   0   9  -3    0.68    0.16
   0  -9   3    0.98    0.14
   0  -9   3    0.84    0.21
  -1   9  -3    0.38    0.13
   1  -9   3    0.26    0.10
   1  -9   3    0.06    0.14
  -2   9  -3    0.23    0.10
   2  -9   3    0.26    0.15
   2  -9   3    0.07    0.09
   5   8  -3   -0.07    0.11
   4   8  -3    2.15    0.32
   3   8  -3    1.02    0.23
  -3  -8   3    0.48    0.18
  -3  -8   3    0.73    0.18
   2   8  -3    0.11    0.09
   2   8  -3    0.07    0.13
  -2  -8   3    0.02    0.10
  -2  -8   3    0.00    0.08
   1   8  -3    0.03    0.13
   1   8  -3   -0.01    0.08
  -1  -8   3   -0.07    0.09
  -1  -8   3    0.10    0.05
  -1  -8   3    0.14    0.08
   0   8  -3    1.87    0.23
   0  -8   3    2.26    0.20
   0  -8   3    1.73    0.26
  -1   8  -3    8.91    0.44
   1  -8   3    9.29    0.41
   1  -8   3   10.33    0.55
  -2   8  -3    0.17    0.08
   2  -8   3    0.22    0.12
   2  -8   3    0.24    0.09
   3  -8   3    1.56    0.29
   3  -8   3    1.36    0.27
   3  -8   3    1.63    0.22
   6   7  -3   -0.02    0.10
   5   7  -3    0.20    0.12
   4   7  -3    0.34    0.13
   3   7  -3   -0.05    0.08
  -3  -7   3    0.00    0.08
  -3  -7   3    0.06    0.08
   2   7  -3    0.03    0.07
   2   7  -3    0.14    0.11
  -2  -7   3    0.11    0.08
  -2  -7   3    0.01    0.07
  -2  -7   3    0.04    0.07
   1   7  -3    0.02    0.10
   1   7  -3    0.21    0.12
   1   7  -3    0.05    0.08
   1   7  -3    0.06    0.07
  -1  -7   3   -0.02    0.07
  -1  -7   3    0.02    0.06
  -1  -7   3    0.17    0.10
  -1  -7   3    0.17    0.05
  -1  -7   3    0.09    0.10
   0   7  -3    0.01    0.05
   0   7  -3   -0.10    0.09
   0   7  -3    0.14    0.12
   0   7  -3    0.08    0.09
   0   7  -3   -0.05    0.06
   0  -7   3   -0.05    0.07
   0  -7   3    0.04    0.07
   0  -7   3    0.02    0.07
   0  -7   3    0.00    0.08
   0  -7   3   -0.08    0.03
  -1   7  -3    0.14    0.08
  -1   7  -3    0.23    0.14
   1  -7   3    0.30    0.12
   1  -7   3    0.06    0.09
   1  -7   3    0.08    0.09
   1  -7   3    0.13    0.07
  -2   7  -3    2.93    0.20
  -2   7  -3    3.08    0.40
   2  -7   3    3.06    0.22
   2  -7   3    2.95    0.34
   2  -7   3    2.94    0.35
   3  -7   3    1.51    0.28
   3  -7   3    1.93    0.22
   3  -7   3    2.50    0.33
   4  -7   3    1.87    0.32
   4  -7   3    2.66    0.36
   6   6  -3    0.08    0.10
   5   6  -3    0.09    0.10
   4   6  -3    0.14    0.10
   3   6  -3   10.58    0.55
  -3  -6   3   11.42    0.57
  -3  -6   3   11.71    0.50
   2   6  -3    2.30    0.27
   2   6  -3    1.92    0.18
   2   6  -3    1.61    0.25
   2   6  -3    1.50    0.21
  -2  -6   3    2.16    0.27
  -2  -6   3    2.15    0.25
  -2  -6   3    1.93    0.22
   1   6  -3    3.29    0.24
   1   6  -3    3.25    0.33
   1   6  -3    2.98    0.32
   1   6  -3    3.61    0.29
   1   6  -3    3.36    0.21
   1   6  -3    3.19    0.30
  -1  -6   3    3.74    0.25
  -1  -6   3    3.61    0.16
  -1  -6   3    3.43    0.28
  -1  -6   3    3.74    0.27
  -1  -6   3    3.41    0.27
   0   6  -3    4.11    0.35
   0   6  -3    3.68    0.36
   0   6  -3    4.19    0.27
   0   6  -3    3.59    0.27
   0   6  -3    4.08    0.24
   0   6  -3    3.73    0.36
   0   6  -3    3.76    0.23
   0  -6   3    4.38    0.28
   0  -6   3    3.71    0.24
   0  -6   3    3.61    0.30
   0  -6   3    4.43    0.29
   0  -6   3    4.13    0.31
   0  -6   3    4.08    0.21
   0  -6   3    3.80    0.27
  -1   6  -3    0.83    0.20
  -1   6  -3    0.68    0.11
  -1   6  -3    0.61    0.12
   1  -6   3    0.71    0.12
   1  -6   3    0.88    0.18
   1  -6   3    0.66    0.11
   1  -6   3    0.67    0.15
   1  -6   3    0.54    0.11
   1  -6   3    0.72    0.15
  -2   6  -3   10.11    0.37
  -2   6  -3   10.62    0.61
   2  -6   3   10.21    0.57
   2  -6   3    9.49    0.39
   2  -6   3    9.85    0.52
   2  -6   3    9.46    0.52
   3  -6   3   -0.08    0.06
   3  -6   3    0.03    0.06
   3  -6   3   -0.04    0.07
   4  -6   3    4.80    0.48
   4  -6   3    5.19    0.40
   5  -6   3    1.93    0.34
   5  -6   3    1.31    0.27
   6   5  -3   -0.01    0.08
   5   5  -3   -0.04    0.06
   4   5  -3    0.05    0.06
   3   5  -3    5.77    0.35
   3   5  -3    5.78    0.34
  -3  -5   3    6.32    0.37
  -3  -5   3    6.40    0.41
  -3  -5   3    6.40    0.31
   2   5  -3    0.52    0.12
   2   5  -3    0.54    0.12
   2   5  -3    0.51    0.12
   2   5  -3    0.36    0.10
   2   5  -3    0.42    0.12
   2   5  -3    0.35    0.07
   2   5  -3    0.51    0.12
  -2  -5   3    0.46    0.12
  -2  -5   3    0.39    0.09
  -2  -5   3    0.56    0.13
  -2  -5   3    0.41    0.11
  -2  -5   3    0.49    0.11
   1   5  -3    1.01    0.16
   1   5  -3    1.04    0.15
   1   5  -3    0.78    0.16
   1   5  -3    1.06    0.17
   1   5  -3    0.93    0.11
   1   5  -3    1.09    0.16
   1   5  -3    0.65    0.14
  -1  -5   3    0.67    0.12
  -1  -5   3    0.93    0.16
  -1  -5   3    0.97    0.14
  -1  -5   3    0.77    0.14
  -1  -5   3    0.79    0.15
  -1  -5   3    0.74    0.14
  -1  -5   3    0.89    0.08
   0   5  -3   13.12    0.48
   0   5  -3   13.16    0.46
   0   5  -3   13.19    0.50
   0   5  -3   13.64    0.53
   0   5  -3   12.11    0.57
   0   5  -3   12.41    0.60
   0   5  -3   12.77    0.58
   0  -5   3   13.95    0.59
   0  -5   3   13.08    0.53
   0  -5   3   13.32    0.54
   0  -5   3   13.03    0.52
   0  -5   3   13.19    0.58
   0  -5   3   13.57    0.49
   0  -5   3   13.37    0.42
  -1   5  -3   18.80    0.77
  -1   5  -3   19.55    0.60
  -1   5  -3   19.04    0.80
  -1   5  -3   18.24    0.59
  -1   5  -3   18.18    0.75
  -1   5  -3   20.14    0.58
  -1   5  -3   19.09    0.80
   1  -5   3   19.45    0.72
   1  -5   3   18.30    0.58
   1  -5   3   19.31    0.64
   1  -5   3   14.99    0.68
   1  -5   3   18.98    0.77
   1  -5   3   19.86    0.58
  -2   5  -3    0.01    0.03
  -2   5  -3    0.03    0.09
   2  -5   3    0.13    0.10
   2  -5   3    0.06    0.06
   2  -5   3    0.07    0.08
   2  -5   3    0.03    0.04
   3  -5   3    5.42    0.36
   3  -5   3    5.51    0.42
   3  -5   3    6.06    0.40
   4  -5   3   -0.08    0.08
   4  -5   3   -0.08    0.07
   4  -5   3    0.03    0.11
   5  -5   3    0.87    0.20
   5  -5   3    0.78    0.20
   5  -5   3    0.89    0.23
   6   4  -3    0.08    0.09
   5   4  -3    0.04    0.07
   4   4  -3    0.32    0.09
  -4  -4   3    0.43    0.14
   3   4  -3    0.52    0.10
   3   4  -3    0.24    0.11
   3   4  -3    0.63    0.11
   3   4  -3    0.27    0.08
   3   4  -3    0.43    0.12
   3   4  -3    0.38    0.09
  -3  -4   3    0.32    0.09
  -3  -4   3    0.49    0.13
  -3  -4   3    0.41    0.09
  -3  -4   3    0.34    0.09
  -3  -4   3    0.37    0.12
   2   4  -3    2.88    0.23
   2   4  -3    2.97    0.15
   2   4  -3    3.08    0.21
   2   4  -3    3.24    0.23
   2   4  -3    3.07    0.22
   2   4  -3    3.11    0.22
   2   4  -3    3.48    0.26
   2   4  -3    3.13    0.20
   2   4  -3    3.28    0.25
  -2  -4   3    2.70    0.22
  -2  -4   3    3.09    0.24
  -2  -4   3    3.31    0.22
  -2  -4   3    3.02    0.28
  -2  -4   3    3.12    0.19
   1   4  -3    5.62    0.30
   1   4  -3    6.11    0.33
   1   4  -3    5.93    0.23
   1   4  -3    5.76    0.29
   1   4  -3    5.55    0.31
   1   4  -3    6.07    0.32
   1   4  -3    5.68    0.30
   1   4  -3    5.86    0.33
  -1  -4   3    5.71    0.31
  -1  -4   3    5.50    0.29
  -1  -4   3    5.86    0.27
  -1  -4   3    5.65    0.29
  -1  -4   3    6.30    0.33
  -1  -4   3    5.63    0.28
  -1  -4   3    5.56    0.16
  -1  -4   3    5.93    0.32
  -1  -4   3    5.90    0.19
   0   4  -3   21.27    0.66
   0   4  -3   21.63    0.77
   0   4  -3   21.06    0.77
   0   4  -3   20.70    0.70
   0   4  -3   21.93    0.63
   0   4  -3   22.20    0.79
   0   4  -3   21.17    0.78
   0   4  -3   21.69    0.68
   0   4  -3   20.79    0.79
   0  -4   3   21.69    0.72
   0  -4   3   20.79    0.76
   0  -4   3   20.55    0.69
   0  -4   3   20.91    0.59
   0  -4   3   20.84    0.78
   0  -4   3   21.03    0.76
   0  -4   3   21.23    0.70
  -1   4  -3   14.00    0.42
  -1   4  -3   13.44    0.44
  -1   4  -3   14.02    0.61
  -1   4  -3   13.23    0.57
  -1   4  -3   13.65    0.43
  -1   4  -3   14.01    0.60
  -1   4  -3   13.91    0.57
   1  -4   3   13.77    0.43
   1  -4   3   14.08    0.58
   1  -4   3   13.64    0.42
   1  -4   3   13.64    0.48
   1  -4   3   13.21    0.53
   1  -4   3   13.64    0.54
   1  -4   3   14.34    0.59
  -2   4  -3   11.89    0.33
  -2   4  -3   11.36    0.55
  -2   4  -3   11.23    0.33
  -2   4  -3   12.69    0.58
   2  -4   3   11.84    0.39
   2  -4   3   11.95    0.57
   2  -4   3   11.74    0.40
   2  -4   3   10.86    0.52
   2  -4   3   12.51    0.52
  -3   4  -3    2.03    0.27
   3  -4   3    1.88    0.23
   3  -4   3    1.85    0.22
   3  -4   3    2.66    0.31
   4  -4   3    1.44    0.27
   4  -4   3    1.18    0.19
   4  -4   3    0.91    0.17
   5  -4   3    0.08    0.09
   5  -4   3    0.24    0.12
   6  -4   3    0.28    0.14
   6  -4   3    0.06    0.16
   6   3  -3    0.37    0.11
   5   3  -3   -0.01    0.05
  -5  -3   3    0.00    0.10
   4   3  -3    7.55    0.35
   4   3  -3    7.32    0.29
  -4  -3   3    7.05    0.34
  -4  -3   3    7.75    0.44
   3   3  -3   10.32    0.48
   3   3  -3   10.50    0.50
   3   3  -3   10.67    0.40
   3   3  -3   10.60    0.42
   3   3  -3    9.72    0.41
   3   3  -3    9.85    0.48
   3   3  -3   10.48    0.40
  -3  -3   3   10.64    0.42
  -3  -3   3    9.84    0.43
  -3  -3   3   10.55    0.50
  -3  -3   3    9.85    0.37
  -3  -3   3    9.00    0.47
   2   3  -3   13.04    0.46
   2   3  -3   12.26    0.48
   2   3  -3   12.08    0.49
   2   3  -3   14.07    0.47
   2   3  -3   12.41    0.32
   2   3  -3   11.81    0.48
   2   3  -3   12.98    0.51
   2   3  -3   12.42    0.52
   2   3  -3   13.27    0.53
  -2  -3   3   13.23    0.41
  -2  -3   3   12.27    0.51
  -2  -3   3   13.80    0.54
  -2  -3   3   12.67    0.50
  -2  -3   3   12.53    0.47
   1   3  -3    1.23    0.14
   1   3  -3    0.87    0.13
   1   3  -3    0.78    0.10
   1   3  -3    1.05    0.13
   1   3  -3    0.93    0.12
   1   3  -3    0.78    0.11
   1   3  -3    0.96    0.13
   1   3  -3    1.11    0.09
  -1  -3   3    0.81    0.12
  -1  -3   3    1.18    0.11
  -1  -3   3    0.93    0.11
  -1  -3   3    0.88    0.12
  -1  -3   3    1.03    0.13
  -1  -3   3    0.83    0.11
  -1  -3   3    0.95    0.05
   0   3  -3    9.99    0.44
   0   3  -3    9.99    0.42
   0   3  -3   10.41    0.43
   0   3  -3   10.29    0.34
   0   3  -3   10.83    0.36
   0   3  -3   10.50    0.37
   0   3  -3   10.40    0.43
   0   3  -3   10.34    0.40
   0  -3   3   10.63    0.39
   0  -3   3   10.52    0.32
   0  -3   3   10.65    0.36
   0  -3   3   10.67    0.43
   0  -3   3   10.47    0.43
   0  -3   3    9.84    0.43
   0  -3   3   10.46    0.40
   0  -3   3   10.89    0.40
  -1   3  -3   37.50    1.18
  -1   3  -3   36.40    0.95
  -1   3  -3   35.78    1.17
  -1   3  -3   38.02    0.94
  -1   3  -3   36.46    1.12
  -1   3  -3   36.41    1.14
  -1   3  -3   36.10    0.94
   1  -3   3   36.90    1.02
   1  -3   3   35.95    1.10
   1  -3   3   37.36    1.18
   1  -3   3   36.51    1.08
   1  -3   3   35.74    1.14
  -2   3  -3    9.55    0.47
  -2   3  -3   10.59    0.48
   2  -3   3   10.78    0.39
   2  -3   3   10.59    0.34
   2  -3   3   10.68    0.43
   2  -3   3   10.56    0.43
   2  -3   3    9.65    0.49
   2  -3   3    9.95    0.34
  -3   3  -3    1.71    0.22
  -3   3  -3    1.76    0.22
   3  -3   3    1.35    0.17
   3  -3   3    1.43    0.22
   3  -3   3    1.67    0.19
   3  -3   3    1.64    0.09
   3  -3   3    1.52    0.09
   3  -3   3    1.84    0.17
   4  -3   3    0.97    0.16
   4  -3   3    1.45    0.24
   5  -3   3    3.44    0.28
   6  -3   3    0.11    0.10
   6  -3   3    0.04    0.10
   6   2  -3    0.02    0.07
   5   2  -3    0.14    0.07
  -5  -2   3    0.24    0.11
   4   2  -3    0.41    0.07
   4   2  -3    0.28    0.08
   4   2  -3    0.25    0.07
  -4  -2   3    0.47    0.10
  -4  -2   3    0.56    0.14
  -4  -2   3    0.48    0.12
   3   2  -3    9.81    0.47
   3   2  -3    9.73    0.46
   3   2  -3   10.35    0.38
   3   2  -3   10.11    0.39
   3   2  -3   10.99    0.39
   3   2  -3    9.78    0.45
   3   2  -3    9.90    0.39
  -3  -2   3   10.14    0.39
  -3  -2   3   10.34    0.42
  -3  -2   3   10.35    0.47
  -3  -2   3    9.81    0.34
  -3  -2   3    9.79    0.47
   2   2  -3   16.52    0.54
   2   2  -3   16.91    0.59
   2   2  -3   15.86    0.52
   2   2  -3   16.70    0.51
   2   2  -3   16.18    0.60
   2   2  -3   16.16    0.57
  -2  -2   3   15.28    0.51
  -2  -2   3   16.59    0.59
  -2  -2   3   15.90    0.59
  -2  -2   3   16.30    0.57
  -2  -2   3   15.67    0.46
   1   2  -3   73.98    2.07
   1   2  -3   71.67    1.96
   1   2  -3   75.09    1.71
   1   2  -3   72.58    1.99
   1   2  -3   74.09    2.01
   1   2  -3   71.33    1.94
  -1  -2   3   72.17    1.83
  -1  -2   3   70.61    1.66
  -1  -2   3   69.25    2.06
  -1  -2   3   73.00    1.67
  -1  -2   3   73.69    1.97
  -1  -2   3   73.78    2.00
  -1  -2   3   72.98    1.94
  -1  -2   3   76.74    1.96
   0   2  -3   11.18    0.33
   0   2  -3   10.86    0.42
   0   2  -3   11.23    0.41
   0   2  -3   10.64    0.38
   0   2  -3   10.74    0.40
   0   2  -3   10.79    0.35
   0  -2   3   10.77    0.36
   0  -2   3   11.10    0.39
   0  -2   3   11.42    0.41
   0  -2   3   10.61    0.41
   0  -2   3   11.42    0.43
   0  -2   3   10.67    0.31
   0  -2   3   10.83    0.40
   0  -2   3   11.10    0.39
  -1   2  -3    0.18    0.06
  -1   2  -3    0.17    0.02
  -1   2  -3    0.23    0.06
  -1   2  -3    0.19    0.05
  -1   2  -3    0.19    0.02
  -1   2  -3    0.14    0.03
   1  -2   3    0.28    0.06
   1  -2   3    0.17    0.06
   1  -2   3    0.24    0.04
   1  -2   3    0.19    0.05
   1  -2   3    0.18    0.06
   1  -2   3    0.26    0.06
  -2   2  -3   -0.01    0.04
  -2   2  -3    0.02    0.04
   2  -2   3    0.01    0.03
   2  -2   3    0.03    0.04
   2  -2   3    0.03    0.04
   2  -2   3    0.05    0.03
   2  -2   3    0.06    0.04
  -3   2  -3    1.98    0.21
  -3   2  -3    1.80    0.20
   3  -2   3    2.35    0.10
   3  -2   3    2.17    0.16
   3  -2   3    2.50    0.19
   3  -2   3    2.08    0.15
   3  -2   3    2.35    0.11
   3  -2   3    2.14    0.13
  -4   2  -3   11.13    0.50
   4  -2   3   10.40    0.45
   5  -2   3    1.53    0.19
   6  -2   3    1.94    0.24
   6   1  -3   -0.02    0.08
   5   1  -3    0.28    0.09
   4   1  -3    0.03    0.04
   4   1  -3    0.13    0.09
   4   1  -3    0.06    0.08
   4   1  -3    0.11    0.05
   4   1  -3    0.09    0.07
  -4  -1   3   -0.04    0.04
  -4  -1   3    0.08    0.06
  -4  -1   3    0.05    0.07
   3   1  -3   30.80    0.90
   3   1  -3   29.61    0.89
   3   1  -3   29.54    0.95
   3   1  -3   29.95    0.92
   3   1  -3   29.33    0.99
   3   1  -3   29.93    0.91
  -3  -1   3   30.80    0.96
  -3  -1   3   30.89    0.96
  -3  -1   3   29.50    0.99
   2   1  -3   13.92    0.45
   2   1  -3   13.83    0.52
   2   1  -3   14.32    0.49
   2   1  -3   13.64    0.49
   2   1  -3   13.92    0.42
   2   1  -3   13.11    0.46
  -2  -1   3   14.08    0.52
  -2  -1   3   13.63    0.50
  -2  -1   3   13.90    0.50
   1   1  -3    6.41    0.27
   1   1  -3    6.27    0.26
   1   1  -3    6.73    0.21
   1   1  -3    6.75    0.27
   1   1  -3    6.83    0.18
   1   1  -3    6.53    0.25
   1   1  -3    6.49    0.28
  -1  -1   3    6.54    0.27
  -1  -1   3    6.18    0.28
  -1  -1   3    6.78    0.28
  -1  -1   3    6.51    0.21
  -1  -1   3    6.42    0.26
   0   1  -3    1.01    0.08
   0   1  -3    1.39    0.11
   0   1  -3    1.48    0.08
   0   1  -3    1.48    0.10
   0  -1   3    1.41    0.11
   0  -1   3    1.37    0.09
   0  -1   3    1.36    0.09
   0  -1   3    1.32    0.07
   0  -1   3    1.40    0.10
  -1   1  -3   13.72    0.36
  -1   1  -3   14.04    0.46
  -1   1  -3   14.20    0.48
  -1   1  -3   13.13    0.45
   1  -1   3   13.77    0.46
   1  -1   3   14.03    0.44
   1  -1   3   13.58    0.37
   1  -1   3   13.62    0.45
  -2   1  -3    8.25    0.36
  -2   1  -3    7.74    0.33
   2  -1   3    8.30    0.26
   2  -1   3    8.17    0.30
   2  -1   3    8.57    0.32
   2  -1   3    8.18    0.32
   2  -1   3    8.10    0.25
   2  -1   3    8.47    0.30
  -3   1  -3    4.27    0.23
  -3   1  -3    4.35    0.23
   3  -1   3    4.36    0.22
   3  -1   3    4.22    0.19
   3  -1   3    3.57    0.19
   3  -1   3    4.48    0.21
   3  -1   3    3.94    0.18
  -4   1  -3    1.46    0.17
  -4   1  -3    1.54    0.17
   4  -1   3    1.79    0.14
   4  -1   3    1.26    0.14
   4  -1   3    1.57    0.16
   5  -1   3    2.20    0.18
   6  -1   3    2.01    0.22
   6   0  -3    0.61    0.15
   5   0  -3    1.15    0.17
   4   0  -3    0.21    0.07
   4   0  -3    0.25    0.07
   4   0  -3    0.06    0.06
   4   0  -3    0.19    0.10
  -4   0   3    0.15    0.08
  -4   0   3    0.00    0.07
  -4   0   3    0.05    0.06
   3   0  -3    5.93    0.33
   3   0  -3    5.69    0.28
   3   0  -3    6.01    0.28
   3   0  -3    5.77    0.28
   3   0  -3    5.93    0.27
   3   0  -3    6.07    0.27
  -3   0   3    6.24    0.34
  -3   0   3    5.64    0.30
  -3   0   3    5.73    0.29
   2   0  -3    1.75    0.14
   2   0  -3    1.68    0.12
   2   0  -3    1.90    0.13
   2   0  -3    1.94    0.13
   2   0  -3    1.86    0.10
   2   0  -3    1.78    0.17
   2   0  -3    1.73    0.10
  -2   0   3    2.01    0.19
  -2   0   3    1.69    0.13
  -2   0   3    1.75    0.14
   1   0  -3   53.20    1.34
   1   0  -3   52.97    1.55
   1   0  -3   51.76    1.48
   1   0  -3   54.41    1.45
  -1   0   3   55.74    1.44
  -1   0   3   54.45    1.46
  -1   0   3   53.82    1.24
  -1   0   3   55.06    1.45
  -1   0   3   55.33    1.47
  -1   0   3   53.94    1.55
   0   0  -3    3.10    0.15
   0   0  -3    3.20    0.12
   0   0  -3    3.28    0.14
   0   0  -3    3.34    0.17
   0   0  -3    3.00    0.14
   0   0  -3    3.17    0.13
   0   0   3    3.24    0.16
   0   0   3    3.16    0.14
   0   0   3    3.23    0.11
  -1   0  -3   54.87    1.51
  -1   0  -3   55.11    1.55
  -1   0  -3   56.57    1.59
  -1   0  -3   55.90    1.45
   1   0   3   57.43    1.63
   1   0   3   57.91    1.45
   1   0   3   57.68    1.59
   1   0   3   58.49    1.51
   1   0   3   59.90    1.52
  -2   0  -3   13.97    0.45
  -2   0  -3   13.47    0.50
  -2   0  -3   13.85    0.43
   2   0   3   14.29    0.43
   2   0   3   14.06    0.40
   2   0   3   14.00    0.41
   2   0   3   13.81    0.43
   2   0   3   13.90    0.54
   2   0   3   13.07    0.43
  -3   0  -3   15.42    0.59
  -3   0  -3   15.48    0.51
  -3   0  -3   15.64    0.51
   3   0   3   15.00    0.50
   3   0   3   15.90    0.46
   3   0   3   15.48    0.64
   3   0   3   15.46    0.52
   3   0   3   15.53    0.55
   3   0   3   15.73    0.47
  -4   0  -3    0.00    0.03
  -4   0  -3    0.00    0.06
  -4   0  -3   -0.07    0.03
   4   0   3    0.01    0.05
   4   0   3    0.05    0.06
   4   0   3   -0.02    0.04
   4   0   3   -0.01    0.03
   4   0   3   -0.03    0.03
  -5   0  -3    1.21    0.13
   5   0   3    1.13    0.12
   6   0   3    0.69    0.12
   6  -1  -3    0.56    0.15
   5  -1  -3    1.39    0.19
   4  -1  -3    2.61    0.20
   4  -1  -3    2.22    0.25
   4  -1  -3    2.57    0.24
   4  -1  -3    2.03    0.21
  -4   1   3    2.64    0.28
   3  -1  -3   15.98    0.54
   3  -1  -3   15.88    0.56
   3  -1  -3   15.87    0.58
   3  -1  -3   16.06    0.60
   3  -1  -3   15.29    0.57
   3  -1  -3   15.39    0.60
  -3   1   3   14.62    0.62
  -3   1   3   16.05    0.52
  -3   1   3   16.29    0.61
   2  -1  -3    6.75    0.30
   2  -1  -3    6.62    0.26
   2  -1  -3    6.48    0.26
   2  -1  -3    6.83    0.32
   2  -1  -3    6.49    0.29
   2  -1  -3    6.58    0.31
  -2   1   3    6.43    0.32
  -2   1   3    6.75    0.26
  -2   1   3    6.61    0.31
   1  -1  -3    8.09    0.29
   1  -1  -3    8.46    0.27
   1  -1  -3    8.48    0.33
   1  -1  -3    8.41    0.33
   1  -1  -3    8.55    0.28
   1  -1  -3    8.79    0.36
  -1   1   3    9.12    0.33
  -1   1   3    8.60    0.36
  -1   1   3    8.73    0.30
  -1   1   3    8.85    0.29
  -1   1   3    8.59    0.33
  -1   1   3    8.66    0.24
   0  -1  -3   27.47    0.84
   0  -1  -3   28.02    0.81
   0  -1  -3   26.35    0.74
   0  -1  -3   28.04    0.68
   0  -1  -3   27.02    0.79
   0  -1  -3   27.68    0.76
   0  -1  -3   27.07    0.67
   0   1   3   28.42    0.67
   0   1   3   27.65    0.67
   0   1   3   27.30    0.77
   0   1   3   27.90    0.67
   0   1   3   28.46    0.85
   0   1   3   28.03    0.80
   0   1   3   24.21    0.78
  -1  -1  -3    4.19    0.20
  -1  -1  -3    4.41    0.22
  -1  -1  -3    4.19    0.18
  -1  -1  -3    4.03    0.19
   1   1   3    4.48    0.17
   1   1   3    4.28    0.22
   1   1   3    4.79    0.17
   1   1   3    4.42    0.19
   1   1   3    4.55    0.19
  -2  -1  -3  111.07    2.94
  -2  -1  -3  120.23    3.00
  -2  -1  -3  115.44    3.24
  -2  -1  -3  115.84    3.10
   2   1   3  118.77    3.07
   2   1   3  113.11    2.94
   2   1   3  115.88    3.23
   2   1   3  113.63    2.95
  -3  -1  -3   14.34    0.42
  -3  -1  -3   12.66    0.53
  -3  -1  -3   13.29    0.49
   3   1   3   13.45    0.51
   3   1   3   14.10    0.50
   3   1   3   14.24    0.59
   3   1   3   13.41    0.52
  -4  -1  -3    1.82    0.22
   4   1   3    1.02    0.16
   4   1   3    1.71    0.20
   4   1   3    1.03    0.15
  -5  -1  -3    0.55    0.15
   5   1   3    0.35    0.06
   5   1   3    0.49    0.06
   6   1   3    0.02    0.05
   7   1   3    0.02    0.07
   6  -2  -3    0.21    0.11
   5  -2  -3    1.42    0.21
   4  -2  -3    6.26    0.35
   4  -2  -3    6.48    0.36
   4  -2  -3    6.22    0.37
   4  -2  -3    6.24    0.34
  -4   2   3    6.68    0.39
   3  -2  -3    3.23    0.21
   3  -2  -3    2.76    0.21
   3  -2  -3    2.75    0.21
   3  -2  -3    2.97    0.21
   3  -2  -3    2.98    0.23
  -3   2   3    3.24    0.14
  -3   2   3    2.79    0.22
  -3   2   3    2.79    0.24
   2  -2  -3    0.42    0.10
   2  -2  -3    0.44    0.07
   2  -2  -3    0.50    0.09
   2  -2  -3    0.61    0.10
   2  -2  -3    0.53    0.09
   2  -2  -3    0.47    0.09
  -2   2   3    0.39    0.05
  -2   2   3    0.41    0.10
  -2   2   3    0.33    0.08
   1  -2  -3   37.71    1.09
   1  -2  -3   37.33    1.02
   1  -2  -3   37.97    0.94
   1  -2  -3   35.61    1.08
   1  -2  -3   36.17    1.04
   1  -2  -3   37.98    1.16
  -1   2   3   35.07    1.16
  -1   2   3   35.91    0.90
  -1   2   3   38.08    1.06
  -1   2   3   36.46    1.08
   0  -2  -3   17.75    0.56
   0  -2  -3   18.15    0.60
   0  -2  -3   18.73    0.48
   0  -2  -3   17.57    0.62
   0  -2  -3   18.01    0.55
   0  -2  -3   18.35    0.48
   0  -2  -3   18.07    0.57
   0   2   3   17.76    0.59
   0   2   3   18.84    0.57
   0   2   3   18.13    0.63
   0   2   3   18.44    0.48
   0   2   3   18.81    0.59
  -1  -2  -3    7.92    0.31
  -1  -2  -3    8.22    0.32
  -1  -2  -3    8.13    0.31
  -1  -2  -3    7.61    0.34
   1   2   3    8.34    0.29
   1   2   3    7.89    0.31
   1   2   3    8.61    0.30
   1   2   3    8.16    0.34
  -2  -2  -3   28.86    0.86
  -2  -2  -3   28.20    0.77
  -2  -2  -3   28.08    0.88
  -2  -2  -3   28.00    0.84
  -2  -2  -3   28.96    0.95
   2   2   3   29.49    0.82
   2   2   3   27.85    0.77
   2   2   3   28.26    0.89
   2   2   3   29.11    0.77
   2   2   3   28.70    0.86
   2   2   3   28.59    0.95
  -3  -2  -3    0.08    0.02
  -3  -2  -3    0.07    0.05
  -3  -2  -3   -0.04    0.04
  -3  -2  -3    0.12    0.07
   3   2   3    0.05    0.05
   3   2   3    0.04    0.06
   3   2   3    0.10    0.07
   3   2   3    0.07    0.05
  -4  -2  -3    2.84    0.30
  -4  -2  -3    2.85    0.28
   4   2   3    3.11    0.23
   4   2   3    3.42    0.26
  -5  -2  -3    0.33    0.13
  -6  -2  -3    0.12    0.13
   6   2   3    0.19    0.04
   7   2   3   -0.01    0.04
   6  -3  -3    0.23    0.14
   5  -3  -3    0.48    0.14
   4  -3  -3    0.95    0.18
   4  -3  -3    0.85    0.16
   3  -3  -3    0.06    0.06
   3  -3  -3    0.06    0.05
   3  -3  -3    0.15    0.08
   3  -3  -3    0.15    0.07
  -3   3   3    0.04    0.06
   2  -3  -3   23.56    0.80
   2  -3  -3   21.39    0.73
   2  -3  -3   22.47    0.84
   2  -3  -3   22.87    0.66
   2  -3  -3   22.34    0.78
   2  -3  -3   22.72    0.74
  -2   3   3   23.39    0.61
  -2   3   3   24.05    0.80
  -2   3   3   23.06    0.57
  -2   3   3   22.57    0.76
  -2   3   3   21.52    0.85
  -2   3   3   22.72    0.57
   1  -3  -3  148.17    3.93
   1  -3  -3  147.61    3.45
   1  -3  -3  146.77    3.75
   1  -3  -3  146.09    3.74
   1  -3  -3  148.15    4.04
   1  -3  -3  146.23    4.11
  -1   3   3  144.61    3.76
  -1   3   3  147.62    3.42
  -1   3   3  149.12    4.13
  -1   3   3  148.16    3.94
  -1   3   3  147.04    4.06
   0  -3  -3   21.00    0.54
   0  -3  -3   19.37    0.65
   0  -3  -3   19.58    0.64
   0  -3  -3   19.87    0.69
   0  -3  -3   20.76    0.64
   0  -3  -3   19.58    0.53
   0  -3  -3   19.83    0.71
   0   3   3   19.59    0.67
   0   3   3   20.43    0.64
   0   3   3   19.20    0.68
   0   3   3   20.65    0.54
  -1  -3  -3    5.33    0.27
  -1  -3  -3    4.88    0.28
  -1  -3  -3    5.50    0.27
  -1  -3  -3    5.94    0.27
   1   3   3    5.20    0.25
   1   3   3    5.43    0.27
   1   3   3    5.30    0.27
   1   3   3    5.56    0.26
   1   3   3    5.23    0.18
   1   3   3    5.25    0.18
   1   3   3    5.20    0.27
  -2  -3  -3    0.62    0.09
  -2  -3  -3    0.67    0.11
  -2  -3  -3    0.66    0.08
  -2  -3  -3    0.68    0.13
  -2  -3  -3    0.63    0.11
   2   3   3    0.62    0.08
   2   3   3    0.49    0.07
   2   3   3    0.57    0.08
   2   3   3    0.66    0.11
   2   3   3    0.40    0.10
   2   3   3    0.64    0.12
  -3  -3  -3    9.12    0.33
  -3  -3  -3   10.17    0.49
  -3  -3  -3    8.87    0.42
  -3  -3  -3    9.34    0.43
   3   3   3    8.16    0.43
   3   3   3    9.03    0.29
   3   3   3    8.48    0.42
   3   3   3    9.89    0.43
   3   3   3    8.95    0.28
  -4  -3  -3   11.02    0.57
  -4  -3  -3   10.74    0.51
  -4  -3  -3   10.98    0.51
   4   3   3   12.11    0.53
   4   3   3   10.21    0.52
  -5  -3  -3    0.06    0.08
  -5  -3  -3    0.12    0.09
  -6  -3  -3    0.73    0.19
   5  -4  -3    0.90    0.21
   5  -4  -3    0.96    0.23
   4  -4  -3    0.68    0.17
   4  -4  -3    0.68    0.16
   3  -4  -3    2.45    0.23
   3  -4  -3    2.81    0.28
   3  -4  -3    3.17    0.31
   3  -4  -3    2.93    0.25
   3  -4  -3    2.76    0.21
  -3   4   3    3.09    0.29
   2  -4  -3    1.37    0.18
   2  -4  -3    1.46    0.16
   2  -4  -3    0.96    0.18
   2  -4  -3    1.43    0.15
   2  -4  -3    1.09    0.16
   2  -4  -3    1.30    0.18
  -2   4   3    0.89    0.18
  -2   4   3    1.17    0.06
  -2   4   3    1.14    0.10
  -2   4   3    1.23    0.16
   1  -4  -3   13.84    0.60
   1  -4  -3   12.86    0.51
   1  -4  -3   13.92    0.56
   1  -4  -3   13.35    0.54
   1  -4  -3   14.42    0.50
   1  -4  -3   13.96    0.44
  -1   4   3   13.23    0.43
  -1   4   3   14.89    0.58
  -1   4   3   13.55    0.51
  -1   4   3   13.08    0.61
  -1   4   3   13.62    0.45
  -1   4   3   13.18    0.56
   0  -4  -3   33.28    1.13
   0  -4  -3   35.77    1.12
   0  -4  -3   33.95    1.01
   0  -4  -3   34.13    1.05
   0  -4  -3   34.80    0.87
   0  -4  -3   33.87    1.03
   0   4   3   32.61    1.10
   0   4   3   33.80    1.01
   0   4   3   33.24    0.89
   0   4   3   33.00    1.14
  -1  -4  -3    0.90    0.11
  -1  -4  -3    0.94    0.15
  -1  -4  -3    1.08    0.14
  -1  -4  -3    0.89    0.14
  -1  -4  -3    1.07    0.12
  -1  -4  -3    1.05    0.05
  -1  -4  -3    0.96    0.14
  -1  -4  -3    1.03    0.14
   1   4   3    0.79    0.13
   1   4   3    1.01    0.13
   1   4   3    0.99    0.14
   1   4   3    1.08    0.09
   1   4   3    0.98    0.13
  -2  -4  -3   18.61    0.69
  -2  -4  -3   19.40    0.64
  -2  -4  -3   19.22    0.69
  -2  -4  -3   19.25    0.76
  -2  -4  -3   19.68    0.70
   2   4   3   19.20    0.73
   2   4   3   18.53    0.73
   2   4   3   19.96    0.63
   2   4   3   20.61    0.70
   2   4   3   19.26    0.65
  -3  -4  -3    0.04    0.04
  -3  -4  -3    0.04    0.07
  -3  -4  -3   -0.02    0.06
  -3  -4  -3    0.10    0.08
   3   4   3   -0.01    0.03
   3   4   3    0.04    0.06
   3   4   3    0.02    0.06
   3   4   3    0.00    0.03
   3   4   3   -0.02    0.03
   3   4   3    0.04    0.03
  -4  -4  -3    0.27    0.11
  -4  -4  -3    0.25    0.10
   4   4   3    0.43    0.07
   4   4   3    0.41    0.06
  -5  -4  -3   -0.08    0.07
  -5  -4  -3   -0.04    0.09
   5   4   3    0.02    0.03
   5   4   3   -0.01    0.03
  -6  -4  -3    0.03    0.12
   6   4   3    0.07    0.03
   5  -5  -3    2.10    0.30
   5  -5  -3    2.36    0.34
   4  -5  -3    4.33    0.34
   4  -5  -3    3.81    0.39
   3  -5  -3    1.14    0.20
   3  -5  -3    0.62    0.12
   3  -5  -3    0.86    0.18
   3  -5  -3    1.08    0.19
   2  -5  -3    0.03    0.07
   2  -5  -3    0.02    0.05
   2  -5  -3   -0.05    0.06
   2  -5  -3    0.01    0.04
   2  -5  -3    0.00    0.05
  -2   5   3    0.02    0.06
  -2   5   3   -0.03    0.03
   1  -5  -3    0.84    0.13
   1  -5  -3    0.66    0.13
   1  -5  -3    0.83    0.11
   1  -5  -3    0.82    0.17
   1  -5  -3    0.88    0.15
   1  -5  -3    0.59    0.13
   1  -5  -3    0.72    0.16
  -1   5   3    0.59    0.14
  -1   5   3    0.86    0.11
  -1   5   3    0.96    0.12
  -1   5   3    0.80    0.13
  -1   5   3    0.61    0.15
   0  -5  -3   27.87    0.74
   0  -5  -3   26.29    0.90
   0  -5  -3   26.97    0.96
   0  -5  -3   26.68    0.87
   0  -5  -3   28.04    0.91
   0  -5  -3   26.31    0.97
   0  -5  -3   26.38    1.00
   0   5   3   26.94    0.77
   0   5   3   27.27    0.88
  -1  -5  -3    1.65    0.20
  -1  -5  -3    1.50    0.18
  -1  -5  -3    1.65    0.17
  -1  -5  -3    1.61    0.19
  -1  -5  -3    1.58    0.21
  -1  -5  -3    1.59    0.08
  -1  -5  -3    1.61    0.21
   1   5   3    1.68    0.12
   1   5   3    1.49    0.18
   1   5   3    1.52    0.18
   1   5   3    1.61    0.20
  -2  -5  -3    9.26    0.45
  -2  -5  -3    9.85    0.51
  -2  -5  -3    9.95    0.43
  -2  -5  -3    9.49    0.46
  -2  -5  -3    9.52    0.46
   2   5   3   10.00    0.45
   2   5   3    9.76    0.44
   2   5   3   11.20    0.46
   2   5   3   10.20    0.46
   2   5   3    9.62    0.31
  -3  -5  -3    0.53    0.13
  -3  -5  -3    0.63    0.09
  -3  -5  -3    0.62    0.16
  -3  -5  -3    0.60    0.12
   3   5   3    0.77    0.12
   3   5   3    0.72    0.11
  -4  -5  -3    1.38    0.24
  -4  -5  -3    1.46    0.24
   4   5   3    1.18    0.14
  -5  -5  -3    0.26    0.14
  -5  -5  -3    0.37    0.14
   5   5   3    0.38    0.09
   6   5   3   -0.03    0.05
   4  -6  -3    3.18    0.37
   4  -6  -3    3.39    0.40
   3  -6  -3    1.88    0.28
   3  -6  -3    1.87    0.26
   3  -6  -3    1.77    0.27
   3  -6  -3    2.05    0.23
   2  -6  -3    0.04    0.07
   2  -6  -3    0.30    0.11
   2  -6  -3    0.08    0.06
   2  -6  -3    0.06    0.09
  -2   6   3    0.08    0.05
   1  -6  -3    3.48    0.21
   1  -6  -3    3.89    0.29
   1  -6  -3    3.62    0.28
   1  -6  -3    4.06    0.26
   1  -6  -3    4.18    0.35
   1  -6  -3    3.83    0.30
  -1   6   3    3.48    0.22
  -1   6   3    4.00    0.27
  -1   6   3    3.76    0.39
   0  -6  -3    3.26    0.25
   0  -6  -3    3.40    0.28
   0  -6  -3    2.94    0.34
   0  -6  -3    3.47    0.25
   0  -6  -3    2.90    0.24
   0  -6  -3    3.20    0.17
   0  -6  -3    3.55    0.29
   0  -6  -3    2.61    0.28
   0   6   3    1.75    0.24
   0   6   3    3.18    0.24
   0   6   3    3.15    0.20
   0   6   3    3.11    0.24
  -1  -6  -3    2.52    0.26
  -1  -6  -3    2.68    0.28
  -1  -6  -3    2.65    0.12
  -1  -6  -3    2.68    0.30
  -1  -6  -3    2.38    0.29
  -1  -6  -3    2.35    0.26
   1   6   3    2.53    0.25
   1   6   3    2.55    0.17
   1   6   3    2.21    0.27
  -2  -6  -3   -0.05    0.07
  -2  -6  -3    0.06    0.07
  -2  -6  -3    0.02    0.06
   2   6   3   -0.02    0.06
  -3  -6  -3    0.79    0.18
  -3  -6  -3    1.08    0.17
  -3  -6  -3    1.16    0.20
   3   6   3    0.89    0.15
  -4  -6  -3    0.66    0.19
  -4  -6  -3    0.51    0.15
   4   6   3    0.51    0.12
  -5  -6  -3    0.04    0.10
   5   6   3    0.02    0.07
   6   6   3    0.01    0.07
   4  -7  -3    0.76    0.21
   4  -7  -3    0.29    0.16
   3  -7  -3    1.21    0.23
   3  -7  -3    1.54    0.27
   3  -7  -3    0.93    0.17
   2  -7  -3    1.15    0.22
   2  -7  -3    1.30    0.17
   2  -7  -3    1.40    0.24
  -2   7   3    1.32    0.16
   1  -7  -3    2.65    0.32
   1  -7  -3    2.47    0.26
   1  -7  -3    2.25    0.20
   1  -7  -3    2.98    0.33
  -1   7   3    3.05    0.30
  -1   7   3    2.65    0.23
   0  -7  -3    6.45    0.27
   0  -7  -3    4.81    0.35
   0  -7  -3    5.84    0.43
   0  -7  -3    5.24    0.39
   0  -7  -3    5.30    0.24
   0  -7  -3    5.64    0.35
   0   7   3    5.75    0.30
   0   7   3    5.29    0.34
   0   7   3    5.48    0.41
   0   7   3    5.83    0.35
  -1  -7  -3    0.15    0.10
  -1  -7  -3    0.24    0.12
  -1  -7  -3    0.12    0.08
  -1  -7  -3    0.22    0.05
   1   7   3    0.15    0.07
   1   7   3    0.19    0.10
  -2  -7  -3    0.04    0.08
  -2  -7  -3   -0.01    0.08
  -2  -7  -3   -0.10    0.07
   2   7   3   -0.04    0.07
  -3  -7  -3    1.97    0.29
  -3  -7  -3    1.67    0.28
   3   7   3    1.82    0.25
  -4  -7  -3    0.31    0.15
   4   7   3    0.14    0.09
  -5  -7  -3    0.23    0.15
   5   7   3    0.25    0.11
   6   7   3    0.05    0.09
   3  -8  -3    0.36    0.12
   3  -8  -3    0.46    0.17
   2  -8  -3   -0.08    0.06
   2  -8  -3   -0.05    0.09
  -2   8   3   -0.06    0.06
   1  -8  -3    0.11    0.10
   1  -8  -3    0.39    0.10
  -1   8   3    0.47    0.12
   0  -8  -3    3.52    0.38
   0  -8  -3    4.04    0.22
   0  -8  -3    3.67    0.20
   0   8   3    4.26    0.27
   0   8   3    3.70    0.42
  -1  -8  -3    0.24    0.05
  -1  -8  -3    0.08    0.09
  -1  -8  -3    0.03    0.11
   1   8   3    0.17    0.09
   1   8   3    0.01    0.10
  -2  -8  -3   -0.04    0.08
   2   8   3   -0.05    0.09
  -3  -8  -3    0.03    0.09
   3   8   3    0.13    0.12
  -4  -8  -3    0.44    0.16
   4   8   3    0.15    0.11
  -5  -8  -3    0.15    0.15
   5   8   3   -0.05    0.09
   2  -9  -3   -0.03    0.08
   2  -9  -3    0.00    0.10
  -2   9   3    0.06    0.09
   1  -9  -3    0.01    0.10
   1  -9  -3    0.01    0.07
  -1   9   3   -0.02    0.08
   0  -9  -3    0.46    0.09
   0  -9  -3    0.49    0.17
   0  -9  -3    0.49    0.10
   0   9   3    0.23    0.11
  -1  -9  -3    0.51    0.07
  -1  -9  -3    0.46    0.18
   1   9   3    0.45    0.21
   1   9   3    0.77    0.16
  -2  -9  -3    0.24    0.15
   2   9   3    0.37    0.16
  -3  -9  -3    0.05    0.12
   3   9   3    0.00    0.11
  -4  -9  -3    0.06    0.14
   4   9   3    0.00    0.12
  -5  -9  -3   -0.05    0.16
   5   9   3   -0.10    0.10
   1 -10  -3    0.00    0.08
   1 -10  -3    0.10    0.13
  -1  10   3    0.11    0.11
   0 -10  -3    0.11    0.13
   0 -10  -3    0.25    0.09
   0  10   3    0.09    0.11
  -1 -10  -3   -0.05    0.08
   1  10   3    0.00    0.09
  -2 -10  -3   -0.12    0.10
   2  10   3   -0.07    0.15
  -3 -10  -3    0.25    0.16
   3  10   3   -0.07    0.14
  -4 -10  -3   -0.06    0.12
   4  10   3   -0.05    0.14
  -1 -11  -3    0.03    0.14
   1  11   3   -0.02    0.11
  -2 -11  -3    0.16    0.15
   2  11   3    0.01    0.17
   3  10  -4    0.06    0.16
   2  10  -4    0.05    0.12
   2  10  -4    0.06    0.15
  -2 -10   4   -0.12    0.11
   1  10  -4    0.21    0.14
  -1 -10   4    0.27    0.16
   0  10  -4    1.53    0.24
   0 -10   4    1.57    0.18
   0 -10   4    1.78    0.31
  -1  10  -4    0.15    0.12
   1 -10   4    0.16    0.14
   1 -10   4   -0.01    0.08
   4   9  -4    0.23    0.17
   3   9  -4    0.16    0.16
   2   9  -4   -0.07    0.11
   2   9  -4    0.09    0.10
  -2  -9   4   -0.05    0.08
   1   9  -4    0.16    0.18
   1   9  -4    0.02    0.09
  -1  -9   4    0.00    0.04
  -1  -9   4   -0.07    0.08
   0   9  -4    0.05    0.09
   0  -9   4    0.08    0.07
   0  -9   4    0.13    0.12
  -1   9  -4    2.03    0.25
   1  -9   4    1.73    0.29
   1  -9   4    1.72    0.21
  -2   9  -4    0.72    0.14
   2  -9   4    1.01    0.18
   2  -9   4    0.58    0.20
   5   8  -4   -0.14    0.10
   4   8  -4    0.29    0.16
   3   8  -4    0.09    0.12
  -3  -8   4   -0.10    0.10
   2   8  -4    0.32    0.15
   2   8  -4    0.65    0.14
  -2  -8   4    0.34    0.15
  -2  -8   4    0.59    0.16
   1   8  -4    1.16    0.19
   1   8  -4    0.66    0.20
  -1  -8   4    1.32    0.22
  -1  -8   4    1.29    0.12
   0   8  -4    0.37    0.11
   0  -8   4    0.21    0.13
   0  -8   4    0.06    0.05
  -1   8  -4    0.86    0.16
   1  -8   4    1.75    0.28
   1  -8   4    1.41    0.18
  -2   8  -4   -0.06    0.07
   2  -8   4    0.06    0.09
   2  -8   4    0.02    0.08
   3  -8   4    1.92    0.33
   3  -8   4    1.62    0.30
   3  -8   4    2.06    0.25
   5   7  -4   -0.10    0.10
   4   7  -4    0.68    0.18
   3   7  -4    0.12    0.11
  -3  -7   4    0.14    0.10
  -3  -7   4    0.08    0.11
   2   7  -4    0.74    0.18
   2   7  -4    0.79    0.14
  -2  -7   4    0.75    0.16
  -2  -7   4    0.53    0.15
   1   7  -4    3.53    0.27
   1   7  -4    3.12    0.32
   1   7  -4    3.31    0.37
   1   7  -4    3.29    0.24
  -1  -7   4    2.99    0.33
  -1  -7   4    3.28    0.31
  -1  -7   4    3.08    0.34
  -1  -7   4    3.12    0.16
   0   7  -4    5.10    0.39
   0   7  -4    3.42    0.32
   0   7  -4    3.71    0.26
   0   7  -4    3.33    0.38
   0  -7   4    3.59    0.29
   0  -7   4    4.57    0.32
   0  -7   4    4.06    0.34
   0  -7   4    3.78    0.21
  -1   7  -4    0.32    0.10
   1  -7   4    0.26    0.08
   1  -7   4    0.24    0.11
   1  -7   4    0.43    0.15
  -2   7  -4    1.42    0.29
  -2   7  -4    1.55    0.17
   2  -7   4    1.33    0.24
   2  -7   4    1.03    0.22
   2  -7   4    1.55    0.19
   3  -7   4    0.05    0.12
   3  -7   4   -0.08    0.07
   3  -7   4   -0.17    0.10
   4  -7   4    0.37    0.17
   4  -7   4    0.29    0.16
   6   6  -4   -0.05    0.10
   5   6  -4   -0.01    0.09
   4   6  -4    0.01    0.09
   3   6  -4    1.04    0.20
  -3  -6   4    1.15    0.19
  -3  -6   4    1.37    0.18
   2   6  -4    2.04    0.19
   2   6  -4    1.99    0.26
  -2  -6   4    1.74    0.23
  -2  -6   4    2.40    0.24
  -2  -6   4    1.67    0.25
   1   6  -4    3.55    0.36
   1   6  -4    3.38    0.22
   1   6  -4    3.65    0.36
   1   6  -4    3.22    0.33
   1   6  -4    3.85    0.27
   1   6  -4    3.93    0.28
  -1  -6   4    3.45    0.24
  -1  -6   4    3.02    0.31
  -1  -6   4    3.50    0.28
  -1  -6   4    3.45    0.16
   0   6  -4    4.22    0.33
   0   6  -4    4.28    0.33
   0   6  -4    4.01    0.25
   0   6  -4    4.60    0.26
   0   6  -4    4.61    0.36
   0   6  -4    3.90    0.26
   0   6  -4    4.38    0.34
   0  -6   4    4.07    0.28
   0  -6   4    4.47    0.30
   0  -6   4    4.33    0.29
   0  -6   4    4.06    0.21
   0  -6   4    3.88    0.32
   0  -6   4    3.97    0.31
  -1   6  -4    1.70    0.25
  -1   6  -4    1.67    0.18
  -1   6  -4    1.10    0.22
   1  -6   4    1.67    0.23
   1  -6   4    1.41    0.15
   1  -6   4    1.52    0.24
   1  -6   4    1.91    0.25
   1  -6   4    1.48    0.19
  -2   6  -4    1.60    0.28
  -2   6  -4    2.02    0.17
   2  -6   4    2.13    0.27
   2  -6   4    1.92    0.28
   2  -6   4    1.58    0.24
   2  -6   4    1.83    0.19
   3  -6   4    0.61    0.16
   3  -6   4    0.26    0.14
   3  -6   4    0.32    0.10
   4  -6   4   -0.09    0.08
   4  -6   4   -0.12    0.10
   5  -6   4    0.05    0.11
   5  -6   4   -0.04    0.14
   6   5  -4    0.06    0.10
   5   5  -4    1.05    0.18
   4   5  -4    1.58    0.21
   3   5  -4    1.33    0.17
   3   5  -4    1.55    0.21
  -3  -5   4    1.41    0.23
  -3  -5   4    1.51    0.20
  -3  -5   4    1.72    0.18
   2   5  -4    0.23    0.07
   2   5  -4    0.20    0.09
   2   5  -4    0.10    0.08
   2   5  -4    0.32    0.12
   2   5  -4    0.15    0.07
   2   5  -4    0.11    0.08
   2   5  -4    0.24    0.08
  -2  -5   4    0.14    0.08
  -2  -5   4    0.21    0.11
  -2  -5   4    0.47    0.12
  -2  -5   4    0.32    0.08
  -2  -5   4    0.33    0.10
   1   5  -4    1.59    0.16
   1   5  -4    1.32    0.19
   1   5  -4    1.31    0.20
   1   5  -4    1.56    0.20
   1   5  -4    1.46    0.18
   1   5  -4    1.36    0.19
   1   5  -4    1.49    0.21
  -1  -5   4    1.34    0.19
  -1  -5   4    1.28    0.18
  -1  -5   4    1.80    0.19
  -1  -5   4    1.33    0.18
  -1  -5   4    1.45    0.09
  -1  -5   4    1.60    0.18
  -1  -5   4    1.28    0.19
  -1  -5   4    1.45    0.18
   0   5  -4   16.32    0.54
   0   5  -4   15.91    0.71
   0   5  -4   15.76    0.62
   0   5  -4   15.27    0.58
   0   5  -4   15.89    0.56
   0   5  -4   18.09    0.71
   0   5  -4   15.49    0.68
   0  -5   4   16.27    0.62
   0  -5   4   15.85    0.60
   0  -5   4   15.16    0.68
   0  -5   4   16.12    0.50
   0  -5   4   17.14    0.64
   0  -5   4   16.08    0.67
   0  -5   4   17.69    0.70
  -1   5  -4    1.84    0.25
  -1   5  -4    2.37    0.29
  -1   5  -4    1.92    0.18
  -1   5  -4    2.41    0.27
  -1   5  -4    2.22    0.13
  -1   5  -4    2.53    0.15
  -1   5  -4    2.02    0.25
   1  -5   4    1.81    0.24
   1  -5   4    2.11    0.20
   1  -5   4    2.15    0.24
   1  -5   4    2.07    0.15
   1  -5   4    1.72    0.21
  -2   5  -4    5.93    0.42
  -2   5  -4    6.36    0.25
   2  -5   4    6.27    0.29
   2  -5   4    6.94    0.44
   2  -5   4    6.98    0.41
   2  -5   4    7.00    0.39
   3  -5   4    3.41    0.34
   3  -5   4    3.75    0.38
   3  -5   4    4.08    0.42
   4  -5   4    3.94    0.39
   4  -5   4    3.59    0.42
   5  -5   4    0.40    0.17
   5  -5   4    0.20    0.12
   6   4  -4   -0.06    0.08
   5   4  -4    0.40    0.12
   4   4  -4    1.46    0.19
  -4  -4   4    1.40    0.24
   3   4  -4    1.60    0.17
   3   4  -4    1.06    0.16
   3   4  -4    1.40    0.22
   3   4  -4    1.11    0.18
   3   4  -4    1.35    0.18
  -3  -4   4    1.47    0.22
  -3  -4   4    1.78    0.20
  -3  -4   4    1.67    0.15
  -3  -4   4    1.40    0.22
  -3  -4   4    1.58    0.18
   2   4  -4    8.42    0.30
   2   4  -4    7.79    0.42
   2   4  -4    8.39    0.42
   2   4  -4    8.17    0.37
   2   4  -4    8.24    0.40
   2   4  -4    8.43    0.41
   2   4  -4    8.32    0.40
  -2  -4   4    8.44    0.42
  -2  -4   4    8.96    0.44
  -2  -4   4    8.79    0.33
  -2  -4   4    8.04    0.41
  -2  -4   4    8.56    0.38
   1   4  -4    0.18    0.07
   1   4  -4    0.15    0.07
   1   4  -4    0.20    0.08
   1   4  -4    0.37    0.10
   1   4  -4    0.31    0.06
   1   4  -4    0.25    0.08
   1   4  -4    0.09    0.07
   1   4  -4    0.12    0.06
  -1  -4   4    0.33    0.09
  -1  -4   4    0.17    0.06
  -1  -4   4    0.15    0.07
  -1  -4   4    0.30    0.05
  -1  -4   4    0.23    0.07
  -1  -4   4    0.17    0.06
  -1  -4   4    0.23    0.03
   0   4  -4    1.13    0.12
   0   4  -4    1.05    0.14
   0   4  -4    0.95    0.15
   0   4  -4    1.20    0.17
   0   4  -4    1.23    0.17
   0   4  -4    1.13    0.13
   0   4  -4    0.73    0.14
   0   4  -4    1.27    0.14
   0  -4   4    1.01    0.15
   0  -4   4    1.09    0.14
   0  -4   4    1.30    0.16
   0  -4   4    0.87    0.13
   0  -4   4    0.98    0.12
   0  -4   4    1.12    0.17
   0  -4   4    0.99    0.16
   0  -4   4    1.05    0.10
  -1   4  -4    0.00    0.05
  -1   4  -4   -0.01    0.03
  -1   4  -4   -0.06    0.04
  -1   4  -4   -0.01    0.02
  -1   4  -4    0.03    0.05
  -1   4  -4    0.00    0.03
   1  -4   4    0.01    0.03
   1  -4   4   -0.03    0.05
   1  -4   4    0.02    0.04
   1  -4   4   -0.04    0.04
   1  -4   4   -0.01    0.03
   1  -4   4    0.02    0.04
  -2   4  -4    0.06    0.07
  -2   4  -4    0.10    0.03
  -2   4  -4    0.22    0.09
  -2   4  -4    0.06    0.08
   2  -4   4    0.05    0.04
   2  -4   4    0.18    0.06
   2  -4   4    0.09    0.06
   2  -4   4    0.02    0.06
   2  -4   4    0.11    0.06
  -3   4  -4    3.78    0.31
   3  -4   4    3.50    0.37
   3  -4   4    2.85    0.28
   4  -4   4    2.23    0.26
   5  -4   4    2.71    0.32
   6   3  -4    0.09    0.08
   5   3  -4   -0.02    0.05
   4   3  -4    3.30    0.23
  -4  -3   4    3.11    0.32
   3   3  -4    2.36    0.15
   3   3  -4    2.27    0.17
   3   3  -4    2.82    0.20
   3   3  -4    2.09    0.24
   3   3  -4    2.74    0.29
   3   3  -4    2.37    0.19
  -3  -3   4    2.10    0.13
  -3  -3   4    2.19    0.16
  -3  -3   4    2.27    0.26
  -3  -3   4    1.93    0.25
  -3  -3   4    2.52    0.20
   2   3  -4    0.09    0.04
   2   3  -4    0.05    0.06
   2   3  -4    0.12    0.07
   2   3  -4    0.12    0.03
   2   3  -4    0.13    0.06
   2   3  -4    0.12    0.06
   2   3  -4   -0.07    0.05
   2   3  -4    0.17    0.07
  -2  -3   4    0.13    0.05
  -2  -3   4    0.09    0.06
  -2  -3   4    0.15    0.04
  -2  -3   4    0.10    0.06
  -2  -3   4    0.05    0.05
   1   3  -4    0.06    0.03
   1   3  -4    0.15    0.06
   1   3  -4    0.08    0.05
   1   3  -4    0.13    0.06
   1   3  -4    0.08    0.04
   1   3  -4    0.08    0.05
   1   3  -4    0.06    0.05
   1   3  -4    0.07    0.05
  -1  -3   4    0.03    0.04
  -1  -3   4    0.10    0.04
  -1  -3   4    0.11    0.05
  -1  -3   4    0.03    0.04
  -1  -3   4    0.15    0.03
  -1  -3   4    0.04    0.03
  -1  -3   4    0.08    0.04
  -1  -3   4    0.09    0.02
   0   3  -4   27.92    0.97
   0   3  -4   29.04    0.90
   0   3  -4   28.94    0.79
   0   3  -4   29.18    0.95
   0   3  -4   28.01    0.84
   0   3  -4   30.68    0.84
   0   3  -4   29.78    0.94
   0  -3   4   28.65    0.86
   0  -3   4   29.93    0.91
   0  -3   4   28.97    0.95
   0  -3   4   28.29    0.96
   0  -3   4   28.37    0.94
   0  -3   4   30.09    0.89
   0  -3   4   28.91    0.84
   0  -3   4   29.57    0.75
  -1   3  -4    1.17    0.11
  -1   3  -4    1.25    0.07
  -1   3  -4    1.52    0.17
  -1   3  -4    1.22    0.16
  -1   3  -4    1.31    0.08
  -1   3  -4    1.10    0.15
   1  -3   4    1.23    0.13
   1  -3   4    1.27    0.11
   1  -3   4    1.22    0.14
   1  -3   4    1.09    0.15
   1  -3   4    1.95    0.20
   1  -3   4    1.24    0.16
   1  -3   4    1.28    0.15
  -2   3  -4    0.88    0.14
  -2   3  -4    1.12    0.17
  -2   3  -4    1.19    0.16
   2  -3   4    0.85    0.16
   2  -3   4    1.29    0.11
   2  -3   4    1.16    0.15
   2  -3   4    1.30    0.15
   2  -3   4    0.91    0.10
  -3   3  -4    2.56    0.27
   3  -3   4    2.26    0.28
   3  -3   4    2.53    0.18
   3  -3   4    2.40    0.20
   4  -3   4    3.98    0.28
   4  -3   4    3.95    0.27
   4  -3   4    3.61    0.40
   5  -3   4    2.42    0.27
   5  -3   4    2.86    0.29
   6  -3   4    0.20    0.11
   6   2  -4    0.40    0.12
   5   2  -4    0.06    0.06
  -5  -2   4    0.09    0.09
   4   2  -4    2.01    0.16
   4   2  -4    1.82    0.19
  -4  -2   4    1.77    0.24
  -4  -2   4    1.90    0.20
   3   2  -4    0.42    0.11
   3   2  -4    0.37    0.08
   3   2  -4    0.32    0.08
   3   2  -4    0.33    0.08
   3   2  -4    0.40    0.06
   3   2  -4    0.44    0.12
  -3  -2   4    0.26    0.10
  -3  -2   4    0.48    0.06
  -3  -2   4    0.21    0.08
  -3  -2   4    0.27    0.08
  -3  -2   4    0.35    0.06
   2   2  -4    3.05    0.19
   2   2  -4    3.12    0.22
   2   2  -4    3.06    0.18
   2   2  -4    2.66    0.20
   2   2  -4    3.13    0.21
   2   2  -4    3.12    0.14
  -2  -2   4    3.09    0.11
  -2  -2   4    3.26    0.15
  -2  -2   4    3.10    0.20
  -2  -2   4    2.94    0.22
  -2  -2   4    2.93    0.21
   1   2  -4    0.01    0.03
   1   2  -4    0.11    0.03
   1   2  -4    0.10    0.05
   1   2  -4    0.12    0.05
   1   2  -4    0.02    0.03
   1   2  -4    0.15    0.06
  -1  -2   4    0.15    0.05
  -1  -2   4    0.06    0.03
  -1  -2   4    0.20    0.03
  -1  -2   4    0.11    0.05
  -1  -2   4    0.11    0.05
  -1  -2   4    0.15    0.03
  -1  -2   4    0.11    0.04
   0   2  -4   43.27    1.32
   0   2  -4   43.66    1.08
   0   2  -4   41.36    1.27
   0   2  -4   41.84    1.25
   0  -2   4   44.34    1.31
   0  -2   4   42.94    1.26
   0  -2   4   43.23    1.17
   0  -2   4   43.13    1.23
   0  -2   4   43.55    1.22
   0  -2   4   41.95    1.05
   0  -2   4   44.45    1.28
  -1   2  -4   20.89    0.55
  -1   2  -4   20.33    0.55
  -1   2  -4   21.62    0.68
  -1   2  -4   20.74    0.69
  -1   2  -4   20.12    0.72
   1  -2   4   21.35    0.67
   1  -2   4   20.11    0.68
   1  -2   4   20.09    0.70
   1  -2   4   21.07    0.55
   1  -2   4   20.44    0.55
  -2   2  -4   15.27    0.55
  -2   2  -4   14.77    0.58
   2  -2   4   15.47    0.53
   2  -2   4   14.42    0.54
   2  -2   4   15.65    0.56
  -3   2  -4    1.14    0.16
  -3   2  -4    1.43    0.18
   3  -2   4    1.34    0.15
   3  -2   4    1.00    0.13
   3  -2   4    1.29    0.16
   3  -2   4    1.59    0.18
  -4   2  -4    0.31    0.10
   4  -2   4    0.30    0.08
   4  -2   4    0.23    0.08
   5  -2   4    1.05    0.16
   5  -2   4    1.23    0.18
   6  -2   4    0.47    0.13
   6  -2   4    0.44    0.13
   6   1  -4    0.44    0.13
   5   1  -4    0.15    0.09
   4   1  -4    6.17    0.32
   4   1  -4    5.73    0.34
   4   1  -4    6.28    0.31
  -4  -1   4    6.07    0.35
   3   1  -4    9.87    0.48
   3   1  -4   10.73    0.43
   3   1  -4   11.19    0.42
   3   1  -4   10.49    0.44
   3   1  -4   10.67    0.35
   3   1  -4   10.45    0.45
  -3  -1   4    9.84    0.48
  -3  -1   4   11.91    0.48
  -3  -1   4   11.46    0.47
   2   1  -4    2.96    0.19
   2   1  -4    2.74    0.20
   2   1  -4    2.56    0.18
   2   1  -4    2.64    0.16
   2   1  -4    2.35    0.16
  -2  -1   4    2.01    0.16
  -2  -1   4    2.72    0.20
  -2  -1   4    2.57    0.19
   1   1  -4    0.04    0.03
   1   1  -4    0.06    0.04
   1   1  -4    0.02    0.02
   1   1  -4    0.07    0.04
   1   1  -4    0.02    0.04
  -1  -1   4    0.04    0.04
  -1  -1   4    0.06    0.02
  -1  -1   4    0.04    0.03
  -1  -1   4    0.05    0.04
  -1  -1   4    0.06    0.03
  -1  -1   4    0.05    0.03
  -1  -1   4    0.06    0.02
   0   1  -4   11.95    0.39
   0   1  -4   12.11    0.45
   0   1  -4   11.69    0.35
   0   1  -4   12.08    0.42
   0   1  -4   11.74    0.36
   0  -1   4   11.78    0.39
   0  -1   4   11.08    0.43
   0  -1   4   12.43    0.41
   0  -1   4   11.67    0.32
   0  -1   4   11.38    0.43
  -1   1  -4  173.23    4.37
  -1   1  -4  173.56    4.51
  -1   1  -4  178.73    3.94
  -1   1  -4  169.23    4.27
  -1   1  -4  172.70    4.62
  -1   1  -4  167.34    4.71
   1  -1   4  171.23    4.50
   1  -1   4  176.35    3.96
   1  -1   4  175.53    4.27
   1  -1   4  178.68    4.57
  -2   1  -4   60.43    1.68
  -2   1  -4   61.86    1.75
  -2   1  -4   59.88    1.52
  -2   1  -4   59.46    1.68
   2  -1   4   61.10    1.52
   2  -1   4   60.14    1.64
   2  -1   4   56.49    1.69
   2  -1   4   62.22    1.67
   2  -1   4   58.51    1.51
   2  -1   4   62.09    1.72
  -3   1  -4    0.08    0.05
  -3   1  -4    0.16    0.07
  -3   1  -4    0.11    0.05
   3  -1   4    0.13    0.04
   3  -1   4    0.13    0.05
   3  -1   4    0.04    0.04
   3  -1   4    0.13    0.04
   3  -1   4    0.21    0.05
  -4   1  -4    3.73    0.24
  -4   1  -4    3.70    0.24
   4  -1   4    3.38    0.21
   5  -1   4    0.57    0.11
   6  -1   4    0.04    0.07
   6  -1   4    0.03    0.07
   6   0  -4    0.12    0.11
   5   0  -4    1.59    0.21
   4   0  -4    3.05    0.23
   4   0  -4    2.91    0.22
   4   0  -4    2.97    0.30
  -4   0   4    2.98    0.22
  -4   0   4    2.97    0.32
   3   0  -4    0.40    0.06
   3   0  -4    0.53    0.12
   3   0  -4    0.36    0.08
   3   0  -4    0.35    0.09
   3   0  -4    0.44    0.09
   3   0  -4    0.29    0.08
   3   0  -4    0.34    0.06
   3   0  -4    0.32    0.07
  -3   0   4    0.40    0.12
  -3   0   4    0.44    0.11
  -3   0   4    0.48    0.10
   2   0  -4   14.19    0.53
   2   0  -4   14.46    0.54
   2   0  -4   14.32    0.42
   2   0  -4   14.46    0.41
   2   0  -4   14.21    0.50
   2   0  -4   14.09    0.41
   2   0  -4   13.53    0.50
  -2   0   4   14.41    0.50
  -2   0   4   13.75    0.54
  -2   0   4   15.11    0.55
   1   0  -4    7.04    0.21
   1   0  -4    7.34    0.21
   1   0  -4    7.11    0.32
   1   0  -4    6.91    0.29
   1   0  -4    7.17    0.30
   1   0  -4    7.06    0.24
  -1   0   4    7.09    0.28
  -1   0   4    7.23    0.29
  -1   0   4    7.18    0.21
  -1   0   4    6.84    0.20
  -1   0   4    6.57    0.30
  -1   0   4    7.32    0.29
   0   0  -4   21.86    0.72
   0   0  -4   22.47    0.64
   0   0  -4   21.45    0.61
   0   0  -4   22.21    0.67
   0   0  -4   22.15    0.66
   0   0  -4   23.05    0.58
   0   0   4   18.85    0.65
   0   0   4   22.69    0.55
   0   0   4   21.52    0.68
   0   0   4   23.58    0.72
   0   0   4   22.17    0.65
  -1   0  -4   27.96    0.82
  -1   0  -4   27.92    0.86
   1   0   4   28.13    0.81
   1   0   4   27.85    0.88
   1   0   4   28.02    0.79
   1   0   4   27.15    0.76
  -2   0  -4    0.43    0.07
  -2   0  -4    0.55    0.07
  -2   0  -4    0.41    0.06
  -2   0  -4    0.39    0.09
   2   0   4    0.46    0.06
   2   0   4    0.45    0.06
   2   0   4    0.40    0.06
   2   0   4    0.53    0.07
   2   0   4    0.46    0.10
  -3   0  -4    4.05    0.20
  -3   0  -4    4.10    0.27
  -3   0  -4    4.10    0.20
   3   0   4    3.66    0.23
   3   0   4    4.09    0.17
   3   0   4    4.36    0.20
   3   0   4    4.06    0.21
   3   0   4    4.05    0.18
   3   0   4    3.80    0.17
  -4   0  -4    6.27    0.38
  -4   0  -4    6.32    0.27
  -4   0  -4    5.97    0.27
   4   0   4    5.71    0.32
   4   0   4    5.77    0.30
   4   0   4    6.07    0.26
   4   0   4    5.83    0.24
   4   0   4    6.49    0.30
  -5   0  -4    1.49    0.24
   5   0   4    1.27    0.13
   6   0   4    0.03    0.06
   6  -1  -4    0.29    0.13
   5  -1  -4    0.62    0.14
   4  -1  -4    0.35    0.10
   4  -1  -4    0.24    0.08
   4  -1  -4    0.25    0.12
  -4   1   4    0.40    0.12
   3  -1  -4    9.32    0.36
   3  -1  -4    9.28    0.43
   3  -1  -4    8.87    0.43
   3  -1  -4    8.88    0.41
   3  -1  -4    8.74    0.35
  -3   1   4    9.59    0.37
  -3   1   4    9.13    0.44
  -3   1   4    8.97    0.45
   2  -1  -4  117.62    3.07
   2  -1  -4  115.60    2.95
   2  -1  -4  117.09    3.16
   2  -1  -4  115.08    3.29
   2  -1  -4  120.05    3.16
   2  -1  -4  118.56    2.76
  -2   1   4  114.54    3.07
  -2   1   4  117.14    3.32
  -2   1   4  118.99    3.02
   1  -1  -4    9.37    0.37
   1  -1  -4    9.04    0.30
   1  -1  -4    9.11    0.31
   1  -1  -4    9.44    0.30
   1  -1  -4    9.30    0.39
   1  -1  -4    9.46    0.37
  -1   1   4    9.13    0.37
  -1   1   4    9.60    0.27
  -1   1   4    8.95    0.31
  -1   1   4    8.95    0.33
  -1   1   4    9.02    0.35
  -1   1   4    9.43    0.40
   0  -1  -4    8.21    0.30
   0  -1  -4    7.61    0.29
   0  -1  -4    8.02    0.25
   0  -1  -4    7.72    0.29
   0  -1  -4    7.75    0.33
   0  -1  -4    7.61    0.27
   0   1   4    8.41    0.30
   0   1   4    7.79    0.23
   0   1   4    8.10    0.33
   0   1   4    6.08    0.28
  -1  -1  -4    8.63    0.31
  -1  -1  -4    8.14    0.33
  -1  -1  -4    9.03    0.37
  -1  -1  -4    8.34    0.33
   1   1   4    8.41    0.30
   1   1   4    8.75    0.31
   1   1   4    8.91    0.36
   1   1   4    8.77    0.30
  -2  -1  -4    9.57    0.36
  -2  -1  -4    9.93    0.36
  -2  -1  -4   10.44    0.45
  -2  -1  -4   10.30    0.31
  -2  -1  -4    9.90    0.41
   2   1   4    9.87    0.44
   2   1   4   10.40    0.37
   2   1   4   10.27    0.31
   2   1   4    9.69    0.32
   2   1   4    9.86    0.34
  -3  -1  -4   48.55    1.36
  -3  -1  -4   48.64    1.44
   3   1   4   49.36    1.27
   3   1   4   48.60    1.37
   3   1   4   47.28    1.40
   3   1   4   47.69    1.26
   3   1   4   47.47    1.54
   3   1   4   48.46    1.26
   3   1   4   49.14    1.35
  -4  -1  -4    2.53    0.13
  -4  -1  -4    3.23    0.31
  -4  -1  -4    2.50    0.12
   4   1   4    2.59    0.11
   4   1   4    2.69    0.20
   4   1   4    2.87    0.22
   4   1   4    2.42    0.25
   4   1   4    2.48    0.10
  -5  -1  -4    5.47    0.38
   5   1   4    5.02    0.21
   5   1   4    4.54    0.19
  -6  -1  -4    0.51    0.18
   6   1   4    0.61    0.09
   7   1   4    0.00    0.06
   7   1   4   -0.03    0.06
   6  -2  -4    0.61    0.17
   5  -2  -4    0.43    0.14
   4  -2  -4    0.64    0.14
   4  -2  -4    0.51    0.12
   4  -2  -4    0.61    0.15
  -4   2   4    0.74    0.17
   3  -2  -4    0.30    0.09
   3  -2  -4    0.33    0.08
   3  -2  -4    0.27    0.09
   3  -2  -4    0.26    0.10
   3  -2  -4    0.30    0.08
  -3   2   4    0.59    0.14
  -3   2   4    0.23    0.09
  -3   2   4    0.41    0.07
   2  -2  -4   23.10    0.76
   2  -2  -4   21.93    0.77
   2  -2  -4   23.06    0.74
   2  -2  -4   23.33    0.66
   2  -2  -4   21.61    0.70
   2  -2  -4   23.09    0.83
  -2   2   4   23.95    0.78
  -2   2   4   23.57    0.68
  -2   2   4   22.33    0.84
   1  -2  -4   36.40    1.03
   1  -2  -4   34.14    1.06
   1  -2  -4   34.84    0.91
   1  -2  -4   34.54    0.98
   1  -2  -4   35.22    1.14
   1  -2  -4   35.88    1.05
  -1   2   4   35.55    1.14
  -1   2   4   34.76    1.05
  -1   2   4   35.07    1.06
  -1   2   4   35.93    0.88
  -1   2   4   35.08    1.04
   0  -2  -4    9.28    0.37
   0  -2  -4    9.37    0.35
   0  -2  -4    9.13    0.29
   0  -2  -4    9.04    0.39
   0  -2  -4    9.14    0.35
   0  -2  -4    9.37    0.34
   0  -2  -4    9.04    0.27
   0   2   4    9.33    0.36
   0   2   4    9.36    0.28
   0   2   4    8.84    0.36
   0   2   4    9.06    0.36
  -1  -2  -4   81.02    2.26
  -1  -2  -4   78.23    2.28
  -1  -2  -4   78.04    2.09
  -1  -2  -4   80.00    2.11
   1   2   4   81.80    2.09
   1   2   4   82.61    2.14
   1   2   4   79.89    2.15
   1   2   4   77.36    2.27
  -2  -2  -4    4.44    0.23
  -2  -2  -4    4.22    0.25
  -2  -2  -4    3.92    0.26
  -2  -2  -4    4.04    0.20
   2   2   4    4.13    0.17
   2   2   4    4.21    0.22
   2   2   4    4.21    0.27
   2   2   4    4.15    0.19
   2   2   4    4.15    0.17
  -3  -2  -4    0.32    0.11
  -3  -2  -4    0.33    0.09
  -3  -2  -4    0.23    0.09
  -3  -2  -4    0.23    0.05
   3   2   4    0.30    0.09
   3   2   4    0.28    0.03
   3   2   4    0.33    0.03
   3   2   4    0.25    0.07
   3   2   4    0.27    0.08
  -4  -2  -4    0.02    0.06
  -4  -2  -4   -0.06    0.06
  -4  -2  -4    0.03    0.06
   4   2   4    0.07    0.07
   4   2   4    0.02    0.05
  -5  -2  -4    0.70    0.18
   5   2   4    0.88    0.16
   5   2   4    1.08    0.20
  -6  -2  -4    0.35    0.17
   6   2   4    0.53    0.06
   7   2   4    0.06    0.05
   6  -3  -4    0.90    0.22
   5  -3  -4    1.94    0.28
   4  -3  -4    2.65    0.27
   4  -3  -4    1.92    0.24
   3  -3  -4    0.19    0.08
   3  -3  -4    0.13    0.09
   3  -3  -4    0.24    0.09
   3  -3  -4    0.52    0.11
  -3   3   4    0.19    0.09
   2  -3  -4    3.69    0.27
   2  -3  -4    3.98    0.26
   2  -3  -4    3.31    0.23
   2  -3  -4    3.80    0.22
   2  -3  -4    3.52    0.23
   2  -3  -4    3.39    0.19
  -2   3   4    4.02    0.25
  -2   3   4    3.88    0.25
  -2   3   4    3.64    0.17
  -2   3   4    3.47    0.14
  -2   3   4    3.64    0.29
   1  -3  -4   18.53    0.55
   1  -3  -4   19.23    0.63
   1  -3  -4   18.43    0.65
   1  -3  -4   17.98    0.65
   1  -3  -4   18.15    0.71
   1  -3  -4   17.58    0.61
  -1   3   4   17.95    0.73
  -1   3   4   18.69    0.53
  -1   3   4   18.85    0.66
  -1   3   4   18.66    0.64
  -1   3   4   18.69    0.67
   0  -3  -4    1.55    0.15
   0  -3  -4    1.73    0.10
   0  -3  -4    1.66    0.09
   0  -3  -4    1.68    0.16
   0  -3  -4    1.45    0.16
   0  -3  -4    1.57    0.16
   0  -3  -4    1.87    0.20
   0   3   4    1.42    0.15
   0   3   4    1.39    0.17
   0   3   4    1.54    0.17
   0   3   4    1.48    0.10
   0   3   4    1.79    0.17
  -1  -3  -4   56.14    1.76
  -1  -3  -4   57.07    1.61
  -1  -3  -4   57.87    1.63
  -1  -3  -4   57.86    1.74
   1   3   4   60.50    1.74
   1   3   4   60.54    1.66
   1   3   4   58.61    1.75
   1   3   4   60.40    1.40
   1   3   4   60.32    1.40
   1   3   4   59.93    1.62
  -2  -3  -4   11.37    0.46
  -2  -3  -4   10.35    0.42
  -2  -3  -4   11.53    0.51
  -2  -3  -4   10.95    0.45
  -2  -3  -4   10.55    0.39
   2   3   4   11.12    0.47
   2   3   4   11.34    0.39
   2   3   4   11.08    0.40
   2   3   4   11.45    0.45
   2   3   4   10.92    0.42
   2   3   4   11.08    0.49
  -3  -3  -4   10.27    0.53
  -3  -3  -4   11.10    0.48
  -3  -3  -4   11.21    0.40
  -3  -3  -4   11.40    0.50
   3   3   4   10.59    0.36
   3   3   4   11.09    0.35
   3   3   4   11.08    0.34
   3   3   4   10.60    0.52
   3   3   4   10.98    0.49
   3   3   4   10.42    0.33
   3   3   4   11.26    0.47
  -4  -3  -4    1.83    0.24
  -4  -3  -4    2.16    0.28
  -4  -3  -4    1.77    0.23
   4   3   4    1.40    0.19
   4   3   4    1.87    0.08
   4   3   4    1.94    0.09
   4   3   4    1.80    0.08
   4   3   4    2.29    0.26
  -5  -3  -4    0.05    0.11
  -5  -3  -4    0.01    0.10
  -6  -3  -4    0.11    0.13
   5  -4  -4    2.13    0.31
   4  -4  -4    0.17    0.10
   4  -4  -4    0.40    0.14
   3  -4  -4    0.03    0.06
   3  -4  -4   -0.04    0.06
   3  -4  -4    0.11    0.08
   3  -4  -4    0.07    0.06
   3  -4  -4    0.09    0.06
  -3   4   4    0.02    0.08
   2  -4  -4   10.67    0.50
   2  -4  -4   11.09    0.48
   2  -4  -4   10.43    0.40
   2  -4  -4    9.30    0.52
   2  -4  -4    9.49    0.43
   2  -4  -4   10.25    0.45
  -2   4   4   10.74    0.34
  -2   4   4    9.80    0.33
  -2   4   4   10.76    0.47
   1  -4  -4    3.91    0.29
   1  -4  -4    4.12    0.24
   1  -4  -4    4.40    0.27
   1  -4  -4    4.43    0.26
   1  -4  -4    4.11    0.21
  -1   4   4    4.64    0.22
  -1   4   4    4.09    0.33
  -1   4   4    4.26    0.28
  -1   4   4    4.44    0.20
  -1   4   4    4.02    0.25
  -1   4   4    4.41    0.29
   0  -4  -4    4.21    0.24
   0  -4  -4    3.93    0.18
   0  -4  -4    3.96    0.24
   0  -4  -4    4.35    0.29
   0  -4  -4    3.90    0.17
   0  -4  -4    3.72    0.25
   0  -4  -4    4.17    0.24
   0   4   4    3.69    0.23
   0   4   4    3.95    0.29
   0   4   4    4.08    0.26
   0   4   4    2.94    0.23
   0   4   4    3.47    0.22
   0   4   4    4.01    0.19
  -1  -4  -4    0.19    0.07
  -1  -4  -4    0.20    0.03
  -1  -4  -4    0.16    0.06
  -1  -4  -4    0.18    0.03
  -1  -4  -4    0.13    0.06
  -1  -4  -4    0.17    0.07
  -1  -4  -4    0.19    0.08
   1   4   4    0.30    0.09
   1   4   4    0.14    0.06
   1   4   4    0.15    0.07
   1   4   4    0.28    0.05
   1   4   4    0.17    0.07
  -2  -4  -4    1.60    0.19
  -2  -4  -4    1.39    0.15
  -2  -4  -4    1.60    0.19
  -2  -4  -4    1.28    0.18
  -2  -4  -4    1.11    0.15
   2   4   4    1.32    0.15
   2   4   4    1.25    0.18
   2   4   4    1.66    0.13
   2   4   4    1.43    0.18
  -3  -4  -4    7.74    0.46
  -3  -4  -4    7.71    0.42
  -3  -4  -4    7.48    0.40
  -3  -4  -4    7.84    0.35
  -3  -4  -4    7.62    0.26
   3   4   4    8.04    0.31
   3   4   4    7.47    0.32
   3   4   4    8.32    0.41
   3   4   4    7.65    0.31
   3   4   4    8.19    0.43
  -4  -4  -4    1.27    0.22
  -4  -4  -4    1.09    0.19
   4   4   4    1.25    0.10
   4   4   4    1.04    0.10
  -5  -4  -4   -0.07    0.11
  -5  -4  -4    0.21    0.13
   5   4   4    0.09    0.04
   5   4   4    0.06    0.04
  -6  -4  -4   -0.01    0.12
   6   4   4    0.10    0.04
   5  -5  -4    0.27    0.14
   4  -5  -4    0.55    0.18
   4  -5  -4    0.28    0.12
   3  -5  -4    3.60    0.35
   3  -5  -4    3.40    0.24
   3  -5  -4    3.72    0.30
   3  -5  -4    3.68    0.37
   2  -5  -4   10.24    0.52
   2  -5  -4   11.28    0.47
   2  -5  -4   10.46    0.49
   2  -5  -4   10.38    0.42
   2  -5  -4   10.11    0.51
  -2   5   4   10.75    0.50
  -2   5   4   11.01    0.38
   1  -5  -4    8.18    0.40
   1  -5  -4    8.13    0.43
   1  -5  -4    7.36    0.31
   1  -5  -4    7.16    0.36
   1  -5  -4    7.82    0.47
   1  -5  -4    7.18    0.40
  -1   5   4    7.50    0.31
  -1   5   4    7.75    0.43
  -1   5   4    7.49    0.33
  -1   5   4    8.36    0.40
  -1   5   4    8.01    0.48
   0  -5  -4    3.63    0.17
   0  -5  -4    4.32    0.19
   0  -5  -4    3.76    0.27
   0  -5  -4    4.19    0.27
   0  -5  -4    3.85    0.26
   0  -5  -4    3.79    0.25
   0  -5  -4    4.22    0.31
   0   5   4    3.84    0.20
   0   5   4    3.38    0.24
  -1  -5  -4    0.07    0.02
  -1  -5  -4   -0.01    0.04
  -1  -5  -4    0.00    0.04
  -1  -5  -4    0.04    0.05
  -1  -5  -4   -0.03    0.04
  -1  -5  -4   -0.02    0.04
  -1  -5  -4   -0.01    0.05
  -1  -5  -4    0.01    0.06
   1   5   4   -0.01    0.04
   1   5   4    0.02    0.05
   1   5   4    0.05    0.03
   1   5   4    0.01    0.04
  -2  -5  -4    5.34    0.29
  -2  -5  -4    5.79    0.38
  -2  -5  -4    4.84    0.32
  -2  -5  -4    4.58    0.31
  -2  -5  -4    5.18    0.32
   2   5   4    4.84    0.31
   2   5   4    4.73    0.29
  -3  -5  -4    3.26    0.23
  -3  -5  -4    2.50    0.31
  -3  -5  -4    3.09    0.31
  -3  -5  -4    2.76    0.17
   3   5   4    2.92    0.20
   3   5   4    3.11    0.22
  -4  -5  -4    1.68    0.27
  -4  -5  -4    1.48    0.24
   4   5   4    1.25    0.15
  -5  -5  -4    0.05    0.10
   5   5   4    0.05    0.05
  -6  -5  -4   -0.13    0.13
   6   5   4    0.02    0.05
   4  -6  -4    0.49    0.18
   4  -6  -4    0.39    0.15
   3  -6  -4    0.77    0.18
   3  -6  -4    0.96    0.20
   3  -6  -4    0.56    0.13
   3  -6  -4    0.47    0.15
   2  -6  -4   -0.05    0.05
   2  -6  -4   -0.04    0.07
   2  -6  -4   -0.01    0.08
   2  -6  -4    0.04    0.08
   2  -6  -4    0.00    0.05
  -2   6   4    0.01    0.05
   1  -6  -4    9.82    0.39
   1  -6  -4   10.40    0.46
   1  -6  -4    9.55    0.50
   1  -6  -4    9.84    0.53
   1  -6  -4    9.30    0.48
   1  -6  -4    9.54    0.60
  -1   6   4    9.59    0.39
  -1   6   4    8.76    0.46
   0  -6  -4    1.09    0.12
   0  -6  -4    0.98    0.20
   0  -6  -4    0.80    0.16
   0  -6  -4    1.28    0.19
   0  -6  -4    1.15    0.12
   0  -6  -4    1.02    0.16
   0  -6  -4    1.24    0.21
   0   6   4    1.02    0.18
   0   6   4    1.30    0.18
   0   6   4    1.19    0.17
   0   6   4    1.08    0.14
  -1  -6  -4   -0.12    0.05
  -1  -6  -4    0.00    0.06
  -1  -6  -4   -0.04    0.05
  -1  -6  -4    0.01    0.02
  -1  -6  -4    0.04    0.06
   1   6   4    0.02    0.06
   1   6   4   -0.02    0.04
   1   6   4    0.01    0.06
  -2  -6  -4    1.08    0.21
  -2  -6  -4    1.24    0.21
  -2  -6  -4    1.43    0.22
   2   6   4    1.03    0.17
  -3  -6  -4    3.78    0.29
  -3  -6  -4    4.18    0.43
  -3  -6  -4    4.11    0.39
   3   6   4    4.33    0.29
  -4  -6  -4    0.17    0.13
  -4  -6  -4    0.19    0.12
   4   6   4    0.34    0.10
  -5  -6  -4    0.44    0.17
   5   6   4    0.38    0.11
  -6  -6  -4    0.00    0.13
   6   6   4    0.07    0.08
   4  -7  -4    0.78    0.23
   4  -7  -4    0.25    0.14
   3  -7  -4    0.13    0.12
   3  -7  -4    0.07    0.09
   3  -7  -4    0.31    0.13
   2  -7  -4   -0.04    0.05
   2  -7  -4    0.01    0.11
   2  -7  -4   -0.06    0.08
  -2   7   4   -0.02    0.06
   1  -7  -4    3.08    0.21
   1  -7  -4    3.75    0.39
   1  -7  -4    2.98    0.34
  -1   7   4    2.67    0.24
   0  -7  -4    0.18    0.14
   0  -7  -4    0.45    0.08
   0  -7  -4    0.22    0.12
   0  -7  -4    0.43    0.13
   0  -7  -4    0.39    0.08
   0   7   4    0.51    0.11
   0   7   4    0.52    0.17
  -1  -7  -4    1.25    0.22
  -1  -7  -4    1.45    0.09
  -1  -7  -4    0.99    0.21
  -1  -7  -4    1.12    0.22
   1   7   4    1.52    0.17
   1   7   4    1.30    0.23
  -2  -7  -4    0.21    0.11
  -2  -7  -4    0.16    0.11
  -2  -7  -4    0.29    0.13
   2   7   4    0.11    0.08
  -3  -7  -4    2.21    0.30
  -3  -7  -4    1.84    0.30
   3   7   4    2.00    0.25
  -4  -7  -4   -0.01    0.08
   4   7   4   -0.04    0.07
  -5  -7  -4   -0.01    0.13
   5   7   4    0.03    0.08
   6   7   4   -0.02    0.09
   3  -8  -4    0.08    0.14
   3  -8  -4    0.04    0.08
   2  -8  -4    0.05    0.07
   2  -8  -4    0.17    0.12
  -2   8   4    0.14    0.08
   1  -8  -4    0.09    0.07
   1  -8  -4    0.06    0.09
  -1   8   4    0.02    0.07
   0  -8  -4    0.00    0.08
   0  -8  -4   -0.01    0.05
   0  -8  -4   -0.02    0.04
   0   8   4    0.04    0.07
  -1  -8  -4    0.11    0.13
  -1  -8  -4    0.01    0.07
  -1  -8  -4   -0.02    0.03
   1   8   4   -0.05    0.07
   1   8   4   -0.02    0.12
  -2  -8  -4    0.00    0.09
   2   8   4    0.10    0.10
  -3  -8  -4    0.49    0.18
   3   8   4    0.40    0.15
  -4  -8  -4    1.02    0.23
   4   8   4    0.75    0.17
  -5  -8  -4    0.07    0.16
   5   8   4    0.02    0.11
   2  -9  -4   -0.07    0.08
   2  -9  -4    0.01    0.13
  -2   9   4   -0.03    0.07
   1  -9  -4    1.43    0.19
   1  -9  -4    1.85    0.19
   1  -9  -4    2.10    0.34
  -1   9   4    1.60    0.21
   0  -9  -4    0.24    0.15
   0  -9  -4    0.29    0.08
   0  -9  -4    0.10    0.07
   0   9   4    0.04    0.09
  -1  -9  -4    0.21    0.12
   1   9   4    0.01    0.09
   1   9   4    0.08    0.15
  -2  -9  -4    0.38    0.17
   2   9   4    0.05    0.12
  -3  -9  -4    0.03    0.14
   3   9   4    0.22    0.14
  -4  -9  -4    0.59    0.22
   4   9   4    0.54    0.19
  -5  -9  -4   -0.06    0.16
   5   9   4   -0.05    0.12
   1 -10  -4    0.07    0.10
   1 -10  -4    0.13    0.17
  -1  10   4    0.16    0.12
   0 -10  -4    0.29    0.09
   0 -10  -4    0.37    0.16
   0  10   4    0.26    0.12
  -1 -10  -4    0.39    0.17
   1  10   4    0.30    0.13
  -2 -10  -4    0.22    0.18
   2  10   4   -0.14    0.12
  -3 -10  -4   -0.30    0.12
   3  10   4    0.07    0.15
  -4 -10  -4   -0.17    0.11
   4  10   4   -0.07    0.14
  -1 -11  -4    0.12    0.14
  -2 -11  -4   -0.14    0.11
   3  10  -5   -0.03    0.14
   2  10  -5    0.02    0.20
   2  10  -5    0.26    0.13
   1  10  -5    0.02    0.11
  -1 -10   5   -0.01    0.11
   0  10  -5    0.04    0.11
   0 -10   5   -0.03    0.07
   0 -10   5    0.04    0.14
  -1  10  -5   -0.02    0.10
   1 -10   5    0.03    0.14
   1 -10   5    0.03    0.08
   4   9  -5    0.14    0.16
   3   9  -5    0.22    0.17
   2   9  -5    0.40    0.15
   2   9  -5    0.57    0.22
  -2  -9   5    0.69    0.20
   1   9  -5    0.43    0.14
  -1  -9   5    0.40    0.13
  -1  -9   5    0.33    0.07
   0   9  -5    0.08    0.11
   0  -9   5    0.25    0.12
   0  -9   5    0.14    0.08
  -1   9  -5    0.01    0.10
   1  -9   5    0.11    0.12
   1  -9   5    0.06    0.08
  -2   9  -5   -0.05    0.08
   2  -9   5    0.07    0.08
   2  -9   5   -0.09    0.13
   5   8  -5    0.02    0.14
   4   8  -5    0.14    0.13
   3   8  -5   -0.05    0.09
   2   8  -5    0.25    0.12
   2   8  -5    0.24    0.15
  -2  -8   5    0.26    0.12
  -2  -8   5    0.49    0.16
   1   8  -5    0.29    0.16
   1   8  -5    0.35    0.13
  -1  -8   5    0.28    0.13
  -1  -8   5    0.25    0.06
   0   8  -5    0.00    0.07
   0  -8   5    0.13    0.09
   0  -8   5   -0.09    0.04
  -1   8  -5    0.48    0.13
   1  -8   5    0.61    0.13
   1  -8   5    0.60    0.17
  -2   8  -5    0.09    0.08
   2  -8   5    0.17    0.12
   2  -8   5    0.06    0.08
   3  -8   5    0.01    0.12
   3  -8   5   -0.02    0.09
   3  -8   5   -0.14    0.13
   5   7  -5    0.15    0.13
   4   7  -5    0.02    0.11
   3   7  -5    0.07    0.11
   2   7  -5    0.09    0.11
   2   7  -5    0.06    0.07
  -2  -7   5    0.14    0.08
  -2  -7   5    0.05    0.09
   1   7  -5    2.83    0.26
   1   7  -5    2.58    0.27
   1   7  -5    2.41    0.32
   1   7  -5    2.29    0.27
  -1  -7   5    2.79    0.32
  -1  -7   5    2.91    0.33
  -1  -7   5    2.39    0.14
  -1  -7   5    3.25    0.32
   0   7  -5    0.16    0.09
   0   7  -5    0.10    0.12
   0   7  -5    0.29    0.14
   0  -7   5    0.06    0.10
   0  -7   5    0.00    0.04
   0  -7   5   -0.02    0.08
   0  -7   5    0.21    0.10
  -1   7  -5    4.28    0.27
  -1   7  -5    4.09    0.43
   1  -7   5    3.64    0.41
   1  -7   5    2.79    0.32
   1  -7   5    3.53    0.23
  -2   7  -5    3.68    0.22
   2  -7   5    4.26    0.44
   2  -7   5    3.62    0.24
   2  -7   5    3.20    0.36
   3  -7   5    1.58    0.28
   3  -7   5    1.57    0.27
   3  -7   5    1.66    0.21
   4  -7   5   -0.05    0.11
   4  -7   5   -0.06    0.11
   6   6  -5   -0.06    0.12
   5   6  -5    0.08    0.11
   4   6  -5    0.09    0.09
   3   6  -5    0.72    0.17
  -3  -6   5    0.68    0.15
   2   6  -5    0.16    0.07
   2   6  -5    0.07    0.08
  -2  -6   5    0.20    0.11
  -2  -6   5    0.05    0.08
  -2  -6   5    0.05    0.07
   1   6  -5    0.27    0.11
   1   6  -5    0.12    0.08
   1   6  -5    0.29    0.11
   1   6  -5    0.04    0.05
   1   6  -5    0.05    0.08
  -1  -6   5    0.07    0.06
  -1  -6   5    0.20    0.10
  -1  -6   5    0.07    0.04
  -1  -6   5    0.23    0.10
   0   6  -5    0.29    0.12
   0   6  -5    0.26    0.09
   0   6  -5    0.28    0.13
   0   6  -5    0.26    0.12
   0   6  -5    0.21    0.08
   0   6  -5    0.30    0.09
   0  -6   5    0.17    0.09
   0  -6   5    0.33    0.10
   0  -6   5    0.31    0.11
   0  -6   5    0.39    0.11
   0  -6   5    0.24    0.07
  -1   6  -5   -0.04    0.05
  -1   6  -5   -0.01    0.09
  -1   6  -5   -0.01    0.10
   1  -6   5   -0.02    0.04
   1  -6   5   -0.03    0.06
   1  -6   5   -0.04    0.06
   1  -6   5   -0.06    0.05
   1  -6   5    0.00    0.07
  -2   6  -5    0.42    0.16
  -2   6  -5    0.29    0.08
   2  -6   5    0.41    0.10
   2  -6   5    0.38    0.13
   2  -6   5    0.36    0.13
   3  -6   5    2.32    0.30
   3  -6   5    1.76    0.28
   3  -6   5    1.85    0.20
   4  -6   5    1.04    0.22
   4  -6   5    1.27    0.27
   5  -6   5    0.26    0.18
   6   5  -5   -0.05    0.10
   5   5  -5   -0.09    0.08
   4   5  -5    0.21    0.10
   3   5  -5    0.02    0.08
  -3  -5   5    0.03    0.06
  -3  -5   5    0.06    0.09
   2   5  -5    0.54    0.14
   2   5  -5    0.47    0.12
   2   5  -5    0.62    0.10
   2   5  -5    0.46    0.13
   2   5  -5    0.61    0.12
   2   5  -5    0.20    0.10
  -2  -5   5    0.25    0.10
  -2  -5   5    0.43    0.11
  -2  -5   5    0.44    0.09
  -2  -5   5    0.45    0.13
   1   5  -5    8.78    0.41
   1   5  -5    8.79    0.36
   1   5  -5    9.81    0.49
   1   5  -5    8.73    0.48
   1   5  -5    9.34    0.44
   1   5  -5    9.32    0.47
  -1  -5   5    8.64    0.42
  -1  -5   5    8.40    0.43
  -1  -5   5    8.93    0.38
  -1  -5   5    8.43    0.26
  -1  -5   5    9.43    0.47
  -1  -5   5    9.22    0.30
  -1  -5   5    9.03    0.42
  -1  -5   5    8.16    0.46
   0   5  -5    0.07    0.07
   0   5  -5    0.13    0.08
   0   5  -5    0.19    0.12
   0   5  -5    0.23    0.08
   0   5  -5    0.14    0.06
   0   5  -5    0.22    0.07
   0   5  -5    0.31    0.11
   0  -5   5    0.22    0.07
   0  -5   5    0.26    0.10
   0  -5   5    0.17    0.05
   0  -5   5    0.24    0.08
   0  -5   5    0.34    0.11
   0  -5   5    0.15    0.08
   0  -5   5    0.17    0.08
  -1   5  -5    0.07    0.10
  -1   5  -5    0.20    0.06
  -1   5  -5    0.21    0.05
  -1   5  -5    0.14    0.09
  -1   5  -5    0.30    0.12
  -1   5  -5    0.12    0.06
  -1   5  -5    0.23    0.12
   1  -5   5    0.15    0.07
   1  -5   5    0.01    0.05
   1  -5   5    0.12    0.07
   1  -5   5    0.17    0.06
   1  -5   5    0.20    0.09
  -2   5  -5    0.35    0.12
  -2   5  -5    0.14    0.10
  -2   5  -5    0.22    0.06
   2  -5   5    0.23    0.07
   2  -5   5    0.27    0.11
   2  -5   5    0.26    0.12
   2  -5   5    0.33    0.08
   2  -5   5    0.17    0.10
   3  -5   5    3.09    0.36
   3  -5   5    2.44    0.29
   4  -5   5    2.11    0.32
   4  -5   5    1.79    0.25
   5  -5   5    0.06    0.13
   5  -5   5    0.03    0.09
   6   4  -5    0.05    0.08
   5   4  -5    0.26    0.11
   4   4  -5    0.19    0.08
  -4  -4   5    0.01    0.09
   3   4  -5    0.01    0.06
   3   4  -5   -0.02    0.05
  -3  -4   5   -0.01    0.06
  -3  -4   5    0.08    0.05
   2   4  -5    0.02    0.06
   2   4  -5    0.06    0.06
   2   4  -5    0.04    0.07
   2   4  -5    0.05    0.04
   2   4  -5    0.01    0.05
   2   4  -5    0.01    0.06
   2   4  -5   -0.01    0.05
  -2  -4   5   -0.01    0.05
  -2  -4   5    0.04    0.06
  -2  -4   5    0.04    0.04
  -2  -4   5    0.08    0.06
  -2  -4   5    0.01    0.04
   1   4  -5   19.42    0.69
   1   4  -5   20.04    0.76
   1   4  -5   19.69    0.73
   1   4  -5   20.62    0.75
   1   4  -5   19.70    0.75
   1   4  -5   20.22    0.72
   1   4  -5   20.83    0.79
   1   4  -5   20.96    0.62
  -1  -4   5   20.74    0.71
  -1  -4   5   19.66    0.74
  -1  -4   5   19.83    0.54
  -1  -4   5   21.18    0.70
  -1  -4   5   19.10    0.52
  -1  -4   5   20.40    0.64
  -1  -4   5   19.76    0.71
   0   4  -5    1.28    0.14
   0   4  -5    1.24    0.14
   0   4  -5    1.63    0.20
   0   4  -5    1.40    0.15
   0   4  -5    1.03    0.16
   0   4  -5    1.60    0.21
   0  -4   5    1.62    0.17
   0  -4   5    1.61    0.20
   0  -4   5    1.44    0.17
   0  -4   5    1.34    0.14
   0  -4   5    1.21    0.16
   0  -4   5    1.60    0.20
   0  -4   5    1.08    0.16
   0  -4   5    1.43    0.12
  -1   4  -5    7.69    0.41
  -1   4  -5    7.57    0.27
  -1   4  -5    7.00    0.39
  -1   4  -5    7.55    0.31
  -1   4  -5    7.77    0.28
  -1   4  -5    7.19    0.42
   1  -4   5    8.76    0.44
   1  -4   5    8.18    0.36
   1  -4   5    7.55    0.38
   1  -4   5    7.79    0.42
   1  -4   5    8.12    0.39
   1  -4   5    7.31    0.29
   1  -4   5    8.14    0.42
  -2   4  -5    4.41    0.32
  -2   4  -5    4.39    0.32
  -2   4  -5    3.37    0.13
  -2   4  -5    3.78    0.28
   2  -4   5    3.94    0.22
   2  -4   5    3.64    0.19
   2  -4   5    4.32    0.26
   2  -4   5    4.12    0.28
   2  -4   5    4.17    0.32
  -3   4  -5    0.67    0.16
   3  -4   5    0.72    0.18
   3  -4   5    0.91    0.16
   4  -4   5    2.16    0.26
   5  -4   5    0.00    0.08
   6   3  -5    0.05    0.08
   5   3  -5    0.64    0.14
   4   3  -5    4.94    0.31
   3   3  -5    0.47    0.10
   3   3  -5    0.21    0.09
   3   3  -5    0.42    0.07
   3   3  -5    0.52    0.12
   3   3  -5    0.52    0.12
  -3  -3   5    0.52    0.08
  -3  -3   5    0.52    0.13
  -3  -3   5    0.55    0.12
  -3  -3   5    0.51    0.14
   2   3  -5    0.64    0.12
   2   3  -5    0.61    0.13
   2   3  -5    0.59    0.09
   2   3  -5    0.47    0.11
   2   3  -5    0.62    0.06
   2   3  -5    0.52    0.08
   2   3  -5    0.49    0.11
  -2  -3   5    0.52    0.07
  -2  -3   5    0.61    0.13
  -2  -3   5    0.47    0.11
  -2  -3   5    0.56    0.08
  -2  -3   5    0.59    0.11
   1   3  -5    0.43    0.11
   1   3  -5    0.42    0.10
   1   3  -5    0.40    0.09
   1   3  -5    0.50    0.11
   1   3  -5    0.27    0.08
   1   3  -5    0.41    0.07
   1   3  -5    0.31    0.07
  -1  -3   5    0.56    0.11
  -1  -3   5    0.30    0.09
  -1  -3   5    0.39    0.05
  -1  -3   5    0.44    0.07
  -1  -3   5    0.39    0.08
  -1  -3   5    0.35    0.04
  -1  -3   5    0.58    0.10
  -1  -3   5    0.35    0.09
   0   3  -5   44.88    1.36
   0   3  -5   43.31    1.15
   0   3  -5   43.28    1.24
   0   3  -5   45.61    1.23
   0   3  -5   44.79    1.38
   0   3  -5   43.86    1.42
   0  -3   5   44.74    1.37
   0  -3   5   46.11    1.25
   0  -3   5   44.80    1.32
   0  -3   5   44.51    1.30
   0  -3   5   44.73    1.35
   0  -3   5   44.60    1.11
  -1   3  -5   52.96    1.33
  -1   3  -5   51.20    1.56
  -1   3  -5   51.70    1.54
  -1   3  -5   51.17    1.30
  -1   3  -5   52.23    1.62
  -1   3  -5   49.87    1.33
   1  -3   5   52.30    1.61
   1  -3   5   50.24    1.50
   1  -3   5   50.90    1.45
   1  -3   5   51.51    1.59
   1  -3   5   50.80    1.56
   1  -3   5   50.99    1.33
   1  -3   5   52.52    1.28
   1  -3   5   51.22    1.52
  -2   3  -5    0.90    0.15
  -2   3  -5    0.96    0.15
   2  -3   5    0.83    0.09
   2  -3   5    0.73    0.11
   2  -3   5    0.74    0.13
   2  -3   5    1.01    0.14
  -3   3  -5   13.35    0.60
   3  -3   5   12.29    0.53
   3  -3   5   14.00    0.54
   4  -3   5    1.83    0.22
   5  -3   5    0.16    0.09
   6  -3   5    0.02    0.08
   6   2  -5    0.23    0.12
   5   2  -5    0.66    0.14
   4   2  -5    1.26    0.17
  -4  -2   5    0.91    0.18
   3   2  -5    2.57    0.20
   3   2  -5    2.69    0.21
   3   2  -5    3.00    0.21
   3   2  -5    2.34    0.26
   3   2  -5    2.98    0.28
   3   2  -5    2.78    0.12
  -3  -2   5    2.71    0.29
  -3  -2   5    2.77    0.23
  -3  -2   5    2.80    0.28
   2   2  -5    2.15    0.21
   2   2  -5    2.12    0.22
   2   2  -5    1.96    0.21
   2   2  -5    1.86    0.19
   2   2  -5    2.08    0.11
   2   2  -5    2.18    0.10
   2   2  -5    2.02    0.16
  -2  -2   5    2.27    0.19
  -2  -2   5    2.09    0.11
  -2  -2   5    1.93    0.22
  -2  -2   5    2.46    0.24
   1   2  -5   25.74    0.83
   1   2  -5   24.96    0.81
   1   2  -5   25.56    0.88
   1   2  -5   26.17    0.70
   1   2  -5   25.51    0.84
  -1  -2   5   26.11    0.82
  -1  -2   5   25.12    0.80
  -1  -2   5   25.58    0.85
  -1  -2   5   26.89    0.69
  -1  -2   5   25.77    0.88
  -1  -2   5   25.34    0.63
  -1  -2   5   25.76    0.64
  -1  -2   5   24.68    0.77
  -1  -2   5   26.68    0.84
   0   2  -5   20.59    0.70
   0   2  -5   20.63    0.58
   0   2  -5   20.07    0.70
   0   2  -5   20.19    0.73
   0  -2   5   19.08    0.67
   0  -2   5   19.58    0.54
   0  -2   5   20.40    0.67
   0  -2   5   19.95    0.69
   0  -2   5   20.79    0.73
   0  -2   5   20.77    0.67
   0  -2   5   21.75    0.64
  -1   2  -5    8.29    0.27
  -1   2  -5    8.56    0.28
  -1   2  -5    8.48    0.40
  -1   2  -5    7.98    0.36
  -1   2  -5    8.90    0.37
   1  -2   5    8.22    0.35
   1  -2   5    8.78    0.28
   1  -2   5    8.63    0.28
   1  -2   5    8.24    0.37
   1  -2   5    9.00    0.40
   1  -2   5    8.10    0.37
  -2   2  -5    1.39    0.16
  -2   2  -5    1.40    0.18
   2  -2   5    1.46    0.09
   2  -2   5    1.50    0.15
   2  -2   5    1.61    0.18
  -3   2  -5   14.68    0.60
  -3   2  -5   14.84    0.60
   3  -2   5   14.27    0.54
   3  -2   5   14.94    0.58
   4  -2   5    7.90    0.38
   5  -2   5    0.00    0.06
   6  -2   5    0.18    0.10
   6   1  -5    0.26    0.12
   5   1  -5    0.14    0.09
   4   1  -5    0.98    0.15
  -4  -1   5    1.58    0.21
   3   1  -5   31.55    0.84
   3   1  -5   33.62    1.10
   3   1  -5   31.51    1.03
   3   1  -5   33.42    1.05
   3   1  -5   32.60    1.07
   3   1  -5   31.95    1.01
  -3  -1   5   34.07    1.11
  -3  -1   5   32.12    1.10
  -3  -1   5   32.63    1.05
   2   1  -5    1.55    0.16
   2   1  -5    1.30    0.17
   2   1  -5    1.48    0.17
   2   1  -5    1.50    0.16
   2   1  -5    1.21    0.16
  -2  -1   5    1.39    0.18
  -2  -1   5    1.30    0.16
  -2  -1   5    1.76    0.19
   1   1  -5   42.84    1.24
   1   1  -5   42.64    1.08
   1   1  -5   43.12    1.27
   1   1  -5   42.78    1.33
   1   1  -5   43.16    1.05
  -1  -1   5   42.58    1.24
  -1  -1   5   43.58    1.24
  -1  -1   5   41.08    1.26
  -1  -1   5   43.55    1.03
  -1  -1   5   43.99    1.23
  -1  -1   5   43.96    1.33
  -1  -1   5   42.70    1.18
   0   1  -5    0.32    0.06
   0   1  -5    0.26    0.06
   0   1  -5    0.27    0.07
   0   1  -5    0.33    0.07
   0   1  -5    0.39    0.06
   0  -1   5    0.37    0.08
   0  -1   5    0.27    0.06
   0  -1   5    0.39    0.07
   0  -1   5    0.32    0.08
   0  -1   5    0.40    0.05
  -1   1  -5    0.03    0.03
  -1   1  -5    0.01    0.03
  -1   1  -5    0.03    0.03
  -1   1  -5    0.00    0.01
  -1   1  -5    0.05    0.02
  -1   1  -5    0.00    0.02
   1  -1   5    0.06    0.04
   1  -1   5    0.02    0.02
   1  -1   5    0.02    0.02
   1  -1   5    0.01    0.04
   1  -1   5    0.02    0.02
  -2   1  -5   56.67    1.65
  -2   1  -5   58.80    1.50
  -2   1  -5   57.60    1.67
  -2   1  -5   60.81    1.74
   2  -1   5   58.86    1.71
   2  -1   5   58.30    1.50
   2  -1   5   59.30    1.63
   2  -1   5   60.97    1.67
   2  -1   5   58.85    1.80
  -3   1  -5    5.04    0.28
  -3   1  -5    4.69    0.31
   3  -1   5    5.20    0.21
   3  -1   5    5.08    0.20
   3  -1   5    5.11    0.27
   3  -1   5    5.42    0.25
  -4   1  -5   14.82    0.57
  -4   1  -5   13.77    0.57
   4  -1   5   14.39    0.52
   5  -1   5    1.53    0.17
   6  -1   5   -0.01    0.07
   6   0  -5    0.17    0.12
   5   0  -5    0.07    0.08
   4   0  -5   -0.01    0.05
  -4   0   5   -0.01    0.06
   3   0  -5   11.27    0.35
   3   0  -5   11.25    0.52
   3   0  -5   11.29    0.36
   3   0  -5   11.52    0.36
   3   0  -5   11.48    0.48
   3   0  -5   12.06    0.50
  -3   0   5   11.05    0.47
  -3   0   5   10.03    0.50
  -3   0   5   11.63    0.52
   2   0  -5   14.24    0.43
   2   0  -5   14.01    0.53
   2   0  -5   14.55    0.56
   2   0  -5   13.40    0.55
   2   0  -5   13.35    0.39
  -2   0   5   14.00    0.56
  -2   0   5   14.73    0.56
  -2   0   5   14.74    0.58
   1   0  -5   21.78    0.58
   1   0  -5   21.20    0.70
   1   0  -5   22.10    0.71
   1   0  -5   22.40    0.61
   1   0  -5   22.41    0.76
   1   0  -5   21.55    0.57
  -1   0   5   21.30    0.70
  -1   0   5   21.56    0.69
  -1   0   5   22.06    0.55
  -1   0   5   21.26    0.70
  -1   0   5   20.92    0.76
  -1   0   5   22.16    0.61
   0   0  -5  104.89    2.80
   0   0  -5  103.38    2.74
   0   0  -5  104.56    2.63
   0   0  -5  104.48    2.41
   0   0  -5  102.02    2.87
   0   0  -5  104.80    2.59
   0   0   5   94.38    2.75
   0   0   5  101.21    2.37
   0   0   5  104.58    2.80
   0   0   5  103.69    2.63
   0   0   5   98.01    2.86
  -1   0  -5    6.45    0.29
  -1   0  -5    7.09    0.32
   1   0   5    6.89    0.26
   1   0   5    6.96    0.32
   1   0   5    6.69    0.27
  -2   0  -5   -0.02    0.03
  -2   0  -5   -0.01    0.04
  -2   0  -5    0.03    0.03
  -2   0  -5    0.03    0.03
   2   0   5    0.03    0.02
   2   0   5    0.01    0.03
   2   0   5    0.07    0.04
   2   0   5    0.14    0.04
   2   0   5   -0.02    0.03
  -3   0  -5   -0.01    0.03
  -3   0  -5    0.00    0.05
  -3   0  -5    0.05    0.04
   3   0   5   -0.01    0.03
   3   0   5    0.01    0.04
   3   0   5   -0.03    0.03
   3   0   5    0.04    0.03
  -4   0  -5    1.94    0.25
  -4   0  -5    2.01    0.16
  -4   0  -5    1.91    0.15
   4   0   5    1.53    0.19
   4   0   5    1.69    0.16
   4   0   5    1.93    0.13
   4   0   5    2.16    0.20
   4   0   5    2.06    0.15
  -5   0  -5    2.86    0.35
   5   0   5    3.33    0.19
   6   0   5    0.02    0.06
   6  -1  -5    0.35    0.14
   5  -1  -5    2.05    0.26
   4  -1  -5    1.55    0.21
   3  -1  -5    3.51    0.17
   3  -1  -5    2.95    0.28
   3  -1  -5    3.02    0.24
   3  -1  -5    2.98    0.17
   3  -1  -5    3.40    0.24
  -3   1   5    2.81    0.19
  -3   1   5    2.63    0.27
  -3   1   5    3.18    0.30
   2  -1  -5    3.12    0.15
   2  -1  -5    3.11    0.17
   2  -1  -5    3.11    0.21
   2  -1  -5    3.32    0.23
   2  -1  -5    3.47    0.24
   2  -1  -5    2.87    0.14
  -2   1   5    2.85    0.18
  -2   1   5    3.07    0.22
  -2   1   5    3.34    0.24
   1  -1  -5    0.29    0.05
   1  -1  -5    0.37    0.09
   1  -1  -5    0.47    0.06
   1  -1  -5    0.30    0.07
   1  -1  -5    0.48    0.07
   1  -1  -5    0.46    0.09
  -1   1   5    0.39    0.08
  -1   1   5    0.52    0.09
  -1   1   5    0.41    0.09
  -1   1   5    0.46    0.06
  -1   1   5    0.34    0.08
  -1   1   5    0.52    0.06
   0  -1  -5  170.42    4.34
   0  -1  -5  179.88    4.55
   0  -1  -5  169.20    4.75
   0  -1  -5  172.88    4.37
   0  -1  -5  178.15    4.01
   0  -1  -5  174.29    4.68
   0   1   5  172.56    3.98
   0   1   5  173.33    4.76
   0   1   5  172.67    4.38
  -1  -1  -5   41.76    1.17
  -1  -1  -5   43.29    1.29
  -1  -1  -5   42.10    1.31
   1   1   5   43.95    1.21
   1   1   5   43.24    1.18
   1   1   5   43.74    1.31
   1   1   5   42.94    1.22
  -2  -1  -5   27.95    0.81
  -2  -1  -5   25.14    0.87
  -2  -1  -5   26.99    0.86
  -2  -1  -5   28.08    0.96
  -2  -1  -5   27.64    0.82
   2   1   5   27.45    0.79
   2   1   5   28.18    0.84
   2   1   5   28.11    0.96
   2   1   5   28.82    0.81
   2   1   5   28.54    0.82
  -3  -1  -5    3.15    0.20
  -3  -1  -5    3.28    0.24
  -3  -1  -5    3.11    0.18
   3   1   5    3.13    0.19
   3   1   5    2.76    0.20
   3   1   5    2.96    0.15
   3   1   5    3.17    0.13
   3   1   5    3.36    0.14
  -4  -1  -5    0.05    0.06
  -4  -1  -5    0.00    0.04
  -4  -1  -5    0.03    0.07
   4   1   5    0.02    0.03
   4   1   5   -0.01    0.06
   4   1   5    0.06    0.06
   4   1   5    0.00    0.05
   4   1   5   -0.03    0.02
  -5  -1  -5    0.47    0.16
   5   1   5    0.38    0.06
  -6  -1  -5    0.06    0.11
   6   1   5   -0.01    0.05
   7   1   5   -0.05    0.06
   6  -2  -5    0.32    0.14
   5  -2  -5    0.04    0.09
   4  -2  -5    0.03    0.07
   3  -2  -5   11.69    0.45
   3  -2  -5   11.06    0.51
   3  -2  -5   11.25    0.51
   3  -2  -5   11.58    0.44
  -3   2   5   11.60    0.42
  -3   2   5   11.00    0.52
   2  -2  -5    1.99    0.14
   2  -2  -5    1.72    0.19
   2  -2  -5    1.70    0.19
   2  -2  -5    1.63    0.21
   2  -2  -5    1.77    0.13
   2  -2  -5    1.88    0.13
  -2   2   5    1.74    0.18
  -2   2   5    1.56    0.13
  -2   2   5    1.92    0.23
  -2   2   5    1.65    0.07
  -2   2   5    1.38    0.18
  -2   2   5    1.84    0.12
  -2   2   5    1.70    0.13
   1  -2  -5    8.00    0.36
   1  -2  -5    8.20    0.32
   1  -2  -5    7.81    0.35
   1  -2  -5    8.01    0.40
   1  -2  -5    8.21    0.30
   1  -2  -5    7.74    0.32
  -1   2   5    8.23    0.27
  -1   2   5    8.09    0.36
  -1   2   5    8.02    0.33
  -1   2   5    8.24    0.37
  -1   2   5    8.54    0.42
   0  -2  -5    7.03    0.30
   0  -2  -5    6.69    0.29
   0  -2  -5    6.80    0.29
   0  -2  -5    6.87    0.31
   0  -2  -5    6.48    0.34
   0  -2  -5    6.86    0.24
   0  -2  -5    6.48    0.22
   0   2   5    6.70    0.23
   0   2   5    5.86    0.29
   0   2   5    6.68    0.29
   0   2   5    6.62    0.30
  -1  -2  -5    0.35    0.08
  -1  -2  -5    0.31    0.07
  -1  -2  -5    0.47    0.09
  -1  -2  -5    0.49    0.09
   1   2   5    0.17    0.06
   1   2   5    0.58    0.10
   1   2   5    0.52    0.08
   1   2   5    0.39    0.07
   1   2   5    0.46    0.05
  -2  -2  -5   23.58    0.79
  -2  -2  -5   23.66    0.77
  -2  -2  -5   24.31    0.87
  -2  -2  -5   23.77    0.75
   2   2   5   23.69    0.71
   2   2   5   22.71    0.84
   2   2   5   22.69    0.74
   2   2   5   23.98    0.71
   2   2   5   23.19    0.75
  -3  -2  -5    8.34    0.37
  -3  -2  -5    7.64    0.30
  -3  -2  -5    6.84    0.38
  -3  -2  -5    7.40    0.43
   3   2   5    7.39    0.24
   3   2   5    7.28    0.26
   3   2   5    7.95    0.37
   3   2   5    7.30    0.26
   3   2   5    7.07    0.34
   3   2   5    7.50    0.38
  -4  -2  -5    3.02    0.14
  -4  -2  -5    3.21    0.25
  -4  -2  -5    3.22    0.34
  -4  -2  -5    3.13    0.32
   4   2   5    3.38    0.26
   4   2   5    2.87    0.12
   4   2   5    3.23    0.23
   4   2   5    2.92    0.13
  -5  -2  -5    0.77    0.18
   5   2   5    1.16    0.08
   5   2   5    1.18    0.20
   5   2   5    1.27    0.08
  -6  -2  -5    0.11    0.12
   6   2   5    0.14    0.05
  -7  -2  -5   -0.04    0.15
   7   2   5    0.00    0.05
   5  -3  -5    0.08    0.11
   4  -3  -5    3.21    0.30
   4  -3  -5    2.79    0.31
   3  -3  -5   17.39    0.63
   3  -3  -5   18.24    0.67
   3  -3  -5   16.32    0.70
   3  -3  -5   17.00    0.68
  -3   3   5   18.05    0.71
   2  -3  -5    5.42    0.26
   2  -3  -5    5.04    0.27
   2  -3  -5    4.70    0.30
   2  -3  -5    4.72    0.29
   2  -3  -5    5.05    0.27
   2  -3  -5    4.78    0.33
  -2   3   5    4.93    0.19
  -2   3   5    4.79    0.30
  -2   3   5    5.19    0.29
  -2   3   5    4.93    0.20
  -2   3   5    4.91    0.35
   1  -3  -5    6.49    0.31
   1  -3  -5    6.05    0.36
   1  -3  -5    5.67    0.25
   1  -3  -5    5.97    0.30
   1  -3  -5    6.11    0.32
   1  -3  -5    6.60    0.30
  -1   3   5    6.71    0.33
  -1   3   5    5.43    0.32
  -1   3   5    6.49    0.31
  -1   3   5    6.49    0.24
  -1   3   5    6.60    0.38
   0  -3  -5   -0.02    0.03
   0  -3  -5    0.02    0.02
   0  -3  -5   -0.02    0.02
   0  -3  -5   -0.06    0.04
   0  -3  -5    0.01    0.03
   0  -3  -5    0.00    0.04
   0  -3  -5   -0.01    0.03
   0   3   5   -0.01    0.02
   0   3   5   -0.01    0.03
   0   3   5   -0.03    0.03
   0   3   5    0.02    0.05
   0   3   5   -0.02    0.03
  -1  -3  -5    5.60    0.15
  -1  -3  -5    5.27    0.31
  -1  -3  -5    5.32    0.29
  -1  -3  -5    5.53    0.28
  -1  -3  -5    5.45    0.31
   1   3   5    5.44    0.28
   1   3   5    5.85    0.31
   1   3   5    5.49    0.31
   1   3   5    6.33    0.29
   1   3   5    5.53    0.20
  -2  -3  -5   11.45    0.46
  -2  -3  -5   11.45    0.52
  -2  -3  -5   11.33    0.48
  -2  -3  -5   11.16    0.46
   2   3   5   10.79    0.45
   2   3   5   11.08    0.42
   2   3   5   11.34    0.45
   2   3   5   11.62    0.52
   2   3   5   11.13    0.41
   2   3   5   11.01    0.48
  -3  -3  -5    2.42    0.24
  -3  -3  -5    2.31    0.16
  -3  -3  -5    2.08    0.25
  -3  -3  -5    1.77    0.24
   3   3   5    2.34    0.14
   3   3   5    2.22    0.14
   3   3   5    2.28    0.24
   3   3   5    2.18    0.14
   3   3   5    2.49    0.23
  -4  -3  -5   -0.01    0.03
  -4  -3  -5   -0.07    0.08
  -4  -3  -5    0.04    0.07
  -4  -3  -5   -0.01    0.08
   4   3   5   -0.03    0.06
   4   3   5   -0.01    0.03
   4   3   5    0.00    0.02
   4   3   5    0.02    0.07
  -5  -3  -5    1.32    0.23
  -5  -3  -5    0.84    0.22
   5   3   5    1.38    0.08
   5   3   5    1.25    0.08
  -6  -3  -5    0.00    0.10
   6   3   5    0.19    0.04
   5  -4  -5    0.01    0.10
   4  -4  -5    1.27    0.23
   4  -4  -5    1.50    0.22
   3  -4  -5    0.75    0.15
   3  -4  -5    0.84    0.16
   3  -4  -5    0.56    0.13
   3  -4  -5    0.48    0.14
   3  -4  -5    0.66    0.13
  -3   4   5    0.94    0.18
   2  -4  -5   11.25    0.48
   2  -4  -5   10.90    0.60
   2  -4  -5   10.66    0.52
   2  -4  -5   11.38    0.49
   2  -4  -5   11.22    0.43
   2  -4  -5   11.94    0.51
  -2   4   5   11.65    0.52
  -2   4   5   10.75    0.36
   1  -4  -5    2.08    0.15
   1  -4  -5    2.39    0.22
   1  -4  -5    2.36    0.22
   1  -4  -5    2.22    0.26
   1  -4  -5    2.23    0.23
  -1   4   5    2.42    0.24
  -1   4   5    2.24    0.24
  -1   4   5    2.71    0.30
  -1   4   5    2.09    0.24
  -1   4   5    2.26    0.15
   0  -4  -5    3.73    0.16
   0  -4  -5    3.51    0.25
   0  -4  -5    3.87    0.24
   0  -4  -5    3.19    0.16
   0  -4  -5    3.41    0.27
   0  -4  -5    3.84    0.24
   0  -4  -5    3.34    0.22
   0   4   5    3.16    0.23
   0   4   5    3.51    0.23
   0   4   5    3.31    0.17
  -1  -4  -5    1.17    0.17
  -1  -4  -5    1.34    0.07
  -1  -4  -5    1.85    0.21
  -1  -4  -5    1.35    0.16
  -1  -4  -5    1.27    0.06
  -1  -4  -5    1.25    0.17
   1   4   5    1.10    0.15
   1   4   5    1.26    0.16
   1   4   5    1.41    0.18
   1   4   5    1.15    0.16
   1   4   5    1.34    0.10
  -2  -4  -5   24.47    0.93
  -2  -4  -5   24.13    0.85
  -2  -4  -5   25.30    0.86
  -2  -4  -5   24.92    0.80
  -2  -4  -5   22.29    0.82
   2   4   5   24.27    0.81
   2   4   5   25.32    0.80
   2   4   5   25.41    0.84
   2   4   5   23.40    0.87
  -3  -4  -5    0.25    0.11
  -3  -4  -5    0.17    0.06
  -3  -4  -5    0.05    0.06
  -3  -4  -5    0.15    0.10
  -3  -4  -5    0.20    0.04
   3   4   5    0.14    0.06
   3   4   5    0.09    0.08
   3   4   5    0.30    0.11
   3   4   5    0.13    0.06
  -4  -4  -5    0.94    0.20
  -4  -4  -5    0.48    0.08
  -4  -4  -5    0.01    0.09
   4   4   5    0.58    0.08
   4   4   5    0.51    0.09
  -5  -4  -5    1.08    0.22
   5   4   5    1.06    0.11
  -6  -4  -5    0.74    0.21
   6   4   5    0.74    0.08
   5  -5  -5    0.45    0.19
   4  -5  -5    0.12    0.12
   4  -5  -5    0.15    0.12
   3  -5  -5    0.49    0.12
   3  -5  -5    0.59    0.17
   3  -5  -5    0.53    0.15
   3  -5  -5    0.56    0.15
   2  -5  -5    5.18    0.35
   2  -5  -5    5.79    0.36
   2  -5  -5    6.11    0.30
   2  -5  -5    5.42    0.34
   2  -5  -5    5.02    0.32
  -2   5   5    5.52    0.35
  -2   5   5    5.43    0.25
   1  -5  -5    0.22    0.09
   1  -5  -5    0.31    0.09
   1  -5  -5    0.21    0.09
   1  -5  -5    0.32    0.08
   1  -5  -5    0.31    0.12
   1  -5  -5    0.33    0.11
  -1   5   5    0.28    0.09
  -1   5   5    0.15    0.09
  -1   5   5    0.27    0.07
  -1   5   5    0.16    0.11
  -1   5   5    0.20    0.07
   0  -5  -5    0.03    0.06
   0  -5  -5    0.17    0.07
   0  -5  -5    0.14    0.04
   0  -5  -5    0.09    0.06
   0  -5  -5    0.04    0.07
   0  -5  -5    0.04    0.03
   0  -5  -5    0.12    0.09
   0   5   5    0.11    0.06
   0   5   5    0.07    0.04
   0   5   5    0.01    0.04
   0   5   5    0.13    0.07
  -1  -5  -5    1.57    0.20
  -1  -5  -5    1.55    0.22
  -1  -5  -5    2.00    0.24
  -1  -5  -5    1.44    0.20
  -1  -5  -5    1.75    0.20
  -1  -5  -5    1.66    0.08
   1   5   5    1.54    0.20
   1   5   5    1.68    0.14
   1   5   5    1.35    0.17
   1   5   5    1.62    0.21
  -2  -5  -5   19.26    0.76
  -2  -5  -5   20.17    0.76
  -2  -5  -5   19.33    0.82
  -2  -5  -5   19.06    0.71
  -2  -5  -5   19.73    0.77
   2   5   5   20.46    0.75
   2   5   5   20.02    0.74
  -3  -5  -5    0.36    0.13
  -3  -5  -5    0.41    0.14
  -3  -5  -5    0.59    0.13
  -3  -5  -5    0.55    0.09
   3   5   5    0.78    0.13
   3   5   5    0.38    0.09
  -4  -5  -5    0.30    0.13
  -4  -5  -5    0.10    0.12
   4   5   5    0.11    0.07
  -5  -5  -5    0.17    0.13
   5   5   5    0.00    0.05
  -6  -5  -5    0.11    0.16
   6   5   5    0.23    0.07
   4  -6  -5    0.00    0.10
   4  -6  -5   -0.03    0.10
   3  -6  -5    0.02    0.09
   3  -6  -5    0.03    0.07
   3  -6  -5    0.07    0.10
   2  -6  -5    0.11    0.07
   2  -6  -5    0.09    0.08
   2  -6  -5    0.13    0.09
   2  -6  -5    0.20    0.11
  -2   6   5    0.21    0.13
  -2   6   5    0.12    0.06
   1  -6  -5    0.07    0.08
   1  -6  -5    0.04    0.05
   1  -6  -5    0.04    0.07
   1  -6  -5    0.20    0.09
   1  -6  -5    0.06    0.07
  -1   6   5    0.09    0.09
  -1   6   5    0.20    0.07
   0  -6  -5    0.16    0.06
   0  -6  -5    0.17    0.09
   0  -6  -5    0.23    0.11
   0  -6  -5    0.16    0.11
   0  -6  -5    0.08    0.04
   0  -6  -5    0.19    0.10
   0   6   5   -0.08    0.06
   0   6   5    0.03    0.05
   0   6   5    0.02    0.08
   0   6   5    0.15    0.09
  -1  -6  -5    0.71    0.17
  -1  -6  -5    1.20    0.21
  -1  -6  -5    0.97    0.19
  -1  -6  -5    1.13    0.08
   1   6   5    1.25    0.19
   1   6   5    0.89    0.12
  -2  -6  -5    2.39    0.31
  -2  -6  -5    2.67    0.29
  -2  -6  -5    2.77    0.31
   2   6   5    2.39    0.27
  -3  -6  -5    3.26    0.37
  -3  -6  -5    3.56    0.36
   3   6   5    2.76    0.27
  -4  -6  -5    0.15    0.12
   4   6   5    0.18    0.09
  -5  -6  -5   -0.06    0.09
   5   6   5    0.02    0.07
  -6  -6  -5   -0.04    0.14
   6   6   5   -0.02    0.08
   4  -7  -5    0.41    0.21
   4  -7  -5    0.32    0.17
   3  -7  -5    0.22    0.15
   3  -7  -5    0.19    0.11
   3  -7  -5    0.03    0.11
   2  -7  -5    6.40    0.35
   2  -7  -5    6.70    0.44
  -2   7   5    7.35    0.34
   1  -7  -5    1.31    0.24
   1  -7  -5    1.49    0.24
   1  -7  -5    1.46    0.17
  -1   7   5    1.23    0.17
   0  -7  -5    0.17    0.06
   0  -7  -5    0.16    0.05
   0  -7  -5   -0.01    0.09
   0  -7  -5    0.10    0.11
   0  -7  -5    0.12    0.10
   0   7   5    0.15    0.11
   0   7   5    0.08    0.07
  -1  -7  -5    0.58    0.16
  -1  -7  -5    0.39    0.14
  -1  -7  -5    0.23    0.05
  -1  -7  -5    0.16    0.11
   1   7   5    0.18    0.08
   1   7   5    0.19    0.11
  -2  -7  -5    1.07    0.22
  -2  -7  -5    1.15    0.21
  -2  -7  -5    1.19    0.22
   2   7   5    1.10    0.21
  -3  -7  -5    4.59    0.45
   3   7   5    5.42    0.38
  -4  -7  -5    0.29    0.14
   4   7   5    0.16    0.10
  -5  -7  -5    0.00    0.12
   5   7   5    0.04    0.09
  -6  -7  -5    0.11    0.16
   6   7   5    0.24    0.10
   3  -8  -5   -0.08    0.11
   3  -8  -5    0.07    0.09
   2  -8  -5    1.32    0.25
   2  -8  -5    1.12    0.17
  -2   8   5    0.89    0.15
   1  -8  -5    2.24    0.21
   1  -8  -5    1.89    0.30
   1  -8  -5    2.06    0.21
  -1   8   5    2.04    0.22
   0  -8  -5    1.44    0.14
   0  -8  -5    1.33    0.15
   0  -8  -5    1.75    0.28
   0   8   5    1.26    0.18
  -1  -8  -5    0.42    0.19
  -1  -8  -5    0.36    0.06
  -1  -8  -5    0.28    0.13
   1   8   5    0.31    0.11
   1   8   5    0.32    0.16
  -2  -8  -5   -0.04    0.08
   2   8   5   -0.06    0.08
  -3  -8  -5    0.11    0.10
   3   8   5    0.10    0.11
  -4  -8  -5    0.06    0.10
   4   8   5   -0.03    0.09
  -5  -8  -5    0.12    0.16
   5   8   5    0.14    0.12
   2  -9  -5    0.41    0.13
   2  -9  -5    0.10    0.13
  -2   9   5    0.49    0.13
   1  -9  -5    2.10    0.23
   1  -9  -5    2.15    0.21
   1  -9  -5    1.95    0.32
  -1   9   5    1.87    0.24
   0  -9  -5    0.90    0.13
   0  -9  -5    0.80    0.21
   0   9   5    0.74    0.16
  -1  -9  -5    0.25    0.14
   1   9   5    0.21    0.17
   1   9   5    0.01    0.09
  -2  -9  -5    0.57    0.19
   2   9   5    0.87    0.23
  -3  -9  -5   -0.01    0.10
   3   9   5   -0.01    0.11
  -4  -9  -5    0.18    0.13
   4   9   5    0.00    0.12
  -5  -9  -5    0.03    0.14
   5   9   5   -0.04    0.12
   1 -10  -5    0.29    0.11
   1 -10  -5    0.31    0.18
  -1  10   5    0.27    0.12
   0 -10  -5    0.40    0.10
   0 -10  -5    0.34    0.20
   0  10   5    0.17    0.11
  -1 -10  -5   -0.02    0.13
   1  10   5    0.00    0.09
  -2 -10  -5    0.69    0.23
   2  10   5    0.48    0.20
  -3 -10  -5    0.06    0.15
   3  10   5    0.02    0.15
  -4 -10  -5   -0.02    0.17
   4  10   5    0.02    0.15
   3  10  -6    0.00    0.18
   2  10  -6   -0.16    0.14
   2  10  -6    0.16    0.13
   1  10  -6    0.26    0.14
  -1 -10   6    0.05    0.13
   0  10  -6    0.27    0.15
   0 -10   6    0.23    0.15
   0 -10   6    0.19    0.08
  -1  10  -6    0.05    0.11
   1 -10   6   -0.14    0.07
   1 -10   6   -0.02    0.13
   4   9  -6    0.10    0.15
   3   9  -6   -0.05    0.12
   2   9  -6    0.33    0.20
   2   9  -6    0.11    0.13
   1   9  -6   -0.07    0.09
  -1  -9   6   -0.02    0.10
  -1  -9   6   -0.01    0.05
   0   9  -6    0.83    0.18
   0  -9   6    0.61    0.19
   0  -9   6    1.01    0.15
  -1   9  -6    0.84    0.18
   1  -9   6    0.67    0.21
   1  -9   6    1.14    0.17
  -2   9  -6    0.29    0.11
   2  -9   6    0.32    0.12
   2  -9   6    0.35    0.16
   5   8  -6   -0.06    0.14
   4   8  -6    0.06    0.12
   3   8  -6    0.03    0.14
   2   8  -6    0.06    0.10
   2   8  -6    0.10    0.13
  -2  -8   6    0.07    0.09
  -2  -8   6    0.01    0.10
   1   8  -6    0.14    0.13
   1   8  -6    0.04    0.09
  -1  -8   6    0.05    0.04
  -1  -8   6   -0.07    0.07
   0   8  -6    0.09    0.09
   0  -8   6    0.08    0.09
   0  -8   6    0.16    0.07
  -1   8  -6    0.04    0.09
   1  -8   6    0.10    0.08
   1  -8   6    0.17    0.12
  -2   8  -6    0.61    0.12
   2  -8   6    0.85    0.15
   2  -8   6    0.84    0.21
   3  -8   6    0.25    0.10
   3  -8   6    0.38    0.19
   5   7  -6   -0.11    0.11
   4   7  -6   -0.10    0.10
   3   7  -6    0.20    0.12
   2   7  -6    1.76    0.29
   2   7  -6    1.59    0.21
  -2  -7   6    1.34    0.23
  -2  -7   6    1.14    0.18
   1   7  -6    0.20    0.12
   1   7  -6    0.37    0.11
   1   7  -6    0.18    0.12
  -1  -7   6    0.23    0.12
  -1  -7   6    0.22    0.10
  -1  -7   6    0.31    0.07
  -1  -7   6    0.11    0.09
   0   7  -6   -0.03    0.07
   0  -7   6   -0.04    0.04
   0  -7   6   -0.03    0.06
   0  -7   6    0.07    0.10
   0  -7   6   -0.03    0.08
  -1   7  -6    0.08    0.13
  -1   7  -6    0.01    0.08
   1  -7   6    0.03    0.07
   1  -7   6    0.04    0.06
  -2   7  -6    0.63    0.12
   2  -7   6    0.89    0.20
   2  -7   6    0.50    0.12
   2  -7   6    0.57    0.18
   3  -7   6    0.49    0.17
   3  -7   6    0.89    0.22
   3  -7   6    0.58    0.14
   4  -7   6    0.02    0.12
   4  -7   6   -0.06    0.12
   5   6  -6    0.01    0.11
   4   6  -6   -0.03    0.10
   3   6  -6    0.15    0.10
   2   6  -6    4.17    0.26
   2   6  -6    3.66    0.37
  -2  -6   6    3.55    0.24
  -2  -6   6    3.61    0.38
  -2  -6   6    4.36    0.31
   1   6  -6    0.03    0.06
   1   6  -6   -0.01    0.08
   1   6  -6   -0.02    0.07
   1   6  -6    0.00    0.08
  -1  -6   6   -0.05    0.06
  -1  -6   6   -0.02    0.07
  -1  -6   6   -0.01    0.03
  -1  -6   6    0.01    0.07
  -1  -6   6    0.02    0.06
   0   6  -6    0.17    0.11
   0   6  -6    0.13    0.10
   0   6  -6    0.16    0.09
   0   6  -6    0.12    0.07
   0   6  -6    0.07    0.11
   0   6  -6    0.09    0.07
   0  -6   6    0.11    0.09
   0  -6   6    0.09    0.08
   0  -6   6    0.18    0.06
   0  -6   6    0.14    0.09
  -1   6  -6    2.20    0.30
  -1   6  -6    1.47    0.18
  -1   6  -6    1.64    0.25
   1  -6   6    1.66    0.24
   1  -6   6    1.70    0.24
   1  -6   6    1.31    0.23
   1  -6   6    1.67    0.21
   1  -6   6    1.60    0.17
  -2   6  -6    0.87    0.22
  -2   6  -6    1.06    0.22
  -2   6  -6    1.16    0.13
   2  -6   6    1.10    0.15
   2  -6   6    0.85    0.19
   2  -6   6    1.22    0.23
   3  -6   6    1.60    0.19
   3  -6   6    1.19    0.24
   3  -6   6    1.56    0.25
   4  -6   6    0.00    0.10
   4  -6   6    0.08    0.11
   6   5  -6    0.10    0.12
   5   5  -6    0.76    0.18
   4   5  -6    0.31    0.12
   3   5  -6    0.64    0.16
   2   5  -6    0.49    0.13
   2   5  -6    0.35    0.10
   2   5  -6    0.55    0.14
   2   5  -6    0.27    0.11
   2   5  -6    0.46    0.10
  -2  -5   6    0.21    0.10
  -2  -5   6    0.40    0.10
  -2  -5   6    0.36    0.12
  -2  -5   6    0.50    0.10
   1   5  -6    5.44    0.33
   1   5  -6    5.39    0.36
   1   5  -6    5.59    0.32
   1   5  -6    5.11    0.27
   1   5  -6    5.62    0.37
   1   5  -6    5.63    0.38
  -1  -5   6    5.11    0.32
  -1  -5   6    5.00    0.21
  -1  -5   6    4.96    0.34
  -1  -5   6    5.05    0.36
  -1  -5   6    5.84    0.33
  -1  -5   6    5.79    0.29
   0   5  -6   13.41    0.62
   0   5  -6   12.68    0.52
   0   5  -6   13.23    0.65
   0   5  -6   13.77    0.50
   0   5  -6   13.66    0.63
   0   5  -6   13.24    0.49
   0  -5   6   13.15    0.51
   0  -5   6   13.08    0.54
   0  -5   6   13.18    0.44
   0  -5   6   13.97    0.63
   0  -5   6   14.13    0.58
   0  -5   6   12.68    0.57
   0  -5   6   13.66    0.64
   0  -5   6   13.68    0.60
  -1   5  -6    2.07    0.19
  -1   5  -6    2.25    0.27
  -1   5  -6    2.34    0.15
  -1   5  -6    2.33    0.14
  -1   5  -6    3.64    0.38
   1  -5   6    2.23    0.27
   1  -5   6    2.71    0.28
   1  -5   6    2.54    0.24
   1  -5   6    2.58    0.17
   1  -5   6    1.38    0.20
  -2   5  -6   11.06    0.36
  -2   5  -6   11.79    0.63
  -2   5  -6   11.40    0.58
   2  -5   6   10.88    0.54
   2  -5   6   11.36    0.48
   2  -5   6   10.83    0.56
   2  -5   6   10.72    0.42
   2  -5   6   10.92    0.60
   3  -5   6    2.17    0.27
   4  -5   6    0.12    0.10
   5  -5   6    0.30    0.14
   5  -5   6    0.40    0.17
   6   4  -6   -0.04    0.09
   5   4  -6    0.14    0.10
   4   4  -6    0.25    0.11
   3   4  -6    0.46    0.12
  -3  -4   6    0.28    0.12
   2   4  -6    8.42    0.45
   2   4  -6    9.54    0.47
   2   4  -6    8.96    0.45
   2   4  -6    8.96    0.47
   2   4  -6    8.70    0.34
   2   4  -6    8.06    0.38
   2   4  -6    8.60    0.45
  -2  -4   6    8.10    0.37
  -2  -4   6    9.04    0.46
  -2  -4   6    9.02    0.47
  -2  -4   6    9.57    0.48
  -2  -4   6    8.84    0.32
   1   4  -6    1.13    0.18
   1   4  -6    1.44    0.18
   1   4  -6    1.57    0.20
   1   4  -6    1.54    0.16
   1   4  -6    1.57    0.19
   1   4  -6    1.44    0.20
  -1  -4   6    1.26    0.17
  -1  -4   6    1.53    0.18
  -1  -4   6    1.56    0.15
  -1  -4   6    1.72    0.21
  -1  -4   6    1.50    0.08
  -1  -4   6    1.88    0.19
  -1  -4   6    1.45    0.09
  -1  -4   6    1.26    0.20
   0   4  -6    0.44    0.11
   0   4  -6    0.70    0.14
   0   4  -6    0.42    0.09
   0   4  -6    0.53    0.10
   0   4  -6    0.70    0.15
   0   4  -6    0.42    0.09
   0  -4   6    0.46    0.12
   0  -4   6    0.46    0.08
   0  -4   6    0.60    0.11
   0  -4   6    0.63    0.12
   0  -4   6    0.59    0.13
   0  -4   6    0.65    0.12
   0  -4   6    0.40    0.09
  -1   4  -6    1.56    0.15
  -1   4  -6    1.47    0.20
  -1   4  -6    1.35    0.10
  -1   4  -6    1.24    0.19
  -1   4  -6    1.43    0.11
  -1   4  -6    1.78    0.22
   1  -4   6    1.37    0.19
   1  -4   6    1.43    0.20
   1  -4   6    1.68    0.15
   1  -4   6    1.25    0.18
   1  -4   6    1.31    0.16
  -2   4  -6   11.95    0.56
  -2   4  -6   11.47    0.58
   2  -4   6   11.05    0.40
   2  -4   6   11.41    0.50
   2  -4   6   11.49    0.52
   2  -4   6   12.64    0.61
   2  -4   6   10.98    0.46
  -3   4  -6   11.87    0.61
   3  -4   6   11.85    0.52
   3  -4   6   12.13    0.66
   3  -4   6   11.16    0.54
   4  -4   6   -0.02    0.06
   5  -4   6    0.13    0.11
   6   3  -6    0.07    0.09
   5   3  -6   -0.04    0.08
   4   3  -6    3.82    0.28
   3   3  -6    0.12    0.08
  -3  -3   6    0.11    0.04
  -3  -3   6   -0.01    0.07
   2   3  -6   21.29    0.80
   2   3  -6   21.77    0.83
   2   3  -6   20.80    0.78
   2   3  -6   22.16    0.63
  -2  -3   6   20.56    0.59
  -2  -3   6   22.01    0.68
  -2  -3   6   21.23    0.80
  -2  -3   6   21.72    0.81
  -2  -3   6   23.52    0.84
   1   3  -6    2.03    0.22
   1   3  -6    1.95    0.20
   1   3  -6    1.90    0.16
   1   3  -6    2.07    0.22
   1   3  -6    2.11    0.24
   1   3  -6    2.15    0.23
  -1  -3   6    1.88    0.09
  -1  -3   6    1.97    0.21
  -1  -3   6    1.84    0.12
  -1  -3   6    2.02    0.16
  -1  -3   6    2.31    0.16
  -1  -3   6    2.33    0.23
  -1  -3   6    1.98    0.11
   0   3  -6    1.13    0.17
   0   3  -6    0.70    0.13
   0   3  -6    0.76    0.11
   0   3  -6    0.94    0.15
   0   3  -6    0.63    0.10
   0  -3   6    0.55    0.12
   0  -3   6    0.84    0.11
   0  -3   6    1.01    0.14
   0  -3   6    0.76    0.09
   0  -3   6    0.68    0.12
   0  -3   6    0.85    0.13
   0  -3   6    0.40    0.10
  -1   3  -6   21.35    0.77
  -1   3  -6   21.68    0.79
  -1   3  -6   22.16    0.63
  -1   3  -6   21.35    0.61
  -1   3  -6   21.81    0.82
  -1   3  -6   21.39    0.62
   1  -3   6   21.48    0.62
   1  -3   6   21.27    0.74
   1  -3   6   22.03    0.61
   1  -3   6   19.97    0.77
   1  -3   6   22.80    0.82
   1  -3   6   20.60    0.76
   1  -3   6   21.55    0.80
   1  -3   6   20.69    0.72
  -2   3  -6    8.24    0.44
  -2   3  -6    7.91    0.40
   2  -3   6    7.31    0.38
   2  -3   6    7.83    0.38
   2  -3   6    8.08    0.29
  -3   3  -6   14.83    0.67
   3  -3   6   14.95    0.61
   3  -3   6   15.71    0.62
   4  -3   6    1.98    0.23
   5  -3   6    0.04    0.07
   6  -3   6    1.45    0.23
   6   2  -6    0.02    0.09
   5   2  -6    0.07    0.09
   4   2  -6    1.41    0.19
  -4  -2   6    1.54    0.23
   3   2  -6    1.62    0.23
   3   2  -6    1.54    0.19
   3   2  -6    1.58    0.20
  -3  -2   6    1.55    0.22
  -3  -2   6    1.57    0.21
  -3  -2   6    1.81    0.25
   2   2  -6    4.83    0.31
   2   2  -6    5.30    0.30
   2   2  -6    5.39    0.23
   2   2  -6    5.11    0.19
   2   2  -6    5.12    0.32
   2   2  -6    4.78    0.30
  -2  -2   6    4.93    0.31
  -2  -2   6    4.89    0.31
  -2  -2   6    4.85    0.31
  -2  -2   6    5.41    0.18
   1   2  -6   38.64    1.02
   1   2  -6   38.35    1.16
   1   2  -6   38.44    1.20
   1   2  -6   37.31    1.26
  -1  -2   6   38.07    0.95
  -1  -2   6   38.77    1.22
  -1  -2   6   38.94    1.25
  -1  -2   6   39.62    1.01
  -1  -2   6   38.42    1.16
  -1  -2   6   38.04    0.94
  -1  -2   6   38.98    1.16
  -1  -2   6   39.20    1.12
  -1  -2   6   39.81    1.19
   0   2  -6   13.71    0.59
   0   2  -6   14.78    0.50
   0   2  -6   14.71    0.47
   0   2  -6   14.45    0.56
   0   2  -6   14.93    0.57
   0  -2   6   14.25    0.59
   0  -2   6   15.02    0.54
   0  -2   6   14.99    0.43
   0  -2   6   15.06    0.57
   0  -2   6   14.46    0.51
   0  -2   6   15.00    0.55
  -1   2  -6   10.36    0.45
  -1   2  -6   10.75    0.34
  -1   2  -6   10.40    0.48
  -1   2  -6   10.87    0.36
  -1   2  -6   11.39    0.45
   1  -2   6   11.16    0.47
   1  -2   6   10.67    0.34
   1  -2   6   10.30    0.46
   1  -2   6   10.96    0.43
   1  -2   6   10.73    0.36
  -2   2  -6    0.32    0.08
  -2   2  -6    0.33    0.09
  -2   2  -6    0.22    0.03
   2  -2   6    0.26    0.09
   2  -2   6    0.24    0.05
   2  -2   6    0.32    0.08
   2  -2   6    0.29    0.03
  -3   2  -6    1.02    0.14
  -3   2  -6    1.09    0.17
   3  -2   6    1.05    0.17
   3  -2   6    1.55    0.17
   4  -2   6    4.16    0.27
   4  -2   6    4.39    0.31
   5  -2   6    0.20    0.09
   6  -2   6    0.48    0.15
   6   1  -6    0.70    0.18
   5   1  -6    0.85    0.17
   4   1  -6    1.82    0.22
  -4  -1   6    1.66    0.23
   3   1  -6    0.04    0.06
   3   1  -6   -0.03    0.05
   3   1  -6    0.08    0.07
  -3  -1   6    0.01    0.06
  -3  -1   6    0.06    0.06
  -3  -1   6   -0.02    0.07
   2   1  -6    0.11    0.06
   2   1  -6    0.25    0.06
   2   1  -6    0.22    0.04
   2   1  -6    0.17    0.07
   2   1  -6    0.19    0.08
  -2  -1   6    0.20    0.07
  -2  -1   6    0.22    0.08
  -2  -1   6    0.20    0.08
   1   1  -6   89.32    2.50
   1   1  -6   86.01    2.07
   1   1  -6   86.24    2.30
   1   1  -6   84.10    2.37
  -1  -1   6   85.88    2.30
  -1  -1   6   82.03    2.37
  -1  -1   6   85.23    2.31
  -1  -1   6   84.59    2.48
  -1  -1   6   84.48    2.30
  -1  -1   6   84.31    2.33
  -1  -1   6   85.59    2.00
  -1  -1   6   86.09    2.31
   0   1  -6   70.38    1.99
   0   1  -6   71.57    1.84
   0   1  -6   68.85    1.88
   0   1  -6   70.41    1.73
   0   1  -6   71.00    2.09
   0  -1   6   71.25    1.97
   0  -1   6   72.19    1.89
   0  -1   6   71.41    1.69
   0  -1   6   71.57    2.02
  -1   1  -6   11.08    0.32
  -1   1  -6   11.62    0.45
  -1   1  -6   10.94    0.42
  -1   1  -6   10.72    0.42
  -1   1  -6   10.42    0.46
  -1   1  -6   11.16    0.37
   1  -1   6   10.94    0.47
   1  -1   6   10.94    0.37
   1  -1   6   11.15    0.46
   1  -1   6   11.15    0.42
   1  -1   6   11.15    0.33
  -2   1  -6    4.10    0.17
  -2   1  -6    4.06    0.25
  -2   1  -6    4.51    0.27
  -2   1  -6    4.05    0.23
   2  -1   6    4.52    0.25
   2  -1   6    3.97    0.28
   2  -1   6    4.25    0.18
   2  -1   6    4.11    0.22
  -3   1  -6    0.00    0.03
  -3   1  -6    0.03    0.03
  -3   1  -6   -0.04    0.07
  -3   1  -6    0.08    0.06
   3  -1   6    0.04    0.06
   3  -1   6    0.07    0.04
   3  -1   6    0.02    0.03
   3  -1   6    0.08    0.05
  -4   1  -6    0.16    0.08
  -4   1  -6    0.22    0.11
   4  -1   6    0.17    0.07
   5  -1   6   -0.04    0.05
   6  -1   6    0.01    0.07
   6   0  -6    0.14    0.12
   5   0  -6    0.03    0.08
   4   0  -6    4.83    0.32
  -4   0   6    5.08    0.33
   3   0  -6    0.04    0.07
   3   0  -6    0.10    0.08
   3   0  -6    0.03    0.05
  -3   0   6   -0.03    0.05
  -3   0   6    0.06    0.07
  -3   0   6   -0.01    0.05
   2   0  -6    3.16    0.23
   2   0  -6    2.82    0.11
   2   0  -6    2.80    0.21
   2   0  -6    3.18    0.24
   2   0  -6    2.95    0.17
  -2   0   6    2.93    0.23
  -2   0   6    3.30    0.24
  -2   0   6    2.65    0.20
   1   0  -6    2.45    0.18
   1   0  -6    2.48    0.11
   1   0  -6    2.29    0.12
   1   0  -6    2.20    0.17
   1   0  -6    1.99    0.21
   1   0  -6    2.36    0.14
  -1   0   6    1.64    0.19
  -1   0   6    2.39    0.11
  -1   0   6    2.59    0.19
  -1   0   6    2.16    0.16
  -1   0   6    2.25    0.11
  -1   0   6    2.39    0.18
   0   0  -6    5.58    0.27
   0   0  -6    5.37    0.22
   0   0  -6    5.11    0.25
   0   0  -6    4.99    0.24
   0   0  -6    4.70    0.28
   0   0  -6    5.13    0.21
   0   0   6    5.20    0.19
   0   0   6    4.89    0.27
   0   0   6    4.82    0.24
   0   0   6    5.09    0.24
  -1   0  -6   30.51    0.92
  -1   0  -6   30.58    0.93
  -1   0  -6   31.42    0.74
  -1   0  -6   30.82    1.00
  -1   0  -6   31.32    0.88
   1   0   6   31.48    0.89
   1   0   6   29.38    1.00
   1   0   6   30.99    0.93
   1   0   6   30.32    0.77
  -2   0  -6   31.77    0.97
  -2   0  -6   33.83    1.03
  -2   0  -6   32.13    1.03
  -2   0  -6   31.71    0.91
   2   0   6   30.84    1.09
   2   0   6   33.51    0.98
   2   0   6   32.84    0.91
   2   0   6   31.72    1.01
   2   0   6   32.19    0.95
  -3   0  -6   14.20    0.48
  -3   0  -6   14.65    0.54
  -3   0  -6   13.97    0.46
  -3   0  -6   14.70    0.61
   3   0   6   13.56    0.48
   3   0   6   13.42    0.48
   3   0   6   14.40    0.47
   3   0   6   14.57    0.51
  -4   0  -6    5.74    0.30
  -4   0  -6    6.19    0.39
   4   0   6    5.95    0.34
   4   0   6    5.73    0.33
   4   0   6    5.91    0.27
  -5   0  -6    1.71    0.28
   5   0   6    1.81    0.17
   6   0   6   -0.01    0.05
   6  -1  -6    0.05    0.11
   5  -1  -6    0.65    0.16
   4  -1  -6    8.38    0.45
   3  -1  -6    1.92    0.24
   3  -1  -6    1.68    0.11
   3  -1  -6    1.62    0.21
   3  -1  -6    1.53    0.12
  -3   1   6    1.93    0.25
  -3   1   6    2.09    0.21
   2  -1  -6    1.51    0.15
   2  -1  -6    1.54    0.18
   2  -1  -6    1.33    0.18
   2  -1  -6    1.27    0.18
   2  -1  -6    1.55    0.11
   2  -1  -6    1.36    0.09
  -2   1   6    1.72    0.18
  -2   1   6    1.21    0.18
  -2   1   6    1.46    0.19
  -2   1   6    1.66    0.17
   1  -1  -6    0.01    0.03
   1  -1  -6   -0.01    0.03
   1  -1  -6    0.01    0.04
   1  -1  -6    0.00    0.02
   1  -1  -6    0.02    0.03
   1  -1  -6    0.00    0.04
   1  -1  -6    0.01    0.02
  -1   1   6    0.01    0.02
  -1   1   6   -0.01    0.02
  -1   1   6   -0.04    0.03
  -1   1   6    0.04    0.04
  -1   1   6   -0.02    0.04
  -1   1   6   -0.01    0.03
   0  -1  -6    2.03    0.21
   0  -1  -6    2.07    0.16
   0  -1  -6    2.04    0.15
   0  -1  -6    2.45    0.13
   0  -1  -6    2.29    0.16
   0  -1  -6    2.18    0.14
   0   1   6    2.27    0.11
   0   1   6    2.09    0.16
  -1  -1  -6   36.65    1.03
  -1  -1  -6   35.85    1.06
  -1  -1  -6   36.25    1.02
  -1  -1  -6   35.28    1.13
  -1  -1  -6   34.05    0.82
  -1  -1  -6   35.66    1.14
   1   1   6   35.00    1.02
   1   1   6   36.88    0.87
   1   1   6   34.60    1.13
   1   1   6   35.45    1.05
  -2  -1  -6    0.12    0.07
  -2  -1  -6    0.17    0.07
  -2  -1  -6    0.20    0.07
  -2  -1  -6    0.22    0.06
   2   1   6    0.23    0.05
   2   1   6    0.19    0.06
   2   1   6    0.14    0.05
   2   1   6    0.26    0.06
   2   1   6    0.20    0.08
  -3  -1  -6    0.41    0.11
  -3  -1  -6    0.18    0.06
  -3  -1  -6    0.34    0.08
  -3  -1  -6    0.35    0.04
   3   1   6    0.35    0.06
   3   1   6    0.31    0.07
   3   1   6    0.37    0.07
   3   1   6    0.39    0.09
  -4  -1  -6    6.04    0.32
  -4  -1  -6    5.48    0.27
  -4  -1  -6    5.88    0.39
   4   1   6    5.86    0.26
   4   1   6    5.66    0.32
   4   1   6    5.66    0.24
   4   1   6    6.23    0.31
  -5  -1  -6    2.35    0.32
  -5  -1  -6    2.37    0.14
   5   1   6    2.36    0.15
  -6  -1  -6    0.00    0.13
   6   1   6    0.02    0.05
   6  -2  -6    0.04    0.12
   5  -2  -6    1.19    0.22
   4  -2  -6    0.83    0.17
   3  -2  -6    4.25    0.23
   3  -2  -6    4.20    0.23
   3  -2  -6    3.88    0.29
   3  -2  -6    4.24    0.31
  -3   2   6    4.29    0.32
  -3   2   6    4.08    0.24
   2  -2  -6    0.77    0.14
   2  -2  -6    0.85    0.11
   2  -2  -6    0.86    0.11
   2  -2  -6    0.74    0.15
   2  -2  -6    0.96    0.12
   2  -2  -6    0.95    0.15
  -2   2   6    0.78    0.07
  -2   2   6    0.63    0.10
  -2   2   6    0.65    0.15
  -2   2   6    0.74    0.13
  -2   2   6    0.98    0.12
  -2   2   6    0.79    0.15
  -2   2   6    1.09    0.13
   1  -2  -6   10.94    0.51
   1  -2  -6   10.96    0.42
   1  -2  -6   10.21    0.44
   1  -2  -6   10.84    0.38
   1  -2  -6   10.73    0.35
   1  -2  -6   10.93    0.46
   1  -2  -6   10.93    0.39
  -1   2   6   10.69    0.34
  -1   2   6   11.44    0.41
  -1   2   6   10.59    0.51
  -1   2   6   10.22    0.45
  -1   2   6   10.72    0.42
  -1   2   6   10.93    0.46
   0  -2  -6    5.51    0.27
   0  -2  -6    5.63    0.31
   0  -2  -6    5.43    0.21
   0  -2  -6    5.39    0.25
   0  -2  -6    5.30    0.27
   0  -2  -6    5.18    0.27
   0   2   6    5.15    0.20
   0   2   6    5.02    0.27
   0   2   6    3.77    0.25
   0   2   6    5.15    0.31
   0   2   6    5.18    0.26
  -1  -2  -6   54.47    1.28
  -1  -2  -6   56.03    1.68
  -1  -2  -6   53.78    1.55
  -1  -2  -6   57.08    1.54
  -1  -2  -6   54.63    1.68
   1   2   6   58.13    1.34
   1   2   6   56.32    1.59
   1   2   6   54.52    1.67
   1   2   6   55.93    1.54
  -2  -2  -6    0.67    0.11
  -2  -2  -6    0.61    0.13
  -2  -2  -6    0.53    0.12
  -2  -2  -6    0.51    0.10
   2   2   6    0.53    0.09
   2   2   6    0.46    0.09
   2   2   6    0.38    0.10
   2   2   6    0.36    0.07
   2   2   6    0.53    0.08
  -3  -2  -6    1.02    0.17
  -3  -2  -6    0.92    0.17
  -3  -2  -6    0.65    0.12
  -3  -2  -6    1.02    0.13
   3   2   6    0.80    0.09
   3   2   6    0.78    0.09
   3   2   6    0.71    0.12
  -4  -2  -6    4.35    0.35
  -4  -2  -6    4.32    0.29
  -4  -2  -6    3.83    0.20
  -4  -2  -6    4.01    0.32
   4   2   6    4.27    0.27
   4   2   6    3.80    0.28
   4   2   6    4.26    0.19
   4   2   6    4.04    0.19
  -5  -2  -6    4.11    0.42
   5   2   6    3.76    0.18
  -6  -2  -6    0.92    0.24
   6   2   6    1.06    0.10
   5  -3  -6    0.24    0.13
   4  -3  -6    1.29    0.22
   3  -3  -6    1.97    0.20
   3  -3  -6    1.62    0.19
   3  -3  -6    1.48    0.22
   3  -3  -6    2.14    0.21
   3  -3  -6    1.40    0.20
  -3   3   6    2.01    0.26
   2  -3  -6    0.03    0.05
   2  -3  -6   -0.04    0.04
   2  -3  -6    0.00    0.06
   2  -3  -6    0.09    0.06
   2  -3  -6    0.00    0.04
   2  -3  -6    0.01    0.06
  -2   3   6    0.10    0.04
  -2   3   6    0.01    0.04
  -2   3   6    0.04    0.05
  -2   3   6   -0.07    0.06
   1  -3  -6    1.02    0.14
   1  -3  -6    1.13    0.14
   1  -3  -6    0.69    0.13
   1  -3  -6    0.89    0.11
   1  -3  -6    0.69    0.15
   1  -3  -6    1.03    0.14
  -1   3   6    0.67    0.15
  -1   3   6    0.77    0.14
  -1   3   6    1.05    0.11
  -1   3   6    0.98    0.15
   0  -3  -6    5.85    0.30
   0  -3  -6    6.97    0.34
   0  -3  -6    6.05    0.36
   0  -3  -6    6.52    0.31
   0  -3  -6    6.76    0.23
   0  -3  -6    6.52    0.24
   0  -3  -6    6.21    0.31
   0   3   6    6.31    0.37
   0   3   6    4.92    0.30
   0   3   6    6.50    0.24
   0   3   6    6.32    0.32
   0   3   6    5.59    0.30
  -1  -3  -6   97.05    2.74
  -1  -3  -6   92.55    2.17
  -1  -3  -6   96.86    2.52
  -1  -3  -6   92.59    2.53
  -1  -3  -6   95.14    2.17
  -1  -3  -6   98.52    2.76
  -1  -3  -6   94.44    2.56
   1   3   6   94.66    2.53
   1   3   6   94.76    2.23
   1   3   6   91.22    2.72
   1   3   6   95.09    2.61
  -2  -3  -6    1.25    0.15
  -2  -3  -6    1.38    0.20
  -2  -3  -6    1.50    0.19
  -2  -3  -6    1.36    0.17
   2   3   6    1.48    0.17
   2   3   6    1.45    0.15
   2   3   6    1.43    0.15
  -3  -3  -6    2.25    0.17
  -3  -3  -6    2.12    0.24
  -3  -3  -6    2.11    0.27
  -3  -3  -6    2.14    0.10
  -3  -3  -6    1.99    0.26
   3   3   6    2.31    0.23
   3   3   6    2.12    0.14
   3   3   6    2.15    0.15
  -4  -3  -6    0.01    0.08
  -4  -3  -6    0.06    0.09
  -4  -3  -6    0.22    0.11
  -4  -3  -6    0.07    0.05
   4   3   6    0.17    0.10
   4   3   6    0.17    0.05
   4   3   6    0.15    0.09
   4   3   6    0.14    0.05
  -5  -3  -6    0.65    0.18
   5   3   6    0.69    0.08
  -6  -3  -6    0.66    0.21
   6   3   6    0.83    0.09
   5  -4  -6    0.12    0.13
   4  -4  -6    0.09    0.11
   3  -4  -6    0.16    0.08
   3  -4  -6    0.16    0.10
   3  -4  -6    0.11    0.08
   2  -4  -6    1.75    0.23
   2  -4  -6    1.62    0.18
   2  -4  -6    1.92    0.21
   2  -4  -6    1.47    0.19
   2  -4  -6    1.63    0.20
  -2   4   6    1.82    0.24
  -2   4   6    1.54    0.14
   1  -4  -6    1.12    0.19
   1  -4  -6    1.35    0.18
   1  -4  -6    1.38    0.18
   1  -4  -6    1.26    0.14
   1  -4  -6    1.12    0.17
   1  -4  -6    1.41    0.18
  -1   4   6    1.66    0.21
  -1   4   6    1.65    0.24
  -1   4   6    1.54    0.19
  -1   4   6    1.38    0.19
  -1   4   6    1.52    0.14
   0  -4  -6    5.38    0.36
   0  -4  -6    5.84    0.32
   0  -4  -6    6.02    0.25
   0  -4  -6    6.22    0.33
   0  -4  -6    6.30    0.33
   0  -4  -6    6.26    0.35
   0  -4  -6    5.88    0.23
   0   4   6    6.27    0.34
   0   4   6    6.03    0.25
   0   4   6    6.14    0.34
  -1  -4  -6   13.45    0.36
  -1  -4  -6   14.04    0.60
  -1  -4  -6   13.38    0.55
  -1  -4  -6   13.34    0.51
  -1  -4  -6   13.52    0.54
  -1  -4  -6   13.85    0.61
   1   4   6   13.71    0.56
   1   4   6   13.93    0.55
   1   4   6   13.54    0.42
  -2  -4  -6    3.50    0.25
  -2  -4  -6    2.87    0.31
  -2  -4  -6    3.18    0.25
  -2  -4  -6    3.36    0.24
   2   4   6    3.00    0.21
   2   4   6    3.17    0.24
   2   4   6    3.11    0.21
  -3  -4  -6    1.27    0.21
  -3  -4  -6    1.34    0.21
  -3  -4  -6    1.15    0.12
  -3  -4  -6    1.35    0.16
  -3  -4  -6    1.79    0.23
   3   4   6    1.37    0.15
   3   4   6    1.31    0.19
  -4  -4  -6    1.03    0.13
  -4  -4  -6    1.04    0.22
  -4  -4  -6    0.69    0.18
   4   4   6    1.10    0.13
  -5  -4  -6    0.30    0.15
   5   4   6    0.43    0.08
  -6  -4  -6    0.14    0.14
   6   4   6    0.07    0.05
   5  -5  -6    0.17    0.16
   4  -5  -6    1.07    0.24
   3  -5  -6    9.88    0.55
   3  -5  -6    9.39    0.44
   3  -5  -6    9.83    0.50
   2  -5  -6    3.67    0.36
   2  -5  -6    3.68    0.29
   2  -5  -6    4.17    0.29
   2  -5  -6    3.40    0.23
  -2   5   6    3.78    0.35
  -2   5   6    4.15    0.21
   1  -5  -6    0.30    0.10
   1  -5  -6    0.28    0.10
   1  -5  -6    0.32    0.10
   1  -5  -6    0.21    0.12
   1  -5  -6    0.28    0.08
   1  -5  -6    0.08    0.08
  -1   5   6    0.09    0.09
  -1   5   6    0.21    0.07
  -1   5   6    0.31    0.10
  -1   5   6    0.36    0.09
   0  -5  -6    0.83    0.17
   0  -5  -6    1.37    0.12
   0  -5  -6    1.37    0.19
   0  -5  -6    1.25    0.19
   0  -5  -6    1.48    0.23
   0  -5  -6    1.50    0.19
   0  -5  -6    1.15    0.12
   0   5   6    1.21    0.18
   0   5   6    1.44    0.15
   0   5   6    1.33    0.17
  -1  -5  -6    5.21    0.35
  -1  -5  -6    4.54    0.33
  -1  -5  -6    4.82    0.17
  -1  -5  -6    5.16    0.33
  -1  -5  -6    4.75    0.31
   1   5   6    4.82    0.32
   1   5   6    4.95    0.22
   1   5   6    4.68    0.31
  -2  -5  -6   22.76    0.87
  -2  -5  -6   22.48    0.93
  -2  -5  -6   21.60    0.83
  -2  -5  -6   23.15    0.86
  -2  -5  -6   22.34    0.81
   2   5   6   23.30    0.83
   2   5   6   23.25    0.84
  -3  -5  -6    0.66    0.16
  -3  -5  -6    0.76    0.12
  -3  -5  -6    0.59    0.17
  -3  -5  -6    0.57    0.12
   3   5   6    0.59    0.12
  -4  -5  -6    0.43    0.17
  -4  -5  -6   -0.02    0.11
   4   5   6    0.27    0.09
  -5  -5  -6    1.91    0.31
   5   5   6    1.81    0.18
  -6  -5  -6    0.06    0.15
   6   5   6    0.03    0.06
   4  -6  -6    0.41    0.16
   4  -6  -6    0.68    0.20
   3  -6  -6    3.26    0.36
   3  -6  -6    2.84    0.27
   3  -6  -6    2.83    0.36
   2  -6  -6    4.59    0.34
   2  -6  -6    5.00    0.37
   2  -6  -6    4.71    0.28
   2  -6  -6    4.98    0.36
  -2   6   6    4.58    0.25
   1  -6  -6    2.87    0.19
   1  -6  -6    2.63    0.23
   1  -6  -6    2.87    0.32
   1  -6  -6    2.72    0.30
   1  -6  -6    2.92    0.32
  -1   6   6    2.34    0.21
   0  -6  -6   -0.07    0.09
   0  -6  -6    0.00    0.04
   0  -6  -6    0.04    0.07
   0  -6  -6   -0.09    0.07
   0  -6  -6   -0.02    0.04
   0   6   6    0.05    0.08
   0   6   6   -0.02    0.07
   0   6   6   -0.01    0.05
  -1  -6  -6    0.26    0.12
  -1  -6  -6    0.10    0.08
  -1  -6  -6    0.12    0.10
  -1  -6  -6    0.18    0.04
   1   6   6    0.29    0.08
   1   6   6    0.24    0.10
  -2  -6  -6    0.51    0.15
  -2  -6  -6    0.54    0.15
  -2  -6  -6    0.28    0.12
   2   6   6    0.46    0.13
  -3  -6  -6    0.37    0.14
  -3  -6  -6    0.35    0.14
   3   6   6    0.29    0.11
  -4  -6  -6    0.02    0.12
   4   6   6    0.20    0.09
  -5  -6  -6    0.21    0.16
   5   6   6    0.53    0.12
  -6  -6  -6    0.19    0.18
   6   6   6    0.24    0.10
   3  -7  -6    1.11    0.20
   3  -7  -6    1.64    0.30
   3  -7  -6    1.60    0.26
   2  -7  -6    4.38    0.43
   2  -7  -6    5.03    0.31
  -2   7   6    4.30    0.26
   1  -7  -6    1.52    0.24
   1  -7  -6    1.75    0.18
   1  -7  -6    1.53    0.17
   1  -7  -6    1.99    0.29
  -1   7   6    1.64    0.19
   0  -7  -6    0.22    0.07
   0  -7  -6    0.18    0.14
   0  -7  -6    0.20    0.06
   0  -7  -6    0.15    0.10
   0  -7  -6    0.04    0.09
   0   7   6    0.25    0.10
   0   7   6    0.12    0.11
  -1  -7  -6    6.07    0.45
  -1  -7  -6    5.85    0.41
  -1  -7  -6    6.81    0.22
  -1  -7  -6    6.25    0.46
   1   7   6    5.67    0.30
   1   7   6    6.76    0.45
  -2  -7  -6    0.09    0.10
  -2  -7  -6    0.54    0.16
   2   7   6    0.08    0.09
  -3  -7  -6    0.00    0.09
   3   7   6    0.07    0.08
  -4  -7  -6    0.07    0.14
   4   7   6    0.00    0.07
  -5  -7  -6    0.13    0.14
   5   7   6    0.06    0.09
  -6  -7  -6    0.45    0.21
   6   7   6    0.25    0.14
   3  -8  -6    0.09    0.13
   3  -8  -6    0.11    0.10
   2  -8  -6    0.51    0.13
   2  -8  -6    0.54    0.18
  -2   8   6    0.41    0.12
   1  -8  -6    1.35    0.18
   1  -8  -6    1.53    0.27
   1  -8  -6    1.15    0.14
  -1   8   6    1.18    0.18
   0  -8  -6    0.00    0.05
   0  -8  -6    0.09    0.09
   0  -8  -6    0.03    0.05
   0   8   6    0.03    0.07
  -1  -8  -6    6.18    0.21
  -1  -8  -6    6.57    0.46
   1   8   6    5.39    0.32
   1   8   6    6.26    0.48
  -2  -8  -6    0.72    0.20
   2   8   6    0.87    0.21
  -3  -8  -6    0.09    0.11
   3   8   6    0.15    0.12
  -4  -8  -6    0.30    0.17
   4   8   6    0.14    0.12
  -5  -8  -6    0.38    0.21
   5   8   6   -0.04    0.11
   2  -9  -6    0.31    0.13
   2  -9  -6    0.16    0.15
  -2   9   6    0.14    0.10
   1  -9  -6   -0.02    0.07
   1  -9  -6    0.04    0.12
   1  -9  -6    0.03    0.07
  -1   9   6    0.00    0.07
   0  -9  -6   -0.11    0.10
   0  -9  -6    0.04    0.06
   0   9   6   -0.07    0.07
  -1  -9  -6    0.06    0.11
   1   9   6    0.05    0.10
   1   9   6   -0.18    0.13
  -2  -9  -6    0.69    0.20
   2   9   6    0.41    0.18
  -3  -9  -6    0.27    0.16
   3   9   6    0.43    0.17
  -4  -9  -6    0.16    0.17
   4   9   6    0.08    0.13
   1 -10  -6    0.30    0.18
   0 -10  -6   -0.05    0.06
   0 -10  -6    0.02    0.12
   0  10   6    0.07    0.10
  -1 -10  -6   -0.14    0.12
   1  10   6   -0.11    0.09
  -2 -10  -6    1.73    0.33
   2  10   6    1.99    0.35
  -3 -10  -6    0.12    0.16
   3  10   6    0.03    0.14
   2  10  -7   -0.07    0.12
   1  10  -7   -0.02    0.12
  -1 -10   7    0.03    0.13
   0  10  -7   -0.04    0.11
   0 -10   7    0.11    0.13
   0 -10   7   -0.05    0.07
   4   9  -7   -0.09    0.15
   3   9  -7    0.09    0.16
   2   9  -7    0.15    0.17
   2   9  -7    0.06    0.11
   1   9  -7   -0.04    0.10
  -1  -9   7    0.11    0.11
  -1  -9   7   -0.03    0.04
   0   9  -7    0.23    0.11
   0  -9   7    0.12    0.07
   0  -9   7   -0.08    0.10
  -1   9  -7    0.07    0.10
   1  -9   7    0.12    0.09
   1  -9   7    0.10    0.12
  -2   9  -7    0.07    0.09
   2  -9   7    0.15    0.15
   2  -9   7   -0.04    0.09
   4   8  -7    0.05    0.14
   3   8  -7    0.12    0.14
   2   8  -7    0.04    0.10
   2   8  -7    0.07    0.14
   1   8  -7   -0.01    0.15
   1   8  -7    0.07    0.10
  -1  -8   7    0.10    0.10
  -1  -8   7    0.06    0.05
   0   8  -7    0.66    0.16
   0  -8   7    0.66    0.16
   0  -8   7    0.57    0.11
  -1   8  -7    0.49    0.13
   1  -8   7    0.37    0.11
   1  -8   7    0.42    0.16
  -2   8  -7    0.18    0.09
   2  -8   7    0.36    0.11
   2  -8   7    0.33    0.18
   3  -8   7    0.19    0.11
   3  -8   7    0.11    0.14
   5   7  -7   -0.02    0.12
   4   7  -7    0.15    0.14
   3   7  -7    0.09    0.12
   2   7  -7    0.24    0.14
   2   7  -7    0.43    0.12
  -2  -7   7    0.18    0.11
   1   7  -7    1.24    0.19
   1   7  -7    2.65    0.35
  -1  -7   7    2.50    0.27
  -1  -7   7    1.67    0.25
  -1  -7   7    1.91    0.13
   0   7  -7    1.14    0.18
   0  -7   7    1.36    0.23
   0  -7   7    1.62    0.26
   0  -7   7    1.90    0.25
   0  -7   7    1.24    0.15
  -1   7  -7    5.42    0.32
  -1   7  -7    6.53    0.48
   1  -7   7    5.60    0.40
   1  -7   7    5.39    0.30
  -2   7  -7    0.49    0.10
   2  -7   7    0.60    0.19
   2  -7   7    0.41    0.14
   2  -7   7    0.35    0.11
   3  -7   7    0.01    0.08
   3  -7   7    0.04    0.11
   3  -7   7    0.03    0.10
   4  -7   7    0.62    0.22
   4  -7   7    0.35    0.20
   5   6  -7   -0.08    0.10
   4   6  -7    0.02    0.09
   3   6  -7    1.35    0.24
   2   6  -7    0.09    0.07
   2   6  -7    0.03    0.10
  -2  -6   7   -0.01    0.07
   1   6  -7    0.04    0.09
   1   6  -7    0.05    0.10
   1   6  -7    0.06    0.08
   1   6  -7    0.04    0.07
  -1  -6   7    0.00    0.05
  -1  -6   7    0.04    0.04
  -1  -6   7    0.00    0.08
  -1  -6   7    0.01    0.07
  -1  -6   7   -0.04    0.06
   0   6  -7    0.94    0.20
   0   6  -7    1.02    0.16
   0   6  -7    0.90    0.19
   0   6  -7    1.38    0.18
   0  -6   7    1.42    0.23
   0  -6   7    1.17    0.18
   0  -6   7    1.02    0.12
   0  -6   7    1.21    0.20
  -1   6  -7    6.78    0.46
  -1   6  -7    6.63    0.49
  -1   6  -7    6.22    0.33
   1  -6   7    5.98    0.38
   1  -6   7    6.56    0.38
   1  -6   7    5.91    0.43
   1  -6   7    6.10    0.30
   1  -6   7    6.07    0.39
  -2   6  -7    5.45    0.42
  -2   6  -7    4.75    0.23
  -2   6  -7    4.54    0.48
   2  -6   7    4.73    0.37
   2  -6   7    4.54    0.27
   2  -6   7    5.67    0.39
   3  -6   7    0.03    0.07
   3  -6   7   -0.01    0.08
   3  -6   7    0.01    0.11
   4  -6   7    0.04    0.11
   4  -6   7   -0.01    0.11
   6   5  -7    0.08    0.13
   5   5  -7    0.25    0.13
   4   5  -7   -0.03    0.07
   3   5  -7    5.84    0.41
   2   5  -7    1.12    0.17
   2   5  -7    0.92    0.14
   2   5  -7    1.12    0.20
  -2  -5   7    0.92    0.19
  -2  -5   7    0.84    0.14
   1   5  -7    1.15    0.19
   1   5  -7    1.28    0.22
   1   5  -7    1.12    0.20
   1   5  -7    1.23    0.18
   1   5  -7    1.51    0.18
   1   5  -7    1.21    0.18
  -1  -5   7    1.39    0.20
  -1  -5   7    1.31    0.12
  -1  -5   7    1.26    0.22
  -1  -5   7    1.03    0.17
  -1  -5   7    1.36    0.19
  -1  -5   7    1.56    0.18
   0   5  -7    4.08    0.27
   0   5  -7    4.55    0.37
   0   5  -7    5.27    0.37
   0   5  -7    4.73    0.27
   0   5  -7    4.94    0.27
   0   5  -7    4.47    0.34
   0  -5   7    4.54    0.31
   0  -5   7    5.28    0.39
   0  -5   7    4.42    0.27
   0  -5   7    4.85    0.29
   0  -5   7    5.03    0.33
   0  -5   7    4.35    0.22
   0  -5   7    4.22    0.30
  -1   5  -7    3.11    0.21
  -1   5  -7    3.71    0.36
  -1   5  -7    3.78    0.39
   1  -5   7    3.02    0.31
   1  -5   7    3.43    0.35
   1  -5   7    3.16    0.20
   1  -5   7    3.66    0.26
  -2   5  -7   10.33    0.34
  -2   5  -7   10.61    0.61
  -2   5  -7    9.81    0.55
   2  -5   7    9.28    0.56
   2  -5   7    9.71    0.49
   2  -5   7   10.05    0.46
   2  -5   7    9.83    0.40
   2  -5   7   10.03    0.52
   3  -5   7    0.07    0.09
   4  -5   7    0.07    0.08
   5  -5   7    2.68    0.35
   6   4  -7   -0.04    0.10
   5   4  -7   -0.01    0.10
   4   4  -7   -0.05    0.08
   3   4  -7    0.92    0.17
  -3  -4   7    0.90    0.19
   2   4  -7    3.90    0.30
   2   4  -7    3.35    0.32
   2   4  -7    4.14    0.23
   2   4  -7    4.47    0.32
   2   4  -7    3.12    0.30
  -2  -4   7    3.59    0.34
  -2  -4   7    4.20    0.31
  -2  -4   7    3.56    0.22
   1   4  -7    6.12    0.34
   1   4  -7    5.97    0.38
   1   4  -7    6.28    0.38
   1   4  -7    5.68    0.39
   1   4  -7    6.35    0.35
   1   4  -7    6.58    0.30
  -1  -4   7    6.53    0.36
  -1  -4   7    6.03    0.21
  -1  -4   7    6.32    0.39
  -1  -4   7    5.86    0.33
  -1  -4   7    6.70    0.33
  -1  -4   7    6.16    0.23
  -1  -4   7    6.62    0.28
  -1  -4   7    5.70    0.36
   0   4  -7    8.05    0.35
   0   4  -7    7.70    0.45
   0   4  -7    7.48    0.34
   0   4  -7    7.35    0.42
   0   4  -7    7.59    0.36
   0   4  -7    8.01    0.43
   0  -4   7    7.56    0.42
   0  -4   7    7.77    0.30
   0  -4   7    7.34    0.39
   0  -4   7    7.78    0.40
   0  -4   7    8.15    0.36
   0  -4   7    8.49    0.37
   0  -4   7    7.67    0.40
   0  -4   7    7.55    0.44
  -1   4  -7    1.50    0.21
  -1   4  -7    1.20    0.21
  -1   4  -7    1.31    0.15
  -1   4  -7    1.38    0.12
  -1   4  -7    1.23    0.12
  -1   4  -7    1.13    0.18
   1  -4   7    1.31    0.18
   1  -4   7    1.41    0.19
   1  -4   7    1.44    0.13
   1  -4   7    1.16    0.19
   1  -4   7    1.57    0.15
   1  -4   7    1.17    0.19
  -2   4  -7    1.07    0.18
  -2   4  -7    0.64    0.06
  -2   4  -7    0.78    0.17
   2  -4   7    1.14    0.20
   2  -4   7    0.94    0.17
   2  -4   7    1.21    0.18
   2  -4   7    1.10    0.16
   2  -4   7    1.34    0.14
  -3   4  -7    1.07    0.19
   3  -4   7    1.05    0.19
   3  -4   7    1.37    0.26
   3  -4   7    0.74    0.16
   4  -4   7    0.03    0.07
   5  -4   7    2.36    0.30
   6   3  -7    0.11    0.12
   5   3  -7    0.32    0.12
   4   3  -7    0.14    0.10
   3   3  -7    0.58    0.14
   3   3  -7    0.71    0.09
  -3  -3   7    0.56    0.15
   2   3  -7   16.70    0.71
   2   3  -7   16.21    0.54
   2   3  -7   15.90    0.67
   2   3  -7   16.75    0.68
  -2  -3   7   16.45    0.55
  -2  -3   7   17.35    0.70
  -2  -3   7   17.85    0.71
  -2  -3   7   17.30    0.72
   1   3  -7   12.99    0.62
   1   3  -7   13.83    0.57
   1   3  -7   14.04    0.60
   1   3  -7   13.75    0.49
   1   3  -7   14.98    0.62
  -1  -3   7   14.97    0.47
  -1  -3   7   14.56    0.41
  -1  -3   7   15.05    0.57
  -1  -3   7   14.67    0.58
  -1  -3   7   14.26    0.53
  -1  -3   7   15.31    0.61
  -1  -3   7   14.83    0.42
   0   3  -7    4.43    0.29
   0   3  -7    4.57    0.23
   0   3  -7    4.03    0.28
   0   3  -7    4.18    0.30
   0  -3   7    3.66    0.18
   0  -3   7    3.92    0.25
   0  -3   7    3.47    0.30
   0  -3   7    3.74    0.23
   0  -3   7    4.24    0.26
   0  -3   7    4.21    0.28
   0  -3   7    4.39    0.28
  -1   3  -7    5.23    0.23
  -1   3  -7    4.99    0.32
  -1   3  -7    5.70    0.36
  -1   3  -7    5.62    0.24
  -1   3  -7    5.68    0.33
   1  -3   7    5.41    0.23
   1  -3   7    5.12    0.32
   1  -3   7    5.08    0.30
   1  -3   7    5.61    0.31
   1  -3   7    5.48    0.34
   1  -3   7    4.68    0.22
  -2   3  -7    1.02    0.18
  -2   3  -7    1.02    0.17
   2  -3   7    1.19    0.17
   2  -3   7    1.23    0.19
   2  -3   7    1.18    0.12
  -3   3  -7    0.22    0.09
  -3   3  -7   -0.01    0.07
   3  -3   7    0.07    0.07
   3  -3   7    0.09    0.09
   4  -3   7    0.05    0.07
   5  -3   7    0.05    0.08
   6  -3   7    0.96    0.21
   6   2  -7   -0.07    0.10
   5   2  -7    0.53    0.15
   4   2  -7    0.10    0.08
  -4  -2   7    0.01    0.08
   3   2  -7    0.36    0.11
   3   2  -7    0.66    0.08
  -3  -2   7    0.28    0.10
   2   2  -7    0.98    0.09
   2   2  -7    0.76    0.14
   2   2  -7    0.72    0.15
   2   2  -7    1.01    0.16
   2   2  -7    0.81    0.11
  -2  -2   7    1.12    0.18
  -2  -2   7    0.84    0.16
  -2  -2   7    0.94    0.06
  -2  -2   7    0.80    0.15
   1   2  -7    8.73    0.42
   1   2  -7    8.11    0.40
   1   2  -7    8.48    0.34
   1   2  -7    9.19    0.46
  -1  -2   7    9.25    0.41
  -1  -2   7    8.96    0.43
  -1  -2   7    8.86    0.39
  -1  -2   7    8.70    0.34
  -1  -2   7    8.80    0.28
  -1  -2   7    8.88    0.42
   0   2  -7    6.75    0.31
   0   2  -7    6.78    0.38
   0   2  -7    6.30    0.34
   0   2  -7    6.45    0.28
   0  -2   7    6.87    0.37
   0  -2   7    6.83    0.31
   0  -2   7    6.81    0.36
   0  -2   7    6.56    0.25
   0  -2   7    6.00    0.32
   0  -2   7    7.15    0.35
  -1   2  -7   25.65    0.91
  -1   2  -7   24.75    0.68
  -1   2  -7   23.98    0.85
  -1   2  -7   24.10    0.72
  -1   2  -7   24.12    0.84
   1  -2   7   25.32    0.73
   1  -2   7   23.98    0.67
   1  -2   7   23.80    0.81
   1  -2   7   24.78    0.88
   1  -2   7   24.64    0.88
  -2   2  -7   34.03    0.92
  -2   2  -7   36.17    1.20
  -2   2  -7   35.51    1.14
   2  -2   7   37.15    1.19
   2  -2   7   35.52    0.94
   2  -2   7   35.56    1.11
   2  -2   7   34.83    0.92
  -3   2  -7    8.47    0.45
  -3   2  -7    8.82    0.41
   3  -2   7    8.48    0.45
   3  -2   7    8.51    0.40
   4  -2   7    4.82    0.34
   4  -2   7    4.34    0.28
   5  -2   7    0.09    0.07
   6  -2   7    1.20    0.21
   6   1  -7    0.24    0.14
   5   1  -7    1.21    0.21
   4   1  -7    0.03    0.07
  -4  -1   7    0.07    0.08
   3   1  -7    0.21    0.09
  -3  -1   7    0.02    0.07
   2   1  -7    0.03    0.04
   2   1  -7    0.02    0.05
   2   1  -7   -0.05    0.04
   2   1  -7    0.03    0.03
   2   1  -7   -0.01    0.05
  -2  -1   7    0.01    0.05
  -2  -1   7   -0.02    0.05
  -2  -1   7    0.02    0.06
   1   1  -7    8.86    0.28
   1   1  -7    8.54    0.41
   1   1  -7    8.88    0.41
   1   1  -7    9.13    0.34
   1   1  -7    9.40    0.46
  -1  -1   7    9.64    0.42
  -1  -1   7    8.54    0.41
  -1  -1   7    8.83    0.44
  -1  -1   7    8.46    0.28
  -1  -1   7    9.12    0.39
  -1  -1   7    8.79    0.28
  -1  -1   7    8.94    0.41
  -1  -1   7    8.72    0.31
   0   1  -7    6.39    0.31
   0   1  -7    6.74    0.27
   0   1  -7    6.51    0.27
   0   1  -7    6.55    0.33
   0   1  -7    7.11    0.38
   0  -1   7    7.20    0.32
   0  -1   7    6.40    0.30
   0  -1   7    7.02    0.36
   0  -1   7    7.27    0.25
   0  -1   7    6.70    0.36
   0  -1   7    6.92    0.33
  -1   1  -7    2.34    0.12
  -1   1  -7    1.83    0.18
  -1   1  -7    2.11    0.17
  -1   1  -7    2.52    0.18
  -1   1  -7    2.25    0.14
  -1   1  -7    2.26    0.23
   1  -1   7    1.97    0.11
   1  -1   7    1.86    0.20
   1  -1   7    2.24    0.16
   1  -1   7    2.37    0.15
   1  -1   7    2.23    0.19
   1  -1   7    2.00    0.22
  -2   1  -7    4.73    0.20
  -2   1  -7    5.29    0.30
  -2   1  -7    4.60    0.29
  -2   1  -7    5.23    0.27
   2  -1   7    5.36    0.29
   2  -1   7    4.83    0.21
   2  -1   7    4.73    0.19
   2  -1   7    4.80    0.26
  -3   1  -7   11.91    0.53
  -3   1  -7   12.99    0.41
  -3   1  -7   12.60    0.48
  -3   1  -7   12.14    0.57
   3  -1   7   12.49    0.41
   3  -1   7   11.98    0.48
   3  -1   7   13.02    0.41
  -4   1  -7    5.99    0.41
   4  -1   7    5.86    0.31
   5  -1   7    0.19    0.09
   6  -1   7    0.21    0.11
   6   0  -7    0.36    0.14
   5   0  -7    0.18    0.12
   4   0  -7    0.34    0.12
   3   0  -7    0.49    0.12
  -3   0   7    0.58    0.13
   2   0  -7    9.32    0.45
   2   0  -7    8.48    0.42
   2   0  -7    8.62    0.34
   2   0  -7    8.29    0.45
   2   0  -7    9.09    0.30
   2   0  -7    8.36    0.26
  -2   0   7    9.16    0.47
  -2   0   7    8.54    0.40
  -2   0   7    9.26    0.42
  -2   0   7    9.02    0.45
   1   0  -7    5.96    0.22
   1   0  -7    5.31    0.25
   1   0  -7    6.01    0.35
   1   0  -7    6.24    0.23
   1   0  -7    6.23    0.32
   1   0  -7    5.44    0.31
  -1   0   7    5.80    0.31
  -1   0   7    5.91    0.21
  -1   0   7    6.32    0.36
  -1   0   7    6.13    0.23
  -1   0   7    6.21    0.32
  -1   0   7    6.33    0.31
   0   0  -7   45.44    1.32
   0   0  -7   48.47    1.28
   0   0  -7   45.80    1.47
   0   0  -7   46.15    1.19
   0   0  -7   46.51    1.38
   0   0   7   47.62    1.38
   0   0   7   46.15    1.47
   0   0   7   46.81    1.33
   0   0   7   46.66    1.15
  -1   0  -7    6.39    0.29
  -1   0  -7    5.98    0.30
  -1   0  -7    6.65    0.28
  -1   0  -7    6.26    0.34
  -1   0  -7    6.29    0.20
   1   0   7    6.20    0.34
   1   0   7    5.56    0.28
   1   0   7    6.00    0.28
   1   0   7    6.17    0.33
   1   0   7    6.35    0.22
  -2   0  -7    0.00    0.03
  -2   0  -7   -0.05    0.03
  -2   0  -7   -0.04    0.04
  -2   0  -7   -0.01    0.03
   2   0   7    0.00    0.03
   2   0   7   -0.02    0.03
   2   0   7    0.03    0.04
   2   0   7    0.00    0.05
  -3   0  -7    8.27    0.33
  -3   0  -7    7.92    0.44
  -3   0  -7    8.47    0.40
  -3   0  -7    8.24    0.33
   3   0   7    8.24    0.33
   3   0   7    8.58    0.37
   3   0   7    8.17    0.34
   3   0   7    8.02    0.34
  -4   0  -7    8.51    0.40
  -4   0  -7    8.76    0.49
   4   0   7    8.16    0.35
  -5   0  -7    1.66    0.27
   5   0   7    1.47    0.16
   6   0   7    0.24    0.09
   6  -1  -7    0.07    0.12
   5  -1  -7    0.49    0.15
   4  -1  -7    0.21    0.11
   3  -1  -7    0.51    0.13
  -3   1   7    0.33    0.11
  -3   1   7    0.28    0.09
   2  -1  -7    4.20    0.28
   2  -1  -7    3.72    0.29
   2  -1  -7    4.16    0.19
   2  -1  -7    3.90    0.22
   2  -1  -7    3.81    0.27
   2  -1  -7    3.77    0.17
  -2   1   7    3.99    0.14
  -2   1   7    4.47    0.30
  -2   1   7    4.45    0.26
  -2   1   7    3.77    0.25
  -2   1   7    4.05    0.14
  -2   1   7    3.88    0.24
  -2   1   7    4.00    0.31
   1  -1  -7    7.16    0.28
   1  -1  -7    7.40    0.30
   1  -1  -7    7.28    0.37
   1  -1  -7    7.25    0.26
   1  -1  -7    7.45    0.37
   1  -1  -7    7.33    0.30
   1  -1  -7    8.05    0.42
  -1   1   7    7.32    0.36
  -1   1   7    7.21    0.26
  -1   1   7    7.68    0.36
  -1   1   7    7.03    0.40
  -1   1   7    7.13    0.37
  -1   1   7    7.71    0.29
   0  -1  -7  158.30    4.25
   0  -1  -7  155.05    3.94
   0  -1  -7  148.56    4.13
   0  -1  -7  160.55    4.35
   0  -1  -7  155.20    3.99
   0  -1  -7  156.93    3.63
   0   1   7  157.21    4.35
   0   1   7  150.48    4.00
   0   1   7  156.09    3.60
  -1  -1  -7    6.90    0.35
  -1  -1  -7    6.02    0.19
  -1  -1  -7    6.46    0.34
  -1  -1  -7    6.03    0.28
  -1  -1  -7    6.63    0.32
  -1  -1  -7    6.47    0.29
   1   1   7    6.00    0.22
   1   1   7    6.44    0.34
   1   1   7    6.34    0.30
   1   1   7    6.49    0.30
   1   1   7    6.20    0.33
  -2  -1  -7    0.96    0.17
  -2  -1  -7    1.22    0.17
  -2  -1  -7    1.11    0.13
  -2  -1  -7    1.05    0.15
   2   1   7    1.16    0.13
   2   1   7    1.20    0.14
   2   1   7    1.17    0.13
   2   1   7    1.24    0.19
  -3  -1  -7    0.17    0.07
  -3  -1  -7    0.19    0.05
  -3  -1  -7    0.12    0.08
  -3  -1  -7    0.26    0.08
   3   1   7    0.05    0.05
   3   1   7    0.08    0.04
   3   1   7    0.09    0.05
  -4  -1  -7    0.93    0.13
  -4  -1  -7    0.89    0.14
  -4  -1  -7    0.89    0.19
   4   1   7    1.02    0.15
   4   1   7    0.84    0.11
   4   1   7    1.01    0.16
  -5  -1  -7    3.08    0.38
   5   1   7    2.74    0.18
  -6  -1  -7    0.39    0.18
   6   1   7    0.29    0.08
   5  -2  -7    0.38    0.15
   4  -2  -7    0.26    0.12
   3  -2  -7    2.18    0.20
   3  -2  -7    2.13    0.26
   2  -2  -7    6.77    0.41
   2  -2  -7    6.53    0.29
   2  -2  -7    6.78    0.38
   2  -2  -7    6.71    0.31
   2  -2  -7    7.09    0.38
   2  -2  -7    6.24    0.28
  -2   2   7    6.24    0.29
  -2   2   7    6.37    0.32
  -2   2   7    6.88    0.42
  -2   2   7    6.59    0.22
  -2   2   7    6.40    0.38
  -2   2   7    6.48    0.30
   1  -2  -7    8.68    0.41
   1  -2  -7    8.81    0.47
   1  -2  -7    8.93    0.35
   1  -2  -7    9.48    0.36
   1  -2  -7    8.75    0.31
   1  -2  -7    9.42    0.43
   1  -2  -7    9.75    0.38
  -1   2   7    9.26    0.43
  -1   2   7    9.10    0.37
  -1   2   7    8.95    0.31
  -1   2   7    8.78    0.39
  -1   2   7    9.29    0.43
   0  -2  -7   20.04    0.65
   0  -2  -7   20.78    0.70
   0  -2  -7   19.13    0.69
   0  -2  -7   19.72    0.76
   0  -2  -7   18.44    0.56
   0  -2  -7   19.51    0.67
   0   2   7   18.70    0.75
   0   2   7   20.08    0.55
   0   2   7   19.19    0.69
   0   2   7   19.40    0.68
  -1  -2  -7    0.52    0.10
  -1  -2  -7    0.36    0.09
  -1  -2  -7    0.40    0.10
  -1  -2  -7    0.22    0.06
  -1  -2  -7    0.43    0.04
  -1  -2  -7    0.40    0.10
   1   2   7    0.38    0.09
   1   2   7    0.28    0.09
   1   2   7    0.40    0.09
   1   2   7    0.41    0.06
  -2  -2  -7    1.48    0.17
  -2  -2  -7    1.50    0.20
  -2  -2  -7    1.55    0.22
  -2  -2  -7    1.70    0.19
   2   2   7    1.56    0.16
   2   2   7    1.37    0.15
   2   2   7    1.45    0.17
  -3  -2  -7    6.35    0.41
  -3  -2  -7    5.76    0.31
  -3  -2  -7    5.45    0.31
  -3  -2  -7    6.30    0.23
  -3  -2  -7    6.44    0.38
   3   2   7    5.88    0.28
   3   2   7    5.92    0.27
   3   2   7    6.02    0.31
  -4  -2  -7    2.24    0.17
  -4  -2  -7    2.29    0.25
  -4  -2  -7    2.10    0.30
  -4  -2  -7    1.81    0.26
   4   2   7    2.50    0.26
   4   2   7    2.53    0.24
   4   2   7    2.12    0.15
   4   2   7    2.12    0.15
  -5  -2  -7   -0.04    0.11
   5   2   7    0.03    0.04
  -6  -2  -7    0.20    0.14
   6   2   7    0.21    0.06
   5  -3  -7    1.41    0.27
   4  -3  -7    7.75    0.49
   3  -3  -7    2.90    0.26
   3  -3  -7    2.61    0.30
   3  -3  -7    2.55    0.24
   2  -3  -7    0.65    0.14
   2  -3  -7    0.77    0.13
   2  -3  -7    0.39    0.13
   2  -3  -7    0.40    0.10
   2  -3  -7    0.71    0.12
   2  -3  -7    0.57    0.13
  -2   3   7    0.57    0.08
  -2   3   7    0.40    0.10
  -2   3   7    0.55    0.14
   1  -3  -7    2.27    0.23
   1  -3  -7    2.48    0.28
   1  -3  -7    2.77    0.20
   1  -3  -7    2.46    0.18
   1  -3  -7    2.81    0.15
   1  -3  -7    2.53    0.17
  -1   3   7    2.47    0.15
  -1   3   7    2.65    0.19
  -1   3   7    2.50    0.30
  -1   3   7    2.51    0.26
  -1   3   7    2.89    0.28
   0  -3  -7    5.83    0.37
   0  -3  -7    6.80    0.33
   0  -3  -7    7.32    0.35
   0  -3  -7    6.81    0.34
   0  -3  -7    6.49    0.35
   0  -3  -7    6.70    0.24
   0  -3  -7    6.18    0.26
   0   3   7    5.94    0.32
   0   3   7    6.62    0.35
   0   3   7    6.64    0.25
  -1  -3  -7   45.86    1.35
  -1  -3  -7   44.52    1.36
  -1  -3  -7   44.06    1.34
  -1  -3  -7   44.27    1.08
  -1  -3  -7   47.05    1.48
  -1  -3  -7   46.59    1.48
   1   3   7   46.37    1.39
   1   3   7   45.73    1.14
   1   3   7   45.58    1.45
   1   3   7   48.86    1.37
  -2  -3  -7    0.68    0.13
  -2  -3  -7    0.72    0.14
  -2  -3  -7    0.48    0.11
  -2  -3  -7    0.35    0.11
   2   3   7    0.66    0.12
   2   3   7    0.59    0.11
   2   3   7    0.78    0.12
  -3  -3  -7    7.48    0.37
  -3  -3  -7    7.54    0.39
  -3  -3  -7    7.55    0.43
  -3  -3  -7    6.81    0.45
   3   3   7    7.49    0.38
   3   3   7    7.24    0.33
   3   3   7    7.55    0.33
  -4  -3  -7    7.78    0.35
  -4  -3  -7    7.38    0.50
  -4  -3  -7    7.38    0.43
  -4  -3  -7    7.54    0.46
   4   3   7    8.31    0.45
   4   3   7    8.62    0.43
   4   3   7    7.87    0.33
  -5  -3  -7    0.27    0.14
   5   3   7    0.20    0.06
  -6  -3  -7    0.02    0.12
   6   3   7    0.07    0.05
   5  -4  -7    0.46    0.17
   4  -4  -7    3.96    0.41
   3  -4  -7    5.66    0.32
   3  -4  -7    5.50    0.33
   3  -4  -7    5.30    0.38
   2  -4  -7    0.61    0.14
   2  -4  -7    0.80    0.15
   2  -4  -7    0.96    0.16
   2  -4  -7    0.62    0.12
  -2   4   7    0.62    0.09
  -2   4   7    0.60    0.15
   1  -4  -7    0.74    0.17
   1  -4  -7    0.76    0.15
   1  -4  -7    1.03    0.16
   1  -4  -7    1.18    0.14
   1  -4  -7    1.21    0.17
   1  -4  -7    1.16    0.13
   1  -4  -7    0.76    0.13
  -1   4   7    1.15    0.13
  -1   4   7    1.19    0.19
  -1   4   7    0.75    0.15
  -1   4   7    0.87    0.19
  -1   4   7    1.00    0.16
   0  -4  -7    1.13    0.19
   0  -4  -7    1.04    0.16
   0  -4  -7    1.04    0.16
   0  -4  -7    0.97    0.15
   0  -4  -7    0.87    0.16
   0  -4  -7    1.03    0.11
   0  -4  -7    1.10    0.10
   0   4   7    0.84    0.14
   0   4   7    1.01    0.12
  -1  -4  -7    0.66    0.13
  -1  -4  -7    0.41    0.11
  -1  -4  -7    0.85    0.13
  -1  -4  -7    0.55    0.13
  -1  -4  -7    0.56    0.13
   1   4   7    0.53    0.11
   1   4   7    0.49    0.11
   1   4   7    0.42    0.07
  -2  -4  -7    0.77    0.15
  -2  -4  -7    0.70    0.14
  -2  -4  -7    0.64    0.13
  -2  -4  -7    0.74    0.17
   2   4   7    0.52    0.12
   2   4   7    0.82    0.14
  -3  -4  -7    2.24    0.23
  -3  -4  -7    2.19    0.15
  -3  -4  -7    2.57    0.28
  -3  -4  -7    1.77    0.26
  -3  -4  -7    1.92    0.26
   3   4   7    2.05    0.23
   3   4   7    2.56    0.19
  -4  -4  -7    3.77    0.40
  -4  -4  -7    4.25    0.45
   4   4   7    4.82    0.26
  -5  -4  -7    1.05    0.24
   5   4   7    0.90    0.12
  -6  -4  -7    0.34    0.18
   6   4   7    0.19    0.07
   4  -5  -7    0.88    0.23
   3  -5  -7    5.67    0.43
   3  -5  -7    5.68    0.34
   3  -5  -7    5.94    0.37
   2  -5  -7    0.43    0.14
   2  -5  -7    0.56    0.15
   2  -5  -7    0.59    0.15
   2  -5  -7    0.42    0.10
  -2   5   7    0.45    0.09
   1  -5  -7   -0.03    0.04
   1  -5  -7    0.00    0.09
   1  -5  -7   -0.02    0.06
   1  -5  -7   -0.01    0.06
   1  -5  -7   -0.03    0.04
   1  -5  -7    0.07    0.08
  -1   5   7   -0.03    0.04
  -1   5   7    0.10    0.08
   0  -5  -7   18.98    0.72
   0  -5  -7   17.75    0.77
   0  -5  -7   18.61    0.73
   0  -5  -7   17.91    0.82
   0  -5  -7   19.51    0.58
   0  -5  -7   18.74    0.73
   0  -5  -7   19.50    0.55
   0   5   7   18.58    0.74
   0   5   7   19.79    0.60
  -1  -5  -7    1.81    0.10
  -1  -5  -7    2.06    0.24
  -1  -5  -7    1.53    0.23
  -1  -5  -7    2.08    0.27
  -1  -5  -7    1.71    0.23
   1   5   7    2.00    0.14
   1   5   7    2.13    0.25
   1   5   7    1.76    0.22
  -2  -5  -7    0.11    0.09
  -2  -5  -7    0.10    0.08
  -2  -5  -7    0.03    0.07
   2   5   7    0.00    0.06
  -3  -5  -7    0.53    0.12
  -3  -5  -7    0.80    0.18
  -3  -5  -7    0.28    0.12
  -3  -5  -7    0.44    0.10
   3   5   7    0.55    0.12
  -4  -5  -7    1.55    0.27
   4   5   7    1.52    0.18
  -5  -5  -7    2.02    0.31
   5   5   7    1.86    0.20
  -6  -5  -7   -0.04    0.13
   6   5   7    0.07    0.07
   4  -6  -7    0.39    0.19
   3  -6  -7    0.29    0.15
   3  -6  -7    0.18    0.10
   3  -6  -7    0.46    0.15
   2  -6  -7    1.74    0.26
   2  -6  -7    2.41    0.24
   2  -6  -7    2.14    0.30
   2  -6  -7    1.77    0.26
  -2   6   7    1.50    0.17
   1  -6  -7    0.63    0.12
   1  -6  -7    0.66    0.11
   1  -6  -7    0.57    0.16
   1  -6  -7    0.84    0.17
  -1   6   7    0.56    0.11
   0  -6  -7   30.86    1.09
   0  -6  -7   31.26    1.22
   0  -6  -7   29.71    0.85
   0  -6  -7   32.10    1.18
   0  -6  -7   31.71    0.84
   0   6   7   30.75    1.15
   0   6   7   28.77    0.90
  -1  -6  -7    6.32    0.22
  -1  -6  -7    5.88    0.40
  -1  -6  -7    6.83    0.45
  -1  -6  -7    5.79    0.42
   1   6   7    6.61    0.30
   1   6   7    6.38    0.41
  -2  -6  -7    1.24    0.23
  -2  -6  -7    1.05    0.20
  -2  -6  -7    1.33    0.23
   2   6   7    1.40    0.21
  -3  -6  -7   -0.03    0.09
  -3  -6  -7   -0.01    0.08
   3   6   7   -0.01    0.06
  -4  -6  -7    0.41    0.05
  -4  -6  -7    0.38    0.16
   4   6   7    0.13    0.09
  -5  -6  -7    0.67    0.21
   5   6   7    1.17    0.18
  -6  -6  -7   -0.01    0.15
   6   6   7    0.16    0.09
   3  -7  -7    0.93    0.18
   3  -7  -7    1.47    0.27
   2  -7  -7   -0.01    0.10
   2  -7  -7    0.01    0.07
  -2   7   7    0.08    0.07
   1  -7  -7    0.10    0.10
   1  -7  -7    0.16    0.08
   1  -7  -7    0.03    0.05
  -1   7   7    0.06    0.07
   0  -7  -7    0.02    0.05
   0  -7  -7    0.00    0.08
   0  -7  -7    0.08    0.09
   0  -7  -7   -0.01    0.04
   0  -7  -7    0.00    0.12
   0   7   7   -0.02    0.06
   0   7   7    0.07    0.11
  -1  -7  -7    2.38    0.12
  -1  -7  -7    2.83    0.36
  -1  -7  -7    2.31    0.31
  -1  -7  -7    2.60    0.36
   1   7   7    2.56    0.32
   1   7   7    2.58    0.23
  -2  -7  -7    3.50    0.40
   2   7   7    3.17    0.35
  -3  -7  -7    0.45    0.15
   3   7   7    0.20    0.12
  -4  -7  -7    0.02    0.11
   4   7   7   -0.01    0.09
  -5  -7  -7   -0.01    0.14
   5   7   7    0.04    0.09
  -6  -7  -7   -0.05    0.17
   6   7   7   -0.09    0.08
   3  -8  -7    2.11    0.35
   3  -8  -7    1.19    0.21
   2  -8  -7    1.09    0.18
   2  -8  -7    0.61    0.21
  -2   8   7    1.41    0.19
   1  -8  -7    0.27    0.10
   1  -8  -7    0.13    0.07
   1  -8  -7   -0.04    0.10
  -1   8   7    0.00    0.07
   0  -8  -7   -0.04    0.04
   0  -8  -7    0.03    0.08
   0  -8  -7    0.00    0.04
   0   8   7    0.00    0.07
  -1  -8  -7    8.08    0.54
  -1  -8  -7    8.63    0.26
   1   8   7    8.38    0.40
   1   8   7    8.59    0.57
  -2  -8  -7    1.03    0.23
   2   8   7    1.37    0.27
  -3  -8  -7   -0.02    0.12
   3   8   7   -0.02    0.09
  -4  -8  -7   -0.02    0.10
   4   8   7   -0.04    0.10
  -5  -8  -7    0.14    0.17
   5   8   7   -0.02    0.09
   2  -9  -7    1.75    0.32
   2  -9  -7    1.56    0.23
  -2   9   7    1.62    0.21
   1  -9  -7    0.60    0.12
   1  -9  -7    0.56    0.13
   1  -9  -7    0.69    0.21
  -1   9   7    0.61    0.15
   0  -9  -7    0.00    0.06
   0  -9  -7    0.18    0.13
   0   9   7   -0.03    0.07
  -1  -9  -7   -0.07    0.10
   1   9   7    0.11    0.10
   1   9   7   -0.07    0.13
  -2  -9  -7    0.35    0.16
   2   9   7    0.29    0.18
  -3  -9  -7    0.04    0.15
   3   9   7    0.13    0.14
  -4  -9  -7   -0.03    0.12
   4   9   7    0.01    0.11
   0 -10  -7    0.09    0.07
   0 -10  -7    0.11    0.12
   0  10   7    0.06    0.11
  -1 -10  -7    0.38    0.19
   1  10   7    0.18    0.12
  -2 -10  -7    0.37    0.16
   2  10   7    0.03    0.16
  -3 -10  -7   -0.10    0.11
   3  10   7    0.22    0.16
   1  10  -8    0.09    0.14
   0 -10   8    0.15    0.16
   3   9  -8    0.06    0.17
   2   9  -8    0.09    0.19
   2   9  -8    0.17    0.14
   1   9  -8    0.19    0.13
  -1  -9   8    0.16    0.13
  -1  -9   8    0.12    0.06
   0   9  -8    1.50    0.23
   0  -9   8    1.43    0.18
   0  -9   8    1.23    0.24
  -1   9  -8   -0.06    0.09
   1  -9   8    0.04    0.10
   1  -9   8   -0.07    0.07
   2  -9   8   -0.07    0.08
   2  -9   8    0.03    0.14
   4   8  -8    0.33    0.18
   3   8  -8   -0.04    0.09
   2   8  -8    0.03    0.10
   2   8  -8    0.00    0.14
   1   8  -8    0.06    0.10
  -1  -8   8    0.17    0.06
  -1  -8   8    0.11    0.11
   0   8  -8    1.11    0.20
   0  -8   8    1.34    0.24
   0  -8   8    1.29    0.16
  -1   8  -8    0.65    0.15
   1  -8   8    0.88    0.20
   1  -8   8    0.59    0.13
  -2   8  -8    0.02    0.08
   2  -8   8    0.09    0.11
   2  -8   8   -0.07    0.07
   3  -8   8    0.16    0.10
   3  -8   8    0.10    0.13
   5   7  -8   -0.10    0.12
   4   7  -8    0.48    0.18
   3   7  -8    0.18    0.14
   2   7  -8    0.16    0.14
   2   7  -8    0.54    0.15
   1   7  -8    0.61    0.15
   1   7  -8    0.38    0.16
  -1  -7   8    0.37    0.12
  -1  -7   8    0.26    0.07
  -1  -7   8    0.48    0.15
   0   7  -8    0.33    0.11
   0  -7   8    0.11    0.09
   0  -7   8    0.35    0.09
  -1   7  -8    3.01    0.27
  -1   7  -8    2.72    0.37
   1  -7   8    2.77    0.33
   1  -7   8    2.43    0.22
  -2   7  -8   -0.09    0.05
   2  -7   8    0.02    0.09
   2  -7   8    0.15    0.12
   2  -7   8    0.03    0.07
   3  -7   8    0.33    0.12
   3  -7   8    0.24    0.14
   3  -7   8    0.34    0.16
   4  -7   8    1.22    0.29
   5   6  -8   -0.06    0.11
   4   6  -8    0.03    0.12
   3   6  -8    0.01    0.10
   2   6  -8    0.41    0.12
   2   6  -8    0.66    0.18
   1   6  -8    2.54    0.26
   1   6  -8    2.10    0.27
   1   6  -8    1.95    0.29
   1   6  -8    1.66    0.22
  -1  -6   8    2.40    0.27
  -1  -6   8    2.06    0.29
  -1  -6   8    2.84    0.30
  -1  -6   8    2.14    0.23
  -1  -6   8    2.02    0.14
   0   6  -8    1.17    0.18
   0   6  -8    1.33    0.24
   0   6  -8    1.27    0.23
   0  -6   8    1.42    0.23
   0  -6   8    1.36    0.20
   0  -6   8    1.61    0.17
   0  -6   8    1.63    0.24
  -1   6  -8   -0.01    0.13
  -1   6  -8   -0.01    0.09
  -1   6  -8    0.04    0.06
   1  -6   8    0.01    0.10
   1  -6   8   -0.10    0.07
   1  -6   8    0.00    0.05
   1  -6   8    0.04    0.10
   1  -6   8    0.03    0.10
  -2   6  -8    0.14    0.17
  -2   6  -8   -0.04    0.12
  -2   6  -8    0.06    0.05
   2  -6   8    0.04    0.09
   2  -6   8    0.04    0.08
   2  -6   8    0.01    0.06
   3  -6   8   -0.08    0.07
   3  -6   8    0.10    0.11
   4  -6   8    2.63    0.39
   4  -6   8    2.93    0.38
   5   5  -8   -0.01    0.11
   4   5  -8    0.08    0.09
   3   5  -8    1.72    0.26
   2   5  -8    0.93    0.15
   2   5  -8    1.01    0.20
  -2  -5   8    1.18    0.24
  -2  -5   8    1.09    0.16
   1   5  -8    0.14    0.08
   1   5  -8   -0.07    0.07
   1   5  -8    0.11    0.07
   1   5  -8    0.08    0.09
   1   5  -8    0.04    0.08
  -1  -5   8    0.15    0.05
  -1  -5   8    0.04    0.08
  -1  -5   8    0.18    0.08
  -1  -5   8   -0.01    0.05
  -1  -5   8    0.12    0.07
   0   5  -8    1.61    0.18
   0   5  -8    2.04    0.22
   0   5  -8    1.58    0.24
   0   5  -8    1.38    0.18
   0   5  -8    1.76    0.27
   0   5  -8    1.84    0.26
   0  -5   8    1.73    0.23
   0  -5   8    1.80    0.20
   0  -5   8    2.06    0.26
   0  -5   8    1.95    0.25
   0  -5   8    2.10    0.15
   0  -5   8    1.56    0.20
  -1   5  -8    2.13    0.21
  -1   5  -8    1.82    0.29
  -1   5  -8    2.57    0.31
   1  -5   8    1.93    0.23
   1  -5   8    2.29    0.27
   1  -5   8    2.43    0.30
   1  -5   8    2.38    0.20
   1  -5   8    1.94    0.26
  -2   5  -8    0.02    0.08
  -2   5  -8    0.09    0.05
  -2   5  -8    0.14    0.11
   2  -5   8    0.01    0.08
   2  -5   8    0.08    0.06
   2  -5   8    0.01    0.08
   2  -5   8    0.08    0.08
   2  -5   8   -0.02    0.08
   3  -5   8   -0.04    0.05
   4  -5   8    0.35    0.14
   5  -5   8    0.09    0.12
   6   4  -8    0.13    0.13
   5   4  -8    0.13    0.12
   4   4  -8    0.11    0.11
   3   4  -8    0.16    0.10
   2   4  -8    3.13    0.21
   2   4  -8    2.59    0.29
  -2  -4   8    2.69    0.19
  -2  -4   8    2.72    0.32
   1   4  -8    0.07    0.07
   1   4  -8    0.02    0.07
   1   4  -8   -0.01    0.08
   1   4  -8    0.06    0.09
   1   4  -8    0.05    0.07
  -1  -4   8    0.11    0.06
  -1  -4   8    0.15    0.06
  -1  -4   8    0.05    0.07
  -1  -4   8    0.11    0.08
  -1  -4   8    0.09    0.04
  -1  -4   8    0.11    0.10
   0   4  -8    9.15    0.42
   0   4  -8    9.59    0.54
   0   4  -8   10.18    0.52
   0   4  -8    9.87    0.41
   0   4  -8    9.98    0.42
   0   4  -8    9.55    0.51
   0  -4   8   10.06    0.43
   0  -4   8   10.13    0.43
   0  -4   8    9.37    0.35
   0  -4   8    9.36    0.47
   0  -4   8    8.98    0.45
   0  -4   8    9.25    0.50
   0  -4   8    9.38    0.52
   0  -4   8    9.28    0.47
  -1   4  -8   19.68    0.78
  -1   4  -8   17.94    0.58
  -1   4  -8   18.61    0.60
  -1   4  -8   18.17    0.81
  -1   4  -8   17.81    0.60
   1  -4   8   18.78    0.59
   1  -4   8   17.68    0.72
   1  -4   8   18.12    0.57
   1  -4   8   18.22    0.75
   1  -4   8   17.96    0.77
   1  -4   8   18.67    0.71
  -2   4  -8   10.01    0.57
  -2   4  -8    9.90    0.53
   2  -4   8    9.83    0.50
   2  -4   8    9.94    0.46
   2  -4   8   10.11    0.38
   2  -4   8   10.68    0.58
   2  -4   8    8.89    0.47
  -3   4  -8    3.62    0.30
   3  -4   8    3.49    0.29
   3  -4   8    3.40    0.33
   4  -4   8   -0.05    0.06
   5  -4   8    0.80    0.20
   6   3  -8    0.22    0.15
   5   3  -8    0.02    0.08
   4   3  -8    0.44    0.13
   3   3  -8    0.19    0.05
   3   3  -8    0.20    0.10
  -3  -3   8    0.08    0.08
   2   3  -8    3.80    0.30
   2   3  -8    3.78    0.29
   2   3  -8    4.32    0.24
  -2  -3   8    4.00    0.20
  -2  -3   8    3.66    0.35
  -2  -3   8    3.92    0.30
   1   3  -8    0.04    0.06
   1   3  -8   -0.01    0.06
   1   3  -8    0.08    0.05
   1   3  -8    0.17    0.09
  -1  -3   8    0.06    0.06
  -1  -3   8    0.00    0.05
  -1  -3   8   -0.01    0.05
  -1  -3   8    0.09    0.04
  -1  -3   8    0.01    0.04
  -1  -3   8    0.08    0.07
  -1  -3   8    0.07    0.06
  -1  -3   8    0.05    0.04
   0   3  -8    6.81    0.38
   0   3  -8    6.63    0.38
   0   3  -8    6.24    0.40
   0   3  -8    5.77    0.29
   0  -3   8    5.88    0.25
   0  -3   8    6.54    0.35
   0  -3   8    5.98    0.37
   0  -3   8    6.23    0.34
   0  -3   8    6.43    0.32
   0  -3   8    6.78    0.37
  -1   3  -8    3.92    0.28
  -1   3  -8    3.89    0.21
  -1   3  -8    3.77    0.20
  -1   3  -8    3.94    0.28
  -1   3  -8    4.20    0.32
   1  -3   8    3.48    0.19
   1  -3   8    3.54    0.28
   1  -3   8    3.56    0.26
   1  -3   8    4.16    0.28
   1  -3   8    3.95    0.21
  -2   3  -8   11.14    0.52
  -2   3  -8   10.26    0.54
   2  -3   8    9.72    0.47
   2  -3   8   10.64    0.38
   2  -3   8   10.41    0.52
  -3   3  -8    7.19    0.46
  -3   3  -8    8.48    0.44
   3  -3   8    7.40    0.44
   3  -3   8    7.34    0.41
   4  -3   8    1.19    0.19
   5  -3   8    0.52    0.15
   6   2  -8   -0.06    0.10
   5   2  -8    0.07    0.11
   4   2  -8    2.04    0.26
  -4  -2   8    1.97    0.28
   3   2  -8    4.28    0.20
   3   2  -8    4.10    0.31
  -3  -2   8    4.08    0.32
   2   2  -8    4.04    0.31
   2   2  -8    4.53    0.33
   2   2  -8    5.39    0.26
   2   2  -8    4.49    0.31
  -2  -2   8    4.37    0.31
  -2  -2   8    4.54    0.33
  -2  -2   8    4.38    0.32
   1   2  -8    5.30    0.31
   1   2  -8    5.01    0.32
   1   2  -8    5.00    0.26
   1   2  -8    5.08    0.34
  -1  -2   8    5.61    0.32
  -1  -2   8    5.14    0.30
  -1  -2   8    4.64    0.20
  -1  -2   8    4.89    0.32
  -1  -2   8    4.53    0.30
  -1  -2   8    5.40    0.24
   0   2  -8    7.52    0.40
   0   2  -8    8.02    0.33
   0   2  -8    7.20    0.42
   0   2  -8    7.46    0.35
   0  -2   8    7.90    0.36
   0  -2   8    8.01    0.38
   0  -2   8    7.40    0.41
   0  -2   8    8.67    0.30
   0  -2   8    8.11    0.40
  -1   2  -8   -0.01    0.03
  -1   2  -8    0.03    0.06
  -1   2  -8    0.08    0.06
  -1   2  -8   -0.04    0.05
  -1   2  -8    0.02    0.04
   1  -2   8   -0.05    0.03
   1  -2   8    0.08    0.07
   1  -2   8    0.01    0.05
   1  -2   8    0.01    0.04
   1  -2   8    0.01    0.03
  -2   2  -8    2.44    0.26
  -2   2  -8    2.34    0.13
  -2   2  -8    2.78    0.22
   2  -2   8    2.41    0.14
   2  -2   8    2.42    0.20
   2  -2   8    2.09    0.26
   2  -2   8    2.54    0.14
  -3   2  -8    9.32    0.50
  -3   2  -8    9.80    0.45
   3  -2   8    9.83    0.51
   3  -2   8    9.76    0.45
   4  -2   8   -0.02    0.09
   4  -2   8    0.35    0.10
   5  -2   8    0.98    0.17
   6  -2   8    1.15    0.20
   6   1  -8    0.38    0.16
   5   1  -8   -0.07    0.09
   4   1  -8    0.26    0.11
  -4  -1   8    0.34    0.13
   3   1  -8    1.99    0.25
   3   1  -8    2.16    0.14
  -3  -1   8    2.14    0.26
   2   1  -8    9.06    0.36
   2   1  -8    8.70    0.30
   2   1  -8    7.83    0.43
   2   1  -8    8.31    0.46
   2   1  -8    8.81    0.45
  -2  -1   8    8.98    0.48
  -2  -1   8    8.99    0.44
  -2  -1   8    8.30    0.45
  -2  -1   8    7.91    0.42
   1   1  -8   56.43    1.87
   1   1  -8   59.18    1.55
   1   1  -8   59.08    1.73
   1   1  -8   60.10    1.54
   1   1  -8   63.17    1.80
  -1  -1   8   59.65    1.69
  -1  -1   8   57.94    1.74
  -1  -1   8   61.06    1.74
  -1  -1   8   59.32    1.80
  -1  -1   8   61.75    1.76
  -1  -1   8   61.98    1.46
  -1  -1   8   61.19    1.46
   0   1  -8    4.26    0.21
   0   1  -8    4.18    0.21
   0   1  -8    4.27    0.27
   0   1  -8    4.11    0.24
   0   1  -8    4.07    0.29
   0  -1   8    3.64    0.27
   0  -1   8    4.18    0.19
   0  -1   8    4.25    0.24
   0  -1   8    4.48    0.25
   0  -1   8    3.98    0.25
   0  -1   8    4.22    0.29
  -1   1  -8    0.21    0.07
  -1   1  -8    0.06    0.06
  -1   1  -8    0.22    0.05
  -1   1  -8    0.09    0.07
  -1   1  -8    0.29    0.07
   1  -1   8    0.28    0.08
   1  -1   8    0.25    0.10
   1  -1   8    0.14    0.04
   1  -1   8    0.25    0.07
   1  -1   8    0.19    0.08
   1  -1   8    0.31    0.09
  -2   1  -8    1.34    0.19
  -2   1  -8    1.37    0.11
  -2   1  -8    1.60    0.18
  -2   1  -8    1.35    0.19
   2  -1   8    1.24    0.16
   2  -1   8    1.45    0.14
   2  -1   8    1.42    0.10
  -3   1  -8    0.36    0.12
  -3   1  -8    0.35    0.09
  -3   1  -8    0.42    0.11
  -3   1  -8    0.37    0.07
   3  -1   8    0.38    0.07
   3  -1   8    0.46    0.08
   3  -1   8    0.31    0.09
  -4   1  -8    3.43    0.37
   4  -1   8    4.51    0.27
   5  -1   8    0.82    0.15
   6  -1   8    1.18    0.18
   6   0  -8    0.29    0.17
   5   0  -8    0.29    0.14
   4   0  -8    0.11    0.10
   3   0  -8    4.61    0.33
  -3   0   8    4.67    0.32
   2   0  -8    6.04    0.36
   2   0  -8    6.13    0.25
   2   0  -8    7.03    0.31
   2   0  -8    6.17    0.37
   2   0  -8    6.78    0.41
  -2   0   8    6.12    0.40
  -2   0   8    5.93    0.34
  -2   0   8    6.04    0.19
  -2   0   8    6.58    0.36
  -2   0   8    6.86    0.39
  -2   0   8    6.48    0.20
   1   0  -8   14.15    0.46
   1   0  -8   14.54    0.59
   1   0  -8   14.35    0.65
   1   0  -8   14.47    0.51
   1   0  -8   15.95    0.62
  -1   0   8   16.41    0.61
  -1   0   8   15.93    0.61
  -1   0   8   15.94    0.61
  -1   0   8   15.36    0.49
  -1   0   8   15.51    0.44
  -1   0   8   14.59    0.65
   0   0  -8    4.32    0.25
   0   0  -8    3.90    0.20
   0   0  -8    3.77    0.28
   0   0  -8    3.73    0.24
   0   0  -8    3.79    0.21
   0   0   8    3.76    0.24
   0   0   8    3.62    0.24
   0   0   8    3.49    0.17
   0   0   8    4.01    0.27
   0   0   8    4.07    0.23
   0   0   8    3.65    0.27
  -1   0  -8    0.00    0.03
  -1   0  -8    0.14    0.08
  -1   0  -8    0.01    0.05
  -1   0  -8    0.00    0.02
  -1   0  -8    0.02    0.04
   1   0   8   -0.01    0.02
   1   0   8    0.05    0.05
   1   0   8    0.00    0.05
   1   0   8    0.00    0.04
   1   0   8    0.00    0.04
  -2   0  -8   11.70    0.43
  -2   0  -8   12.44    0.49
  -2   0  -8   11.67    0.52
  -2   0  -8   12.60    0.54
   2   0   8   12.62    0.51
   2   0   8   11.54    0.36
   2   0   8   11.67    0.44
   2   0   8   12.27    0.48
  -3   0  -8    8.73    0.36
  -3   0  -8    9.14    0.37
  -3   0  -8    7.94    0.42
  -3   0  -8    8.53    0.47
   3   0   8    9.15    0.36
   3   0   8    8.21    0.37
  -4   0  -8    0.05    0.08
   4   0   8    0.02    0.05
  -5   0  -8    2.15    0.33
   5   0   8    1.81    0.19
   6   0   8    0.87    0.15
   5  -1  -8    4.72    0.45
   4  -1  -8    0.87    0.19
   3  -1  -8    0.05    0.08
  -3   1   8    0.13    0.07
   2  -1  -8    3.91    0.19
   2  -1  -8    3.90    0.19
   2  -1  -8    3.79    0.23
   2  -1  -8    3.72    0.16
   2  -1  -8    3.19    0.31
   2  -1  -8    4.20    0.31
   2  -1  -8    3.65    0.28
  -2   1   8    4.36    0.27
  -2   1   8    3.78    0.25
  -2   1   8    3.88    0.15
  -2   1   8    3.88    0.16
  -2   1   8    3.74    0.29
  -2   1   8    3.16    0.33
   1  -1  -8    7.18    0.38
   1  -1  -8    6.92    0.29
   1  -1  -8    6.33    0.35
   1  -1  -8    6.66    0.25
   1  -1  -8    6.64    0.30
   1  -1  -8    7.14    0.28
   1  -1  -8    6.46    0.40
  -1   1   8    7.29    0.43
  -1   1   8    6.90    0.28
  -1   1   8    6.94    0.36
  -1   1   8    6.47    0.25
  -1   1   8    6.61    0.35
  -1   1   8    6.78    0.37
   0  -1  -8   24.92    0.93
   0  -1  -8   25.22    0.79
   0  -1  -8   26.45    0.85
   0  -1  -8   25.38    0.83
   0  -1  -8   24.56    0.71
   0  -1  -8   26.03    0.86
   0   1   8   25.92    0.96
   0   1   8   24.70    0.83
   0   1   8   24.86    0.68
   0   1   8   24.29    0.84
  -1  -1  -8    0.62    0.13
  -1  -1  -8    0.88    0.07
  -1  -1  -8    0.60    0.10
  -1  -1  -8    0.74    0.13
  -1  -1  -8    0.71    0.13
  -1  -1  -8    0.71    0.12
   1   1   8    0.66    0.12
   1   1   8    0.82    0.09
   1   1   8    0.78    0.12
   1   1   8    0.81    0.12
   1   1   8    0.64    0.13
  -2  -1  -8   26.28    0.84
  -2  -1  -8   26.44    0.91
  -2  -1  -8   26.90    0.94
  -2  -1  -8   28.56    1.00
   2   1   8   26.96    0.85
   2   1   8   27.00    0.88
   2   1   8   24.91    0.85
  -3  -1  -8   27.42    0.97
  -3  -1  -8   25.99    0.85
  -3  -1  -8   26.53    0.92
  -3  -1  -8   26.39    0.82
   3   1   8   24.90    0.84
   3   1   8   27.86    0.85
  -4  -1  -8    0.91    0.15
  -4  -1  -8    0.82    0.18
  -4  -1  -8    0.54    0.11
   4   1   8    0.74    0.13
   4   1   8    0.71    0.11
   4   1   8    0.97    0.16
  -5  -1  -8    0.04    0.12
   5   1   8    0.14    0.06
  -6  -1  -8    0.01    0.13
   6   1   8   -0.04    0.06
   5  -2  -8    2.03    0.30
   4  -2  -8    3.87    0.39
   3  -2  -8    0.13    0.08
   3  -2  -8    0.12    0.10
   2  -2  -8   10.50    0.55
   2  -2  -8   10.13    0.51
   2  -2  -8   10.12    0.39
   2  -2  -8   10.01    0.41
   2  -2  -8   10.05    0.37
   2  -2  -8   10.19    0.40
   2  -2  -8   10.08    0.50
  -2   2   8    9.65    0.39
  -2   2   8   10.27    0.52
  -2   2   8   10.04    0.45
  -2   2   8   10.37    0.44
  -2   2   8   10.25    0.32
   1  -2  -8    1.23    0.14
   1  -2  -8    1.24    0.14
   1  -2  -8    1.20    0.17
   1  -2  -8    1.16    0.12
   1  -2  -8    0.93    0.12
   1  -2  -8    1.08    0.19
  -1   2   8    1.16    0.13
  -1   2   8    1.06    0.16
  -1   2   8    1.09    0.17
  -1   2   8    1.19    0.12
  -1   2   8    1.19    0.18
   0  -2  -8    0.09    0.05
   0  -2  -8    0.00    0.04
   0  -2  -8    0.20    0.07
   0  -2  -8    0.09    0.06
   0  -2  -8    0.25    0.06
   0  -2  -8    0.29    0.10
   0   2   8    0.08    0.07
   0   2   8   -0.02    0.04
   0   2   8    0.15    0.06
   0   2   8    0.14    0.04
  -1  -2  -8    2.33    0.25
  -1  -2  -8    2.10    0.21
  -1  -2  -8    2.54    0.22
  -1  -2  -8    2.66    0.11
  -1  -2  -8    2.34    0.23
  -1  -2  -8    2.55    0.18
   1   2   8    2.32    0.19
   1   2   8    2.27    0.22
   1   2   8    2.49    0.21
   1   2   8    2.58    0.14
  -2  -2  -8    8.97    0.41
  -2  -2  -8    9.72    0.50
  -2  -2  -8   10.04    0.47
  -2  -2  -8    9.54    0.46
   2   2   8    9.54    0.42
   2   2   8    9.22    0.41
   2   2   8    9.49    0.42
  -3  -2  -8   21.42    0.82
  -3  -2  -8   21.06    0.87
  -3  -2  -8   19.75    0.72
  -3  -2  -8   20.66    0.65
  -3  -2  -8   18.90    0.73
   3   2   8   19.13    0.68
   3   2   8   20.37    0.71
  -4  -2  -8    2.97    0.28
  -4  -2  -8    3.16    0.37
  -4  -2  -8    3.07    0.22
  -4  -2  -8    2.94    0.35
   4   2   8    3.45    0.26
   4   2   8    3.01    0.24
   4   2   8    3.18    0.20
  -5  -2  -8    0.08    0.11
   5   2   8    0.20    0.06
  -6  -2  -8    0.10    0.13
   6   2   8    0.15    0.06
   5  -3  -8    0.15    0.13
   4  -3  -8    3.84    0.40
   3  -3  -8    0.07    0.08
   3  -3  -8   -0.04    0.06
   2  -3  -8    0.81    0.13
   2  -3  -8    0.53    0.15
   2  -3  -8    1.04    0.15
   2  -3  -8    0.70    0.13
  -2   3   8    0.73    0.10
  -2   3   8    0.64    0.14
   1  -3  -8   31.13    1.03
   1  -3  -8   31.76    0.97
   1  -3  -8   32.61    1.17
   1  -3  -8   29.15    1.01
   1  -3  -8   32.42    1.07
   1  -3  -8   30.41    0.85
   1  -3  -8   30.08    0.89
  -1   3   8   31.41    1.07
  -1   3   8   30.42    1.01
  -1   3   8   30.47    0.85
  -1   3   8   31.14    1.06
   0  -3  -8    4.43    0.33
   0  -3  -8    3.85    0.27
   0  -3  -8    3.94    0.20
   0  -3  -8    4.10    0.26
   0  -3  -8    4.14    0.27
   0  -3  -8    4.45    0.28
   0   3   8    3.70    0.25
   0   3   8    4.50    0.30
   0   3   8    4.35    0.20
  -1  -3  -8    0.61    0.13
  -1  -3  -8    0.58    0.06
  -1  -3  -8    0.59    0.12
  -1  -3  -8    0.55    0.10
  -1  -3  -8    0.57    0.14
  -1  -3  -8    0.49    0.11
   1   3   8    0.42    0.10
   1   3   8    0.62    0.13
   1   3   8    0.49    0.08
  -2  -3  -8    3.16    0.25
  -2  -3  -8    3.32    0.31
  -2  -3  -8    3.37    0.24
  -2  -3  -8    2.69    0.30
   2   3   8    2.84    0.14
   2   3   8    2.87    0.22
   2   3   8    2.87    0.22
  -3  -3  -8    5.49    0.37
  -3  -3  -8    5.19    0.32
  -3  -3  -8    5.31    0.33
  -3  -3  -8    5.12    0.39
   3   3   8    5.96    0.34
   3   3   8    5.53    0.29
  -4  -3  -8    7.73    0.52
  -4  -3  -8    7.88    0.48
   4   3   8    7.42    0.35
  -5  -3  -8    0.14    0.11
   5   3   8    0.07    0.06
  -6  -3  -8    0.13    0.16
   6   3   8    0.04    0.06
   5  -4  -8    0.87    0.25
   4  -4  -8    0.04    0.09
   3  -4  -8    1.50    0.20
   3  -4  -8    1.52    0.22
   3  -4  -8    1.36    0.24
   2  -4  -8    1.00    0.19
   2  -4  -8    0.85    0.15
   2  -4  -8    1.21    0.17
   2  -4  -8    0.99    0.16
  -2   4   8    1.03    0.12
   1  -4  -8   90.15    2.51
   1  -4  -8   80.45    2.32
   1  -4  -8   83.07    2.46
   1  -4  -8   84.56    2.13
   1  -4  -8   78.90    2.37
   1  -4  -8   87.46    2.10
  -1   4   8   85.28    2.43
  -1   4   8   84.67    2.09
  -1   4   8   85.30    2.49
   0  -4  -8   13.89    0.66
   0  -4  -8   11.46    0.54
   0  -4  -8   13.90    0.57
   0  -4  -8   13.01    0.56
   0  -4  -8   12.39    0.43
   0  -4  -8   14.06    0.61
   0   4   8   14.27    0.60
   0   4   8   13.14    0.44
  -1  -4  -8    2.39    0.26
  -1  -4  -8    2.17    0.10
  -1  -4  -8    2.22    0.27
  -1  -4  -8    2.10    0.23
  -1  -4  -8    2.43    0.28
   1   4   8    2.52    0.15
   1   4   8    2.32    0.25
   1   4   8    2.05    0.23
  -2  -4  -8    0.13    0.08
  -2  -4  -8    0.21    0.09
  -2  -4  -8   -0.06    0.05
  -2  -4  -8    0.03    0.07
   2   4   8    0.03    0.07
   2   4   8    0.09    0.07
  -3  -4  -8    0.31    0.12
  -3  -4  -8    0.16    0.11
  -3  -4  -8    0.32    0.11
   3   4   8    0.18    0.08
  -4  -4  -8    6.95    0.50
  -4  -4  -8    6.69    0.46
   4   4   8    6.41    0.34
  -5  -4  -8   -0.04    0.08
   5   4   8   -0.02    0.05
  -6  -4  -8    0.26    0.18
   6   4   8    0.03    0.06
   4  -5  -8    2.80    0.39
   3  -5  -8    0.00    0.08
   3  -5  -8    0.04    0.09
   3  -5  -8   -0.05    0.07
   2  -5  -8    0.21    0.09
   2  -5  -8    0.04    0.07
   2  -5  -8   -0.01    0.09
   2  -5  -8    0.08    0.08
  -2   5   8    0.01    0.05
   1  -5  -8    0.80    0.11
   1  -5  -8    1.09    0.15
   1  -5  -8    0.86    0.17
   1  -5  -8    0.83    0.16
   1  -5  -8    0.98    0.19
  -1   5   8    0.68    0.12
   0  -5  -8    5.13    0.39
   0  -5  -8    4.39    0.23
   0  -5  -8    5.38    0.37
   0  -5  -8    4.83    0.21
   0  -5  -8    4.80    0.33
   0   5   8    5.06    0.25
  -1  -5  -8    8.48    0.27
  -1  -5  -8    9.04    0.51
  -1  -5  -8    8.98    0.47
  -1  -5  -8    9.54    0.52
   1   5   8    9.15    0.35
   1   5   8    7.84    0.45
  -2  -5  -8    0.29    0.11
  -2  -5  -8    0.28    0.10
  -2  -5  -8    0.28    0.12
   2   5   8    0.22    0.09
  -3  -5  -8    0.18    0.12
  -3  -5  -8    0.27    0.11
   3   5   8    0.02    0.07
  -4  -5  -8    1.14    0.24
   4   5   8    0.74    0.14
  -5  -5  -8    0.31    0.18
   5   5   8    0.30    0.10
  -6  -5  -8    0.09    0.17
   6   5   8   -0.08    0.06
   4  -6  -8    2.94    0.42
   3  -6  -8    2.48    0.28
   3  -6  -8    2.71    0.33
   3  -6  -8    2.56    0.36
   2  -6  -8    0.51    0.15
   2  -6  -8    0.40    0.11
   2  -6  -8    0.02    0.10
   2  -6  -8    0.46    0.11
  -2   6   8    0.57    0.11
   1  -6  -8    0.56    0.11
   1  -6  -8    0.38    0.15
   1  -6  -8    0.73    0.17
   1  -6  -8    0.68    0.11
  -1   6   8    0.51    0.10
   0  -6  -8   18.17    0.58
   0  -6  -8   17.76    0.77
   0  -6  -8   17.44    0.85
   0  -6  -8   18.57    0.83
   0  -6  -8   18.74    0.55
   0   6   8   17.79    0.61
   0   6   8   19.30    0.83
  -1  -6  -8    2.88    0.13
  -1  -6  -8    2.51    0.32
  -1  -6  -8    2.41    0.32
  -1  -6  -8    2.76    0.33
   1   6   8    2.92    0.32
   1   6   8    2.95    0.20
  -2  -6  -8    0.10    0.10
  -2  -6  -8    0.11    0.09
  -2  -6  -8    0.05    0.10
   2   6   8   -0.01    0.07
  -3  -6  -8    0.63    0.18
   3   6   8    0.45    0.13
  -4  -6  -8    1.27    0.25
   4   6   8    0.79    0.15
  -5  -6  -8   -0.04    0.12
   5   6   8    0.12    0.09
  -6  -6  -8   -0.07    0.15
   6   6   8   -0.03    0.08
   3  -7  -8    3.16    0.39
   3  -7  -8    2.77    0.30
   2  -7  -8    0.64    0.15
   2  -7  -8    0.68    0.14
   2  -7  -8    0.67    0.17
  -2   7   8    0.80    0.14
   1  -7  -8    0.18    0.13
   1  -7  -8    0.14    0.07
   1  -7  -8    0.22    0.08
  -1   7   8    0.22    0.09
   0  -7  -8   -0.02    0.08
   0  -7  -8    0.08    0.06
   0  -7  -8   -0.06    0.04
   0   7   8    0.06    0.11
   0   7   8    0.08    0.07
  -1  -7  -8    1.32    0.25
  -1  -7  -8    1.12    0.24
  -1  -7  -8    1.18    0.08
   1   7   8    1.05    0.15
   1   7   8    1.00    0.22
  -2  -7  -8    0.30    0.14
   2   7   8    0.11    0.12
  -3  -7  -8    0.09    0.11
   3   7   8    0.03    0.09
  -4  -7  -8    0.53    0.21
   4   7   8    0.71    0.17
  -5  -7  -8    0.04    0.18
   5   7   8    0.54    0.14
   2  -8  -8    1.26    0.20
   2  -8  -8    0.69    0.20
  -2   8   8    0.69    0.14
   1  -8  -8    0.00    0.10
   1  -8  -8    0.23    0.09
   1  -8  -8    0.30    0.09
  -1   8   8    0.15    0.09
   0  -8  -8    2.80    0.19
   0  -8  -8    2.30    0.34
   0   8   8    2.26    0.25
  -1  -8  -8    2.44    0.36
   1   8   8    2.21    0.24
   1   8   8    2.50    0.36
  -2  -8  -8    0.10    0.13
   2   8   8    0.15    0.13
  -3  -8  -8    0.00    0.12
   3   8   8    0.08    0.11
  -4  -8  -8   -0.09    0.10
   4   8   8    0.04    0.10
  -5  -8  -8    0.43    0.20
   5   8   8    0.05    0.11
   1  -9  -8    0.02    0.07
   1  -9  -8    0.03    0.11
   1  -9  -8   -0.01    0.07
  -1   9   8   -0.11    0.08
   0  -9  -8    0.09    0.13
   0  -9  -8    0.26    0.09
   0   9   8    0.20    0.10
  -1  -9  -8   -0.03    0.10
   1   9   8   -0.01    0.09
   1   9   8    0.06    0.17
  -2  -9  -8    0.71    0.22
   2   9   8    0.36    0.19
  -3  -9  -8    0.02    0.13
   3   9   8    0.03    0.14
  -4  -9  -8   -0.08    0.12
   4   9   8    0.01    0.14
   0 -10  -8    0.09    0.14
   0 -10  -8    0.07    0.07
   0  10   8    0.04    0.10
  -1 -10  -8    0.21    0.16
   1  10   8    0.09    0.11
  -2 -10  -8    1.05    0.28
   2  10   8    1.44    0.32
  -3 -10  -8    0.04    0.18
   3  10   8    0.22    0.18
   3   9  -9   -0.02    0.14
   2   9  -9    0.01    0.12
   1   9  -9    0.06    0.12
  -1  -9   9    0.05    0.05
   0   9  -9    0.12    0.12
   0  -9   9    0.36    0.11
   0  -9   9    0.23    0.14
  -1   9  -9    0.10    0.11
   1  -9   9   -0.01    0.07
   1  -9   9    0.13    0.13
   4   8  -9    0.08    0.17
   3   8  -9    0.03    0.13
   2   8  -9    0.22    0.14
   2   8  -9    0.68    0.22
   1   8  -9    0.05    0.10
  -1  -8   9    0.26    0.07
   0   8  -9   -0.04    0.08
   0  -8   9    0.01    0.06
   0  -8   9    0.04    0.10
  -1   8  -9    0.41    0.13
   1  -8   9    0.26    0.10
   1  -8   9    0.15    0.12
  -2   8  -9    0.10    0.08
   2  -8   9    0.19    0.11
   2  -8   9    0.07    0.12
   4   7  -9    0.18    0.16
   3   7  -9    0.10    0.11
   2   7  -9    0.09    0.11
   2   7  -9    0.03    0.11
   1   7  -9    0.47    0.19
   1   7  -9    0.45    0.14
  -1  -7   9    0.39    0.14
  -1  -7   9    0.53    0.15
  -1  -7   9    0.43    0.08
   0   7  -9    0.56    0.14
   0  -7   9    0.56    0.15
   0  -7   9    0.44    0.09
  -1   7  -9    0.15    0.10
  -1   7  -9    0.33    0.18
   1  -7   9    0.19    0.09
   1  -7   9    0.23    0.12
  -2   7  -9    0.03    0.07
   2  -7   9    0.01    0.08
   2  -7   9   -0.09    0.07
   3  -7   9    0.13    0.09
   3  -7   9    0.32    0.16
   3  -7   9    0.13    0.15
   5   6  -9    0.02    0.13
   4   6  -9   -0.06    0.12
   3   6  -9    0.43    0.17
   2   6  -9    0.30    0.14
   2   6  -9    0.58    0.15
   1   6  -9    3.95    0.29
   1   6  -9    3.76    0.41
  -1  -6   9    3.64    0.26
  -1  -6   9    3.78    0.20
  -1  -6   9    3.89    0.31
   0   6  -9    3.40    0.39
   0   6  -9    2.85    0.28
   0  -6   9    3.19    0.20
   0  -6   9    3.40    0.35
   0  -6   9    3.02    0.33
   0  -6   9    3.39    0.33
  -1   6  -9    3.39    0.39
  -1   6  -9    3.04    0.27
   1  -6   9    2.82    0.33
   1  -6   9    2.88    0.25
   1  -6   9    3.02    0.33
   1  -6   9    3.16    0.35
  -2   6  -9    1.77    0.30
  -2   6  -9    1.91    0.17
   2  -6   9    1.85    0.28
   2  -6   9    1.51    0.26
   2  -6   9    1.96    0.21
   3  -6   9    0.01    0.08
   3  -6   9   -0.04    0.07
   3  -6   9   -0.09    0.10
   4  -6   9    0.32    0.16
   4  -6   9    0.10    0.14
   5   5  -9    0.15    0.14
   4   5  -9    0.18    0.13
   3   5  -9    0.97    0.21
   2   5  -9    0.14    0.09
   2   5  -9    0.02    0.09
   1   5  -9    2.75    0.29
   1   5  -9    2.85    0.29
   1   5  -9    3.14    0.35
   1   5  -9    3.21    0.29
  -1  -5   9    3.16    0.17
  -1  -5   9    3.43    0.33
  -1  -5   9    2.88    0.21
  -1  -5   9    2.92    0.25
  -1  -5   9    3.41    0.36
   0   5  -9    2.00    0.23
   0   5  -9    2.22    0.29
   0   5  -9    1.84    0.29
   0   5  -9    2.21    0.23
   0   5  -9    2.11    0.29
   0   5  -9    2.06    0.22
   0  -5   9    2.03    0.23
   0  -5   9    2.11    0.27
   0  -5   9    1.98    0.18
   0  -5   9    2.08    0.23
   0  -5   9    1.90    0.25
  -1   5  -9    1.73    0.19
  -1   5  -9    2.18    0.29
  -1   5  -9    1.93    0.30
   1  -5   9    1.56    0.25
   1  -5   9    2.32    0.20
   1  -5   9    2.01    0.28
  -2   5  -9    3.67    0.17
  -2   5  -9    3.47    0.42
  -2   5  -9    4.21    0.41
   2  -5   9    3.42    0.36
   2  -5   9    3.03    0.21
   2  -5   9    3.28    0.35
   3  -5   9    1.30    0.23
   4  -5   9    0.97    0.22
   5  -5   9    0.32    0.16
   5   4  -9    0.23    0.16
   4   4  -9    0.68    0.18
   3   4  -9    1.14    0.22
   2   4  -9    0.02    0.08
   2   4  -9    0.16    0.08
  -2  -4   9    0.13    0.10
   1   4  -9    0.82    0.18
   1   4  -9    0.90    0.14
   1   4  -9    0.80    0.18
   1   4  -9    0.43    0.13
   1   4  -9    0.91    0.17
  -1  -4   9    0.75    0.16
  -1  -4   9    1.41    0.15
  -1  -4   9    0.50    0.11
  -1  -4   9    0.83    0.16
  -1  -4   9    0.93    0.11
   0   4  -9    0.64    0.15
   0   4  -9    0.60    0.15
   0   4  -9    0.89    0.14
   0   4  -9    0.70    0.17
   0   4  -9    0.57    0.12
   0  -4   9    0.65    0.14
   0  -4   9    0.84    0.16
   0  -4   9    0.75    0.11
   0  -4   9    0.48    0.15
   0  -4   9    0.86    0.15
   0  -4   9    0.60    0.15
  -1   4  -9    0.04    0.09
  -1   4  -9   -0.04    0.07
  -1   4  -9    0.00    0.05
  -1   4  -9    0.16    0.06
  -1   4  -9    0.13    0.06
   1  -4   9    0.08    0.06
   1  -4   9    0.09    0.08
   1  -4   9    0.10    0.09
   1  -4   9    0.11    0.05
   1  -4   9    0.01    0.06
   1  -4   9    0.09    0.07
  -2   4  -9    1.87    0.28
  -2   4  -9    1.59    0.24
   2  -4   9    2.06    0.25
   2  -4   9    1.73    0.27
   2  -4   9    2.31    0.25
   2  -4   9    1.84    0.26
   2  -4   9    1.88    0.18
  -3   4  -9    0.12    0.11
   3  -4   9    0.05    0.10
   3  -4   9    0.06    0.08
   4  -4   9    2.30    0.29
   5  -4   9    2.08    0.30
   5   3  -9    0.10    0.12
   4   3  -9    0.06    0.11
   3   3  -9    2.99    0.33
  -3  -3   9    3.73    0.38
   2   3  -9   10.76    0.45
   2   3  -9   11.27    0.56
  -2  -3   9   11.08    0.57
   1   3  -9    0.17    0.11
   1   3  -9    0.08    0.08
   1   3  -9    0.24    0.09
   1   3  -9    0.29    0.08
  -1  -3   9    0.17    0.05
  -1  -3   9    0.15    0.08
  -1  -3   9    0.35    0.09
  -1  -3   9    0.17    0.10
  -1  -3   9    0.26    0.10
  -1  -3   9    0.14    0.05
  -1  -3   9    0.28    0.10
  -1  -3   9    0.15    0.11
   0   3  -9    0.54    0.13
   0   3  -9    0.69    0.12
   0   3  -9    0.54    0.11
   0   3  -9    0.55    0.15
   0   3  -9    0.74    0.17
   0  -3   9    0.46    0.13
   0  -3   9    0.83    0.16
   0  -3   9    0.61    0.13
   0  -3   9    0.61    0.09
   0  -3   9    0.69    0.14
   0  -3   9    0.78    0.14
  -1   3  -9    1.96    0.27
  -1   3  -9    1.84    0.23
  -1   3  -9    1.80    0.17
  -1   3  -9    1.73    0.25
  -1   3  -9    1.62    0.16
   1  -3   9    1.54    0.23
   1  -3   9    1.33    0.19
   1  -3   9    1.89    0.22
   1  -3   9    1.94    0.18
   1  -3   9    1.80    0.16
  -2   3  -9    0.02    0.09
  -2   3  -9    0.06    0.08
   2  -3   9    0.00    0.07
   2  -3   9   -0.01    0.05
   2  -3   9    0.00    0.04
  -3   3  -9    1.10    0.18
   3  -3   9    1.28    0.20
   3  -3   9    1.25    0.22
   4  -3   9    1.16    0.20
   5  -3   9    2.49    0.30
   5   2  -9    0.00    0.09
   4   2  -9    0.41    0.13
   3   2  -9    1.67    0.24
   3   2  -9    1.79    0.15
   2   2  -9    4.88    0.27
   2   2  -9    4.61    0.33
  -2  -2   9    5.24    0.35
   1   2  -9    2.99    0.32
   1   2  -9    2.95    0.29
   1   2  -9    2.93    0.28
   1   2  -9    2.86    0.20
  -1  -2   9    2.77    0.29
  -1  -2   9    2.90    0.15
  -1  -2   9    3.45    0.29
  -1  -2   9    2.87    0.23
  -1  -2   9    2.87    0.18
  -1  -2   9    3.04    0.31
  -1  -2   9    2.88    0.18
  -1  -2   9    3.00    0.29
   0   2  -9    6.24    0.33
   0   2  -9    6.55    0.41
   0   2  -9    6.38    0.37
   0   2  -9    5.63    0.28
   0  -2   9    6.12    0.38
   0  -2   9    5.64    0.33
   0  -2   9    5.87    0.25
   0  -2   9    6.00    0.33
   0  -2   9    6.11    0.36
  -1   2  -9    9.81    0.35
  -1   2  -9    9.75    0.52
  -1   2  -9    9.79    0.48
  -1   2  -9    9.57    0.39
  -1   2  -9   10.15    0.48
   1  -2   9    9.94    0.35
   1  -2   9    9.87    0.46
   1  -2   9   10.36    0.52
   1  -2   9   10.03    0.41
  -2   2  -9    7.82    0.41
  -2   2  -9    7.82    0.45
  -2   2  -9    7.45    0.40
  -2   2  -9    6.51    0.27
   2  -2   9    7.39    0.44
   2  -2   9    7.46    0.39
   2  -2   9    7.48    0.29
   2  -2   9    7.35    0.30
  -3   2  -9    0.02    0.07
  -3   2  -9    0.04    0.08
   3  -2   9    0.03    0.06
   3  -2   9   -0.09    0.08
   4  -2   9    3.32    0.37
   4  -2   9    3.76    0.27
   5  -2   9    1.79    0.24
   6  -2   9    1.91    0.26
   5   1  -9    0.25    0.12
   4   1  -9   -0.02    0.08
  -4  -1   9    0.00    0.10
   3   1  -9    4.03    0.32
   3   1  -9    4.03    0.21
  -3  -1   9    4.95    0.35
   2   1  -9    1.22    0.19
   2   1  -9    1.64    0.12
   2   1  -9    1.42    0.21
   2   1  -9    1.55    0.18
   2   1  -9    2.17    0.27
  -2  -1   9    1.36    0.21
  -2  -1   9    1.70    0.23
  -2  -1   9    1.55    0.08
  -2  -1   9    1.51    0.21
   1   1  -9    5.12    0.33
   1   1  -9    5.07    0.21
   1   1  -9    5.00    0.32
   1   1  -9    5.08    0.26
   1   1  -9    5.64    0.37
  -1  -1   9    4.95    0.23
  -1  -1   9    4.87    0.32
  -1  -1   9    5.12    0.32
  -1  -1   9    5.20    0.21
  -1  -1   9    4.55    0.31
  -1  -1   9    5.12    0.21
  -1  -1   9    5.51    0.31
   0   1  -9    6.11    0.39
   0   1  -9    5.97    0.28
   0   1  -9    5.63    0.27
   0   1  -9    5.83    0.34
   0   1  -9    6.00    0.32
   0  -1   9    5.90    0.31
   0  -1   9    5.93    0.33
   0  -1   9    6.19    0.37
   0  -1   9    6.16    0.32
   0  -1   9    5.76    0.24
  -1   1  -9   38.56    0.98
  -1   1  -9   38.51    1.16
  -1   1  -9   38.57    1.20
  -1   1  -9   37.65    1.30
   1  -1   9   38.04    1.27
   1  -1   9   36.90    1.19
   1  -1   9   37.96    1.28
   1  -1   9   36.71    0.98
   1  -1   9   37.54    1.12
  -2   1  -9   36.76    1.26
  -2   1  -9   38.36    1.19
  -2   1  -9   34.43    1.03
  -2   1  -9   36.59    1.18
   2  -1   9   36.98    0.95
   2  -1   9   35.88    1.15
   2  -1   9   35.28    1.25
   2  -1   9   35.79    1.05
  -3   1  -9    0.56    0.15
  -3   1  -9    0.52    0.11
  -3   1  -9    0.41    0.13
   3  -1   9    0.54    0.12
  -4   1  -9    0.04    0.09
   4  -1   9   -0.03    0.06
   5  -1   9    0.09    0.07
   6  -1   9    0.68    0.15
   5   0  -9    0.86    0.21
   4   0  -9    0.11    0.12
   3   0  -9   17.70    0.76
   3   0  -9   17.67    0.55
  -3   0   9   17.03    0.72
   2   0  -9    2.68    0.16
   2   0  -9    2.28    0.28
   2   0  -9    2.61    0.23
   2   0  -9    2.68    0.29
   2   0  -9    2.38    0.28
  -2   0   9    2.51    0.27
  -2   0   9    2.35    0.11
  -2   0   9    2.39    0.26
  -2   0   9    2.36    0.28
   1   0  -9   -0.03    0.05
   1   0  -9    0.07    0.05
   1   0  -9    0.09    0.04
   1   0  -9    0.07    0.06
   1   0  -9   -0.04    0.07
  -1   0   9    0.08    0.07
  -1   0   9    0.09    0.04
  -1   0   9    0.02    0.05
  -1   0   9    0.11    0.07
  -1   0   9    0.11    0.05
   0   0  -9    0.79    0.13
   0   0  -9    1.13    0.13
   0   0  -9    1.12    0.14
   0   0  -9    1.13    0.17
   0   0  -9    1.04    0.18
   0   0   9    1.20    0.11
   0   0   9    1.01    0.17
   0   0   9    1.06    0.14
   0   0   9    1.02    0.15
   0   0   9    0.96    0.15
  -1   0  -9   20.36    0.81
  -1   0  -9   19.75    0.71
  -1   0  -9   20.30    0.72
  -1   0  -9   20.23    0.56
  -1   0  -9   20.51    0.69
   1   0   9   19.80    0.77
   1   0   9   19.79    0.70
   1   0   9   20.74    0.58
   1   0   9   21.16    0.74
  -2   0  -9   42.73    1.39
  -2   0  -9   39.30    1.29
  -2   0  -9   43.59    1.31
  -2   0  -9   40.00    1.18
   2   0   9   40.97    1.04
   2   0   9   41.00    1.20
   2   0   9   41.93    1.28
  -3   0  -9    2.83    0.24
  -3   0  -9    3.05    0.20
  -3   0  -9    2.69    0.30
  -3   0  -9    2.85    0.19
   3   0   9    3.22    0.20
   3   0   9    2.81    0.21
  -4   0  -9    0.00    0.10
   4   0   9   -0.01    0.04
  -5   0  -9   -0.04    0.12
   5   0   9    0.00    0.06
   6   0   9   -0.07    0.06
   5  -1  -9    0.13    0.13
   4  -1  -9   -0.06    0.09
   3  -1  -9    1.11    0.13
   3  -1  -9    0.62    0.16
  -3   1   9    0.60    0.14
   2  -1  -9   24.23    0.69
   2  -1  -9   22.40    0.72
   2  -1  -9   24.93    0.77
   2  -1  -9   23.94    0.91
  -2   1   9   23.59    0.85
  -2   1   9   24.82    0.86
  -2   1   9   23.39    0.63
   1  -1  -9    6.52    0.29
   1  -1  -9    6.69    0.31
   1  -1  -9    6.48    0.37
   1  -1  -9    7.02    0.30
   1  -1  -9    6.50    0.26
  -1   1   9    7.13    0.44
  -1   1   9    7.05    0.39
  -1   1   9    6.89    0.38
  -1   1   9    7.14    0.39
  -1   1   9    7.32    0.29
  -1   1   9    6.40    0.26
   0  -1  -9    0.09    0.05
   0  -1  -9    0.04    0.06
   0  -1  -9    0.05    0.05
   0  -1  -9    0.08    0.05
   0  -1  -9    0.06    0.05
   0  -1  -9   -0.06    0.05
   0   1   9    0.03    0.05
   0   1   9    0.00    0.03
   0   1   9    0.06    0.06
   0   1   9    0.02    0.05
  -1  -1  -9    6.92    0.41
  -1  -1  -9    7.55    0.36
  -1  -1  -9    7.60    0.36
  -1  -1  -9    8.20    0.41
  -1  -1  -9    7.45    0.25
  -1  -1  -9    7.83    0.38
   1   1   9    6.90    0.36
   1   1   9    7.78    0.28
   1   1   9    7.25    0.37
   1   1   9    7.55    0.40
  -2  -1  -9    6.83    0.33
  -2  -1  -9    7.25    0.40
  -2  -1  -9    6.96    0.40
  -2  -1  -9    7.68    0.43
   2   1   9    7.28    0.36
   2   1   9    7.09    0.35
   2   1   9    7.12    0.26
  -3  -1  -9   10.06    0.48
  -3  -1  -9   10.43    0.53
  -3  -1  -9    9.61    0.40
  -3  -1  -9    9.94    0.43
   3   1   9    9.60    0.42
   3   1   9    9.88    0.43
  -4  -1  -9    0.07    0.09
   4   1   9    0.00    0.05
  -5  -1  -9    0.36    0.15
   5   1   9    0.46    0.10
  -6  -1  -9    0.02    0.14
   6   1   9    0.32    0.10
   5  -2  -9    0.17    0.13
   4  -2  -9    0.01    0.10
   3  -2  -9   -0.03    0.07
   3  -2  -9    0.05    0.09
   2  -2  -9   92.34    2.38
   2  -2  -9   87.57    2.64
   2  -2  -9   86.97    2.28
   2  -2  -9   93.67    2.57
   2  -2  -9   90.24    2.23
  -2   2   9   90.77    2.50
  -2   2   9   89.46    2.14
  -2   2   9   88.17    2.53
   1  -2  -9   18.04    0.77
   1  -2  -9   20.16    0.77
   1  -2  -9   20.87    0.72
   1  -2  -9   20.33    0.61
   1  -2  -9   22.04    0.88
   1  -2  -9   19.01    0.65
   1  -2  -9   21.78    0.69
  -1   2   9   21.77    0.80
  -1   2   9   20.88    0.77
  -1   2   9   20.47    0.60
  -1   2   9   20.93    0.80
  -1   2   9   21.13    0.70
  -1   2   9   21.67    0.89
   0  -2  -9    0.54    0.11
   0  -2  -9    0.67    0.13
   0  -2  -9    0.67    0.09
   0  -2  -9    0.96    0.18
   0  -2  -9    0.57    0.12
   0  -2  -9    0.58    0.11
   0   2   9    0.75    0.09
   0   2   9    0.68    0.14
   0   2   9    0.26    0.09
  -1  -2  -9    2.24    0.24
  -1  -2  -9    2.91    0.24
  -1  -2  -9    2.69    0.20
  -1  -2  -9    2.44    0.24
  -1  -2  -9    2.58    0.28
  -1  -2  -9    2.48    0.12
   1   2   9    2.75    0.26
   1   2   9    2.84    0.24
   1   2   9    2.79    0.22
   1   2   9    2.52    0.15
  -2  -2  -9    0.11    0.08
  -2  -2  -9    0.14    0.08
  -2  -2  -9    0.09    0.09
  -2  -2  -9    0.17    0.07
   2   2   9    0.16    0.07
   2   2   9    0.12    0.07
   2   2   9    0.11    0.04
  -3  -2  -9   19.64    0.65
  -3  -2  -9   18.56    0.74
  -3  -2  -9   19.95    0.80
  -3  -2  -9   19.60    0.86
  -3  -2  -9   18.31    0.70
   3   2   9   18.38    0.69
   3   2   9   18.50    0.68
  -4  -2  -9   -0.07    0.08
  -4  -2  -9   -0.07    0.06
   4   2   9    0.01    0.05
   4   2   9   -0.09    0.07
   4   2   9    0.04    0.08
  -5  -2  -9    0.53    0.18
   5   2   9    0.42    0.10
  -6  -2  -9    0.73    0.23
   6   2   9    0.93    0.14
   5  -3  -9    1.60    0.30
   4  -3  -9    0.44    0.16
   3  -3  -9    0.02    0.08
   3  -3  -9   -0.02    0.07
   2  -3  -9    1.03    0.15
   2  -3  -9    0.90    0.15
   2  -3  -9    1.07    0.14
   2  -3  -9    0.94    0.19
  -2   3   9    1.19    0.12
   1  -3  -9    3.11    0.21
   1  -3  -9    3.23    0.18
   1  -3  -9    3.61    0.24
   1  -3  -9    3.20    0.23
   1  -3  -9    2.90    0.29
   1  -3  -9    4.05    0.33
  -1   3   9    3.10    0.31
  -1   3   9    3.47    0.33
  -1   3   9    3.04    0.18
  -1   3   9    3.14    0.22
  -1   3   9    2.82    0.24
  -1   3   9    3.41    0.37
   0  -3  -9   17.09    0.54
   0  -3  -9   17.67    0.70
   0  -3  -9   18.21    0.69
   0  -3  -9   18.12    0.78
   0  -3  -9   16.20    0.66
   0  -3  -9   17.04    0.64
   0   3   9   17.12    0.67
   0   3   9   17.39    0.54
   0   3   9   17.55    0.70
  -1  -3  -9    2.01    0.24
  -1  -3  -9    1.61    0.23
  -1  -3  -9    1.60    0.22
  -1  -3  -9    1.33    0.08
  -1  -3  -9    1.30    0.18
   1   3   9    1.69    0.21
   1   3   9    2.02    0.23
   1   3   9    1.49    0.13
  -2  -3  -9    3.37    0.35
  -2  -3  -9    3.46    0.27
  -2  -3  -9    3.00    0.24
  -2  -3  -9    3.19    0.32
   2   3   9    3.51    0.26
   2   3   9    3.12    0.24
  -3  -3  -9    4.31    0.36
  -3  -3  -9    4.47    0.34
  -3  -3  -9    3.63    0.28
  -3  -3  -9    3.77    0.29
   3   3   9    3.74    0.25
   3   3   9    4.49    0.30
  -4  -3  -9    3.14    0.39
  -4  -3  -9    2.84    0.35
   4   3   9    3.74    0.25
  -5  -3  -9    0.07    0.13
   5   3   9    0.04    0.06
  -6  -3  -9    0.12    0.15
   6   3   9    0.12    0.07
   4  -4  -9    1.91    0.31
   3  -4  -9    1.60    0.26
   3  -4  -9    1.59    0.22
   2  -4  -9    3.12    0.20
   2  -4  -9    3.45    0.36
   2  -4  -9    2.89    0.28
   2  -4  -9    3.10    0.27
  -2   4   9    3.26    0.19
   1  -4  -9   11.10    0.53
   1  -4  -9   12.22    0.65
   1  -4  -9   10.68    0.40
   1  -4  -9   10.35    0.44
   1  -4  -9   11.30    0.51
   1  -4  -9   11.67    0.56
  -1   4   9   11.89    0.42
   0  -4  -9    4.66    0.23
   0  -4  -9    4.53    0.32
   0  -4  -9    4.82    0.31
   0  -4  -9    4.84    0.38
   0  -4  -9    4.54    0.30
   0   4   9    4.48    0.23
  -1  -4  -9    0.08    0.07
  -1  -4  -9    0.09    0.03
  -1  -4  -9    0.01    0.07
  -1  -4  -9    0.23    0.10
   1   4   9    0.02    0.07
   1   4   9    0.00    0.08
   1   4   9    0.09    0.05
  -2  -4  -9    3.03    0.33
  -2  -4  -9    3.04    0.31
  -2  -4  -9    2.64    0.32
   2   4   9    3.17    0.26
  -3  -4  -9    7.69    0.44
  -3  -4  -9    8.92    0.52
  -3  -4  -9    8.24    0.54
   3   4   9    8.31    0.43
  -4  -4  -9    0.14    0.13
   4   4   9    0.01    0.06
  -5  -4  -9    0.01    0.11
   5   4   9    0.08    0.07
  -6  -4  -9    0.30    0.19
   6   4   9   -0.03    0.07
   4  -5  -9    1.49    0.29
   3  -5  -9    0.76    0.20
   3  -5  -9    0.44    0.13
   2  -5  -9    0.97    0.13
   2  -5  -9    0.71    0.16
   2  -5  -9    0.57    0.13
   2  -5  -9    1.16    0.23
  -2   5   9    0.86    0.12
   1  -5  -9    0.07    0.09
   1  -5  -9    0.00    0.05
   1  -5  -9    0.03    0.08
   1  -5  -9   -0.02    0.08
   1  -5  -9   -0.03    0.05
  -1   5   9    0.05    0.06
   0  -5  -9    5.83    0.42
   0  -5  -9    4.99    0.25
   0  -5  -9    5.04    0.35
   0  -5  -9    5.88    0.39
   0   5   9    4.61    0.25
   0   5   9    5.35    0.39
  -1  -5  -9    1.01    0.08
  -1  -5  -9    0.97    0.21
  -1  -5  -9    1.26    0.21
  -1  -5  -9    0.83    0.18
   1   5   9    1.22    0.20
   1   5   9    1.06    0.13
  -2  -5  -9    0.52    0.16
  -2  -5  -9    0.52    0.15
  -2  -5  -9    0.39    0.13
   2   5   9    0.52    0.14
  -3  -5  -9    4.52    0.46
  -3  -5  -9    5.11    0.42
   3   5   9    5.29    0.34
  -4  -5  -9    0.80    0.21
  -4  -5  -9    0.78    0.07
   4   5   9    0.70    0.15
  -5  -5  -9    2.27    0.36
   5   5   9    1.69    0.21
  -6  -5  -9    0.31    0.17
   6   5   9   -0.03    0.08
   3  -6  -9    0.30    0.10
   3  -6  -9    0.19    0.11
   2  -6  -9    0.16    0.11
   2  -6  -9    0.02    0.07
   2  -6  -9    0.06    0.06
  -2   6   9    0.10    0.07
   1  -6  -9    5.76    0.31
   1  -6  -9    6.20    0.43
   1  -6  -9    6.08    0.41
   1  -6  -9    6.32    0.29
  -1   6   9    5.35    0.30
   0  -6  -9   13.29    0.47
   0  -6  -9   13.63    0.74
   0  -6  -9   14.02    0.66
   0  -6  -9   14.16    0.71
   0   6   9   13.36    0.69
   0   6   9   14.65    0.53
  -1  -6  -9    1.40    0.27
  -1  -6  -9    1.11    0.09
  -1  -6  -9    1.02    0.22
  -1  -6  -9    0.94    0.21
   1   6   9    1.05    0.14
   1   6   9    1.14    0.22
  -2  -6  -9   -0.09    0.06
  -2  -6  -9    0.05    0.10
   2   6   9   -0.07    0.06
  -3  -6  -9    0.06    0.11
   3   6   9    0.16    0.10
  -4  -6  -9    1.58    0.29
   4   6   9    1.91    0.25
  -5  -6  -9    1.13    0.28
   5   6   9    1.06    0.18
  -6  -6  -9   -0.06    0.17
   6   6   9   -0.07    0.09
   3  -7  -9    0.03    0.09
   3  -7  -9    0.04    0.14
   2  -7  -9    0.26    0.10
   2  -7  -9    0.13    0.13
   2  -7  -9    0.21    0.11
  -2   7   9    0.30    0.10
   1  -7  -9    0.89    0.20
   1  -7  -9    1.07    0.15
   1  -7  -9    0.96    0.13
  -1   7   9    0.71    0.14
   0  -7  -9    0.01    0.13
   0  -7  -9    0.06    0.06
   0   7   9    0.15    0.09
  -1  -7  -9    2.89    0.35
  -1  -7  -9    2.69    0.12
   1   7   9    2.65    0.34
   1   7   9    2.97    0.25
  -2  -7  -9    0.00    0.09
   2   7   9    0.15    0.12
  -3  -7  -9    0.01    0.09
   3   7   9    0.03    0.10
  -4  -7  -9    0.02    0.14
   4   7   9   -0.11    0.09
  -5  -7  -9    0.01    0.13
   5   7   9    0.15    0.12
   2  -8  -9    0.07    0.09
   2  -8  -9    0.01    0.13
  -2   8   9    0.03    0.08
   1  -8  -9    0.02    0.14
   1  -8  -9    0.02    0.07
   1  -8  -9    0.09    0.07
  -1   8   9   -0.01    0.08
   0  -8  -9    0.81    0.23
   0  -8  -9    0.81    0.12
   0   8   9    0.99    0.17
  -1  -8  -9    6.55    0.49
   1   8   9    6.32    0.36
   1   8   9    6.49    0.51
  -2  -8  -9    0.37    0.16
   2   8   9    1.03    0.24
  -3  -8  -9    0.04    0.12
   3   8   9    0.06    0.12
  -4  -8  -9    0.07    0.14
   4   8   9    0.08    0.11
  -5  -8  -9    0.01    0.15
   5   8   9    0.02    0.11
   1  -9  -9   -0.03    0.11
   1  -9  -9    0.05    0.09
  -1   9   9    0.09    0.10
   0  -9  -9   -0.02    0.06
   0  -9  -9    0.08    0.14
   0   9   9    0.01    0.09
  -1  -9  -9   -0.01    0.12
   1   9   9    0.06    0.10
  -2  -9  -9    0.03    0.13
   2   9   9    0.00    0.13
  -3  -9  -9    0.02    0.12
   3   9   9    0.04    0.14
  -4  -9  -9    0.07    0.18
   4   9   9    0.14    0.16
  -1 -10  -9    0.19    0.16
   1  10   9   -0.02    0.10
  -2 -10  -9   -0.18    0.14
   2  10   9    0.04    0.20
   2   9 -10   -0.03    0.13
   1   9 -10    0.00    0.13
  -1  -9  10   -0.02    0.06
   0   9 -10    0.08    0.12
   0  -9  10    0.13    0.08
   0  -9  10    0.07    0.13
  -1   9 -10    0.03    0.11
   1  -9  10    0.00    0.08
   1  -9  10   -0.08    0.12
   3   8 -10    0.04    0.14
   2   8 -10    0.86    0.20
   2   8 -10    1.11    0.26
   1   8 -10    0.28    0.15
  -1  -8  10    0.39    0.08
   0   8 -10    0.20    0.12
   0  -8  10    0.17    0.09
   0  -8  10    0.33    0.14
  -1   8 -10    0.17    0.12
   1  -8  10    0.24    0.16
   1  -8  10    0.18    0.09
   2  -8  10   -0.05    0.15
   2  -8  10    0.03    0.09
   4   7 -10    0.23    0.19
   3   7 -10   -0.10    0.11
   2   7 -10    0.22    0.17
   2   7 -10    0.54    0.16
   1   7 -10    0.44    0.15
  -1  -7  10    0.47    0.09
   0   7 -10    0.33    0.13
   0  -7  10    0.18    0.08
   0  -7  10    0.05    0.10
  -1   7 -10    0.34    0.11
   1  -7  10    0.15    0.09
   1  -7  10    0.35    0.15
  -2   7 -10    0.51    0.11
   2  -7  10    0.54    0.13
   2  -7  10    0.52    0.17
   3  -7  10    0.64    0.21
   3  -7  10    0.58    0.14
   3  -7  10    0.46    0.21
   4   6 -10    0.05    0.13
   3   6 -10    0.03    0.13
   2   6 -10   -0.04    0.09
   2   6 -10    0.00    0.10
   1   6 -10    0.16    0.12
   1   6 -10    0.29    0.12
  -1  -6  10    0.16    0.06
  -1  -6  10    0.23    0.12
   0   6 -10   -0.01    0.07
   0  -6  10    0.02    0.08
   0  -6  10   -0.01    0.07
   0  -6  10    0.05    0.06
  -1   6 -10   -0.08    0.11
  -1   6 -10   -0.03    0.06
   1  -6  10   -0.06    0.05
   1  -6  10   -0.01    0.08
   1  -6  10    0.08    0.11
  -2   6 -10    1.50    0.14
   2  -6  10    1.31    0.24
   2  -6  10    1.71    0.29
   2  -6  10    1.29    0.18
   3  -6  10    1.47    0.27
   3  -6  10    0.95    0.25
   3  -6  10    1.38    0.20
   4  -6  10    1.64    0.30
   4  -6  10    1.60    0.33
   5   5 -10    0.05    0.14
   4   5 -10    0.32    0.17
   3   5 -10    1.76    0.28
   2   5 -10    0.11    0.10
   2   5 -10   -0.10    0.08
   1   5 -10    1.03    0.22
   1   5 -10    1.12    0.18
  -1  -5  10    1.32    0.20
  -1  -5  10    1.10    0.12
   0   5 -10    2.12    0.24
   0   5 -10    2.15    0.29
   0   5 -10    2.02    0.24
   0  -5  10    2.08    0.27
   0  -5  10    1.78    0.23
   0  -5  10    2.24    0.27
   0  -5  10    1.98    0.19
   0  -5  10    1.90    0.26
  -1   5 -10    0.10    0.12
  -1   5 -10    0.03    0.06
  -1   5 -10    0.05    0.10
   1  -5  10   -0.03    0.08
   1  -5  10   -0.02    0.09
   1  -5  10   -0.05    0.04
   1  -5  10    0.10    0.09
   1  -5  10    0.07    0.10
  -2   5 -10   -0.02    0.11
  -2   5 -10    0.00    0.04
   2  -5  10    0.07    0.07
   2  -5  10    0.05    0.07
   2  -5  10    0.01    0.10
   3  -5  10    1.19    0.24
   3  -5  10    0.94    0.21
   4  -5  10    1.44    0.26
   5   4 -10    0.18    0.15
   4   4 -10    0.15    0.13
   3   4 -10    0.72    0.19
   2   4 -10    0.93    0.20
   2   4 -10    0.78    0.15
   1   4 -10    5.82    0.37
   1   4 -10    5.84    0.33
   1   4 -10    5.56    0.40
  -1  -4  10    5.91    0.40
  -1  -4  10    6.00    0.38
  -1  -4  10    5.33    0.24
  -1  -4  10    6.20    0.34
   0   4 -10    6.87    0.38
   0   4 -10    7.55    0.50
   0   4 -10    7.05    0.46
   0   4 -10    7.64    0.38
   0   4 -10    8.07    0.48
   0  -4  10    7.59    0.43
   0  -4  10    7.55    0.32
   0  -4  10    7.21    0.43
   0  -4  10    8.28    0.49
   0  -4  10    8.03    0.41
   0  -4  10    8.46    0.47
  -1   4 -10    1.62    0.17
  -1   4 -10    2.03    0.27
  -1   4 -10    1.62    0.27
   1  -4  10    1.37    0.22
   1  -4  10    1.85    0.18
   1  -4  10    0.99    0.20
   1  -4  10    1.42    0.23
   1  -4  10    1.59    0.23
  -2   4 -10   -0.01    0.07
  -2   4 -10    0.14    0.12
   2  -4  10    0.08    0.08
   2  -4  10    0.16    0.11
   2  -4  10    0.14    0.12
   2  -4  10    0.02    0.05
   2  -4  10    0.17    0.10
   3  -4  10    4.49    0.35
   3  -4  10    4.68    0.37
   4  -4  10    1.73    0.26
   5  -4  10    1.40    0.25
   5   3 -10   -0.01    0.11
   4   3 -10    1.27    0.24
   3   3 -10    0.04    0.10
   2   3 -10    0.65    0.16
   2   3 -10    0.90    0.15
  -2  -3  10    0.59    0.15
  -2  -3  10    0.65    0.06
   1   3 -10    3.36    0.32
   1   3 -10    4.04    0.41
   1   3 -10    4.28    0.33
   1   3 -10    3.90    0.26
  -1  -3  10    3.99    0.32
  -1  -3  10    3.74    0.18
  -1  -3  10    4.06    0.32
  -1  -3  10    3.88    0.20
  -1  -3  10    3.85    0.24
  -1  -3  10    3.04    0.31
   0   3 -10   20.60    0.89
   0   3 -10   19.40    0.67
   0   3 -10   20.26    0.83
   0   3 -10   20.23    0.74
   0   3 -10   21.44    0.85
   0  -3  10   20.13    0.79
   0  -3  10   20.05    0.74
   0  -3  10   19.96    0.61
   0  -3  10   19.34    0.79
   0  -3  10   19.41    0.83
   0  -3  10   19.25    0.77
  -1   3 -10   26.41    0.83
  -1   3 -10   24.98    0.77
  -1   3 -10   28.22    1.07
  -1   3 -10   25.04    0.98
   1  -3  10   25.20    0.76
   1  -3  10   25.57    0.95
   1  -3  10   26.75    0.95
   1  -3  10   26.64    0.84
   1  -3  10   24.93    1.00
  -2   3 -10    0.06    0.10
  -2   3 -10    0.01    0.08
   2  -3  10    0.06    0.06
   2  -3  10    0.05    0.09
   2  -3  10    0.00    0.05
  -3   3 -10    0.04    0.09
   3  -3  10    0.42    0.15
   3  -3  10    0.17    0.10
   4  -3  10    0.04    0.08
   4  -3  10    0.06    0.13
   5  -3  10    0.52    0.15
   5   2 -10    0.10    0.13
   4   2 -10    6.72    0.46
   3   2 -10    2.68    0.18
   3   2 -10    2.70    0.31
  -3  -2  10    2.94    0.35
   2   2 -10   -0.06    0.06
   2   2 -10   -0.04    0.07
  -2  -2  10    0.02    0.02
  -2  -2  10    0.02    0.08
   1   2 -10    0.05    0.07
   1   2 -10    0.09    0.08
   1   2 -10    0.19    0.11
   1   2 -10    0.04    0.06
  -1  -2  10    0.16    0.06
  -1  -2  10    0.13    0.08
  -1  -2  10    0.25    0.11
  -1  -2  10    0.11    0.04
  -1  -2  10    0.24    0.09
  -1  -2  10    0.13    0.07
  -1  -2  10    0.25    0.11
  -1  -2  10    0.14    0.09
   0   2 -10    9.56    0.45
   0   2 -10    9.84    0.40
   0   2 -10    9.80    0.55
   0   2 -10   10.81    0.52
   0  -2  10   10.12    0.36
   0  -2  10    9.53    0.49
   0  -2  10    9.73    0.46
   0  -2  10   10.48    0.54
   0  -2  10   10.60    0.49
   0  -2  10    8.97    0.45
  -1   2 -10   44.95    1.20
  -1   2 -10   46.53    1.58
  -1   2 -10   45.41    1.32
  -1   2 -10   46.63    1.38
  -1   2 -10   46.16    1.50
   1  -2  10   44.95    1.52
   1  -2  10   46.47    1.34
   1  -2  10   46.17    1.46
   1  -2  10   45.31    1.19
  -2   2 -10    0.67    0.10
  -2   2 -10    0.36    0.11
  -2   2 -10    0.78    0.17
  -2   2 -10    0.35    0.12
   2  -2  10    0.69    0.11
   2  -2  10    0.44    0.12
   2  -2  10    0.75    0.18
   2  -2  10    0.74    0.11
  -3   2 -10    1.07    0.17
   3  -2  10    0.88    0.20
   3  -2  10    1.03    0.17
   4  -2  10    0.41    0.17
   4  -2  10    0.45    0.13
   5  -2  10    0.16    0.11
   5   1 -10    0.03    0.11
   4   1 -10    0.32    0.15
   3   1 -10    5.53    0.39
   3   1 -10    5.96    0.27
  -3  -1  10    6.29    0.41
   2   1 -10    5.54    0.37
   2   1 -10    5.87    0.31
  -2  -1  10    5.41    0.36
  -2  -1  10    5.35    0.36
  -2  -1  10    5.26    0.19
   1   1 -10    0.18    0.06
   1   1 -10    0.14    0.08
   1   1 -10    0.37    0.11
   1   1 -10    0.23    0.08
   1   1 -10   -0.04    0.08
  -1  -1  10    0.18    0.08
  -1  -1  10    0.23    0.11
  -1  -1  10    0.13    0.05
  -1  -1  10    0.10    0.07
  -1  -1  10    0.14    0.06
  -1  -1  10    0.29    0.06
  -1  -1  10    0.15    0.09
  -1  -1  10    0.07    0.08
   0   1 -10    1.92    0.23
   0   1 -10    1.44    0.19
   0   1 -10    1.75    0.25
   0   1 -10    1.62    0.17
   0   1 -10    1.58    0.17
   0  -1  10    1.48    0.20
   0  -1  10    1.48    0.19
   0  -1  10    1.73    0.19
   0  -1  10    1.44    0.22
   0  -1  10    1.68    0.12
  -1   1 -10    3.31    0.23
  -1   1 -10    3.99    0.26
  -1   1 -10    4.12    0.28
  -1   1 -10    3.95    0.32
  -1   1 -10    3.61    0.19
   1  -1  10    2.98    0.32
   1  -1  10    3.90    0.19
   1  -1  10    4.08    0.25
   1  -1  10    3.62    0.26
  -2   1 -10    4.69    0.25
  -2   1 -10    4.42    0.31
  -2   1 -10    4.47    0.31
  -2   1 -10    4.98    0.36
   2  -1  10    4.89    0.22
   2  -1  10    4.35    0.34
   2  -1  10    5.06    0.27
   2  -1  10    4.83    0.31
  -3   1 -10    0.17    0.11
  -3   1 -10    0.21    0.09
  -3   1 -10    0.13    0.10
   3  -1  10    0.19    0.08
  -4   1 -10    2.65    0.20
  -4   1 -10    2.43    0.33
   4  -1  10    2.94    0.24
   5  -1  10    1.08    0.18
   6  -1  10   -0.01    0.09
   5   0 -10   -0.02    0.11
   4   0 -10    0.01    0.10
   3   0 -10   31.75    0.89
   3   0 -10   30.42    1.15
  -3   0  10   30.37    1.10
   2   0 -10   15.89    0.50
   2   0 -10   14.73    0.67
   2   0 -10   14.11    0.55
  -2   0  10   14.92    0.43
  -2   0  10   14.77    0.65
  -2   0  10   14.74    0.65
   1   0 -10    0.06    0.05
   1   0 -10    0.08    0.06
   1   0 -10    0.01    0.08
   1   0 -10    0.00    0.04
   1   0 -10    0.00    0.06
  -1   0  10    0.15    0.08
  -1   0  10   -0.01    0.07
  -1   0  10   -0.01    0.03
  -1   0  10   -0.02    0.03
  -1   0  10    0.05    0.06
  -1   0  10    0.00    0.06
   0   0 -10    5.35    0.33
   0   0 -10    5.34    0.37
   0   0 -10    5.50    0.32
   0   0 -10    5.64    0.28
   0   0 -10    4.70    0.25
   0   0  10    5.13    0.32
   0   0  10    5.24    0.23
   0   0  10    4.85    0.34
   0   0  10    5.03    0.31
   0   0  10    5.51    0.30
  -1   0 -10    4.55    0.20
  -1   0 -10    4.47    0.28
  -1   0 -10    4.58    0.27
  -1   0 -10    4.55    0.28
  -1   0 -10    4.94    0.35
   1   0  10    4.35    0.28
   1   0  10    4.70    0.30
   1   0  10    4.26    0.21
   1   0  10    3.97    0.32
  -2   0 -10   29.19    1.08
  -2   0 -10   28.83    0.99
  -2   0 -10   29.71    1.01
  -2   0 -10   27.71    0.89
   2   0  10   28.58    0.98
   2   0  10   28.10    0.92
   2   0  10   29.21    0.78
  -3   0 -10    0.03    0.06
  -3   0 -10    0.07    0.08
  -3   0 -10   -0.03    0.05
  -3   0 -10   -0.06    0.06
   3   0  10   -0.08    0.05
   3   0  10    0.02    0.06
  -4   0 -10    2.77    0.18
  -4   0 -10    2.41    0.32
   4   0  10    2.87    0.23
  -5   0 -10    3.15    0.41
   5   0  10    3.51    0.26
  -6   0 -10    0.92    0.26
   6   0  10    0.61    0.14
   5  -1 -10    0.10    0.12
   4  -1 -10   -0.02    0.08
   3  -1 -10    0.71    0.15
   3  -1 -10    0.80    0.12
   3  -1 -10    0.61    0.17
  -3   1  10    0.63    0.16
   2  -1 -10    0.00    0.06
   2  -1 -10   -0.02    0.07
   2  -1 -10    0.02    0.04
  -2   1  10    0.05    0.07
  -2   1  10    0.00    0.03
  -2   1  10   -0.01    0.08
   1  -1 -10   11.47    0.45
   1  -1 -10   11.88    0.46
   1  -1 -10   11.30    0.54
   1  -1 -10   12.59    0.45
   1  -1 -10   12.09    0.62
  -1   1  10   11.91    0.56
  -1   1  10   11.26    0.55
  -1   1  10   12.35    0.56
  -1   1  10   11.82    0.44
  -1   1  10   12.65    0.64
  -1   1  10   11.26    0.39
   0  -1 -10    4.63    0.30
   0  -1 -10    4.90    0.31
   0  -1 -10    4.88    0.24
   0  -1 -10    4.68    0.35
   0  -1 -10    4.96    0.29
   0  -1 -10    4.99    0.28
   0   1  10    5.24    0.32
   0   1  10    5.08    0.22
   0   1  10    4.88    0.32
   0   1  10    5.65    0.35
   0   1  10    4.57    0.28
  -1  -1 -10   15.81    0.62
  -1  -1 -10   16.87    0.72
  -1  -1 -10   14.80    0.65
  -1  -1 -10   16.63    0.62
  -1  -1 -10   15.32    0.61
  -1  -1 -10   15.69    0.46
   1   1  10   17.22    0.64
   1   1  10   15.17    0.63
   1   1  10   15.46    0.49
  -2  -1 -10    5.44    0.38
  -2  -1 -10    5.47    0.35
  -2  -1 -10    5.37    0.30
  -2  -1 -10    5.51    0.37
   2   1  10    6.03    0.24
   2   1  10    5.25    0.31
   2   1  10    5.51    0.32
  -3  -1 -10   11.21    0.47
  -3  -1 -10    9.72    0.45
  -3  -1 -10   11.22    0.57
  -3  -1 -10   10.47    0.53
   3   1  10   11.41    0.48
   3   1  10   10.48    0.48
  -4  -1 -10    0.10    0.10
  -4  -1 -10    0.08    0.04
   4   1  10    0.03    0.06
  -5  -1 -10    0.44    0.17
   5   1  10    0.49    0.11
  -6  -1 -10    0.41    0.19
   6   1  10    0.81    0.14
   5  -2 -10    0.11    0.14
   4  -2 -10    0.39    0.16
   3  -2 -10    1.24    0.23
   3  -2 -10    1.79    0.23
   3  -2 -10    1.51    0.17
   2  -2 -10    0.18    0.08
   2  -2 -10    0.30    0.08
   2  -2 -10    0.47    0.15
  -2   2  10    0.24    0.11
  -2   2  10    0.33    0.11
  -2   2  10    0.20    0.06
   1  -2 -10    1.67    0.25
   1  -2 -10    1.75    0.18
   1  -2 -10    1.96    0.25
   1  -2 -10    1.98    0.20
   1  -2 -10    2.02    0.14
   1  -2 -10    1.66    0.18
  -1   2  10    1.65    0.26
  -1   2  10    1.81    0.24
  -1   2  10    1.93    0.14
  -1   2  10    1.96    0.16
  -1   2  10    2.10    0.25
   0  -2 -10    1.16    0.18
   0  -2 -10    0.88    0.15
   0  -2 -10    1.04    0.16
   0  -2 -10    1.00    0.19
   0  -2 -10    1.04    0.12
   0  -2 -10    1.11    0.17
   0   2  10    0.79    0.10
   0   2  10    0.74    0.15
   0   2  10    0.58    0.14
  -1  -2 -10    5.66    0.33
  -1  -2 -10    5.79    0.37
  -1  -2 -10    5.59    0.39
  -1  -2 -10    5.50    0.33
  -1  -2 -10    5.90    0.21
   1   2  10    5.85    0.35
   1   2  10    5.81    0.25
   1   2  10    5.49    0.34
  -2  -2 -10   26.60    0.97
  -2  -2 -10   27.28    1.05
  -2  -2 -10   27.16    1.02
  -2  -2 -10   26.08    0.90
   2   2  10   26.52    0.73
   2   2  10   26.00    0.93
   2   2  10   27.45    0.93
  -3  -2 -10    0.22    0.10
  -3  -2 -10    0.01    0.09
  -3  -2 -10    0.10    0.10
  -3  -2 -10    0.23    0.10
   3   2  10    0.13    0.08
   3   2  10    0.05    0.08
  -4  -2 -10   -0.01    0.07
  -4  -2 -10    0.05    0.03
  -4  -2 -10    0.04    0.09
   4   2  10    0.00    0.07
   4   2  10    0.05    0.06
  -5  -2 -10    0.15    0.13
   5   2  10    0.07    0.07
  -6  -2 -10    0.28    0.18
   6   2  10    0.23    0.10
   5  -3 -10    0.25    0.17
   4  -3 -10   -0.14    0.10
   3  -3 -10    0.74    0.13
   3  -3 -10    1.09    0.23
   3  -3 -10    1.15    0.19
   2  -3 -10    0.26    0.09
   2  -3 -10    0.39    0.14
   2  -3 -10    0.32    0.10
   2  -3 -10    0.17    0.07
  -2   3  10    0.33    0.08
   1  -3 -10    9.98    0.57
   1  -3 -10    9.53    0.36
   1  -3 -10    9.75    0.46
   1  -3 -10    9.18    0.50
   1  -3 -10    9.38    0.40
   1  -3 -10    9.19    0.43
  -1   3  10    9.48    0.52
  -1   3  10    9.99    0.49
  -1   3  10    9.55    0.36
  -1   3  10    9.45    0.44
   0  -3 -10    0.67    0.14
   0  -3 -10    0.38    0.08
   0  -3 -10    0.48    0.12
   0  -3 -10    0.52    0.12
   0  -3 -10    0.35    0.13
   0   3  10    0.41    0.13
   0   3  10    0.32    0.11
   0   3  10    0.50    0.09
  -1  -3 -10    0.98    0.18
  -1  -3 -10    0.84    0.16
  -1  -3 -10    0.85    0.18
  -1  -3 -10    0.55    0.13
  -1  -3 -10    0.79    0.08
   1   3  10    0.77    0.10
   1   3  10    0.76    0.15
   1   3  10    0.76    0.16
  -2  -3 -10   16.52    0.75
  -2  -3 -10   14.72    0.63
  -2  -3 -10   15.08    0.68
  -2  -3 -10   15.85    0.70
   2   3  10   15.14    0.64
   2   3  10   15.86    0.66
  -3  -3 -10    1.47    0.21
  -3  -3 -10    0.84    0.20
  -3  -3 -10    1.20    0.23
   3   3  10    1.03    0.16
  -4  -3 -10    3.75    0.41
   4   3  10    3.98    0.27
  -5  -3 -10    0.31    0.15
   5   3  10    0.56    0.12
  -6  -3 -10    0.35    0.20
   6   3  10    0.04    0.08
   4  -4 -10   -0.10    0.12
   3  -4 -10    0.28    0.11
   3  -4 -10    0.36    0.09
   3  -4 -10    0.15    0.12
   2  -4 -10    4.51    0.31
   2  -4 -10    4.91    0.38
   2  -4 -10    4.61    0.29
   2  -4 -10    4.80    0.26
  -2   4  10    4.94    0.24
   1  -4 -10   27.88    0.80
   1  -4 -10   26.04    1.03
   1  -4 -10   28.79    0.97
   1  -4 -10   26.27    0.85
   1  -4 -10   29.26    1.02
  -1   4  10   26.70    0.81
   0  -4 -10    4.61    0.33
   0  -4 -10    4.33    0.31
   0  -4 -10    5.08    0.39
   0  -4 -10    4.28    0.23
   0   4  10    4.33    0.23
   0   4  10    4.63    0.34
  -1  -4 -10    0.02    0.06
  -1  -4 -10    0.03    0.02
  -1  -4 -10   -0.03    0.06
  -1  -4 -10   -0.01    0.07
   1   4  10    0.03    0.05
   1   4  10    0.05    0.07
  -2  -4 -10    0.01    0.07
  -2  -4 -10   -0.01    0.07
  -2  -4 -10    0.04    0.08
   2   4  10    0.01    0.07
  -3  -4 -10    5.78    0.42
  -3  -4 -10    5.28    0.44
   3   4  10    5.87    0.36
  -4  -4 -10    5.97    0.45
  -4  -4 -10    5.92    0.22
  -4  -4 -10    5.62    0.22
   4   4  10    5.58    0.35
  -5  -4 -10    0.11    0.13
   5   4  10    0.12    0.09
  -6  -4 -10    0.28    0.18
   6   4  10    0.14    0.10
   4  -5 -10    0.02    0.15
   3  -5 -10    1.61    0.23
   3  -5 -10    1.73    0.30
   3  -5 -10    1.55    0.20
   2  -5 -10    2.26    0.28
   2  -5 -10    2.28    0.21
   2  -5 -10    2.01    0.23
  -2   5  10    2.35    0.20
   1  -5 -10    0.03    0.06
   1  -5 -10    0.16    0.11
   1  -5 -10    0.29    0.07
   1  -5 -10    0.22    0.12
  -1   5  10    0.15    0.07
   0  -5 -10    3.85    0.38
   0  -5 -10    3.60    0.40
   0  -5 -10    2.97    0.19
   0  -5 -10    2.89    0.31
   0   5  10    3.20    0.21
   0   5  10    3.13    0.36
  -1  -5 -10    0.03    0.03
  -1  -5 -10    0.03    0.08
  -1  -5 -10    0.03    0.10
  -1  -5 -10   -0.02    0.07
   1   5  10    0.05    0.07
   1   5  10   -0.02    0.05
  -2  -5 -10    0.78    0.19
  -2  -5 -10    0.91    0.20
  -2  -5 -10    0.72    0.18
   2   5  10    0.81    0.17
  -3  -5 -10    0.07    0.09
   3   5  10    0.07    0.08
  -4  -5 -10    0.53    0.18
   4   5  10    0.36    0.12
  -5  -5 -10    0.13    0.13
   5   5  10    0.01    0.08
  -6  -5 -10    0.20    0.19
   6   5  10    0.25    0.11
   3  -6 -10    0.00    0.10
   2  -6 -10    0.69    0.19
   2  -6 -10    0.37    0.10
   2  -6 -10    0.41    0.11
  -2   6  10    0.58    0.11
   1  -6 -10    0.71    0.13
   1  -6 -10    1.50    0.24
   1  -6 -10    1.37    0.24
   1  -6 -10    1.45    0.16
  -1   6  10    1.33    0.18
   0  -6 -10   10.48    0.60
   0  -6 -10    9.33    0.37
   0  -6 -10    8.95    0.52
   0   6  10    9.16    0.41
   0   6  10    9.87    0.58
  -1  -6 -10    1.12    0.24
  -1  -6 -10    1.00    0.23
  -1  -6 -10    0.74    0.18
  -1  -6 -10    0.80    0.08
   1   6  10    0.96    0.22
   1   6  10    1.03    0.15
  -2  -6 -10    1.16    0.23
   2   6  10    1.42    0.24
  -3  -6 -10    1.48    0.29
   3   6  10    1.42    0.23
  -4  -6 -10    0.11    0.14
   4   6  10    0.07    0.08
  -5  -6 -10    1.27    0.30
   5   6  10    0.94    0.19
   3  -7 -10   -0.01    0.10
   2  -7 -10    0.05    0.11
   2  -7 -10    0.01    0.09
  -2   7  10    0.02    0.07
   1  -7 -10    0.10    0.10
   1  -7 -10    0.01    0.05
   1  -7 -10   -0.04    0.06
  -1   7  10    0.05    0.07
   0  -7 -10    0.50    0.09
   0  -7 -10    0.61    0.18
   0   7  10    0.45    0.12
  -1  -7 -10    0.05    0.03
  -1  -7 -10    0.14    0.12
   1   7  10    0.09    0.12
   1   7  10    0.11    0.08
  -2  -7 -10    0.20    0.13
   2   7  10    0.50    0.18
  -3  -7 -10    0.45    0.17
   3   7  10    0.35    0.16
  -4  -7 -10    0.15    0.15
   4   7  10    0.36    0.14
  -5  -7 -10   -0.07    0.12
   5   7  10   -0.01    0.10
   2  -8 -10    0.07    0.10
   2  -8 -10   -0.01    0.13
  -2   8  10    0.07    0.09
   1  -8 -10    0.48    0.12
   1  -8 -10    0.37    0.10
   1  -8 -10    0.52    0.18
  -1   8  10    0.49    0.13
   0  -8 -10    0.20    0.15
   0  -8 -10    0.14    0.07
   0   8  10    0.17    0.10
  -1  -8 -10    0.17    0.13
   1   8  10    0.23    0.15
   1   8  10    0.02    0.09
  -2  -8 -10   -0.11    0.09
   2   8  10    0.03    0.12
  -3  -8 -10    0.04    0.14
   3   8  10    0.16    0.14
  -4  -8 -10    0.58    0.20
   4   8  10    0.20    0.15
   1  -9 -10    0.86    0.25
   0  -9 -10    0.78    0.13
   0  -9 -10    0.50    0.21
   0   9  10    0.79    0.17
  -1  -9 -10    0.17    0.13
   1   9  10    0.20    0.11
  -2  -9 -10   -0.02    0.14
   2   9  10    0.09    0.18
  -3  -9 -10    0.19    0.17
   3   9  10   -0.14    0.12
   1   9 -11    0.00    0.12
  -1  -9  11    0.03    0.06
   0   9 -11    0.03    0.11
   0  -9  11   -0.01    0.07
   3   8 -11    0.13    0.18
   2   8 -11    0.06    0.13
   1   8 -11    0.04    0.09
  -1  -8  11   -0.02    0.05
   0   8 -11   -0.02    0.10
   0  -8  11    0.05    0.07
   0  -8  11    0.13    0.14
  -1   8 -11    0.76    0.17
   1  -8  11    0.77    0.21
   1  -8  11    1.14    0.18
   2  -8  11    0.56    0.23
   2  -8  11    0.46    0.14
   4   7 -11    0.27    0.18
   3   7 -11   -0.07    0.13
   2   7 -11    0.26    0.18
   2   7 -11    0.17    0.15
   1   7 -11    1.33    0.22
  -1  -7  11    1.03    0.13
   0   7 -11    0.03    0.08
   0  -7  11   -0.05    0.09
   0  -7  11    0.02    0.06
  -1   7 -11   -0.06    0.08
   1  -7  11   -0.07    0.06
   1  -7  11   -0.17    0.09
   2  -7  11    0.19    0.16
   2  -7  11    0.63    0.15
   3  -7  11    0.39    0.19
   3  -7  11    0.49    0.15
   4   6 -11    0.02    0.15
   3   6 -11    0.16    0.14
   2   6 -11    0.97    0.20
   2   6 -11    1.03    0.25
   1   6 -11    3.08    0.31
   1   6 -11    1.75    0.32
  -1  -6  11    3.51    0.20
   0   6 -11    0.08    0.09
   0  -6  11    0.41    0.10
   0  -6  11    0.19    0.12
   0  -6  11    0.09    0.10
  -1   6 -11    0.05    0.15
  -1   6 -11    0.00    0.07
   1  -6  11    0.02    0.06
   1  -6  11   -0.02    0.09
  -2   6 -11    1.23    0.13
   2  -6  11    1.35    0.18
   2  -6  11    1.29    0.26
   2  -6  11    1.13    0.25
   2  -6  11    2.37    0.33
   3  -6  11    1.28    0.19
   3  -6  11    1.24    0.26
   4  -6  11    0.82    0.22
   5   5 -11   -0.10    0.16
   4   5 -11    0.06    0.14
   3   5 -11    0.02    0.11
   2   5 -11    0.53    0.18
   2   5 -11    0.72    0.16
   1   5 -11    4.01    0.34
  -1  -5  11    4.09    0.21
   0   5 -11    7.09    0.39
   0   5 -11    8.36    0.53
   0  -5  11    7.16    0.33
   0  -5  11    7.87    0.52
   0  -5  11    7.45    0.41
   0  -5  11    8.63    0.48
  -1   5 -11    0.07    0.16
  -1   5 -11    0.02    0.11
  -1   5 -11    0.12    0.08
   1  -5  11    0.08    0.11
   1  -5  11    0.04    0.06
   1  -5  11    0.09    0.11
   1  -5  11    0.23    0.13
   1  -5  11    0.04    0.10
  -2   5 -11    0.72    0.08
  -2   5 -11    0.72    0.21
   2  -5  11    0.80    0.20
   2  -5  11    0.84    0.19
   2  -5  11    0.85    0.14
   3  -5  11   -0.04    0.09
   3  -5  11    0.00    0.09
   4  -5  11    0.33    0.15
   5   4 -11    1.46    0.28
   4   4 -11    0.46    0.19
   3   4 -11    0.08    0.11
   2   4 -11   -0.01    0.08
   2   4 -11    0.16    0.13
  -2  -4  11    0.02    0.03
   1   4 -11    1.53    0.21
   1   4 -11    0.67    0.18
  -1  -4  11    1.37    0.14
   0   4 -11   18.55    0.69
   0   4 -11   19.83    0.94
   0   4 -11   22.33    0.90
   0  -4  11   19.44    0.80
   0  -4  11   20.12    0.77
   0  -4  11   18.52    0.62
   0  -4  11   19.41    0.86
   0  -4  11   19.66    0.83
  -1   4 -11    0.10    0.10
  -1   4 -11    0.06    0.06
  -1   4 -11    0.11    0.11
   1  -4  11    0.07    0.08
   1  -4  11   -0.02    0.07
   1  -4  11    0.25    0.13
   1  -4  11    0.27    0.12
   1  -4  11    0.16    0.07
  -2   4 -11    2.39    0.35
  -2   4 -11    2.79    0.33
   2  -4  11    2.85    0.20
   2  -4  11    2.63    0.30
   2  -4  11    2.61    0.32
   2  -4  11    2.72    0.33
   3  -4  11    2.64    0.32
   3  -4  11    2.46    0.35
   4  -4  11    0.12    0.11
   5  -4  11    0.07    0.13
   5   3 -11    0.02    0.13
   4   3 -11    0.30    0.15
   3   3 -11    0.83    0.20
   2   3 -11   -0.09    0.07
   2   3 -11   -0.02    0.08
  -2  -3  11    0.00    0.03
   1   3 -11    0.08    0.08
   1   3 -11    0.00    0.06
  -1  -3  11    0.08    0.06
  -1  -3  11    0.03    0.10
  -1  -3  11    0.04    0.04
  -1  -3  11    0.01    0.08
   0   3 -11    0.29    0.13
   0   3 -11    0.42    0.11
   0   3 -11    0.17    0.12
   0   3 -11    0.32    0.12
   0   3 -11    0.30    0.10
   0  -3  11    0.25    0.12
   0  -3  11    0.22    0.07
   0  -3  11    0.35    0.11
   0  -3  11    0.41    0.12
   0  -3  11    0.26    0.11
   0  -3  11    0.50    0.13
  -1   3 -11    0.07    0.11
  -1   3 -11    0.12    0.06
  -1   3 -11    0.04    0.07
  -1   3 -11    0.11    0.08
   1  -3  11    0.08    0.08
   1  -3  11    0.01    0.11
   1  -3  11    0.06    0.05
   1  -3  11    0.08    0.08
   1  -3  11   -0.03    0.07
  -2   3 -11    0.20    0.12
  -2   3 -11    0.22    0.11
   2  -3  11    0.31    0.08
   2  -3  11    0.46    0.16
   2  -3  11    0.29    0.11
  -3   3 -11    5.78    0.40
   3  -3  11    5.56    0.43
   3  -3  11    5.71    0.39
   4  -3  11    1.51    0.28
   4  -3  11    2.22    0.29
   5  -3  11    0.26    0.14
   5   2 -11   -0.07    0.11
   4   2 -11    6.33    0.46
   3   2 -11    3.31    0.38
   2   2 -11    0.05    0.08
   2   2 -11   -0.03    0.06
  -2  -2  11   -0.01    0.07
  -2  -2  11    0.12    0.03
  -2  -2  11    0.11    0.09
   1   2 -11    4.21    0.43
   1   2 -11    2.67    0.25
  -1  -2  11    3.03    0.20
  -1  -2  11    3.70    0.38
  -1  -2  11    3.26    0.17
  -1  -2  11    3.54    0.34
  -1  -2  11    3.18    0.33
   0   2 -11    6.30    0.44
   0   2 -11    5.87    0.39
   0   2 -11    6.33    0.32
   0   2 -11    6.68    0.37
   0  -2  11    6.53    0.41
   0  -2  11    6.34    0.43
   0  -2  11    6.28    0.36
   0  -2  11    5.92    0.36
   0  -2  11    6.97    0.40
   0  -2  11    6.23    0.27
  -1   2 -11   12.91    0.52
  -1   2 -11   12.87    0.55
  -1   2 -11   12.63    0.61
  -1   2 -11   12.35    0.66
  -1   2 -11   12.28    0.44
   1  -2  11   12.58    0.52
   1  -2  11   13.20    0.59
   1  -2  11   13.84    0.67
   1  -2  11   12.26    0.44
  -2   2 -11    0.03    0.09
  -2   2 -11    0.01    0.07
  -2   2 -11    0.02    0.07
   2  -2  11   -0.01    0.06
   2  -2  11    0.04    0.05
   2  -2  11    0.03    0.06
  -3   2 -11    4.67    0.33
   3  -2  11    4.63    0.33
   3  -2  11    4.61    0.46
   4  -2  11    6.28    0.40
   4  -2  11    5.96    0.47
   5  -2  11    1.64    0.25
   5   1 -11   -0.07    0.12
   4   1 -11    0.90    0.21
   3   1 -11    0.48    0.10
   3   1 -11    0.50    0.15
   2   1 -11    1.04    0.17
   2   1 -11    0.71    0.17
  -2  -1  11    0.52    0.15
  -2  -1  11    0.88    0.09
  -2  -1  11    0.78    0.19
   1   1 -11    2.17    0.30
   1   1 -11    1.77    0.20
  -1  -1  11    1.51    0.24
  -1  -1  11    1.47    0.14
  -1  -1  11    1.04    0.24
  -1  -1  11    1.47    0.22
   0   1 -11   19.86    0.80
   0   1 -11   19.76    0.67
   0   1 -11   20.86    0.89
   0   1 -11   19.23    0.74
   0   1 -11   20.86    0.66
   0  -1  11   19.03    0.83
   0  -1  11   19.81    0.78
   0  -1  11   19.33    0.76
   0  -1  11   20.47    0.76
   0  -1  11   19.05    0.60
  -1   1 -11    3.83    0.20
  -1   1 -11    4.22    0.27
  -1   1 -11    4.07    0.28
  -1   1 -11    4.10    0.35
   1  -1  11    3.67    0.28
   1  -1  11    3.87    0.38
   1  -1  11    4.05    0.21
   1  -1  11    3.64    0.26
  -2   1 -11   14.27    0.63
  -2   1 -11   13.51    0.67
  -2   1 -11   14.50    0.63
  -2   1 -11   12.98    0.51
   2  -1  11   13.98    0.46
   2  -1  11   13.81    0.61
   2  -1  11   13.47    0.53
   2  -1  11   14.14    0.69
  -3   1 -11    0.65    0.14
  -3   1 -11    0.10    0.11
   3  -1  11    0.20    0.09
   3  -1  11    0.28    0.14
  -4   1 -11    0.80    0.22
   4  -1  11    1.00    0.17
   5  -1  11    1.74    0.24
   6  -1  11    0.04    0.09
   5   0 -11   -0.19    0.11
   4   0 -11    0.34    0.15
   3   0 -11    0.17    0.13
   3   0 -11    0.09    0.07
  -3   0  11    0.20    0.12
   2   0 -11    0.07    0.11
   2   0 -11    0.16    0.09
   2   0 -11    0.03    0.05
  -2   0  11    0.13    0.04
  -2   0  11    0.06    0.08
   1   0 -11    1.35    0.17
   1   0 -11    1.56    0.15
   1   0 -11    1.38    0.22
   1   0 -11    1.59    0.25
  -1   0  11    1.15    0.19
  -1   0  11    1.30    0.13
  -1   0  11    1.13    0.23
  -1   0  11    1.27    0.21
   0   0 -11    4.38    0.29
   0   0 -11    4.46    0.36
   0   0 -11    4.15    0.30
   0   0 -11    4.09    0.23
   0   0 -11    4.16    0.25
   0   0  11    4.24    0.30
   0   0  11    4.07    0.27
   0   0  11    3.97    0.21
   0   0  11    4.38    0.31
   0   0  11    4.57    0.34
  -1   0 -11   26.89    0.76
  -1   0 -11   28.21    1.10
  -1   0 -11   27.93    0.93
  -1   0 -11   28.25    0.95
   1   0  11   27.26    0.99
   1   0  11   29.59    0.96
   1   0  11   30.43    1.09
   1   0  11   27.51    0.79
  -2   0 -11    3.10    0.32
  -2   0 -11    3.43    0.36
   2   0  11    3.28    0.18
   2   0  11    3.48    0.25
   2   0  11    3.51    0.27
  -3   0 -11    0.97    0.20
  -3   0 -11    0.90    0.15
   3   0  11    1.26    0.19
  -4   0 -11    0.04    0.06
  -4   0 -11   -0.06    0.09
   4   0  11    0.04    0.06
  -5   0 -11    0.02    0.14
   5   0  11    0.04    0.08
  -6   0 -11    0.29    0.18
   6   0  11    0.14    0.11
   5  -1 -11    0.19    0.15
   4  -1 -11    1.34    0.26
   3  -1 -11    0.95    0.13
   3  -1 -11    0.98    0.21
   3  -1 -11    1.14    0.19
  -3   1  11    0.90    0.19
   2  -1 -11    4.19    0.40
   2  -1 -11    4.20    0.28
   2  -1 -11    4.09    0.22
  -2   1  11    4.24    0.33
  -2   1  11    4.12    0.31
  -2   1  11    3.91    0.19
   1  -1 -11    0.22    0.11
   1  -1 -11    0.42    0.12
   1  -1 -11    0.27    0.08
   1  -1 -11    0.39    0.10
   1  -1 -11    0.34    0.08
  -1   1  11    0.24    0.10
  -1   1  11    0.42    0.08
  -1   1  11    0.23    0.12
   0  -1 -11    0.34    0.12
   0  -1 -11    0.14    0.06
   0  -1 -11    0.30    0.10
   0  -1 -11    0.36    0.12
   0  -1 -11    0.23    0.08
   0  -1 -11    0.23    0.09
   0   1  11    0.13    0.05
   0   1  11    0.35    0.12
   0   1  11    0.23    0.10
   0   1  11    0.25    0.09
   0   1  11    0.33    0.10
  -1  -1 -11   15.38    0.46
  -1  -1 -11   14.76    0.66
  -1  -1 -11   15.46    0.72
  -1  -1 -11   14.71    0.60
  -1  -1 -11   14.79    0.62
   1   1  11   15.30    0.49
   1   1  11   16.43    0.66
   1   1  11   14.84    0.63
  -2  -1 -11    0.28    0.11
  -2  -1 -11    0.06    0.09
  -2  -1 -11    0.19    0.08
   2   1  11    0.31    0.07
   2   1  11    0.14    0.07
   2   1  11    0.17    0.09
  -3  -1 -11    2.82    0.33
  -3  -1 -11    2.19    0.23
  -3  -1 -11    2.17    0.28
   3   1  11    2.77    0.27
   3   1  11    2.36    0.24
  -4  -1 -11    2.68    0.18
  -4  -1 -11    2.47    0.34
   4   1  11    2.65    0.26
  -5  -1 -11    0.77    0.22
   5   1  11    0.64    0.14
  -6  -1 -11   -0.02    0.13
   6   1  11   -0.05    0.08
   5  -2 -11   -0.09    0.12
   4  -2 -11    1.10    0.16
   4  -2 -11    1.36    0.26
   3  -2 -11    3.66    0.34
   3  -2 -11    3.27    0.22
   3  -2 -11    3.52    0.39
   2  -2 -11   15.85    0.54
   2  -2 -11   18.06    0.78
  -2   2  11   15.41    0.68
  -2   2  11   15.98    0.68
  -2   2  11   15.29    0.49
   1  -2 -11    5.06    0.41
   1  -2 -11    5.64    0.31
   1  -2 -11    5.46    0.30
   1  -2 -11    5.26    0.29
   1  -2 -11    5.07    0.37
  -1   2  11    5.05    0.24
  -1   2  11    5.29    0.36
   0  -2 -11    0.09    0.08
   0  -2 -11    0.05    0.07
   0  -2 -11    0.00    0.07
   0  -2 -11    0.04    0.04
   0  -2 -11   -0.04    0.05
   0   2  11   -0.02    0.06
   0   2  11   -0.04    0.05
   0   2  11    0.00    0.04
  -1  -2 -11    0.39    0.06
  -1  -2 -11    0.44    0.12
  -1  -2 -11    0.24    0.10
  -1  -2 -11    0.28    0.12
  -1  -2 -11    0.29    0.11
   1   2  11    0.46    0.12
   1   2  11    0.41    0.12
   1   2  11    0.48    0.08
  -2  -2 -11    4.12    0.32
  -2  -2 -11    4.96    0.36
  -2  -2 -11    4.21    0.35
  -2  -2 -11    4.37    0.29
   2   2  11    4.45    0.31
   2   2  11    4.56    0.31
  -3  -2 -11   17.84    0.84
  -3  -2 -11   16.64    0.68
  -3  -2 -11   17.77    0.78
   3   2  11   17.20    0.70
   3   2  11   17.65    0.70
  -4  -2 -11    0.78    0.21
  -4  -2 -11    0.94    0.11
   4   2  11    0.95    0.16
  -5  -2 -11    1.49    0.30
   5   2  11    1.75    0.22
  -6  -2 -11    0.46    0.21
   6   2  11    0.48    0.13
   4  -3 -11    0.95    0.24
   4  -3 -11    1.14    0.16
   3  -3 -11    3.29    0.32
   3  -3 -11    3.35    0.23
   3  -3 -11    3.22    0.39
   2  -3 -11    0.16    0.07
   2  -3 -11    0.13    0.08
   2  -3 -11    0.18    0.12
  -2   3  11    0.19    0.06
   1  -3 -11    0.16    0.06
   1  -3 -11    0.40    0.11
   1  -3 -11    0.53    0.12
   1  -3 -11    0.36    0.13
   1  -3 -11    0.31    0.09
  -1   3  11    0.47    0.09
  -1   3  11    0.35    0.13
   0  -3 -11    0.20    0.07
   0  -3 -11    0.17    0.09
   0  -3 -11    0.14    0.09
   0  -3 -11    0.05    0.10
   0   3  11    0.24    0.10
   0   3  11    0.14    0.06
  -1  -3 -11    2.26    0.12
  -1  -3 -11    2.19    0.29
  -1  -3 -11    2.00    0.26
  -1  -3 -11    2.62    0.30
   1   3  11    2.10    0.26
   1   3  11    2.13    0.15
  -2  -3 -11    1.09    0.21
  -2  -3 -11    0.96    0.20
  -2  -3 -11    1.19    0.21
   2   3  11    0.79    0.16
  -3  -3 -11    0.69    0.18
  -3  -3 -11    0.82    0.20
   3   3  11    0.92    0.16
  -4  -3 -11    0.28    0.07
  -4  -3 -11    0.34    0.16
   4   3  11    0.27    0.10
  -5  -3 -11    0.68    0.21
   5   3  11    1.05    0.18
  -6  -3 -11    0.47    0.23
   6   3  11    0.22    0.10
   4  -4 -11    0.04    0.07
   4  -4 -11   -0.06    0.11
   3  -4 -11    0.09    0.14
   3  -4 -11    0.12    0.09
   3  -4 -11    0.23    0.10
   2  -4 -11    1.09    0.17
   2  -4 -11    1.44    0.17
   2  -4 -11    2.22    0.32
  -2   4  11    1.50    0.15
   1  -4 -11    5.02    0.29
   1  -4 -11    5.06    0.35
   1  -4 -11    5.21    0.26
   1  -4 -11    4.76    0.32
  -1   4  11    4.91    0.26
  -1   4  11    5.63    0.37
   0  -4 -11   -0.04    0.07
   0  -4 -11   -0.06    0.08
   0  -4 -11   -0.08    0.07
   0  -4 -11    0.00    0.04
   0   4  11   -0.06    0.07
   0   4  11    0.04    0.05
  -1  -4 -11    3.92    0.37
  -1  -4 -11    4.09    0.17
  -1  -4 -11    4.28    0.37
  -1  -4 -11    4.27    0.35
   1   4  11    4.39    0.34
   1   4  11    3.75    0.22
  -2  -4 -11    5.05    0.40
  -2  -4 -11    4.67    0.37
  -2  -4 -11    5.12    0.38
   2   4  11    4.00    0.32
  -3  -4 -11    0.60    0.19
   3   4  11    0.63    0.15
  -4  -4 -11    2.92    0.38
   4   4  11    2.97    0.30
  -5  -4 -11    0.01    0.13
   5   4  11    0.01    0.08
  -6  -4 -11    0.03    0.19
   6   4  11    0.08    0.10
   3  -5 -11    0.24    0.16
   3  -5 -11    0.16    0.09
   3  -5 -11    0.05    0.10
   2  -5 -11   -0.03    0.05
   2  -5 -11    0.04    0.11
   2  -5 -11    0.03    0.08
  -2   5  11    0.02    0.06
   1  -5 -11    1.12    0.20
   1  -5 -11    1.19    0.16
   1  -5 -11    1.27    0.15
  -1   5  11    1.50    0.17
   0  -5 -11   -0.02    0.09
   0  -5 -11    0.01    0.05
   0  -5 -11    0.11    0.10
   0  -5 -11   -0.13    0.09
   0   5  11    0.07    0.06
   0   5  11    0.01    0.10
  -1  -5 -11    4.11    0.17
  -1  -5 -11    4.17    0.43
  -1  -5 -11    4.32    0.34
  -1  -5 -11    3.47    0.40
   1   5  11    4.45    0.25
   1   5  11    5.53    0.39
  -2  -5 -11    2.90    0.35
  -2  -5 -11    2.75    0.35
   2   5  11    2.53    0.30
  -3  -5 -11    1.43    0.27
   3   5  11    1.21    0.21
  -4  -5 -11   -0.07    0.10
   4   5  11    0.05    0.08
  -5  -5 -11    0.02    0.13
   5   5  11    0.04    0.09
   6   5  11   -0.08    0.08
   3  -6 -11    0.18    0.11
   2  -6 -11    2.55    0.24
   2  -6 -11    2.33    0.33
   2  -6 -11    1.91    0.24
  -2   6  11    2.18    0.21
   1  -6 -11    0.10    0.06
   1  -6 -11    0.05    0.07
   1  -6 -11    0.04    0.10
  -1   6  11    0.17    0.08
   0  -6 -11    0.02    0.09
   0  -6 -11    0.12    0.10
   0  -6 -11    0.03    0.05
   0   6  11    0.03    0.07
  -1  -6 -11    0.72    0.19
  -1  -6 -11    0.53    0.06
   1   6  11    0.84    0.21
   1   6  11    0.47    0.11
  -2  -6 -11    0.32    0.14
   2   6  11    0.33    0.13
  -3  -6 -11    1.86    0.32
   3   6  11    1.18    0.22
  -4  -6 -11    0.41    0.20
   4   6  11    0.25    0.12
  -5  -6 -11    0.01    0.17
   5   6  11    0.07    0.11
   2  -7 -11    2.67    0.29
   2  -7 -11    3.27    0.40
  -2   7  11    3.39    0.24
   1  -7 -11    1.73    0.30
   1  -7 -11    2.00    0.19
   1  -7 -11    2.39    0.24
  -1   7  11    1.87    0.22
   0  -7 -11    0.12    0.06
   0  -7 -11    0.17    0.12
   0   7  11    0.08    0.09
  -1  -7 -11    0.42    0.16
   1   7  11    0.25    0.15
   1   7  11    0.39    0.12
  -2  -7 -11    0.49    0.18
   2   7  11    0.35    0.15
  -3  -7 -11    0.42    0.19
   3   7  11    0.79    0.21
  -4  -7 -11   -0.17    0.12
   4   7  11   -0.02    0.10
  -5  -7 -11    0.02    0.18
   5   7  11    0.27    0.15
   1  -8 -11    1.22    0.18
   1  -8 -11    1.60    0.32
  -1   8  11    1.56    0.21
   0  -8 -11    0.16    0.08
   0  -8 -11    0.18    0.15
   0   8  11    0.28    0.11
  -1  -8 -11    0.00    0.11
   1   8  11    0.16    0.10
   1   8  11    0.12    0.16
  -2  -8 -11    0.07    0.13
   2   8  11   -0.01    0.14
  -3  -8 -11   -0.04    0.12
   3   8  11    0.24    0.16
  -4  -8 -11   -0.06    0.13
   4   8  11    0.05    0.13
   0  -9 -11    0.13    0.15
   0  -9 -11    0.14    0.07
   0   9  11    0.13    0.11
  -1  -9 -11   -0.02    0.15
   1   9  11    0.01    0.10
  -2  -9 -11    0.15    0.16
   2   9  11    0.04    0.14
  -3  -9 -11    0.33    0.22
   3   9  11    0.32    0.19
   2   8 -12    0.70    0.19
   1   8 -12    0.04    0.12
  -1  -8  12    0.10    0.06
   0   8 -12   -0.15    0.10
   0  -8  12    0.01    0.07
  -1   8 -12    0.14    0.12
   1  -8  12    0.27    0.17
   1  -8  12    0.01    0.08
   3   7 -12   -0.08    0.15
   2   7 -12    0.42    0.24
   2   7 -12    0.28    0.15
   1   7 -12    0.98    0.20
  -1  -7  12    0.64    0.11
   0   7 -12   -0.09    0.09
   0  -7  12    0.05    0.07
  -1   7 -12    0.59    0.14
   1  -7  12    0.56    0.13
   1  -7  12    0.64    0.19
   2  -7  12    0.01    0.15
   2  -7  12   -0.02    0.09
   4   6 -12   -0.04    0.13
   3   6 -12   -0.05    0.14
   2   6 -12    0.20    0.16
   2   6 -12   -0.01    0.11
   1   6 -12    3.17    0.33
  -1  -6  12    3.73    0.21
   0   6 -12   -0.02    0.08
   0  -6  12   -0.10    0.09
   0  -6  12    0.01    0.06
  -1   6 -12    1.18    0.27
  -1   6 -12    1.62    0.21
   1  -6  12    1.15    0.16
   1  -6  12    0.98    0.21
   2  -6  12    1.13    0.17
   2  -6  12    1.96    0.33
   2  -6  12    1.82    0.31
   3  -6  12    0.14    0.10
   3  -6  12    0.03    0.12
   4   5 -12   -0.12    0.12
   3   5 -12   -0.13    0.12
   2   5 -12    0.15    0.11
   2   5 -12    0.10    0.14
   1   5 -12    0.04    0.10
   1   5 -12   -0.02    0.08
  -1  -5  12    0.05    0.05
   0   5 -12    0.63    0.14
   0  -5  12    0.53    0.11
   0  -5  12    0.49    0.18
   0  -5  12    0.68    0.17
   0  -5  12    0.54    0.14
  -1   5 -12    0.05    0.15
  -1   5 -12    0.26    0.09
   1  -5  12    0.07    0.07
   1  -5  12    0.32    0.15
   2  -5  12    2.54    0.34
   2  -5  12    2.67    0.37
   2  -5  12    2.47    0.24
   3  -5  12    1.88    0.31
   3  -5  12    1.88    0.30
   4  -5  12    0.04    0.11
   4   4 -12    0.39    0.17
   3   4 -12    0.07    0.11
   2   4 -12    0.89    0.21
   2   4 -12    0.69    0.17
  -2  -4  12    0.85    0.08
   1   4 -12    1.77    0.29
   1   4 -12    1.69    0.22
  -1  -4  12    2.40    0.34
  -1  -4  12    2.41    0.16
   0   4 -12    1.70    0.28
   0   4 -12    1.70    0.21
   0  -4  12    1.20    0.21
   0  -4  12    1.81    0.24
   0  -4  12    1.65    0.27
   0  -4  12    1.66    0.17
  -1   4 -12    0.04    0.06
  -1   4 -12    0.05    0.13
  -1   4 -12    0.07    0.10
   1  -4  12   -0.01    0.09
   1  -4  12    0.01    0.08
   1  -4  12   -0.02    0.06
   1  -4  12    0.01    0.05
  -2   4 -12    1.84    0.29
   2  -4  12    2.92    0.36
   2  -4  12    2.54    0.32
   2  -4  12    2.01    0.21
   3  -4  12    3.98    0.41
   3  -4  12    4.25    0.46
   4  -4  12    1.64    0.28
   5   3 -12    0.04    0.14
   4   3 -12    0.05    0.11
   3   3 -12    0.01    0.10
   2   3 -12    0.82    0.16
   2   3 -12    0.53    0.18
  -2  -3  12    0.67    0.07
   1   3 -12    4.84    0.39
   1   3 -12    5.88    0.35
  -1  -3  12    6.38    0.27
  -1  -3  12    6.30    0.45
   0   3 -12    0.70    0.19
   0   3 -12    0.92    0.16
   0   3 -12    0.94    0.23
   0   3 -12    1.00    0.18
   0  -3  12    0.70    0.16
   0  -3  12    0.96    0.19
   0  -3  12    0.73    0.12
   0  -3  12    0.79    0.16
   0  -3  12    1.24    0.23
   0  -3  12    0.98    0.21
  -1   3 -12    6.62    0.50
  -1   3 -12    7.46    0.33
  -1   3 -12    7.04    0.46
   1  -3  12    7.82    0.48
   1  -3  12    7.74    0.46
   1  -3  12    7.05    0.32
   1  -3  12    8.03    0.51
  -2   3 -12    0.02    0.12
  -2   3 -12    0.15    0.12
   2  -3  12    0.23    0.12
   2  -3  12    0.19    0.07
   2  -3  12    0.23    0.10
   3  -3  12    0.24    0.12
   3  -3  12    0.00    0.12
   4  -3  12    1.44    0.29
   4  -3  12    2.20    0.30
   5  -3  12    0.04    0.12
   5   2 -12    0.14    0.15
   4   2 -12    0.30    0.14
   3   2 -12    0.26    0.14
   2   2 -12    1.90    0.28
   2   2 -12    1.68    0.22
  -2  -2  12    1.77    0.28
  -2  -2  12    1.68    0.10
   1   2 -12    1.91    0.27
   1   2 -12    1.84    0.22
  -1  -2  12    1.84    0.26
  -1  -2  12    1.72    0.16
  -1  -2  12    1.97    0.29
  -1  -2  12    1.61    0.15
   0   2 -12    8.43    0.55
   0   2 -12    8.30    0.44
   0   2 -12    8.47    0.39
   0  -2  12    9.10    0.51
   0  -2  12    8.46    0.46
   0  -2  12    8.80    0.48
   0  -2  12    9.05    0.54
   0  -2  12    8.16    0.34
  -1   2 -12    4.82    0.25
  -1   2 -12    4.99    0.42
  -1   2 -12    5.05    0.31
  -1   2 -12    5.19    0.38
  -1   2 -12    5.39    0.33
   1  -2  12    5.49    0.41
   1  -2  12    5.19    0.33
   1  -2  12    4.98    0.26
   1  -2  12    5.28    0.36
  -2   2 -12    1.55    0.23
  -2   2 -12    1.45    0.26
  -2   2 -12    1.25    0.21
   2  -2  12    1.28    0.15
   2  -2  12    1.63    0.28
   2  -2  12    1.64    0.23
  -3   2 -12    0.12    0.11
   3  -2  12    0.34    0.12
   3  -2  12    0.16    0.12
   4  -2  12    0.09    0.13
   4  -2  12   -0.01    0.08
   5  -2  12    0.15    0.12
   5   1 -12    0.42    0.19
   4   1 -12    0.10    0.13
   3   1 -12    0.13    0.11
   2   1 -12    0.47    0.13
   2   1 -12    0.69    0.18
  -2  -1  12    0.51    0.07
  -2  -1  12    0.58    0.17
  -2  -1  12    0.55    0.16
   1   1 -12    0.47    0.12
   1   1 -12    0.41    0.14
  -1  -1  12    0.39    0.14
  -1  -1  12    0.56    0.15
  -1  -1  12    0.37    0.08
   0   1 -12    4.46    0.31
   0   1 -12    4.40    0.26
   0   1 -12    4.01    0.32
   0   1 -12    4.83    0.39
   0   1 -12    3.93    0.25
   0  -1  12    4.41    0.30
   0  -1  12    4.19    0.42
   0  -1  12    4.19    0.22
   0  -1  12    4.69    0.33
   0  -1  12    4.57    0.33
  -1   1 -12    0.54    0.13
  -1   1 -12    0.33    0.08
  -1   1 -12    0.33    0.10
  -1   1 -12    0.22    0.12
   1  -1  12    0.50    0.12
   1  -1  12    0.22    0.10
   1  -1  12    0.84    0.20
   1  -1  12    0.33    0.08
  -2   1 -12    0.09    0.10
  -2   1 -12    0.16    0.09
  -2   1 -12    0.06    0.07
  -2   1 -12    0.07    0.09
   2  -1  12    0.03    0.08
   2  -1  12    0.09    0.08
   2  -1  12    0.11    0.06
   2  -1  12    0.04    0.10
  -3   1 -12    5.29    0.35
  -3   1 -12    5.12    0.39
   3  -1  12    4.68    0.34
   3  -1  12    4.35    0.45
  -4   1 -12    2.92    0.39
   4  -1  12    2.01    0.26
   4  -1  12    2.55    0.37
   5  -1  12    0.07    0.15
   5  -1  12    0.10    0.10
   5   0 -12    0.18    0.18
   4   0 -12    1.73    0.30
   3   0 -12    5.34    0.42
   3   0 -12    5.76    0.29
   3   0 -12    6.33    0.38
   2   0 -12    0.74    0.15
   2   0 -12    0.33    0.14
  -2   0  12    0.36    0.14
  -2   0  12    0.29    0.13
  -2   0  12    0.47    0.07
   1   0 -12   -0.05    0.05
   1   0 -12    0.05    0.07
  -1   0  12   -0.02    0.07
  -1   0  12   -0.01    0.04
   0   0 -12    0.58    0.16
   0   0 -12    0.30    0.09
   0   0 -12    0.56    0.11
   0   0 -12    0.48    0.13
   0   0 -12    0.58    0.15
   0   0  12    0.25    0.11
   0   0  12    0.12    0.08
   0   0  12    0.20    0.10
   0   0  12    0.40    0.08
   0   0  12    0.29    0.12
  -1   0 -12    0.73    0.14
  -1   0 -12    0.73    0.10
  -1   0 -12    0.56    0.13
  -1   0 -12    0.26    0.13
   1   0  12    0.58    0.17
   1   0  12    0.59    0.10
   1   0  12    0.44    0.13
   1   0  12    0.62    0.15
  -2   0 -12   16.88    0.72
  -2   0 -12   16.43    0.78
   2   0  12   17.74    0.67
   2   0  12   16.27    0.70
   2   0  12   15.94    0.53
  -3   0 -12    1.84    0.28
  -3   0 -12    1.52    0.21
   3   0  12    2.06    0.25
  -4   0 -12    4.80    0.48
   4   0  12    4.62    0.33
  -5   0 -12    1.10    0.28
   5   0  12    1.07    0.19
   6   0  12    0.14    0.10
   4  -1 -12    1.06    0.16
   4  -1 -12    0.54    0.19
   3  -1 -12    0.38    0.10
   3  -1 -12    0.38    0.16
   3  -1 -12    0.69    0.16
   2  -1 -12    0.36    0.11
   2  -1 -12    0.14    0.07
   2  -1 -12    0.20    0.12
  -2   1  12    0.25    0.06
  -2   1  12    0.14    0.11
  -2   1  12    0.07    0.09
   1  -1 -12    2.52    0.24
   1  -1 -12    2.64    0.31
  -1   1  12    2.86    0.18
  -1   1  12    3.17    0.35
   0  -1 -12    1.19    0.22
   0  -1 -12    1.52    0.20
   0  -1 -12    1.81    0.21
   0  -1 -12    1.37    0.15
   0   1  12    1.23    0.18
   0   1  12    1.58    0.25
   0   1  12    1.63    0.23
   0   1  12    1.43    0.15
   0   1  12    1.34    0.15
  -1  -1 -12    2.42    0.26
  -1  -1 -12    2.18    0.26
  -1  -1 -12    2.28    0.14
  -1  -1 -12    2.36    0.31
   1   1  12    2.49    0.27
   1   1  12    1.98    0.17
   1   1  12    2.05    0.25
  -2  -1 -12    1.47    0.25
  -2  -1 -12    1.31    0.19
  -2  -1 -12    1.70    0.26
   2   1  12    1.29    0.20
   2   1  12    1.10    0.13
   2   1  12    1.13    0.19
  -3  -1 -12    1.82    0.27
  -3  -1 -12    1.30    0.19
   3   1  12    1.57    0.21
   3   1  12    1.81    0.23
  -4  -1 -12    2.36    0.34
   4   1  12    2.03    0.24
  -5  -1 -12    0.86    0.25
   5   1  12    1.25    0.20
  -6  -1 -12    0.04    0.15
   6   1  12    0.03    0.09
   4  -2 -12   -0.07    0.07
   4  -2 -12    0.14    0.15
   3  -2 -12    0.53    0.15
   3  -2 -12    0.50    0.18
   3  -2 -12    0.64    0.13
   2  -2 -12    2.27    0.20
   2  -2 -12    1.87    0.22
   2  -2 -12    1.98    0.30
  -2   2  12    2.64    0.31
  -2   2  12    2.18    0.15
  -2   2  12    2.80    0.32
   1  -2 -12    2.56    0.32
   1  -2 -12    2.45    0.25
   1  -2 -12    1.81    0.21
  -1   2  12    2.15    0.19
  -1   2  12    2.63    0.31
   0  -2 -12    7.55    0.40
   0  -2 -12    7.87    0.52
   0  -2 -12    7.63    0.34
   0  -2 -12    7.90    0.43
   0   2  12    7.28    0.45
   0   2  12    7.89    0.48
   0   2  12    6.98    0.31
  -1  -2 -12    6.47    0.46
  -1  -2 -12    6.38    0.24
  -1  -2 -12    5.86    0.40
  -1  -2 -12    6.68    0.39
   1   2  12    6.57    0.41
   1   2  12    6.41    0.28
  -2  -2 -12    0.70    0.17
  -2  -2 -12    0.59    0.16
  -2  -2 -12    0.64    0.16
   2   2  12    0.82    0.17
  -3  -2 -12    3.46    0.41
  -3  -2 -12    3.18    0.37
   3   2  12    3.47    0.28
  -4  -2 -12   -0.02    0.09
   4   2  12    0.03    0.08
  -5  -2 -12    0.72    0.23
   5   2  12    0.71    0.15
  -6  -2 -12    0.03    0.15
   6   2  12    0.19    0.11
   4  -3 -12    0.58    0.14
   4  -3 -12    0.40    0.19
   3  -3 -12    0.45    0.11
   3  -3 -12    0.50    0.15
   3  -3 -12    0.68    0.21
   2  -3 -12    1.69    0.29
   2  -3 -12    2.03    0.20
   2  -3 -12    1.63    0.22
  -2   3  12    1.74    0.17
   1  -3 -12    0.06    0.06
   1  -3 -12    0.26    0.12
   1  -3 -12    0.11    0.08
  -1   3  12    0.07    0.10
  -1   3  12    0.07    0.05
   0  -3 -12   13.55    0.73
   0  -3 -12   13.56    0.59
   0  -3 -12   12.98    0.62
   0  -3 -12   12.88    0.48
   0   3  12   13.35    0.65
   0   3  12   12.71    0.47
  -1  -3 -12    6.04    0.44
  -1  -3 -12    5.97    0.39
  -1  -3 -12    5.36    0.21
  -1  -3 -12    6.66    0.43
   1   3  12    5.44    0.26
   1   3  12    5.17    0.26
   1   3  12    5.39    0.38
  -2  -3 -12    1.65    0.26
  -2  -3 -12    1.13    0.22
  -2  -3 -12    1.27    0.23
   2   3  12    1.11    0.21
  -3  -3 -12    0.97    0.22
   3   3  12    0.85    0.18
  -4  -3 -12    0.32    0.17
   4   3  12    0.19    0.09
  -5  -3 -12   -0.11    0.13
   5   3  12    0.01    0.08
  -6  -3 -12    0.08    0.15
   6   3  12    0.05    0.10
   4  -4 -12    0.06    0.15
   3  -4 -12    3.39    0.33
   3  -4 -12    3.37    0.43
   3  -4 -12    3.35    0.25
   2  -4 -12    0.34    0.09
   2  -4 -12   -0.01    0.07
  -2   4  12    0.17    0.07
   1  -4 -12    0.39    0.11
   1  -4 -12    0.36    0.12
  -1   4  12    0.61    0.17
  -1   4  12    0.65    0.12
   0  -4 -12    1.45    0.23
   0  -4 -12    1.23    0.25
   0  -4 -12    1.96    0.18
   0  -4 -12    1.32    0.22
   0   4  12    1.91    0.27
   0   4  12    1.85    0.19
  -1  -4 -12    1.40    0.24
  -1  -4 -12    1.35    0.23
  -1  -4 -12    1.20    0.09
  -1  -4 -12    1.47    0.26
   1   4  12    1.00    0.14
   1   4  12    0.97    0.20
  -2  -4 -12    3.68    0.41
  -2  -4 -12    3.66    0.39
   2   4  12    2.87    0.33
  -3  -4 -12    0.01    0.08
   3   4  12    0.02    0.07
  -4  -4 -12    0.04    0.15
   4   4  12   -0.02    0.08
  -5  -4 -12    0.02    0.11
   5   4  12   -0.05    0.08
   3  -5 -12    4.00    0.38
   2  -5 -12    2.87    0.28
   2  -5 -12    3.29    0.23
  -2   5  12    3.12    0.21
   1  -5 -12    0.11    0.11
   1  -5 -12    0.32    0.10
  -1   5  12    0.34    0.10
   0  -5 -12    2.50    0.32
   0  -5 -12    2.16    0.29
   0  -5 -12    2.63    0.19
   0   5  12    2.35    0.23
   0   5  12    2.57    0.33
  -1  -5 -12    0.36    0.15
  -1  -5 -12    0.26    0.05
  -1  -5 -12    0.31    0.14
  -1  -5 -12    0.33    0.17
   1   5  12    0.18    0.11
   1   5  12    0.26    0.09
  -2  -5 -12    2.30    0.32
   2   5  12    2.61    0.33
  -3  -5 -12   -0.15    0.08
   3   5  12   -0.06    0.08
  -4  -5 -12    1.17    0.27
   4   5  12    1.12    0.21
  -5  -5 -12    0.16    0.16
   5   5  12    0.37    0.15
   3  -6 -12    0.10    0.10
   2  -6 -12    2.73    0.29
   2  -6 -12    2.12    0.25
  -2   6  12    2.38    0.22
   1  -6 -12    0.21    0.10
   1  -6 -12    0.52    0.16
  -1   6  12    0.36    0.10
   0  -6 -12    1.03    0.13
   0  -6 -12    1.07    0.23
   0   6  12    1.02    0.16
  -1  -6 -12    0.15    0.11
  -1  -6 -12    0.33    0.05
   1   6  12    0.36    0.16
   1   6  12    0.32    0.10
  -2  -6 -12    0.12    0.12
   2   6  12    0.80    0.20
  -3  -6 -12   -0.04    0.10
   3   6  12   -0.07    0.09
  -4  -6 -12    0.00    0.14
   4   6  12   -0.02    0.08
  -5  -6 -12   -0.15    0.15
   5   6  12    0.08    0.11
   2  -7 -12    0.44    0.14
  -2   7  12    0.54    0.13
   1  -7 -12    0.42    0.17
   1  -7 -12    0.28    0.11
  -1   7  12    0.37    0.12
   0  -7 -12    0.05    0.06
   0  -7 -12   -0.06    0.13
   0   7  12    0.09    0.09
  -1  -7 -12    0.24    0.15
   1   7  12    0.47    0.16
   1   7  12    0.52    0.13
  -2  -7 -12    1.42    0.28
   2   7  12    2.34    0.36
  -3  -7 -12    0.06    0.13
   3   7  12    0.03    0.12
  -4  -7 -12    0.03    0.15
   4   7  12   -0.01    0.12
   1  -8 -12   -0.02    0.07
   1  -8 -12   -0.07    0.14
  -1   8  12    0.03    0.09
   0  -8 -12   -0.04    0.06
   0  -8 -12   -0.02    0.10
   0   8  12    0.02    0.09
  -1  -8 -12   -0.07    0.13
   1   8  12    0.01    0.09
  -2  -8 -12    0.18    0.17
   2   8  12    0.10    0.16
  -3  -8 -12    0.23    0.17
   3   8  12    0.20    0.14
  -4  -8 -12   -0.01    0.17
   4   8  12   -0.08    0.11
  -1  -9 -12   -0.02    0.15
   1   9  12   -0.02    0.10
  -2  -9 -12    0.17    0.16
   2   9  12    0.06    0.15
   1   8 -13    0.07    0.13
  -1  -8  13   -0.02    0.06
   0   8 -13    0.21    0.14
   0  -8  13    0.19    0.09
   3   7 -13   -0.07    0.18
   2   7 -13    0.04    0.11
   1   7 -13    0.31    0.14
  -1  -7  13    0.53    0.11
   0   7 -13    0.15    0.12
   0  -7  13    0.22    0.09
  -1   7 -13    0.37    0.13
   1  -7  13    0.41    0.12
   1  -7  13    0.46    0.19
   2  -7  13    0.56    0.15
   2  -7  13    0.57    0.20
   3   6 -13    0.51    0.23
   2   6 -13    0.41    0.20
   2   6 -13    0.35    0.15
   1   6 -13   -0.01    0.11
  -1  -6  13    0.14    0.07
   0   6 -13   -0.10    0.08
   0  -6  13    0.02    0.06
  -1   6 -13    0.66    0.15
   1  -6  13    0.48    0.11
   1  -6  13    0.52    0.17
   2  -6  13    0.70    0.15
   2  -6  13    0.90    0.24
   2  -6  13    1.04    0.25
   3  -6  13    0.32    0.13
   3  -6  13    0.48    0.21
   4   5 -13   -0.11    0.15
   3   5 -13    0.17    0.16
   2   5 -13    0.97    0.25
   2   5 -13    0.74    0.19
   1   5 -13    0.01    0.09
  -1  -5  13   -0.02    0.05
   0   5 -13    1.22    0.19
   0  -5  13    1.14    0.25
   0  -5  13    1.00    0.15
  -1   5 -13    0.15    0.14
  -1   5 -13    0.03    0.07
   1  -5  13    0.06    0.07
   1  -5  13   -0.03    0.11
   2  -5  13    0.20    0.11
   2  -5  13    0.03    0.13
   2  -5  13    0.01    0.08
   3  -5  13    0.61    0.20
   3  -5  13    0.42    0.16
   4  -5  13   -0.03    0.13
   4   4 -13    0.16    0.15
   3   4 -13    0.27    0.17
   2   4 -13    0.69    0.18
   2   4 -13    0.25    0.16
  -2  -4  13    0.64    0.07
   1   4 -13    0.82    0.17
  -1  -4  13    0.69    0.20
  -1  -4  13    0.78    0.11
   0   4 -13    1.78    0.22
   0  -4  13    1.73    0.18
   0  -4  13    1.79    0.30
   0  -4  13    1.63    0.24
  -1   4 -13    0.71    0.13
  -1   4 -13    0.93    0.23
   1  -4  13    0.82    0.22
   1  -4  13    0.67    0.13
   1  -4  13    0.45    0.15
   1  -4  13    0.24    0.13
   2  -4  13    0.43    0.11
   2  -4  13    0.28    0.13
   2  -4  13    0.77    0.23
   3  -4  13    0.05    0.11
   3  -4  13    0.03    0.11
   4  -4  13    0.10    0.12
   4   3 -13   -0.02    0.13
   3   3 -13    0.04    0.11
   2   3 -13    0.38    0.13
   2   3 -13    0.28    0.14
  -2  -3  13    0.25    0.05
   1   3 -13    1.34    0.20
   1   3 -13    0.91    0.22
  -1  -3  13    0.91    0.12
  -1  -3  13    1.02    0.23
   0   3 -13    1.52    0.27
   0   3 -13    1.31    0.19
   0  -3  13    1.86    0.24
   0  -3  13    1.44    0.27
   0  -3  13    1.61    0.17
  -1   3 -13    1.02    0.23
  -1   3 -13    1.18    0.15
  -1   3 -13    1.22    0.27
   1  -3  13    1.08    0.15
   1  -3  13    1.42    0.24
   1  -3  13    0.97    0.22
  -2   3 -13    3.41    0.37
   2  -3  13    3.32    0.41
   2  -3  13    3.21    0.22
   2  -3  13    3.18    0.35
   3  -3  13    1.71    0.31
   3  -3  13    1.98    0.29
   4  -3  13    0.04    0.11
   4  -3  13   -0.09    0.12
   5  -3  13   -0.01    0.11
   4   2 -13    1.30    0.27
   3   2 -13    0.04    0.11
   3   2 -13   -0.03    0.12
   2   2 -13    0.47    0.16
   2   2 -13    0.40    0.14
  -2  -2  13    0.47    0.07
  -2  -2  13    0.27    0.16
   1   2 -13    0.05    0.10
   1   2 -13    0.07    0.08
  -1  -2  13    0.02    0.04
  -1  -2  13    0.02    0.09
  -1  -2  13   -0.03    0.04
   0   2 -13   -0.04    0.04
   0   2 -13   -0.04    0.13
   0  -2  13    0.01    0.10
   0  -2  13    0.00    0.04
   0  -2  13   -0.01    0.09
  -1   2 -13    6.18    0.43
  -1   2 -13    5.60    0.27
  -1   2 -13    4.60    0.48
  -1   2 -13    5.16    0.34
   1  -2  13    5.86    0.36
   1  -2  13    5.09    0.38
   1  -2  13    5.37    0.28
   1  -2  13    5.14    0.42
  -2   2 -13    1.49    0.24
  -2   2 -13    1.62    0.25
   2  -2  13    1.71    0.18
   2  -2  13    1.55    0.24
   2  -2  13    1.15    0.24
   3  -2  13    4.92    0.51
   3  -2  13    4.56    0.36
   4  -2  13    0.95    0.25
   4  -2  13    1.06    0.21
   5  -2  13    0.04    0.11
   4   1 -13    0.05    0.08
   4   1 -13   -0.01    0.12
   3   1 -13   -0.05    0.11
   3   1 -13    0.02    0.10
   2   1 -13    4.57    0.32
   2   1 -13    4.90    0.40
  -2  -1  13    4.43    0.20
  -2  -1  13    4.28    0.45
   1   1 -13    1.36    0.19
   1   1 -13    1.16    0.21
  -1  -1  13    1.37    0.14
  -1  -1  13    1.42    0.26
   0   1 -13    0.60    0.19
   0   1 -13    0.35    0.10
   0   1 -13    0.27    0.09
   0  -1  13    0.54    0.15
   0  -1  13    0.37    0.14
   0  -1  13    0.59    0.10
  -1   1 -13    0.45    0.09
  -1   1 -13    0.22    0.10
  -1   1 -13    0.58    0.19
  -1   1 -13    0.55    0.13
   1  -1  13    0.26    0.13
   1  -1  13    0.37    0.12
   1  -1  13    0.53    0.14
   1  -1  13    0.46    0.10
  -2   1 -13    2.67    0.30
  -2   1 -13    2.11    0.28
  -2   1 -13    2.28    0.33
   2  -1  13    2.16    0.33
   2  -1  13    2.61    0.18
   2  -1  13    2.46    0.29
  -3   1 -13    2.53    0.33
   3  -1  13    2.72    0.37
   3  -1  13    2.71    0.32
  -4   1 -13    1.03    0.25
   4  -1  13    1.13    0.26
   4  -1  13    0.77    0.18
   5  -1  13    0.10    0.10
   5  -1  13   -0.05    0.15
   4   0 -13    0.09    0.16
   4   0 -13    0.00    0.07
   3   0 -13    0.61    0.12
   3   0 -13    0.99    0.23
   3   0 -13    0.80    0.18
   2   0 -13    2.34    0.32
   2   0 -13    2.19    0.26
  -2   0  13    2.35    0.32
  -2   0  13    1.82    0.13
   1   0 -13    7.39    0.48
   1   0 -13    7.39    0.39
  -1   0  13    7.67    0.32
  -1   0  13    7.48    0.48
   0   0 -13    5.41    0.43
   0   0 -13    4.61    0.29
   0   0 -13    4.60    0.27
   0   0  13    4.04    0.43
   0   0  13    5.08    0.36
   0   0  13    4.40    0.24
  -1   0 -13    0.00    0.03
  -1   0 -13   -0.03    0.07
  -1   0 -13   -0.09    0.09
   1   0  13    0.01    0.07
   1   0  13    0.01    0.04
   1   0  13   -0.10    0.06
   1   0  13    0.01    0.08
  -2   0 -13    1.85    0.26
  -2   0 -13    1.52    0.27
  -2   0 -13    1.94    0.22
   2   0  13    1.81    0.25
   2   0  13    2.04    0.19
   2   0  13    2.41    0.26
   2   0  13    1.62    0.29
  -3   0 -13    0.26    0.12
  -3   0 -13    0.24    0.13
   3   0  13    0.16    0.10
  -4   0 -13    0.82    0.23
   4   0  13    0.49    0.14
  -5   0 -13   -0.01    0.12
   5   0  13    0.12    0.11
   4  -1 -13    0.29    0.12
   4  -1 -13    0.90    0.25
   3  -1 -13    0.03    0.14
   3  -1 -13    0.25    0.09
   3  -1 -13    0.37    0.15
   2  -1 -13    0.86    0.22
   2  -1 -13    0.89    0.17
  -2   1  13    0.82    0.11
  -2   1  13    0.78    0.19
   1  -1 -13    9.31    0.44
   1  -1 -13    9.49    0.55
  -1   1  13    9.65    0.38
  -1   1  13   11.06    0.59
   0  -1 -13    9.92    0.60
   0  -1 -13    8.61    0.39
   0  -1 -13    9.40    0.45
   0   1  13    9.47    0.53
   0   1  13    9.20    0.37
   0   1  13    9.51    0.56
   0   1  13    9.27    0.37
  -1  -1 -13    0.03    0.04
  -1  -1 -13    0.00    0.07
  -1  -1 -13    0.04    0.10
   1   1  13    0.03    0.09
   1   1  13    0.18    0.12
   1   1  13    0.00    0.05
  -2  -1 -13    5.52    0.42
  -2  -1 -13    5.19    0.38
   2   1  13    4.83    0.25
   2   1  13    4.78    0.35
  -3  -1 -13    1.63    0.23
  -3  -1 -13    1.75    0.29
   3   1  13    1.62    0.23
  -4  -1 -13   -0.05    0.13
   4   1  13    0.01    0.08
  -5  -1 -13   -0.06    0.13
   5   1  13    0.04    0.09
   4  -2 -13    0.77    0.25
   4  -2 -13    0.90    0.16
   3  -2 -13    0.29    0.13
   3  -2 -13    0.53    0.19
   3  -2 -13    0.37    0.09
   2  -2 -13    0.77    0.16
   2  -2 -13    1.06    0.22
  -2   2  13    0.68    0.10
  -2   2  13    0.99    0.21
  -2   2  13    0.64    0.17
   1  -2 -13    0.35    0.10
  -1   2  13    0.35    0.09
  -1   2  13    0.63    0.18
   0  -2 -13    0.94    0.18
   0  -2 -13    1.02    0.14
   0  -2 -13    1.21    0.24
   0  -2 -13    0.50    0.13
   0   2  13    0.70    0.19
   0   2  13    0.89    0.13
   0   2  13    0.74    0.18
  -1  -2 -13    4.46    0.20
  -1  -2 -13    3.98    0.43
  -1  -2 -13    5.17    0.35
  -1  -2 -13    4.90    0.37
   1   2  13    4.69    0.36
   1   2  13    4.53    0.24
  -2  -2 -13    1.26    0.25
  -2  -2 -13    1.18    0.23
  -2  -2 -13    1.18    0.22
   2   2  13    0.98    0.19
  -3  -2 -13    1.88    0.30
   3   2  13    1.57    0.24
  -4  -2 -13    0.17    0.13
   4   2  13    0.01    0.08
  -5  -2 -13    0.36    0.19
   5   2  13    0.30    0.13
   4  -3 -13    2.06    0.37
   3  -3 -13    1.44    0.30
   3  -3 -13    0.86    0.18
   3  -3 -13    1.49    0.19
   2  -3 -13   -0.02    0.07
   2  -3 -13    0.12    0.06
  -2   3  13    0.12    0.06
   1  -3 -13    3.05    0.27
  -1   3  13    4.61    0.37
  -1   3  13    4.43    0.24
   0  -3 -13    0.07    0.09
   0  -3 -13    0.24    0.08
   0  -3 -13    0.26    0.14
   0  -3 -13    0.09    0.10
   0   3  13    0.39    0.15
   0   3  13    0.08    0.07
  -1  -3 -13    4.44    0.46
  -1  -3 -13    4.51    0.19
  -1  -3 -13    4.77    0.35
  -1  -3 -13    4.34    0.36
   1   3  13    5.05    0.38
   1   3  13    4.11    0.24
   1   3  13    4.17    0.24
  -2  -3 -13    0.14    0.10
  -2  -3 -13    0.06    0.10
   2   3  13    0.19    0.10
  -3  -3 -13    3.91    0.43
   3   3  13    5.10    0.37
  -4  -3 -13    2.31    0.35
   4   3  13    1.77    0.24
  -5  -3 -13    0.11    0.15
   5   3  13    0.05    0.10
   3  -4 -13    0.93    0.19
   2  -4 -13    0.12    0.09
   2  -4 -13    0.09    0.06
  -2   4  13    0.10    0.07
   1  -4 -13    2.60    0.25
   1  -4 -13    2.32    0.28
  -1   4  13    2.58    0.33
  -1   4  13    2.19    0.21
   0  -4 -13    2.28    0.29
   0  -4 -13    2.39    0.21
   0  -4 -13    2.24    0.29
   0   4  13    1.90    0.20
   0   4  13    2.40    0.32
  -1  -4 -13    1.95    0.30
  -1  -4 -13    2.89    0.39
  -1  -4 -13    2.07    0.12
  -1  -4 -13    2.19    0.30
   1   4  13    2.41    0.22
   1   4  13    2.27    0.31
  -2  -4 -13   -0.02    0.10
   2   4  13   -0.03    0.09
  -3  -4 -13   -0.01    0.10
   3   4  13   -0.15    0.08
  -4  -4 -13    0.55    0.19
   4   4  13    0.12    0.10
  -5  -4 -13    0.06    0.14
   5   4  13    0.06    0.10
   3  -5 -13   -0.01    0.10
   2  -5 -13    0.02    0.09
   2  -5 -13   -0.02    0.06
  -2   5  13    0.06    0.07
   1  -5 -13    0.57    0.12
   1  -5 -13    0.89    0.21
  -1   5  13    0.73    0.14
   0  -5 -13    1.15    0.22
   0  -5 -13    1.36    0.25
   0  -5 -13    1.74    0.18
   0   5  13    1.42    0.18
  -1  -5 -13    6.00    0.22
  -1  -5 -13    7.29    0.50
  -1  -5 -13    6.37    0.45
   1   5  13    7.00    0.33
   1   5  13    5.35    0.43
  -2  -5 -13    0.01    0.09
   2   5  13   -0.01    0.10
  -3  -5 -13    0.01    0.10
   3   5  13    0.22    0.12
  -4  -5 -13   -0.06    0.10
   4   5  13    0.06    0.11
  -5  -5 -13    0.21    0.16
   5   5  13    0.12    0.12
   2  -6 -13    0.00    0.09
  -2   6  13   -0.04    0.06
   1  -6 -13   -0.08    0.14
   1  -6 -13   -0.05    0.06
  -1   6  13   -0.01    0.07
   0  -6 -13    0.06    0.12
   0  -6 -13    0.11    0.07
   0   6  13    0.18    0.09
  -1  -6 -13    1.77    0.29
   1   6  13    1.36    0.27
   1   6  13    1.74    0.21
  -2  -6 -13    0.02    0.12
   2   6  13    0.11    0.12
  -3  -6 -13    0.09    0.15
   3   6  13   -0.11    0.09
  -4  -6 -13   -0.12    0.12
   4   6  13    0.24    0.15
  -5  -6 -13   -0.01    0.15
   5   6  13    0.08    0.14
   1  -7 -13    0.02    0.08
   1  -7 -13   -0.06    0.14
  -1   7  13    0.02    0.09
   0  -7 -13    0.15    0.13
   0  -7 -13   -0.07    0.05
   0   7  13   -0.04    0.08
  -1  -7 -13   -0.01    0.12
   1   7  13   -0.03    0.08
   1   7  13    0.02    0.12
  -2  -7 -13    0.73    0.23
   2   7  13    0.61    0.21
  -3  -7 -13    0.03    0.13
   3   7  13    0.10    0.13
  -4  -7 -13    0.18    0.16
   4   7  13    0.07    0.13
   0  -8 -13   -0.07    0.06
   0  -8 -13   -0.06    0.14
   0   8  13   -0.02    0.09
  -1  -8 -13    1.11    0.28
   1   8  13    1.72    0.23
  -2  -8 -13   -0.03    0.14
   2   8  13   -0.04    0.14
  -3  -8 -13    0.11    0.16
   3   8  13    0.08    0.15
   2   7 -14    0.08    0.15
   1   7 -14    0.00    0.11
  -1  -7  14    0.01    0.06
   0   7 -14    0.04    0.10
   0  -7  14    0.01    0.07
  -1   7 -14   -0.11    0.09
   1  -7  14   -0.03    0.09
   3   6 -14   -0.06    0.18
   2   6 -14    0.02    0.14
   1   6 -14    0.28    0.13
  -1  -6  14    0.46    0.10
   0   6 -14    0.31    0.13
   0  -6  14    0.05    0.07
  -1   6 -14    0.30    0.12
   1  -6  14    0.28    0.12
   1  -6  14    0.20    0.15
   2  -6  14    0.15    0.11
   2  -6  14   -0.11    0.13
   2  -6  14    0.06    0.15
   3   5 -14    0.05    0.16
   2   5 -14   -0.02    0.14
   2   5 -14    0.01    0.12
   1   5 -14    0.20    0.12
  -1  -5  14    0.61    0.11
   0   5 -14    0.96    0.18
   0  -5  14    1.01    0.15
   0  -5  14    1.24    0.27
  -1   5 -14    1.43    0.33
  -1   5 -14    1.54    0.20
   1  -5  14    1.02    0.25
   1  -5  14    1.47    0.19
   2  -5  14    0.39    0.12
   2  -5  14    0.24    0.16
   3  -5  14    0.09    0.14
   3  -5  14    0.22    0.16
   4   4 -14   -0.02    0.18
   3   4 -14    0.16    0.15
   2   4 -14    0.18    0.15
   2   4 -14    0.09    0.12
   1   4 -14    0.07    0.08
  -1  -4  14   -0.05    0.04
  -1  -4  14    0.12    0.13
   0   4 -14    0.98    0.18
   0  -4  14    0.87    0.14
   0  -4  14    1.34    0.28
  -1   4 -14    0.97    0.24
  -1   4 -14    1.11    0.16
   1  -4  14    1.14    0.25
   1  -4  14    1.11    0.17
   2  -4  14    1.50    0.20
   2  -4  14    1.82    0.32
   2  -4  14    1.72    0.29
   3  -4  14    0.27    0.17
   3  -4  14    0.15    0.14
   4  -4  14   -0.10    0.11
   4   3 -14    0.06    0.15
   3   3 -14    0.59    0.20
   3   3 -14    0.79    0.20
   2   3 -14    0.55    0.16
   2   3 -14    0.77    0.21
  -2  -3  14    0.70    0.09
   1   3 -14    0.14    0.10
  -1  -3  14    0.05    0.05
  -1  -3  14    0.09    0.06
  -1  -3  14    0.12    0.10
   0   3 -14    0.05    0.08
   0   3 -14    0.08    0.12
   0  -3  14    0.00    0.09
   0  -3  14    0.10    0.06
  -1   3 -14    0.88    0.23
  -1   3 -14    1.06    0.15
  -1   3 -14    0.40    0.20
   1  -3  14    0.82    0.19
   1  -3  14    0.77    0.20
   1  -3  14    0.90    0.14
   2  -3  14    2.31    0.31
   2  -3  14    1.88    0.21
   2  -3  14    1.33    0.28
   3  -3  14    0.37    0.18
   3  -3  14    0.03    0.11
   4  -3  14    0.04    0.16
   4  -3  14    0.19    0.14
   4   2 -14   -0.16    0.13
   3   2 -14    0.94    0.20
   3   2 -14    0.38    0.17
   2   2 -14    0.99    0.22
   2   2 -14    1.54    0.24
  -2  -2  14    1.27    0.12
  -2  -2  14    1.68    0.30
   1   2 -14    2.21    0.26
  -1  -2  14    1.92    0.18
  -1  -2  14    2.65    0.36
  -1  -2  14    2.30    0.16
   0   2 -14    0.30    0.10
   0  -2  14    0.29    0.13
   0  -2  14    0.13    0.07
  -1   2 -14    1.92    0.19
  -1   2 -14    1.92    0.30
  -1   2 -14    1.78    0.32
   1  -2  14    1.55    0.28
   1  -2  14    1.79    0.27
   1  -2  14    1.94    0.20
  -2   2 -14    0.18    0.12
   2  -2  14    0.45    0.11
   2  -2  14    0.40    0.17
   2  -2  14    0.32    0.13
   3  -2  14    0.12    0.11
   3  -2  14    0.19    0.16
   4  -2  14   -0.12    0.09
   4  -2  14   -0.16    0.11
   5  -2  14    0.25    0.14
   4   1 -14    0.14    0.17
   3   1 -14    0.04    0.14
   3   1 -14    0.10    0.12
   2   1 -14    1.40    0.28
   2   1 -14    1.14    0.20
  -2  -1  14    1.00    0.23
  -2  -1  14    1.41    0.13
   1   1 -14    5.84    0.35
  -1  -1  14    5.57    0.27
  -1  -1  14    6.36    0.46
   0   1 -14    0.03    0.06
   0  -1  14   -0.02    0.04
   0  -1  14    0.03    0.09
  -1   1 -14    8.85    0.36
  -1   1 -14    9.15    0.48
  -1   1 -14   10.82    0.65
   1  -1  14   10.47    0.56
   1  -1  14    7.94    0.56
   1  -1  14    9.40    0.39
  -2   1 -14    4.53    0.37
  -2   1 -14    4.46    0.42
   2  -1  14    3.67    0.38
   2  -1  14    3.87    0.46
   2  -1  14    4.68    0.26
  -3   1 -14   -0.04    0.10
   3  -1  14    0.04    0.09
   3  -1  14    0.02    0.15
  -4   1 -14    0.05    0.12
   4  -1  14    0.01    0.09
   4  -1  14    0.23    0.16
   5  -1  14    0.26    0.19
   5  -1  14    0.23    0.13
   4   0 -14    0.07    0.15
   4   0 -14    0.04    0.08
   3   0 -14    0.27    0.15
   3   0 -14    0.34    0.19
   2   0 -14   -0.02    0.11
   2   0 -14    0.07    0.09
  -2   0  14    0.14    0.11
  -2   0  14    0.08    0.05
   1   0 -14    0.07    0.08
  -1   0  14    0.06    0.11
  -1   0  14    0.04    0.05
   0   0 -14    2.06    0.21
   0   0 -14    1.94    0.23
   0   0 -14    2.57    0.38
   0   0  14    1.71    0.29
   0   0  14    2.15    0.20
   0   0  14    1.64    0.25
  -1   0 -14    1.74    0.25
  -1   0 -14    1.82    0.16
  -1   0 -14    1.81    0.31
   1   0  14    2.12    0.32
   1   0  14    2.22    0.29
   1   0  14    1.96    0.19
  -2   0 -14    5.97    0.42
   2   0  14    5.28    0.39
   2   0  14    5.93    0.30
   2   0  14    6.89    0.51
  -3   0 -14    0.14    0.12
   3   0  14    0.07    0.10
  -4   0 -14    0.63    0.20
   4   0  14    0.54    0.17
  -5   0 -14    0.03    0.15
   5   0  14   -0.07    0.09
   4  -1 -14    0.26    0.19
   4  -1 -14    0.23    0.10
   3  -1 -14    0.68    0.21
   3  -1 -14    1.37    0.23
   2  -1 -14    0.96    0.19
   2  -1 -14    1.08    0.24
  -2   1  14    1.26    0.13
  -2   1  14    1.39    0.26
   1  -1 -14    1.92    0.22
  -1   1  14    1.90    0.29
  -1   1  14    2.05    0.19
   0  -1 -14    2.65    0.39
   0  -1 -14    2.27    0.25
   0  -1 -14    2.01    0.20
   0   1  14    2.37    0.31
   0   1  14    2.26    0.20
   0   1  14    1.72    0.17
   0   1  14    1.90    0.30
  -1  -1 -14    0.09    0.13
  -1  -1 -14    0.15    0.05
  -1  -1 -14    0.16    0.11
   1   1  14    0.08    0.10
   1   1  14    0.21    0.08
   1   1  14    0.10    0.12
  -2  -1 -14    6.94    0.44
   2   1  14    6.51    0.44
   2   1  14    6.11    0.30
  -3  -1 -14    4.66    0.47
   3   1  14    4.70    0.36
  -4  -1 -14    0.38    0.17
   4   1  14    0.56    0.16
  -5  -1 -14    0.70    0.22
   5   1  14    0.74    0.18
   4  -2 -14    0.05    0.16
   3  -2 -14    0.06    0.07
   3  -2 -14    0.10    0.11
   3  -2 -14    0.02    0.14
   2  -2 -14    2.23    0.26
  -2   2  14    2.26    0.16
   1  -2 -14    2.02    0.23
  -1   2  14    1.77    0.18
  -1   2  14    2.32    0.33
   0  -2 -14    2.59    0.29
   0  -2 -14    2.83    0.20
   0   2  14    2.79    0.37
   0   2  14    2.70    0.19
   0   2  14    2.70    0.34
  -1  -2 -14    0.06    0.08
  -1  -2 -14    0.05    0.03
  -1  -2 -14   -0.06    0.08
  -1  -2 -14   -0.02    0.11
   1   2  14    0.00    0.08
   1   2  14   -0.04    0.05
  -2  -2 -14    0.01    0.09
  -2  -2 -14    0.01    0.10
   2   2  14    0.10    0.11
  -3  -2 -14    1.48    0.27
   3   2  14    1.80    0.26
  -4  -2 -14    0.31    0.17
   4   2  14    0.35    0.13
  -5  -2 -14    0.09    0.14
   5   2  14   -0.03    0.09
   3  -3 -14   -0.03    0.07
   3  -3 -14   -0.08    0.09
   2  -3 -14    1.81    0.24
  -2   3  14    1.92    0.18
   1  -3 -14    1.14    0.17
  -1   3  14    1.55    0.28
  -1   3  14    1.20    0.16
   0  -3 -14    8.56    0.47
   0  -3 -14    8.20    0.36
   0   3  14    7.04    0.50
   0   3  14    7.41    0.35
  -1  -3 -14    0.02    0.10
  -1  -3 -14    0.15    0.11
  -1  -3 -14    0.04    0.04
  -1  -3 -14   -0.05    0.08
   1   3  14    0.07    0.07
   1   3  14    0.02    0.06
   1   3  14   -0.06    0.08
  -2  -3 -14    0.42    0.17
  -2  -3 -14    0.52    0.18
   2   3  14    0.28    0.14
  -3  -3 -14    0.30    0.15
   3   3  14    0.24    0.13
  -4  -3 -14    0.12    0.14
   4   3  14   -0.08    0.08
  -5  -3 -14    0.25    0.20
   5   3  14    0.32    0.13
   3  -4 -14   -0.11    0.09
   2  -4 -14    0.01    0.08
  -2   4  14    0.02    0.06
   1  -4 -14    0.02    0.06
  -1   4  14    0.01    0.06
   0  -4 -14    1.71    0.26
   0  -4 -14    1.82    0.19
   0   4  14    2.21    0.22
  -1  -4 -14    0.10    0.12
  -1  -4 -14    0.21    0.11
  -1  -4 -14    0.01    0.03
   1   4  14    0.02    0.10
   1   4  14   -0.02    0.06
  -2  -4 -14    0.07    0.10
   2   4  14    0.04    0.11
  -3  -4 -14    2.13    0.34
   3   4  14    1.55    0.27
  -4  -4 -14    0.57    0.21
   4   4  14    0.72    0.18
  -5  -4 -14    0.06    0.15
   5   4  14    0.00    0.10
   2  -5 -14    0.10    0.11
  -2   5  14    0.04    0.07
   1  -5 -14    0.03    0.07
  -1   5  14   -0.07    0.07
   0  -5 -14    0.01    0.10
   0  -5 -14    0.02    0.06
   0   5  14    0.00    0.06
  -1  -5 -14    0.77    0.21
   1   5  14    0.48    0.12
   1   5  14    0.60    0.18
  -2  -5 -14    0.17    0.14
   2   5  14    0.31    0.14
  -3  -5 -14    0.75    0.24
   3   5  14    0.79    0.20
  -4  -5 -14    0.66    0.22
   4   5  14    1.06    0.23
  -5  -5 -14    0.13    0.17
   5   5  14   -0.04    0.11
   2  -6 -14    0.09    0.10
  -2   6  14    0.11    0.08
   1  -6 -14   -0.04    0.08
  -1   6  14   -0.05    0.08
   0  -6 -14    3.51    0.22
   0  -6 -14    3.85    0.43
   0   6  14    3.20    0.29
  -1  -6 -14    0.02    0.12
   1   6  14    0.11    0.09
   1   6  14    0.06    0.16
  -2  -6 -14    0.05    0.13
   2   6  14    0.14    0.14
  -3  -6 -14    0.44    0.21
   3   6  14    0.08    0.13
  -4  -6 -14    0.48    0.20
   4   6  14    0.35    0.17
   1  -7 -14    0.02    0.08
   1  -7 -14    0.11    0.15
  -1   7  14   -0.07    0.08
   0  -7 -14    2.37    0.21
   0  -7 -14    2.10    0.35
   0   7  14    2.45    0.27
  -1  -7 -14    0.50    0.20
   1   7  14    0.27    0.12
  -2  -7 -14    0.18    0.15
   2   7  14   -0.01    0.17
  -3  -7 -14    0.38    0.20
   3   7  14    0.09    0.14
  -4  -7 -14   -0.03    0.17
   4   7  14   -0.01    0.14
  -1  -8 -14    0.68    0.24
   1   8  14    1.04    0.19
  -2  -8 -14    0.19    0.19
   2   8  14    0.29    0.20
   1   7 -15    0.19    0.14
  -1  -7  15    0.22    0.08
   0   7 -15    0.11    0.13
   0  -7  15    0.38    0.11
   2   6 -15   -0.04    0.13
   1   6 -15    0.06    0.13
  -1  -6  15    0.13    0.08
   0   6 -15    0.11    0.11
   0  -6  15    0.29    0.10
  -1   6 -15    0.32    0.12
   1  -6  15    0.48    0.13
   1  -6  15    0.22    0.16
   2  -6  15    0.16    0.18
   2  -6  15   -0.03    0.08
   2  -6  15    0.05    0.15
   3   5 -15    0.18    0.18
   3   5 -15    0.17    0.16
   2   5 -15    0.02    0.12
   1   5 -15    0.15    0.12
  -1  -5  15    0.18    0.08
   0   5 -15   -0.03    0.08
   0  -5  15    0.10    0.14
   0  -5  15    0.05    0.06
  -1   5 -15    0.49    0.13
   1  -5  15    0.37    0.12
   1  -5  15    0.32    0.19
   2  -5  15   -0.10    0.13
   2  -5  15    0.03    0.08
   3  -5  15    0.27    0.19
   3  -5  15    0.28    0.16
   3   4 -15    0.33    0.19
   3   4 -15    0.08    0.14
   2   4 -15    0.04    0.11
   1   4 -15    0.02    0.10
  -1  -4  15    0.21    0.17
  -1  -4  15    0.09    0.07
  -1  -4  15    0.20    0.08
   0   4 -15    1.06    0.19
   0  -4  15    0.96    0.15
   0  -4  15    1.02    0.25
  -1   4 -15   -0.07    0.07
   1  -4  15    0.24    0.14
   1  -4  15    0.11    0.08
   2  -4  15   -0.08    0.12
   2  -4  15    0.07    0.09
   2  -4  15    0.01    0.10
   3  -4  15   -0.07    0.11
   3  -4  15   -0.11    0.12
   3   3 -15   -0.06    0.14
   3   3 -15    0.12    0.15
   2   3 -15    0.78    0.18
  -2  -3  15    0.92    0.10
   1   3 -15    0.22    0.11
  -1  -3  15    0.09    0.15
  -1  -3  15    0.07    0.06
  -1  -3  15    0.06    0.06
   0   3 -15    5.43    0.34
   0  -3  15    5.17    0.53
   0  -3  15    5.38    0.29
  -1   3 -15    3.20    0.41
  -1   3 -15    3.23    0.22
   1  -3  15    3.39    0.45
   1  -3  15    3.15    0.23
   2  -3  15    0.11    0.08
   2  -3  15    0.10    0.14
   2  -3  15    0.05    0.12
   3  -3  15    0.30    0.15
   3  -3  15    0.45    0.21
   4  -3  15    0.47    0.22
   4  -3  15    0.34    0.18
   4   2 -15    0.58    0.24
   3   2 -15    0.11    0.13
   3   2 -15    0.03    0.14
   2   2 -15    0.10    0.12
   2   2 -15    0.08    0.14
  -2  -2  15   -0.02    0.11
  -2  -2  15    0.06    0.05
   1   2 -15    0.05    0.08
  -1  -2  15    0.07    0.05
  -1  -2  15   -0.02    0.10
   0   2 -15    0.79    0.15
   0  -2  15    0.91    0.13
   0  -2  15    0.79    0.24
  -1   2 -15    4.99    0.49
  -1   2 -15    4.74    0.26
   1  -2  15    4.71    0.51
   1  -2  15    3.43    0.39
   1  -2  15    4.40    0.27
   2  -2  15    0.27    0.10
   2  -2  15    0.10    0.14
   2  -2  15    0.34    0.15
   3  -2  15    0.08    0.14
   3  -2  15    0.21    0.13
   4  -2  15   -0.10    0.14
   4  -2  15   -0.08    0.10
   4   1 -15    0.60    0.24
   3   1 -15    0.64    0.19
   3   1 -15    0.72    0.23
   2   1 -15    0.73    0.17
   2   1 -15    0.91    0.24
  -2  -1  15    0.62    0.20
  -2  -1  15    0.86    0.11
   1   1 -15    0.24    0.11
  -1  -1  15    0.15    0.12
  -1  -1  15    0.19    0.07
   0   1 -15    0.31    0.10
   0  -1  15    0.31    0.09
   0  -1  15    0.40    0.17
  -1   1 -15    3.16    0.20
  -1   1 -15    3.24    0.43
  -1   1 -15    3.33    0.33
   1  -1  15    3.19    0.42
   1  -1  15    3.05    0.22
   1  -1  15    3.98    0.41
  -2   1 -15    3.07    0.36
   2  -1  15    2.34    0.37
   2  -1  15    2.84    0.24
   2  -1  15    3.18    0.37
  -3   1 -15    0.99    0.24
   3  -1  15    0.65    0.18
   3  -1  15    0.40    0.18
  -4   1 -15    1.94    0.33
   4  -1  15    1.83    0.29
   4  -1  15    1.93    0.37
   5  -1  15    0.29    0.22
   4   0 -15   -0.05    0.17
   3   0 -15    1.88    0.29
   3   0 -15    1.04    0.28
   2   0 -15    1.41    0.22
  -2   0  15    1.17    0.26
  -2   0  15    1.44    0.14
   1   0 -15    0.04    0.08
  -1   0  15    0.11    0.06
  -1   0  15    0.15    0.15
   0   0 -15    0.17    0.08
   0   0  15    0.20    0.13
   0   0  15    0.27    0.08
  -1   0 -15    0.10    0.14
  -1   0 -15    0.01    0.08
  -1   0 -15    0.10    0.06
   1   0  15   -0.04    0.08
   1   0  15    0.04    0.07
   1   0  15   -0.05    0.12
  -2   0 -15    0.46    0.16
   2   0  15    0.65    0.13
   2   0  15    0.47    0.19
   2   0  15    1.08    0.22
  -3   0 -15    0.32    0.14
   3   0  15    0.81    0.24
   3   0  15    0.47    0.16
  -4   0 -15   -0.02    0.13
   4   0  15    0.25    0.18
   4   0  15   -0.03    0.10
  -5   0 -15    0.52    0.22
   5   0  15    0.36    0.15
   5   0  15    0.26    0.20
   3  -1 -15    1.35    0.29
   3  -1 -15    0.60    0.17
   2  -1 -15    1.29    0.22
  -2   1  15    1.05    0.13
  -2   1  15    2.35    0.35
   1  -1 -15    2.67    0.28
  -1   1  15    2.67    0.19
  -1   1  15    3.44    0.42
   0  -1 -15   -0.01    0.05
   0   1  15   -0.02    0.05
   0   1  15   -0.05    0.05
   0   1  15   -0.02    0.10
  -1  -1 -15    0.32    0.07
  -1  -1 -15    0.14    0.10
  -1  -1 -15    0.45    0.19
   1   1  15    0.38    0.15
   1   1  15    0.35    0.09
   1   1  15    0.18    0.11
  -2  -1 -15    1.59    0.27
   2   1  15    0.69    0.12
   2   1  15    0.91    0.21
  -3  -1 -15    0.30    0.16
   3   1  15    0.53    0.16
  -4  -1 -15    0.58    0.20
   4   1  15    0.43    0.15
  -5  -1 -15    0.39    0.22
   5   1  15    0.35    0.16
   3  -2 -15   -0.15    0.08
   2  -2 -15    0.12    0.09
  -2   2  15    0.06    0.05
   1  -2 -15    1.17    0.18
  -1   2  15    1.19    0.16
  -1   2  15    1.58    0.29
   0  -2 -15    0.47    0.15
   0  -2 -15    0.47    0.11
   0   2  15    0.36    0.09
   0   2  15    0.35    0.18
  -1  -2 -15    1.13    0.22
  -1  -2 -15    0.76    0.09
  -1  -2 -15    0.72    0.20
  -1  -2 -15    0.55    0.21
   1   2  15    0.60    0.12
   1   2  15    1.43    0.28
   1   2  15    0.47    0.16
  -2  -2 -15    3.58    0.40
   2   2  15    3.54    0.39
  -3  -2 -15    3.16    0.39
   3   2  15    3.07    0.36
  -4  -2 -15   -0.02    0.09
   4   2  15    0.02    0.09
  -5  -2 -15    0.29    0.20
   5   2  15    0.19    0.13
   3  -3 -15    0.01    0.10
   2  -3 -15    0.30    0.12
  -2   3  15    0.19    0.08
   1  -3 -15    0.05    0.07
  -1   3  15    0.24    0.15
  -1   3  15    0.01    0.06
   0  -3 -15    0.03    0.09
   0  -3 -15    0.08    0.06
   0   3  15    0.12    0.11
   0   3  15    0.00    0.05
  -1  -3 -15    0.05    0.04
  -1  -3 -15    0.00    0.11
  -1  -3 -15    0.28    0.14
   1   3  15   -0.08    0.11
   1   3  15   -0.04    0.06
   1   3  15    0.06    0.07
  -2  -3 -15    2.11    0.32
   2   3  15    1.77    0.28
  -3  -3 -15    2.95    0.39
   3   3  15    3.53    0.39
  -4  -3 -15    0.45    0.19
   4   3  15    0.35    0.15
  -5  -3 -15   -0.06    0.16
   5   3  15    0.04    0.12
   2  -4 -15    0.15    0.10
  -2   4  15    0.18    0.09
   1  -4 -15    3.90    0.29
  -1   4  15    4.19    0.27
   0  -4 -15    0.53    0.17
   0  -4 -15    0.46    0.11
   0   4  15    0.16    0.13
   0   4  15    0.17    0.08
  -1  -4 -15    0.10    0.04
  -1  -4 -15    0.14    0.10
   1   4  15    0.14    0.13
   1   4  15    0.09    0.08
  -2  -4 -15    0.91    0.24
   2   4  15    0.48    0.18
  -3  -4 -15    1.31    0.28
   3   4  15    1.34    0.25
  -4  -4 -15    1.50    0.33
   4   4  15    2.41    0.33
  -5  -4 -15    0.06    0.14
   5   4  15   -0.01    0.12
   2  -5 -15    0.10    0.11
  -2   5  15    0.02    0.07
   1  -5 -15    5.98    0.34
  -1   5  15    4.88    0.31
   0  -5 -15    0.82    0.22
   0  -5 -15    1.20    0.16
   0   5  15    0.94    0.16
  -1  -5 -15    0.69    0.20
   1   5  15    0.39    0.11
   1   5  15    0.59    0.20
  -2  -5 -15    0.21    0.14
   2   5  15    0.19    0.14
  -3  -5 -15   -0.06    0.10
   3   5  15    0.03    0.12
  -4  -5 -15    0.50    0.22
   4   5  15    0.62    0.20
   1  -6 -15    0.63    0.14
  -1   6  15    0.36    0.12
   0  -6 -15    1.11    0.15
   0  -6 -15    1.11    0.25
   0   6  15    1.33    0.19
  -1  -6 -15    1.09    0.27
   1   6  15    0.68    0.15
  -2  -6 -15    0.28    0.17
   2   6  15    0.21    0.16
  -3  -6 -15    0.39    0.18
   3   6  15    0.42    0.18
  -4  -6 -15    0.06    0.17
   4   6  15   -0.19    0.11
   0  -7 -15    1.60    0.17
   0  -7 -15    2.39    0.39
   0   7  15    1.78    0.24
  -1  -7 -15    0.04    0.15
   1   7  15    0.12    0.11
  -2  -7 -15   -0.19    0.09
   2   7  15    0.04    0.16
  -3  -7 -15    0.34    0.20
   3   7  15    0.24    0.18
   1   6 -16    0.52    0.18
  -1  -6  16    0.32    0.09
  -1  -6  16    0.21    0.09
   0   6 -16    0.00    0.12
   0  -6  16    0.03    0.07
  -1   6 -16   -0.03    0.09
   1  -6  16    0.01    0.09
   1  -6  16   -0.19    0.13
   2   5 -16    0.14    0.14
   1   5 -16    1.60    0.26
  -1  -5  16    2.04    0.20
  -1  -5  16    1.77    0.18
   0   5 -16    0.45    0.15
   0  -5  16    0.64    0.14
   0  -5  16    0.33    0.19
  -1   5 -16   -0.03    0.08
   1  -5  16    0.13    0.10
   1  -5  16    0.09    0.15
   2  -5  16    0.24    0.17
   2  -5  16    0.26    0.11
   3   4 -16    0.09    0.15
   2   4 -16   -0.01    0.11
   1   4 -16    0.26    0.13
  -1  -4  16    0.48    0.10
  -1  -4  16    0.44    0.10
  -1  -4  16    0.44    0.19
   0   4 -16    0.76    0.16
   0  -4  16    1.01    0.16
   0  -4  16    1.15    0.27
  -1   4 -16    0.06    0.07
   1  -4  16   -0.01    0.07
   1  -4  16   -0.06    0.13
   2  -4  16   -0.02    0.08
   2  -4  16   -0.02    0.15
   3  -4  16    0.16    0.19
   3  -4  16    0.27    0.17
   3   3 -16    0.25    0.17
   3   3 -16    0.37    0.21
   2   3 -16    0.08    0.12
  -2  -3  16    0.16    0.06
   1   3 -16    0.06    0.10
  -1  -3  16   -0.03    0.10
  -1  -3  16    0.03    0.05
  -1  -3  16    0.06    0.07
   0   3 -16    1.01    0.18
   0  -3  16    1.14    0.16
   0  -3  16    1.51    0.30
  -1   3 -16    0.38    0.10
   1  -3  16    0.35    0.17
   1  -3  16    0.17    0.10
   2  -3  16    0.14    0.11
   2  -3  16    0.37    0.20
   2  -3  16    0.39    0.16
   3  -3  16    2.22    0.35
   3  -3  16    2.27    0.40
   3   2 -16    0.91    0.27
   3   2 -16    0.48    0.20
   2   2 -16    0.01    0.10
  -2  -2  16    0.04    0.15
  -2  -2  16    0.07    0.05
   1   2 -16   -0.01    0.09
  -1  -2  16    0.05    0.06
  -1  -2  16    0.22    0.14
   0   2 -16    0.02    0.08
   0  -2  16   -0.03    0.06
   0  -2  16   -0.01    0.11
  -1   2 -16    0.04    0.06
  -1   2 -16    0.02    0.12
   1  -2  16    0.02    0.12
   1  -2  16    0.02    0.07
   2  -2  16    0.04    0.12
   2  -2  16    0.07    0.08
   2  -2  16    0.24    0.16
   3  -2  16    0.38    0.17
   3  -2  16    0.61    0.23
   4  -2  16    0.61    0.26
   4  -2  16    0.34    0.16
   3   1 -16   -0.08    0.14
   3   1 -16    0.16    0.14
   2   1 -16    0.56    0.16
  -2  -1  16    0.63    0.20
  -2  -1  16    0.95    0.11
   1   1 -16    0.38    0.14
  -1  -1  16    0.20    0.16
  -1  -1  16    0.15    0.07
   0   1 -16    0.88    0.16
   0  -1  16    0.99    0.25
   0  -1  16    1.01    0.15
  -1   1 -16    0.70    0.19
  -1   1 -16    0.84    0.12
   1  -1  16    0.61    0.20
   1  -1  16    0.82    0.22
   1  -1  16    0.90    0.15
  -2   1 -16    0.84    0.21
   2  -1  16    0.97    0.25
   2  -1  16    1.01    0.23
   2  -1  16    0.70    0.13
  -3   1 -16    0.01    0.12
   3  -1  16   -0.01    0.16
   3  -1  16    0.08    0.12
  -4   1 -16    0.56    0.23
   4  -1  16    0.43    0.16
   4  -1  16    0.23    0.21
   3   0 -16    0.13    0.14
   2   0 -16    0.36    0.14
  -2   0  16    0.03    0.12
  -2   0  16    0.15    0.06
   1   0 -16    0.48    0.13
  -1   0  16    0.34    0.09
  -1   0  16    0.51    0.20
   0   0 -16    3.62    0.26
   0   0  16    2.76    0.24
   0   0  16    3.33    0.23
   0   0  16    3.43    0.44
  -1   0 -16    3.32    0.20
  -1   0 -16    3.53    0.36
   1   0  16    3.31    0.23
   1   0  16    3.15    0.43
   1   0  16    3.70    0.41
  -2   0 -16    4.58    0.45
   2   0  16    3.82    0.42
   2   0  16    3.67    0.25
   2   0  16    3.60    0.47
  -3   0 -16    0.02    0.13
   3   0  16    0.09    0.17
   3   0  16   -0.02    0.10
  -4   0 -16    0.14    0.14
   4   0  16    0.27    0.21
   4   0  16    0.26    0.15
   3  -1 -16    0.46    0.17
   2  -1 -16    0.11    0.11
  -2   1  16    0.23    0.15
  -2   1  16    0.02    0.05
   1  -1 -16   -0.06    0.06
  -1   1  16   -0.03    0.13
  -1   1  16    0.04    0.05
   0  -1 -16    0.11    0.07
   0   1  16    0.07    0.07
   0   1  16    0.12    0.14
  -1  -1 -16    3.02    0.35
  -1  -1 -16    3.20    0.18
   1   1  16    2.72    0.35
   1   1  16    2.74    0.40
   1   1  16    2.20    0.22
  -2  -1 -16    5.07    0.48
   2   1  16    4.48    0.45
   2   1  16    4.89    0.54
   2   1  16    3.99    0.26
  -3  -1 -16    0.44    0.17
   3   1  16    0.08    0.13
  -4  -1 -16    0.22    0.15
   4   1  16    0.18    0.13
   3  -2 -16    0.07    0.11
   2  -2 -16    2.92    0.32
  -2   2  16    3.27    0.20
   1  -2 -16    0.56    0.13
  -1   2  16    0.83    0.14
  -1   2  16    0.42    0.18
   0  -2 -16    0.03    0.06
   0   2  16    0.02    0.13
   0   2  16    0.07    0.07
  -1  -2 -16    0.91    0.21
  -1  -2 -16    1.10    0.12
   1   2  16    1.55    0.32
   1   2  16    1.05    0.16
   1   2  16    1.44    0.26
  -2  -2 -16    2.41    0.35
   2   2  16    1.89    0.30
   2   2  16    2.30    0.23
  -3  -2 -16    2.14    0.35
   3   2  16    2.26    0.33
  -4  -2 -16    0.06    0.14
   4   2  16   -0.15    0.10
   2  -3 -16    4.93    0.35
  -2   3  16    5.02    0.27
   1  -3 -16    0.89    0.17
  -1   3  16    1.07    0.26
  -1   3  16    1.02    0.15
   0  -3 -16    0.19    0.09
   0   3  16    0.09    0.15
   0   3  16    0.07    0.07
  -1  -3 -16    0.20    0.05
  -1  -3 -16    0.16    0.14
   1   3  16    0.17    0.09
   1   3  16    0.06    0.13
  -2  -3 -16   -0.07    0.10
   2   3  16    0.00    0.12
  -3  -3 -16    1.51    0.31
   3   3  16    1.10    0.24
  -4  -3 -16    0.16    0.14
   4   3  16    0.26    0.15
   2  -4 -16    0.59    0.16
  -2   4  16    0.56    0.12
   1  -4 -16    0.49    0.13
  -1   4  16    0.18    0.09
   0  -4 -16    0.47    0.11
   0   4  16    0.33    0.18
   0   4  16    0.47    0.12
  -1  -4 -16    1.52    0.27
   1   4  16    1.38    0.27
   1   4  16    1.42    0.19
  -2  -4 -16    1.66    0.32
   2   4  16    0.81    0.23
  -3  -4 -16    0.07    0.13
   3   4  16   -0.03    0.10
  -4  -4 -16   -0.01    0.14
   4   4  16    0.12    0.15
   1  -5 -16    2.24    0.26
  -1   5  16    1.72    0.22
   0  -5 -16    0.10    0.08
   0  -5 -16    0.32    0.17
   0   5  16    0.12    0.09
   0   5  16   -0.03    0.14
  -1  -5 -16    0.38    0.18
   1   5  16    0.37    0.12
  -2  -5 -16    0.82    0.23
   2   5  16    1.35    0.29
  -3  -5 -16    0.48    0.21
   3   5  16    0.54    0.20
  -4  -5 -16   -0.06    0.17
   4   5  16   -0.03    0.12
   0  -6 -16    0.15    0.08
   0  -6 -16    0.18    0.16
   0   6  16    0.36    0.12
  -1  -6 -16   -0.02    0.14
   1   6  16    0.17    0.11
  -2  -6 -16    0.84    0.25
   2   6  16    1.48    0.32
  -3  -6 -16    0.91    0.27
   3   6  16    1.05    0.27
  -1  -7 -16   -0.14    0.16
  -2  -7 -16    0.20    0.15
   1   5 -17    0.10    0.12
  -1  -5  17    0.28    0.09
  -1  -5  17    0.03    0.07
   0   5 -17    0.10    0.11
   0  -5  17    0.24    0.17
   0  -5  17   -0.02    0.07
  -1   5 -17    0.05    0.09
   1  -5  17   -0.16    0.16
   1  -5  17   -0.04    0.08
   2   4 -17    0.01    0.14
   1   4 -17    0.06    0.12
  -1  -4  17   -0.03    0.18
  -1  -4  17    0.11    0.07
   0   4 -17    0.10    0.10
   0  -4  17    0.26    0.19
   0  -4  17    0.08    0.08
  -1   4 -17    0.03    0.08
   1  -4  17    0.03    0.08
   1  -4  17    0.11    0.13
   2  -4  17    0.75    0.15
   2  -4  17    0.31    0.22
   2   3 -17   -0.04    0.12
   1   3 -17    0.58    0.16
  -1  -3  17    0.43    0.20
  -1  -3  17    0.83    0.14
   0   3 -17    0.45    0.14
   0  -3  17    0.66    0.13
   0  -3  17    0.63    0.22
  -1   3 -17    0.45    0.12
   1  -3  17    0.17    0.16
   1  -3  17    0.46    0.12
   2  -3  17   -0.18    0.14
   2  -3  17    0.04    0.08
   3  -3  17    0.09    0.12
   3  -3  17    0.04    0.15
   3   2 -17    0.02    0.14
   2   2 -17    0.12    0.13
  -2  -2  17    0.46    0.21
  -2  -2  17    0.34    0.08
   1   2 -17    0.76    0.19
  -1  -2  17    0.92    0.14
  -1  -2  17    0.83    0.24
   0   2 -17    2.45    0.26
   0  -2  17    2.18    0.22
   0  -2  17    1.71    0.32
  -1   2 -17    2.34    0.21
   1  -2  17    2.35    0.24
   1  -2  17    2.41    0.41
   2  -2  17    0.01    0.12
   2  -2  17    0.02    0.14
   2  -2  17    0.03    0.08
   3  -2  17    0.20    0.18
   3  -2  17    0.02    0.14
   3   1 -17    0.02    0.13
   2   1 -17   -0.03    0.12
  -2  -1  17    0.29    0.08
  -2  -1  17    0.63    0.22
   1   1 -17    0.03    0.09
  -1  -1  17    0.00    0.06
  -1  -1  17    0.00    0.15
   0   1 -17    1.11    0.18
   0  -1  17    1.23    0.29
   0  -1  17    1.46    0.18
  -1   1 -17    3.95    0.23
   1  -1  17    3.80    0.26
   1  -1  17    3.58    0.48
  -2   1 -17    0.03    0.12
   2  -1  17   -0.10    0.07
   2  -1  17    0.05    0.14
   2  -1  17   -0.05    0.09
  -3   1 -17    0.02    0.14
   3  -1  17    0.27    0.19
   3  -1  17    0.34    0.16
  -4   1 -17    0.59    0.22
   4  -1  17    1.05    0.25
   4  -1  17    1.05    0.30
   3   0 -17    0.70    0.20
   2   0 -17    0.68    0.18
  -2   0  17    1.05    0.25
  -2   0  17    0.62    0.10
   1   0 -17    0.03    0.08
  -1   0  17   -0.01    0.11
  -1   0  17   -0.02    0.06
   0   0 -17    0.06    0.08
   0   0  17    0.03    0.07
   0   0  17    0.07    0.14
   0   0  17   -0.01    0.07
  -1   0 -17    1.97    0.18
   1   0  17    1.58    0.33
   1   0  17    2.02    0.22
  -2   0 -17    1.05    0.24
   2   0  17    1.13    0.26
   2   0  17    0.83    0.15
   2   0  17    0.94    0.27
  -3   0 -17    0.28    0.15
   3   0  17    0.43    0.18
   3   0  17    0.14    0.19
  -4   0 -17    1.29    0.30
   4   0  17    0.50    0.24
   4   0  17    1.34    0.27
   2  -1 -17    0.20    0.11
  -2   1  17    0.15    0.17
  -2   1  17    0.27    0.08
   1  -1 -17    0.18    0.10
  -1   1  17    0.22    0.18
  -1   1  17    0.08    0.07
   0  -1 -17    0.61    0.13
   0   1  17    0.32    0.10
   0   1  17    0.24    0.14
  -1  -1 -17    0.04    0.12
  -1  -1 -17    0.15    0.06
   1   1  17    0.04    0.13
   1   1  17   -0.12    0.13
   1   1  17    0.14    0.08
  -2  -1 -17    1.79    0.30
   2   1  17    1.23    0.26
   2   1  17    1.63    0.20
   2   1  17    1.31    0.32
  -3  -1 -17    0.53    0.18
   3   1  17    0.28    0.19
   3   1  17    0.27    0.15
  -4  -1 -17    0.77    0.26
   4   1  17    0.61    0.21
   2  -2 -17    0.02    0.10
  -2   2  17    0.08    0.06
   1  -2 -17    0.08    0.08
  -1   2  17    0.07    0.16
  -1   2  17    0.10    0.07
   0  -2 -17    1.89    0.21
   0   2  17    1.61    0.20
   0   2  17    2.56    0.40
  -1  -2 -17    2.67    0.15
  -1  -2 -17    2.42    0.33
   1   2  17    3.00    0.43
   1   2  17    2.84    0.26
   1   2  17    2.58    0.25
  -2  -2 -17    0.03    0.10
   2   2  17    0.01    0.08
   2   2  17   -0.09    0.12
   2   2  17    0.19    0.16
  -3  -2 -17    0.43    0.20
   3   2  17    0.70    0.21
  -4  -2 -17    0.13    0.14
   4   2  17    0.49    0.18
   2  -3 -17    0.78    0.18
  -2   3  17    0.80    0.13
   1  -3 -17    0.00    0.07
  -1   3  17   -0.07    0.15
  -1   3  17    0.00    0.07
   0  -3 -17    1.11    0.16
   0   3  17    0.79    0.15
   0   3  17    0.76    0.25
  -1  -3 -17    2.75    0.36
   1   3  17    2.04    0.38
   1   3  17    2.53    0.25
  -2  -3 -17    0.90    0.25
   2   3  17    1.05    0.17
   2   3  17    0.94    0.24
  -3  -3 -17   -0.08    0.13
   3   3  17    0.01    0.13
  -4  -3 -17   -0.03    0.13
   4   3  17   -0.02    0.12
   1  -4 -17    0.06    0.09
  -1   4  17    0.04    0.08
   0  -4 -17    0.19    0.09
   0   4  17    0.27    0.19
   0   4  17    0.13    0.10
  -1  -4 -17    2.94    0.39
   1   4  17    2.04    0.23
  -2  -4 -17    0.93    0.25
   2   4  17    1.71    0.31
  -3  -4 -17    0.20    0.17
   3   4  17    0.21    0.16
  -4  -4 -17    0.34    0.23
   4   4  17    0.09    0.16
   1  -5 -17    0.00    0.08
  -1   5  17   -0.07    0.08
   0  -5 -17    0.06    0.07
   0   5  17    0.04    0.08
   0   5  17    0.12    0.16
  -1  -5 -17    0.34    0.19
   1   5  17    0.34    0.13
  -2  -5 -17    1.27    0.29
   2   5  17    0.74    0.22
  -3  -5 -17    0.29    0.17
   3   5  17    0.21    0.18
  -1  -6 -17    0.14    0.18
   1   6  17   -0.03    0.10
  -2  -6 -17    0.57    0.23
   2   6  17    0.68    0.25
   1   4 -18    0.25    0.14
  -1  -4  18    0.30    0.10
  -1  -4  18    0.24    0.17
   0   4 -18    1.00    0.19
   0  -4  18    1.27    0.33
   0  -4  18    0.56    0.14
  -1   4 -18    0.01    0.08
   1  -4  18    0.02    0.09
   1  -4  18    0.14    0.17
   1   3 -18    0.07    0.10
  -1  -3  18    0.08    0.08
  -1  -3  18    0.26    0.17
   0   3 -18    0.93    0.18
   0  -3  18    1.04    0.17
   0  -3  18    0.54    0.22
  -1   3 -18    0.05    0.07
   1  -3  18    0.06    0.08
   1  -3  18    0.15    0.17
   2  -3  18    0.22    0.12
   2  -3  18    0.15    0.17
   2   2 -18    0.16    0.14
  -2  -2  18   -0.03    0.15
   1   2 -18   -0.04    0.10
  -1  -2  18    0.08    0.07
  -1  -2  18    0.01    0.13
   0   2 -18    0.10    0.09
   0  -2  18    0.10    0.07
   0  -2  18   -0.08    0.11
  -1   2 -18    0.07    0.07
   1  -2  18    0.08    0.09
   1  -2  18   -0.06    0.13
   2  -2  18    0.43    0.21
   2  -2  18    0.13    0.10
   3  -2  18    2.24    0.44
   3  -2  18    2.14    0.37
   2   1 -18    0.01    0.10
  -2  -1  18   -0.06    0.05
  -2  -1  18    0.09    0.17
   1   1 -18    0.09    0.10
  -1  -1  18    0.16    0.08
  -1  -1  18    0.17    0.19
   0   1 -18    0.11    0.10
   0  -1  18    0.15    0.09
   0  -1  18    0.14    0.09
   0  -1  18    0.25    0.17
  -1   1 -18    0.35    0.09
   1  -1  18    0.24    0.18
   1  -1  18    0.32    0.11
  -2   1 -18   -0.05    0.12
   2  -1  18    0.11    0.14
   2  -1  18    0.18    0.10
   2  -1  18   -0.02    0.13
  -3   1 -18    0.58    0.22
   3  -1  18    1.07    0.31
   3  -1  18    1.21    0.28
   2   0 -18    0.23    0.12
  -2   0  18    0.27    0.17
  -2   0  18    0.22    0.08
   1   0 -18    1.06    0.19
  -1   0  18    1.09    0.16
  -1   0  18    0.87    0.27
   0   0 -18    1.45    0.20
   0   0  18    1.41    0.18
   0   0  18    1.69    0.21
   0   0  18    1.49    0.31
  -1   0 -18    0.18    0.08
   1   0  18    0.18    0.09
   1   0  18    0.02    0.16
  -2   0 -18    0.81    0.22
   2   0  18    0.55    0.14
   2   0  18    0.69    0.23
   2   0  18    0.69    0.26
  -3   0 -18    0.34    0.18
   3   0  18    0.11    0.21
   3   0  18    0.30    0.17
   2  -1 -18   -0.03    0.10
  -2   1  18    0.01    0.06
   1  -1 -18    1.69    0.24
  -1   1  18    1.88    0.36
  -1   1  18    2.23    0.23
   0  -1 -18    2.30    0.24
   0   1  18    2.26    0.23
   0   1  18    1.51    0.33
  -1  -1 -18    1.01    0.12
   1   1  18    0.97    0.16
   1   1  18    0.87    0.28
  -2  -1 -18   -0.02    0.13
   2   1  18   -0.06    0.08
   2   1  18    0.09    0.13
   2   1  18   -0.15    0.13
  -3  -1 -18    0.01    0.10
   3   1  18    0.08    0.16
   3   1  18    0.07    0.13
   1  -2 -18    0.51    0.14
  -1   2  18    1.02    0.29
  -1   2  18    0.47    0.12
   0  -2 -18    3.94    0.27
   0   2  18    3.78    0.51
   0   2  18    2.56    0.26
   1   2  18    1.19    0.18
   1   2  18    1.14    0.18
   1   2  18    0.78    0.25
  -2  -2 -18   -0.05    0.14
   2   2  18   -0.02    0.17
   2   2  18   -0.08    0.13
   2   2  18    0.12    0.09
  -3  -2 -18    0.04    0.13
   3   2  18    0.05    0.14
   1  -3 -18   -0.03    0.08
  -1   3  18   -0.02    0.07
   0  -3 -18    0.40    0.11
   0   3  18    0.45    0.13
   0   3  18    0.07    0.18
   1   3  18    0.98    0.27
   1   3  18    0.82    0.16
  -2  -3 -18   -0.01    0.15
   2   3  18    0.16    0.10
   2   3  18    0.06    0.16
  -3  -3 -18    0.05    0.13
   3   3  18   -0.02    0.15
   0  -4 -18    0.13    0.09
   0   4  18    0.28    0.11
   0   4  18    0.25    0.21
  -1  -4 -18    0.15    0.16
   1   4  18    0.48    0.24
   1   4  18    0.01    0.10
  -2  -4 -18   -0.19    0.15
   2   4  18   -0.01    0.09
   2   4  18   -0.12    0.15
   2   4  18    0.07    0.09
  -3  -4 -18   -0.14    0.15
   3   4  18    0.10    0.17
  -1  -5 -18    0.88    0.25
   1   5  18    0.36    0.13
  -2  -5 -18    0.05    0.18
   2   5  18    0.18    0.19
   0   3 -19   -0.02    0.09
   0  -3  19    0.04    0.17
   0  -3  19    0.07    0.08
  -1   3 -19    0.28    0.10
   1  -3  19    0.06    0.17
   1  -3  19    0.44    0.14
   1   2 -19    0.59    0.18
  -1  -2  19    0.46    0.12
  -1  -2  19    0.73    0.25
   0   2 -19   -0.02    0.09
   0  -2  19    0.05    0.08
   0  -2  19    0.01    0.08
   0  -2  19   -0.23    0.16
  -1   2 -19    0.75    0.13
   1  -2  19    0.87    0.16
   1  -2  19    0.65    0.26
   2  -2  19    0.60    0.26
   2  -2  19    0.27    0.12
   1   1 -19    2.14    0.28
  -1  -1  19    2.42    0.42
  -1  -1  19    1.55    0.18
   0   1 -19    0.13    0.10
   0  -1  19    0.04    0.16
   0  -1  19   -0.02    0.07
   0  -1  19    0.01    0.08
  -1   1 -19    0.04    0.07
   1  -1  19    0.00    0.15
   1  -1  19   -0.09    0.07
   2  -1  19    0.04    0.09
   2  -1  19   -0.09    0.13
   1   0 -19    2.17    0.28
  -1   0  19    2.19    0.39
  -1   0  19    2.03    0.21
   0   0 -19    0.68    0.15
   0   0  19    0.50    0.23
   0   0  19    0.46    0.12
   1   0  19   -0.02    0.13
   1   0  19    0.08    0.09
  -2   0 -19    0.21    0.16
   2   0  19    0.02    0.09
   2   0  19    0.11    0.19
   3   0  19    0.12    0.20
   1  -1 -19    0.08    0.10
  -1   1  19   -0.05    0.14
  -1   1  19   -0.03    0.07
   0  -1 -19    0.70    0.15
   0   1  19    0.52    0.13
   0   1  19    0.65    0.27
   1   1  19    0.05    0.09
   1   1  19    0.23    0.21
   1   1  19   -0.03    0.09
  -2  -1 -19    0.25    0.18
   2   1  19    0.14    0.10
   2   1  19    0.01    0.14
   2   1  19    0.53    0.24
  -3  -1 -19    0.44    0.20
   3   1  19    0.73    0.24
   3   1  19    0.88    0.30
   1  -2 -19    0.78    0.17
  -1   2  19    0.40    0.23
  -1   2  19    0.96    0.16
   0  -2 -19    0.22    0.10
   0   2  19    0.33    0.18
   0   2  19    0.25    0.10
   1   2  19    0.08    0.09
   1   2  19   -0.05    0.08
   1   2  19    0.02    0.17
  -2  -2 -19    0.25    0.17
   2   2  19    0.25    0.20
   2   2  19    0.20    0.19
   2   2  19    0.06    0.09
   3   2  19    0.41    0.25
   0  -3 -19    0.92    0.15
   0   3  19    0.78    0.27
   0   3  19    0.86    0.17
   1   3  19    1.29    0.20
   1   3  19    0.79    0.29
  -2  -3 -19    0.08    0.14
   2   3  19    0.06    0.16
   2   3  19    0.02    0.09
   2   3  19    0.25    0.20
   2   3  19   -0.01    0.10
   1   4  19    0.33    0.22
   1  -1  20    0.20    0.17
   0   0  20    0.02    0.19
   1   0  20    0.02    0.17
   1   0  20    0.08    0.09
   1   1  20    0.10    0.20
   1   1  20    0.04    0.09
   1   1  20    0.07    0.09
   0   0   0    0.00    0.00
;
_shelx_hkl_checksum              85928
loop_
_space_group_symop_operation_xyz
'x, y, z'
'-x, -y, -z'
loop_
_atom_site_label
_atom_site_type_symbol
_atom_site_fract_x
_atom_site_fract_y
_atom_site_fract_z
_atom_site_U_iso_or_equiv
_atom_site_adp_type
_atom_site_occupancy
_atom_site_site_symmetry_order
_atom_site_calc_flag
_atom_site_refinement_flags_posn
_atom_site_refinement_flags_adp
_atom_site_refinement_flags_occupancy
_atom_site_disorder_assembly
_atom_site_disorder_group
S2 S 0.55251(11) 1.07921(6) 0.27279(3) 0.0606(2) Uani 1 1 d . . . . .
S1 S 0.30993(11) 1.15337(7) 0.10271(3) 0.0654(2) Uani 1 1 d . . . . .
C2 C 1.4703(5) 0.6474(3) 0.33679(18) 0.0712(7) Uani 1 1 d . . . . .
O1 O 1.0844(3) 0.8266(2) 0.32722(11) 0.0739(5) Uani 1 1 d . . . . .
C10 C 0.2578(5) 1.2193(3) 0.30680(15) 0.0627(6) Uani 1 1 d . . . . .
C9 C 0.5369(4) 1.0544(2) 0.16062(12) 0.0493(5) Uani 1 1 d . . . . .
N2 N 0.7314(3) 0.9426(2) 0.12255(11) 0.0534(4) Uani 1 1 d . . . . .
N1 N 0.9148(3) 0.86418(18) 0.17332(10) 0.0503(4) Uani 1 1 d . . . . .
C7 C 1.0988(4) 0.7526(2) 0.13873(13) 0.0505(5) Uani 1 1 d . . . . .
C6 C 1.2921(4) 0.6783(2) 0.19641(13) 0.0501(5) Uani 1 1 d . . . . .
C1 C 1.2786(4) 0.7182(2) 0.28584(14) 0.0555(5) Uani 1 1 d . . . . .
C3 C 1.6740(5) 0.5359(3) 0.30090(19) 0.0748(7) Uani 1 1 d . . . . .
C4 C 1.6924(5) 0.4933(3) 0.21368(18) 0.0719(7) Uani 1 1 d . . . . .
C5 C 1.5045(4) 0.5629(3) 0.16308(17) 0.0616(6) Uani 1 1 d . . . . .
C8 C 1.1194(5) 0.6990(3) 0.04549(16) 0.0877(8) Uani 1 1 d . . . . .
H8A H 0.952451 0.696677 0.029551 0.132 Uiso 1 1 calc R U . . .
H8B H 1.223926 0.592676 0.039559 0.132 Uiso 1 1 calc R U . . .
H8C H 1.194981 0.773171 0.007083 0.132 Uiso 1 1 calc R U . . .
C11 C 0.2082(7) 1.2144(5) 0.4034(2) 0.1301(15) Uani 1 1 d . . . . .
H11 H 0.376561 1.152873 0.414585 0.156 Uiso 1 1 calc R U . . .
C12B C 0.1754(11) 1.2900(9) 0.4632(3) 0.1238(19) Uani 0.7 1 d . . P . .
H12A H 0.085730 1.258283 0.514444 0.149 Uiso 0.7 1 calc R U P . .
H12B H 0.237535 1.385504 0.462343 0.149 Uiso 0.7 1 calc R U P . .
C12A C 0.109(3) 1.1741(16) 0.4577(7) 0.131(6) Uani 0.3 1 d . . P . .
H12C H 0.076470 1.233589 0.509648 0.157 Uiso 0.3 1 calc R U P . .
H12D H 0.050722 1.077691 0.455235 0.157 Uiso 0.3 1 calc R U P . .
H3 H 1.800(5) 0.492(3) 0.3347(16) 0.072(7) Uiso 1 1 d . . . . .
H4 H 1.845(5) 0.416(3) 0.1828(17) 0.083(7) Uiso 1 1 d . . . . .
H5 H 1.518(5) 0.540(3) 0.1015(17) 0.082(8) Uiso 1 1 d . . . . .
H2 H 1.452(5) 0.674(3) 0.3916(18) 0.085(8) Uiso 1 1 d . . . . .
H2A H 0.722(4) 0.927(2) 0.0643(15) 0.061(6) Uiso 1 1 d . . . . .
H1 H 1.001(5) 0.854(3) 0.2936(18) 0.077(9) Uiso 1 1 d . . . . .
H10A H 0.131(5) 1.181(3) 0.2799(15) 0.075(7) Uiso 1 1 d . . . . .
H10B H 0.281(5) 1.311(3) 0.2833(17) 0.077(8) Uiso 1 1 d . . . . .
loop_
_atom_site_aniso_label
_atom_site_aniso_U_11
_atom_site_aniso_U_22
_atom_site_aniso_U_33
_atom_site_aniso_U_23
_atom_site_aniso_U_13
_atom_site_aniso_U_12
S2 0.0596(4) 0.0661(3) 0.0471(3) -0.0074(2) -0.0073(2) 0.0117(3)
S1 0.0647(4) 0.0707(4) 0.0518(3) -0.0094(2) -0.0131(3) 0.0139(3)
C2 0.0682(16) 0.0757(15) 0.0667(15) -0.0022(12) -0.0189(13) -0.0005(12)
O1 0.0681(11) 0.0882(12) 0.0556(9) -0.0191(8) -0.0140(9) 0.0148(9)
C10 0.0621(15) 0.0657(15) 0.0507(12) -0.0082(11) -0.0010(11) 0.0089(12)
C9 0.0492(11) 0.0466(10) 0.0494(10) -0.0027(8) -0.0036(9) -0.0036(9)
N2 0.0530(10) 0.0563(9) 0.0456(9) -0.0054(7) -0.0060(8) 0.0030(8)
N1 0.0484(9) 0.0497(9) 0.0487(9) -0.0024(7) -0.0044(8) 0.0000(7)
C7 0.0474(11) 0.0501(10) 0.0512(11) -0.0059(8) 0.0001(9) -0.0050(9)
C6 0.0463(11) 0.0456(10) 0.0565(11) -0.0025(8) -0.0022(9) -0.0060(9)
C1 0.0509(12) 0.0527(11) 0.0607(12) -0.0047(9) -0.0070(10) -0.0039(9)
C3 0.0575(15) 0.0706(15) 0.093(2) 0.0056(13) -0.0230(14) 0.0037(12)
C4 0.0536(14) 0.0653(14) 0.0891(18) -0.0008(13) -0.0061(14) 0.0059(12)
C5 0.0558(13) 0.0558(12) 0.0683(14) -0.0050(11) -0.0023(12) -0.0009(10)
C8 0.0754(17) 0.113(2) 0.0573(13) -0.0232(13) -0.0107(12) 0.0294(15)
C11 0.125(3) 0.167(3) 0.0541(16) -0.016(2) -0.0045(18) 0.079(2)
C12B 0.122(4) 0.172(6) 0.059(3) -0.020(3) -0.004(3) 0.014(4)
C12A 0.232(15) 0.134(10) 0.049(5) -0.031(6) 0.034(7) -0.109(11)
loop_
_atom_type_symbol
_atom_type_description
_atom_type_scat_dispersion_real
_atom_type_scat_dispersion_imag
_atom_type_scat_source
C C 0.0033 0.0016 'International Tables Vol C Tables 4.2.6.8 and 6.1.1.4'
H H 0.0000 0.0000 'International Tables Vol C Tables 4.2.6.8 and 6.1.1.4'
N N 0.0061 0.0033 'International Tables Vol C Tables 4.2.6.8 and 6.1.1.4'
O O 0.0106 0.0060 'International Tables Vol C Tables 4.2.6.8 and 6.1.1.4'
S S 0.1246 0.1234 'International Tables Vol C Tables 4.2.6.8 and 6.1.1.4'
loop_
_geom_angle_atom_site_label_1
_geom_angle_atom_site_label_2
_geom_angle_atom_site_label_3
_geom_angle
_geom_angle_site_symmetry_1
_geom_angle_site_symmetry_3
C9 S2 C10 103.19(10) . .
C3 C2 C1 120.6(2) . .
C3 C2 H2 122.2(18) . .
C1 C2 H2 117.1(18) . .
C1 O1 H1 105(2) . .
C11 C10 S2 108.96(18) . .
C11 C10 H10A 110.9(14) . .
S2 C10 H10A 105.2(14) . .
C11 C10 H10B 116.4(17) . .
S2 C10 H10B 104.1(17) . .
H10A C10 H10B 111(2) . .
N2 C9 S1 121.39(15) . .
N2 C9 S2 113.31(14) . .
S1 C9 S2 125.30(11) . .
C9 N2 N1 119.15(16) . .
C9 N2 H2A 113.9(14) . .
N1 N2 H2A 127.0(14) . .
C7 N1 N2 120.14(16) . .
N1 C7 C6 116.89(17) . .
N1 C7 C8 123.15(19) . .
C6 C7 C8 119.96(17) . .
C1 C6 C5 116.51(19) . .
C1 C6 C7 122.90(17) . .
C5 C6 C7 120.59(19) . .
O1 C1 C2 116.4(2) . .
O1 C1 C6 123.13(19) . .
C2 C1 C6 120.5(2) . .
C2 C3 C4 120.4(2) . .
C2 C3 H3 119.9(16) . .
C4 C3 H3 119.7(16) . .
C5 C4 C3 119.3(2) . .
C5 C4 H4 117.2(15) . .
C3 C4 H4 123.4(15) . .
C4 C5 C6 122.7(2) . .
C4 C5 H5 120.9(15) . .
C6 C5 H5 116.2(15) . .
C7 C8 H8A 109.5 . .
C7 C8 H8B 109.5 . .
H8A C8 H8B 109.5 . .
C7 C8 H8C 109.5 . .
H8A C8 H8C 109.5 . .
H8B C8 H8C 109.5 . .
C12A C11 C12B 63.2(6) . .
C12A C11 C10 147.8(9) . .
C12B C11 C10 143.2(6) . .
C12A C11 H11 96.7 . .
C12B C11 H11 96.7 . .
C10 C11 H11 96.7 . .
C11 C12B C12A 54.6(6) . .
C11 C12B H12A 120.0 . .
C12A C12B H12A 65.4 . .
C11 C12B H12B 120.0 . .
C12A C12B H12B 174.6 . .
H12A C12B H12B 120.0 . .
C11 C12A C12B 62.2(7) . .
C11 C12A H12C 120.0 . .
C12B C12A H12C 57.8 . .
C11 C12A H12D 120.0 . .
C12B C12A H12D 177.8 . .
H12C C12A H12D 120.0 . .
loop_
_geom_bond_atom_site_label_1
_geom_bond_atom_site_label_2
_geom_bond_distance
_geom_bond_site_symmetry_2
S2 C9 1.7361(19) .
S2 C10 1.813(2) .
S1 C9 1.658(2) .
C2 C3 1.368(3) .
C2 C1 1.387(3) .
C2 H2 0.86(3) .
O1 C1 1.354(2) .
O1 H1 0.72(3) .
C10 C11 1.463(4) .
C10 H10A 0.95(2) .
C10 H10B 0.87(2) .
C9 N2 1.351(2) .
N2 N1 1.372(2) .
N2 H2A 0.91(2) .
N1 C7 1.299(2) .
C7 C6 1.466(3) .
C7 C8 1.485(3) .
C6 C1 1.400(3) .
C6 C5 1.403(3) .
C3 C4 1.371(4) .
C3 H3 0.91(3) .
C4 C5 1.366(3) .
C4 H4 1.02(3) .
C5 H5 0.95(3) .
C8 H8A 0.9600 .
C8 H8B 0.9600 .
C8 H8C 0.9600 .
C11 C12A 1.018(10) .
C11 C12B 1.104(6) .
C11 H11 0.9800 .
C12B C12A 1.114(10) .
C12B H12A 0.9300 .
C12B H12B 0.9300 .
C12A H12C 0.9300 .
C12A H12D 0.9300 .
loop_
_geom_hbond_atom_site_label_D
_geom_hbond_atom_site_label_H
_geom_hbond_atom_site_label_A
_geom_hbond_distance_DH
_geom_hbond_distance_HA
_geom_hbond_distance_DA
_geom_hbond_angle_DHA
_geom_hbond_site_symmetry_A
_geom_hbond_publ_flag
N2 H2A S1 0.91(2) 2.68(2) 3.5805(18) 173.8(17) 2_675 yes
O1 H1 N1 0.72(3) 1.93(3) 2.590(2) 153(3) . yes
O1 H1 S2 0.72(3) 2.80(3) 3.3764(19) 139(3) . yes
loop_
_geom_torsion_atom_site_label_1
_geom_torsion_atom_site_label_2
_geom_torsion_atom_site_label_3
_geom_torsion_atom_site_label_4
_geom_torsion
_geom_torsion_site_symmetry_1
_geom_torsion_site_symmetry_2
_geom_torsion_site_symmetry_3
_geom_torsion_site_symmetry_4
C9 S2 C10 C11 163.2(3) . . . .
C10 S2 C9 N2 -174.93(17) . . . .
C10 S2 C9 S1 4.63(18) . . . .
S1 C9 N2 N1 179.89(14) . . . .
S2 C9 N2 N1 -0.5(2) . . . .
C9 N2 N1 C7 177.77(18) . . . .
N2 N1 C7 C6 177.97(16) . . . .
N2 N1 C7 C8 -2.1(3) . . . .
N1 C7 C6 C1 2.7(3) . . . .
C8 C7 C6 C1 -177.3(2) . . . .
N1 C7 C6 C5 -176.62(19) . . . .
C8 C7 C6 C5 3.5(3) . . . .
C3 C2 C1 O1 179.8(2) . . . .
C3 C2 C1 C6 -0.8(4) . . . .
C5 C6 C1 O1 -179.6(2) . . . .
C7 C6 C1 O1 1.1(3) . . . .
C5 C6 C1 C2 1.0(3) . . . .
C7 C6 C1 C2 -178.3(2) . . . .
C1 C2 C3 C4 0.4(4) . . . .
C2 C3 C4 C5 -0.2(4) . . . .
C3 C4 C5 C6 0.5(4) . . . .
C1 C6 C5 C4 -0.9(3) . . . .
C7 C6 C5 C4 178.41(19) . . . .
S2 C10 C11 C12A -102.1(18) . . . .
S2 C10 C11 C12B 122.7(8) . . . .
C10 C11 C12B C12A 155.1(12) . . . .
C10 C11 C12A C12B -151.8(12) . . . .
