#------------------------------------------------------------------------------
#$Date: 2021-06-10 04:28:02 +0300 (Thu, 10 Jun 2021) $
#$Revision: 266338 $
#$URL: file:///home/coder/svn-repositories/cod/cif/1/56/32/1563271.cif $
#------------------------------------------------------------------------------
#
# This file is available in the Crystallography Open Database (COD),
# http://www.crystallography.net/
#
# All data on this site have been placed in the public domain by the
# contributors.
#
data_1563271
loop_
_publ_author_name
'Huang, Qian-Ming'
'Hu, Chun-Li'
'Yang, Bing-Ping'
'Fang, Zhi'
'Lin, Yuan'
'Chen, Jin'
'Li, Bing-Xuan'
'Mao, Jiang-Gao'
_publ_section_title
;
 [GaF(H2O)][IO3F]: a promising NLO material obtained by anisotropic
 polycation substitution
;
_journal_name_full               'Chemical Science'
_journal_paper_doi               10.1039/D1SC01401C
_journal_year                    2021
_chemical_formula_moiety         'F2 Ga H2 I O4'
_chemical_formula_sum            'F2 Ga H2 I O4'
_chemical_formula_weight         300.64
_space_group_crystal_system      orthorhombic
_space_group_IT_number           29
_space_group_name_Hall           'P 2c -2ac'
_space_group_name_H-M_alt        'P c a 21'
_atom_sites_solution_hydrogens   difmap
_atom_sites_solution_primary     dual
_audit_creation_date             2021-05-11
_audit_creation_method
;
Olex2 1.2
(compiled 2017.03.02 svn.r3394 for OlexSys, GUI svn.r5324)
;
_audit_update_record
;
2021-05-14 deposited with the CCDC.	2021-06-02 downloaded from the CCDC.
;
_cell_angle_alpha                90
_cell_angle_beta                 90
_cell_angle_gamma                90
_cell_formula_units_Z            4
_cell_length_a                   13.9538(16)
_cell_length_b                   6.9261(9)
_cell_length_c                   4.7629(6)
_cell_measurement_reflns_used    1428
_cell_measurement_temperature    294.86(10)
_cell_measurement_theta_max      29.5210
_cell_measurement_theta_min      5.1380
_cell_volume                     460.31(10)
_computing_cell_refinement       'CrysAlisPro 1.171.39.9f (Rigaku OD, 2015)'
_computing_data_collection       'CrysAlisPro 1.171.39.9f (Rigaku OD, 2015)'
_computing_data_reduction        'CrysAlisPro 1.171.39.9f (Rigaku OD, 2015)'
_computing_molecular_graphics    'Olex2 (Dolomanov et al., 2009)'
_computing_publication_material  'Olex2 (Dolomanov et al., 2009)'
_computing_structure_refinement  'ShelXL (Sheldrick, 2015)'
_computing_structure_solution    'ShelXT (Sheldrick, 2015)'
_diffrn_ambient_environment      air
_diffrn_ambient_temperature      294.86(10)
_diffrn_detector                 'CCD plate'
_diffrn_detector_area_resol_mean 10.3468
_diffrn_detector_type            Atlas
_diffrn_measured_fraction_theta_full 1.000
_diffrn_measured_fraction_theta_max 0.926
_diffrn_measurement_details
;
List of Runs (angles in degrees, time in seconds):

  # Type    Start    End  Width  t~exp~   \w     \q     \k     \f   Frames
#--------------------------------------------------------------------------
  1  \w    -15.00  82.00   1.00    1.00    --   11.45  57.00-150.00   97
  2  \w    -82.00  15.00   1.00    1.00    --  -11.99 -57.00-150.00   97
  3  \w      4.00  29.00   1.00    1.00    --   11.45-123.00 117.00   25
;
_diffrn_measurement_device       'four-circle diffractometer'
_diffrn_measurement_device_type  'SuperNova, Dual, Cu at home/near, Atlas'
_diffrn_measurement_method       '\w scans'
_diffrn_orient_matrix_type
'CrysAlisPro convention (1999,Acta A55,543-557)'
_diffrn_orient_matrix_UB_11      0.0032738000
_diffrn_orient_matrix_UB_12      -0.0386570000
_diffrn_orient_matrix_UB_13      -0.1375039000
_diffrn_orient_matrix_UB_21      -0.0046472000
_diffrn_orient_matrix_UB_22      -0.0946470000
_diffrn_orient_matrix_UB_23      0.0553820000
_diffrn_orient_matrix_UB_31      -0.0505146000
_diffrn_orient_matrix_UB_32      0.0061972000
_diffrn_orient_matrix_UB_33      -0.0139906000
_diffrn_radiation_monochromator  mirror
_diffrn_radiation_probe          x-ray
_diffrn_radiation_type           MoK\a
_diffrn_radiation_wavelength     0.71073
_diffrn_reflns_av_R_equivalents  0.0406
_diffrn_reflns_av_unetI/netI     0.0488
_diffrn_reflns_Laue_measured_fraction_full 1.000
_diffrn_reflns_Laue_measured_fraction_max 0.926
_diffrn_reflns_limit_h_max       19
_diffrn_reflns_limit_h_min       -13
_diffrn_reflns_limit_k_max       6
_diffrn_reflns_limit_k_min       -9
_diffrn_reflns_limit_l_max       5
_diffrn_reflns_limit_l_min       -6
_diffrn_reflns_number            2826
_diffrn_reflns_point_group_measured_fraction_full 0.933
_diffrn_reflns_point_group_measured_fraction_max 0.812
_diffrn_reflns_theta_full        25.242
_diffrn_reflns_theta_max         29.990
_diffrn_reflns_theta_min         2.920
_diffrn_source                   'micro-focus sealed X-ray tube'
_diffrn_source_type              'SuperNova (Mo) X-ray Source'
_exptl_absorpt_coefficient_mu    12.656
_exptl_absorpt_correction_T_max  0.753
_exptl_absorpt_correction_T_min  0.587
_exptl_absorpt_correction_type   gaussian
_exptl_absorpt_process_details
;
CrysAlisPro 1.171.39.9f (Rigaku Oxford Diffraction, 2015)
Numerical absorption correction based on gaussian integration over
			a multifaceted crystal model
Empirical absorption correction using spherical harmonics,
 implemented in SCALE3 ABSPACK scaling algorithm.
;
_exptl_crystal_colour            colourless
_exptl_crystal_colour_primary    colourless
_exptl_crystal_density_diffrn    4.338
_exptl_crystal_description       prism
_exptl_crystal_F_000             544
_exptl_crystal_size_max          0.16
_exptl_crystal_size_mid          0.154
_exptl_crystal_size_min          0.124
_refine_diff_density_max         1.180
_refine_diff_density_min         -1.138
_refine_diff_density_rms         0.213
_refine_ls_abs_structure_details
;
 Classical Flack method preferred over Parsons because s.u. lower.
;
_refine_ls_abs_structure_Flack   0.00(5)
_refine_ls_extinction_coef       0.0046(10)
_refine_ls_extinction_expression Fc^*^=kFc[1+0.001xFc^2^\l^3^/sin(2\q)]^-1/4^
_refine_ls_extinction_method     'SHELXL-2014/7 (Sheldrick 2014'
_refine_ls_goodness_of_fit_ref   1.058
_refine_ls_hydrogen_treatment    constr
_refine_ls_matrix_type           full
_refine_ls_number_parameters     85
_refine_ls_number_reflns         1091
_refine_ls_number_restraints     1
_refine_ls_restrained_S_all      1.057
_refine_ls_R_factor_all          0.0388
_refine_ls_R_factor_gt           0.0369
_refine_ls_shift/su_max          0.001
_refine_ls_shift/su_mean         0.000
_refine_ls_structure_factor_coef Fsqd
_refine_ls_weighting_details
'w=1/[\s^2^(Fo^2^)+(0.0445P)^2^] where P=(Fo^2^+2Fc^2^)/3'
_refine_ls_weighting_scheme      calc
_refine_ls_wR_factor_gt          0.0804
_refine_ls_wR_factor_ref         0.0814
_reflns_Friedel_coverage         0.574
_reflns_Friedel_fraction_full    0.844
_reflns_Friedel_fraction_max     0.669
_reflns_number_gt                1045
_reflns_number_total             1091
_reflns_threshold_expression     'I > 2\s(I)'
_cod_data_source_file            d1sc01401c2.cif
_cod_data_source_block           z
_cod_original_formula_sum        'F2 H2 Ga I O4'
_cod_database_code               1563271
_shelx_shelxl_version_number     2014/7
_chemical_oxdiff_formula         'I O F Ga Cs'
_shelx_space_group_comment
;
The symmetry employed for this shelxl refinement is uniquely defined
by the following loop, which should always be used as a source of
symmetry information in preference to the above space-group names.
They are only intended as comments.
;
_reflns_odcompleteness_completeness 99.84
_reflns_odcompleteness_iscentric 1
_reflns_odcompleteness_theta     27.04
_olex2_refinement_description
;
1. Fixed Uiso
 At 1.5 times of:
  All O(H,H) groups
2. Others
 Sof(I1B)=1-FVAR(1)
 Sof(I1A)=FVAR(1)
3.a Rotating group:
 O4(H4A,H4B)
;
_shelx_res_file
;
    z.res created by SHELXL-2014/7

TITL z_a.res in Pca2(1)
REM Old TITL
REM SHELXT solution in Pca2(1)
REM R1 0.091, Rweak 0.019, Alpha 0.010, Orientation as input
REM Flack x = 0.022 ( 0.057 ) from Parsons' quotients
REM Formula found by SHELXT: O F5 Ga I
CELL 0.71073 13.9538 6.9261 4.7629 90 90 90
ZERR 4 0.0016 0.0009 0.0006 0 0 0
LATT -1
SYMM -X,-Y,0.5+Z
SYMM 0.5+X,-Y,+Z
SYMM 0.5-X,+Y,0.5+Z
SFAC F Ga H I O
UNIT 8 4 8 4 16

L.S. 40
PLAN  2
BOND $H
list 4
fmap 2
acta
REM <olex2.extras>
REM <HklSrc "%.\\Z.hkl">
REM </olex2.extras>

WGHT    0.044500
EXTI    0.004632
FVAR       0.45012   0.85780
GA1   2    0.428676    0.634831    0.471131    11.00000    0.00859    0.00868 =
         0.00993   -0.00014   -0.00073    0.00074
F2    1    0.526817    0.576061    0.202605    11.00000    0.01414    0.01012 =
         0.01693   -0.00746    0.00395   -0.00032
F1    1    0.618512    1.176241    0.730474    11.00000    0.01607    0.01563 =
         0.01783   -0.00371    0.00287    0.00071
O4    5    0.326234    0.686113    0.741871    11.00000    0.01281    0.01720 =
         0.01486    0.00420    0.00396   -0.00468
AFIX   7
H4A   3    0.349355    0.743267    0.886485    11.00000   -1.50000
H4B   3    0.300332    0.579693    0.793525    11.00000   -1.50000
AFIX   0
O1    5    0.688939    0.846487    0.431437    11.00000    0.01408    0.01929 =
         0.01316   -0.00087    0.00673   -0.00253
O3    5    0.656145    0.549985    0.794482    11.00000    0.00985    0.00391 =
         0.01964    0.00325    0.00327   -0.00069
O2    5    0.508030    0.815185    0.660111    11.00000    0.00783    0.01299 =
         0.02048   -0.00460    0.00041   -0.00287
PART 1
I1A   4    0.634299    0.813811    0.765420    21.00000    0.00776    0.00846 =
         0.01114   -0.00077    0.00049   -0.00025
PART 0
PART 2
I1B   4    0.625947    0.891377    0.758304   -21.00000    0.00792    0.00911 =
         0.01004   -0.00508    0.00030    0.00144
HKLF 4

REM  z_a.res in Pca2(1)
REM R1 =  0.0369 for    1045 Fo > 4sig(Fo)  and  0.0388 for all    1091 data
REM     85 parameters refined using      1 restraints

END

WGHT      0.0445      0.0000

REM Highest difference peak  1.180,  deepest hole -1.138,  1-sigma level  0.213
Q1    1   0.6363  0.6668  0.7639  11.00000  0.05    1.18
Q2    1   0.7075  0.8860  0.7687  11.00000  0.05    1.05
;
_shelx_res_checksum              57839
_shelx_hkl_file
;
   0   0  -6 1385.90   82.03
   0   0  -5    7.36    6.22
   0   0  -4 5372.80  179.54
   0   0  -3    9.23    4.83
   0   0  -2 4780.13  143.86
   0   0  -1   17.04    3.57
   0   0   1    2.98    1.56
   0   0   2 4603.90  138.53
   0   0   3   12.85    5.01
   0  -1  -6  308.45   37.30
   0   1  -6  327.18   35.79
   0   1  -5    5.49    4.61
   0  -1  -5    3.33    4.24
   0  -1  -4  235.37   25.68
   0   1  -4  232.00   23.85
   0   1  -3    9.54    6.26
   0  -1  -3    1.74    1.60
   0  -1  -2 1526.06   61.58
   0   1  -2 1653.11   58.52
   0  -1  -1    2.47    3.00
   0  -1   0   80.63    6.41
   0   1   0   66.20    5.80
   0   1   1    4.96    3.34
   0   1   1    1.84    2.31
   0   1   2 1721.42   64.91
   0   1   2 1562.06   62.05
   0   1   3   13.05    5.54
   0   1   3    6.30    4.31
   0   1   4  272.88   26.43
   0  -2  -6  290.79   38.31
   0  -2  -5    7.88    7.52
   0   2  -5   36.27   11.59
   0  -2  -4  670.70   48.71
   0  -2  -4  696.24   34.10
   0   2  -4  772.65   45.29
   0  -2  -3    7.15    5.55
   0   2  -3    2.34    3.20
   0  -2  -2 1052.33   51.94
   0  -2  -1    9.87    5.04
   0  -2  -1    7.63    3.46
   0   2   0 3441.92  108.90
   0  -2   0 3782.47  111.06
   0   2   0 3610.96  110.83
   0   2   1    6.95    4.26
   0   2   1    8.40    3.33
   0   2   2 1148.42   53.69
   0   2   2 1225.66   54.70
   0   2   3    7.76    5.35
   0   2   3    6.13    4.89
   0  -3  -6  611.75   58.92
   0  -3  -5    2.92    4.95
   0   3  -5   -3.24    4.39
   0  -3  -4  789.62   57.34
   0   3  -4  855.56   49.25
   0  -3  -3   14.59    9.42
   0  -3  -2 6525.59  200.16
   0  -3  -2 6375.39  207.08
   0  -3  -1    4.70    3.83
   0  -3  -1    1.93    5.35
   0   3   0 2804.65   97.03
   0  -3   0 2934.97   99.58
   0   3   0 2946.87   99.83
   0   3   1   18.47    5.91
   0  -3   1    3.33    3.47
   0   3   2 7386.03  232.25
   0   3   2 7687.57  231.14
   0   3   3   -1.48    3.28
   0  -3   4  919.76   42.59
   0  -4  -6  168.77   33.04
   0   4  -5    5.70    4.83
   0  -4  -5    7.10    8.39
   0   4  -4  883.92   51.43
   0  -4  -4  827.83   63.26
   0  -4  -3    2.33    5.36
   0  -4  -3   21.90    8.77
   0  -4  -2  595.17   39.26
   0  -4  -2  560.95   43.55
   0  -4  -1    1.16    3.31
   0  -4   0 3071.97   81.40
   0   4   0 3045.42   76.14
   0   4   1   -0.73    2.54
   0   4   1  -10.50    5.40
   0   4   2  639.33   43.61
   0   4   2  705.96   44.89
   0  -5  -5   -4.39    7.65
   0  -5  -4  714.61   62.35
   0  -5  -3   14.13    7.65
   0  -5  -3    1.27    8.41
   0  -5  -2  593.78   48.17
   0  -5  -2  555.88   41.67
   0  -5  -1   18.43    7.95
   0   5  -1    5.36    3.96
   0   5   0 3625.86  128.90
   0  -5   0 3398.56  131.72
   0   5   0 3711.76  134.68
   0   5   1   10.63    6.20
   0   5   1    6.63    6.83
   0  -5   1    4.30    4.36
   0  -5   2  516.43   43.45
   0  -5   3    3.23    5.25
   0  -5   4  665.08   58.26
   0  -6  -4  505.89   55.50
   0  -6  -3    1.40    6.72
   0  -6  -2  297.44   32.89
   0  -6  -1   17.81    7.12
   0   6   0 1882.01   84.67
   0  -6   0 1736.00   87.25
   0  -6   1   19.46    8.65
   0  -6   2  289.68   34.87
   0  -6   3    6.10    6.71
   0  -6   4  434.71   49.14
   0  -6   5    9.29   11.12
   0  -7  -3   19.39   10.82
   0  -7  -2  206.78   29.82
   0  -7  -1    7.77    6.25
   0  -7   0  568.80   48.18
   0  -7   1    0.19    5.83
   0  -7   2  175.52   28.86
   0  -7   3   10.34    9.13
   0  -7   4  301.15   44.36
   0  -8  -3   18.37   11.42
   0  -8  -2 2153.94  116.45
   0  -8  -1   -2.56    5.49
   0  -8   0  409.26   43.23
   0  -8   1   -4.91    8.30
   0  -8   2 2174.57  119.99
   0  -8   3   -6.51   10.78
   0  -9  -2   18.52   14.32
   0  -9  -1   22.17   15.12
   0  -9   0  126.55   26.41
   0  -9   1    5.85    5.93
   0  -9   2   29.41   14.22
   1   0  -6    7.39    6.43
  -1   0  -6    0.86    4.51
   1   0  -5    1.36    5.64
  -1   0  -5   12.03    8.87
   1   0  -4   42.57   11.52
  -1   0  -4    8.73    5.82
  -1   0  -3    5.83    3.90
   1   0  -3    4.44    4.32
   1   0  -2   25.04    6.13
  -1   0  -2    8.97    3.95
  -1   0  -1    2.97    1.39
   1   0  -1   -1.58    1.97
   1   0   1    1.46    1.04
  -1   0   1    0.74    1.12
  -1   0   1    0.20    1.38
   1   0   2    1.04    1.89
  -1   0   2    4.50    2.91
  -1   0   2    3.92    3.29
  -1   0   3   -0.34    2.71
  -1   0   3    5.97    4.77
   1   0   3    6.83    4.20
   1   0   4   14.29    5.82
  -1  -1  -6  339.18   38.19
   1   1  -6  355.01   39.03
   1  -1  -6  325.34   39.60
  -1   1  -5   38.87    9.96
   1   1  -5   24.81   10.18
   1  -1  -5   36.01   11.47
  -1  -1  -5   25.62   10.96
  -1  -1  -4  496.42   37.28
   1  -1  -4  464.57   38.52
   1   1  -4  508.62   37.87
  -1   1  -4  528.60   35.21
  -1  -1  -3 2533.84   94.27
  -1   1  -3 2542.09   88.57
   1   1  -3 2643.27   95.15
   1  -1  -3 2348.99   96.31
  -1   1  -2 1804.81   59.52
  -1  -1  -2 1698.73   58.82
   1  -1  -2 1723.56   68.15
   1   1  -2 1798.58   65.09
  -1  -1  -2 1684.69   64.68
   1  -1  -1 2704.46   88.47
  -1  -1  -1 2870.43   87.34
   1  -1   0 1197.16   38.16
  -1   1   0 1067.89   39.35
  -1   1   0 1150.98   38.06
   1   1   0 1121.46   34.63
  -1  -1   0 1130.11   34.32
  -1   1   1 2688.60   86.56
   1   1   1 2720.73   84.87
  -1   1   1 2656.31   84.31
   1   1   1 2833.55   84.76
  -1   1   2 2038.06   74.39
  -1  -1   2 1960.23   62.08
   1   1   2 1958.90   70.82
  -1   1   2 1950.60   73.44
   1   1   2 2074.84   75.31
   1   1   3 2796.68  101.24
   1   1   3 2908.41  109.30
  -1   1   3 2806.04  104.82
  -1   1   3 3029.22  109.04
   1   1   4  541.08   37.39
  -1   1   4  531.97   39.11
   1   2  -6  386.19   40.41
   1  -2  -6  390.03   45.39
  -1  -2  -6  411.46   44.31
  -1  -2  -5  911.71   63.78
  -1   2  -5 1101.97   59.60
   1   2  -5 1072.99   63.93
   1  -2  -5  921.57   65.68
  -1  -2  -4  935.76   57.91
  -1   2  -4  978.54   50.28
   1  -2  -4  938.94   39.15
   1  -2  -4  864.89   57.64
   1   2  -4  976.58   54.85
  -1   2  -3  750.81   36.97
   1  -2  -3  662.01   43.91
   1   2  -3  660.07   38.83
  -1  -2  -3  612.97   41.65
  -1  -2  -3  654.61   35.25
   1  -2  -2  354.83   27.78
  -1  -2  -2  411.93   28.88
   1  -2  -1 3014.67  103.81
  -1  -2  -1 3124.12  103.50
  -1  -2  -1 3162.77   98.39
   1  -2   0 4632.69  133.84
   1  -2   0 4502.26  130.68
  -1   2   0 4089.96  130.57
  -1   2   0 4205.23  129.57
  -1  -2   0 4354.66  126.06
   1   2   0 4253.65  125.48
   1   2   1 2875.10   95.61
   1   2   1 2865.96   91.84
  -1   2   1 2808.25   93.90
   1   2   2  466.84   29.85
  -1   2   2  441.68   30.58
   1   2   2  480.19   31.03
  -1   2   2  476.18   30.67
   1   2   3  811.97   46.44
  -1   2   3  814.18   49.23
  -1  -2   3  870.75   37.37
   1   2   3  910.70   51.65
  -1   2   3  848.23   49.12
   1   2   4 1018.63   57.30
   1  -3  -6   31.95   14.07
  -1  -3  -6   34.26   13.86
   1  -3  -5  151.04   26.84
   1   3  -5  153.05   22.54
  -1  -3  -5  126.22   23.27
  -1   3  -5  137.66   19.45
  -1   3  -4   66.23   11.95
   1  -3  -4   49.26   14.51
  -1  -3  -4   51.44   14.20
  -1  -3  -4   70.93   12.87
   1   3  -4   67.66   13.37
  -1  -3  -3  340.45   32.61
   1  -3  -3  307.15   31.72
   1  -3  -2   92.85   17.37
   1  -3  -2  102.93   15.90
  -1  -3  -2   40.42    9.24
  -1  -3  -2   56.78   12.82
  -1  -3  -1  759.79   37.42
   1  -3  -1  765.72   43.15
   1  -3  -1  731.77   38.75
  -1   3   0   33.46    7.58
   1  -3   0   55.48   10.02
  -1   3   0   38.67    8.12
  -1  -3   0   47.54    7.99
   1   3   0   30.57    6.33
  -1  -3   1  702.60   36.89
   1   3   1  708.08   36.77
  -1   3   1  674.12   38.09
   1  -3   1  695.88   40.35
   1   3   2   75.05   12.83
   1   3   2   67.80   11.71
  -1   3   2   96.51   14.96
  -1   3   2   79.00   13.60
   1   3   3  390.27   33.01
  -1   3   3  352.84   32.67
  -1  -3   4   64.20   10.31
   1  -4  -6  310.20   45.43
  -1  -4  -6  342.49   45.26
   1  -4  -5  347.23   43.38
  -1   4  -5  430.10   35.62
  -1  -4  -5  443.15   47.57
   1   4  -5  374.64   37.05
  -1  -4  -4  645.98   54.42
   1  -4  -4  674.29   56.35
  -1   4  -4  689.90   42.78
   1   4  -4  618.78   44.23
   1  -4  -3  209.36   27.86
  -1  -4  -3  202.52   27.30
   1  -4  -3  238.27   26.66
   1  -4  -2 1091.46   57.87
  -1  -4  -2 1033.18   61.70
  -1  -4  -2 1130.19   56.92
   1  -4  -2 1146.66   65.45
   1  -4  -1  730.36   42.99
   1  -4  -1  772.85   47.74
   1   4   0 2716.40   99.05
   1   4   0 2913.64  105.67
  -1   4   0 2811.92  103.25
  -1  -4   0 2783.80  100.20
  -1  -4   1  843.48   45.21
  -1   4   1  945.42   48.28
   1   4   1  891.62   45.48
  -1   4   1  834.49   47.65
   1   4   2 1453.45   68.11
  -1   4   2 1270.63   67.34
   1  -4   2 1121.54   65.45
   1   4   2 1196.18   64.92
  -1   4   2 1438.94   70.25
  -1  -4   4  877.36   51.29
   1  -5  -5   59.67   20.03
  -1  -5  -5   70.54   20.86
   1   5  -5   64.14   15.32
  -1  -5  -4   28.88   13.12
  -1   5  -4   35.30   10.09
   1  -5  -4   45.34   16.22
   1  -5  -3  736.83   59.59
  -1  -5  -3  649.92   55.25
   1  -5  -3  771.47   54.42
   1  -5  -2  227.50   26.34
  -1  -5  -2  197.31   23.56
   1  -5  -2  168.98   25.45
  -1   5  -1  888.66   50.66
   1  -5  -1  805.32   50.20
  -1  -5  -1  771.64   47.24
   1   5   0   15.28    7.15
  -1   5   0   17.41    7.26
  -1   5   0    9.07    7.19
  -1  -5   0    1.65    4.04
   1   5   0    5.31    3.90
   1  -5   0   15.85    6.92
   1   5   1  989.15   54.25
  -1   5   1  915.69   56.59
   1  -5   1  926.08   58.81
  -1   5   1  990.14   56.34
   1   5   1  814.29   54.08
   1  -5   2  188.36   26.68
  -1  -5   2  231.23   27.46
  -1  -5   3  625.99   49.08
   1  -5   3  601.07   52.10
   1  -5   4   33.61   14.31
  -1  -5   4   34.80   12.53
   1  -6  -4  155.50   30.88
  -1  -6  -3  667.89   52.93
   1  -6  -3  589.66   51.34
   1  -6  -3  597.79   57.13
   1  -6  -2  555.14   46.37
  -1  -6  -2  527.22   43.82
  -1  -6  -1  463.97   38.66
   1  -6  -1  497.72   42.15
   1  -6   0   18.80   10.07
  -1  -6   0   15.79    7.76
   1   6   0   -1.43    3.79
   1  -6   1  577.45   48.79
  -1  -6   1  570.86   45.51
   1  -6   2  505.74   48.76
  -1  -6   2  558.29   46.92
   1  -6   3  528.02   52.59
  -1  -6   3  581.22   51.69
   1  -6   4   84.50   23.14
  -1  -6   4   88.88   21.38
   1  -6   5   55.07   20.13
  -1  -7  -3  136.09   25.45
   1  -7  -3  183.54   29.94
  -1  -7  -2  230.30   30.75
   1  -7  -2  226.65   31.90
   1  -7  -1  533.76   47.34
  -1  -7  -1  445.92   41.53
  -1  -7   0  514.45   43.52
   1  -7   0  491.21   46.49
   1  -7   1  495.88   48.67
  -1  -7   1  465.68   43.74
  -1  -7   2  234.75   31.64
   1  -7   2  216.53   33.50
  -1  -7   3  188.74   30.61
   1  -7   3  131.20   27.71
  -1  -7   4  184.85   33.22
   1  -7   4  157.67   33.19
   1  -8  -3  101.82   25.36
  -1  -8  -3  126.09   26.46
   1  -8  -2   76.95   20.74
  -1  -8  -2   65.00   18.36
  -1  -8  -1   67.40   17.96
   1  -8  -1   49.80   16.76
  -1  -8   0    7.89    7.70
   1  -8   0   15.62   10.52
  -1  -8   1  118.54   23.58
   1  -8   1   74.82   20.39
  -1  -8   2   57.71   17.56
   1  -8   2   47.92   17.90
   1  -8   3   59.26   21.21
  -1  -9  -2   81.03   22.28
  -1  -9  -1  538.57   54.10
   1  -9  -1  523.96   55.90
  -1  -9   0  501.58   50.56
   1  -9   0  428.92   49.58
  -1  -9   1  548.95   52.54
   1  -9   1  474.85   53.48
   1  -9   2  108.41   27.05
   2   0  -6  128.99   24.59
   2   0  -5 2799.35  126.05
  -2   0  -5 3010.55  116.49
  -2   0  -4  426.15   30.61
   2   0  -4  383.94   34.89
  -2   0  -3 2154.17   79.04
   2   0  -3 2314.20   90.52
  -2   0  -2  592.46   25.75
   2   0  -2  594.76   32.42
   2   0  -1 9539.88  250.09
   2   0  -1 9999.00  256.48
   2   0   0  837.15   27.75
   2   0   1 8605.97  225.68
  -2   0   1 8146.39  230.92
  -2   0   1 8550.76  235.68
  -2   0   2  740.54   37.22
  -2   0   2  749.31   35.55
   2   0   2  796.08   31.29
   2   0   2  721.80   30.36
  -2   0   3 2702.88   99.87
  -2   0   3 2755.35  101.53
   2   0   3 2703.63   91.75
   2  -1  -6   19.76   10.53
   2   1  -6   39.48   13.54
   2  -1  -5   67.16   16.47
   2   1  -5   61.15   15.44
  -2   1  -5   70.73   13.45
  -2  -1  -5   46.43   12.26
   2   1  -4  217.35   25.24
   2  -1  -4  249.60   28.17
  -2  -1  -4  238.90   24.59
  -2   1  -4  265.11   22.74
   2  -1  -3 1595.10   74.29
   2   1  -3 1727.73   73.50
  -2   1  -3 1705.85   62.74
  -2  -1  -3 1667.39   69.41
  -2  -1  -2  249.48   19.37
   2  -1  -2  245.42   21.41
   2   1  -2  259.92   20.26
  -2  -1  -2  251.61   18.94
  -2   1  -2  276.07   14.93
   2  -1  -2  266.16   20.11
  -2  -1  -1 1957.68   63.39
   2  -1  -1 1869.66   63.71
  -2  -1  -1 1909.81   66.76
   2  -1  -1 1898.81   67.28
  -2   1   0  750.82   31.17
   2  -1   0  764.86   28.42
  -2   1   0  757.35   28.28
  -2  -1   0  782.30   34.31
   2   1   1 1943.77   63.62
  -2   1   1 1928.67   64.88
  -2  -1   1 1973.34   66.82
  -2   1   2  265.85   20.58
  -2   1   2  287.52   22.21
   2   1   2  264.42   18.55
  -2   1   3 1934.39   79.58
  -2   1   3 1738.22   75.87
   2   1   3 1893.55   79.45
   2   1   3 1738.27   69.84
   2   1   4  281.50   25.32
  -2  -2  -6   16.16    8.92
   2  -2  -6    8.90    9.40
   2   2  -6   25.83   11.08
  -2   2  -5  413.80   32.50
   2  -2  -5  375.25   40.95
  -2  -2  -5  408.17   39.07
   2   2  -5  439.35   40.37
  -2  -2  -4   26.61    9.42
   2   2  -4   19.31    7.98
  -2   2  -4   15.57    4.92
   2  -2  -4   28.51   10.81
  -2  -2  -3  714.76   44.72
  -2  -2  -3  800.19   42.34
  -2   2  -3  775.90   36.46
   2  -2  -3  718.01   47.39
   2   2  -3  807.13   44.99
   2  -2  -2   58.52   10.96
  -2  -2  -2   75.84   11.84
  -2  -2  -1 1466.05   52.90
   2  -2  -1 1352.93   57.51
   2   2   0   18.79    3.49
  -2   2   0   23.15    5.04
  -2   2   0   22.35    5.38
   2  -2   0   21.21    4.82
  -2  -2   0   20.97    3.44
   2   2   1 1351.30   50.95
   2   2   1 1372.08   54.08
  -2   2   1 1297.45   54.44
   2   2   2   89.47   12.05
   2   2   2  105.09   13.59
  -2   2   2   70.04   11.98
  -2   2   2   94.67   12.88
  -2  -2   3  920.58   42.17
   2   2   3  906.60   52.41
  -2   2   3  905.97   51.90
  -2   2   3  882.09   50.95
   2   2   3  833.41   46.73
   2   2   4   16.80    6.34
  -2  -3  -6  127.85   25.72
   2  -3  -6   99.94   24.42
   2   3  -5  377.11   37.83
   2  -3  -5  401.03   45.19
  -2   3  -5  413.06   32.49
  -2  -3  -5  413.89   42.44
   2  -3  -4  151.59   24.97
  -2   3  -4  199.39   19.50
  -2  -3  -4  135.91   22.13
   2   3  -4  177.62   22.73
  -2  -3  -4  166.64   20.90
   2  -3  -3 4566.45  159.63
   2  -3  -3 4582.71  168.33
  -2  -3  -3 4628.72  165.20
  -2  -3  -2  741.26   42.29
   2  -3  -2  679.51   42.04
  -2   3  -1 4658.06  148.94
   2  -3  -1 5065.54  161.79
  -2  -3  -1 5114.97  150.74
   2   3   0  413.39   23.48
  -2   3   0  437.97   28.11
   2  -3   0  467.04   31.68
  -2   3   0  442.31   29.24
  -2  -3   0  419.35   23.09
   2  -3   0  472.17   28.86
  -2  -3   1 5379.50  167.77
   2  -3   1 5543.16  180.32
   2   3   1 5474.86  175.48
  -2   3   1 5808.53  177.11
   2   3   1 5776.87  170.06
  -2   3   2  844.45   48.57
   2   3   2  914.89   47.92
   2   3   2  777.25   45.27
  -2   3   2  842.09   48.94
   2   3   3 5116.37  177.95
  -2   3   3 5154.76  183.43
  -2  -3   4  213.31   20.06
  -2  -4  -6   55.19   18.11
  -2  -4  -5  328.61   40.51
   2   4  -5  299.74   33.76
   2  -4  -5  320.44   42.48
   2  -4  -4  139.29   25.91
   2   4  -4  145.31   21.00
  -2   4  -4  193.72   20.46
  -2  -4  -4  197.09   25.54
  -2  -4  -4  145.93   25.09
  -2  -4  -3  272.18   31.91
   2  -4  -3  224.88   29.72
   2  -4  -3  267.49   28.77
   2  -4  -2  193.73   25.18
  -2  -4  -2  192.95   20.92
   2  -4  -2  194.63   22.77
   2  -4  -1  739.37   44.61
   2  -4  -1  707.49   46.34
  -2   4   0  553.68   35.15
   2   4   0  444.66   27.83
  -2  -4   0  515.96   29.18
   2   4   1  769.02   42.82
  -2   4   1  789.36   46.27
  -2  -4   1  745.36   41.14
  -2   4   1  796.13   47.59
   2  -4   1  691.74   48.75
   2   4   1  724.77   45.08
  -2   4   2  272.71   28.20
   2   4   2  271.05   25.99
  -2  -4   2  207.77   21.77
  -2   4   2  247.07   27.16
   2   4   2  235.53   25.53
   2  -4   2  215.57   27.07
  -2  -4   4  220.18   24.62
  -2  -5  -5  645.81   62.31
   2  -5  -5  702.52   67.08
   2   5  -5  643.15   52.34
   2  -5  -4   88.97   22.00
  -2   5  -4   80.27   14.08
  -2  -5  -4   90.04   20.32
   2  -5  -3  704.07   52.14
   2  -5  -3  616.76   54.81
   2  -5  -2   35.88   12.79
  -2  -5  -2   45.20   11.36
  -2   5  -2   26.51    8.16
   2  -5  -2   20.77    8.49
   2  -5  -1 1911.76   87.63
  -2   5  -1 1931.59   83.43
  -2  -5  -1 1798.00   79.36
   2  -5   0  272.52   30.20
   2   5   0  246.85   22.99
   2   5   0  275.64   27.93
  -2   5   0  246.36   26.55
  -2   5   0  312.58   28.65
  -2   5   1 2032.62   91.32
   2   5   1 1981.36   85.12
  -2   5   1 1950.39   90.57
   2  -5   1 1910.56   95.88
   2  -5   2   41.55   13.47
  -2  -5   2   41.47   11.07
   2  -5   3  619.97   54.81
  -2  -5   3  669.43   49.15
   2  -5   4   57.20   17.58
  -2  -5   4   68.74   16.87
  -2  -5   4  105.68   19.87
   2  -6  -4    7.45    9.31
   2  -6  -3  410.05   42.48
   2  -6  -3  407.84   46.85
  -2  -6  -2   81.20   16.83
   2  -6  -2  126.46   23.97
   2  -6  -2   80.69   17.92
  -2  -6  -1  805.57   51.90
   2  -6  -1  859.97   58.34
  -2  -6   0   11.72    6.09
   2  -6   0   19.67    8.89
   2   6   0    4.63    5.32
  -2  -6   1  860.47   54.97
   2  -6   1  800.43   61.48
   2   6   1 1001.24   58.68
  -2  -6   2  132.42   21.39
   2  -6   2   96.28   22.10
   2  -6   3  334.33   43.31
  -2  -6   3  549.45   47.97
  -2  -6   4   -5.48    8.97
   2  -6   4   14.42   10.88
  -2  -6   4   -5.22   11.38
   2  -6   5  398.89   54.19
   2  -7  -3  120.69   25.62
  -2  -7  -2  244.55   31.45
   2  -7  -2  268.17   35.81
   2  -7  -1  527.39   48.46
  -2  -7  -1  479.95   42.31
  -2  -7   0  134.23   20.94
   2  -7   0  156.49   26.63
   2  -7   1  496.07   50.57
  -2  -7   1  522.41   43.43
   2  -7   2  313.80   41.42
  -2  -7   2  289.77   33.97
   2  -7   3   86.06   23.56
  -2  -7   3  150.69   25.97
   2  -7   4   33.66   17.44
   2  -8  -2  142.00   28.66
  -2  -8  -2   97.36   21.10
  -2  -8  -1  710.07   56.83
   2  -8  -1  772.08   64.88
   2  -8   0  102.48   23.44
  -2  -8   0  141.76   23.82
   2  -8   1  777.10   69.39
  -2  -8   1  853.57   60.55
   2  -8   2  106.29   26.87
  -2  -8   2  100.89   21.47
   2  -8   3 1058.60   88.61
  -2  -9  -2   18.05   10.67
  -2  -9  -1   51.17   16.29
   2  -9  -1   96.28   25.26
   2  -9   0  -13.03   10.68
  -2  -9   0    5.20    5.67
   2  -9   1   55.67   20.62
   2  -9   2    7.51    8.16
   3   0  -6   -1.87    5.37
  -3   0  -5   10.24    5.40
   3   0  -5    1.78    5.28
   3   0  -4   -3.12    4.53
  -3   0  -4   -3.63    3.35
  -3   0  -3   -2.29    2.83
   3   0  -3   -0.14    4.32
   3   0  -2    1.50    3.42
  -3   0  -2    0.97    1.43
   3   0  -1    0.35    1.38
   3   0  -1    0.96    1.91
   3   0   0   -0.17    1.27
   3   0   0    0.75    1.11
   3   0   1    5.94    1.45
  -3   0   1    1.18    1.06
   3   0   2    1.90    3.13
   3   0   2    1.37    1.33
  -3   0   2    1.34    2.10
  -3   0   2    0.09    2.46
  -3   0   3    1.15    3.95
   3   0   3    3.38    2.87
  -3   0   3   -0.61    2.22
   3   1  -6  247.99   35.35
   3  -1  -6  272.63   38.09
   3   1  -5  977.75   66.81
  -3  -1  -5 1061.82   61.34
   3  -1  -5 1071.84   71.67
  -3   1  -5 1068.07   54.10
  -3   1  -4  570.55   32.90
   3  -1  -4  507.84   43.61
   3   1  -4  548.56   42.78
  -3  -1  -4  593.43   39.30
  -3   1  -3 2077.55   68.32
   3  -1  -3 1901.26   86.41
   3   1  -3 1945.07   83.74
  -3  -1  -3 1960.15   77.25
   3  -1  -2 3572.87  113.73
  -3   1  -2 3396.65   98.23
  -3  -1  -2 3419.55  110.27
   3   1  -2 3688.57  118.22
   3  -1  -2 3512.06  120.93
   3   1  -1 2788.67   97.71
  -3  -1  -1 3128.48  105.26
   3  -1  -1 3058.71   93.75
   3  -1  -1 3016.15   98.94
   3  -1   0    0.20    1.79
   3  -1   0    6.97    3.34
  -3   1   0    2.79    1.40
  -3   1   0    2.39    1.83
  -3  -1   0    9.44    5.14
  -3  -1   1 2954.04   83.77
  -3  -1   1 3217.44  103.20
   3   1   1 2896.56   98.51
   3   1   1 3038.46   91.28
  -3   1   1 2852.00   94.56
  -3   1   2 3694.49  122.70
   3   1   2 3635.95  112.57
  -3  -1   2 3547.27  111.79
  -3   1   2 3698.28  118.95
  -3  -1   3 2197.14   84.19
   3   1   3 2246.64   81.42
  -3   1   3 2199.67   90.67
  -3   1   3 2314.14   90.56
  -3  -1   4  538.04   38.94
   3   1   4  535.75   34.47
   3   2  -6  425.78   46.05
   3  -2  -6  430.52   49.52
  -3   2  -5  254.46   23.00
   3   2  -5  241.31   30.86
  -3  -2  -5  238.17   29.16
   3  -2  -5  265.24   34.79
  -3  -2  -4 1102.54   61.79
  -3   2  -4 1189.07   50.23
   3  -2  -4 1022.87   66.25
   3   2  -4  984.88   60.73
   3   2  -3 1139.70   58.79
  -3  -2  -3 1074.38   57.72
  -3  -2  -3 1161.94   59.04
   3  -2  -3 1229.24   60.08
   3  -2  -3 1155.45   64.11
  -3   2  -3 1216.92   45.77
   3  -2  -2  471.59   34.19
  -3  -2  -2  496.91   33.51
  -3  -2  -2  544.28   33.10
   3  -2  -2  491.80   31.28
   3  -2  -1  108.23   13.63
   3  -2  -1  119.69   13.44
  -3  -2   0 3282.91   93.60
  -3   2   0 3283.25  108.61
  -3   2   0 3385.04  104.04
   3  -2   0 3427.23  104.70
   3   2   0 3225.82   94.64
  -3   2   1   87.02   11.54
  -3   2   1   75.66   10.69
   3  -2   1   68.67   11.31
  -3  -2   1   75.88    6.86
   3   2   1   72.27    9.02
  -3  -2   1   82.32   12.41
   3   2   1   79.88   10.64
  -3  -2   2  571.16   34.51
  -3   2   2  595.62   36.02
   3   2   2  543.39   32.24
   3   2   2  603.24   35.63
  -3   2   3 1444.95   70.75
   3   2   3 1496.47   71.24
   3   2   3 1345.32   62.82
  -3   2   3 1498.54   70.26
  -3  -2   4 1257.17   63.69
   3   2   4 1224.91   62.07
   3  -3  -6  107.26   26.46
   3   3  -6  111.86   23.46
   3   3  -5   33.90   12.01
   3  -3  -5   54.22   17.44
  -3  -3  -5   21.39   10.07
   3  -3  -4  161.66   25.85
  -3   3  -4  182.73   17.20
   3   3  -4  119.36   19.58
  -3  -3  -4  141.91   20.44
  -3  -3  -4  169.85   24.44
  -3  -3  -3   78.88   15.45
   3  -3  -3   87.70   15.49
  -3  -3  -3  104.47   16.64
   3  -3  -3   84.09   17.07
  -3   3  -3   77.99   10.13
   3  -3  -2  355.39   31.98
   3  -3  -2  401.18   30.55
  -3  -3  -1   27.85    6.15
   3  -3  -1   18.03    7.58
  -3   3   0  473.01   29.43
  -3   3   0  505.82   32.39
   3   3   0  428.51   23.15
  -3  -3   0  450.16   22.45
   3  -3   0  519.30   30.81
   3   3   1   26.48    7.20
  -3  -3   1   16.47    4.02
  -3   3   1   20.20    6.36
   3   3   1   16.83    5.09
  -3   3   2  500.25   36.35
   3   3   2  433.23   32.25
  -3   3   2  452.77   35.13
   3   3   2  488.98   33.64
  -3  -3   3  125.38   17.13
   3   3   3  116.79   17.38
   3   4  -5  317.84   36.39
   3  -4  -5  406.50   48.55
  -3  -4  -5  337.28   40.78
   3  -4  -4  346.14   41.03
  -3  -4  -4  310.80   34.29
  -3   4  -4  378.04   27.32
  -3  -4  -4  312.81   36.34
   3   4  -4  308.31   32.38
   3  -4  -3 1171.13   65.94
   3  -4  -3 1142.15   72.61
   3  -4  -2  327.47   29.99
  -3   4  -2  317.22   24.01
   3  -4  -2  259.03   29.89
   3  -4  -1 1041.16   57.48
   3  -4  -1 1053.03   58.86
  -3   4  -1 1095.29   51.99
  -3   4   0 1236.35   58.78
   3  -4   0 1190.79   63.21
  -3  -4   0 1038.57   45.31
   3   4   0  968.50   45.92
  -3   4   1 1240.63   62.95
   3   4   1 1235.93   56.75
   3   4   1 1212.81   61.91
   3  -4   1 1209.90   68.91
  -3  -4   1 1164.64   51.77
  -3   4   1 1248.16   63.25
  -3  -4   2  319.17   26.01
   3   4   2  347.65   29.78
   3  -4   2  317.45   33.64
  -3   4   2  349.52   33.01
   3   4   2  320.41   30.66
  -3   4   2  369.34   33.65
  -3  -4   3 1576.43   80.13
  -3  -4   4  503.02   40.41
   3   5  -5  137.16   24.37
   3  -5  -5  166.96   33.30
   3  -5  -4  312.90   41.30
  -3  -5  -4  313.90   37.82
   3  -5  -4  327.35   37.93
  -3   5  -4  331.30   27.51
   3  -5  -3   85.59   17.81
   3  -5  -3   93.92   21.00
  -3   5  -3   67.62   12.71
  -3  -5  -2  833.95   51.18
  -3   5  -2  855.00   49.08
   3  -5  -2  902.08   62.78
   3  -5  -2  929.96   58.70
   3  -5  -1   73.66   15.28
  -3   5  -1   38.59   10.56
   3  -5  -1   47.11   13.79
  -3  -5  -1   42.69    9.73
  -3   5   0  540.98   39.86
   3   5   0  435.21   30.99
   3  -5   0  479.97   42.27
   3   5   0  496.41   38.90
  -3   5   0  547.80   39.93
   3  -5   1   61.15   15.45
   3   5   1   59.54   12.06
  -3  -5   1   57.20   10.77
   3  -5   2  933.11   66.34
   3  -5   3   87.70   21.32
  -3  -5   3  105.90   17.82
  -3  -5   4  380.65   39.03
  -3  -5   4  353.94   37.06
   3   6  -5  113.17   22.41
  -3  -6  -4  243.10   37.15
   3  -6  -4  261.59   36.54
   3  -6  -4  241.85   38.72
   3  -6  -3   20.23   11.59
   3  -6  -3   35.94   13.36
  -3  -6  -2  733.36   51.44
  -3   6  -2  789.77   50.86
   3  -6  -2  699.72   59.51
   3  -6  -2  854.79   60.58
  -3  -6  -1  146.57   19.97
   3  -6  -1  186.52   26.94
   3  -6   0  251.02   32.67
   3   6   0  205.20   22.25
  -3  -6   0  198.17   22.16
   3  -6   1  165.95   27.59
   3   6   1  198.86   24.30
  -3  -6   1  167.23   20.65
   3  -6   2  735.87   64.52
  -3  -6   2  856.89   53.40
   3  -6   3   23.94   14.33
  -3  -6   3   51.21   13.61
   3  -6   4  187.20   35.65
  -3  -6   4  230.31   31.50
  -3  -6   4  307.74   38.99
   3  -6   5  159.69   35.14
  -3  -7  -4  193.02   37.55
   3  -7  -3  597.12   57.34
   3  -7  -3  607.59   62.09
   3  -7  -2   69.76   18.71
  -3  -7  -2   54.68   14.66
   3  -7  -1  533.28   49.74
  -3  -7  -1  392.71   37.03
   3  -7   0  392.26   44.52
  -3  -7   0  412.09   35.97
   3  -7   1  419.36   48.10
  -3  -7   1  524.57   40.87
   3  -7   2   40.06   14.22
  -3  -7   2   99.48   18.63
   3  -7   3  540.95   61.36
  -3  -7   3  623.76   50.89
   3  -7   4  161.17   36.54
   3  -8  -2   83.88   23.11
  -3  -8  -2   85.49   20.33
   3  -8  -1   29.68   13.28
  -3  -8  -1   40.38   12.80
   3  -8   0   28.73   13.99
  -3  -8   0   40.45   12.74
   3  -8   1   42.42   16.62
  -3  -8   1   41.02   12.51
   3  -8   2   74.35   23.13
   3  -8   3    3.11   11.00
  -3  -9  -2   41.91   15.08
  -3  -9  -1  389.02   43.14
   3  -9  -1  356.42   48.01
   3  -9   0  850.64   75.24
   3  -9   1  369.50   51.02
   3  -9   2   43.92   18.61
   4   0  -6 1135.89   82.16
  -4   0  -5  241.48   23.60
   4   0  -5  259.67   33.87
   4   0  -4 2967.29  128.74
  -4   0  -4 3165.07  108.04
   4   0  -3 2141.14   90.65
  -4   0  -3 2193.22   71.36
   4   0  -2 4414.89  146.23
   4   0  -1 2635.78   87.78
   4   0  -1 2491.00   76.90
   4   0   0 7656.18  214.35
   4   0   0 7795.11  214.11
  -4   0   1 2218.02   70.84
   4   0   2 4495.02  124.60
   4   0   2 4328.45  145.46
  -4   0   2 4463.28  144.64
  -4   0   2 4342.42  135.56
   4   0   3 2394.15   76.84
   4   0   3 2306.54   81.82
  -4   0   3 2309.60   89.71
   4   1  -6  145.22   27.84
   4  -1  -6  146.61   28.41
   4  -1  -5  238.40   33.33
   4   1  -5  251.45   32.92
  -4  -1  -5  262.81   27.48
  -4   1  -5  285.32   23.33
  -4  -1  -4  331.41   27.82
   4  -1  -4  298.96   19.57
  -4   1  -4  374.24   23.18
   4  -1  -4  338.03   35.63
   4   1  -4  330.12   33.53
  -4  -1  -3  297.61   22.97
   4   1  -3  301.02   28.04
   4  -1  -3  258.40   27.75
  -4   1  -3  282.39   15.94
   4  -1  -2 1223.62   52.75
   4  -1  -2 1307.82   60.99
   4   1  -2 1258.84   57.55
   4   1  -1  477.97   31.68
   4  -1  -1  512.43   30.12
   4  -1  -1  532.98   27.02
   4  -1   0  804.96   32.27
  -4   1   0  718.13   30.31
  -4   1   0  753.88   35.28
   4  -1   0  781.11   36.86
  -4  -1   0  752.88   43.56
  -4  -1   1  551.20   20.26
   4   1   1  603.75   35.33
  -4   1   1  577.16   29.85
  -4   1   1  643.74   31.95
  -4   1   2 1337.10   55.00
   4   1   2 1296.72   48.21
  -4  -1   3  284.71   23.08
   4   1   3  318.59   22.21
  -4   1   3  292.01   27.83
  -4   1   3  301.39   26.51
  -4  -1   4  337.37   30.13
   4  -1   4  369.02   20.32
   4   1   4  287.52   23.97
   4   2  -6  247.91   36.27
   4  -2  -6  254.13   38.77
  -4  -2  -5    3.78    4.14
   4  -2  -5    5.30    5.56
   4   2  -5   -3.30    5.56
   4  -2  -4  730.33   56.05
  -4   2  -4  829.91   35.96
   4   2  -4  648.61   49.52
  -4  -2  -4  733.34   48.34
   4   2  -3   34.84    9.12
  -4  -2  -3   50.33   10.89
   4  -2  -3   71.25   13.17
  -4   2  -3   61.07    6.80
   4  -2  -3   44.84   11.95
   4  -2  -2 1357.75   57.55
   4  -2  -2 1261.73   61.91
  -4  -2  -2 1369.91   65.40
  -4  -2  -1  152.11   18.88
   4  -2  -1  162.82   16.18
  -4   2  -1  113.28    9.52
   4  -2  -1  125.56   15.09
  -4   2   0 1756.16   64.90
   4  -2   0 1892.98   66.16
   4  -2   0 1910.82   75.17
  -4   2   0 1827.71   71.12
   4   2   0 1805.86   54.80
  -4  -2   0 1941.05   79.72
   4   2   1  118.12   11.72
  -4   2   1  107.18   13.48
  -4   2   1  126.65   14.53
  -4  -2   1  128.86   16.66
   4   2   2 1524.92   64.64
  -4   2   2 1497.31   66.35
   4   2   2 1379.31   59.71
  -4  -2   2 1498.95   68.33
   4   2   3   75.34   14.20
  -4  -2   3   48.97    9.07
  -4   2   3   71.66   13.99
  -4   2   3   62.01   12.37
   4   2   3   93.24   13.29
   4   2   4  756.24   45.22
  -4  -2   4  717.16   45.52
   4   3  -6  537.87   53.20
   4   3  -5  500.78   46.89
  -4  -3  -5  489.04   45.02
   4  -3  -5  514.06   52.64
  -4   3  -4 1539.94   56.39
  -4  -3  -4 1335.38   75.13
   4   3  -4 1256.09   73.68
   4  -3  -4 1343.10   83.05
   4  -3  -3  198.26   23.38
  -4  -3  -3  172.45   23.63
  -4   3  -3  201.07   14.59
   4  -3  -3  164.70   23.87
   4  -3  -2 2953.15  118.39
  -4   3  -2 2873.19   95.11
  -4  -3  -2 3284.98  122.74
   4  -3  -2 3111.34  112.86
  -4   3  -1 1065.98   46.46
   4  -3  -1 1168.63   56.95
  -4   3   0 2467.38   87.39
  -4  -3   0 2328.76   73.78
   4  -3   0 2458.96   88.06
  -4   3   0 2587.54   94.00
   4   3   0 2302.78   74.94
  -4  -3   1 1068.04   39.59
  -4   3   1 1254.46   58.46
   4   3   1 1145.62   54.09
   4   3   1 1152.74   48.30
   4   3   2 4085.48  133.55
  -4   3   2 3761.69  137.37
  -4  -3   2 3503.64  135.80
   4   3   2 3576.63  129.94
  -4   3   2 3737.27  136.55
  -4  -3   3  274.05   27.90
   4   3   3  250.12   25.30
   4   4  -5  291.51   35.85
   4  -4  -5  344.92   45.66
   4  -4  -4  104.76   23.11
  -4  -4  -4  102.93   20.80
   4   4  -4   93.92   18.01
  -4   4  -4  130.85   14.03
   4  -4  -3  670.35   48.23
  -4   4  -3  602.86   34.22
  -4  -4  -3  670.17   51.76
   4  -4  -3  611.37   52.01
  -4   4  -2   16.30    5.81
   4  -4  -2   17.73    8.71
   4  -4  -2   18.00    7.28
   4  -4  -1 1243.82   65.92
  -4   4  -1 1230.45   57.22
   4  -4  -1 1358.54   68.31
  -4  -4   0  225.97   17.02
  -4   4   0  248.13   24.87
   4  -4   0  230.58   22.93
   4   4   0  231.69   17.92
   4  -4   0  228.90   26.75
  -4   4   1 1459.59   70.08
  -4   4   1 1505.25   72.04
   4   4   1 1365.93   67.80
   4  -4   1 1428.49   77.76
  -4  -4   1 1330.18   52.80
   4   4   1 1345.48   59.99
  -4  -4   2   14.10    5.31
   4   4   2   23.93    7.88
   4   4   2   24.73    7.91
  -4  -4   3  831.77   56.34
  -4  -4   4  125.89   20.83
   4   5  -5   10.37    7.92
   4  -5  -5   19.33   15.01
   4   5  -4  535.74   46.76
  -4  -5  -4  664.42   58.07
   4  -5  -4  648.04   55.00
   4  -5  -4  658.73   61.91
  -4  -5  -3  323.33   39.75
   4  -5  -3  331.85   35.71
   4  -5  -3  283.05   37.62
  -4   5  -3  336.03   27.64
   4  -5  -2  671.28   53.67
  -4   5  -2  606.02   39.74
   4  -5  -2  730.55   51.92
   4  -5  -1  241.34   29.10
  -4  -5  -1  251.90   23.08
  -4   5  -1  247.91   25.52
   4  -5  -1  259.74   30.08
   4   5   0  906.23   45.92
   4  -5   0  970.64   63.99
  -4   5   0  976.97   56.09
  -4  -5   0  922.41   45.17
  -4  -5   1  327.15   24.19
   4  -5   1  315.49   36.90
   4   5   1  280.37   26.15
   4  -5   2  673.90   58.10
  -4  -5   2  835.77   45.83
   4   5   2  824.96   53.12
  -4  -5   3  457.18   45.13
   4  -5   3  317.21   41.08
  -4  -5   3  399.98   33.55
   4  -5   4  755.96   69.55
  -4  -5   4  705.27   52.16
  -4  -5   4  823.62   62.06
   4   6  -5   12.26    8.07
   4  -6  -4  409.90   46.61
   4  -6  -4  463.03   54.87
  -4  -6  -4  486.14   53.92
   4  -6  -3  174.21   31.44
   4  -6  -3  149.58   26.21
  -4  -6  -3  155.83   30.11
   4  -6  -2  711.33   55.85
   4  -6  -2  676.05   57.86
  -4   6  -2  576.64   43.08
  -4  -6  -1  132.62   18.21
   4  -6  -1   98.20   20.45
   4   6   0  931.16   50.24
   4  -6   0  904.20   67.63
  -4  -6   0  979.10   51.24
   4   6   1   85.22   15.71
   4  -6   1   82.84   20.39
   4  -6   2  642.44   60.80
   4  -6   3  130.07   29.25
  -4  -6   3  204.72   34.38
  -4  -6   3  193.85   24.61
   4  -6   4  409.53   54.32
  -4  -6   4  561.24   55.58
  -4  -7  -4   51.76   20.62
   4  -7  -3  300.29   40.85
   4  -7  -3  295.02   43.68
   4  -7  -2   50.52   16.33
  -4  -7  -1  340.66   33.16
   4  -7  -1  292.06   38.44
  -4  -7   0  228.83   25.58
   4  -7   0  237.54   35.32
   4  -7   1  263.04   38.80
  -4  -7   1  278.66   26.99
   4  -7   2   34.09   14.34
  -4  -7   2   45.21   12.22
   4  -7   3  278.47   45.13
  -4  -7   3  303.06   45.87
   4  -7   4  108.55   30.62
  -4  -8  -3  127.56   36.07
   4  -8  -2  804.33   71.48
  -4  -8  -1  454.01   42.16
   4  -8  -1  433.56   50.21
  -4  -8   0  562.81   44.82
   4  -8   0  446.39   52.56
   4  -8   1  379.24   50.49
  -4  -8   1  383.97   35.31
   4  -8   2  782.52   75.90
   4  -8   3   44.82   20.50
  -4  -8   3  125.45   33.78
   4  -9   0   67.51   22.83
   4  -9   1   19.49   12.96
   5   0  -6   -2.15    8.71
  -5   0  -5    2.79    3.53
   5   0  -5   -1.36    9.20
   5   0  -4    5.55    8.09
  -5   0  -4    1.54    1.92
   5   0  -3   -2.25    4.32
   5   0  -3    2.24    3.90
   5   0  -2   -0.03    3.32
   5   0  -2    6.24    3.12
   5   0  -1    4.39    2.21
   5   0  -1   20.14    6.62
   5   0   0    1.04    1.97
   5   0   0    2.35    2.06
  -5   0   1   -0.22    1.54
   5   0   2   10.27    2.08
  -5   0   2    2.49    1.92
  -5   0   3    4.00    3.01
   5   0   3   -1.24    3.38
   5   0   3    2.49    1.64
   5  -1  -6  656.32   64.10
   5   1  -6  711.99   64.67
   5  -1  -5   56.51   16.36
  -5  -1  -5   30.98    8.94
   5   1  -5   59.26   17.25
   5  -1  -4 1416.24   82.29
   5   1  -4 1319.21   76.79
  -5  -1  -4 1468.10   64.66
   5  -1  -4 1238.55   59.72
  -5   1  -4 1528.62   51.71
   5  -1  -3  825.40   54.46
   5   1  -3  895.50   53.78
   5  -1  -2  803.12   39.40
   5  -1  -2  805.41   46.87
   5   1  -2  686.03   41.91
   5   1  -2  797.58   44.85
   5  -1  -1  160.87   16.56
   5   1  -1  144.45   18.89
   5  -1  -1  149.76   14.00
   5  -1   0 4410.99  130.35
   5  -1   0 4486.60  137.99
  -5   1   0 4172.36  127.50
  -5   1   0 4319.83  134.95
   5   1   1  137.02   18.06
  -5   1   1  182.91   16.38
  -5   1   1  167.35   15.59
  -5  -1   1  159.65    9.66
   5  -1   1  182.54    8.81
   5   1   2  825.01   45.17
   5   1   2  829.70   35.07
  -5   1   2  819.86   41.85
  -5  -1   2  711.10   32.99
  -5  -1   3  925.43   46.49
   5   1   3  933.68   42.29
  -5   1   3  934.35   54.55
  -5   1   3 1018.47   52.97
  -5  -1   4 1590.81   76.74
   5  -1   4 1759.11   67.41
   5   1   4 1571.27   65.75
   5   2  -6  501.43   53.52
   5  -2  -6  506.04   57.12
   5  -2  -5  959.86   72.03
   5   2  -5  799.12   62.31
  -5   2  -4  454.42   19.98
   5   2  -4  393.61   38.40
   5   2  -3   27.75    9.29
   5  -2  -3   49.79   11.12
   5  -2  -3   18.66    8.80
   5  -2  -2 3571.63  131.73
  -5  -2  -2 3478.36  137.12
   5  -2  -2 3562.83  121.93
   5  -2  -1 1886.30   74.74
  -5   2  -1 1725.56   58.06
  -5  -2  -1 1884.35   85.80
   5  -2  -1 1861.89   73.50
  -5   2   0  252.21   17.97
  -5  -2   0  170.38   22.39
   5  -2   0  248.90   23.24
  -5   2   0  231.77   20.61
   5  -2   0  198.11   16.45
   5   2   0  214.05   10.79
   5   2   1 2130.55   73.80
  -5   2   1 2106.83   80.75
  -5  -2   1 1929.28   89.45
  -5   2   1 2230.39   83.37
   5   2   2 4190.67  133.20
  -5  -2   2 3649.99  113.24
  -5   2   2 3673.71  134.65
  -5   2   2 4164.87  137.58
   5   2   2 3945.24  127.35
  -5   2   3   50.92   11.97
   5   2   3   44.77   11.45
   5   2   3   37.50    8.87
  -5  -2   3   41.51    8.14
  -5  -2   4  394.94   32.11
   5   2   4  425.66   31.91
   5   3  -6   29.35   12.95
   5   3  -5   98.79   20.64
   5  -3  -5   79.15   20.44
  -5   3  -4   53.86    6.26
   5  -3  -4   39.33   13.25
   5   3  -4   49.80   13.89
  -5   3  -4   52.36    6.29
  -5  -3  -3   19.79    8.16
  -5   3  -3   33.84    4.86
  -5   3  -3   26.25    4.79
   5  -3  -3   19.35    8.98
   5   3  -3   30.53    9.71
   5  -3  -3   22.60    8.28
  -5  -3  -2  549.94   43.99
  -5   3  -2  491.42   24.79
   5  -3  -2  483.19   39.15
   5  -3  -2  496.07   35.92
  -5  -3  -1  243.78   27.81
   5  -3  -1  219.40   23.30
   5  -3  -1  222.08   22.93
  -5   3  -1  216.76   17.22
   5   3   0   84.99    8.06
  -5   3   0   99.55   13.00
  -5   3   0   91.01   14.28
  -5  -3   0   94.18   17.07
   5  -3   0   76.50   11.73
  -5  -3   1  286.79   29.75
  -5   3   1  288.42   26.08
   5   3   1  263.64   19.26
   5   3   2  556.28   36.65
  -5  -3   2  475.72   25.60
  -5   3   2  562.49   40.59
  -5   3   2  552.60   40.23
  -5  -3   2  553.12   43.12
   5   3   2  589.66   38.04
  -5  -3   3   22.95    8.69
  -5  -3   3   24.16    5.98
   5   3   3   33.20    9.38
  -5  -3   4   34.90    9.03
   5   4  -5  158.61   27.07
   5  -4  -5  245.43   38.29
   5  -4  -4  840.57   59.80
  -5  -4  -4  789.55   62.42
   5  -4  -4  835.98   67.81
   5   4  -4  733.72   54.95
   5  -4  -3  143.42   21.81
  -5  -4  -3  160.50   26.53
   5  -4  -3  123.86   23.36
  -5   4  -3  166.19   15.24
  -5  -4  -2 1740.45   91.34
   5  -4  -2 1595.10   78.47
  -5   4  -2 1557.09   63.82
   5  -4  -2 1555.01   83.71
   5  -4  -1  471.80   39.05
   5  -4  -1  434.52   36.70
  -5   4  -1  479.94   31.56
  -5  -4   0 1198.04   40.41
   5  -4   0 1234.82   56.24
  -5   4   0 1291.57   61.60
   5   4   0 1157.14   41.63
   5  -4   0 1312.86   67.50
  -5   4   1  536.05   39.78
   5   4   1  540.60   38.76
   5  -4   1  538.94   45.91
  -5   4   1  636.23   44.32
  -5  -4   1  564.12   47.86
   5   4   1  479.71   31.27
  -5  -4   1  496.52   22.98
  -5  -4   2 2076.21  101.60
   5  -4   2 1959.41  100.86
  -5  -4   2 2039.82   73.33
   5   4   2 1874.72   88.76
   5   4   2 2133.81   88.36
   5  -4   3  174.70   28.79
  -5  -4   3  191.78   27.38
  -5  -4   3  178.61   19.59
   5   5  -5   -0.07    6.13
   5   5  -4  389.18   39.93
   5  -5  -4  445.85   45.28
  -5  -5  -4  473.31   50.74
   5  -5  -4  373.83   47.66
   5  -5  -3  328.24   36.41
  -5  -5  -3  289.26   38.15
   5  -5  -3  292.90   38.89
   5  -5  -2  117.11   20.51
   5  -5  -2   89.34   19.65
  -5  -5  -2   99.31   22.63
  -5  -5  -1   96.20   13.94
   5  -5  -1   63.99   15.34
   5  -5  -1   72.10   15.93
  -5   5  -1   77.75   13.69
  -5  -5   0 1197.08   51.41
  -5   5   0 1237.50   65.83
   5   5   0 1193.49   52.86
   5  -5   0 1212.28   75.09
   5  -5   1   89.32   20.43
   5   5   1  117.23   16.09
  -5  -5   1   74.97    9.54
   5  -5   2  131.52   26.07
   5   5   2  142.45   20.91
  -5  -5   2  113.02   23.73
  -5  -5   2  135.32   15.05
  -5  -5   3  399.55   44.00
   5  -5   3  357.05   44.62
  -5  -5   4  515.08   50.40
  -5  -5   4  500.01   40.46
   5  -5   4  442.00   54.13
   5  -5   5   17.33   16.22
   5  -6  -4  451.87   49.56
  -5  -6  -4  471.56   55.28
   5  -6  -4  459.15   55.94
   5  -6  -3  411.79   45.11
  -5  -6  -3  388.57   49.53
   5  -6  -3  449.31   51.11
   5  -6  -2   44.85   16.27
  -5   6  -2   66.27   13.79
   5  -6  -2   71.58   18.07
   5  -6  -1  161.52   26.32
  -5  -6  -1  192.69   21.69
   5  -6  -1  201.00   29.76
   5   6   0 1125.64   55.32
   5  -6   0 1237.33   81.77
   5  -6   1  198.97   31.96
   5   6   1  187.82   23.12
  -5  -6   1  206.90   19.02
   5  -6   2   89.65   23.96
  -5  -6   2   59.07   10.82
  -5  -6   2   65.03   21.27
  -5  -6   3  486.53   54.16
  -5  -6   3  477.00   36.58
   5  -6   3  519.07   58.43
  -5  -6   4  562.05   57.97
   5  -6   4  551.04   64.14
  -5  -7  -4  261.25   44.98
   5  -7  -3   15.44   12.56
  -5  -7  -3    4.43   11.21
   5  -7  -3    9.20    7.98
   5  -7  -2  615.44   60.33
   5  -7  -2  679.39   60.96
  -5  -7  -1   91.64   16.73
   5  -7  -1  137.74   26.65
  -5  -7   0  294.68   27.48
   5  -7   0  274.29   39.98
   5  -7   1   91.84   24.69
  -5  -7   1  135.27   17.30
   5  -7   2  694.49   69.33
   5  -7   3   30.02   17.43
  -5  -7   3   43.04   18.82
   5  -8  -2    0.80    8.83
  -5  -8  -1   43.38   13.17
   5  -8  -1   69.30   20.05
   5  -8   0  117.69   28.48
  -5  -8   0  117.18   18.67
   5  -8   1   31.68   15.43
   5  -8   2   13.40   11.98
  -5  -8   2    4.16   12.94
  -5  -8   3   50.02   20.46
   6   0  -6  291.87   42.41
   6   0  -5  869.59   68.86
   6   0  -4  277.01   33.81
   6   0  -3 4155.76  147.10
   6   0  -3 3356.13  134.38
   6   0  -2 3967.15  123.31
   6   0  -2 3838.93  138.70
   6   0  -1 6541.94  195.17
   6   0  -1 6255.77  180.31
   6   0   0  448.88   24.72
   6   0   0  448.20   25.09
  -6   0   1 6613.10  192.20
   6   0   2 3755.62  104.32
  -6   0   2 3739.06  121.23
   6   0   3 4283.12  153.55
   6   0   3 4553.34  125.69
  -6   0   3 4334.21  147.42
   6   1  -6   97.89   23.99
   6  -1  -6  111.20   27.17
   6  -1  -5  546.32   54.16
   6   1  -5  474.08   49.09
   6  -1  -4  253.32   32.74
   6  -1  -4  197.59   23.05
   6   1  -4  257.34   31.53
   6  -1  -3  130.77   17.03
   6  -1  -3   92.32   18.12
   6   1  -3  131.84   20.06
   6  -1  -2  664.31   36.01
   6  -1  -2  704.10   45.03
   6   1  -2  573.14   41.57
   6   1  -2  646.88   41.30
   6  -1  -1  890.74   46.35
   6   1  -1  817.14   53.66
   6   1  -1  921.22   30.23
   6  -1  -1  843.99   41.03
   6  -1   0  513.91   27.53
   6  -1   0  501.52   31.38
  -6   1   0  458.68   24.69
   6   1   1  861.35   53.42
   6  -1   1  908.76   31.35
  -6   1   1  982.64   45.18
  -6   1   1  975.44   45.49
  -6  -1   1  842.69   31.73
   6   1   2  679.19   43.98
   6   1   2  711.86   32.27
  -6   1   2  718.97   40.40
  -6   1   2  688.69   41.89
  -6  -1   2  624.66   30.34
   6   1   3  158.49   14.36
  -6   1   3  190.20   21.48
  -6  -1   3  161.68   16.87
   6  -1   4  253.85   24.14
   6   1   4  242.17   19.52
  -6  -1   4  218.78   24.27
   6   2  -6   47.90   17.54
   6  -2  -5  385.14   46.44
   6   2  -5  350.50   41.16
   6   2  -4   16.19    8.65
   6  -2  -4   33.58   11.84
   6  -2  -3  712.37   44.63
   6  -2  -3  665.16   51.48
   6   2  -3  693.79   48.18
   6  -2  -2  166.45   21.69
   6  -2  -2  179.66   19.42
   6  -2  -1  922.06   49.72
  -6  -2  -1 1064.37   64.53
  -6   2  -1  926.66   35.14
   6  -2  -1  971.48   49.94
   6   2   0  131.30    8.35
  -6   2   0  128.18   16.15
   6  -2   0  131.83   17.72
  -6   2   0  146.44   13.89
  -6  -2   0  139.04   21.83
   6  -2   0  128.35   13.65
  -6  -2   1 1135.43   66.13
   6  -2   1 1114.24   59.19
  -6   2   1 1141.11   56.15
   6  -2   1 1116.38   41.10
  -6   2   2  187.95   21.65
   6   2   2  197.37   18.36
  -6   2   2  184.74   20.99
  -6  -2   2  161.80   11.32
  -6  -2   3  741.92   38.91
   6   2   3  817.31   43.04
  -6   2   3  840.07   52.64
  -6  -2   4   21.97    7.89
   6   2   4   22.42    7.23
   6   3  -5 1208.07   81.34
   6  -3  -5 1356.33   93.52
   6   3  -4  362.72   38.14
   6  -3  -4  376.99   43.17
   6   3  -3 1016.15   61.09
   6  -3  -3 1076.98   60.66
  -6  -3  -3  996.41   68.27
   6  -3  -3 1020.97   67.45
  -6   3  -2  246.83   14.65
  -6  -3  -2  247.89   30.96
   6  -3  -2  234.02   24.48
   6  -3  -2  222.66   26.75
  -6   3  -1 3364.35  111.44
  -6  -3  -1 3844.66  147.44
   6  -3  -1 3525.11  130.86
   6  -3  -1 3636.21  129.69
  -6   3   0 2829.25  104.55
  -6   3   0 2592.68   93.38
  -6  -3   0 2693.50  116.52
   6  -3   0 2465.21   93.24
   6  -3   0 2507.65  106.19
   6   3   0 2476.61   76.62
  -6   3   1 3991.60  137.94
   6  -3   1 3971.31  148.48
  -6  -3   1 3882.60  153.74
  -6   3   1 4165.09  144.27
   6   3   1 3737.65  124.01
  -6  -3   2  232.44   12.65
   6   3   2  301.15   26.16
  -6  -3   2  258.27   31.18
  -6   3   2  252.05   26.95
   6  -3   2  248.92   30.07
  -6  -3   2  245.49   14.33
   6   3   2  259.35   24.48
  -6   3   2  247.36   26.46
  -6  -3   3 1114.65   47.98
   6   3   3 1102.33   58.56
  -6  -3   4  404.18   31.49
   6   3   4  442.62   36.14
   6   4  -5   24.99   11.40
   6  -4  -5   18.97   13.28
   6  -4  -4  259.32   32.67
   6  -4  -4  266.90   38.02
   6   4  -4  235.82   30.53
   6  -4  -3  207.86   26.98
   6  -4  -3  165.56   27.76
  -6  -4  -3  173.16   28.66
  -6   4  -3  207.12   15.05
  -6  -4  -2  551.31   50.54
   6  -4  -2  510.47   44.83
   6  -4  -2  568.21   43.26
  -6   4  -2  521.36   29.92
  -6   4  -1  204.86   19.53
  -6  -4  -1  172.54   26.95
   6  -4  -1  160.16   22.69
   6  -4  -1  195.86   25.67
  -6   4   0  664.36   42.03
  -6  -4   0  787.93   59.21
  -6   4   0  717.77   47.73
   6   4   0  678.07   30.92
   6  -4   0  668.71   42.58
   6  -4   0  613.52   48.58
  -6  -4   1  209.88    9.93
  -6   4   1  208.38   24.38
  -6  -4   1  247.83   32.48
   6  -4   1  263.59   32.70
  -6   4   1  229.09   27.14
   6   4   1  244.81   20.63
   6   4   1  240.04   25.67
  -6  -4   2  576.94   50.99
   6   4   2  567.51   42.47
  -6  -4   2  600.19   26.31
   6  -4   2  583.87   51.18
   6   4   2  651.16   42.76
  -6  -4   3  169.65   27.20
  -6  -4   3  212.29   17.51
   6  -4   3  213.92   32.90
  -6  -4   3  219.83   19.78
   6   5  -5  182.77   30.56
   6  -5  -4   42.18   17.34
  -6  -5  -4   37.05   13.76
   6  -5  -4   25.52   11.19
   6   5  -4   56.78   16.06
   6  -5  -3  805.58   60.40
  -6  -5  -3  825.99   69.25
   6  -5  -3  805.81   67.20
   6  -5  -2  331.52   38.63
  -6  -5  -2  457.48   49.56
   6  -5  -2  422.25   40.55
   6  -5  -1  943.88   62.01
   6  -5  -1  970.29   65.70
  -6   5  -1  954.45   54.02
   6  -5   0    8.08    6.59
   6   5   0    9.71    4.04
   6  -5   0    3.86    6.09
  -6  -5   0    7.20    3.69
  -6  -5   0   -3.83   11.13
  -6   5   0   17.99    7.65
  -6  -5   1 1049.17   40.34
   6  -5   1 1027.88   73.77
   6   5   1 1090.70   55.57
  -6  -5   2  486.47   50.98
   6  -5   2  424.76   47.44
  -6  -5   2  464.35   24.54
   6   5   2  488.81   39.38
  -6  -5   3 1082.32   77.99
  -6  -5   3  957.10   48.78
   6  -5   3  986.24   78.66
   6  -5   4   71.76   21.83
   6  -6  -4   13.17   14.91
  -6  -6  -4   18.19   14.40
   6  -6  -4   28.09   12.74
   6  -6  -3  392.58   44.86
  -6  -6  -3  501.87   57.81
   6  -6  -3  478.92   53.66
   6  -6  -2  224.76   33.48
  -6  -6  -2  156.98   32.65
  -6   6  -2  192.42   22.77
   6  -6  -2  221.86   31.83
   6  -6  -1  414.81   42.96
   6  -6  -1  504.98   49.13
  -6   6  -1  436.34   37.47
   6   6   0   11.52    5.09
   6  -6   0   32.00   14.62
  -6  -6   0   23.12   16.31
  -6  -6   1  530.55   29.43
  -6  -6   1  629.16   64.84
   6  -6   1  498.19   53.19
   6   6   1  509.31   38.38
   6  -6   2  213.11   36.17
  -6  -6   2  194.45   35.76
  -6  -6   2  195.47   16.36
  -6  -6   3  587.50   61.91
   6  -6   3  536.98   61.50
   6  -6   4   49.21   20.51
  -6  -7  -4  181.21   39.66
   6  -7  -3  177.43   35.44
   6  -7  -3  186.03   32.59
  -6  -7  -3  225.66   42.90
  -6  -7  -2  372.73   54.63
   6  -7  -2  384.61   47.68
   6  -7  -2  398.51   47.12
   6  -7  -1  132.54   27.69
  -6  -7  -1   78.39   24.18
  -6  -7   0  357.72   29.57
   6  -7   0  344.82   45.59
   6  -7   1   82.61   22.49
  -6  -7   1   88.27   27.36
  -6  -7   2  400.72   56.59
   6  -7   2  393.78   52.54
   6  -7   3  234.57   43.69
  -6  -7   3  271.28   46.59
  -6  -8  -2   48.38   21.75
  -6  -8  -1 1324.66  114.39
   6  -8  -1  999.85   82.21
  -6  -8   0 1356.44  115.47
   6  -8   0  914.89   82.00
  -6  -8   1 1347.76  115.57
   6  -8   1 1025.55   90.39
   6  -8   2   53.95   21.84
  -6  -8   2   20.11   16.71
  -6  -8   3  535.46   72.59
   7   0  -5    3.97    7.29
   7   0  -4    3.87    3.71
   7   0  -4    3.39    6.11
   7   0  -3    4.50    5.14
   7   0  -3    1.48    4.65
   7   0  -2   10.91    7.67
   7   0  -2    0.74    2.33
   7   0  -1   -0.54    2.91
   7   0  -1    1.93    4.60
   7   0   0    5.60    3.70
   7   0   0   -0.55    2.39
  -7   0   1   -0.34    1.62
   7   0   1    2.23    2.04
  -7   0   2   -3.32    2.91
   7   0   2    1.18    1.06
  -7   0   3    0.62    2.93
   7   0   3   -1.38    4.95
   7  -1  -5 1767.90  106.44
   7   1  -5 1696.59  102.37
   7  -1  -4  330.87   38.82
   7   1  -4  292.02   35.30
   7  -1  -4  267.81   30.34
   7  -1  -3  611.39   38.49
   7  -1  -3  561.62   46.29
   7   1  -3  555.96   43.93
   7  -1  -2  340.63   25.00
   7  -1  -2  309.46   30.35
   7   1  -2  342.93   30.36
   7   1  -1 4924.09  156.09
   7  -1  -1 4451.23  155.37
   7  -1  -1 4479.17  148.59
   7   1  -1 4824.49  132.11
  -7   1   0   98.29   10.93
   7  -1   0   83.67   12.94
   7  -1   0   83.64   11.19
   7   1   0   82.20    8.64
   7  -1   1 4588.09  131.46
   7   1   1 4447.66  168.31
  -7   1   1 4591.78  149.04
   7   1   2  378.06   34.22
   7   1   2  390.53   22.50
  -7   1   2  370.34   28.36
  -7  -1   2  316.45   20.95
  -7   1   2  383.62   30.87
   7   1   3  752.52   34.28
  -7   1   3  740.13   47.39
  -7  -1   3  674.79   38.51
   7  -1   4  311.95   30.72
   7   1   4  315.69   21.37
  -7  -1   4  344.68   30.35
   7   2  -5   18.41   10.10
   7  -2  -5    6.82    8.25
   7   2  -4  132.03   23.17
   7  -2  -4  116.62   23.74
   7  -2  -3 2251.94   93.80
   7  -2  -3 2125.60  105.82
   7   2  -3 2241.72  101.46
   7  -2  -2  277.39   29.70
   7  -2  -2  274.02   24.82
   7  -2  -1 2132.99   86.84
   7   2  -1 2200.95   98.90
  -7   2  -1 2012.04   65.85
   7  -2  -1 2041.58   84.72
   7  -2   0  124.06   14.20
   7   2   0  119.97    8.55
  -7   2   0   99.03   11.95
   7  -2   0  117.54   17.46
  -7   2   0  120.14   16.30
   7   2   1 2368.70   84.10
  -7   2   1 2524.70   75.16
   7  -2   1 2428.60   45.50
   7  -2   1 2496.50   80.48
  -7   2   2  310.94   28.79
   7   2   2  309.14   23.99
  -7   2   2  292.88   27.71
  -7  -2   2  283.07   15.59
  -7  -2   3 2288.33   81.41
   7   2   3 2280.67   86.19
   7   2   4  168.85   18.64
  -7  -2   4  155.04   19.10
   7   3  -5   37.98   14.86
   7  -3  -5   23.86   12.92
   7   3  -4    9.29    6.96
   7  -3  -4    9.47    8.29
   7  -3  -4    4.47    5.44
   7   3  -3  382.65   36.61
   7  -3  -3  357.11   38.90
   7  -3  -3  391.17   34.89
   7  -3  -2   28.41    9.45
  -7   3  -2   52.94    5.29
  -7  -3  -2   45.61   14.50
   7  -3  -2   45.59   13.17
  -7   3  -1  411.28   24.53
  -7  -3  -1  452.02   45.25
   7  -3  -1  401.67   34.90
   7  -3  -1  446.02   35.03
  -7   3   0  164.69   17.38
  -7   3   0  163.88   20.77
  -7  -3   0  125.46   23.61
   7  -3   0  168.13   23.32
   7   3   0  157.07   10.08
   7  -3   0  141.09   16.89
   7   3   1  510.82   29.74
  -7  -3   1  444.32   44.42
  -7   3   1  515.09   36.65
   7  -3   1  449.60   26.84
   7  -3   1  493.60   41.68
  -7   3   1  520.67   39.62
   7  -3   2   50.39   14.88
   7   3   2   51.75   11.07
  -7   3   2   52.34   12.89
  -7  -3   2   59.54   16.60
   7   3   2   69.34   12.69
   7   3   3  390.32   32.16
  -7  -3   3  406.34   24.00
   7   4  -5  322.49   40.52
   7  -4  -5  424.24   54.32
   7   4  -4   95.37   20.28
   7  -4  -4   80.39   18.32
   7  -4  -4  128.39   26.92
   7  -4  -3 1109.75   66.08
  -7   4  -3  922.48   29.86
  -7  -4  -3 1074.83   77.68
  -7   4  -3  845.56   28.98
   7  -4  -3 1097.59   74.37
  -7   4  -2   24.10    5.83
   7  -4  -2   19.85    8.81
  -7  -4  -2   30.57   14.57
   7  -4  -2   22.01    9.78
  -7   4  -1 1407.08   61.82
   7  -4  -1 1362.11   74.08
   7  -4  -1 1369.83   77.33
  -7  -4   0   71.68   19.38
  -7   4   0   66.37   12.54
   7  -4   0   57.18   12.11
   7  -4   0   67.03   16.64
   7   4   0   70.16    7.72
  -7   4   1 1690.83   80.90
  -7  -4   1 1719.58   98.09
   7  -4   1 1532.11   90.54
   7   4   1 1669.50   66.90
   7  -4   2   39.45   14.03
   7   4   2   25.86    9.52
   7   4   2   39.02   10.65
  -7  -4   2   19.75   11.38
  -7  -4   3 1157.65   46.22
   7  -4   3 1319.24   87.62
  -7  -4   3 1242.48   49.56
   7   5  -4   38.26   13.41
  -7  -5  -4   58.58   20.87
   7  -5  -4   66.97   21.31
   7  -5  -4   70.43   18.04
   7  -5  -3  252.31   33.34
  -7  -5  -3  190.11   34.67
   7  -5  -3  268.23   38.47
   7  -5  -2  113.26   23.18
   7  -5  -2  154.92   24.88
  -7  -5  -2   95.74   23.40
  -7   5  -1  900.28   51.99
   7  -5  -1  813.29   58.75
   7  -5  -1  973.19   66.89
   7  -5   0   46.36   12.61
  -7   5   0   98.18   17.01
   7  -5   0   90.03   20.03
  -7  -5   0   69.66   20.89
   7   5   0   67.57    9.09
  -7  -5   1 1018.12   78.61
   7  -5   1  986.62   74.06
   7   5   1 1025.80   52.82
   7  -5   2  148.09   28.58
  -7  -5   2  123.78   26.49
   7   5   2  158.07   21.80
  -7  -5   3  294.84   41.75
   7  -5   3  270.67   41.02
   7  -5   4   98.01   27.63
  -7  -6  -4   10.75   10.59
  -7  -6  -3  181.24   35.89
   7  -6  -3  171.73   32.62
   7  -6  -3  182.77   31.00
   7  -6  -2   11.90    7.63
   7  -6  -2   27.11   12.99
  -7  -6  -2   24.52   15.25
  -7   6  -1  845.23   54.73
   7  -6  -1  757.39   60.29
   7  -6  -1  882.06   68.57
   7   6   0   32.73    7.34
  -7  -6   0   16.14   12.95
   7  -6   0   42.11   16.51
  -7  -6   1 1076.16   88.17
   7  -6   1  893.41   74.81
   7   6   1  895.83   52.41
   7  -6   2   35.24   15.52
  -7  -6   2   34.44   18.18
   7  -6   3  186.91   37.37
  -7  -6   3  210.32   37.81
   7  -6   4   35.51   18.82
  -7  -7  -4   29.93   21.45
  -7  -7  -3  696.03   77.75
   7  -7  -3  665.11   70.11
   7  -7  -2   23.44   14.15
  -7  -7  -2   37.26   18.08
   7  -7  -2   55.66   19.14
  -7  -7  -1  798.39   83.34
   7  -7  -1  703.20   64.70
   7  -7   0   21.37   12.77
  -7  -7   0   23.74   16.99
  -7  -7   1  919.06   89.02
   7  -7   1  775.50   73.96
   7  -7   2   47.79   20.04
  -7  -7   2   55.54   21.87
  -7  -7   3  750.30   80.58
   7  -7   3  680.23   77.12
   7  -8  -1   79.83   22.60
  -7  -8  -1   64.59   28.99
   7  -8   0   41.90   20.67
  -7  -8   0   27.29   19.54
   7  -8   1   46.69   18.62
  -7  -8   1  139.33   39.84
  -7  -8   2    4.26   15.62
   8   0  -5   78.89   22.10
   8   0  -4 1017.97   72.86
   8   0  -3  677.05   55.55
   8   0  -3  761.69   55.16
   8   0  -2 7231.20  210.11
   8   0  -2 7000.47  232.49
   8   0  -1  296.44   26.33
   8   0  -1  320.09   20.69
   8   0   0  786.26   39.27
   8   0   0  718.39   38.53
  -8   0   1  341.27   23.30
   8   0   1  336.67   20.19
  -8   0   2 6993.41  213.22
   8   0   2 7108.97  192.81
   8   0   2 7050.48  192.73
   8   0   3  902.32   61.17
  -8   0   3  951.48   52.30
   8   0   4  909.56   55.92
   8  -1  -5   91.94   23.35
   8   1  -5   69.06   19.62
   8  -1  -4  737.16   61.77
   8  -1  -4  547.89   48.44
   8   1  -4  708.80   58.03
   8  -1  -3  133.63   17.67
   8  -1  -3  124.23   22.31
   8   1  -3   98.32   18.80
   8   1  -3  149.58   22.24
   8   1  -2  166.43   25.77
   8  -1  -2  140.72   21.12
   8   1  -2  154.60   21.15
   8  -1  -2  158.75   16.98
   8   1  -1  218.55   22.39
   8   1  -1  286.22   34.95
   8  -1  -1  225.28   23.39
   8  -1  -1  216.03   20.23
   8   1  -1  211.43   12.47
   8  -1   0 2345.03   88.23
   8   1   0 2462.07   80.32
   8  -1   0 2532.19   96.16
   8  -1   1  191.47   13.74
   8   1   1  201.17   28.75
  -8   1   1  197.53   19.67
   8  -1   1  205.04   22.12
   8   1   2  127.84   21.57
   8   1   2  136.31   13.21
  -8  -1   2  130.36   12.97
  -8   1   2  126.44   16.93
  -8   1   2  113.94   17.04
   8   1   3  160.37   13.46
   8   1   3  150.64   22.04
  -8   1   3  141.11   20.12
  -8  -1   3  148.05   17.19
   8  -1   4  853.97   58.25
  -8  -1   4  798.59   49.88
   8   2  -5   30.97   13.16
   8  -2  -5    7.25   10.07
   8  -2  -4  285.11   38.65
   8   2  -4  335.39   38.51
   8  -2  -3   93.55   19.82
   8  -2  -3   98.38   16.09
   8   2  -3   89.86   17.78
   8   2  -2  971.43   57.14
   8  -2  -2  945.67   60.44
   8  -2  -2  936.15   51.27
   8  -2  -1  132.84   18.61
   8   2  -1  149.08   24.10
   8  -2  -1  123.02   17.59
  -8   2  -1  144.56   11.54
   8  -2   0  738.52   40.34
   8   2   0  832.04   57.87
   8   2   0  710.04   28.67
   8  -2   0  782.28   48.96
  -8   2   0  733.52   37.64
   8   2   1  171.33   24.80
  -8   2   1  133.74   18.27
  -8   2   1  160.50   18.46
   8  -2   1  158.82   13.12
   8  -2   1  158.83   21.58
   8   2   2 1043.61   50.45
  -8  -2   2  973.44   34.49
  -8   2   2 1098.95   59.52
  -8   2   2  975.23   57.08
  -8  -2   3   82.20   10.99
   8   2   3  106.29   13.71
   8   3  -5  329.05   42.04
   8  -3  -5  318.01   45.35
   8  -3  -4 1792.70  105.86
   8  -3  -4 1636.22   87.45
   8   3  -4 1586.29   92.69
   8   3  -3  109.30   19.68
   8  -3  -3  121.92   19.88
   8  -3  -3  128.50   24.27
   8  -3  -2  870.90   59.52
   8  -3  -2  869.70   53.39
  -8   3  -1  827.65   37.92
  -8  -3  -1  936.75   69.90
   8  -3  -1  781.65   52.63
   8  -3  -1  854.32   52.35
  -8  -3   0 5621.32  220.60
  -8   3   0 5885.45  196.23
   8  -3   0 5807.85  201.86
   8   3   0 5788.31  158.56
   8  -3   0 5603.44  182.92
   8   3   1  907.32   43.04
  -8   3   1  963.77   53.38
   8  -3   1  889.93   41.50
   8  -3   1  917.13   61.09
  -8   3   1  918.37   55.77
  -8  -3   1  770.30   63.90
   8   3   2 1012.50   54.49
   8  -3   2  925.17   65.13
   8   3   2  923.98   53.22
  -8  -3   3  155.06   12.89
   8   3   3  145.62   19.53
   8   4  -5   40.69   15.65
   8  -4  -4  203.79   29.68
   8   4  -4  206.47   30.87
   8  -4  -4  241.80   38.04
   8  -4  -3   90.11   18.57
   8  -4  -3   90.94   22.03
  -8   4  -2 1174.94   44.57
  -8  -4  -2 1019.88   79.43
   8  -4  -2  990.72   68.55
   8  -4  -2  937.41   62.16
  -8   4  -1  147.31   16.54
   8  -4  -1  162.60   24.71
   8  -4  -1  150.84   22.52
  -8  -4  -1  126.80   25.80
  -8   4   0  375.57   30.88
  -8  -4   0  358.64   44.93
   8   4   0  366.14   17.74
   8  -4   0  331.65   29.82
   8  -4   0  315.86   36.12
  -8  -4   1  122.92   26.76
   8  -4   1  156.85   26.75
  -8   4   1  145.44   20.80
   8   4   1  151.43   15.84
   8  -4   2 1213.88   81.43
  -8  -4   2 1175.95   84.54
   8   4   2 1253.47   64.72
   8  -4   3   97.45   23.52
   8  -5  -4  255.93   35.40
   8  -5  -4  284.49   43.70
   8   5  -4  262.75   35.46
   8  -5  -3  267.67   35.28
   8  -5  -3  236.12   37.37
  -8  -5  -3  249.48   41.42
  -8   5  -2 1489.80   62.81
   8  -5  -2 1319.05   86.34
   8  -5  -2 1319.08   81.51
  -8   5  -1  193.27   22.03
   8  -5  -1  165.01   27.75
  -8  -5  -1  197.70   35.74
   8  -5  -1  199.07   27.68
  -8   5   0  584.45   43.77
  -8  -5   0  642.77   64.06
   8  -5   0  533.80   42.39
   8   5   0  595.45   27.31
   8  -5   0  539.25   52.11
   8  -5   1  203.96   32.87
  -8  -5   1  202.42   35.25
   8   5   1  204.35   21.06
  -8  -5   2 1576.02  106.92
   8  -5   2 1761.64  108.38
   8   5   2 1621.24   80.03
   8  -5   3  296.92   44.29
  -8  -5   3  291.37   43.40
   8  -5   4  401.19   56.53
  -8  -6  -4  138.31   34.62
   8  -6  -3   93.67   25.05
   8  -6  -3  125.77   26.08
  -8  -6  -3   99.74   28.90
   8  -6  -2  677.06   62.75
   8  -6  -2  718.98   61.63
   8  -6  -1  103.60   21.78
   8  -6  -1  142.20   26.86
  -8  -6  -1  154.87   34.05
   8  -6   0  145.69   29.03
  -8  -6   0  176.78   36.43
   8  -6   1  156.33   31.50
  -8  -6   1  101.53   28.67
  -8  -6   2  932.76   85.50
   8  -6   2  843.60   78.79
  -8  -6   3   77.30   23.19
   8  -6   3   80.30   25.70
  -8  -7  -3  118.08   33.67
  -8  -7  -2  427.64   62.21
   8  -7  -2  471.46   53.61
   8  -7  -2  393.60   49.07
   8  -7  -1   86.35   21.39
   8  -7  -1  113.09   26.36
  -8  -7  -1   84.39   27.85
   8  -7   0   15.87   11.19
  -8  -7   0   37.53   19.41
   8  -7   1   97.75   26.99
  -8  -7   1  127.77   33.46
  -8  -7   2  503.94   68.05
   8  -7   2  624.42   70.69
  -8  -7   3   79.94   27.90
   8  -8   0 1425.75  108.51
   9   0  -5    8.40    9.94
   9   0  -4    0.94    6.64
   9   0  -3    2.36    5.91
   9   0  -3    4.00    5.92
   9   0  -2    6.15    5.99
   9   0  -2    0.48    2.76
   9   0  -1    2.36    3.07
   9   0  -1    3.64    4.03
   9   0   0   28.59    8.56
   9   0   0   32.03    9.06
  -9   0   1    2.20    3.03
   9   0   1    0.18    2.52
  -9   0   2    1.25    2.57
   9   0   2    2.24    1.38
   9   0   2    1.34    1.24
  -9   0   3    2.18    3.69
   9   0   3    2.82    5.75
   9  -1  -5  186.58   34.32
   9   1  -5  218.41   35.35
   9  -1  -4 1673.60  100.97
   9   1  -4 1525.77   93.38
   9   1  -3   94.91   19.50
   9  -1  -3   84.42   14.21
   9   1  -3  114.42   20.81
   9  -1  -2 1096.03   65.43
   9   1  -2 1075.82   73.67
   9   1  -2 1010.07   61.21
   9  -1  -2 1067.72   51.91
   9  -1  -1  363.48   31.74
   9   1  -1  314.47   39.75
   9  -1  -1  336.36   27.03
   9   1  -1  367.10   18.34
   9   1  -1  330.14   29.39
   9   1   0 4492.33  190.53
   9   1   0 5036.39  147.29
   9  -1   0 4571.47  155.51
   9  -1   0 5056.62  164.47
   9  -1   1  364.61   21.97
   9   1   1  359.12   40.33
   9  -1   1  361.36   32.06
  -9   1   1  408.83   30.54
   9   1   2 1084.81   70.55
   9   1   2 1143.21   47.73
  -9  -1   2 1060.60   46.95
  -9   1   2 1071.98   57.74
   9   1   3  109.27   10.85
  -9   1   3   86.40   15.98
   9   1   3  104.80   19.94
  -9  -1   3  104.24   14.54
   9   2  -5   11.37    9.27
   9  -2  -5   27.50   14.08
   9  -2  -4  677.18   62.42
   9   2  -4  625.03   55.80
   9  -2  -3  541.04   40.11
   9  -2  -3  533.26   50.78
   9   2  -3  492.02   44.78
   9  -2  -2 2252.94  107.79
   9   2  -2 2537.14  118.35
   9  -2  -2 2328.87   95.20
   9   2  -2 2395.79  104.36
   9  -2  -1  523.76   40.26
   9   2  -1  509.38   47.61
   9  -2  -1  515.44   38.47
   9  -2   0   10.11    5.41
   9   2   0    0.12    1.41
   9  -2   0    1.21    4.61
   9   2   0    1.29    5.17
   9   2   1  553.49   49.42
   9  -2   1  614.48   46.11
  -9   2   1  670.16   44.08
  -9   2   1  644.81   40.76
   9  -2   1  618.90   30.70
   9   2   2 2689.66  100.74
  -9   2   2 2811.98  114.69
  -9  -2   3  567.42   31.41
   9   2   3  547.36   34.15
   9   3  -5   58.53   18.77
   9  -3  -4  101.89   19.82
   9  -3  -4  135.13   28.32
   9   3  -4  113.91   23.14
   9   3  -3   91.35   19.14
   9  -3  -3   80.09   16.33
   9  -3  -3   92.97   21.26
   9  -3  -2  190.12   27.35
   9  -3  -2  163.37   21.85
   9  -3  -1  100.12   18.96
  -9   3  -1   99.80   11.54
   9  -3  -1  111.54   18.46
   9  -3   0   81.61   17.65
   9   3   0   74.65    5.98
   9  -3   0   69.58   12.66
   9   3   0   91.75    6.34
   9   3   1  137.43   14.80
  -9   3   1  100.33   17.68
   9  -3   1  115.02   21.54
  -9   3   1  103.93   16.44
   9  -3   1  112.99   13.16
   9   3   2  262.04   26.08
   9  -3   2  265.57   34.62
   9   3   2  264.66   27.20
   9   3   3   93.73   15.91
  -9  -3   3   66.16    6.21
   9  -4  -4  573.36   51.81
   9   4  -4  580.99   53.98
   9  -4  -4  677.81   66.19
   9  -4  -3   54.90   14.45
   9  -4  -3   26.27   11.75
  -9  -4  -2 1739.91  111.58
  -9   4  -2 1767.45   58.62
   9  -4  -2 1558.08   92.11
   9  -4  -2 1585.99   86.00
   9  -4  -1   54.75   14.73
   9  -4  -1   72.34   16.65
  -9  -4  -1   69.57   21.16
  -9   4  -1   71.44   11.21
  -9  -4   0 1357.48   95.04
  -9   4   0 1306.18   64.01
   9   4   0 1249.24   38.39
   9  -4   0 1240.69   65.32
   9  -4   0 1317.21   79.87
   9  -4   1   92.63   22.43
  -9  -4   1   71.80   22.13
   9   4   1  108.55   13.36
   9  -4   2 1868.39  109.05
   9   4   2 2057.92   89.46
   9  -4   3   55.68   18.40
   9  -4   4  762.40   74.60
   9  -5  -4  277.42   37.60
   9  -5  -4  293.31   45.60
   9   5  -4  288.82   37.84
   9  -5  -3  101.92   22.27
   9  -5  -3   52.91   18.13
  -9  -5  -3   53.50   20.72
  -9  -5  -2   33.90   14.48
   9  -5  -2   35.12   12.46
   9  -5  -2   36.07   13.93
  -9   5  -1  310.96   27.86
  -9  -5  -1  326.51   48.04
   9  -5  -1  274.41   33.37
   9  -5  -1  294.53   37.49
  -9   5   0  656.54   46.43
  -9  -5   0  778.46   74.75
   9   5   0  599.08   23.87
   9  -5   0  673.96   48.51
   9  -5   0  722.09   61.56
  -9  -5   1  309.28   47.25
   9  -5   1  374.98   45.90
   9   5   1  359.05   27.82
   9  -5   2   52.81   18.44
  -9  -5   2   10.85    9.62
   9  -5   3   73.55   24.08
   9  -5   4  483.00   63.60
   9  -6  -3   38.77   16.98
   9  -6  -3   51.79   16.30
  -9  -6  -3   30.03   17.57
   9  -6  -2   56.05   18.79
   9  -6  -2   48.15   15.84
  -9  -6  -2   79.21   26.67
   9  -6  -1  203.26   31.73
   9  -6  -1  232.30   36.03
  -9  -6  -1  320.43   51.92
  -9  -6   0 1272.71  105.02
   9  -6   0 1126.73   86.46
   9  -6   1  245.05   40.30
  -9  -6   1  239.40   44.95
   9  -6   2   46.03   20.07
  -9  -6   2   92.83   28.61
   9  -6   3   43.40   20.30
  -9  -6   3   36.97   18.97
  -9  -7  -3    7.78   15.97
   9  -7  -2  770.13   72.45
   9  -7  -2  740.22   69.34
   9  -7  -1   34.87   14.64
   9  -7  -1   21.35    9.33
   9  -7   0  275.99   44.60
  -9  -7   0  519.20   70.60
   9  -7   1   26.97   14.77
  -9  -7   1   40.78   24.63
  -9  -7   2  952.16   98.02
   9  -7   2  821.06   84.59
  -9  -7   3   30.45   20.32
  10   0  -5  248.99   40.25
  10   0  -4  627.40   59.25
  10   0  -3 2746.36  144.04
  10   0  -3 3266.12  139.67
  10   0  -2  531.86   31.16
  10   0  -2  467.80   41.55
  10   0  -1 2447.25  102.19
  10   0  -1 2485.15   88.20
  10   0   0  866.58   46.20
  10   0   0  822.91   45.72
  10   0   1 2888.09   98.89
  10   0   2  518.14   52.51
  10   0   2  591.07   25.27
  10   0   2  609.17   26.00
 -10   0   2  529.63   36.12
 -10   0   3 3140.55  120.71
  10  -1  -5  538.00   61.17
  10   1  -5  525.05   57.68
  10  -1  -4   37.50   14.01
  10   1  -4   23.41   10.79
  10  -1  -3  224.41   23.87
  10  -1  -3  167.61   28.33
  10   1  -3  167.45   28.39
  10   1  -3  254.56   32.96
  10   1  -2   65.59   15.11
  10  -1  -2   69.57   11.85
  10   1  -2   75.92   19.25
  10  -1  -2   68.90   15.66
  10  -1  -1 1545.02   77.26
  10   1  -1 1467.77   96.80
  10  -1  -1 1562.94   70.82
  10   1  -1 1551.69   75.21
  10   1  -1 1675.86   55.42
  10   1   0   34.01    7.06
  10  -1   0   32.51    9.65
  10   1   0   32.41   13.07
  10  -1   0   32.47    9.08
  10  -1   1 1527.37   59.77
  10   1   1 1488.75   93.67
 -10   1   1 1566.60   71.42
  10  -1   1 1622.14   77.79
 -10   1   2   99.36   16.49
  10   1   2   92.73   11.82
 -10  -1   2   93.57   11.27
  10   1   3  285.55   18.12
 -10  -1   3  289.20   25.08
 -10   1   3  297.57   31.09
  10   2  -5  149.76   30.26
  10  -2  -4  118.58   26.54
  10   2  -4  167.83   28.74
  10  -2  -3  636.65   45.04
  10  -2  -3  636.66   57.52
  10   2  -3  636.67   52.93
  10  -2  -2  139.21   23.75
  10  -2  -2  119.12   17.35
  10   2  -2   95.01   17.88
  10  -2  -1 1186.62   66.85
  10  -2  -1 1169.81   64.02
  10  -2   0   93.51   14.31
  10  -2   0   78.94   15.97
  10   2   0   73.08    8.31
 -10   2   1 1314.92   68.73
  10  -2   1 1268.56   73.20
  10  -2   1 1338.16   52.93
 -10   2   1 1297.34   64.68
  10  -2   2  125.83   22.90
 -10   2   2  137.30   21.03
  10   2   2  137.26   17.67
 -10  -2   3  663.05   33.77
  10   2   3  694.32   39.26
  10  -3  -4  325.10   45.32
  10  -3  -4  322.43   36.08
  10   3  -4  318.95   39.78
  10  -3  -3  307.80   32.98
  10  -3  -3  341.04   41.98
  10   3  -3  361.32   38.84
  10  -3  -2  542.79   48.68
  10  -3  -2  508.67   41.11
  10  -3  -1 2296.61  103.31
  10  -3  -1 2115.24  103.26
 -10   3  -1 2341.88   79.91
  10  -3   0   88.64   18.62
  10  -3   0   86.07   14.28
  10   3   0   97.45    6.62
  10   3   0   96.78    6.27
 -10   3   0   96.86   14.10
  10   3   1 2549.56   89.06
  10  -3   1 2466.46  118.16
 -10   3   1 2269.34   98.84
  10  -3   1 2356.95   86.19
  10   3   2  697.75   45.30
  10  -3   2  681.33   58.27
  10   3   2  665.00   45.90
  10  -3   3  454.10   51.00
  10   3   3  406.16   33.92
  10  -4  -4    3.12    7.49
  10   4  -4   11.20    8.32
  10  -4  -4   10.06    9.01
  10  -4  -3  522.50   47.96
  10   4  -3  557.89   50.46
  10  -4  -3  523.45   55.41
 -10   4  -2    8.97    2.65
  10  -4  -2   10.39    6.77
  10  -4  -1  420.19   42.83
  10  -4  -1  404.87   39.28
 -10   4   0   11.06    6.69
  10  -4   0    4.14    7.57
  10  -4   0   11.14    6.99
  10  -4   1  522.20   34.32
  10  -4   1  462.21   49.93
  10   4   1  572.85   33.11
  10  -4   2   30.21   15.21
  10   4   2   20.51    7.97
  10  -4   3  710.59   68.30
  10  -4   4   15.61   12.54
  10  -5  -4  174.97   31.02
  10  -5  -3  519.98   50.83
  10  -5  -3  539.94   59.70
  10  -5  -2  211.56   31.07
  10  -5  -2  167.64   29.97
 -10  -5  -2  219.36   41.06
 -10   5  -1  361.73   29.50
 -10  -5  -1  312.77   49.74
  10  -5  -1  356.71   39.33
  10  -5  -1  287.39   38.57
 -10  -5   0  280.22   47.19
  10  -5   0  278.06   30.82
  10  -5   0  307.11   40.64
 -10  -5   1  419.39   56.40
  10  -5   1  366.59   47.43
  10  -5   2  268.81   43.35
  10  -5   3  666.31   71.21
  10  -6  -3  389.71   47.58
  10  -6  -3  491.45   59.73
  10  -6  -2   73.34   22.07
  10  -6  -2   99.23   22.79
 -10  -6  -2   90.74   28.52
  10  -6  -1  517.03   51.49
  10  -6  -1  582.50   58.59
  10  -6   0   91.32   18.87
  10  -6   0   77.11   23.79
 -10  -6   0  119.05   32.75
 -10  -6   1  838.43   87.06
  10  -6   1  653.50   68.07
  10  -6   2  104.48   27.98
 -10  -6   2  126.56   34.18
  10  -6   3  529.29   68.90
  10  -7  -2    7.03    8.59
 -10  -7  -2   -3.13   14.33
 -10  -7  -1  425.34   67.68
  10  -7  -1  304.78   41.23
  10  -7  -1  297.47   44.51
  10  -7   0   64.72   21.80
 -10  -7   0   68.43   28.01
 -10  -7   1  399.89   66.33
  10  -7   1  415.98   57.55
 -10  -7   2   16.42   18.69
  11   0  -4   10.48   10.57
  11   0  -3   -2.59    9.37
  11   0  -2    2.06    5.38
  11   0  -2   10.01    4.21
  11   0  -1    3.42    5.66
  11   0  -1    4.43    3.73
  11   0   0   -2.10    3.56
  11   0   0    4.66    4.02
  11   0   1    0.15    3.93
  11   0   1    2.30    3.22
  11   0   2    5.90    3.02
 -11   0   2   -2.52    3.04
  11   0   2    1.42    1.65
 -11   0   3   18.65    7.43
  11  -1  -4  380.29   48.63
  11   1  -4  426.92   48.18
  11  -1  -3  750.81   47.08
  11  -1  -3  709.73   61.00
  11   1  -3  703.41   58.25
  11  -1  -2  197.85   28.03
  11   1  -2  153.04   23.75
  11  -1  -2  195.54   20.84
  11  -1  -1 1316.46   73.19
  11  -1  -1 1402.04   67.84
  11   1  -1 1352.42   72.25
  11   1  -1 1535.89   52.87
  11  -1   0 1078.84   57.32
  11   1   0 1185.01   52.23
  11  -1   0 1152.13   62.40
  11   1   0 1123.77   58.93
  11  -1   1 1646.26   64.51
  11  -1   1 1597.60   80.87
  11   1   2  180.35   17.44
 -11   1   2  173.29   22.29
 -11  -1   3  803.12   45.29
 -11   1   3  777.64   54.36
  11  -2  -4  399.91   50.08
  11   2  -4  391.08   46.29
  11  -2  -3  929.24   57.41
  11  -2  -3  980.19   74.41
  11   2  -3  950.91   68.44
  11  -2  -2  536.94   49.26
  11   2  -2  607.54   48.33
  11  -2  -2  578.69   41.44
  11  -2  -1 1028.16   63.61
  11  -2  -1 1083.06   62.34
  11  -2   0  464.14   35.59
  11   2   0  557.69   27.53
  11  -2   0  530.57   43.37
 -11   2   1 1181.86   63.23
 -11   2   1 1248.81   68.49
  11  -2   1 1257.65   74.40
  11  -2   1 1275.20   52.92
  11   2   2  723.22   44.09
  11  -2   2  754.25   59.43
  11  -3  -4  188.44   27.61
  11   3  -4  171.33   29.89
  11  -3  -4  185.58   35.70
  11  -3  -3   95.20   18.38
  11  -3  -3   94.50   23.36
  11   3  -3   70.72   17.56
  11  -3  -2   86.94   16.89
  11   3  -2  106.82   20.30
  11  -3  -2   57.52   15.94
  11  -3  -1   73.77   17.29
  11  -3  -1   62.48   15.18
  11  -3   0  310.37   35.67
 -11   3   0  290.93   25.70
  11  -3   0  302.44   28.49
  11  -3   1   57.57   16.64
  11  -3   1   60.98   10.08
  11   3   1   66.60   10.77
  11   3   2  128.58   18.52
  11   3   2  117.56   19.16
  11  -3   2  117.31   25.04
  11  -3   3  106.19   25.54
  11   4  -4   13.78   11.89
  11  -4  -4    5.98    7.47
  11  -4  -4   14.18   15.04
  11  -4  -3  761.94   59.86
  11  -4  -3  911.35   75.56
  11   4  -3  818.50   63.83
  11  -4  -2   52.45   14.50
  11  -4  -2   56.23   15.95
  11  -4  -1 1034.93   71.62
  11  -4  -1 1021.71   67.56
  11  -4   0    9.52    7.86
  11  -4   0   16.98    7.97
 -11   4   0   13.42    6.33
  11  -4   1 1236.01   60.25
  11  -4   1 1269.22   88.18
  11   4   1 1404.80   57.80
  11  -4   2   58.21   19.93
  11  -4   3 1132.81   90.87
  11  -5  -3   60.69   17.43
  11  -5  -3   50.27   19.00
  11  -5  -2  307.68   41.30
  11  -5  -2  292.41   37.61
  11  -5  -1  211.98   33.71
  11  -5  -1  234.67   32.44
 -11  -5   0  654.11   74.38
  11  -5   0  549.88   45.11
  11  -5   0  554.65   56.43
  11  -5   1  324.47   44.87
  11  -5   2  388.22   53.13
  11  -5   3  102.50   27.83
  11  -6  -2  246.57   39.16
 -11  -6  -2  279.13   52.76
  11  -6  -2  238.95   37.21
 -11  -6  -1  356.15   58.48
  11  -6  -1  306.82   39.58
  11  -6  -1  329.91   44.33
 -11  -6   0  447.60   66.32
  11  -6   0  355.64   37.82
  11  -6   0  336.81   48.08
 -11  -6   1  487.00   68.40
  11  -6   1  354.74   50.67
  11  -6   2  288.81   48.81
  11  -7  -2   19.00   15.71
  11  -7  -1  338.68   44.41
  11  -7   0   46.67   23.34
 -11  -7   0   58.03   31.13
 -11  -7   1  436.18   71.52
  12   0  -4  608.77   61.27
  12   0  -3  210.80   32.56
  12   0  -2 2312.47   84.60
  12   0  -2 1947.45  104.76
  12   0  -1 2064.18   97.53
  12   0  -1 2154.08   82.44
  12   0   0  293.75   28.34
  12   0   0  334.23   28.58
  12   0   1 2188.54   84.93
  12   0   1 2217.73   96.30
  12   0   2 2429.08   78.22
 -12   0   2 2292.74   93.92
  12  -1  -4  463.00   54.48
  12   1  -4  396.57   48.26
  12  -1  -3  263.10   26.82
  12  -1  -3  285.13   38.69
  12   1  -3  239.12   34.17
  12  -1  -2  147.57   25.64
  12   1  -2  160.36   25.60
  12  -1  -2  192.18   21.42
  12  -1  -1  101.07   16.20
  12   1  -1  114.59   19.52
  12  -1  -1   95.19   18.08
  12   1  -1  113.02   11.08
  12  -1   0 1026.56   57.14
  12   1   0 1055.60   50.00
  12  -1   0  999.18   59.17
  12   1   0  996.40   56.74
  12   1   1  104.49   16.09
  12  -1   1   86.59   17.35
  12   1   1   74.30   12.77
  12  -1   1   99.40   13.10
  12   1   2  135.21   15.04
  12  -1   2  144.26   24.21
 -12   1   2  144.01   20.46
  12  -2  -4  217.11   38.29
  12   2  -4  235.52   36.64
  12  -2  -3  103.47   24.70
  12  -2  -3  129.82   20.14
  12   2  -3  110.12   23.16
  12  -2  -2  362.86   41.36
  12   2  -2  370.14   38.37
  12  -2  -2  358.48   32.90
  12   2  -1  190.15   25.54
  12  -2  -1  178.81   25.50
  12  -2  -1  182.81   24.61
  12  -2   0  256.58   26.69
  12   2   0  295.27   19.36
  12  -2   0  304.24   33.21
  12  -2   1  211.67   29.61
  12  -2   1  209.38   18.77
  12   2   2  436.56   34.02
  12  -2   2  452.42   46.78
  12  -3  -4 1001.64   85.72
  12  -3  -4  822.28   62.57
  12   3  -4  855.45   72.08
  12  -3  -3  718.04   54.55
  12  -3  -3  810.77   70.68
  12   3  -3  782.66   63.35
  12  -3  -2  376.10   43.19
  12  -3  -2  384.21   37.29
  12   3  -2  415.16   42.14
  12  -3  -1  314.08   34.86
  12  -3  -1  331.95   36.75
  12  -3   0 2001.73  103.54
  12  -3   0 2081.74   90.53
 -12   3   0 1924.60   83.22
  12   3   1  484.34   31.47
  12  -3   1  455.13   48.13
  12  -3   1  463.59   31.09
  12  -3   2  501.72   52.67
  12  -3   3  910.19   78.14
  12  -3   4 1252.82  101.19
  12  -4  -4   43.97   15.37
  12  -4  -3  207.78   31.23
  12  -4  -3  265.93   41.02
  12   4  -3  261.25   36.13
  12  -4  -2  327.95   37.36
  12  -4  -2  347.64   42.86
  12  -4  -1  329.54   40.31
  12  -4  -1  367.48   39.32
  12  -4   0   28.36   12.65
 -12   4   0   16.81    7.37
  12  -4   0   21.95    8.31
  12  -4   1  364.47   29.04
  12  -4   1  381.15   46.84
  12  -4   2  499.78   56.91
  12  -4   3  301.79   46.53
  12  -5  -3   85.63   22.51
  12  -5  -3   64.77   23.11
  12  -5  -2  550.69   56.97
  12  -5  -2  467.85   49.19
  12  -5  -1  312.59   38.58
  12  -5  -1  356.99   44.35
  12  -5   0  178.14   32.54
  12  -5   0  247.70   29.87
  12  -5   1  490.29   57.02
  12  -5   2  638.84   70.52
  12  -5   3  135.79   35.07
  12  -6  -2  247.47   40.16
  12  -6  -2  178.76   33.35
  12  -6  -1  187.27   31.08
  12  -6  -1  163.70   32.68
  12  -6   0   80.06   18.61
  12  -6   0   81.33   23.55
  12  -6   1  260.40   43.89
  12  -7  -1  141.14   29.52
  13   0  -4    5.85    6.94
  13   0  -3    1.77   10.73
  13   0  -2   13.33    5.71
  13   0  -2    4.24    6.29
  13   0  -1    4.20    7.12
  13   0  -1   -1.15    3.48
  13   0   0    0.04    4.39
  13   0   0    8.98    5.80
  13   0   1    0.45    3.86
  13   0   1    2.17    5.11
  13   0   2    6.87    3.40
  13  -1  -4  904.08   80.89
  13   1  -4  874.46   76.15
  13   1  -3  115.01   24.70
  13  -1  -3  100.77   24.18
  13  -1  -3  108.99   17.05
  13  -1  -2 1603.52   94.81
  13   1  -2 1579.05   91.19
  13  -1  -2 1792.65   78.20
  13  -1  -1  201.85   27.22
  13   1  -1  208.26   27.80
  13  -1  -1  209.26   24.13
  13   1  -1  237.25   17.25
  13  -1   0  784.20   50.46
  13   1   0  844.57   43.94
  13  -1   0  725.07   51.04
  13   1   0  727.98   49.66
  13  -1   1  326.86   25.68
  13   1   1  307.25   29.38
  13  -1   1  307.64   34.26
  13   1   1  281.60   26.31
  13  -1   2 1872.36  100.80
 -13   1   2 1634.57   83.69
  13   1   2 1905.12   72.98
  13  -2  -4  663.99   69.56
  13   2  -4  660.97   64.91
  13  -2  -3  515.47   42.97
  13  -2  -3  601.33   60.16
  13   2  -3  588.41   55.37
  13  -2  -2  438.14   46.56
  13   2  -2  357.73   39.97
  13  -2  -2  419.76   36.48
  13  -2  -1  451.73   42.77
  13  -2  -1  440.23   39.66
  13   2  -1  419.88   40.06
  13  -2   0 1637.57   80.30
  13   2   0 1765.62   63.01
  13  -2   0 1546.64   86.70
  13   2   1  496.34   35.12
  13  -2   1  481.73   47.29
  13  -2   1  506.03   31.77
  13  -2   2  478.21   50.06
  13  -2   3  652.82   64.05
  13  -3  -4   73.60   19.12
  13   3  -3   80.55   20.77
  13  -3  -3   84.76   18.87
  13  -3  -3   66.80   20.69
  13  -3  -2   46.32   13.67
  13   3  -2   58.59   16.63
  13  -3  -2   39.06   14.83
  13  -3  -1   83.12   19.61
  13  -3  -1  115.92   21.51
  13  -3   0  333.26   38.98
  13  -3   0  381.75   34.25
  13  -3   1  109.65   24.00
  13  -3   1  118.65   15.37
  13  -3   2   65.11   20.17
  13  -3   3  108.30   27.44
  13  -4  -4  392.36   45.26
  13   4  -3   31.97   14.36
  13  -4  -3   43.11   13.66
  13  -4  -3   26.59   14.22
  13  -4  -2  452.57   45.48
  13  -4  -2  425.08   49.13
  13  -4  -1  111.24   23.75
  13  -4  -1  137.68   24.53
  13  -4   0  641.84   59.69
  13  -4   0  707.05   50.62
  13  -4   1  143.16   29.74
  13  -4   1  138.61   17.63
  13  -4   2  528.07   60.52
  13  -4   3   25.65   15.26
  13  -5  -3   31.45   13.15
  13  -5  -2  430.52   52.56
  13  -5  -2  476.88   50.35
  13  -5  -1  200.25   33.57
  13  -5  -1  228.54   33.50
  13  -5   0   51.34   14.55
  13  -5   0   45.80   18.09
  13  -5   1  221.69   38.78
  13  -5   2  554.31   65.86
  13  -6  -2  336.42   48.29
  13  -6  -1  227.74   35.51
  13  -6  -1  289.89   43.35
  13  -6   0   61.17   17.05
  13  -6   0  108.45   29.82
  13  -6   1  243.68   43.90
  13  -7  -1  112.05   26.85
  14   0  -3  977.64   77.63
  14   0  -2  146.89   17.32
  14   0  -2  130.31   24.90
  14   0  -1  915.36   64.52
  14   0  -1 1146.33   54.81
  14   0   0 2001.08   93.40
  14   0   0 2019.14   89.20
  14   0   1 1102.72   56.54
  14   0   1 1017.64   63.48
  14   0   2  117.12   22.23
  14  -1  -3  208.65   25.07
  14  -1  -3  151.36   31.01
  14   1  -3  237.98   36.47
  14  -1  -2  510.06   51.81
  14   1  -2  560.47   52.09
  14  -1  -2  662.07   43.43
  14  -1  -1  152.39   24.89
  14   1  -1  170.79   26.06
  14  -1  -1  198.46   23.88
  14   1  -1  217.65   16.98
  14   1   0   27.19    9.78
  14   1   0   16.04    5.81
  14  -1   0   13.96    7.65
  14  -1   0   20.44    9.09
  14  -1   1  210.77   21.46
  14   1   1  260.24   27.28
  14  -1   1  212.47   29.49
  14   1   1  184.29   22.17
  14  -1   2  666.51   57.41
  14   1   2  647.89   38.17
  14  -2  -3  270.63   31.24
  14  -2  -3  288.12   42.33
  14   2  -3  299.17   40.39
  14   2  -2  161.89   27.89
  14  -2  -2  162.72   29.34
  14  -2  -2  136.29   21.08
  14  -2  -1  296.33   35.38
  14  -2  -1  300.99   32.67
  14   2  -1  205.66   28.93
  14  -2   0  368.09   34.54
  14  -2   0  406.31   40.64
  14   2   0  379.15   23.45
  14   2   0  327.31   34.24
  14   2   1  360.00   29.82
  14  -2   1  277.97   36.74
  14  -2   1  303.32   24.94
  14  -2   2  151.68   29.13
  14  -2   3  325.76   46.90
  14  -3  -4  265.15   34.98
  14  -3  -3  465.26   45.18
  14  -3  -3  569.33   61.83
  14   3  -3  497.72   53.15
  14  -3  -2 1352.54   90.71
  14   3  -2 1376.64   86.43
  14  -3  -2 1301.90   77.49
  14  -3  -1  462.26   45.36
  14   3  -1  380.56   41.07
  14  -3  -1  461.14   45.12
  14  -3   0   58.85   17.36
  14  -3   0   36.77   10.73
  14  -3   1  463.76   51.49
  14  -3   1  444.51   31.43
  14  -3   2 1624.49  106.39
  14  -3   3  657.68   69.61
  14  -4  -3   42.35   16.34
  14  -4  -3   47.61   21.42
  14   4  -2  255.21   36.17
  14  -4  -2  252.30   38.60
  14  -4  -2  286.27   36.57
  14  -4  -1   17.49   11.63
  14  -4  -1   42.76   14.14
  14  -4   0  297.83   41.11
  14  -4   0  365.45   35.97
  14  -4   1   88.21   23.97
  14  -4   2  357.95   52.02
  14  -5  -2  143.37   27.64
  14  -5  -2  128.87   30.32
  14  -5  -1  184.61   33.29
  14  -5  -1  161.42   29.23
  14  -5   0  810.64   58.23
  14  -5   0  780.22   73.18
  14  -5   1  233.04   40.07
  14  -6  -1  178.23   31.74
  15   0  -3  -25.41   13.83
  15   0  -2    0.51    6.30
  15   0  -1    6.11    3.51
  15   0  -1   -1.70    7.36
  15   0   0    9.04    5.77
  15   0   0   10.10    6.08
  15   0   1    2.18    6.84
  15   0   1   -4.23    5.52
  15   0   2   -0.06    5.91
  15  -1  -3 1412.89  100.07
  15   1  -3 1430.16   97.30
  15   1  -2  192.24   31.40
  15  -1  -2  178.79   31.08
  15  -1  -2  219.44   24.69
  15  -1  -1  963.29   68.23
  15   1  -1  866.22   64.02
  15  -1  -1 1055.32   60.22
  15  -1   0    5.45    7.08
  15   1   0    1.84    3.42
  15  -1   0   10.32    6.95
  15   1   0    5.14    5.72
  15  -1   1 1197.18   59.31
  15   1   1 1280.89   68.06
  15  -1   1 1138.63   75.99
  15   1   1 1097.10   62.64
  15   1   2  173.07   27.05
  15  -1   2  180.20   30.41
  15  -1   3 1315.54   95.70
  15  -2  -3  225.48   28.88
  15  -2  -3  227.65   38.53
  15   2  -3  223.34   36.85
  15  -2  -2   37.34   13.98
  15  -2  -2   67.94   14.45
  15   2  -2   76.55   20.70
  15  -2  -1 1393.45   84.46
  15   2  -1 1196.53   78.46
  15  -2  -1 1387.69   77.98
  15   2   0   32.14   11.14
  15  -2   0   26.15   11.17
  15  -2   0   24.67    8.82
  15   2   1 1366.63   66.88
  15  -2   1 1353.92   88.49
  15   2   1 1318.71   72.47
  15  -2   2  102.97   25.05
  15  -2   3  364.04   49.44
  15  -3  -3   29.35   12.36
  15  -3  -3    5.85   13.34
  15  -3  -2   12.12    7.88
  15   3  -2    8.07    9.06
  15  -3  -2   -5.84   10.08
  15  -3  -1  179.97   27.97
  15  -3  -1  150.18   26.35
  15   3  -1  177.57   28.52
  15  -3   0   63.81   18.79
  15  -3   0   35.82   11.11
  15  -3   1  183.28   32.69
  15  -3   2  -10.73   11.71
  15  -3   3   26.33   17.78
  15  -4  -3  442.90   48.27
  15  -4  -2   41.68   14.99
  15  -4  -2   37.96   16.32
  15   4  -2   74.78   21.21
  15  -4  -1  910.10   72.55
  15  -4  -1 1021.59   73.16
  15  -4   0  115.37   24.97
  15  -4   0   96.84   19.21
  15  -4   1  999.88   83.27
  15  -4   2   63.32   23.31
  15  -5  -2   73.06   22.42
  15  -5  -1  219.71   36.58
  15  -5  -1  167.85   29.33
  15  -5   0   39.53   15.86
  15  -5   1  234.59   41.83
  16   0  -3  247.71   41.22
  16   0  -2  130.05   27.49
  16   0  -1 1008.56   71.16
  16   0   0 1599.80   84.72
  16   0   0 1515.61   77.05
  16   0   1 1157.86   62.41
  16   0   1 1120.13   72.06
  16   0   2  163.92   28.20
  16   0   3  277.45   41.30
  16  -1  -3  201.20   38.36
  16  -1  -2  420.93   49.59
  16   1  -2  405.07   48.06
  16   1  -1  141.80   25.07
  16  -1  -1  150.68   26.89
  16  -1  -1  145.79   21.58
  16  -1   0  118.42   20.96
  16  -1   0  123.21   21.34
  16   1   0  120.44   21.60
  16  -1   1  158.78   28.05
  16   1   1  188.80   23.78
  16   1   1  166.65   23.77
  16   1   2  494.83   47.15
  16  -1   2  430.99   49.58
  16  -1   3  166.70   32.94
  16  -2  -2  185.08   33.11
  16   2  -2  198.80   32.94
  16  -2  -2  210.19   27.67
  16  -2  -1  384.39   42.88
  16   2  -1  354.99   41.12
  16  -2  -1  342.77   37.17
  16  -2   0  480.38   41.60
  16  -2   0  399.66   42.75
  16   2   0  336.11   37.99
  16  -2   1  436.08   48.73
  16   2   1  365.30   35.75
  16  -2   2  217.91   37.27
  16  -2   3  245.49   43.22
  16  -3  -3  529.99   49.27
  16  -3  -2  500.71   56.57
  16   3  -2  602.77   58.72
  16  -3  -2  503.55   47.27
  16  -3  -1  391.43   43.73
  16  -3  -1  394.13   43.65
  16   3  -1  355.85   41.90
  16  -3   0  169.38   30.32
  16   3   0  142.01   25.23
  16  -3   0  178.17   24.98
  16  -3   1  467.04   53.92
  16  -3   2  678.52   71.17
  16  -4  -2   61.17   17.49
  16  -4  -2   59.11   20.23
  16   4  -1  177.43   30.42
  16  -4  -1  145.08   28.80
  16  -4  -1  192.10   31.57
  16  -4   0  284.21   41.68
  16  -4   1  140.94   30.84
  16  -5  -1  321.01   43.19
  17   0  -2    7.26    9.70
  17   0  -1   14.45    9.05
  17   0   0    2.98    6.60
  17   0   1   -3.33    8.23
  17   0   2   13.89   10.55
  17   0   3   -1.30    9.20
  17  -1  -2 1289.31   94.01
  17   1  -2 1375.17   94.63
  17   1  -1   15.07    9.03
  17  -1  -1   30.40   13.88
  17  -1   0  439.65   41.86
  17   1   0  399.95   41.36
  17  -1   0  346.56   37.93
  17  -1   1   34.88   13.90
  17  -1   2 1486.42   99.19
  17   1   3    1.97    8.17
  17  -1   3   18.97   13.66
  17  -2  -2  202.23   35.60
  17   2  -2  123.81   27.42
  17  -2  -1   57.00   16.86
  17  -2  -1   26.85   11.28
  17   2  -1   34.97   13.37
  17   2   0 1790.47   98.88
  17  -2   0 1861.16  103.38
  17  -2   1   35.30   14.47
  17  -2   2  167.45   34.20
  17  -3  -2   28.20   11.62
  17  -3  -2   15.41   11.64
  17  -3  -1   23.98   11.47
  17   3  -1   20.49   11.69
  17  -3  -1   23.59   10.69
  17  -3   0  258.99   38.19
  17   3   0  241.25   33.59
  17   3   1   12.09    7.94
  17  -3   1   22.26   13.26
  17  -3   2   24.27   15.22
  17  -4  -1   60.17   19.89
  17   4   0  676.18   61.11
  17  -4   0  781.37   71.90
  18   0  -2  248.74   39.82
  18   0  -1  597.61   57.39
  18   0   0  763.94   58.76
  18  -1  -2  112.17   28.36
  18  -1  -1  188.00   31.93
  18   1  -1  199.95   33.52
  18   1   0   42.89   14.55
  18  -1   1  248.70   35.81
  18  -1   2   91.69   25.23
  18  -2  -2  156.05   33.82
  18  -2  -1  135.56   26.67
  18   2  -1  123.91   26.22
  18  -2   0  180.74   30.26
  18   2   0  160.98   27.15
  18  -2   1   93.17   24.22
  18  -2   2  180.02   37.00
  18   3  -1  309.49   43.29
  18  -3  -1  296.39   38.75
  18  -3   0  351.71   45.40
  18   3   0  285.96   38.62
  18  -3   1  418.54   53.26
  19   0  -1   -2.44    9.79
  19  -1  -1  462.80   51.26
  19   1  -1  390.27   47.43
   0   0   0    0.00    0.00


TITL Z in Pca2(1)
REM Pca2(1) (#29, found as P2(1)ca in -cba setting)
CELL 0.71073  13.953839   6.926096   4.762865  90.0000  90.0000  90.0000
ZERR    4.00   0.001608   0.000915   0.000594   0.0000   0.0000   0.0000
LATT -1
SYMM -x,-y, z+1/2
SYMM  x+1/2,-y, z
SYMM -x+1/2, y, z+1/2
SFAC O F Ga I Cs
UNIT 4.00 4.00 4.00 4.00 4.00
TREF
HKLF 4
END
_computing_structure_solution     'SHELXT 2014/5 (Sheldrick, 2014)'
;
_shelx_hkl_checksum              5214
_olex2_submission_special_instructions 'No special instructions were received'
_oxdiff_exptl_absorpt_empirical_details
;
Empirical correction (ABSPACK) includes:
- Absorption correction using spherical harmonics
- Frame scaling
;
_oxdiff_exptl_absorpt_empirical_full_max 1.754
_oxdiff_exptl_absorpt_empirical_full_min 0.736
loop_
_space_group_symop_operation_xyz
'x, y, z'
'-x, -y, z+1/2'
'x+1/2, -y, z'
'-x+1/2, y, z+1/2'
loop_
_atom_site_label
_atom_site_type_symbol
_atom_site_fract_x
_atom_site_fract_y
_atom_site_fract_z
_atom_site_U_iso_or_equiv
_atom_site_adp_type
_atom_site_occupancy
_atom_site_site_symmetry_order
_atom_site_calc_flag
_atom_site_refinement_flags_posn
_atom_site_refinement_flags_adp
_atom_site_refinement_flags_occupancy
_atom_site_disorder_assembly
_atom_site_disorder_group
Ga1 Ga 0.42868(7) 0.63483(14) 0.4711(3) 0.0091(3) Uani 1 1 d . . . . .
F2 F 0.5268(4) 0.5761(8) 0.2026(13) 0.0137(13) Uani 1 1 d . . . . .
F1 F 0.6185(4) 1.1762(8) 0.730(2) 0.0165(18) Uani 1 1 d . . . . .
O4 O 0.3262(5) 0.6861(9) 0.742(2) 0.0150(16) Uani 1 1 d . . . . .
H4A H 0.3494 0.7433 0.8865 0.022 Uiso 1 1 d GR . . . .
H4B H 0.3003 0.5797 0.7935 0.022 Uiso 1 1 d GR . . . .
O1 O 0.6889(5) 0.8465(10) 0.4314(17) 0.0155(16) Uani 1 1 d . . . . .
O3 O 0.6561(4) 0.5500(9) 0.7945(19) 0.0111(15) Uani 1 1 d . . . . .
O2 O 0.5080(5) 0.8152(10) 0.6601(17) 0.0138(16) Uani 1 1 d . . . . .
I1A I 0.63430(13) 0.8138(9) 0.7654(3) 0.0091(6) Uani 0.86(2) 1 d . . P A 1
I1B I 0.6259(7) 0.891(5) 0.758(3) 0.009(3) Uani 0.14(2) 1 d . . P A 2
loop_
_atom_site_aniso_label
_atom_site_aniso_U_11
_atom_site_aniso_U_22
_atom_site_aniso_U_33
_atom_site_aniso_U_23
_atom_site_aniso_U_13
_atom_site_aniso_U_12
Ga1 0.0086(5) 0.0087(5) 0.0099(5) -0.0001(5) -0.0007(5) 0.0007(4)
F2 0.014(3) 0.010(3) 0.017(3) -0.007(2) 0.004(2) 0.000(2)
F1 0.016(3) 0.016(3) 0.018(5) -0.004(3) 0.003(3) 0.001(2)
O4 0.013(3) 0.017(4) 0.015(4) 0.004(3) 0.004(4) -0.005(3)
O1 0.014(3) 0.019(4) 0.013(4) -0.001(3) 0.007(3) -0.003(3)
O3 0.010(3) 0.004(3) 0.020(4) 0.003(4) 0.003(4) -0.001(2)
O2 0.008(3) 0.013(4) 0.020(4) -0.005(3) 0.000(3) -0.003(2)
I1A 0.0078(4) 0.0085(15) 0.0111(4) -0.0008(8) 0.0005(4) -0.0002(5)
I1B 0.008(2) 0.009(9) 0.010(2) -0.005(4) 0.000(2) 0.001(3)
loop_
_atom_type_symbol
_atom_type_description
_atom_type_scat_dispersion_real
_atom_type_scat_dispersion_imag
_atom_type_scat_source
F F 0.0171 0.0103 'International Tables Vol C Tables 4.2.6.8 and 6.1.1.4'
Ga Ga 0.2307 1.6083 'International Tables Vol C Tables 4.2.6.8 and 6.1.1.4'
H H 0.0000 0.0000 'International Tables Vol C Tables 4.2.6.8 and 6.1.1.4'
I I -0.4742 1.8119 'International Tables Vol C Tables 4.2.6.8 and 6.1.1.4'
O O 0.0106 0.0060 'International Tables Vol C Tables 4.2.6.8 and 6.1.1.4'
loop_
_exptl_crystal_face_index_h
_exptl_crystal_face_index_k
_exptl_crystal_face_index_l
_exptl_crystal_face_perp_dist
7 4 -6 0.1023
-2 -2 7 0.0856
-15 -1 4 0.0789
1 -1 -7 0.0760
3 1 7 0.0733
-1 4 6 0.0760
-19 0 -1 0.0666
-9 6 4 0.0802
-16 -3 -3 0.0731
-3 9 3 0.0802
0 -9 -3 0.0840
-4 9 -1 0.0624
-5 -9 1 0.0672
4 -9 1 0.0762
7 -8 3 0.0824
-18 -3 2 0.0690
20 -1 1 0.0549
-7 4 -6 0.0702
-5 2 -6 0.0696
-5 -1 -6 0.0660
-15 0 -4 0.0686
-19 1 1 0.0686
6 1 6 0.0724
loop_
_geom_angle_atom_site_label_1
_geom_angle_atom_site_label_2
_geom_angle_atom_site_label_3
_geom_angle
_geom_angle_site_symmetry_1
_geom_angle_site_symmetry_3
_geom_angle_publ_flag
F2 Ga1 F2 89.46(12) . 2_665 ?
F2 Ga1 O4 178.0(3) . . ?
F2 Ga1 O4 89.8(3) 2_665 . ?
F2 Ga1 O3 86.8(3) 2_665 2_664 ?
F2 Ga1 O3 90.4(3) . 2_664 ?
F1 Ga1 F2 89.5(3) 2_674 . ?
F1 Ga1 F2 175.6(3) 2_674 2_665 ?
F1 Ga1 O4 91.1(4) 2_674 . ?
F1 Ga1 O3 88.9(3) 2_674 2_664 ?
F1 Ga1 O2 92.0(3) 2_674 . ?
O3 Ga1 O4 87.7(3) 2_664 . ?
O2 Ga1 F2 92.3(3) . 2_665 ?
O2 Ga1 F2 92.3(3) . . ?
O2 Ga1 O4 89.7(3) . . ?
O2 Ga1 O3 177.2(4) . 2_664 ?
Ga1 F2 Ga1 140.4(3) . 2_664 ?
Ga1 F1 I1B 132.7(7) 2_675 . ?
Ga1 O4 H4A 109.8 . . ?
Ga1 O4 H4B 109.9 . . ?
H4A O4 H4B 109.0 . . ?
Ga1 O3 I1B 125.0(4) 2_665 . ?
I1A O3 Ga1 125.6(4) . 2_665 ?
I1A O2 Ga1 133.5(4) . . ?
I1B O2 Ga1 148.7(10) . . ?
O1 I1A O3 97.0(4) . . ?
O1 I1A O2 99.6(4) . . ?
O2 I1A O3 100.6(3) . . ?
F1 I1B O3 172.9(4) . . ?
O1 I1B F1 98.0(13) . . ?
O1 I1B O3 79.0(12) . . ?
O2 I1B F1 103.2(14) . . ?
O2 I1B O1 99.8(7) . . ?
O2 I1B O3 83.7(12) . . ?
loop_
_geom_bond_atom_site_label_1
_geom_bond_atom_site_label_2
_geom_bond_distance
_geom_bond_site_symmetry_2
_geom_bond_publ_flag
Ga1 F2 1.917(6) . ?
Ga1 F2 1.933(6) 2_665 ?
Ga1 F1 1.860(8) 2_674 ?
Ga1 O4 1.958(8) . ?
Ga1 O3 1.936(7) 2_664 ?
Ga1 O2 1.896(7) . ?
F2 Ga1 1.933(6) 2_664 ?
F1 Ga1 1.860(8) 2_675 ?
F1 I1B 1.98(4) . ?
O4 H4A 0.8574 . ?
O4 H4B 0.8570 . ?
O1 I1A 1.778(8) . ?
O1 I1B 1.815(15) . ?
O3 Ga1 1.936(7) 2_665 ?
O3 I1A 1.858(9) . ?
O3 I1B 2.41(4) . ?
O2 I1A 1.832(7) . ?
O2 I1B 1.790(10) . ?
loop_
_exptl_oxdiff_crystal_face_indexfrac_h
_exptl_oxdiff_crystal_face_indexfrac_k
_exptl_oxdiff_crystal_face_indexfrac_l
_exptl_oxdiff_crystal_face_x
_exptl_oxdiff_crystal_face_y
_exptl_oxdiff_crystal_face_z
7.1888 4.1431 -5.5614 0.6281 -0.7335 -0.2597
-1.8381 -1.5621 6.5988 -0.8530 0.5218 -0.0091
-15.3143 -0.6626 4.1898 -0.6006 0.3659 0.7109
1.4695 -1.4867 -6.6196 0.9725 -0.2327 0.0092
3.3185 1.2917 6.5608 -0.9412 0.2257 -0.2514
-0.9398 4.3896 5.9929 -0.9968 -0.0792 -0.0092
-19.3714 0.2166 -1.1609 0.0878 0.0052 0.9961
-8.5395 6.4997 4.0799 -0.8402 -0.3495 0.4146
-15.8218 -3.4012 -3.2358 0.5246 0.2162 0.8234
-2.7690 8.6585 2.9609 -0.7509 -0.6427 0.1521
-0.3850 -8.6626 -3.1002 0.7599 0.6500 0.0091
-4.0035 9.4181 -1.1197 -0.2232 -0.9348 0.2763
-4.8942 -9.3738 0.8511 0.2293 0.9571 0.1772
4.2457 -9.3908 1.1240 0.2224 0.9313 -0.2884
6.5605 -8.1271 2.9679 -0.0725 0.9031 -0.4233
-17.7054 -3.1791 1.9428 -0.2022 0.4908 0.8475
19.5281 -0.6412 0.6813 -0.0050 0.0077 -1.0000
-7.3777 4.1909 -5.5161 0.5723 -0.6679 0.4758
-5.2191 1.6589 -6.3733 0.7951 -0.4857 0.3631
-5.4773 -1.1871 -6.3995 0.9079 -0.2166 0.3589
-15.0809 -0.3847 -4.3051 0.5575 -0.1319 0.8197
-19.3411 0.9293 1.0472 -0.2432 0.0599 0.9681
6.1841 1.1458 6.3276 -0.8941 0.2132 -0.3938
