#------------------------------------------------------------------------------
#$Date: 2021-09-01 11:33:17 +0300 (Wed, 01 Sep 2021) $
#$Revision: 268348 $
#$URL: file:///home/coder/svn-repositories/cod/cif/1/56/45/1564508.cif $
#------------------------------------------------------------------------------
#
# This file is available in the Crystallography Open Database (COD),
# http://www.crystallography.net/
#
# All data on this site have been placed in the public domain by the
# contributors.
#
data_1564508
loop_
_publ_author_name
'Santiago, Pedro H.O.'
'Santiago, Mariana B.'
'Martins, Carlos H.G.'
'Gatto, Claudia C.'
_publ_section_title
;
 Copper(II) and zinc(II) complexes with Hydrazone: Synthesis, crystal
 structure, Hirshfeld surface and antibacterial activity
;
_journal_name_full               'Inorganica Chimica Acta'
_journal_page_first              119632
_journal_paper_doi               10.1016/j.ica.2020.119632
_journal_volume                  508
_journal_year                    2020
_chemical_formula_moiety         'C13 H12 Cl2 Cu N4 O, 2(H2 O)'
_chemical_formula_sum            'C13 H16 Cl2 Cu N4 O3'
_chemical_formula_weight         410.74
_space_group_crystal_system      triclinic
_space_group_IT_number           2
_space_group_name_Hall           '-P 1'
_space_group_name_H-M_alt        'P -1'
_atom_sites_solution_hydrogens   mixed
_atom_sites_solution_primary     direct
_cell_angle_alpha                94.723(3)
_cell_angle_beta                 96.994(3)
_cell_angle_gamma                118.855(2)
_cell_formula_units_Z            2
_cell_length_a                   8.6985(11)
_cell_length_b                   8.7793(11)
_cell_length_c                   12.6496(16)
_cell_measurement_reflns_used    3482
_cell_measurement_temperature    273(2)
_cell_measurement_theta_max      21.69
_cell_measurement_theta_min      2.68
_cell_volume                     828.64(18)
_computing_molecular_graphics    'Olex2 (Dolomanov et al., 2009)'
_computing_publication_material  'Olex2 (Dolomanov et al., 2009)'
_computing_structure_refinement  'ShelXL (Sheldrick, 2015)'
_computing_structure_solution    'ShelXS (Sheldrick, 2008)'
_diffrn_ambient_temperature      273.15
_diffrn_measured_fraction_theta_full 1.000
_diffrn_measured_fraction_theta_max 0.998
_diffrn_measurement_device_type  'Bruker APEX-II CCD'
_diffrn_measurement_method       '\f and \w scans'
_diffrn_radiation_type           MoK\a
_diffrn_radiation_wavelength     0.71073
_diffrn_reflns_av_R_equivalents  0.0607
_diffrn_reflns_av_unetI/netI     0.0433
_diffrn_reflns_Laue_measured_fraction_full 1.000
_diffrn_reflns_Laue_measured_fraction_max 0.998
_diffrn_reflns_limit_h_max       10
_diffrn_reflns_limit_h_min       -10
_diffrn_reflns_limit_k_max       10
_diffrn_reflns_limit_k_min       -10
_diffrn_reflns_limit_l_max       15
_diffrn_reflns_limit_l_min       -15
_diffrn_reflns_number            19214
_diffrn_reflns_point_group_measured_fraction_full 1.000
_diffrn_reflns_point_group_measured_fraction_max 0.998
_diffrn_reflns_theta_full        25.242
_diffrn_reflns_theta_max         25.456
_diffrn_reflns_theta_min         1.644
_diffrn_standards_number         0
_exptl_absorpt_coefficient_mu    1.658
_exptl_absorpt_correction_T_max  0.7452
_exptl_absorpt_correction_T_min  0.6395
_exptl_absorpt_correction_type   multi-scan
_exptl_absorpt_process_details
;
SADABS-2016/2 (Bruker,2016/2) was used for absorption correction.
wR2(int) was 0.0955 before and 0.0564 after correction.
The Ratio of minimum to maximum transmission is 0.8582.
The \l/2 correction factor is Not present.
;
_exptl_crystal_colour            green
_exptl_crystal_colour_primary    green
_exptl_crystal_density_diffrn    1.646
_exptl_crystal_description       Block
_exptl_crystal_F_000             418
_exptl_crystal_size_max          0.27
_exptl_crystal_size_mid          0.233
_exptl_crystal_size_min          0.137
_refine_diff_density_max         0.344
_refine_diff_density_min         -0.314
_refine_diff_density_rms         0.067
_refine_ls_extinction_coef       0.0017(8)
_refine_ls_extinction_expression Fc^*^=kFc[1+0.001xFc^2^\l^3^/sin(2\q)]^-1/4^
_refine_ls_extinction_method     'SHELXL-2018/3 (Sheldrick 2018)'
_refine_ls_goodness_of_fit_ref   1.118
_refine_ls_hydrogen_treatment    constr
_refine_ls_matrix_type           full
_refine_ls_number_parameters     216
_refine_ls_number_reflns         3079
_refine_ls_number_restraints     0
_refine_ls_restrained_S_all      1.118
_refine_ls_R_factor_all          0.0546
_refine_ls_R_factor_gt           0.0353
_refine_ls_shift/su_max          0.001
_refine_ls_shift/su_mean         0.000
_refine_ls_structure_factor_coef Fsqd
_refine_ls_weighting_details
'w=1/[\s^2^(Fo^2^)+(0.0368P)^2^] where P=(Fo^2^+2Fc^2^)/3'
_refine_ls_weighting_scheme      calc
_refine_ls_wR_factor_gt          0.0774
_refine_ls_wR_factor_ref         0.0827
_reflns_Friedel_coverage         0.000
_reflns_Friedel_fraction_full    .
_reflns_Friedel_fraction_max     .
_reflns_number_gt                2381
_reflns_number_total             3079
_reflns_threshold_expression     'I > 2\s(I)'
_cod_data_source_file            ICA-2020-508-119632.cif
_cod_data_source_block           ccg_phs_cu9_0m
_cod_database_code               1564508
_shelx_space_group_comment
;
The symmetry employed for this shelxl refinement is uniquely defined
by the following loop, which should always be used as a source of
symmetry information in preference to the above space-group names.
They are only intended as comments.
;
_shelx_estimated_absorpt_t_max   0.805
_shelx_estimated_absorpt_t_min   0.663
_olex2_refinement_description
;
1. Fixed Uiso
 At 1.2 times of:
  All C(H) groups, All N(H) groups
 At 1.5 times of:
  All C(H,H,H) groups, All O(H,H) groups
2.a Free rotating group:
 O2(H2a,H2b), O3(H3a,H3b)
2.b Aromatic/amide H refined with riding coordinates:
 N4(H4), C10(H10), C4(H4a), C13(H13), C1(H1), C11(H11), C12(H12), C2(H2), C3(H3)
2.c Idealised Me refined as rotating group:
 C7(H7a,H7b,H7c)
;
_shelx_res_file
;
TITL CCG_PHS_Cu9_0m in P-1 #2
    ccg_phs_cu9_0m.res
    created by SHELXL-2018/3 at 14:46:12 on 18-Apr-2019
REM reset to P-1 #2
CELL 0.71073 8.6985 8.7793 12.6496 94.723 96.994 118.855
ZERR 2 0.0011 0.0011 0.0016 0.003 0.003 0.002
LATT 1
SFAC C H Cl Cu N O
UNIT 26 32 4 2 8 6
EQIV $1 -X,-Y,-Z
EQIV $2 -1+X,-1+Y,+Z
EQIV $3 +X,-1+Y,+Z

L.S. 15
PLAN  5
SIZE 0.137 0.233 0.27
TEMP 0
HTAB N4 O3
HTAB O2 Cl2_$3
HTAB O2 Cl1
HTAB O3 Cl1_$1
HTAB O3 O1_$2
BOND
fmap 2
acta
REM <olex2.extras>
REM <HklSrc "%.\\CCG_PHS_Cu9_0m.hkl">
REM </olex2.extras>

WGHT    0.036800
EXTI    0.001653
FVAR       0.38763
CU1   4    0.601808    0.524180    0.285901    11.00000    0.03017    0.03063 =
         0.02888    0.01175    0.00354    0.01159
CL2   3    0.782045    0.807475    0.276682    11.00000    0.04009    0.03285 =
         0.04795    0.01588    0.00828    0.01035
CL1   3    0.736434    0.363438    0.187920    11.00000    0.04682    0.04808 =
         0.03388    0.01064    0.00808    0.02844
O1    6    0.404738    0.473964    0.163018    11.00000    0.03024    0.03428 =
         0.03670    0.01845    0.00231    0.00774
N3    5    0.251974    0.226764    0.243281    11.00000    0.02944    0.02974 =
         0.02941    0.00839    0.00123    0.01081
N2    5    0.407264    0.312168    0.318222    11.00000    0.03227    0.02986 =
         0.02350    0.00760    0.00323    0.01562
N1    5    0.710183    0.516620    0.435638    11.00000    0.03283    0.03556 =
         0.03095    0.00667    0.00371    0.01951
C6    1    0.428237    0.252119    0.404699    11.00000    0.03670    0.02935 =
         0.02961    0.00917    0.01034    0.01905
C5    1    0.604337    0.369503    0.474527    11.00000    0.03547    0.03339 =
         0.02402    0.00606    0.00607    0.02168
C9    1    0.104819    0.255876    0.082153    11.00000    0.02879    0.02656 =
         0.03017    0.00504    0.00374    0.01376
N4    5   -0.200009    0.054099    0.020654    11.00000    0.02748    0.03787 =
         0.04492    0.00344    0.00537    0.01120
AFIX  43
H4    2   -0.298275   -0.030900    0.031954    11.00000   -1.20000
AFIX   0
C10   1   -0.054540    0.119238    0.097087    11.00000    0.03255    0.03652 =
         0.03000    0.00607    0.00662    0.01601
AFIX  43
H10   2   -0.060765    0.072195    0.160706    11.00000   -1.20000
AFIX   0
C4    1    0.658968    0.336597    0.572912    11.00000    0.05323    0.04503 =
         0.03118    0.01307    0.00627    0.03015
AFIX  43
H4A   2    0.585114    0.234888    0.598957    11.00000   -1.20000
AFIX   0
C13   1    0.106751    0.319147   -0.013979    11.00000    0.03451    0.04041 =
         0.04084    0.01300   -0.00225    0.00867
AFIX  43
H13   2    0.212916    0.410206   -0.026966    11.00000   -1.20000
AFIX   0
C1    1    0.870921    0.632998    0.493500    11.00000    0.03524    0.04116 =
         0.03829    0.00504    0.00132    0.01865
AFIX  43
H1    2    0.943270    0.734082    0.466386    11.00000   -1.20000
AFIX   0
C7    1    0.292646    0.084130    0.432565    11.00000    0.05218    0.03745 =
         0.04335    0.01974    0.01671    0.02079
AFIX 137
H7A   2    0.185682    0.033074    0.378853    11.00000   -1.50000
H7B   2    0.266253    0.106475    0.501766    11.00000   -1.50000
H7C   2    0.338211    0.004075    0.435118    11.00000   -1.50000
AFIX   0
C11   1   -0.200057    0.114633   -0.072326    11.00000    0.03402    0.04805 =
         0.04259   -0.00200   -0.00835    0.01967
AFIX  43
H11   2   -0.304374    0.064989   -0.123794    11.00000   -1.20000
AFIX   0
C12   1   -0.046574    0.249497   -0.091500    11.00000    0.05271    0.05753 =
         0.04088    0.01819   -0.00255    0.02358
AFIX  43
H12   2   -0.044658    0.294268   -0.155750    11.00000   -1.20000
AFIX   0
C2    1    0.932780    0.607244    0.592763    11.00000    0.04345    0.05985 =
         0.03802   -0.00156   -0.00670    0.03132
AFIX  43
H2    2    1.044963    0.689834    0.632089    11.00000   -1.20000
AFIX   6

O2    6    0.550708    0.010933    0.291170    11.00000    0.10191    0.07009 =
         0.10318    0.04240    0.05695    0.05797
H2A   2    0.590467    0.103770    0.262517    11.00000   -1.50000
H2B   2    0.617584   -0.031486    0.278842    11.00000   -1.50000
AFIX   0

C3    1    0.825657    0.457947    0.631851    11.00000    0.06075    0.06446 =
         0.03115    0.00987   -0.00192    0.04267
AFIX  43
H3    2    0.865116    0.438098    0.698232    11.00000   -1.20000
AFIX   0
C8    1    0.266936    0.326399    0.167682    11.00000    0.02791    0.03026 =
         0.02800    0.00383    0.00408    0.01392

AFIX   6
O3    6   -0.502531   -0.229060    0.041653    11.00000    0.04736    0.05538 =
         0.04901    0.01680   -0.00980    0.00397
H3A   2   -0.567890   -0.278927   -0.020218    11.00000   -1.50000
H3B   2   -0.518893   -0.313642    0.075699    11.00000   -1.50000
AFIX   0
HKLF 4




REM  CCG_PHS_Cu9_0m in P-1 #2
REM wR2 = 0.0827, GooF = S = 1.118, Restrained GooF = 1.118 for all data
REM R1 = 0.0353 for 2381 Fo > 4sig(Fo) and 0.0546 for all 3079 data
REM 216 parameters refined using 0 restraints

END

WGHT      0.0366      0.0000

REM Highest difference peak  0.344,  deepest hole -0.314,  1-sigma level  0.067
Q1    1   0.4836  0.5593  0.2186  11.00000  0.05    0.34
Q2    1  -0.4277 -0.2801  0.0156  11.00000  0.05    0.32
Q3    1   0.6605  0.0858  0.3472  11.00000  0.05    0.31
Q4    1   0.4230  0.5200  0.1232  11.00000  0.05    0.31
Q5    1   0.4984  0.3950  0.3171  11.00000  0.05    0.31
;
_shelx_res_checksum              35574
_shelx_hkl_file
;
  -1   0   0  530.05   14.10
  -1   0   0  519.45   14.30
  -1   0   0  520.55   13.70
  -1   0   0  517.95   13.50
  -1   0   0  517.35   14.10
  -1   0   0  530.15   14.30
  -1   0   0  540.45   14.20
  -1   0   0  512.65   13.70
  -1   0   0  550.94   13.90
  -1   0   0  528.15   14.30
   1   0   0  536.65   14.30
   1   0   0  521.85   13.70
   1   0   0  540.95   13.50
   1   0   0  525.25   14.20
   1   0   0  537.45   14.30
   1   0   0  528.45   13.70
   1   0   0  520.65   14.30
   1   0   0  522.25   14.10
   1   0   0  521.75   14.40
  -2   0   0  177.48    7.00
  -2   0   0  181.78    6.20
  -2   0   0  180.68    5.80
  -2   0   0  180.08    6.90
  -2   0   0  176.68    6.10
   2   0   0  178.18    6.80
   2   0   0  175.68    7.10
   2   0   0  183.08    5.80
   2   0   0  182.08    6.80
   2   0   0  178.88    6.00
   2   0   0  177.28    6.70
  -3   0   0    1.80    1.50
  -3   0   0    0.70    1.30
  -3   0   0    0.90    0.80
   3   0   0    1.50    1.30
   3   0   0    0.10    1.30
   3   0   0    0.40    1.10
   3   0   0    0.60    0.90
   3   0   0    0.00    1.10
  -4   0   0    7.30    2.00
  -4   0   0    7.20    2.60
  -4   0   0    7.10    2.40
   4   0   0    5.30    2.30
   4   0   0    6.30    2.30
   4   0   0    1.50    1.90
   4   0   0    3.70    2.10
   4   0   0    5.50    1.70
  -5   0   0  170.48   10.00
  -5   0   0  181.78    8.50
  -5   0   0  166.68    9.80
  -5   0   0  176.08   10.40
   5   0   0  174.38   10.50
   5   0   0  190.88   10.30
   5   0   0  183.38    9.80
   5   0   0  183.38    7.90
  -6   0   0  285.77   15.10
  -6   0   0  304.87   15.20
  -6   0   0  287.77   12.40
  -6   0   0  285.67   14.50
   6   0   0  332.97   16.50
   6   0   0  290.07   14.80
   6   0   0  293.27   11.60
   6   0   0  306.77   14.60
  -7   0   0    1.00    3.40
  -7   0   0   -0.10    3.70
  -7   0   0   -0.10    3.50
   7   0   0   -1.40    2.50
   7   0   0    1.00    3.70
   7   0   0    1.70    4.50
  -8   0   0    9.50    5.20
  -8   0   0    6.00    5.00
  -8   0   0    6.40    5.00
   8   0   0    7.80    5.50
   8   0   0    0.40    3.00
   8   0   0    9.30    6.40
  -9   0   0   10.80    6.30
  -9   0   0   23.30    7.90
   9   0   0   19.90    7.50
   9   0   0   17.20    7.90
   9  -1   0   29.20    8.10
   9  -1   0   16.40    6.50
  -9   1   0   20.30    6.90
  -9   1   0   11.50    6.40
  -9   1   0   15.90    6.70
   8  -1   0   36.00    6.90
   8  -1   0   62.79    9.30
   8  -1   0   53.39    8.70
  -8   1   0   42.00    7.60
  -8   1   0   39.30    7.60
  -8   1   0   58.09    8.80
   7  -1   0  175.58   12.50
   7  -1   0  141.19   10.30
   7  -1   0  168.38   11.60
  -7   1   0  191.18   12.00
  -7   1   0  155.48   11.80
  -7   1   0  176.58   12.00
   6  -1   0  131.69    6.00
   6  -1   0  146.59   10.20
   6  -1   0  134.09    9.20
   6  -1   0  123.19    8.80
  -6   1   0  147.29    9.60
  -6   1   0  139.69    7.30
  -6   1   0  139.99    9.50
  -6   1   0  113.39    8.90
   5  -1   0   50.39    6.20
   5  -1   0   41.10    3.10
   5  -1   0   50.29    5.60
   5  -1   0   37.80    5.10
  -5   1   0   48.40    3.90
  -5   1   0   41.50    5.50
  -5   1   0   43.00    5.50
   4  -1   0  127.59    6.90
   4  -1   0  145.99    7.10
   4  -1   0  128.09    4.90
   4  -1   0  132.19    7.50
   4  -1   0  124.99    6.00
  -4   1   0  119.39    5.60
  -4   1   0  126.99    7.20
  -4   1   0  121.89    5.00
  -4   1   0  129.59    7.20
   3  -1   0  104.69    5.50
   3  -1   0  107.19    4.60
   3  -1   0  108.19    3.90
   3  -1   0  123.99    5.70
   3  -1   0  105.29    5.80
  -3   1   0  128.39    6.20
  -3   1   0  120.39    4.80
  -3   1   0  108.39    4.00
  -3   1   0  126.89    6.20
   2  -1   0    3.10    1.00
   2  -1   0    2.70    0.60
   2  -1   0    2.30    0.90
   2  -1   0    4.00    1.10
   2  -1   0    4.10    0.90
  -2   1   0    3.10    0.60
  -2   1   0    4.00    1.00
  -2   1   0    3.20    1.20
  -2   1   0    4.40    1.20
  -2   1   0    3.60    1.00
   1  -1   0 1111.99   28.60
   1  -1   0 1167.18   28.50
   1  -1   0 1151.48   29.00
   1  -1   0 1184.48   28.90
   1  -1   0 1107.29   29.30
   1  -1   0 1029.50   28.30
   1  -1   0 1163.38   28.90
  -1   1   0 1161.18   29.30
  -1   1   0 1125.49   28.40
  -1   1   0 1158.38   28.40
  -1   1   0 1134.19   29.00
  -1   1   0 1162.18   29.00
  -1   1   0 1167.98   28.90
  -1   1   0 1143.69   28.80
   0  -1   0 1057.69   26.50
   0  -1   0 1029.30   26.80
   0  -1   0 1042.60   25.90
   0  -1   0 1063.39   26.20
   0  -1   0 1000.60   26.90
   0  -1   0 1019.10   26.70
   0  -1   0 1054.49   26.00
   0  -1   0 1058.69   26.50
   0  -1   0 1050.79   25.90
   0   1   0 1007.40   26.50
   0   1   0 1079.49   26.70
   0   1   0 1060.09   25.90
   0   1   0 1049.79   26.80
   0   1   0 1046.50   27.00
   0   1   0 1066.39   26.20
   0   1   0 1039.70   25.90
   0   1   0 1020.10   26.50
  -1  -1   0   13.70    1.70
  -1  -1   0   12.90    1.70
  -1  -1   0   15.10    1.80
  -1  -1   0   14.30    1.60
  -1  -1   0   12.40    1.50
  -1  -1   0   14.00    1.50
  -1  -1   0   11.60    1.50
  -1  -1   0    9.10    1.40
  -1  -1   0   10.00    1.70
   1   1   0   10.30    1.50
   1   1   0   14.00    1.90
   1   1   0   10.60    1.60
   1   1   0   10.60    1.50
   1   1   0   12.30    1.50
   1   1   0   12.20    1.50
   1   1   0   11.20    1.60
  -2  -1   0   42.60    3.30
  -2  -1   0   42.00    3.20
  -2  -1   0   42.30    3.30
   2   1   0   40.10    3.90
   2   1   0   44.80    3.50
   2   1   0   44.90    3.40
   2   1   0   42.00    3.10
   2   1   0   37.20    2.70
   2   1   0   42.10    2.80
   2   1   0   37.20    3.00
  -3  -1   0  202.88    9.20
  -3  -1   0  207.58    8.60
  -3  -1   0  197.88    9.30
  -3  -1   0  215.78    9.30
   3   1   0  221.38    8.80
   3   1   0  197.68    7.90
   3   1   0  211.78    9.20
   3   1   0  208.88    9.40
   3   1   0  205.88    9.00
   3   1   0  216.28    8.40
   3   1   0  198.38    9.50
  -4  -1   0  460.35   16.00
  -4  -1   0  462.85   17.10
  -4  -1   0  442.06   17.10
  -4  -1   0  477.95   17.90
   4   1   0  476.85   17.50
   4   1   0  488.35   18.30
   4   1   0  460.35   17.00
   4   1   0  460.05   15.00
   4   1   0  444.76   15.70
   4   1   0  441.56   16.70
  -5  -1   0   73.99    7.90
  -5  -1   0   69.09    7.40
  -5  -1   0   89.59    8.50
  -5  -1   0   68.19    5.60
   5   1   0   92.99    9.20
   5   1   0   74.89    7.50
   5   1   0   77.79    7.70
   5   1   0   76.19    7.90
   5   1   0   74.99    5.90
  -6  -1   0  102.29   10.10
  -6  -1   0   92.19    9.50
  -6  -1   0   97.89    7.30
  -6  -1   0  108.29    9.50
  -6  -1   0   83.69    7.10
   6   1   0  100.79   10.70
   6   1   0  106.09    8.60
   6   1   0   94.99    7.10
   6   1   0   92.89    9.30
  -7  -1   0    2.10    3.90
  -7  -1   0   -0.90    4.00
  -7  -1   0   -0.70    3.90
   7   1   0    1.60    3.70
   7   1   0    3.50    5.20
   7   1   0    1.90    3.90
  -8  -1   0    4.70    5.60
  -8  -1   0    3.00    4.70
  -8  -1   0   21.30    7.10
   8   1   0   14.30    7.30
   8   1   0   17.60    6.50
   8   1   0    8.50    6.90
   9  -2   0   14.20    7.00
   9  -2   0   10.50    6.30
   9  -2   0   19.20    6.40
  -9   2   0    7.60    5.70
  -9   2   0    9.40    6.00
  -9   2   0   11.20    5.60
   8  -2   0   12.10    4.80
   8  -2   0    2.20    5.00
   8  -2   0   11.70    5.40
  -8   2   0    0.80    4.00
  -8   2   0    4.20    4.70
  -8   2   0   11.10    4.70
   7  -2   0   23.90    5.60
   7  -2   0   19.20    4.60
   7  -2   0   33.50    6.10
  -7   2   0   19.60    4.90
  -7   2   0   24.50    5.50
  -7   2   0   27.10    5.80
   6  -2   0   32.70    5.20
   6  -2   0   28.70    2.10
   6  -2   0   27.70    5.00
   6  -2   0   26.50    4.60
  -6   2   0   35.80    5.50
  -6   2   0   30.80    5.50
  -6   2   0   26.90    3.30
   5  -2   0  248.78    7.70
   5  -2   0  280.67   11.80
   5  -2   0  267.17   11.70
   5  -2   0  253.37   12.10
  -5   2   0  269.17   12.20
  -5   2   0  271.57   12.20
  -5   2   0  257.47    7.70
  -5   2   0  258.87    9.70
   4  -2   0  216.18    6.70
   4  -2   0  239.28    9.80
   4  -2   0  220.78    9.50
   4  -2   0  215.28    9.80
   4  -2   0  193.58    8.80
  -4   2   0  247.68   10.50
  -4   2   0  243.28   10.20
  -4   2   0  229.18    6.60
  -4   2   0  230.08    8.30
   3  -2   0  277.97   10.00
   3  -2   0  264.37    8.10
   3  -2   0  274.37    9.90
   3  -2   0  271.07    9.40
   3  -2   0  288.17   10.00
   3  -2   0  275.57    7.70
  -3   2   0  267.97    7.80
  -3   2   0  285.17   10.70
  -3   2   0  262.87    9.10
  -3   2   0  283.67   10.20
   2  -2   0   32.00    2.20
   2  -2   0   29.90    2.30
   2  -2   0   31.20    2.10
   2  -2   0   33.90    2.60
   2  -2   0   34.90    2.00
  -2   2   0   38.00    3.60
  -2   2   0   34.90    2.50
  -2   2   0   26.90    2.10
  -2   2   0   30.30    2.30
  -2   2   0   33.00    2.00
   1  -2   0  202.18    5.60
   1  -2   0  198.58    6.90
   1  -2   0  207.18    6.70
   1  -2   0  201.48    7.00
   1  -2   0  196.68    7.10
   1  -2   0  188.78    6.00
  -1   2   0  199.58    7.20
  -1   2   0  189.68    5.60
  -1   2   0  206.88    6.90
  -1   2   0  191.18    7.30
  -1   2   0  196.88    6.10
  -1   2   0  196.88    6.60
   0  -2   0   20.20    1.40
   0  -2   0   24.40    2.50
   0  -2   0   18.00    1.40
   0  -2   0   21.40    1.40
   0  -2   0   24.00    2.10
   0   2   0   21.70    2.60
   0   2   0   17.90    1.40
   0   2   0   20.00    2.10
   0   2   0   21.80    2.30
   0   2   0   16.30    2.40
   0   2   0   20.10    2.30
   0   2   0   19.10    1.40
  -1  -2   0  471.05   14.10
  -1  -2   0  459.65   14.10
  -1  -2   0  472.55   14.60
   1   2   0  497.85   15.40
   1   2   0  499.25   15.20
   1   2   0  479.75   14.50
   1   2   0  473.95   14.90
   1   2   0  458.45   13.80
   1   2   0  459.25   15.00
   1   2   0  489.75   14.50
  -2  -2   0   36.30    3.80
  -2  -2   0   40.20    4.10
  -2  -2   0   42.40    4.30
  -2  -2   0   34.90    3.50
   2   2   0   36.10    4.00
   2   2   0   39.70    4.20
   2   2   0   39.50    4.00
   2   2   0   37.00    3.70
   2   2   0   35.10    4.20
   2   2   0   43.50    3.90
   2   2   0   52.09    4.90
  -3  -2   0  603.24   19.20
  -3  -2   0  553.84   19.60
  -3  -2   0  582.94   20.00
  -3  -2   0  597.34   19.80
  -3  -2   0  597.74   20.00
   3   2   0  602.94   19.10
   3   2   0  583.44   19.40
   3   2   0  562.74   19.50
   3   2   0  624.34   20.40
   3   2   0  610.14   20.60
   3   2   0  587.64   20.20
   3   2   0  606.74   18.90
  -4  -2   0  199.98   10.70
  -4  -2   0  230.08   11.20
  -4  -2   0  205.18   10.10
  -4  -2   0  219.78   10.80
  -4  -2   0  215.48   11.20
   4   2   0  229.68   10.90
   4   2   0  197.68   10.30
   4   2   0  201.18   10.70
   4   2   0  211.48   11.20
   4   2   0  218.38    9.90
   4   2   0  223.58   10.00
   4   2   0  231.98   11.90
  -5  -2   0   43.70    6.30
  -5  -2   0   54.59    6.60
  -5  -2   0   49.80    6.70
  -5  -2   0   41.30    5.60
  -5  -2   0   39.00    6.20
  -5  -2   0   48.70    6.00
   5   2   0   54.99    7.10
   5   2   0   45.60    6.60
   5   2   0   49.80    5.60
   5   2   0   75.89    8.70
   5   2   0   47.90    6.00
   5   2   0   50.19    6.50
  -6  -2   0    0.00    3.10
  -6  -2   0    1.70    2.60
  -6  -2   0    3.10    3.60
  -6  -2   0   -0.10    2.70
  -6  -2   0    0.90    3.40
   6   2   0    0.60    2.70
   6   2   0   -0.30    3.80
   6   2   0    3.20    4.70
   6   2   0    3.80    3.80
  -7  -2   0    5.80    4.80
  -7  -2   0   10.50    4.20
  -7  -2   0    9.50    5.40
  -7  -2   0    4.60    4.60
   7   2   0   18.40    6.70
   7   2   0    7.20    5.00
   7   2   0   12.20    5.70
  10  -3   0   35.30    9.20
  10  -3   0   30.70    7.90
 -10   3   0   36.50    8.40
 -10   3   0   33.20    8.80
 -10   3   0   37.50    8.70
   9  -3   0   12.80    6.60
   9  -3   0   -1.90    4.70
   9  -3   0    2.10    3.90
  -9   3   0    2.50    4.90
  -9   3   0    8.00    5.40
  -9   3   0    9.60    5.70
   8  -3   0   27.20    5.70
   8  -3   0   26.10    5.70
   8  -3   0   37.00    7.30
  -8   3   0   24.60    6.20
  -8   3   0   32.60    6.60
  -8   3   0   29.80    6.30
   7  -3   0   11.30    4.20
   7  -3   0    4.10    3.40
   7  -3   0   11.00    3.70
  -7   3   0    5.80    3.30
  -7   3   0   18.00    5.30
   6  -3   0    7.40    2.80
   6  -3   0   12.30    3.90
   6  -3   0   13.50    3.60
  -6   3   0    7.40    2.30
  -6   3   0    9.20    3.30
  -6   3   0    5.80    3.40
   5  -3   0  491.35   14.00
   5  -3   0  549.35   18.90
   5  -3   0  509.15   18.80
   5  -3   0  546.35   18.80
  -5   3   0  536.65   19.00
  -5   3   0  535.55   14.10
  -5   3   0  531.05   16.80
  -5   3   0  555.04   19.90
   4  -3   0  174.48    8.30
   4  -3   0  169.68    5.90
   4  -3   0  177.38    8.10
   4  -3   0  161.88    6.10
   4  -3   0  169.68    7.90
  -4   3   0  157.68    7.30
  -4   3   0  176.98    6.00
  -4   3   0  179.58    9.00
  -4   3   0  170.18    8.20
   3  -3   0  211.48    8.40
   3  -3   0  200.48    7.50
   3  -3   0  203.48    7.90
   3  -3   0  204.38    8.70
  -3   3   0  219.48    9.30
  -3   3   0  218.88    8.60
  -3   3   0  225.98    8.40
   2  -3   0  140.59    6.10
   2  -3   0  138.39    6.10
   2  -3   0  146.49    6.70
   2  -3   0  137.09    5.00
  -2   3   0  137.59    6.60
  -2   3   0  144.29    5.60
  -2   3   0  145.29    6.00
  -2   3   0  133.79    4.90
  -2   3   0  135.99    6.70
   1  -3   0   22.90    1.80
   1  -3   0   22.20    1.30
  -1   3   0   28.50    3.30
  -1   3   0   30.70    3.50
  -1   3   0   23.60    1.40
  -1   3   0   22.10    1.70
  -1   3   0   25.30    3.40
   0  -3   0   46.70    4.30
   0  -3   0   41.10    2.50
   0  -3   0   41.90    2.40
   0  -3   0   40.60    3.00
   0  -3   0   41.30    2.40
   0   3   0   43.40    2.50
   0   3   0   41.70    3.30
   0   3   0   45.60    4.50
   0   3   0   48.40    4.00
  -1  -3   0  307.77   11.30
  -1  -3   0  300.97   10.30
  -1  -3   0  294.27   10.50
   1   3   0  302.37   11.00
   1   3   0  318.27   10.30
   1   3   0  305.57   12.00
   1   3   0  277.67   11.40
   1   3   0  293.87   10.70
   1   3   0  297.87   12.00
  -2  -3   0   54.39    4.30
  -2  -3   0   53.59    5.00
  -2  -3   0   46.30    4.80
  -2  -3   0   59.19    5.60
   2   3   0   48.80    5.00
   2   3   0   46.70    4.70
   2   3   0   60.39    6.00
   2   3   0   55.49    5.90
   2   3   0   44.90    5.10
   2   3   0   57.89    5.70
   2   3   0   53.79    4.80
  -3  -3   0   89.69    6.30
  -3  -3   0   80.89    6.30
  -3  -3   0   84.59    6.40
  -3  -3   0   83.59    6.10
  -3  -3   0   80.29    6.10
   3   3   0   78.69    6.50
   3   3   0   86.69    6.70
   3   3   0   84.29    5.90
   3   3   0   81.29    6.60
   3   3   0   79.49    6.00
   3   3   0   85.59    6.70
   3   3   0   75.39    5.90
  -4  -3   0    1.40    3.10
  -4  -3   0    1.10    2.50
  -4  -3   0    2.20    2.20
  -4  -3   0   -1.20    2.30
  -4  -3   0    4.10    3.00
  -4  -3   0    8.10    3.30
  -4  -3   0    4.00    2.90
   4   3   0   -3.40    3.10
   4   3   0    4.80    3.10
   4   3   0    3.40    2.50
   4   3   0    6.50    3.00
   4   3   0    1.60    2.40
   4   3   0    7.30    3.40
   4   3   0    5.10    2.50
  -5  -3   0   46.00    6.80
  -5  -3   0   60.99    7.80
  -5  -3   0   43.90    6.70
  -5  -3   0   57.89    7.80
  -5  -3   0   48.20    6.20
  -5  -3   0   48.90    7.00
  -5  -3   0   59.09    7.90
   5   3   0   38.20    6.50
   5   3   0   58.09    7.80
   5   3   0   62.09    6.90
   5   3   0   53.09    7.70
   5   3   0   46.20    6.60
   5   3   0   49.80    6.30
   5   3   0   59.09    8.10
  -6  -3   0    4.00    4.20
  -6  -3   0    8.70    5.10
  -6  -3   0   12.30    4.30
  -6  -3   0    4.70    4.50
  -6  -3   0    5.00    5.20
  -6  -3   0   -0.40    4.30
   6   3   0    7.00    6.10
   6   3   0    2.80    4.40
   6   3   0    6.30    5.00
   6   3   0    4.00    5.60
  -7  -3   0    3.70    5.90
  -7  -3   0    8.20    6.20
  -7  -3   0   -0.60    4.10
  -7  -3   0   -1.70    6.20
   7   3   0   11.90    7.70
   7   3   0    6.70    7.10
   7   3   0    5.10    6.70
  10  -4   0   17.30    5.80
  10  -4   0   17.10    7.20
 -10   4   0    9.60    5.90
 -10   4   0   19.10    6.10
 -10   4   0   12.50    7.00
   9  -4   0    1.80    5.40
   9  -4   0    2.90    4.00
   9  -4   0   -1.70    4.90
  -9   4   0    1.90    4.40
  -9   4   0   -3.70    3.80
  -9   4   0   -0.50    4.60
   8  -4   0    1.20    3.40
   8  -4   0   -0.20    2.70
   8  -4   0   -3.90    3.90
  -8   4   0   -0.20    3.60
  -8   4   0    2.10    3.70
  -8   4   0   -3.20    3.80
   7  -4   0   46.80    6.50
   7  -4   0   31.00    5.90
   7  -4   0   43.10    6.40
  -7   4   0   41.70    6.70
  -7   4   0   40.80    4.60
  -7   4   0   40.60    6.50
   6  -4   0  239.38   12.10
   6  -4   0  239.78   11.80
   6  -4   0  216.28   11.60
  -6   4   0  231.48   11.80
  -6   4   0  231.58   12.80
  -6   4   0  227.18   10.00
   5  -4   0   43.60    5.00
   5  -4   0   39.30    3.20
   5  -4   0   37.60    4.80
   5  -4   0   36.00    5.10
  -5   4   0   45.10    5.30
  -5   4   0   48.50    4.90
  -5   4   0   40.60    5.60
   4  -4   0    1.50    1.80
   4  -4   0    1.00    1.20
   4  -4   0    3.20    1.40
   4  -4   0    1.60    1.40
  -4   4   0    2.50    1.80
  -4   4   0    3.20    1.70
  -4   4   0    1.70    1.90
   3  -4   0    2.90    1.40
   3  -4   0    2.50    1.10
   3  -4   0    4.60    2.00
   3  -4   0    2.10    1.50
  -3   4   0    1.00    1.10
  -3   4   0    1.00    1.70
  -3   4   0    1.00    1.40
  -3   4   0    1.30    1.50
   2  -4   0  491.75   16.80
   2  -4   0  527.85   16.90
   2  -4   0  485.05   15.80
   2  -4   0  493.35   13.50
  -2   4   0  493.95   17.10
  -2   4   0  492.05   17.40
  -2   4   0  485.45   13.50
  -2   4   0  497.65   14.70
  -2   4   0  515.85   16.50
   1  -4   0 1021.40   26.70
   1  -4   0 1045.10   30.90
   1  -4   0 1067.09   26.60
   1  -4   0 1100.69   30.60
   1  -4   0 1034.70   27.50
   1  -4   0 1024.00   29.00
  -1   4   0 1011.60   30.50
  -1   4   0 1045.10   30.30
  -1   4   0 1017.50   26.60
  -1   4   0 1112.19   31.80
  -1   4   0 1013.20   27.40
   0  -4   0  198.18    8.10
   0  -4   0  186.68    9.10
   0  -4   0  195.38    9.70
   0  -4   0  190.98    6.90
   0   4   0  189.68    8.80
   0   4   0  205.08    9.70
   0   4   0  188.38    7.00
   0   4   0  184.78    9.60
  -1  -4   0   13.00    3.10
  -1  -4   0    5.20    1.80
  -1  -4   0    5.10    1.80
  -1  -4   0    6.20    2.80
   1   4   0    1.30    2.00
   1   4   0    4.30    2.30
   1   4   0    5.50    2.60
   1   4   0    4.10    1.70
   1   4   0    4.50    2.10
  -2  -4   0   14.70    3.10
  -2  -4   0    9.40    2.80
  -2  -4   0    5.20    2.20
  -2  -4   0    8.10    3.50
  -2  -4   0    7.70    3.50
   2   4   0   10.90    2.70
   2   4   0    7.60    2.80
   2   4   0   14.20    3.70
   2   4   0    7.90    3.00
   2   4   0   19.10    4.30
  -3  -4   0   -0.60    2.60
  -3  -4   0    1.40    3.00
  -3  -4   0    2.60    2.00
  -3  -4   0   -0.60    1.90
  -3  -4   0   -0.60    2.60
  -3  -4   0    0.60    2.70
   3   4   0    3.50    2.50
   3   4   0    1.70    2.60
   3   4   0    1.30    2.60
   3   4   0   -1.40    1.70
   3   4   0    1.30    2.50
   3   4   0    1.10    3.10
   3   4   0    0.90    2.70
  -4  -4   0  103.29   10.40
  -4  -4   0  104.39   10.10
  -4  -4   0  121.69    9.70
  -4  -4   0  118.89    8.40
  -4  -4   0  114.19    9.40
  -4  -4   0  115.09    8.90
  -4  -4   0  104.09    8.60
   4   4   0  125.09    9.80
   4   4   0  104.89    7.90
   4   4   0  112.79    8.80
   4   4   0  110.69   10.40
   4   4   0  117.29   11.00
   4   4   0  115.69    8.80
   4   4   0  119.39    9.40
  -5  -4   0   55.39    8.50
  -5  -4   0   71.89    9.50
  -5  -4   0   49.70    8.00
  -5  -4   0   47.60    6.70
  -5  -4   0   74.69    9.70
  -5  -4   0   53.89    7.90
  -5  -4   0   68.99    8.50
   5   4   0   61.99    8.90
   5   4   0   76.89    8.80
   5   4   0   60.89    7.30
   5   4   0   60.69    9.30
   5   4   0   57.79    8.20
   5   4   0   59.39    8.50
  -6  -4   0    3.90    5.30
  -6  -4   0   11.10    5.10
  -6  -4   0   12.10    5.80
  -6  -4   0    4.20    4.10
  -6  -4   0    3.80    4.70
   6   4   0   10.70    5.80
   6   4   0   10.60    6.10
   6   4   0    4.00    4.80
  10  -5   0   41.90    9.60
  10  -5   0   23.00    6.70
  10  -5   0   26.60    7.60
 -10   5   0   40.30    9.20
 -10   5   0   52.09   10.00
 -10   5   0   40.50    8.30
   9  -5   0   14.10    5.20
   9  -5   0   16.20    5.20
   9  -5   0   14.70    6.10
  -9   5   0    6.70    5.00
  -9   5   0   16.10    5.70
  -9   5   0    3.40    5.10
   8  -5   0   61.89    8.40
   8  -5   0   74.19    8.70
   8  -5   0   42.80    7.10
  -8   5   0   46.20    7.60
  -8   5   0   43.90    7.60
  -8   5   0   63.19    8.40
   7  -5   0  262.37   13.70
   7  -5   0  251.97   13.30
   7  -5   0  255.07   13.60
  -7   5   0  258.97   13.60
  -7   5   0  256.17   14.60
  -7   5   0  248.58   11.50
   6  -5   0   18.00    3.70
   6  -5   0   17.30    3.70
   6  -5   0   20.90    4.40
   6  -5   0   18.10    2.90
  -6   5   0   20.50    4.60
  -6   5   0   19.30    4.60
  -6   5   0   22.60    4.10
   5  -5   0    1.80    1.60
   5  -5   0    3.20    2.10
   5  -5   0    0.60    2.50
   5  -5   0    2.80    2.00
  -5   5   0    5.40    2.80
  -5   5   0    2.30    2.20
  -5   5   0    5.00    2.30
   4  -5   0  240.18   11.20
   4  -5   0  204.88    8.60
   4  -5   0  227.88   10.00
   4  -5   0  222.78   10.10
  -4   5   0  224.78    9.70
  -4   5   0  237.18   11.10
  -4   5   0  236.68   11.70
   3  -5   0   24.90    4.20
   3  -5   0   25.50    3.60
   3  -5   0   20.40    2.10
   3  -5   0   24.60    4.10
  -3   5   0   24.90    3.20
  -3   5   0   19.80    3.70
  -3   5   0   22.00    2.30
  -3   5   0   22.40    4.10
  -3   5   0   25.90    3.90
   2  -5   0  515.45   14.00
   2  -5   0  561.04   19.30
   2  -5   0  549.15   19.10
   2  -5   0  522.25   17.50
  -2   5   0  510.45   15.70
  -2   5   0  519.75   18.90
  -2   5   0  571.44   20.20
  -2   5   0  510.35   14.00
  -2   5   0  568.74   19.00
   1  -5   0  316.87   11.90
   1  -5   0  314.67    9.20
   1  -5   0  339.77   14.20
   1  -5   0  292.07   12.90
  -1   5   0  310.87   10.10
  -1   5   0  310.47   13.00
  -1   5   0  312.07   13.40
  -1   5   0  316.47   14.20
   0  -5   0   38.00    5.60
   0  -5   0   50.29    6.00
   0  -5   0   47.20    3.30
   0  -5   0   47.90    4.80
   0   5   0   46.10    5.90
   0   5   0   47.20    6.20
   0   5   0   46.00    5.30
   0   5   0   43.80    3.50
  -1  -5   0    5.00    3.60
  -1  -5   0    4.00    2.10
  -1  -5   0    1.00    2.30
  -1  -5   0    7.00    2.20
   1   5   0    6.20    3.70
   1   5   0    4.00    2.50
   1   5   0    6.00    2.20
   1   5   0    5.80    2.80
  -2  -5   0   41.90    6.20
  -2  -5   0   25.20    5.50
  -2  -5   0   35.70    5.00
  -2  -5   0   30.80    4.30
  -2  -5   0   39.20    5.10
   2   5   0   40.90    5.50
   2   5   0   37.20    4.90
   2   5   0   41.80    6.70
   2   5   0   35.80    6.10
   2   5   0   48.20    7.10
  -3  -5   0   87.49    8.30
  -3  -5   0   93.69   10.50
  -3  -5   0   90.39    7.90
  -3  -5   0   88.99    9.10
  -3  -5   0   93.99    8.50
   3   5   0   88.39    9.30
   3   5   0   93.69   10.30
   3   5   0   91.89    7.60
   3   5   0   92.59    7.60
   3   5   0  109.69   10.40
  -4  -5   0   87.19   10.50
  -4  -5   0   74.19   10.30
  -4  -5   0   66.99    7.80
  -4  -5   0   53.69    8.00
  -4  -5   0   58.99    7.20
  -4  -5   0   57.49    8.80
   4   5   0   64.49    7.50
   4   5   0   59.19    8.50
   4   5   0   84.29   10.80
   4   5   0   49.80    7.30
  -5  -5   0    4.50    4.90
  -5  -5   0   13.60    9.10
  -5  -5   0    8.80    5.80
  -5  -5   0   13.00    5.60
  -5  -5   0   17.40    6.00
   5   5   0   15.90    5.70
   5   5   0    4.70    5.30
   5   5   0   16.40    6.20
  10  -6   0   18.40    6.30
  10  -6   0   17.30    6.80
  10  -6   0   15.30    6.80
 -10   6   0   15.40    6.80
 -10   6   0    8.70    6.50
 -10   6   0   21.20    7.40
   9  -6   0    1.30    4.80
   9  -6   0   -2.70    3.40
   9  -6   0   -0.50    4.10
  -9   6   0   -7.70    4.10
  -9   6   0    2.70    4.10
  -9   6   0   -0.10    4.50
   8  -6   0   20.90    6.10
   8  -6   0   21.90    5.70
   8  -6   0   15.00    4.70
  -8   6   0   24.30    5.30
  -8   6   0   33.90    7.00
  -8   6   0   19.40    6.40
   7  -6   0  171.38   11.30
   7  -6   0  174.98   10.80
  -7   6   0  171.08    9.90
  -7   6   0  164.78   12.20
  -7   6   0  167.68   10.90
   6  -6   0   22.10    4.90
   6  -6   0   20.60    3.80
   6  -6   0   29.80    4.90
   6  -6   0   16.00    3.80
  -6   6   0   19.20    5.00
  -6   6   0   32.90    5.00
  -6   6   0   17.30    4.00
   5  -6   0   28.20    5.10
   5  -6   0   41.60    5.50
   5  -6   0   33.30    4.70
   5  -6   0   25.10    3.50
  -5   6   0   30.50    5.50
  -5   6   0   24.70    4.80
  -5   6   0   27.70    4.50
   4  -6   0    1.50    2.00
   4  -6   0    0.00    1.10
   4  -6   0    4.20    3.00
   4  -6   0    5.50    3.00
  -4   6   0    1.60    2.30
  -4   6   0    1.30    2.20
  -4   6   0    1.20    2.50
  -4   6   0    1.70    2.30
   3  -6   0   32.90    2.10
   3  -6   0   41.80    5.00
   3  -6   0   36.90    5.60
   3  -6   0   37.90    5.50
  -3   6   0   35.30    3.90
  -3   6   0   42.00    5.70
  -3   6   0   36.30    2.40
  -3   6   0   35.50    5.00
  -3   6   0   46.30    6.40
   2  -6   0  160.88    8.70
   2  -6   0  170.78   10.10
   2  -6   0  170.98   10.30
  -2   6   0  181.38   10.20
  -2   6   0  177.08    7.00
  -2   6   0  175.98   10.00
  -2   6   0  169.38   10.60
   1  -6   0  195.18   11.40
   1  -6   0  172.68    6.20
   1  -6   0  163.28    9.00
   1  -6   0  195.78   10.90
  -1   6   0  179.98    7.30
  -1   6   0  193.88   10.20
  -1   6   0  184.08   11.20
  -1   6   0  190.58   10.90
   0  -6   0   88.09    8.80
   0  -6   0   75.49    6.00
   0  -6   0   85.29    8.90
   0   6   0   77.29    4.90
   0   6   0   79.69    9.00
   0   6   0   82.59    8.80
   0   6   0   88.59    7.30
  -1  -6   0   -0.40    3.50
  -1  -6   0   -0.30    2.40
  -1  -6   0   -0.70    3.40
   1   6   0    1.10    2.70
   1   6   0    3.90    3.60
   1   6   0    1.80    3.20
  -2  -6   0  183.68   12.40
  -2  -6   0  161.28    9.80
  -2  -6   0  191.88   13.30
   2   6   0  147.49   10.20
   2   6   0  177.58   12.90
   2   6   0  146.59   11.50
  -3  -6   0   57.89    7.00
  -3  -6   0   49.40    8.80
  -3  -6   0   60.19    8.90
   3   6   0   54.89    8.30
   3   6   0   57.99    7.60
   3   6   0   43.70    7.80
  -4  -6   0    8.40    4.50
  -4  -6   0   11.80    6.40
  -4  -6   0    5.10    5.80
  -4  -6   0    4.50    5.20
   4   6   0   16.60    6.20
   4   6   0    9.50    5.80
  10  -7   0   16.30    8.30
  10  -7   0    5.20    5.20
  10  -7   0   -0.40    6.10
 -10   7   0   -0.90    6.80
 -10   7   0    4.00    5.80
 -10   7   0    6.80    6.90
   9  -7   0    3.30    6.20
   9  -7   0    0.30    3.60
   9  -7   0    0.00    3.70
  -9   7   0    5.80    4.20
  -9   7   0    1.10    4.90
  -9   7   0    9.30    4.80
   8  -7   0    4.30    3.30
   8  -7   0    0.20    3.60
   8  -7   0    1.50    3.30
  -8   7   0    2.30    3.40
  -8   7   0    0.70    3.70
  -8   7   0    1.30    3.40
   7  -7   0   96.99    8.30
   7  -7   0  115.49    9.00
   7  -7   0  108.09   10.90
  -7   7   0  117.89    9.20
  -7   7   0  107.49    8.90
  -7   7   0   91.49   10.80
   6  -7   0  197.08   11.20
   6  -7   0  187.78   10.60
   6  -7   0  200.88   12.40
   6  -7   0  188.78    9.80
  -6   7   0  199.18   11.00
  -6   7   0  199.68   13.10
  -6   7   0  186.08   11.70
   5  -7   0    1.20    3.10
   5  -7   0   -1.20    2.60
   5  -7   0   -1.00    3.20
  -5   7   0   -1.00    2.80
  -5   7   0    5.00    3.50
  -5   7   0   -2.30    2.60
   4  -7   0   61.29    6.60
   4  -7   0   64.19    8.40
   4  -7   0   54.39    7.10
  -4   7   0   49.20    7.40
  -4   7   0   55.69    5.30
  -4   7   0   69.79    7.20
  -4   7   0   52.69    7.30
   3  -7   0   -5.00    2.90
   3  -7   0    1.30    2.20
   3  -7   0    4.90    3.80
  -3   7   0    4.40    3.50
  -3   7   0    5.40    2.20
  -3   7   0   -0.70    2.70
  -3   7   0    5.10    3.40
   2  -7   0    2.90    3.50
   2  -7   0    0.30    3.00
   2  -7   0   -2.00    1.90
  -2   7   0   -1.30    2.50
  -2   7   0    0.30    2.50
  -2   7   0    0.90    2.80
   1  -7   0  134.09    9.00
   1  -7   0  151.78   10.60
   1  -7   0  171.28   11.80
  -1   7   0  143.49   11.10
  -1   7   0  145.99   10.70
  -1   7   0  145.29   10.20
   0  -7   0  141.09    9.30
   0  -7   0  148.19   12.40
   0  -7   0  126.59   10.30
   0   7   0  143.89   11.60
   0   7   0  126.59    9.60
   0   7   0  132.99   11.20
  -1  -7   0    9.60    6.50
  -1  -7   0   10.10    4.90
  -1  -7   0    8.70    3.50
   1   7   0   15.30    5.70
   1   7   0   19.70    5.20
   1   7   0   12.60    5.40
  -2  -7   0   77.49    8.20
  -2  -7   0   83.29   10.40
  -2  -7   0   72.89   10.60
   2   7   0   72.89   10.10
   2   7   0   84.89    9.30
   2   7   0   87.59   11.00
  -3  -7   0    7.10    5.60
  -3  -7   0   15.50    5.00
  -3  -7   0    0.80    5.30
   3   7   0   13.90    6.00
   3   7   0   10.00    6.00
   9  -8   0    2.80    5.00
   9  -8   0    1.90    4.10
  -9   8   0    2.10    5.50
  -9   8   0    0.80    4.90
   8  -8   0    2.80    4.60
   8  -8   0   10.10    4.10
  -8   8   0   11.40    6.00
  -8   8   0    8.10    4.40
   7  -8   0   83.39   10.40
   7  -8   0  107.29   10.20
  -7   8   0   90.99   10.00
  -7   8   0   91.79   11.20
  -7   8   0   86.49    8.90
   6  -8   0   53.69    8.10
   6  -8   0   56.79    7.80
   6  -8   0   45.40    6.30
  -6   8   0   45.10    6.50
  -6   8   0   48.10    8.10
  -6   8   0   49.90    7.70
   5  -8   0    7.50    3.20
   5  -8   0    9.50    4.80
   5  -8   0    9.30    4.80
  -5   8   0    5.50    4.40
  -5   8   0   10.40    4.40
   4  -8   0    8.40    4.50
   4  -8   0    7.90    3.30
   4  -8   0   14.40    5.10
  -4   8   0    6.50    4.40
  -4   8   0   10.30    4.50
  -4   8   0    4.80    3.40
   3  -8   0   -1.50    2.20
   3  -8   0    0.50    4.10
   3  -8   0    7.40    4.40
  -3   8   0    1.80    4.00
  -3   8   0    5.10    3.90
  -3   8   0    3.20    3.70
   2  -8   0  113.49    8.90
   2  -8   0  101.99   11.40
   2  -8   0  104.39   11.40
  -2   8   0  113.39    9.20
  -2   8   0  124.39   10.50
  -2   8   0  111.59   12.20
   1  -8   0   50.69    8.10
   1  -8   0   39.70    6.00
   1  -8   0   42.00    7.40
  -1   8   0   48.60    8.40
  -1   8   0   35.30    6.70
  -1   8   0   52.99    8.30
   0  -8   0    7.20    3.70
   0  -8   0   -0.10    4.90
   0  -8   0   10.30    5.30
   0   8   0    9.60    5.50
   0   8   0   10.30    5.10
   0   8   0    6.00    4.90
  -1  -8   0    6.00    5.30
  -1  -8   0    7.90    5.90
  -1  -8   0    2.30    3.60
   1   8   0   14.40    6.10
   1   8   0    0.10    4.60
   1   8   0    4.50    4.70
   9  -9   0    2.30    4.70
   9  -9   0   -0.60    5.10
  -9   9   0   -2.60    5.90
   8  -9   0    7.90    4.20
   8  -9   0    5.90    5.40
  -8   9   0    6.50    4.00
   7  -9   0   12.00    4.40
   7  -9   0   10.40    6.40
  -7   9   0    2.30    5.70
  -7   9   0   -0.50    3.10
   6  -9   0    7.40    5.60
   6  -9   0    0.50    3.00
   6  -9   0    5.60    4.50
  -6   9   0   -2.90    4.30
  -6   9   0   -1.60    4.60
   5  -9   0   37.60    6.20
   5  -9   0   35.30    8.20
   5  -9   0   40.70    8.20
  -5   9   0   22.70    6.50
  -5   9   0   29.20    7.20
   4  -9   0   -5.30    4.60
   4  -9   0   -8.60    4.70
   4  -9   0   -0.20    3.60
  -4   9   0    0.70    4.50
  -4   9   0    9.90    5.10
  -4   9   0   -1.20    4.30
   3  -9   0   67.69    7.90
   3  -9   0   74.29   10.40
   3  -9   0   71.79   10.20
  -3   9   0   66.39    9.40
  -3   9   0   73.99    9.70
  -3   9   0   72.49   10.50
   2  -9   0   28.00    7.40
   2  -9   0   15.10    6.70
   2  -9   0   19.60    5.10
  -2   9   0   18.00    6.20
  -2   9   0   24.00    7.10
  -2   9   0   17.90    6.30
   1  -9   0   -1.60    4.70
   1  -9   0    0.20    6.50
   1  -9   0   -2.70    3.00
  -1   9   0   -2.90    5.70
  -1   9   0    0.80    4.90
  -1   9   0    7.00    5.30
   0  -9   0    7.10    6.80
   0  -9   0   -2.60    4.80
   0   9   0   -3.30    5.10
   0   9   0   -6.30    5.70
   0   9   0    4.40    5.30
   7 -10   0   -0.70    3.60
   7 -10   0   -0.70    5.10
  -7  10   0   -1.80    6.20
  -7  10   0   -3.40    5.10
   6 -10   0    3.30    5.20
   6 -10   0    8.40    4.20
   6 -10   0    1.10    5.20
  -6  10   0    4.30    5.80
  -6  10   0    4.50    5.70
   5 -10   0   -0.30    5.00
   5 -10   0    6.40    5.90
   5 -10   0    2.80    3.90
  -5  10   0    0.40    5.50
  -5  10   0    5.00    5.50
   4 -10   0    1.90    4.00
   4 -10   0    7.90    6.40
   4 -10   0   10.50    7.10
  -4  10   0    7.60    6.10
  -4  10   0   17.20    7.10
   3 -10   0   16.80    7.10
   3 -10   0   24.50    7.50
   3 -10   0   37.20    7.20
  -3  10   0   19.50    7.30
  -3  10   0   29.50    8.10
  -3  10   0   26.20    7.40
   2 -10   0    7.50    6.90
  -2  10   0   -1.50    5.10
  -2  10  -1   -3.20    5.40
  -2  10  -1    1.70    5.60
   2 -10   1   -8.10    6.10
   2 -10   1    5.40    6.60
  -3  10  -1   -0.30    5.40
  -3  10  -1   -4.40    4.70
   3 -10   1    2.40    5.40
   3 -10   1    8.10    6.30
  -4  10  -1   25.70    6.70
  -4  10  -1   17.70    7.10
   4 -10   1   18.90    7.00
   4 -10   1   19.50    7.20
  -5  10  -1   41.80    8.70
  -5  10  -1   45.40    9.30
   5 -10   1   43.00    9.00
   5 -10   1   38.60    8.50
   5 -10   1   36.60    6.40
  -6  10  -1    1.50    5.40
  -6  10  -1   -2.60    5.00
   6 -10   1    4.20    3.90
   6 -10   1   13.30    7.50
   6 -10   1    6.30    6.90
  -7  10  -1   -1.30    4.70
  -7  10  -1    4.60    5.80
   7 -10   1   -3.60    4.50
   7 -10   1    1.00    3.60
   0   9  -1   -2.80    4.70
   0   9  -1    4.30    5.20
   0   9  -1    1.40    5.50
   0  -9   1   -3.20    5.00
   0  -9   1    6.40    6.20
  -1   9  -1    2.70    4.60
  -1   9  -1    1.70    5.70
  -1   9  -1   -3.00    4.60
   1  -9   1   -0.90    6.60
   1  -9   1   -0.60    4.90
  -2   9  -1    4.10    5.00
  -2   9  -1    4.80    5.10
  -2   9  -1    4.00    4.80
   2  -9   1    7.70    3.60
   2  -9   1    1.30    4.80
   2  -9   1   -4.10    4.80
  -3   9  -1    5.20    3.50
  -3   9  -1    0.60    4.60
   3  -9   1   -2.10    4.50
   3  -9   1    8.70    5.80
   3  -9   1    6.30    3.40
  -4   9  -1   85.29   11.10
  -4   9  -1   62.89    9.70
   4  -9   1   78.49   10.40
   4  -9   1   81.69    8.50
   4  -9   1   76.39   10.10
  -5   9  -1   27.60    6.90
  -5   9  -1   39.00    8.30
   5  -9   1   47.30    8.20
   5  -9   1   35.70    5.80
   5  -9   1   37.00    7.60
  -6   9  -1    7.50    5.60
  -6   9  -1   -0.10    4.10
   6  -9   1    3.80    3.30
   6  -9   1    7.80    5.40
   6  -9   1   -3.20    3.90
  -7   9  -1    1.20    3.40
  -7   9  -1    1.60    4.30
   7  -9   1   -1.80    4.10
   7  -9   1    4.00    3.40
  -8   9  -1    4.90    4.40
   8  -9   1   -3.10    5.70
   8  -9   1    7.00    4.20
  -9   9  -1    1.30    6.00
  -9   9  -1    2.30    5.50
   9  -9   1    1.90    4.40
   9  -9   1   -1.50    5.40
   2   8  -1   33.10    8.10
   2   8  -1   29.80    7.30
   2   8  -1   30.50    8.10
  -2  -8   1   20.30    6.90
  -2  -8   1   33.70    9.10
   1   8  -1   17.10    6.60
   1   8  -1    5.30    5.00
   1   8  -1   11.50    5.70
  -1  -8   1    9.10    5.60
  -1  -8   1    7.70    6.30
   0   8  -1   13.70    5.50
   0   8  -1   26.50    6.40
   0   8  -1   22.40    6.50
   0  -8   1   15.10    4.50
   0  -8   1   11.00    5.70
   0  -8   1   10.70    6.10
  -1   8  -1    4.10    4.20
  -1   8  -1   -1.60    3.60
  -1   8  -1    2.00    4.70
   1  -8   1   -1.50    3.70
   1  -8   1   -4.50    3.60
   1  -8   1   -0.70    2.50
  -2   8  -1   17.40    5.20
  -2   8  -1    7.30    4.50
  -2   8  -1   11.20    5.10
   2  -8   1   18.00    5.50
   2  -8   1   14.20    5.50
   2  -8   1   10.30    3.40
  -3   8  -1    7.40    4.30
  -3   8  -1   -1.50    3.30
  -3   8  -1    4.60    3.70
   3  -8   1    6.30    3.10
   3  -8   1   10.00    4.60
   3  -8   1    1.00    3.60
  -4   8  -1    5.40    4.20
  -4   8  -1    7.20    4.10
   4  -8   1   12.50    5.30
   4  -8   1    7.80    3.10
   4  -8   1    4.50    4.20
  -5   8  -1   64.29    7.00
  -5   8  -1   56.79    8.60
  -5   8  -1   72.89    9.00
   5  -8   1   55.99    8.10
   5  -8   1   73.89    7.70
   5  -8   1   65.89    8.90
  -6   8  -1   27.60    6.00
  -6   8  -1   21.80    4.90
  -6   8  -1   18.00    5.70
   6  -8   1   17.10    5.70
   6  -8   1   28.90    5.20
   6  -8   1   26.10    6.10
  -7   8  -1   44.20    7.60
  -7   8  -1   36.20    7.10
  -7   8  -1   45.90    7.50
   7  -8   1   47.20    6.90
   7  -8   1   42.80    7.90
  -8   8  -1   38.00    8.50
  -8   8  -1   22.70    6.00
   8  -8   1   33.80    6.50
   8  -8   1   44.70    9.00
  -9   8  -1   -5.30    4.50
  -9   8  -1    1.40    4.00
   9  -8   1    2.80    6.40
   9  -8   1    3.00    4.10
   3   7  -1   -2.80    4.30
   3   7  -1    6.50    5.20
   3   7  -1   -5.50    4.50
  -3  -7   1   -1.70    4.60
  -3  -7   1    1.80    5.70
  -3  -7   1   -1.50    5.30
   2   7  -1   -1.00    3.90
   2   7  -1    6.40    5.50
   2   7  -1    4.10    4.60
  -2  -7   1    1.30    2.90
  -2  -7   1    1.70    4.20
  -2  -7   1    6.10    5.80
   1   7  -1   54.49    8.60
   1   7  -1   47.10    7.00
   1   7  -1   49.70    8.20
  -1  -7   1   60.29    9.20
  -1  -7   1   47.80    5.80
  -1  -7   1   42.30    8.00
   0   7  -1   52.39    7.90
   0   7  -1   63.19    8.10
   0   7  -1   70.49    9.30
   0  -7   1   70.29    6.80
   0  -7   1   84.09   10.00
   0  -7   1   64.99    9.20
  -1   7  -1    0.00    2.90
  -1   7  -1    7.70    4.60
  -1   7  -1    6.60    3.80
   1  -7   1    6.50    2.70
   1  -7   1    9.90    4.50
   1  -7   1   11.40    5.20
  -2   7  -1   49.70    4.80
  -2   7  -1   57.69    7.50
  -2   7  -1   50.19    7.60
  -2   7  -1   64.99    8.00
   2  -7   1   51.39    7.40
   2  -7   1   40.20    6.80
   2  -7   1   43.60    5.30
  -3   7  -1   10.50    4.10
  -3   7  -1    5.60    3.40
  -3   7  -1   12.00    3.10
  -3   7  -1    6.90    3.60
   3  -7   1    8.30    4.30
   3  -7   1   13.40    3.30
   3  -7   1   13.50    4.40
  -4   7  -1   15.30    3.70
  -4   7  -1   23.50    5.10
  -4   7  -1   23.90    5.40
   4  -7   1   19.80    3.70
   4  -7   1   36.60    6.00
   4  -7   1   23.30    5.50
  -5   7  -1   28.20    5.60
  -5   7  -1   38.60    6.30
  -5   7  -1   39.40    5.50
   5  -7   1   45.90    6.80
   5  -7   1   44.30    5.70
   5  -7   1   38.40    6.00
  -6   7  -1   -1.30    2.60
  -6   7  -1    1.40    3.00
  -6   7  -1    3.10    3.90
   6  -7   1    0.80    2.20
   6  -7   1    3.60    3.00
   6  -7   1    4.40    3.50
  -7   7  -1   92.29    9.50
  -7   7  -1  103.39    8.20
  -7   7  -1  113.19    8.90
   7  -7   1  101.69   10.70
   7  -7   1  107.19    8.70
   7  -7   1   99.39    8.40
  -8   7  -1   26.50    6.80
  -8   7  -1   31.10    6.90
  -8   7  -1   17.40    4.80
   8  -7   1   22.20    5.20
   8  -7   1   27.60    7.30
   8  -7   1   36.70    6.50
  -9   7  -1   14.60    5.20
  -9   7  -1   13.50    5.90
  -9   7  -1    6.60    5.30
   9  -7   1   19.50    7.60
   9  -7   1    4.80    4.40
   9  -7   1   20.60    5.50
 -10   7  -1    1.80    5.20
 -10   7  -1   -4.30    5.30
 -10   7  -1    2.80    6.00
  10  -7   1   -1.90    5.60
  10  -7   1   -1.00    4.50
  10  -7   1    1.40    5.00
   4   6  -1   -4.70    4.00
   4   6  -1   -4.70    4.40
   4   6  -1   -3.00    4.20
  -4  -6   1   -0.50    5.00
  -4  -6   1    3.20    5.40
  -4  -6   1   -0.60    3.70
  -4  -6   1   -1.70    5.30
  -4  -6   1    1.70    5.30
   3   6  -1   -0.50    3.60
   3   6  -1   10.10    5.20
   3   6  -1    5.20    4.40
  -3  -6   1    0.80    4.00
  -3  -6   1    0.00    2.70
  -3  -6   1    6.60    5.30
  -3  -6   1    0.20    4.30
   2   6  -1   40.30    7.10
   2   6  -1   30.80    6.60
   2   6  -1   21.60    5.10
  -2  -6   1   28.30    6.00
  -2  -6   1   27.40    4.50
  -2  -6   1   30.40    6.90
   1   6  -1   93.89    9.90
   1   6  -1  101.59   10.10
   1   6  -1   98.99    6.80
   1   6  -1  103.29    8.10
  -1  -6   1   82.29    8.60
  -1  -6   1   88.49   10.00
  -1  -6   1   92.49    6.90
   0   6  -1    9.10    3.60
   0   6  -1   15.10    4.30
   0   6  -1    3.40    2.20
   0   6  -1    9.90    3.60
   0  -6   1    8.60    2.70
   0  -6   1    6.20    3.30
   0  -6   1    9.80    4.20
  -1   6  -1    6.90    2.10
  -1   6  -1    6.90    3.10
  -1   6  -1    7.30    3.40
  -1   6  -1    2.50    2.70
   1  -6   1    5.10    4.00
   1  -6   1    3.30    2.30
   1  -6   1    4.70    3.20
  -2   6  -1  130.09    9.00
  -2   6  -1  134.79    8.90
  -2   6  -1  128.79    8.70
  -2   6  -1  123.79    6.40
   2  -6   1  117.29    8.80
   2  -6   1  142.19    7.70
   2  -6   1  132.99    9.10
  -3   6  -1   98.89    6.00
  -3   6  -1  100.29    7.80
  -3   6  -1   83.89    7.20
   3  -6   1   91.79    7.40
   3  -6   1   84.99    7.20
   3  -6   1  105.09    6.50
  -4   6  -1   36.00    4.70
  -4   6  -1   32.50    5.20
  -4   6  -1   31.00    2.80
  -4   6  -1   26.60    4.90
   4  -6   1   30.60    3.00
   4  -6   1   39.30    5.70
   4  -6   1   40.90    5.00
   4  -6   1   33.90    5.80
  -5   6  -1   35.60    4.20
  -5   6  -1   35.70    6.00
  -5   6  -1   36.80    5.30
  -5   6  -1   44.70    5.70
   5  -6   1   29.70    5.30
   5  -6   1   28.30    3.70
   5  -6   1   38.00    5.10
   5  -6   1   35.60    5.30
  -6   6  -1    7.60    3.80
  -6   6  -1    5.30    2.60
  -6   6  -1    4.30    3.00
  -6   6  -1   12.40    3.30
   6  -6   1    6.90    2.70
   6  -6   1   11.50    3.50
   6  -6   1    7.60    3.20
   6  -6   1   11.20    4.00
  -7   6  -1   15.40    4.60
  -7   6  -1    9.20    3.90
  -7   6  -1    3.00    2.90
  -7   6  -1   -0.20    3.50
   7  -6   1    7.40    4.70
   7  -6   1    8.30    3.80
   7  -6   1    8.20    3.40
  -8   6  -1   42.90    7.40
  -8   6  -1   46.20    7.80
  -8   6  -1   35.70    7.40
   8  -6   1   56.19    8.30
   8  -6   1   46.00    7.20
   8  -6   1   36.20    7.20
  -9   6  -1   53.59    8.80
  -9   6  -1   56.79    9.60
  -9   6  -1   63.89    9.60
   9  -6   1   69.59    9.30
   9  -6   1   82.19   10.70
   9  -6   1   48.30    8.90
 -10   6  -1    0.30    5.30
 -10   6  -1    1.10    5.70
 -10   6  -1   16.40    6.60
  10  -6   1   -0.50    4.40
  10  -6   1   -1.10    4.90
  10  -6   1    1.90    7.50
   5   5  -1   25.60    7.00
   5   5  -1   17.30    7.30
   5   5  -1   15.00    6.50
   5   5  -1   10.70    5.20
  -5  -5   1   19.50    5.00
  -5  -5   1   17.80    7.00
  -5  -5   1    9.80    6.10
  -5  -5   1   28.90    8.00
  -5  -5   1   14.50    6.10
   4   5  -1    8.20    4.60
   4   5  -1    5.40    4.60
   4   5  -1    9.90    5.10
   4   5  -1   10.30    4.60
   4   5  -1    6.80    4.00
   4   5  -1   11.60    5.10
  -4  -5   1    3.60    4.70
  -4  -5   1   14.40    4.60
  -4  -5   1    2.30    3.10
  -4  -5   1   13.30    5.40
  -4  -5   1    6.00    4.10
  -4  -5   1    7.40    5.10
  -4  -5   1   10.90    5.30
   3   5  -1   48.40    7.20
   3   5  -1   59.99    6.70
   3   5  -1   50.29    6.50
   3   5  -1   58.39    7.70
   3   5  -1   59.99    8.30
  -3  -5   1   51.89    6.40
  -3  -5   1   46.40    7.00
  -3  -5   1   43.10    5.80
  -3  -5   1   49.99    7.60
  -3  -5   1   45.50    6.30
  -3  -5   1   44.80    7.40
   2   5  -1   95.59    9.30
   2   5  -1   98.49    7.10
   2   5  -1   84.39    7.10
   2   5  -1  111.29   10.30
  -2  -5   1   88.89    8.40
  -2  -5   1   99.39   10.10
  -2  -5   1   93.89    6.50
  -2  -5   1   88.69    6.30
   1   5  -1    6.00    2.80
   1   5  -1    5.50    2.80
   1   5  -1    4.20    2.70
   1   5  -1    9.40    2.50
  -1  -5   1    7.00    2.40
  -1  -5   1    1.70    3.60
  -1  -5   1    7.10    3.40
  -1  -5   1    3.90    1.70
   0   5  -1   89.29    5.20
   0   5  -1   92.09    7.30
   0   5  -1  117.79    7.70
   0   5  -1  114.69    7.30
   0  -5   1  108.49    4.50
   0  -5   1   99.29    7.40
   0  -5   1  100.99    5.80
   0  -5   1   86.49    7.50
   0  -5   1   87.89    4.70
  -1   5  -1    2.00    2.10
  -1   5  -1    0.00    1.80
  -1   5  -1    3.30    2.30
  -1   5  -1    1.00    1.40
   1  -5   1   -3.50    2.20
   1  -5   1    1.70    1.50
   1  -5   1    2.70    2.70
  -2   5  -1   90.89    6.80
  -2   5  -1   91.99    5.10
  -2   5  -1  100.09    6.50
  -2   5  -1  104.19    7.00
   2  -5   1  110.29    7.30
   2  -5   1   91.09    7.00
   2  -5   1   99.99    5.70
  -3   5  -1  217.18    7.10
  -3   5  -1  217.18    7.10
  -3   5  -1  222.68   11.00
  -3   5  -1  239.78   11.00
  -3   5  -1  220.88    9.20
   3  -5   1  203.98    7.10
   3  -5   1  214.78   10.60
   3  -5   1  230.28   10.50
   3  -5   1  227.08    9.50
  -4   5  -1   -0.10    1.20
  -4   5  -1    1.90    1.80
  -4   5  -1    0.20    1.60
  -4   5  -1    0.50    2.00
   4  -5   1    1.90    2.40
   4  -5   1    1.80    1.40
   4  -5   1   -2.00    1.80
   4  -5   1    0.70    1.20
  -5   5  -1    4.50    2.60
  -5   5  -1    1.30    2.00
  -5   5  -1    5.10    2.40
  -5   5  -1    0.70    2.30
   5  -5   1    3.50    2.30
   5  -5   1    0.20    2.10
   5  -5   1    3.30    1.90
   5  -5   1    2.40    2.10
  -6   5  -1    1.40    2.50
  -6   5  -1    3.00    3.00
  -6   5  -1    3.40    2.20
  -6   5  -1    8.80    3.00
   6  -5   1    5.60    2.50
   6  -5   1    7.60    3.20
   6  -5   1    5.10    2.40
   6  -5   1    9.00    2.90
  -7   5  -1    4.50    3.20
  -7   5  -1    6.10    3.80
  -7   5  -1   -2.30    2.90
   7  -5   1   -3.10    3.50
   7  -5   1    2.50    2.60
   7  -5   1   -1.60    2.10
  -8   5  -1   67.69    9.50
  -8   5  -1   64.99    8.20
  -8   5  -1   59.59    8.70
   8  -5   1   49.30    7.80
   8  -5   1   44.80    7.30
   8  -5   1   61.19    8.00
  -9   5  -1   68.99    9.60
  -9   5  -1   37.70    8.10
  -9   5  -1   72.29   10.20
   9  -5   1   57.79    9.30
   9  -5   1   77.49   10.90
   9  -5   1   32.80    6.90
 -10   5  -1    0.70    5.80
 -10   5  -1   -1.30    5.40
 -10   5  -1    3.50    5.40
  10  -5   1   -0.20    4.50
  10  -5   1    2.20    5.20
  10  -5   1    8.20    7.80
   6   4  -1   23.20    7.10
   6   4  -1   18.80    6.20
   6   4  -1   22.00    7.00
   6   4  -1   12.00    6.70
   6   4  -1    9.70    6.30
  -6  -4   1   15.90    7.40
  -6  -4   1   18.40    5.00
  -6  -4   1   14.80    5.70
  -6  -4   1   10.80    6.50
  -6  -4   1   13.20    6.20
   5   4  -1   37.90    6.60
   5   4  -1   47.50    7.90
   5   4  -1   30.90    5.90
   5   4  -1   44.50    7.20
   5   4  -1   44.30    7.20
   5   4  -1   42.50    6.40
   5   4  -1   41.50    7.90
  -5  -4   1   32.90    6.90
  -5  -4   1   47.30    6.30
  -5  -4   1   42.50    7.10
  -5  -4   1   46.40    7.80
  -5  -4   1   43.40    7.30
  -5  -4   1   43.30    7.60
  -5  -4   1   18.20    5.20
   4   4  -1   -2.40    2.70
   4   4  -1   -0.20    2.80
   4   4  -1    2.10    3.00
   4   4  -1    0.10    3.00
   4   4  -1    2.60    2.90
   4   4  -1   -0.80    3.60
   4   4  -1    0.50    2.70
  -4  -4   1   -2.60    3.00
  -4  -4   1    0.80    2.90
  -4  -4   1    1.70    3.30
  -4  -4   1    8.30    4.10
  -4  -4   1   -1.00    3.10
  -4  -4   1   -1.20    2.60
  -4  -4   1   -1.30    2.00
   3   4  -1  138.79    8.80
   3   4  -1  133.99    9.20
   3   4  -1  150.08    8.80
   3   4  -1  117.69    8.50
   3   4  -1  140.59    9.00
   3   4  -1  140.89    8.70
   3   4  -1  139.39    9.00
  -3  -4   1  113.09    8.60
  -3  -4   1  140.89    9.80
  -3  -4   1  135.29    9.90
  -3  -4   1  133.99    7.90
  -3  -4   1  134.49    8.40
  -3  -4   1  137.79    8.70
   2   4  -1   70.99    6.10
   2   4  -1   72.19    5.80
   2   4  -1   62.09    5.10
   2   4  -1   68.59    5.30
   2   4  -1   79.79    7.80
   2   4  -1   74.79    7.30
  -2  -4   1   81.89    8.10
  -2  -4   1   80.39    7.30
  -2  -4   1   73.89    5.30
  -2  -4   1   63.09    4.90
   1   4  -1   16.80    3.40
   1   4  -1   20.10    4.00
   1   4  -1   20.90    2.90
   1   4  -1   16.90    3.60
   1   4  -1   14.40    2.40
  -1  -4   1   14.20    3.50
  -1  -4   1   13.70    3.40
  -1  -4   1   14.80    2.60
  -1  -4   1   11.80    2.20
   0   4  -1  424.76   15.70
   0   4  -1  415.56   14.90
   0   4  -1  400.66   13.00
   0   4  -1  415.66   15.30
   0  -4   1  400.46   11.60
   0  -4   1  417.16   13.20
   0  -4   1  403.76   11.80
   0  -4   1  389.86   14.50
   0  -4   1  391.56   15.40
  -1   4  -1   43.80    4.70
  -1   4  -1   36.40    4.30
  -1   4  -1   43.20    5.10
  -1   4  -1   36.80    2.90
   1  -4   1   37.40    4.50
   1  -4   1   31.00    3.20
   1  -4   1   29.50    4.10
  -2   4  -1  150.78    6.60
  -2   4  -1  149.19    4.40
  -2   4  -1  146.39    7.70
  -2   4  -1  153.98    7.20
  -2   4  -1  146.99    7.70
  -2   4  -1  154.08    4.40
   2  -4   1  137.99    4.40
   2  -4   1  155.08    6.70
   2  -4   1  153.08    7.80
   2  -4   1  150.68    7.60
  -3   4  -1  165.38    8.50
  -3   4  -1  150.18    7.20
  -3   4  -1  159.18    7.70
   3  -4   1  143.49    6.00
   3  -4   1  154.48    7.40
   3  -4   1  151.48    7.00
   3  -4   1  153.78    8.10
  -4   4  -1   73.59    7.10
  -4   4  -1   69.99    5.30
  -4   4  -1   61.29    4.60
   4  -4   1   60.39    6.20
   4  -4   1   54.89    4.40
   4  -4   1   64.29    4.50
   4  -4   1   60.99    4.40
  -5   4  -1    2.60    2.00
  -5   4  -1   -2.10    1.70
  -5   4  -1    1.00    1.80
  -5   4  -1    1.10    1.40
   5  -4   1    3.00    2.40
   5  -4   1    1.80    1.80
   5  -4   1   -0.60    1.70
   5  -4   1   -0.40    1.80
  -6   4  -1    1.40    1.70
  -6   4  -1    0.00    2.20
  -6   4  -1    2.10    2.50
  -6   4  -1    0.00    2.50
   6  -4   1   -0.30    1.70
   6  -4   1    3.40    2.70
   6  -4   1   -1.60    1.70
   6  -4   1   -0.70    1.80
  -7   4  -1   43.10    7.00
  -7   4  -1   31.80    5.90
  -7   4  -1   33.60    6.20
   7  -4   1   32.80    6.00
   7  -4   1   35.60    6.60
   7  -4   1   35.30    5.50
  -8   4  -1   15.10    4.60
  -8   4  -1   10.40    5.30
  -8   4  -1   16.70    5.40
   8  -4   1   15.70    6.00
   8  -4   1   12.40    4.20
   8  -4   1   13.40    4.80
  -9   4  -1   35.70    7.50
  -9   4  -1   14.60    6.20
  -9   4  -1   14.60    5.90
   9  -4   1    9.20    4.70
   9  -4   1    8.90    5.40
   9  -4   1   11.30    5.50
 -10   4  -1   16.10    7.00
 -10   4  -1   18.10    7.00
 -10   4  -1   19.50    7.10
  10  -4   1    4.70    5.50
  10  -4   1   21.20    9.10
  10  -4   1    7.50    6.60
   7   3  -1   24.60    7.40
   7   3  -1   21.80    7.50
  -7  -3   1   25.20    5.70
  -7  -3   1   16.00    6.40
  -7  -3   1   23.10    6.90
   6   3  -1   21.80    5.80
   6   3  -1   22.90    6.30
   6   3  -1   26.50    6.10
   6   3  -1   28.20    6.80
   6   3  -1   14.10    5.40
   6   3  -1   33.10    6.20
  -6  -3   1   29.20    6.80
  -6  -3   1   22.60    5.90
  -6  -3   1   22.30    4.90
  -6  -3   1   34.10    6.10
  -6  -3   1   25.20    6.40
  -6  -3   1   24.60    6.10
  -6  -3   1   27.80    6.40
   5   3  -1   10.90    4.30
   5   3  -1   10.80    4.30
   5   3  -1    7.90    3.60
   5   3  -1    6.20    3.30
   5   3  -1   13.70    4.40
   5   3  -1    7.90    3.40
   5   3  -1    4.00    3.30
  -5  -3   1    8.20    3.90
  -5  -3   1    6.10    3.90
  -5  -3   1    6.40    3.60
  -5  -3   1    9.40    3.50
  -5  -3   1   10.50    4.50
  -5  -3   1    8.90    3.20
  -5  -3   1   10.80    4.10
   4   3  -1   26.40    4.90
   4   3  -1   27.00    5.40
   4   3  -1   31.90    5.20
   4   3  -1   24.10    4.30
   4   3  -1   21.30    4.60
   4   3  -1   27.80    4.60
   4   3  -1   30.10    5.00
  -4  -3   1   30.90    5.60
  -4  -3   1   36.50    6.10
  -4  -3   1   33.60    5.60
  -4  -3   1   26.50    4.80
  -4  -3   1   34.40    5.60
  -4  -3   1   31.80    5.10
  -4  -3   1   31.30    4.60
   3   3  -1   26.60    4.30
   3   3  -1   17.30    3.50
   3   3  -1   18.50    3.60
   3   3  -1   25.40    4.20
   3   3  -1   31.30    4.90
   3   3  -1   26.20    4.10
   3   3  -1   14.30    3.20
  -3  -3   1   25.00    4.80
  -3  -3   1   23.70    4.20
  -3  -3   1   23.80    4.20
  -3  -3   1   19.20    3.40
  -3  -3   1   24.00    4.40
  -3  -3   1   20.70    3.70
  -3  -3   1   21.40    4.10
   2   3  -1  169.58    8.70
   2   3  -1  158.88    8.10
   2   3  -1  157.88    8.20
   2   3  -1  151.38    7.70
   2   3  -1  161.88    7.70
   2   3  -1  155.28    7.90
   2   3  -1  160.68    8.10
  -2  -3   1  165.68    7.90
  -2  -3   1  143.69    6.90
  -2  -3   1  152.58    7.60
  -2  -3   1  169.88    9.00
   1   3  -1  671.43   21.60
   1   3  -1  676.33   21.00
   1   3  -1  668.43   20.90
   1   3  -1  680.53   21.50
   1   3  -1  692.73   20.00
   1   3  -1  701.23   19.90
  -1  -3   1  671.93   19.60
  -1  -3   1  678.83   20.60
  -1  -3   1  698.93   19.60
  -1  -3   1  679.93   21.80
   0   3  -1    8.80    2.00
   0   3  -1    5.70    1.30
   0   3  -1    2.00    1.40
   0   3  -1    7.00    1.10
   0   3  -1    4.90    1.70
   0  -3   1    3.80    1.20
   0  -3   1    7.50    2.10
   0  -3   1    4.40    0.80
   0  -3   1    5.50    0.90
   0  -3   1    7.80    2.20
  -1   3  -1   85.59    5.10
  -1   3  -1   86.39    4.10
  -1   3  -1   88.59    5.10
  -1   3  -1   93.89    5.00
   1  -3   1   97.89    5.40
   1  -3   1   90.69    5.20
   1  -3   1   92.19    4.30
  -2   3  -1  138.19    5.00
  -2   3  -1  156.98    5.20
  -2   3  -1  156.58    6.80
  -2   3  -1  144.59    6.30
  -2   3  -1  155.18    7.10
   2  -3   1  148.79    6.10
   2  -3   1  163.68    6.90
   2  -3   1  145.39    5.20
   2  -3   1  162.78    7.20
  -3   3  -1   38.60    3.00
  -3   3  -1   42.00    3.50
  -3   3  -1   47.90    4.90
   3  -3   1   41.60    3.10
   3  -3   1   37.60    3.10
   3  -3   1   49.80    4.90
   3  -3   1   40.60    3.20
  -4   3  -1  254.17   11.00
  -4   3  -1  235.88   10.40
  -4   3  -1  239.28    8.70
   4  -3   1  235.08   10.20
   4  -3   1  250.57    8.90
   4  -3   1  245.18   10.70
   4  -3   1  249.28   10.20
  -5   3  -1   29.10    4.40
  -5   3  -1   30.20    4.70
  -5   3  -1   30.40    3.00
  -5   3  -1   31.70    4.90
   5  -3   1   26.00    4.00
   5  -3   1   22.90    2.90
   5  -3   1   27.30    4.50
   5  -3   1   25.90    4.30
  -6   3  -1  114.09    8.30
  -6   3  -1  117.49    8.60
  -6   3  -1  109.89    8.40
  -6   3  -1  107.09    5.10
   6  -3   1  112.49    8.00
   6  -3   1  118.49    8.60
   6  -3   1  100.99    5.00
   6  -3   1  110.49    8.00
  -7   3  -1   34.50    5.80
  -7   3  -1   38.70    6.60
  -7   3  -1   45.10    6.80
   7  -3   1   33.30    5.70
   7  -3   1   35.10    6.30
   7  -3   1   34.90    6.20
  -8   3  -1    7.30    4.30
  -8   3  -1    4.40    4.20
  -8   3  -1    4.00    4.40
   8  -3   1    4.40    3.10
   8  -3   1    2.30    4.10
   8  -3   1   -3.30    4.60
  -9   3  -1   25.10    6.90
  -9   3  -1   20.10    6.90
  -9   3  -1   22.90    6.50
   9  -3   1   28.60    8.20
   9  -3   1   13.60    5.40
   9  -3   1   35.30    8.60
 -10   3  -1   -0.60    5.40
 -10   3  -1    3.10    6.00
 -10   3  -1   -2.90    6.10
  10  -3   1    3.10    6.00
  10  -3   1   -0.10    4.90
  10  -3   1    9.60    8.40
   8   2  -1   69.39   12.30
  -8  -2   1   50.89    8.10
  -8  -2   1   72.59   11.00
   7   2  -1   49.00    8.20
   7   2  -1   29.50    7.80
   7   2  -1   37.50    7.90
  -7  -2   1   28.70    6.80
  -7  -2   1   24.60    6.00
  -7  -2   1   23.10    6.90
  -7  -2   1   41.80    6.60
  -7  -2   1   36.80    7.60
   6   2  -1   16.90    4.80
   6   2  -1   13.60    4.50
   6   2  -1   14.50    4.60
   6   2  -1   21.00    6.40
   6   2  -1   18.00    4.60
  -6  -2   1   14.90    4.90
  -6  -2   1    5.70    4.80
  -6  -2   1    9.70    3.90
  -6  -2   1   21.20    5.70
  -6  -2   1   10.00    4.40
   5   2  -1   21.50    4.60
   5   2  -1   11.70    4.30
   5   2  -1   22.80    4.10
   5   2  -1   12.50    3.80
   5   2  -1    9.20    3.60
   5   2  -1   21.90    4.00
   5   2  -1   10.10    3.50
  -5  -2   1   11.20    3.90
  -5  -2   1   15.80    4.40
  -5  -2   1   19.20    4.00
  -5  -2   1   11.90    3.90
  -5  -2   1   11.00    4.00
   4   2  -1   63.59    6.60
   4   2  -1   60.49    6.10
   4   2  -1   57.19    6.10
   4   2  -1   60.29    5.80
   4   2  -1   61.39    6.40
   4   2  -1   54.39    5.60
   4   2  -1   64.89    7.10
  -4  -2   1   56.49    6.10
  -4  -2   1   66.09    6.90
  -4  -2   1   58.99    6.70
  -4  -2   1   60.89    7.00
  -4  -2   1   52.59    6.20
   3   2  -1  224.98    9.60
   3   2  -1  233.78   10.50
   3   2  -1  213.68    9.90
   3   2  -1  213.18    9.50
   3   2  -1  216.28    9.60
   3   2  -1  198.38    9.20
   3   2  -1  221.88    9.90
  -3  -2   1  227.58    9.90
  -3  -2   1  206.68   10.20
  -3  -2   1  225.18   10.30
  -3  -2   1  232.28    9.20
  -3  -2   1  214.78   10.00
  -3  -2   1  233.48   10.50
   2   2  -1  740.63   21.90
   2   2  -1  740.83   21.90
   2   2  -1  725.53   22.00
   2   2  -1  736.63   22.10
   2   2  -1  731.33   22.00
   2   2  -1  720.03   21.80
   2   2  -1  749.73   21.80
  -2  -2   1  738.33   21.10
  -2  -2   1  716.93   22.70
  -2  -2   1  738.33   21.30
  -2  -2   1  735.63   22.40
   1   2  -1    6.50    1.50
   1   2  -1    7.60    1.80
   1   2  -1    7.60    1.50
   1   2  -1    8.20    1.80
   1   2  -1    5.70    1.60
   1   2  -1    7.80    1.80
   1   2  -1    6.40    1.40
  -1  -2   1    6.60    1.70
  -1  -2   1    5.60    1.20
  -1  -2   1    9.20    1.70
   0   2  -1  696.73   18.60
   0   2  -1  666.13   19.60
   0   2  -1  705.93   17.60
   0   2  -1  694.83   18.00
   0   2  -1  682.43   19.40
   0   2  -1  696.13   19.50
   0  -2   1  660.83   18.50
   0  -2   1  680.53   19.80
   0  -2   1  682.23   19.20
   0  -2   1  669.53   17.50
   0  -2   1  708.23   18.10
  -1   2  -1   14.50    0.80
  -1   2  -1   14.50    0.90
  -1   2  -1   20.20    2.40
  -1   2  -1   18.40    1.90
  -1   2  -1   18.10    2.10
  -1   2  -1   11.30    1.40
   1  -2   1   18.20    2.20
   1  -2   1   15.00    1.50
   1  -2   1   17.20    2.20
   1  -2   1   14.90    2.00
   1  -2   1   13.60    1.70
  -2   2  -1  161.08    5.80
  -2   2  -1  160.78    5.90
  -2   2  -1  151.48    5.80
  -2   2  -1  165.68    6.40
  -2   2  -1  154.68    6.60
  -2   2  -1  155.58    5.80
   2  -2   1  158.88    5.80
   2  -2   1  162.68    6.70
   2  -2   1  170.58    6.20
   2  -2   1  166.18    6.10
   2  -2   1  161.38    6.00
  -3   2  -1  732.63   21.20
  -3   2  -1  703.53   19.50
  -3   2  -1  709.83   19.10
  -3   2  -1  721.33   21.40
  -3   2  -1  707.03   21.50
   3  -2   1  730.23   21.10
   3  -2   1  703.13   21.30
   3  -2   1  715.33   19.40
   3  -2   1  711.63   19.90
   3  -2   1  716.23   21.50
  -4   2  -1  237.28    7.50
  -4   2  -1  236.78    8.00
  -4   2  -1  224.08   10.00
  -4   2  -1  246.68   10.40
  -4   2  -1  234.68   10.20
   4  -2   1  217.38   10.20
   4  -2   1  248.48   10.20
   4  -2   1  234.98    7.60
   4  -2   1  236.98   10.40
   4  -2   1  211.78    8.00
  -5   2  -1  178.08    5.90
  -5   2  -1  199.18   10.10
  -5   2  -1  178.78    9.80
  -5   2  -1  181.68    9.70
  -5   2  -1  183.58    6.50
   5  -2   1  195.28    9.80
   5  -2   1  172.58    6.30
   5  -2   1  179.38   10.00
   5  -2   1  181.68    7.00
   5  -2   1  182.18    9.70
  -6   2  -1    5.30    1.50
  -6   2  -1    7.00    3.40
  -6   2  -1    5.30    3.20
  -6   2  -1    1.40    2.50
   6  -2   1    3.50    1.90
   6  -2   1    5.00    2.60
   6  -2   1    1.80    2.70
   6  -2   1    6.00    3.20
  -7   2  -1  125.89   10.00
  -7   2  -1  101.19   10.50
  -7   2  -1  113.49    9.30
   7  -2   1  120.29   10.20
   7  -2   1  105.69   10.10
   7  -2   1  115.09   10.90
  -8   2  -1   25.50    6.70
  -8   2  -1   18.30    5.60
  -8   2  -1   29.50    6.60
   8  -2   1   25.80    6.90
   8  -2   1   20.30    6.30
   8  -2   1   26.30    6.10
  -9   2  -1    5.40    5.90
  -9   2  -1    4.10    5.30
  -9   2  -1   -0.60    5.30
   9  -2   1    0.40    4.20
   9  -2   1    3.80    5.70
   9  -2   1    0.30    5.50
   8   1  -1   50.49    9.90
   8   1  -1   36.90    7.60
  -8  -1   1   49.00    8.80
  -8  -1   1   38.90    8.40
  -8  -1   1   41.40    8.60
   7   1  -1   -1.60    4.40
   7   1  -1    2.10    4.70
   7   1  -1   -1.20    3.50
  -7  -1   1    0.20    4.80
  -7  -1   1   -1.30    3.50
  -7  -1   1    2.90    3.90
   6   1  -1   -2.40    3.40
   6   1  -1   -1.80    2.60
   6   1  -1   -1.50    2.60
   6   1  -1    3.60    3.00
   6   1  -1   -1.40    2.20
  -6  -1   1   -1.40    2.70
  -6  -1   1    0.80    3.10
  -6  -1   1   -1.20    3.00
  -6  -1   1    4.10    2.70
  -6  -1   1   -1.00    2.30
   5   1  -1    3.60    2.80
   5   1  -1    3.70    2.90
   5   1  -1    1.30    2.90
   5   1  -1    0.30    2.30
   5   1  -1    3.60    2.30
  -5  -1   1    6.50    3.20
  -5  -1   1    5.10    2.80
  -5  -1   1    4.60    2.40
  -5  -1   1    4.10    2.30
  -5  -1   1    7.70    3.00
   4   1  -1   21.30    3.60
   4   1  -1   19.60    3.60
   4   1  -1   17.60    3.60
   4   1  -1   19.70    2.90
   4   1  -1   19.90    3.40
   4   1  -1   29.40    3.60
   4   1  -1   26.20    4.40
  -4  -1   1   22.90    4.30
  -4  -1   1   19.50    3.20
  -4  -1   1   21.60    4.00
  -4  -1   1   25.00    3.80
   3   1  -1   34.90    3.60
   3   1  -1   39.90    4.00
   3   1  -1   33.50    4.10
   3   1  -1   31.50    3.70
   3   1  -1   34.40    3.80
   3   1  -1   39.60    3.20
   3   1  -1   49.99    4.70
  -3  -1   1   30.00    4.00
  -3  -1   1   40.10    4.40
  -3  -1   1   44.50    5.00
  -3  -1   1   37.30    3.70
   2   1  -1  230.18    8.60
   2   1  -1  239.48    8.20
   2   1  -1  235.48    8.30
   2   1  -1  230.08    8.80
   2   1  -1  224.48    8.40
   2   1  -1  234.58    8.50
   2   1  -1  228.98    8.30
  -2  -1   1  230.08    8.30
  -2  -1   1  221.68    8.80
  -2  -1   1  238.28    9.20
   1   1  -1  241.28    7.90
   1   1  -1  242.68    7.60
   1   1  -1  251.57    8.10
   1   1  -1  262.57    8.20
   1   1  -1  239.58    7.80
   1   1  -1  233.38    7.60
   1   1  -1  243.68    8.00
   1   1  -1  246.78    8.00
  -1  -1   1  241.88    7.40
  -1  -1   1  232.68    7.60
  -1  -1   1  239.98    7.40
  -1  -1   1  247.08    8.50
  -1  -1   1  233.78    7.80
  -1  -1   1  247.58    8.00
  -1  -1   1  253.77    8.20
  -1  -1   1  265.57    8.70
  -1  -1   1  247.48    7.90
   0   1  -1  689.83   17.90
   0   1  -1  674.23   16.90
   0   1  -1  667.63   17.20
   0   1  -1  667.63   17.80
   0   1  -1  698.53   18.20
   0   1  -1  668.73   18.10
   0   1  -1  684.63   18.30
   0  -1   1  679.83   17.80
   0  -1   1  682.83   17.90
   0  -1   1  669.03   18.10
   0  -1   1  681.73   18.30
   0  -1   1  712.93   17.00
   0  -1   1  704.23   18.10
   0  -1   1  678.63   17.20
   0  -1   1  694.83   18.20
  -1   1  -1  251.27    7.00
  -1   1  -1  253.07    7.70
  -1   1  -1  249.38    7.70
  -1   1  -1  252.87    7.70
  -1   1  -1  250.67    7.90
  -1   1  -1  257.57    7.40
  -1   1  -1  255.97    7.30
   1  -1   1  265.77    8.00
   1  -1   1  252.87    7.70
   1  -1   1  248.68    7.50
   1  -1   1  255.57    7.40
   1  -1   1  252.97    7.40
   1  -1   1  244.28    7.60
   1  -1   1  234.38    7.00
   1  -1   1  248.68    7.70
  -2   1  -1  142.99    5.00
  -2   1  -1  121.19    5.40
  -2   1  -1  132.39    5.40
  -2   1  -1  128.09    5.60
  -2   1  -1  134.59    3.70
   2  -1   1  126.29    5.60
   2  -1   1  131.89    5.70
   2  -1   1  132.09    5.50
   2  -1   1  132.29    5.40
   2  -1   1  125.99    4.90
   2  -1   1  131.79    3.80
  -3   1  -1   35.40    3.70
  -3   1  -1   46.50    4.30
  -3   1  -1   36.10    1.60
  -3   1  -1   31.10    2.50
  -3   1  -1   40.60    4.10
  -3   1  -1   36.80    1.90
   3  -1   1   34.00    2.50
   3  -1   1   36.20    4.00
   3  -1   1   40.80    4.10
   3  -1   1   36.60    1.80
   3  -1   1   33.70    3.60
  -4   1  -1    0.00    1.50
  -4   1  -1    0.90    1.70
  -4   1  -1    1.20    0.70
  -4   1  -1    0.30    0.90
  -4   1  -1    2.40    1.80
   4  -1   1    1.50    1.40
   4  -1   1    1.60    1.60
   4  -1   1    0.50    1.50
   4  -1   1    0.50    2.10
  -5   1  -1   54.39    3.10
  -5   1  -1   56.09    6.40
  -5   1  -1   52.49    3.50
  -5   1  -1   63.49    6.60
  -5   1  -1   61.39    6.40
   5  -1   1   64.29    7.00
   5  -1   1   54.09    6.00
   5  -1   1   61.69    6.70
   5  -1   1   54.69    4.00
  -6   1  -1   90.59    8.00
  -6   1  -1   86.89    5.20
  -6   1  -1   78.49    8.00
  -6   1  -1   83.19    8.60
   6  -1   1   85.89    5.40
   6  -1   1   76.89    8.10
   6  -1   1   86.19    8.80
   6  -1   1   75.89    8.70
  -7   1  -1   97.19   10.20
  -7   1  -1  117.79   11.40
  -7   1  -1   87.89    9.40
   7  -1   1   95.89   10.00
   7  -1   1  118.59   11.20
   7  -1   1  119.19   11.80
  -8   1  -1   54.49    8.40
  -8   1  -1   47.40    8.50
  -8   1  -1   48.50    8.30
   8  -1   1   83.89   11.40
   8  -1   1   45.10    8.10
   8  -1   1   44.30    7.80
  -9   1  -1    5.10    5.60
  -9   1  -1   10.70    5.90
   9  -1   1    0.10    7.00
   9  -1   1    9.50    6.00
   9  -1   1    1.80    4.70
   9   0  -1   10.20    7.00
   9   0  -1    3.20    5.60
  -9   0   1   -0.30    5.10
  -9   0   1    2.80    5.70
  -9   0   1    5.80    6.40
   8   0  -1   -1.80    4.20
   8   0  -1    5.30    4.40
   8   0  -1    1.40    5.30
  -8   0   1    5.90    4.80
  -8   0   1   -3.00    3.90
  -8   0   1    6.70    5.10
   7   0  -1    0.50    4.00
   7   0  -1   15.30    5.40
   7   0  -1   16.30    4.90
  -7   0   1    5.90    4.40
  -7   0   1   11.10    4.60
  -7   0   1    7.80    4.50
   6   0  -1   35.70    5.60
   6   0  -1   25.30    4.70
   6   0  -1   42.30    6.70
   6   0  -1   39.90    5.90
   6   0  -1   37.70    3.90
  -6   0   1   27.70    4.50
  -6   0   1   33.00    6.10
  -6   0   1   30.40    5.80
  -6   0   1   35.20    3.90
   5   0  -1   66.59    6.80
   5   0  -1   68.89    4.10
   5   0  -1   62.39    6.90
   5   0  -1   62.39    6.00
   5   0  -1   53.29    6.00
  -5   0   1   57.59    6.80
  -5   0   1   65.89    5.30
  -5   0   1   70.79    4.40
  -5   0   1   68.69    7.40
   4   0  -1  319.27   12.20
   4   0  -1  330.47   13.70
   4   0  -1  327.27   13.10
   4   0  -1  321.87   10.60
   4   0  -1  348.87   13.10
  -4   0   1  355.76   13.80
  -4   0   1  311.57   13.30
  -4   0   1  351.86   11.00
  -4   0   1  336.47   12.40
   3   0  -1  114.99    6.00
   3   0  -1  112.39    5.70
   3   0  -1  108.69    5.30
   3   0  -1  114.79    4.50
   3   0  -1  119.39    6.30
  -3   0   1  111.69    4.70
  -3   0   1  115.09    5.60
  -3   0   1  115.69    4.60
  -3   0   1  114.19    6.20
  -3   0   1  110.59    6.20
   2   0  -1  265.27    8.40
   2   0  -1  276.57    7.90
   2   0  -1  273.97    9.50
   2   0  -1  266.27    9.20
   2   0  -1  273.37    8.90
   2   0  -1  280.47    9.10
  -2   0   1  274.37    9.20
  -2   0   1  275.37    8.00
  -2   0   1  267.87    8.00
  -2   0   1  279.67    8.50
  -2   0   1  288.87    8.60
  -2   0   1  269.07    9.50
  -2   0   1  261.77    9.60
   1   0  -1    1.20    0.40
   1   0  -1    1.10    0.50
   1   0  -1    0.70    0.60
   1   0  -1    1.30    0.50
   1   0  -1    0.80    0.40
   1   0  -1    2.50    0.70
   1   0  -1    1.30    0.70
   1   0  -1    0.60    0.30
  -1   0   1    1.20    0.30
  -1   0   1    1.60    0.50
  -1   0   1    1.00    0.50
  -1   0   1    0.80    0.60
  -1   0   1    1.40    0.60
  -1   0   1    1.00    0.40
  -1   0   1    1.50    0.40
  -1   0   1    0.90    0.60
   0   0  -1    4.50    0.60
   0   0  -1    4.70    0.40
   0   0  -1    2.70    0.50
   0   0  -1    4.80    0.70
   0   0  -1    4.70    0.60
   0   0  -1    3.50    0.40
   0   0  -1    2.00    0.40
   0   0  -1    2.90    0.60
   0   0   1    4.20    0.60
   0   0   1    4.00    0.40
   0   0   1    3.90    0.60
   0   0   1    4.90    0.80
   0   0   1    4.40    0.60
   0   0   1    3.40    0.50
  -1   0  -1  929.61   24.30
  -1   0  -1  932.91   23.80
  -1   0  -1  895.41   24.10
  -1   0  -1  911.71   23.10
  -1   0  -1  907.81   23.90
  -1   0  -1  883.51   23.90
  -1   0  -1  930.41   24.10
  -1   0  -1  881.01   22.80
   1   0   1  930.71   24.30
   1   0   1  916.31   24.00
   1   0   1  900.81   23.10
   1   0   1  903.81   22.80
   1   0   1  928.41   24.20
   1   0   1  900.21   23.90
   1   0   1  939.11   24.10
   1   0   1  872.41   23.70
  -2   0  -1  106.89    5.00
  -2   0  -1   95.19    3.50
  -2   0  -1  102.89    4.00
  -2   0  -1  106.49    4.50
  -2   0  -1   94.89    4.50
  -2   0  -1   95.79    4.90
   2   0   1   94.89    3.40
   2   0   1   98.89    4.90
   2   0   1   87.59    4.40
   2   0   1   91.99    4.30
   2   0   1   99.39    5.20
   2   0   1   99.99    5.00
  -3   0  -1   78.09    3.60
  -3   0  -1   81.99    5.30
  -3   0  -1   76.69    4.70
  -3   0  -1   75.29    5.00
  -3   0  -1   83.09    3.80
   3   0   1   90.19    5.40
   3   0   1   80.19    5.50
   3   0   1   78.59    3.40
   3   0   1   83.09    4.60
   3   0   1   81.19    5.20
  -4   0  -1    4.00    2.00
  -4   0  -1    5.10    2.10
  -4   0  -1    2.90    1.30
   4   0   1    2.80    1.90
   4   0   1    4.00    2.60
   4   0   1    5.00    2.20
   4   0   1    3.10    2.10
  -5   0  -1   -1.70    1.30
  -5   0  -1    0.20    2.00
  -5   0  -1    1.60    2.30
  -5   0  -1    0.50    2.50
   5   0   1    0.00    2.30
   5   0   1    2.00    2.00
   5   0   1   -0.80    2.00
   5   0   1    2.20    2.10
  -6   0  -1   58.69    7.20
  -6   0  -1   55.29    7.40
  -6   0  -1   46.20    6.80
   6   0   1   51.49    5.70
   6   0   1   64.89    8.40
   6   0   1   40.10    6.50
   6   0   1   52.69    7.20
  -7   0  -1   73.19    8.50
  -7   0  -1  101.69   10.80
  -7   0  -1   76.39    9.40
   7   0   1   82.69    9.60
   7   0   1  100.89   11.40
   7   0   1   85.49    9.70
  -8   0  -1    0.90    4.50
  -8   0  -1    9.80    5.00
  -8   0  -1   14.70    6.10
   8   0   1    7.60    6.20
   8   0   1    7.20    5.40
   8   0   1    2.20    6.20
   9  -1  -1    0.70    5.10
   9  -1  -1    4.30    4.70
  -9   1   1    5.60    5.90
  -9   1   1    0.30    5.40
  -9   1   1   -5.10    4.60
   8  -1  -1    2.10    3.80
   8  -1  -1    1.60    4.60
   8  -1  -1    3.30    4.70
  -8   1   1    0.70    3.70
  -8   1   1    1.40    4.30
  -8   1   1    6.20    4.50
   7  -1  -1  316.27   15.10
   7  -1  -1  317.47   15.90
   7  -1  -1  333.77   17.50
  -7   1   1  320.97   16.50
  -7   1   1  305.37   16.30
   6  -1  -1   59.59    6.60
   6  -1  -1   53.89    3.10
   6  -1  -1   51.29    7.00
   6  -1  -1   53.99    6.30
  -6   1   1   48.40    3.20
  -6   1   1   42.10    6.40
  -6   1   1   38.50    6.20
  -6   1   1   41.20    5.10
   5  -1  -1   13.80    3.10
   5  -1  -1   14.80    3.30
   5  -1  -1   16.80    3.60
   5  -1  -1   17.50    3.70
   5  -1  -1   17.60    1.80
  -5   1   1   12.60    2.60
  -5   1   1   18.10    4.00
  -5   1   1   15.20    3.80
  -5   1   1   10.60    1.80
  -5   1   1   17.50    1.80
   4  -1  -1   24.00    3.60
   4  -1  -1   25.00    1.40
   4  -1  -1   23.80    3.30
   4  -1  -1   26.50    3.40
   4  -1  -1   27.90    3.80
  -4   1   1   24.70    1.50
  -4   1   1   30.80    3.60
  -4   1   1   25.30    1.70
  -4   1   1   28.70    4.00
  -4   1   1   34.30    4.60
   3  -1  -1   46.40    3.60
   3  -1  -1   42.70    3.00
   3  -1  -1   47.20    3.60
   3  -1  -1   41.50    3.20
  -3   1   1   47.60    3.90
  -3   1   1   50.89    4.60
  -3   1   1   44.80    3.40
   2  -1  -1  312.27    9.10
   2  -1  -1  299.27    9.50
   2  -1  -1  305.37   10.00
   2  -1  -1  300.27    9.70
  -2   1   1  300.37    9.00
  -2   1   1  304.77   10.30
  -2   1   1  304.77    9.90
  -2   1   1  301.07    9.90
   1  -1  -1  101.19    4.30
   1  -1  -1   95.99    4.00
   1  -1  -1  105.49    3.90
   1  -1  -1  104.19    3.80
   1  -1  -1  108.39    3.50
   1  -1  -1  103.19    3.60
  -1   1   1  104.29    3.80
  -1   1   1  105.19    3.60
  -1   1   1  103.79    4.10
  -1   1   1  109.39    3.70
  -1   1   1  102.59    4.30
  -1   1   1  100.39    3.50
  -1   1   1  102.49    3.90
   0  -1  -1   92.69    3.80
   0  -1  -1   96.09    3.60
   0  -1  -1   90.09    4.00
   0  -1  -1   96.09    2.80
   0  -1  -1   97.09    3.70
   0  -1  -1  100.89    3.60
   0  -1  -1  100.99    2.80
   0  -1  -1   91.19    3.20
   0  -1  -1   95.59    4.10
   0   1   1   94.09    3.20
   0   1   1  101.39    3.70
   0   1   1   85.49    3.50
   0   1   1   99.49    4.10
   0   1   1   97.29    3.90
   0   1   1   96.09    2.80
   0   1   1  100.49    4.10
  -1  -1  -1   37.30    2.50
  -1  -1  -1   35.50    2.20
  -1  -1  -1   33.00    2.10
  -1  -1  -1   32.90    1.80
  -1  -1  -1   30.00    2.30
  -1  -1  -1   36.50    2.50
   1   1   1   30.70    2.60
   1   1   1   33.90    2.60
   1   1   1   32.80    2.20
   1   1   1   36.70    2.70
   1   1   1   34.10    1.90
   1   1   1   37.80    2.50
   1   1   1   32.90    2.60
  -2  -1  -1  327.77   11.50
  -2  -1  -1  357.16   12.20
  -2  -1  -1  333.87   11.10
   2   1   1  345.07   12.30
   2   1   1  341.77   11.40
   2   1   1  368.46   12.50
   2   1   1  342.97   11.00
   2   1   1  331.07   12.30
   2   1   1  356.66   12.10
   2   1   1  344.27   10.60
  -3  -1  -1  112.89    6.80
  -3  -1  -1  125.69    6.30
  -3  -1  -1  114.59    6.50
   3   1   1  119.99    7.00
   3   1   1  101.39    6.10
   3   1   1  119.79    7.00
   3   1   1  115.69    7.10
   3   1   1  117.99    5.50
  -4  -1  -1   31.90    4.70
  -4  -1  -1   29.40    4.60
  -4  -1  -1   33.80    4.00
  -4  -1  -1   35.10    4.50
   4   1   1   29.10    3.20
   4   1   1   28.10    4.50
   4   1   1   38.30    4.80
   4   1   1   28.90    4.80
   4   1   1   36.70    5.00
  -5  -1  -1  181.48    9.00
  -5  -1  -1  182.18   10.10
  -5  -1  -1  202.18   11.60
  -5  -1  -1  180.68   10.70
   5   1   1  168.28   10.50
   5   1   1  152.58   10.80
   5   1   1  183.88    9.60
   5   1   1  183.38   11.10
   5   1   1  177.28    8.10
  -6  -1  -1   16.30    4.80
  -6  -1  -1   19.50    5.70
  -6  -1  -1   14.30    5.00
   6   1   1   23.40    5.80
   6   1   1   13.80    4.70
   6   1   1   14.50    4.40
   6   1   1   22.90    4.90
  -7  -1  -1    0.50    3.70
  -7  -1  -1    6.70    5.00
  -7  -1  -1    3.60    4.10
   7   1   1    5.60    5.70
   7   1   1    4.60    4.30
   7   1   1   11.00    5.40
  -8  -1  -1   29.50    7.60
  -8  -1  -1   28.70    7.70
  -8  -1  -1   39.40    7.10
   8   1   1   40.50    8.50
   8   1   1   23.40    7.40
   8   1   1   41.00    9.10
   9  -2  -1   40.20    8.80
   9  -2  -1   23.80    6.70
  -9   2   1   43.60    8.60
  -9   2   1   24.70    7.30
  -9   2   1   33.70    7.50
   8  -2  -1   49.30    8.70
   8  -2  -1   21.10    5.80
   8  -2  -1   34.00    6.90
  -8   2   1   44.70    7.60
  -8   2   1   24.10    6.10
  -8   2   1   45.90    8.20
   7  -2  -1   20.90    4.70
   7  -2  -1   18.60    4.50
   7  -2  -1   13.10    4.40
  -7   2   1   21.10    5.00
  -7   2   1   10.00    4.40
  -7   2   1    8.10    3.00
   6  -2  -1  105.79    7.60
   6  -2  -1  107.99    8.20
   6  -2  -1   83.09    7.70
  -6   2   1   92.99    6.30
  -6   2   1   95.19    9.20
  -6   2   1   93.69    7.70
   5  -2  -1   43.90    5.40
   5  -2  -1   45.40    5.10
   5  -2  -1   41.10    4.90
  -5   2   1   42.50    5.30
  -5   2   1   31.60    4.00
  -5   2   1   41.00    5.70
   4  -2  -1  279.47   11.30
   4  -2  -1  269.27   10.70
   4  -2  -1  284.67   10.50
  -4   2   1  264.57   10.40
  -4   2   1  271.87   11.10
  -4   2   1  268.17   11.70
   3  -2  -1  569.34   17.20
   3  -2  -1  536.15   14.50
   3  -2  -1  583.04   16.80
   3  -2  -1  565.04   17.30
   3  -2  -1  568.44   14.50
  -3   2   1  553.74   17.20
  -3   2   1  554.34   18.10
  -3   2   1  569.84   17.40
   2  -2  -1   22.90    1.90
   2  -2  -1   32.40    3.00
   2  -2  -1   22.30    1.80
   2  -2  -1   26.10    2.70
   2  -2  -1   18.90    2.10
  -2   2   1   14.10    1.80
  -2   2   1   31.70    3.30
  -2   2   1   28.30    3.20
  -2   2   1   22.90    1.70
  -2   2   1   27.30    2.20
   1  -2  -1  423.26   11.10
   1  -2  -1  443.26   12.70
   1  -2  -1  430.26   11.90
   1  -2  -1  407.36   13.20
   1  -2  -1  443.56   12.80
  -1   2   1  418.56   11.00
  -1   2   1  420.96   12.00
  -1   2   1  421.46   12.90
  -1   2   1  439.26   12.90
  -1   2   1  413.26   13.50
   0  -2  -1    1.60    0.80
   0  -2  -1    2.90    1.40
   0  -2  -1    2.50    0.60
   0  -2  -1    2.00    0.50
   0  -2  -1    3.60    1.00
   0  -2  -1    1.30    1.00
   0   2   1    2.20    0.50
   0   2   1    1.80    1.20
   0   2   1    3.90    1.40
   0   2   1    2.60    0.90
   0   2   1    1.50    0.80
   0   2   1    0.80    1.30
  -1  -2  -1  254.07    8.80
  -1  -2  -1  297.57   10.10
  -1  -2  -1  275.17    9.70
  -1  -2  -1  262.27    9.50
  -1  -2  -1  274.67    8.80
   1   2   1  282.87   10.50
   1   2   1  280.57    9.10
   1   2   1  287.77    8.90
   1   2   1  289.27   10.70
   1   2   1  271.77   10.50
   1   2   1  280.37   10.30
  -2  -2  -1  896.71   26.80
  -2  -2  -1  912.31   27.30
  -2  -2  -1  941.61   26.80
   2   2   1  943.51   28.00
   2   2   1  950.10   28.10
   2   2   1  962.00   26.60
   2   2   1  949.80   28.30
   2   2   1  962.90   26.10
   2   2   1  918.41   27.10
   2   2   1  970.80   28.30
  -3  -2  -1  127.89    7.10
  -3  -2  -1  113.19    7.30
  -3  -2  -1  121.89    7.10
  -3  -2  -1  115.99    6.80
   3   2   1  134.79    6.90
   3   2   1  123.09    6.90
   3   2   1  121.59    6.30
   3   2   1  118.09    7.40
   3   2   1  133.69    8.10
   3   2   1  122.89    7.70
   3   2   1  127.29    7.90
  -4  -2  -1   19.80    3.80
  -4  -2  -1   15.20    3.40
  -4  -2  -1   18.70    3.90
  -4  -2  -1   17.00    3.50
  -4  -2  -1   13.10    3.70
   4   2   1   13.10    3.80
   4   2   1   15.10    4.30
   4   2   1   11.80    2.90
   4   2   1   16.10    3.10
   4   2   1   14.70    4.00
   4   2   1   13.50    3.70
  -5  -2  -1   14.50    4.00
  -5  -2  -1   21.20    4.90
  -5  -2  -1   29.70    5.00
  -5  -2  -1   25.30    4.70
  -5  -2  -1   13.10    4.20
   5   2   1   27.40    5.60
   5   2   1   24.50    5.20
   5   2   1   29.30    5.70
   5   2   1   16.90    4.90
   5   2   1   21.60    3.90
  -6  -2  -1    2.10    3.30
  -6  -2  -1   -0.10    2.90
  -6  -2  -1    5.00    3.90
  -6  -2  -1    0.20    3.40
   6   2   1   -2.20    3.70
   6   2   1   -1.50    3.00
   6   2   1    2.70    3.80
   6   2   1    2.70    4.90
  -7  -2  -1   27.20    6.10
  -7  -2  -1   16.40    6.00
  -7  -2  -1   19.70    7.10
   7   2   1   23.10    7.70
   7   2   1   16.40    6.30
   7   2   1   24.60    8.50
  10  -3  -1   28.70    7.50
  10  -3  -1   22.40    8.10
 -10   3   1   13.50    7.50
 -10   3   1   14.70    6.80
 -10   3   1   25.10    7.80
   9  -3  -1   18.90    6.00
   9  -3  -1   24.10    7.00
   9  -3  -1   19.10    6.90
  -9   3   1   23.20    7.00
  -9   3   1   32.40    6.80
  -9   3   1   25.60    6.80
   8  -3  -1   32.10    6.70
   8  -3  -1   24.20    5.60
   8  -3  -1   32.00    5.80
  -8   3   1   28.90    6.90
  -8   3   1   31.60    6.00
   7  -3  -1    1.20    2.40
   7  -3  -1   -2.00    1.60
   7  -3  -1   -0.30    2.90
  -7   3   1   -4.50    2.50
  -7   3   1   -0.10    2.00
  -7   3   1    2.40    3.50
   6  -3  -1   74.89    7.70
   6  -3  -1   63.39    6.70
   6  -3  -1   51.69    6.20
  -6   3   1   65.09    7.40
  -6   3   1   60.19    5.20
  -6   3   1   75.09    7.70
   5  -3  -1   -0.40    1.30
   5  -3  -1   -1.00    1.80
   5  -3  -1   -0.70    1.30
  -5   3   1   -0.90    1.90
  -5   3   1   -1.60    1.60
  -5   3   1    0.20    1.60
   4  -3  -1  237.38    7.40
   4  -3  -1  241.88    9.90
   4  -3  -1  236.28    7.40
   4  -3  -1  241.88    9.90
   4  -3  -1  227.78    9.80
  -4   3   1  241.68   11.00
  -4   3   1  249.28   10.20
  -4   3   1  227.18    9.80
   3  -3  -1  204.68    8.50
   3  -3  -1  212.18    8.50
   3  -3  -1  204.68    8.10
   3  -3  -1  223.48    7.50
   3  -3  -1  195.08    8.20
  -3   3   1  204.18    9.30
  -3   3   1  214.58    7.30
  -3   3   1  211.68    8.10
  -3   3   1  211.78    9.10
   2  -3  -1  836.42   22.60
   2  -3  -1  864.21   24.20
   2  -3  -1  821.52   22.30
   2  -3  -1  852.41   24.00
  -2   3   1  858.21   24.70
  -2   3   1  819.42   22.60
  -2   3   1  863.01   23.80
  -2   3   1  824.12   22.30
  -2   3   1  839.32   25.10
   1  -3  -1   17.30    1.10
   1  -3  -1   25.30    3.20
   1  -3  -1   24.00    2.10
   1  -3  -1   21.80    2.70
  -1   3   1   19.90    2.00
  -1   3   1   28.60    3.20
  -1   3   1   22.60    3.30
  -1   3   1   17.50    1.10
  -1   3   1   25.30    3.20
   0  -3  -1    4.60    1.50
   0  -3  -1    8.50    1.10
   0  -3  -1    8.70    1.60
   0   3   1    2.70    1.60
   0   3   1    6.40    1.00
   0   3   1    4.10    1.50
   0   3   1    5.80    1.90
   0   3   1    6.20    2.20
  -1  -3  -1   29.70    3.40
  -1  -3  -1   30.20    3.10
  -1  -3  -1   36.00    4.20
  -1  -3  -1   28.30    3.40
   1   3   1   29.50    3.30
   1   3   1   36.20    4.60
   1   3   1   30.40    2.90
   1   3   1   31.90    4.20
   1   3   1   26.10    3.90
  -2  -3  -1   71.29    4.80
  -2  -3  -1   65.99    5.30
  -2  -3  -1   65.59    5.00
  -2  -3  -1   73.39    5.20
   2   3   1   76.39    7.20
   2   3   1   69.19    4.70
   2   3   1   69.79    5.50
   2   3   1   59.79    6.30
   2   3   1   62.99    4.60
   2   3   1   66.29    6.50
  -3  -3  -1   67.09    5.60
  -3  -3  -1   75.79    6.90
  -3  -3  -1   82.49    7.60
  -3  -3  -1   61.09    6.50
  -3  -3  -1   68.49    5.60
   3   3   1   74.09    7.70
   3   3   1   67.59    7.20
   3   3   1   61.09    5.00
   3   3   1   75.59    7.70
   3   3   1   76.29    6.70
   3   3   1   66.59    5.60
   3   3   1   73.59    7.40
  -4  -3  -1   11.30    4.00
  -4  -3  -1   12.10    4.20
  -4  -3  -1    5.00    3.70
  -4  -3  -1    5.40    3.10
  -4  -3  -1    8.50    3.10
  -4  -3  -1    5.50    3.10
   4   3   1   15.80    3.80
   4   3   1   12.30    3.10
   4   3   1    9.40    4.20
   4   3   1   10.00    3.80
   4   3   1    8.80    3.70
   4   3   1   17.10    4.40
  -5  -3  -1   13.30    5.00
  -5  -3  -1    3.30    4.00
  -5  -3  -1    2.00    2.80
  -5  -3  -1    4.00    3.60
  -5  -3  -1   15.60    4.90
  -5  -3  -1   11.90    4.30
   5   3   1   10.70    4.60
   5   3   1    4.70    3.80
   5   3   1    5.70    3.30
   5   3   1    6.70    4.40
   5   3   1    8.80    4.10
  -6  -3  -1   60.49    8.60
  -6  -3  -1   65.69    8.30
  -6  -3  -1   79.99    9.90
  -6  -3  -1   70.99    9.10
  -6  -3  -1   71.79    9.00
   6   3   1   72.29    9.80
   6   3   1   71.29   10.10
   6   3   1   57.39    8.10
   6   3   1   60.39    9.80
  -7  -3  -1   11.20    6.10
  -7  -3  -1   28.70    6.60
  -7  -3  -1   22.90    6.30
  -7  -3  -1   27.50    7.20
   7   3   1   15.10    7.20
   7   3   1   21.00    6.90
  10  -4  -1   11.60    6.00
  10  -4  -1    8.70    5.20
 -10   4   1   12.40    6.20
 -10   4   1   12.20    6.10
 -10   4   1    5.80    6.20
   9  -4  -1   73.89    9.50
   9  -4  -1   73.19   10.20
   9  -4  -1   56.19    8.80
  -9   4   1   73.59   10.20
  -9   4   1   63.59   10.00
   8  -4  -1    5.60    4.00
   8  -4  -1    5.10    3.90
   8  -4  -1    3.60    3.50
  -8   4   1    5.50    3.60
  -8   4   1    3.70    3.90
   7  -4  -1   17.80    5.00
   7  -4  -1   16.30    4.00
   7  -4  -1    5.80    3.30
  -7   4   1    9.80    3.90
  -7   4   1   18.20    5.20
  -7   4   1    8.10    2.70
   6  -4  -1   12.50    3.40
   6  -4  -1    9.10    3.50
   6  -4  -1    4.90    3.10
  -6   4   1   13.90    3.80
  -6   4   1    6.90    2.60
  -6   4   1    9.40    3.80
   5  -4  -1   67.09    3.90
   5  -4  -1   78.39    6.00
   5  -4  -1   70.39    3.80
   5  -4  -1   70.29    5.70
   5  -4  -1   81.49    5.90
  -5   4   1   75.89    7.80
  -5   4   1   74.29    5.60
  -5   4   1   67.09    5.50
   4  -4  -1   57.59    3.90
   4  -4  -1   62.89    5.00
   4  -4  -1   56.99    4.60
   4  -4  -1   61.09    4.50
  -4   4   1   66.79    4.60
  -4   4   1   69.49    6.90
  -4   4   1   68.69    3.90
  -4   4   1   65.29    5.40
   3  -4  -1   82.49    5.00
   3  -4  -1   83.39    4.40
   3  -4  -1   80.59    5.70
   3  -4  -1   75.49    5.10
  -3   4   1   75.79    5.50
  -3   4   1   76.29    5.70
  -3   4   1   73.69    4.70
  -3   4   1   86.79    4.50
   2  -4  -1  472.05   13.90
   2  -4  -1  486.55   14.30
   2  -4  -1  510.95   17.00
   2  -4  -1  491.65   16.30
  -2   4   1  498.45   16.60
  -2   4   1  509.25   14.10
  -2   4   1  507.25   17.90
  -2   4   1  511.85   17.10
  -2   4   1  503.95   14.50
   1  -4  -1   48.90    4.00
   1  -4  -1   59.09    4.80
   1  -4  -1   49.70    3.00
   1  -4  -1   48.70    2.30
  -1   4   1   55.99    2.50
  -1   4   1   63.09    5.90
  -1   4   1   52.49    3.10
  -1   4   1   59.99    4.50
  -1   4   1   60.19    6.30
   0  -4  -1  326.47   12.90
   0  -4  -1  330.27   10.00
   0  -4  -1  336.27   12.30
   0  -4  -1  333.97   11.20
   0   4   1  347.27   14.00
   0   4   1  350.06   14.30
   0   4   1  331.77   12.30
   0   4   1  333.77   10.10
  -1  -4  -1   67.79    5.00
  -1  -4  -1   57.89    4.60
  -1  -4  -1   50.39    3.80
  -1  -4  -1   65.29    6.60
   1   4   1   47.90    4.80
   1   4   1   58.69    3.90
   1   4   1   60.99    6.70
   1   4   1   69.79    7.00
   1   4   1   69.79    7.30
  -2  -4  -1    3.00    2.10
  -2  -4  -1    1.00    2.60
  -2  -4  -1    6.10    2.40
  -2  -4  -1    3.90    2.10
   2   4   1    2.90    2.00
   2   4   1    2.60    2.90
   2   4   1    2.00    2.10
   2   4   1    2.20    3.20
   2   4   1    0.30    2.50
  -3  -4  -1   20.20    4.50
  -3  -4  -1   22.10    4.10
  -3  -4  -1   34.20    5.60
  -3  -4  -1   28.20    5.20
  -3  -4  -1   27.40    4.70
   3   4   1   20.50    4.00
   3   4   1   23.70    5.00
   3   4   1   21.30    3.90
   3   4   1   20.80    5.00
   3   4   1   24.80    4.90
   3   4   1   31.20    5.40
  -4  -4  -1   35.90    6.10
  -4  -4  -1   37.50    5.90
  -4  -4  -1   40.90    5.90
  -4  -4  -1   41.30    7.00
  -4  -4  -1   37.70    6.90
  -4  -4  -1   38.20    5.90
   4   4   1   45.00    5.90
   4   4   1   39.90    7.00
   4   4   1   43.00    7.50
   4   4   1   38.60    5.90
   4   4   1   42.90    6.90
  -5  -4  -1   72.89    9.20
  -5  -4  -1  114.49   11.70
  -5  -4  -1   71.39    8.60
  -5  -4  -1   83.59    9.20
  -5  -4  -1   82.69   10.10
  -5  -4  -1   77.29    8.60
   5   4   1   87.19    8.70
   5   4   1   84.59   10.00
   5   4   1  102.09   11.00
   5   4   1   78.69   11.00
  -6  -4  -1   38.10    7.80
  -6  -4  -1   34.30    7.70
  -6  -4  -1   40.50    7.70
  -6  -4  -1   57.09    8.30
   6   4   1   62.49   10.10
   6   4   1   35.90    8.00
   6   4   1   37.50    8.00
  10  -5  -1    6.70    5.50
  10  -5  -1    1.60    3.90
 -10   5   1   -2.10    4.80
 -10   5   1    1.00    4.20
 -10   5   1   -0.40    5.30
   9  -5  -1   76.39   10.70
   9  -5  -1   52.89    8.70
   9  -5  -1   51.99    8.00
  -9   5   1   66.79   10.20
  -9   5   1   52.69    8.60
   8  -5  -1   51.69    7.50
   8  -5  -1   79.39    9.60
   8  -5  -1   58.09    7.80
  -8   5   1   61.89    9.20
  -8   5   1   71.29    8.90
   7  -5  -1    5.70    3.30
   7  -5  -1    0.70    2.50
   7  -5  -1    4.80    3.50
  -7   5   1    7.20    3.70
  -7   5   1    3.50    3.10
  -7   5   1   15.00    4.90
   6  -5  -1   20.60    3.90
   6  -5  -1   20.80    4.10
   6  -5  -1   19.40    4.50
   6  -5  -1   18.10    2.80
  -6   5   1   22.60    5.00
  -6   5   1   22.80    4.30
  -6   5   1   26.10    4.50
   5  -5  -1    7.40    2.60
   5  -5  -1    6.70    2.10
   5  -5  -1    8.40    2.50
   5  -5  -1    6.00    3.10
  -5   5   1    9.40    3.00
  -5   5   1    5.20    2.50
  -5   5   1    7.50    3.10
   4  -5  -1   22.10    3.00
   4  -5  -1   28.90    4.00
   4  -5  -1   25.30    3.70
   4  -5  -1   27.30    4.50
  -4   5   1   23.30    3.30
  -4   5   1   35.70    5.30
  -4   5   1   32.60    5.00
  -4   5   1   35.90    4.00
   3  -5  -1  316.77   13.40
   3  -5  -1  334.77   13.10
   3  -5  -1  324.47   10.70
   3  -5  -1  311.27   12.70
  -3   5   1  330.67   11.00
  -3   5   1  338.37   14.50
  -3   5   1  322.27   13.80
  -3   5   1  324.37   12.70
   2  -5  -1    2.10    2.10
   2  -5  -1    1.80    1.80
   2  -5  -1    2.60    2.30
   2  -5  -1    2.70    1.00
   2  -5  -1    3.00    1.20
  -2   5   1    4.80    2.50
  -2   5   1   -0.70    1.70
  -2   5   1    4.70    1.50
  -2   5   1    2.40    2.40
  -2   5   1    1.20    1.00
   1  -5  -1  282.47   12.20
   1  -5  -1  275.17   11.30
   1  -5  -1  270.87    9.20
   1  -5  -1  269.87    8.20
  -1   5   1  275.87   12.60
  -1   5   1  272.57    8.20
  -1   5   1  271.07   11.70
  -1   5   1  253.67   12.90
   0  -5  -1   60.59    5.10
   0  -5  -1   70.79    7.00
   0  -5  -1   58.09    4.30
   0  -5  -1   60.89    3.60
   0   5   1   58.29    3.50
   0   5   1   71.79    7.90
   0   5   1   81.59    8.00
   0   5   1   62.19    6.10
  -1  -5  -1   22.40    3.80
  -1  -5  -1   14.20    3.90
  -1  -5  -1   21.40    3.40
  -1  -5  -1   14.70    2.70
   1   5   1   19.40    4.30
   1   5   1   20.00    4.00
   1   5   1   15.90    4.20
   1   5   1   17.60    4.40
   1   5   1   23.60    3.10
  -2  -5  -1    0.70    2.30
  -2  -5  -1    2.30    2.60
  -2  -5  -1   -1.80    2.00
  -2  -5  -1   -1.00    3.00
  -2  -5  -1    3.50    3.80
   2   5   1   -1.80    2.10
   2   5   1    1.70    3.70
   2   5   1   -2.30    2.60
   2   5   1    0.20    3.00
   2   5   1    1.20    2.60
  -3  -5  -1    4.30    4.40
  -3  -5  -1    1.60    3.50
  -3  -5  -1    7.20    3.50
  -3  -5  -1    1.00    3.50
  -3  -5  -1    3.90    4.40
   3   5   1    2.60    3.40
   3   5   1    2.00    2.90
   3   5   1    3.50    4.90
   3   5   1    1.30    3.90
  -4  -5  -1    5.50    4.80
  -4  -5  -1   -3.10    3.70
  -4  -5  -1    2.50    3.80
  -4  -5  -1   12.40    6.00
  -4  -5  -1    8.40    3.90
   4   5   1    5.10    5.00
   4   5   1   12.00    5.50
   4   5   1    6.30    4.90
  -5  -5  -1    8.00    4.50
  -5  -5  -1    7.50    5.80
  -5  -5  -1    8.20    5.80
  -5  -5  -1    2.20    5.00
   5   5   1    6.20    5.70
   5   5   1    7.30    6.00
  10  -6  -1    6.10    4.90
  10  -6  -1   -0.10    5.00
 -10   6   1   19.90    6.90
 -10   6   1    2.90    5.60
 -10   6   1    6.10    6.40
   9  -6  -1   14.60    5.30
   9  -6  -1   21.10    5.90
   9  -6  -1   19.40    5.30
  -9   6   1   20.20    6.90
  -9   6   1   26.10    6.60
   8  -6  -1   10.90    4.00
   8  -6  -1    7.60    4.80
   8  -6  -1    6.10    3.70
  -8   6   1    9.00    4.70
  -8   6   1   10.90    4.90
   7  -6  -1   -0.20    3.90
   7  -6  -1    3.70    2.80
   7  -6  -1    3.90    3.10
  -7   6   1    3.30    3.50
  -7   6   1    2.90    3.00
  -7   6   1    2.40    3.70
   6  -6  -1   19.70    4.30
   6  -6  -1   22.60    3.80
   6  -6  -1   17.30    4.90
   6  -6  -1   14.80    3.30
  -6   6   1    9.60    3.90
  -6   6   1    8.70    3.90
  -6   6   1   31.70    4.90
   5  -6  -1   80.69    7.40
   5  -6  -1   61.69    4.90
   5  -6  -1   60.49    7.20
   5  -6  -1   80.49    7.10
  -5   6   1   71.49    5.90
  -5   6   1   77.29    8.10
  -5   6   1   83.79    8.90
   4  -6  -1   92.29    8.60
   4  -6  -1   80.49    7.50
   4  -6  -1   74.49    6.20
   4  -6  -1   72.69    4.60
  -4   6   1   68.89    5.10
  -4   6   1   70.69    6.00
  -4   6   1   86.49    8.60
  -4   6   1   75.89    8.20
   3  -6  -1    9.60    3.00
   3  -6  -1   13.20    3.70
   3  -6  -1    7.50    3.30
   3  -6  -1    4.30    1.30
  -3   6   1    6.70    1.90
  -3   6   1    2.60    2.80
  -3   6   1    8.50    3.60
  -3   6   1    6.90    3.10
   2  -6  -1    0.20    1.90
   2  -6  -1    1.50    2.80
   2  -6  -1    4.40    1.30
   2  -6  -1    5.80    3.10
  -2   6   1    4.70    3.00
  -2   6   1    7.90    1.50
  -2   6   1    3.10    2.70
  -2   6   1    8.40    3.30
   1  -6  -1   19.70    3.70
   1  -6  -1   13.90    2.30
   1  -6  -1   17.30    4.30
   1  -6  -1   11.10    4.00
  -1   6   1    9.90    3.60
  -1   6   1   10.70    3.80
  -1   6   1   14.30    3.70
   0  -6  -1   79.99    5.50
   0  -6  -1  107.29   10.00
   0  -6  -1   82.09    6.60
   0  -6  -1   68.79    8.50
   0   6   1  101.19   10.30
   0   6   1   92.49    9.60
   0   6   1   84.59    7.00
  -1  -6  -1  137.09   10.70
  -1  -6  -1  144.49    9.10
  -1  -6  -1  164.78   11.90
   1   6   1  160.48   10.00
   1   6   1  164.18   11.60
   1   6   1  147.39   11.20
  -2  -6  -1    1.80    4.00
  -2  -6  -1    0.50    2.80
  -2  -6  -1    4.20    4.30
   2   6   1   -0.80    2.90
   2   6   1   -2.00    4.10
   2   6   1    2.10    3.90
  -3  -6  -1   13.60    5.50
  -3  -6  -1    1.70    4.70
  -3  -6  -1   -0.60    3.10
   3   6   1    5.60    5.20
   3   6   1    6.10    5.40
   3   6   1   14.60    6.00
  -4  -6  -1    0.70    5.40
  -4  -6  -1   -4.20    4.30
  -4  -6  -1   -2.20    5.20
  -4  -6  -1   -4.60    3.20
   4   6   1   -4.00    5.00
   4   6   1    4.40    5.60
   4   6   1    1.90    6.10
  10  -7  -1   10.00    7.50
  10  -7  -1    1.90    4.90
  10  -7  -1   14.60    6.30
 -10   7   1    3.70    5.90
 -10   7   1   -1.00    5.80
 -10   7   1    4.80    6.00
   9  -7  -1    4.70    5.10
   9  -7  -1    7.10    6.00
   9  -7  -1    7.80    4.50
  -9   7   1   -0.70    4.70
  -9   7   1    0.70    4.60
   8  -7  -1   17.00    5.10
   8  -7  -1   16.00    4.80
   8  -7  -1   14.40    5.10
  -8   7   1   12.10    5.50
  -8   7   1   17.20    5.10
   7  -7  -1    4.30    3.20
   7  -7  -1    7.40    3.40
   7  -7  -1   15.20    4.90
  -7   7   1   14.60    4.30
  -7   7   1   10.90    4.90
  -7   7   1   16.60    4.90
   6  -7  -1   11.10    3.80
   6  -7  -1   11.50    3.20
   6  -7  -1   14.10    4.00
   6  -7  -1   15.10    5.30
  -6   7   1   11.00    4.50
  -6   7   1    4.00    3.60
  -6   7   1    8.40    3.30
   5  -7  -1   93.19    8.60
   5  -7  -1   84.09    7.20
   5  -7  -1   86.49    9.20
  -5   7   1   73.29    9.00
  -5   7   1   81.89    6.70
  -5   7   1   95.99    9.80
  -5   7   1   96.09    6.90
   4  -7  -1   44.60    7.50
   4  -7  -1   49.70    6.20
   4  -7  -1   50.89    6.90
  -4   7   1   47.70    7.20
  -4   7   1   44.30    6.90
  -4   7   1   64.29    7.30
  -4   7   1   47.00    4.80
   3  -7  -1    8.30    3.30
   3  -7  -1    6.90    3.90
   3  -7  -1    7.30    4.50
  -3   7   1    9.30    4.10
  -3   7   1   13.70    4.50
  -3   7   1    5.50    3.70
   2  -7  -1    6.00    3.90
   2  -7  -1    4.10    3.70
   2  -7  -1    6.20    3.30
  -2   7   1    7.50    3.70
  -2   7   1    7.30    3.70
  -2   7   1    5.60    3.60
   1  -7  -1   18.00    4.20
   1  -7  -1   16.40    5.40
   1  -7  -1   23.10    6.00
  -1   7   1   24.80    5.90
  -1   7   1   16.80    4.80
  -1   7   1   11.10    4.80
   0  -7  -1  117.49   11.00
   0  -7  -1  119.09    8.60
   0  -7  -1   98.79   11.10
   0   7   1   98.89    9.50
   0   7   1  100.19   10.70
   0   7   1  111.99   11.70
  -1  -7  -1   48.00    9.40
  -1  -7  -1   32.50    7.60
  -1  -7  -1   42.30    6.20
   1   7   1   47.70    7.00
   1   7   1   60.49    9.60
   1   7   1   34.90    7.40
  -2  -7  -1   -0.50    4.20
  -2  -7  -1   -5.20    4.10
  -2  -7  -1   -2.20    5.00
   2   7   1    2.60    5.00
   2   7   1    2.60    4.70
  -3  -7  -1   -3.10    3.50
  -3  -7  -1    2.80    5.90
  -3  -7  -1    6.70    6.90
   3   7   1   -3.20    5.10
   3   7   1   -5.50    5.10
   9  -8  -1   -3.90    3.40
   9  -8  -1   -3.40    4.80
  -9   8   1    4.00    6.10
  -9   8   1   -1.70    5.50
   8  -8  -1   -1.10    4.00
   8  -8  -1   13.60    4.60
  -8   8   1   10.60    4.90
  -8   8   1    8.60    4.30
  -8   8   1   13.20    5.70
   7  -8  -1   -3.90    2.80
   7  -8  -1   -2.60    3.60
  -7   8   1    0.60    4.30
  -7   8   1    0.30    3.50
  -7   8   1    1.40    4.00
   6  -8  -1    7.60    3.50
   6  -8  -1   11.20    4.70
   6  -8  -1    9.50    5.00
  -6   8   1    4.70    4.40
  -6   8   1    3.60    4.00
   5  -8  -1   46.60    7.60
   5  -8  -1   36.10    6.80
   5  -8  -1   47.40    6.60
  -5   8   1   47.80    6.60
  -5   8   1   53.69    8.30
  -5   8   1   53.69    8.20
   4  -8  -1   56.49    7.80
   4  -8  -1   73.69    9.10
   4  -8  -1   70.29    7.90
  -4   8   1   66.99    9.50
  -4   8   1   61.69    8.60
  -4   8   1   77.19    8.40
   3  -8  -1   10.30    4.30
   3  -8  -1    2.20    2.90
   3  -8  -1   12.40    5.70
  -3   8   1    9.50    4.90
  -3   8   1    6.40    4.00
  -3   8   1    5.50    4.00
   2  -8  -1    1.70    3.40
   2  -8  -1    0.70    2.90
   2  -8  -1    1.50    3.90
  -2   8   1    3.00    3.60
  -2   8   1   -1.30    3.80
  -2   8   1   -5.90    3.40
   1  -8  -1   25.70    5.60
   1  -8  -1   16.40    5.90
   1  -8  -1   19.90    6.40
  -1   8   1   23.40    6.30
  -1   8   1   29.50    6.30
  -1   8   1   39.90    8.00
   0  -8  -1    6.30    5.10
   0  -8  -1   17.50    6.50
   0  -8  -1    9.60    4.80
   0   8   1   10.70    5.80
   0   8   1   11.10    5.80
   0   8   1   13.10    5.20
  -1  -8  -1    8.70    6.10
  -1  -8  -1    3.80    6.50
  -1  -8  -1   10.50    4.50
   1   8   1    6.70    5.80
   1   8   1    7.50    5.70
   9  -9  -1   27.60    6.40
   9  -9  -1   14.30    6.70
  -9   9   1   26.10    8.30
   8  -9  -1    0.80    3.60
   8  -9  -1    0.30    4.60
  -8   9   1   -4.60    4.40
  -8   9   1    5.80    5.50
   7  -9  -1    0.40    3.10
   7  -9  -1    0.00    4.30
  -7   9   1    0.00    4.40
  -7   9   1    1.60    3.30
   6  -9  -1    2.10    4.00
   6  -9  -1   -0.90    5.20
   6  -9  -1    0.50    3.50
  -6   9   1   -0.80    4.30
  -6   9   1    1.10    4.40
   5  -9  -1   -0.40    4.40
   5  -9  -1   -4.10    3.80
   5  -9  -1    4.20    4.40
  -5   9   1    3.80    4.60
  -5   9   1    9.20    5.30
  -5   9   1    1.80    3.60
   4  -9  -1   55.09    8.60
   4  -9  -1   55.99    8.80
   4  -9  -1   48.10    7.10
  -4   9   1   64.59    8.90
  -4   9   1   56.79    8.20
  -4   9   1   52.59    9.20
   3  -9  -1    2.30    5.10
   3  -9  -1   -2.20    3.00
   3  -9  -1    2.50    4.80
  -3   9   1    6.10    5.60
  -3   9   1    5.20    4.70
  -3   9   1    1.40    4.60
   2  -9  -1    8.10    5.50
   2  -9  -1    8.10    4.30
   2  -9  -1    5.60    5.20
  -2   9   1   16.40    6.20
  -2   9   1   14.50    6.30
  -2   9   1   12.20    5.50
   1  -9  -1   -1.30    5.30
   1  -9  -1    7.00    5.20
   1  -9  -1    0.60    3.70
  -1   9   1    1.20    5.10
  -1   9   1   -3.30    4.60
  -1   9   1    3.20    4.90
   0  -9  -1    4.40    6.60
   0  -9  -1    2.20    7.00
   0  -9  -1   -1.10    5.00
   0   9   1   -0.40    5.30
   0   9   1    4.50    6.20
   7 -10  -1    5.50    5.50
   7 -10  -1   -0.30    3.50
  -7  10   1   -1.80    6.30
  -7  10   1    1.00    5.70
   6 -10  -1   -0.50    3.60
   6 -10  -1    5.30    5.40
   6 -10  -1    1.50    5.30
  -6  10   1    0.50    5.80
  -6  10   1    1.60    5.30
   5 -10  -1   10.00    4.80
   5 -10  -1    9.00    6.40
   5 -10  -1   11.80    6.20
  -5  10   1   19.40    8.40
  -5  10   1    7.90    6.60
   4 -10  -1    5.70    5.90
   4 -10  -1   16.50    6.50
   4 -10  -1   10.90    4.70
  -4  10   1   21.80    7.20
  -4  10   1   18.80    6.60
  -4  10   1    4.10    6.20
   3 -10  -1   -0.40    4.00
   3 -10  -1   14.10    6.60
   3 -10  -1   -6.00    5.30
  -3  10   1    7.90    5.90
  -3  10   1    7.60    6.40
  -3  10   1    1.10    5.50
  -2  10  -2    5.30    6.10
  -2  10  -2    8.80    6.20
   2 -10   2    2.50    6.70
   2 -10   2    6.40    6.40
  -3  10  -2   89.79   12.00
  -3  10  -2   76.19   10.40
   3 -10   2   76.29   11.50
   3 -10   2   65.39   11.10
  -4  10  -2   -3.30    4.60
  -4  10  -2    0.80    5.10
   4 -10   2    0.90    5.70
   4 -10   2    4.40    7.10
  -5  10  -2   43.50    8.80
  -5  10  -2   42.60    8.50
   5 -10   2   63.19   10.50
   5 -10   2   54.09    9.30
  -6  10  -2   46.00    9.50
  -6  10  -2   44.00    8.60
   6 -10   2   53.19    9.70
   6 -10   2   42.90    6.60
   6 -10   2   43.70    8.50
  -7  10  -2    2.90    5.10
  -7  10  -2    1.50    5.00
   7 -10   2    1.40    3.50
   7 -10   2    9.60    5.90
   0   9  -2   10.60    6.10
   0   9  -2    2.00    5.00
   0  -9   2    8.30    6.10
   0  -9   2    7.60    6.40
  -1   9  -2    2.00    4.80
  -1   9  -2   -1.60    4.60
   1  -9   2    6.30    6.10
   1  -9   2    1.10    6.10
  -2   9  -2   27.30    7.20
  -2   9  -2   22.90    7.00
   2  -9   2   38.30    9.20
   2  -9   2   32.60    7.90
  -3   9  -2    9.30    5.40
  -3   9  -2   15.30    5.90
   3  -9   2    1.20    6.10
   3  -9   2   18.90    6.30
   3  -9   2   10.60    3.40
  -4   9  -2    0.30    3.80
  -4   9  -2    3.70    4.30
   4  -9   2    3.10    4.70
   4  -9   2    4.20    3.00
   4  -9   2    6.00    4.60
  -5   9  -2    3.80    4.60
  -5   9  -2    5.40    4.70
   5  -9   2    4.50    3.40
   5  -9   2   -0.60    5.40
   5  -9   2   12.50    5.20
  -6   9  -2   28.20    6.70
  -6   9  -2   23.10    6.40
   6  -9   2   25.50    5.30
   6  -9   2   27.60    7.50
   6  -9   2   18.30    6.20
  -7   9  -2    3.50    5.20
  -7   9  -2    7.20    4.60
  -7   9  -2   18.00    5.90
   7  -9   2   19.70    6.30
   7  -9   2    8.00    4.30
  -8   9  -2    0.90    5.40
  -8   9  -2   -3.30    5.00
   8  -9   2    7.70    5.50
   8  -9   2   -2.70    4.30
   2   8  -2    6.30    5.90
   2   8  -2   14.00    6.20
   2   8  -2    5.10    5.90
  -2  -8   2   10.50    7.10
  -2  -8   2    7.20    6.90
  -2  -8   2    6.70    5.70
   1   8  -2    0.20    4.30
   1   8  -2    3.10    4.70
   1   8  -2   -0.20    4.10
  -1  -8   2   -0.10    4.30
  -1  -8   2    0.90    5.20
   0   8  -2   13.20    5.20
   0   8  -2   23.00    6.20
   0   8  -2    8.10    5.10
   0  -8   2   16.20    6.60
   0  -8   2    3.90    5.40
  -1   8  -2   84.99   10.40
  -1   8  -2   72.69    9.60
  -1   8  -2   75.59   10.00
   1  -8   2   74.29   10.00
   1  -8   2   64.09    6.60
   1  -8   2   80.39   10.60
  -2   8  -2   28.90    6.40
  -2   8  -2   34.80    6.90
   2  -8   2   25.20    4.60
   2  -8   2   19.50    6.10
   2  -8   2   30.30    6.60
  -3   8  -2    3.00    3.50
  -3   8  -2    1.40    3.50
   3  -8   2    4.40    4.20
   3  -8   2    4.70    4.30
   3  -8   2    3.80    2.50
  -4   8  -2    2.50    2.70
  -4   8  -2   -3.80    2.80
  -4   8  -2   -2.40    2.70
   4  -8   2    0.80    4.10
   4  -8   2    2.20    2.20
   4  -8   2    3.50    4.70
  -5   8  -2    2.30    3.70
  -5   8  -2   -0.30    3.70
  -5   8  -2    3.80    3.50
   5  -8   2    2.30    2.40
   5  -8   2    9.70    4.20
   5  -8   2    3.00    4.70
  -6   8  -2   94.59   11.30
  -6   8  -2   73.49    8.20
  -6   8  -2  102.29   10.00
   6  -8   2  106.39   10.70
   6  -8   2   89.59   11.10
   6  -8   2   94.89    8.90
  -7   8  -2   68.99    9.10
  -7   8  -2   54.59    9.10
   7  -8   2   59.69    7.50
   7  -8   2   69.49    9.70
  -8   8  -2    0.10    4.90
  -8   8  -2   -2.90    4.40
   8  -8   2   -2.70    4.30
   8  -8   2    0.90    3.50
  -9   8  -2   18.60    7.10
  -9   8  -2   18.40    7.80
   9  -8   2   27.60    6.80
   9  -8   2   32.80    9.20
   3   7  -2   -1.70    4.50
   3   7  -2   -3.30    4.60
   3   7  -2   -4.00    4.20
  -3  -7   2   -0.20    4.70
  -3  -7   2   -1.00    5.30
  -3  -7   2   -0.70    5.60
   2   7  -2   37.80    7.80
   2   7  -2   42.50    7.30
   2   7  -2   38.50    7.80
  -2  -7   2   26.80    6.40
  -2  -7   2   32.80    8.30
  -2  -7   2   25.60    7.50
   1   7  -2    4.00    3.80
   1   7  -2    3.60    4.00
   1   7  -2    5.40    4.10
  -1  -7   2    1.50    2.40
  -1  -7   2    8.60    5.20
  -1  -7   2   12.90    5.60
   0   7  -2  124.69    9.90
   0   7  -2  130.29   12.10
   0   7  -2  133.59   10.80
   0  -7   2  143.09   12.50
   0  -7   2  149.19   11.80
   0  -7   2  133.09    8.20
  -1   7  -2  151.08   11.20
  -1   7  -2  161.18   10.90
  -1   7  -2  150.98   10.60
  -1   7  -2  161.28    8.50
   1  -7   2  158.98    8.80
   1  -7   2  154.98   10.90
   1  -7   2  169.68   11.90
  -2   7  -2    0.60    2.30
  -2   7  -2    1.20    2.30
  -2   7  -2   -0.90    2.60
   2  -7   2    3.60    4.30
   2  -7   2   -0.20    3.10
   2  -7   2   -0.50    1.80
  -3   7  -2   11.10    3.90
  -3   7  -2    3.40    2.40
  -3   7  -2   10.90    4.30
   3  -7   2    5.90    2.40
   3  -7   2   12.80    4.90
   3  -7   2   10.60    4.20
  -4   7  -2   24.30    4.70
  -4   7  -2   22.80    5.20
  -4   7  -2   30.50    5.50
   4  -7   2   18.10    3.50
   4  -7   2   17.20    4.50
   4  -7   2   24.20    5.60
  -5   7  -2   55.09    6.60
  -5   7  -2   45.50    7.40
  -5   7  -2   69.39    7.70
   5  -7   2   55.89    6.20
   5  -7   2   59.19    7.60
   5  -7   2   42.30    6.80
  -6   7  -2  106.89    8.90
  -6   7  -2  103.29   10.90
  -6   7  -2  110.19    8.50
   6  -7   2  124.89    9.90
   6  -7   2  113.99    8.20
   6  -7   2  100.19    8.60
  -7   7  -2   39.10    6.70
  -7   7  -2   29.40    6.20
  -7   7  -2   30.70    6.90
   7  -7   2   18.60    4.80
   7  -7   2   20.90    5.60
   7  -7   2   28.80    5.40
  -8   7  -2    1.20    4.80
  -8   7  -2    7.90    4.70
  -8   7  -2    4.20    4.20
   8  -7   2   -0.50    3.10
   8  -7   2    1.70    3.90
   8  -7   2   -4.00    3.70
  -9   7  -2   16.80    5.70
  -9   7  -2    7.80    6.20
  -9   7  -2   20.40    6.60
   9  -7   2    3.50    6.60
   9  -7   2    3.90    4.60
   9  -7   2    9.00    4.60
   4   6  -2   -2.20    4.30
   4   6  -2    4.80    5.00
   4   6  -2    1.70    6.10
  -4  -6   2    7.70    6.10
  -4  -6   2    1.30    5.00
  -4  -6   2   -1.70    6.00
  -4  -6   2    4.50    4.50
   3   6  -2   40.10    7.20
   3   6  -2   55.49    8.70
   3   6  -2   58.19    8.70
  -3  -6   2   36.90    7.80
  -3  -6   2   40.50    6.80
  -3  -6   2   31.20    5.40
  -3  -6   2   47.30    8.60
   2   6  -2   -0.10    3.20
   2   6  -2   -1.20    3.10
   2   6  -2    1.20    3.30
   2   6  -2    4.10    4.00
  -2  -6   2    3.10    2.50
  -2  -6   2   -1.20    3.60
  -2  -6   2   -2.40    3.10
   1   6  -2   75.39    8.20
   1   6  -2   80.99    9.10
   1   6  -2   73.09    6.80
   1   6  -2   95.49    9.80
  -1  -6   2   85.69    9.80
  -1  -6   2   79.79    8.50
  -1  -6   2   73.89    5.90
   0   6  -2  208.88    9.80
   0   6  -2  213.48   12.20
   0   6  -2  212.98   11.90
   0   6  -2  177.38   11.00
   0  -6   2  216.78    9.40
   0  -6   2  217.48   12.90
   0  -6   2  204.28   11.40
  -1   6  -2   66.39    7.80
  -1   6  -2   61.79    5.60
  -1   6  -2   68.39    7.60
  -1   6  -2   77.89    8.10
   1  -6   2   66.79    4.90
   1  -6   2   72.59    8.10
   1  -6   2   72.69    7.90
  -2   6  -2  141.29    9.10
  -2   6  -2  136.49    7.20
  -2   6  -2  119.89    8.60
   2  -6   2  116.69    8.50
   2  -6   2  138.69    9.40
   2  -6   2  132.99    7.00
  -3   6  -2   66.89    7.50
  -3   6  -2   65.99    7.30
  -3   6  -2   59.49    5.80
   3  -6   2   59.19    7.50
   3  -6   2   57.49    4.70
   3  -6   2   69.59    7.70
  -4   6  -2   90.59    9.10
  -4   6  -2  111.09    7.70
  -4   6  -2  101.09    4.80
  -4   6  -2  113.39    7.40
   4  -6   2   91.79    7.70
   4  -6   2  123.59    8.50
   4  -6   2  102.29    6.50
  -5   6  -2  165.48   10.80
  -5   6  -2  154.88    9.00
  -5   6  -2  158.58    9.60
  -5   6  -2  171.98    8.30
   5  -6   2  172.68    9.90
   5  -6   2  161.78   10.50
   5  -6   2  158.58    8.90
  -6   6  -2   40.40    5.20
  -6   6  -2   29.50    5.50
  -6   6  -2   38.20    5.30
  -6   6  -2   37.00    6.40
   6  -6   2   34.10    5.20
   6  -6   2   30.70    5.10
   6  -6   2   32.30    5.90
   6  -6   2   39.20    5.30
  -7   6  -2   20.30    5.80
  -7   6  -2   30.40    6.40
  -7   6  -2   18.60    4.50
   7  -6   2   26.90    5.20
   7  -6   2   12.20    4.50
   7  -6   2   30.00    5.40
  -8   6  -2   28.10    6.50
  -8   6  -2   25.60    6.20
  -8   6  -2   29.20    6.50
   8  -6   2   20.30    5.70
   8  -6   2   26.60    6.50
   8  -6   2   26.20    5.70
  -9   6  -2   46.90    8.70
  -9   6  -2   53.59    8.40
  -9   6  -2   34.50    7.90
   9  -6   2   49.10    8.20
   9  -6   2   49.70    9.20
   9  -6   2   40.30    7.20
 -10   6  -2   26.90    7.60
 -10   6  -2   31.40    8.00
 -10   6  -2    4.80    6.40
  10  -6   2   20.00    6.50
  10  -6   2   26.00    7.70
  10  -6   2   38.60   10.30
   5   5  -2   32.50    6.80
   5   5  -2   35.30    7.30
   5   5  -2   33.00    8.30
   5   5  -2   31.70    6.70
  -5  -5   2   39.20    8.40
  -5  -5   2   20.30    6.90
  -5  -5   2   28.30    6.70
  -5  -5   2   39.70    9.20
  -5  -5   2   19.90    6.10
   4   5  -2  195.28   12.30
   4   5  -2  212.68   14.00
   4   5  -2  226.68   13.50
   4   5  -2  182.18   12.10
   4   5  -2  190.68   12.10
  -4  -5   2  216.68   14.80
  -4  -5   2  205.88   13.00
  -4  -5   2  183.18   10.70
  -4  -5   2  207.18   14.70
  -4  -5   2  202.18   12.70
  -4  -5   2  185.58   11.70
   3   5  -2   13.20    4.30
   3   5  -2   25.70    5.60
   3   5  -2   14.60    4.10
   3   5  -2   20.50    4.50
   3   5  -2   19.70    5.20
  -3  -5   2   12.10    3.80
  -3  -5   2   18.80    5.30
  -3  -5   2   16.40    5.00
  -3  -5   2   17.10    4.60
  -3  -5   2   20.40    4.10
  -3  -5   2   13.40    4.90
   2   5  -2  102.09    7.50
   2   5  -2  104.29    8.00
   2   5  -2  110.19    9.00
   2   5  -2  104.99    7.00
   2   5  -2  134.79    9.20
  -2  -5   2  118.69    8.50
  -2  -5   2  101.49    6.70
  -2  -5   2   95.89    6.50
  -2  -5   2  131.99   10.20
   1   5  -2   41.00    4.00
   1   5  -2   39.60    5.70
   1   5  -2   40.20    4.60
   1   5  -2   34.80    5.20
   1   5  -2   46.90    6.30
  -1  -5   2   43.30    4.30
  -1  -5   2   49.00    6.80
  -1  -5   2   41.60    3.60
  -1  -5   2   50.79    6.00
   0   5  -2    2.30    2.10
   0   5  -2    0.20    1.40
   0   5  -2    0.50    1.90
   0   5  -2    2.50    2.20
   0  -5   2    1.00    0.90
   0  -5   2    1.40    1.70
   0  -5   2    1.80    2.40
   0  -5   2    1.20    0.90
   0  -5   2    0.10    2.60
  -1   5  -2  199.28   10.40
  -1   5  -2  206.58   10.20
  -1   5  -2  197.08   10.00
  -1   5  -2  184.58    8.30
   1  -5   2  200.08    8.20
   1  -5   2  193.08   10.50
   1  -5   2  197.38   10.10
  -2   5  -2  256.07   11.70
  -2   5  -2  243.28   11.50
  -2   5  -2  251.77   10.20
   2  -5   2  240.98    9.50
   2  -5   2  270.67   12.10
   2  -5   2  260.17   11.90
  -3   5  -2    0.50    0.80
  -3   5  -2   -0.70    1.70
  -3   5  -2   -0.30    1.50
  -3   5  -2   -1.00    1.70
  -3   5  -2    1.00    0.80
   3  -5   2    0.50    1.30
   3  -5   2    2.50    2.10
   3  -5   2   -0.40    1.70
  -4   5  -2  428.76   16.10
  -4   5  -2  414.76   17.20
  -4   5  -2  427.96   14.10
  -4   5  -2  441.56   15.80
   4  -5   2  417.96   15.20
   4  -5   2  427.16   16.00
   4  -5   2  446.16   14.50
   4  -5   2  427.66   17.00
  -5   5  -2  164.68    8.10
  -5   5  -2  143.39    9.60
  -5   5  -2  168.28    8.40
  -5   5  -2  162.88    9.40
   5  -5   2  166.88    9.90
   5  -5   2  144.79    8.30
   5  -5   2  157.68    8.50
   5  -5   2  172.98    9.00
  -6   5  -2   21.90    3.40
  -6   5  -2   29.50    5.30
  -6   5  -2   17.00    4.60
  -6   5  -2   25.10    4.60
   6  -5   2   25.90    5.30
   6  -5   2   25.10    4.50
   6  -5   2   25.10    4.80
   6  -5   2   26.30    4.00
  -7   5  -2   30.10    5.90
  -7   5  -2   35.30    6.30
  -7   5  -2   31.10    6.10
   7  -5   2   30.20    6.00
   7  -5   2   35.50    5.80
   7  -5   2   41.90    6.10
  -8   5  -2    2.80    3.70
  -8   5  -2    1.70    3.40
  -8   5  -2    8.10    4.30
   8  -5   2    0.80    4.10
   8  -5   2   -0.50    2.80
   8  -5   2   -2.20    3.10
  -9   5  -2   41.80    8.10
  -9   5  -2   47.90    8.60
  -9   5  -2   49.80    8.30
   9  -5   2   47.80    8.30
   9  -5   2   50.69    8.50
   9  -5   2   42.60    9.30
 -10   5  -2   36.50    8.40
 -10   5  -2   28.70    7.60
 -10   5  -2   35.80    8.50
  10  -5   2   22.90    7.00
  10  -5   2   19.10    7.50
  10  -5   2   27.90    7.70
   6   4  -2   14.30    5.80
   6   4  -2   17.30    7.40
   6   4  -2   13.50    6.60
   6   4  -2   11.30    5.50
   6   4  -2   11.60    5.50
  -6  -4   2    7.60    6.50
  -6  -4   2    7.40    5.70
  -6  -4   2   13.40    5.90
  -6  -4   2    9.40    4.70
  -6  -4   2    4.20    5.50
   5   4  -2  115.39    9.40
   5   4  -2  103.29   10.30
   5   4  -2  108.99    9.30
   5   4  -2   94.99    9.80
   5   4  -2  123.79   11.40
   5   4  -2  105.39   10.90
   5   4  -2   98.89   10.10
  -5  -4   2   80.39   10.20
  -5  -4   2   95.49    9.60
  -5  -4   2  129.39   12.60
  -5  -4   2   91.29    8.60
  -5  -4   2  133.09   12.80
  -5  -4   2  101.49   10.00
  -5  -4   2  105.99   10.70
   4   4  -2  266.87   13.90
   4   4  -2  249.38   13.40
   4   4  -2  274.97   13.80
   4   4  -2  282.67   13.80
   4   4  -2  290.07   14.50
   4   4  -2  283.37   14.00
   4   4  -2  290.77   14.70
  -4  -4   2  271.07   13.00
  -4  -4   2  292.57   15.60
  -4  -4   2  240.68   13.90
  -4  -4   2  253.07   14.70
  -4  -4   2  272.87   13.70
  -4  -4   2  277.17   12.60
  -4  -4   2  280.47   15.20
   3   4  -2    1.80    2.20
   3   4  -2   -3.10    2.90
   3   4  -2    0.80    2.50
   3   4  -2   -0.60    2.20
   3   4  -2   -0.50    1.70
   3   4  -2   -1.70    2.20
   3   4  -2    1.00    2.30
  -3  -4   2    1.40    2.60
  -3  -4   2    0.60    2.70
  -3  -4   2    1.60    1.70
  -3  -4   2    3.50    2.40
  -3  -4   2    1.90    2.80
   2   4  -2   26.20    4.50
   2   4  -2   22.60    3.80
   2   4  -2   21.20    3.70
   2   4  -2   18.90    3.80
   2   4  -2   26.60    4.60
  -2  -4   2   21.40    4.50
  -2  -4   2   20.70    4.40
  -2  -4   2   22.30    3.40
  -2  -4   2   27.70    4.60
  -2  -4   2   25.80    3.40
   1   4  -2  147.99    8.40
   1   4  -2  139.09    8.10
   1   4  -2  137.39    7.90
   1   4  -2  136.49    7.10
   1   4  -2  134.99    6.30
  -1  -4   2  120.89    7.10
  -1  -4   2  132.59    8.40
  -1  -4   2  126.79    6.10
  -1  -4   2  146.39    6.20
   0   4  -2  455.95   14.60
   0   4  -2  448.96   16.10
   0   4  -2  445.66   12.50
   0   4  -2  443.76   16.30
   0   4  -2  437.66   16.00
   0  -4   2  430.66   15.50
   0  -4   2  463.05   13.60
   0  -4   2  434.66   12.30
   0  -4   2  430.66   12.30
   0  -4   2  418.46   16.40
  -1   4  -2  195.68    9.20
  -1   4  -2  199.48    9.20
  -1   4  -2  188.98    7.90
   1  -4   2  185.88    8.90
   1  -4   2  196.78    9.60
   1  -4   2  183.88    7.10
  -2   4  -2   17.00    1.20
  -2   4  -2   18.00    2.90
  -2   4  -2   17.40    3.20
  -2   4  -2   15.60    1.20
  -2   4  -2   21.80    3.40
   2  -4   2   14.60    2.20
   2  -4   2   18.60    3.50
   2  -4   2   19.10    3.70
  -3   4  -2   28.20    2.80
  -3   4  -2   26.60    3.70
  -3   4  -2   21.80    3.70
  -3   4  -2   28.70    3.60
   3  -4   2   20.80    2.50
   3  -4   2   31.90    4.20
   3  -4   2   28.80    4.20
   3  -4   2   20.00    2.70
  -4   4  -2   62.59    4.50
  -4   4  -2   61.99    4.30
  -4   4  -2   70.29    6.50
  -4   4  -2   65.79    6.80
   4  -4   2   68.59    5.00
   4  -4   2   65.29    5.00
   4  -4   2   50.29    5.90
   4  -4   2   74.49    5.00
  -5   4  -2  601.74   18.60
  -5   4  -2  621.14   22.40
  -5   4  -2  644.84   21.40
  -5   4  -2  652.33   22.20
   5  -4   2  640.94   21.50
   5  -4   2  636.04   20.30
   5  -4   2  633.14   22.50
   5  -4   2  635.44   21.70
  -6   4  -2   90.49    4.70
  -6   4  -2  107.29    8.20
  -6   4  -2   99.49    7.80
  -6   4  -2  102.39    8.20
   6  -4   2   99.59    9.80
   6  -4   2  116.59    8.40
   6  -4   2  105.59    6.50
   6  -4   2  109.09    7.80
  -7   4  -2    9.80    3.60
  -7   4  -2   23.10    5.40
  -7   4  -2   19.00    5.10
   7  -4   2    9.80    4.80
   7  -4   2    8.00    3.60
   7  -4   2   12.00    3.90
  -8   4  -2    6.40    4.40
  -8   4  -2    6.30    4.30
  -8   4  -2    4.00    3.90
   8  -4   2    9.10    5.00
   8  -4   2   12.50    4.60
   8  -4   2   12.30    5.20
  -9   4  -2    7.20    5.20
  -9   4  -2    9.70    5.50
  -9   4  -2    4.00    4.70
   9  -4   2    3.20    3.00
   9  -4   2    3.50    5.00
   9  -4   2    6.00    6.50
 -10   4  -2   16.00    7.00
 -10   4  -2   15.80    7.20
 -10   4  -2   12.30    6.70
  10  -4   2   19.10    7.50
  10  -4   2   14.50    6.70
  10  -4   2    9.80    7.30
   7   3  -2    1.00    4.50
   7   3  -2    2.60    5.40
   7   3  -2   -5.10    4.70
  -7  -3   2    4.70    5.50
  -7  -3   2    4.70    5.90
  -7  -3   2   -1.40    3.20
  -7  -3   2    5.20    4.90
   6   3  -2   15.90    5.50
   6   3  -2   27.40    6.50
   6   3  -2   36.20    6.60
   6   3  -2   25.40    6.20
   6   3  -2   23.00    5.60
   6   3  -2   29.70    6.90
  -6  -3   2   24.20    6.00
  -6  -3   2   35.50    5.70
  -6  -3   2   17.90    5.90
  -6  -3   2   20.90    5.80
  -6  -3   2   31.70    6.10
  -6  -3   2   16.00    6.10
  -6  -3   2   33.40    6.70
   5   3  -2   53.89    7.20
   5   3  -2   74.19    7.60
   5   3  -2   66.79    7.10
   5   3  -2   61.79    7.20
   5   3  -2   82.49    8.40
   5   3  -2   76.59    8.90
   5   3  -2   80.69    8.80
  -5  -3   2   58.29    7.30
  -5  -3   2   70.59    8.10
  -5  -3   2   76.09    9.00
  -5  -3   2   76.49    9.40
  -5  -3   2   84.79    9.30
  -5  -3   2   65.39    6.70
  -5  -3   2   65.09    7.00
   4   3  -2   98.19    7.80
   4   3  -2  107.09    8.50
   4   3  -2   99.99    7.80
   4   3  -2  103.29    7.30
   4   3  -2   99.69    7.40
   4   3  -2   99.59    7.60
   4   3  -2  110.59    7.60
  -4  -3   2  111.59    7.20
  -4  -3   2  102.29    9.30
  -4  -3   2  100.79    8.30
  -4  -3   2  103.89    8.60
  -4  -3   2   99.99    7.80
  -4  -3   2  108.89    7.30
  -4  -3   2   99.19    8.20
   3   3  -2   89.89    6.30
   3   3  -2   72.09    6.00
   3   3  -2   82.39    6.20
   3   3  -2   90.79    6.50
   3   3  -2   79.69    6.10
   3   3  -2   74.99    6.00
   3   3  -2   80.89    6.00
  -3  -3   2   92.69    7.30
  -3  -3   2   74.79    6.40
  -3  -3   2   91.89    6.10
  -3  -3   2   99.09    7.40
  -3  -3   2   84.79    5.40
   2   3  -2   72.39    5.10
   2   3  -2   83.39    5.90
   2   3  -2   82.09    5.80
   2   3  -2   80.79    5.70
   2   3  -2   85.79    5.30
   2   3  -2   89.49    5.70
   2   3  -2   80.39    5.60
  -2  -3   2   95.79    6.90
  -2  -3   2   88.19    5.60
  -2  -3   2   85.69    6.20
  -2  -3   2   93.39    5.00
   1   3  -2  733.33   20.50
   1   3  -2  734.33   22.60
   1   3  -2  725.93   22.30
   1   3  -2  708.63   21.30
   1   3  -2  745.33   22.40
  -1  -3   2  712.33   19.80
  -1  -3   2  714.03   21.30
  -1  -3   2  652.53   22.40
   0   3  -2  820.42   24.00
   0   3  -2  802.72   23.80
   0   3  -2  815.32   21.00
   0   3  -2  791.62   24.00
   0   3  -2  832.82   22.90
   0   3  -2  779.22   21.30
   0  -3   2  794.62   21.30
   0  -3   2  764.92   21.80
   0  -3   2  810.32   23.40
   0  -3   2  838.32   24.60
   0  -3   2  817.02   20.90
  -1   3  -2  151.98    7.20
  -1   3  -2  161.08    5.60
  -1   3  -2  153.48    4.50
  -1   3  -2  169.48    6.70
  -1   3  -2  166.48    7.20
   1  -3   2  157.88    5.60
   1  -3   2  153.68    7.20
   1  -3   2  161.98    7.50
   1  -3   2  154.28    4.40
  -2   3  -2    2.20    1.60
  -2   3  -2    3.10    1.30
  -2   3  -2    2.20    0.90
  -2   3  -2    3.00    0.90
  -2   3  -2    0.80    1.20
   2  -3   2    2.60    1.40
   2  -3   2    3.90    1.10
   2  -3   2    4.30    1.80
  -3   3  -2  157.18    7.60
  -3   3  -2  176.98    6.60
  -3   3  -2  169.08    7.10
  -3   3  -2  172.58    8.20
   3  -3   2  172.58    7.60
   3  -3   2  152.98    7.10
   3  -3   2  171.98    8.20
   3  -3   2  169.78    7.20
  -4   3  -2  201.18    9.30
  -4   3  -2  173.58    6.40
  -4   3  -2  186.08    8.70
  -4   3  -2  186.68    9.10
   4  -3   2  166.48    8.30
   4  -3   2  162.88    7.80
   4  -3   2  194.68    9.40
   4  -3   2  182.88    8.80
  -5   3  -2  743.63   25.10
  -5   3  -2  746.93   19.90
  -5   3  -2  760.62   25.00
  -5   3  -2  780.52   25.30
   5  -3   2  737.73   22.70
   5  -3   2  764.52   24.80
   5  -3   2  727.93   25.20
   5  -3   2  807.12   26.00
  -6   3  -2   93.59    8.90
  -6   3  -2   93.09    9.00
  -6   3  -2   88.39    8.50
   6  -3   2   92.19    7.40
   6  -3   2   79.39    8.30
   6  -3   2   86.49    5.60
   6  -3   2   88.79    8.70
  -7   3  -2   22.50    5.10
  -7   3  -2   32.60    6.00
  -7   3  -2   37.80    6.40
   7  -3   2   25.30    5.20
   7  -3   2   37.90    6.50
   7  -3   2   34.70    6.60
  -8   3  -2   16.90    5.30
  -8   3  -2   11.50    4.90
  -8   3  -2   15.80    5.40
   8  -3   2    6.50    4.70
   8  -3   2   15.50    5.10
   8  -3   2    6.20    4.70
  -9   3  -2    4.90    5.40
  -9   3  -2   -0.50    4.60
  -9   3  -2    3.00    4.90
   9  -3   2    7.90    4.90
   9  -3   2    3.80    5.10
   9  -3   2   -3.90    4.70
   8   2  -2   14.30    6.70
   8   2  -2   11.90    7.90
  -8  -2   2    8.30    5.80
  -8  -2   2   14.20    7.20
  -8  -2   2    3.60    4.00
  -8  -2   2    9.10    6.70
   7   2  -2   37.00    7.50
   7   2  -2   56.59    8.40
   7   2  -2   43.30    8.60
  -7  -2   2   43.80    7.80
  -7  -2   2   49.40    8.50
  -7  -2   2   55.09    9.20
   6   2  -2   14.60    4.20
   6   2  -2   11.60    4.60
   6   2  -2   11.90    4.60
   6   2  -2   15.30    4.70
   6   2  -2   19.80    5.60
  -6  -2   2   11.60    3.90
  -6  -2   2    9.70    4.00
  -6  -2   2   19.50    5.40
  -6  -2   2   10.70    4.40
  -6  -2   2   15.80    5.40
  -6  -2   2   17.20    4.60
   5   2  -2   -2.30    1.70
   5   2  -2   -2.40    2.30
   5   2  -2   -0.40    2.40
   5   2  -2    2.20    2.60
   5   2  -2   -3.20    2.70
   5   2  -2   -2.60    2.50
  -5  -2   2    0.10    2.50
  -5  -2   2   -0.80    2.90
  -5  -2   2    2.70    2.70
  -5  -2   2    1.10    2.30
  -5  -2   2   -1.70    2.90
   4   2  -2   52.89    5.60
   4   2  -2   43.20    5.20
   4   2  -2   41.40    5.50
   4   2  -2   50.29    5.50
   4   2  -2   47.60    5.60
   4   2  -2   48.50    5.70
   4   2  -2   38.70    5.10
  -4  -2   2   47.30    5.00
  -4  -2   2   54.89    6.60
  -4  -2   2   58.89    7.30
  -4  -2   2   49.80    5.80
  -4  -2   2   44.40    6.10
   3   2  -2   39.80    4.90
   3   2  -2   37.50    4.20
   3   2  -2   29.00    3.90
   3   2  -2   37.50    4.20
   3   2  -2   29.60    4.00
   3   2  -2   33.50    4.40
   3   2  -2   36.00    4.20
  -3  -2   2   42.40    4.20
  -3  -2   2   35.20    4.40
  -3  -2   2   37.20    5.20
  -3  -2   2   38.30    5.00
   2   2  -2  245.58   10.10
   2   2  -2  278.27   10.30
   2   2  -2  252.77   10.30
   2   2  -2  284.57    9.80
   2   2  -2  275.87   10.20
   2   2  -2  258.87    9.60
   2   2  -2  274.97   10.50
  -2  -2   2  251.77   11.00
  -2  -2   2  262.27   10.50
  -2  -2   2  273.77    9.40
   1   2  -2 1695.43   43.10
   1   2  -2 1714.83   44.30
   1   2  -2 1695.53   43.60
   1   2  -2 1662.63   44.70
   1   2  -2 1666.93   44.70
   1   2  -2 1798.12   44.80
  -1  -2   2 1678.23   45.60
  -1  -2   2 1665.93   43.50
  -1  -2   2 1704.03   45.10
  -1  -2   2 1591.94   42.70
  -1  -2   2 1711.83   42.50
   0   2  -2  540.85   16.20
   0   2  -2  539.05   16.30
   0   2  -2  520.75   14.00
   0   2  -2  542.15   14.50
   0   2  -2  551.54   15.80
   0  -2   2  556.94   16.70
   0  -2   2  559.54   14.10
   0  -2   2  540.95   15.80
   0  -2   2  543.25   14.50
  -1   2  -2  198.98    7.40
  -1   2  -2  192.48    7.20
  -1   2  -2  192.68    6.00
  -1   2  -2  203.38    7.00
  -1   2  -2  208.08    6.20
   1  -2   2  186.68    7.30
   1  -2   2  193.18    6.00
   1  -2   2  192.28    6.00
   1  -2   2  179.08    7.50
  -2   2  -2  132.89    5.50
  -2   2  -2  134.69    4.90
  -2   2  -2  145.39    6.30
  -2   2  -2  141.79    6.20
   2  -2   2  147.99    6.50
   2  -2   2  146.29    5.70
   2  -2   2  143.09    6.20
   2  -2   2  141.49    5.10
  -3   2  -2    2.80    1.40
  -3   2  -2    0.90    0.50
  -3   2  -2    1.40    1.20
  -3   2  -2   -0.20    1.10
   3  -2   2    0.80    1.10
   3  -2   2    1.00    1.40
   3  -2   2    0.20    1.00
   3  -2   2    0.80    0.60
   3  -2   2    3.00    1.40
  -4   2  -2  519.55   18.30
  -4   2  -2  535.75   18.40
  -4   2  -2  508.45   17.80
   4  -2   2  525.65   18.70
   4  -2   2  521.35   16.80
   4  -2   2  566.74   18.40
   4  -2   2  555.14   18.80
  -5   2  -2   77.49    6.40
  -5   2  -2   87.59    6.40
  -5   2  -2   77.39    7.40
   5  -2   2   88.29    7.00
   5  -2   2   71.09    7.30
   5  -2   2   74.79    7.10
   5  -2   2   73.39    5.00
  -6   2  -2   23.60    4.90
  -6   2  -2   24.00    4.90
  -6   2  -2   20.40    4.30
   6  -2   2   19.70    4.60
   6  -2   2   29.10    5.50
   6  -2   2   21.60    3.50
   6  -2   2   27.70    4.90
  -7   2  -2    9.80    3.90
  -7   2  -2    6.10    3.90
  -7   2  -2    1.10    3.00
   7  -2   2    5.70    3.80
   7  -2   2    7.10    3.70
   7  -2   2    1.80    3.50
  -8   2  -2   24.30    6.20
  -8   2  -2   27.40    6.10
  -8   2  -2   30.50    7.20
   8  -2   2   23.30    6.60
   8  -2   2   29.60    6.40
   8  -2   2   41.50    8.30
  -9   2  -2   45.30    8.60
  -9   2  -2   20.10    7.10
  -9   2  -2   19.50    6.60
   9  -2   2   27.30    8.30
   9  -2   2   29.20    7.60
   9  -2   2   26.80    7.80
   8   1  -2    6.20    5.80
   8   1  -2   -1.50    4.60
  -8  -1   2    6.80    6.00
  -8  -1   2    6.90    5.20
  -8  -1   2   -1.00    5.20
   7   1  -2   15.40    5.30
   7   1  -2   11.60    4.50
   7   1  -2   19.90    6.10
   7   1  -2   13.10    4.40
  -7  -1   2   12.40    4.90
  -7  -1   2   29.30    6.90
   6   1  -2    8.40    3.50
   6   1  -2    6.20    3.50
   6   1  -2    3.90    2.80
   6   1  -2    2.60    2.90
   6   1  -2    5.40    3.60
  -6  -1   2    6.50    3.90
  -6  -1   2    1.10    3.30
  -6  -1   2    2.90    3.50
  -6  -1   2    5.30    3.00
   5   1  -2  148.59    9.50
   5   1  -2  148.39    7.40
   5   1  -2  150.68    8.40
   5   1  -2  138.39    9.00
   5   1  -2  133.99    9.40
  -5  -1   2  142.79    8.90
  -5  -1   2  153.88   10.00
  -5  -1   2  159.18    8.00
  -5  -1   2  156.68   10.00
   4   1  -2  136.69    7.80
   4   1  -2  153.48    8.90
   4   1  -2  158.68    8.20
   4   1  -2  163.18    8.80
   4   1  -2  151.18    7.00
   4   1  -2  144.49    7.40
  -4  -1   2  162.28    8.70
  -4  -1   2  140.89    8.80
  -4  -1   2  164.48    7.50
  -4  -1   2  158.68    9.10
   3   1  -2   38.80    4.30
   3   1  -2   42.80    4.30
   3   1  -2   39.80    3.90
   3   1  -2   31.10    3.40
   3   1  -2   43.00    3.80
   3   1  -2   33.50    3.40
   3   1  -2   31.10    3.90
  -3  -1   2   33.00    4.30
  -3  -1   2   43.80    5.30
  -3  -1   2   37.40    3.70
   2   1  -2  159.88    6.80
   2   1  -2  143.49    6.50
   2   1  -2  149.79    5.60
   2   1  -2  157.78    6.50
   2   1  -2  152.38    6.00
   2   1  -2  155.68    6.70
  -2  -1   2  144.79    7.00
  -2  -1   2  150.78    6.40
  -2  -1   2  149.49    5.40
  -2  -1   2  158.38    7.40
  -2  -1   2  136.09    5.60
   1   1  -2    1.60    0.50
   1   1  -2    2.10    0.80
   1   1  -2    1.80    0.90
   1   1  -2    0.70    0.70
   1   1  -2    0.20    0.70
   1   1  -2    2.40    0.90
  -1  -1   2    2.20    0.90
  -1  -1   2    3.00    0.80
  -1  -1   2    2.30    0.80
  -1  -1   2    2.00    1.10
  -1  -1   2    4.80    1.40
  -1  -1   2    1.90    0.50
   0   1  -2  501.55   14.20
   0   1  -2  487.15   14.00
   0   1  -2  464.25   13.60
   0   1  -2  492.25   13.60
   0   1  -2  455.85   13.10
   0   1  -2  472.55   13.60
   0  -1   2  506.05   13.30
   0  -1   2  480.45   14.00
   0  -1   2  483.35   13.50
   0  -1   2  493.25   13.70
   0  -1   2  486.95   13.20
   0  -1   2  468.75   13.60
   0  -1   2  470.55   14.10
  -1   1  -2  332.47    9.70
  -1   1  -2  332.57    9.30
  -1   1  -2  319.07   10.20
  -1   1  -2  335.77   10.50
  -1   1  -2  307.97   10.10
  -1   1  -2  312.67    9.80
   1  -1   2  318.27   10.50
   1  -1   2  326.17    9.00
   1  -1   2  327.97    9.40
   1  -1   2  331.67    9.50
   1  -1   2  322.97    9.80
   1  -1   2  340.87   10.80
   1  -1   2  327.97   10.20
  -2   1  -2  618.44   18.10
  -2   1  -2  599.74   17.30
  -2   1  -2  618.14   18.10
   2  -1   2  625.94   17.90
   2  -1   2  626.64   18.20
   2  -1   2  545.55   17.20
   2  -1   2  632.44   18.50
   2  -1   2  646.04   18.70
  -3   1  -2  486.15   16.50
  -3   1  -2  500.45   16.40
  -3   1  -2  513.55   15.70
   3  -1   2  489.55   15.70
   3  -1   2  510.85   16.50
   3  -1   2  493.65   17.00
   3  -1   2  485.85   16.70
  -4   1  -2   28.20    4.20
  -4   1  -2   25.70    3.60
  -4   1  -2   30.60    4.30
   4  -1   2   25.40    4.10
   4  -1   2   21.70    3.50
   4  -1   2   30.30    4.50
   4  -1   2   30.80    3.70
  -5   1  -2   39.10    5.50
  -5   1  -2   66.89    7.00
  -5   1  -2   46.50    2.50
  -5   1  -2   45.00    2.40
  -5   1  -2   52.59    5.60
   5  -1   2   48.20    6.20
   5  -1   2   46.50    5.80
   5  -1   2   57.29    6.80
   5  -1   2   55.79    5.20
  -6   1  -2  259.97   12.70
  -6   1  -2  263.27   14.00
  -6   1  -2  238.38   13.20
   6  -1   2  232.98   10.80
   6  -1   2  265.77   14.70
   6  -1   2  276.97   14.10
   6  -1   2  273.07   14.20
  -7   1  -2    2.30    3.20
  -7   1  -2    3.70    3.60
  -7   1  -2   -2.20    3.30
   7  -1   2   -1.20    2.10
   7  -1   2    1.60    3.60
   7  -1   2    4.00    3.90
  -8   1  -2   79.59   10.40
  -8   1  -2   77.29    9.50
  -8   1  -2   70.19    9.90
   8  -1   2   87.29   11.50
   8  -1   2   62.49    9.70
   8  -1   2   65.39    9.40
  -9   1  -2   32.40    8.60
  -9   1  -2   26.60    7.30
   9  -1   2   31.20    8.10
   9  -1   2   13.60    8.10
   9  -1   2   21.50    7.60
   9   0  -2    2.60    5.20
   9   0  -2    0.00    6.10
  -9   0   2   -1.10    5.80
  -9   0   2    1.30    5.70
  -9   0   2   -5.60    4.20
   8   0  -2    8.50    5.90
   8   0  -2    6.60    4.60
  -8   0   2    7.80    5.10
  -8   0   2    6.60    5.50
  -8   0   2   12.40    5.90
   7   0  -2   29.00    6.80
   7   0  -2   26.50    5.50
   7   0  -2   39.50    6.30
   7   0  -2   25.00    5.50
  -7   0   2   23.50    6.40
  -7   0   2   27.00    6.60
  -7   0   2   17.50    4.70
   6   0  -2  271.47   12.40
   6   0  -2  294.37   15.10
   6   0  -2  294.77   14.30
   6   0  -2  284.27   13.70
  -6   0   2  272.77   14.60
  -6   0   2  269.67   10.40
  -6   0   2  264.47   13.00
  -6   0   2  246.18   13.90
   5   0  -2  311.47   12.60
   5   0  -2  357.66   14.80
   5   0  -2  341.87   14.00
   5   0  -2  337.67   15.00
  -5   0   2  328.97   13.90
  -5   0   2  325.47   11.30
  -5   0   2  321.07   14.70
  -5   0   2  338.47   15.10
   4   0  -2   46.30    4.20
   4   0  -2   51.29    5.20
   4   0  -2   46.50    5.30
   4   0  -2   46.10    4.70
  -4   0   2   46.10    5.20
  -4   0   2   54.59    5.80
  -4   0   2   45.30    3.10
  -4   0   2   46.00    5.80
   3   0  -2    3.60    1.50
   3   0  -2    2.70    1.50
   3   0  -2    1.70    1.00
   3   0  -2    3.40    1.30
   3   0  -2    4.10    1.60
  -3   0   2    1.20    1.50
  -3   0   2    3.10    1.20
  -3   0   2    3.50    1.10
  -3   0   2    3.40    1.70
  -3   0   2    1.20    0.80
   2   0  -2   14.20    1.70
   2   0  -2   15.60    1.80
   2   0  -2   15.40    2.10
   2   0  -2   13.30    2.00
   2   0  -2   11.90    2.00
   2   0  -2   11.00    1.10
  -2   0   2   12.70    2.30
  -2   0   2   11.80    1.50
  -2   0   2   12.80    1.20
  -2   0   2   12.60    2.40
   1   0  -2  603.84   16.10
   1   0  -2  615.04   16.80
   1   0  -2  620.74   17.10
   1   0  -2  616.84   16.70
   1   0  -2  625.24   17.70
   1   0  -2  592.84   17.10
  -1   0   2  583.84   16.70
  -1   0   2  621.94   17.70
  -1   0   2  626.64   16.80
  -1   0   2  627.44   16.80
  -1   0   2  614.04   16.10
  -1   0   2  622.84   17.30
  -1   0   2  620.94   17.00
   0   0  -2  224.58    6.20
   0   0  -2  217.78    6.40
   0   0  -2  225.08    6.80
   0   0  -2  213.68    7.40
   0   0  -2  222.18    7.30
   0   0  -2  221.38    7.10
   0   0   2  221.68    7.50
   0   0   2  214.98    6.70
   0   0   2  214.18    7.00
   0   0   2  224.08    7.30
   0   0   2  212.38    6.20
   0   0   2  222.88    6.40
   0   0   2  222.58    6.80
  -1   0  -2  424.26   12.20
  -1   0  -2  456.15   13.30
  -1   0  -2  439.66   14.50
  -1   0  -2  444.46   11.50
  -1   0  -2  451.05   12.80
   1   0   2  463.05   13.30
   1   0   2  435.16   11.60
   1   0   2  439.76   12.20
   1   0   2  434.56   12.70
   1   0   2  445.26   13.50
   1   0   2  434.76   13.60
  -2   0  -2  294.17    9.80
  -2   0  -2  270.97    8.60
  -2   0  -2  275.17   10.10
  -2   0  -2  261.07    8.10
   2   0   2  276.07   10.30
   2   0   2  277.87   10.10
   2   0   2  268.47   10.40
   2   0   2  263.27    9.90
   2   0   2  281.47    8.70
   2   0   2  266.77    7.90
  -3   0  -2  133.79    7.00
  -3   0  -2  140.49    7.50
  -3   0  -2  146.79    6.40
  -3   0  -2  138.59    5.30
   3   0   2  146.19    5.00
   3   0   2  149.99    7.20
   3   0   2  142.59    7.90
   3   0   2  139.09    7.60
   3   0   2  147.89    7.60
  -4   0  -2   31.80    4.10
  -4   0  -2   35.40    3.10
  -4   0  -2   28.20    4.30
  -4   0  -2   30.60    3.20
  -4   0  -2   31.20    4.60
   4   0   2   33.60    4.30
   4   0   2   33.40    4.70
   4   0   2   33.40    2.30
   4   0   2   32.40    4.70
   4   0   2   32.30    4.90
  -5   0  -2  217.28   12.00
  -5   0  -2  211.58   10.40
  -5   0  -2  199.28   11.10
  -5   0  -2  214.58    8.40
   5   0   2  219.48   10.40
   5   0   2  240.08   12.90
   5   0   2  226.88   12.00
   5   0   2  210.68   11.70
  -6   0  -2   73.49    7.50
  -6   0  -2   69.19    8.50
  -6   0  -2   70.09    8.30
   6   0   2   83.99    9.20
   6   0   2   80.19    9.60
   6   0   2   70.19    6.90
   6   0   2   84.09    9.20
  -7   0  -2    3.50    4.40
  -7   0  -2    4.20    3.80
  -7   0  -2    2.10    3.70
   7   0   2    0.20    3.50
   7   0   2    7.40    4.70
   7   0   2    7.90    5.70
  -8   0  -2   -0.30    4.90
  -8   0  -2   16.70    6.50
   8   0   2   18.10    6.30
   8   0   2   11.20    7.20
   8   0   2   25.20    7.60
   9  -1  -2    7.20    5.00
   9  -1  -2    4.20    5.60
  -9   1   2    8.80    5.60
  -9   1   2    4.10    5.60
  -9   1   2    7.60    5.30
   8  -1  -2    9.20    5.10
   8  -1  -2   11.50    4.90
  -8   1   2   13.60    5.40
  -8   1   2   14.40    5.60
   7  -1  -2   37.50    6.40
   7  -1  -2   32.40    6.40
   7  -1  -2   35.20    5.90
   7  -1  -2   28.70    5.70
  -7   1   2   41.60    7.00
  -7   1   2   31.00    6.50
   6  -1  -2  279.87   14.40
   6  -1  -2  285.17   13.80
   6  -1  -2  286.87   12.30
   6  -1  -2  280.07   13.30
  -6   1   2  286.97    9.50
  -6   1   2  292.77   14.40
  -6   1   2  287.27   13.00
  -6   1   2  278.57   14.40
   5  -1  -2  151.78    8.20
   5  -1  -2  138.59    7.20
   5  -1  -2  150.08    8.60
   5  -1  -2  157.18    9.00
  -5   1   2  144.39    8.80
  -5   1   2  130.79    8.60
  -5   1   2  137.09    4.90
  -5   1   2  139.59    4.90
  -5   1   2  140.59    8.00
   4  -1  -2    0.70    1.10
   4  -1  -2    0.40    1.10
   4  -1  -2   -0.40    1.20
   4  -1  -2   -0.40    1.40
  -4   1   2   -0.10    0.60
  -4   1   2    2.70    1.80
  -4   1   2    0.50    0.50
  -4   1   2    1.00    1.60
  -4   1   2   -0.10    1.70
   3  -1  -2   -0.20    0.40
   3  -1  -2   -0.40    0.60
   3  -1  -2   -0.30    1.00
   3  -1  -2    1.10    0.90
   3  -1  -2    1.20    1.10
  -3   1   2   -0.70    1.20
  -3   1   2   -0.30    1.20
  -3   1   2    0.20    0.80
  -3   1   2   -0.20    1.10
  -3   1   2   -0.10    0.40
  -3   1   2    0.80    0.50
   2  -1  -2 1361.76   35.40
   2  -1  -2 1369.96   36.40
   2  -1  -2 1398.06   36.50
   2  -1  -2 1425.36   37.10
   2  -1  -2 1395.86   35.20
  -2   1   2 1389.06   37.80
  -2   1   2 1452.75   35.50
  -2   1   2 1464.75   37.70
  -2   1   2 1359.36   35.10
   1  -1  -2  921.71   24.90
   1  -1  -2  964.00   24.90
   1  -1  -2  984.10   25.20
   1  -1  -2  972.50   24.20
   1  -1  -2  915.01   24.30
   1  -1  -2  866.31   25.00
   1  -1  -2  967.90   24.20
   1  -1  -2  938.91   27.00
  -1   1   2  954.10   25.00
  -1   1   2  950.90   24.20
  -1   1   2  954.90   24.30
  -1   1   2  936.61   26.10
  -1   1   2  946.11   25.20
  -1   1   2  942.91   24.10
  -1   1   2  961.70   25.20
  -1   1   2  941.91   24.80
   0  -1  -2  146.49    5.30
   0  -1  -2  148.89    4.50
   0  -1  -2  129.79    5.70
   0  -1  -2  146.89    6.20
   0  -1  -2  148.79    5.60
   0  -1  -2  136.19    4.30
   0   1   2  147.19    5.90
   0   1   2  136.79    4.40
   0   1   2  138.59    4.20
   0   1   2  144.79    5.50
   0   1   2  143.99    6.00
   0   1   2  147.89    5.60
  -1  -1  -2   22.90    2.40
  -1  -1  -2   24.90    2.70
  -1  -1  -2   28.10    3.10
  -1  -1  -2   26.10    2.00
  -1  -1  -2   20.90    1.40
  -1  -1  -2   19.20    1.20
   1   1   2   25.50    2.90
   1   1   2   28.90    3.30
   1   1   2   25.00    1.30
   1   1   2   23.70    2.60
   1   1   2   22.40    2.20
   1   1   2   27.90    3.20
  -2  -1  -2   37.60    3.70
  -2  -1  -2   41.30    3.20
  -2  -1  -2   41.10    2.60
  -2  -1  -2   40.60    3.60
  -2  -1  -2   37.40    2.30
   2   1   2   47.20    4.70
   2   1   2   48.20    4.60
   2   1   2   40.50    4.50
   2   1   2   32.60    2.70
  -3  -1  -2   60.69    4.90
  -3  -1  -2   58.79    4.20
  -3  -1  -2   60.09    4.60
  -3  -1  -2   64.69    5.30
   3   1   2   60.49    5.40
   3   1   2   60.79    6.20
   3   1   2   61.89    3.90
   3   1   2   73.09    5.60
   3   1   2   68.99    5.40
  -4  -1  -2  232.38   11.90
  -4  -1  -2  241.88   10.50
  -4  -1  -2  253.07    9.90
  -4  -1  -2  233.78   11.50
   4   1   2  229.58   12.10
   4   1   2  248.18    9.30
   4   1   2  252.77   12.70
   4   1   2  251.47   11.60
   4   1   2  245.08   12.20
  -5  -1  -2  164.88    9.30
  -5  -1  -2  173.68    8.40
  -5  -1  -2  158.78   10.70
  -5  -1  -2  156.38   10.00
   5   1   2  170.48    7.60
   5   1   2  176.08   11.30
   5   1   2  152.78   10.50
   5   1   2  177.68   10.10
   5   1   2  161.88   11.20
  -6  -1  -2   25.50    5.60
  -6  -1  -2   15.10    4.20
  -6  -1  -2   26.20    5.80
   6   1   2   47.90    8.00
   6   1   2   25.20    5.60
   6   1   2   25.80    5.80
   6   1   2   25.90    6.40
  -7  -1  -2    0.60    3.90
  -7  -1  -2   -0.30    3.40
  -7  -1  -2    3.70    4.50
   7   1   2   -2.30    3.70
   7   1   2    2.70    4.70
   7   1   2    7.10    4.50
  -8  -1  -2    7.10    5.80
  -8  -1  -2    5.90    4.80
  -8  -1  -2    3.80    5.40
   8   1   2    2.70    5.60
   8   1   2    7.60    7.60
   8   1   2    0.90    6.00
 -10   2   2   10.70    6.40
   9  -2  -2    1.40    4.30
   9  -2  -2    5.50    5.60
  -9   2   2   -5.10    4.30
  -9   2   2   -0.80    5.00
   8  -2  -2   90.39   10.90
   8  -2  -2   80.39    8.70
   8  -2  -2   77.19    9.30
  -8   2   2   85.19   10.20
  -8   2   2   90.89   10.90
   7  -2  -2   21.10    5.10
   7  -2  -2   18.60    4.40
   7  -2  -2   17.10    4.30
  -7   2   2   18.60    4.30
  -7   2   2   15.30    5.30
  -7   2   2   29.90    5.80
   6  -2  -2   18.10    3.90
   6  -2  -2   31.40    4.70
   6  -2  -2   26.20    5.10
   6  -2  -2   22.00    4.50
  -6   2   2   25.10    5.00
  -6   2   2   34.20    4.90
  -6   2   2   21.80    4.70
   5  -2  -2  162.28    7.80
   5  -2  -2  168.28    9.30
   5  -2  -2  153.18    8.30
   5  -2  -2  154.18    8.70
  -5   2   2  169.08    8.70
  -5   2   2  151.58    9.10
  -5   2   2  171.78    9.20
   4  -2  -2  231.58    8.70
   4  -2  -2  242.28    9.80
   4  -2  -2  199.58    9.60
   4  -2  -2  235.38    9.60
  -4   2   2  221.28    9.90
  -4   2   2  231.88   10.00
  -4   2   2  221.18   10.50
   3  -2  -2  832.52   22.40
   3  -2  -2  792.52   23.00
   3  -2  -2  811.82   23.30
   3  -2  -2  810.12   23.70
   3  -2  -2  738.13   21.00
  -3   2   2  843.62   23.40
  -3   2   2  829.02   24.60
  -3   2   2  807.22   24.40
  -3   2   2  813.52   20.90
   2  -2  -2 9115.29  232.88
   2  -2  -2 9809.92  234.08
   2  -2  -2 8937.11  233.28
   2  -2  -2 9946.90  233.48
   2  -2  -2 9458.35  234.18
  -2   2   2 9454.35  233.08
  -2   2   2 9648.23  232.88
  -2   2   2 9999.00  234.98
  -2   2   2 9936.21  235.78
  -2   2   2 9302.17  233.28
   1  -2  -2    0.80    0.90
   1  -2  -2    1.10    0.90
   1  -2  -2    2.20    1.00
   1  -2  -2    3.00    0.50
   1  -2  -2    1.50    1.00
  -1   2   2    1.50    0.40
  -1   2   2    4.20    0.60
  -1   2   2    1.40    1.00
  -1   2   2    1.00    0.90
  -1   2   2    0.90    0.80
  -1   2   2    1.10    1.10
   0  -2  -2    4.20    0.60
   0  -2  -2    3.80    1.00
   0  -2  -2    1.80    1.20
   0  -2  -2    4.30    1.30
   0  -2  -2    2.20    1.20
   0  -2  -2    3.90    0.60
   0   2   2    6.20    1.90
   0   2   2    3.60    1.40
   0   2   2    4.40    0.70
   0   2   2    2.10    0.80
   0   2   2    2.60    1.40
  -1  -2  -2  252.27    8.20
  -1  -2  -2  254.07    8.50
  -1  -2  -2  251.87    9.70
  -1  -2  -2  266.87    8.50
  -1  -2  -2  269.07    9.80
   1   2   2  263.67    8.30
   1   2   2  260.97   10.60
   1   2   2  244.38    8.50
   1   2   2  265.07   10.80
   1   2   2  267.67   10.70
   1   2   2  276.77   10.30
  -2  -2  -2    7.30    1.90
  -2  -2  -2    8.10    2.30
  -2  -2  -2    6.80    2.00
  -2  -2  -2    7.20    1.80
   2   2   2    9.00    2.60
   2   2   2    9.30    2.90
   2   2   2    7.10    2.00
   2   2   2    5.80    2.30
   2   2   2    6.70    1.60
  -3  -2  -2  364.76   14.10
  -3  -2  -2  365.36   14.60
  -3  -2  -2  336.27   13.50
  -3  -2  -2  361.86   13.10
   3   2   2  381.56   12.30
   3   2   2  382.86   15.50
   3   2   2  345.07   13.20
   3   2   2  352.46   14.70
   3   2   2  367.06   15.30
  -4  -2  -2  336.57   13.80
  -4  -2  -2  380.46   16.20
  -4  -2  -2  373.76   15.20
  -4  -2  -2  355.16   15.00
   4   2   2  376.86   16.10
   4   2   2  362.96   13.60
   4   2   2  363.56   16.50
   4   2   2  344.07   16.30
   4   2   2  366.16   16.70
  -5  -2  -2    4.80    3.40
  -5  -2  -2    0.30    3.00
  -5  -2  -2   -0.90    2.50
  -5  -2  -2   -0.80    3.10
  -5  -2  -2   -0.10    2.50
   5   2   2   -1.80    2.20
   5   2   2   -0.20    3.00
   5   2   2    3.00    3.50
   5   2   2   -1.30    3.80
   5   2   2   -3.30    3.20
  -6  -2  -2    3.00    3.30
  -6  -2  -2    0.20    3.70
  -6  -2  -2    0.20    3.50
   6   2   2    2.10    3.90
   6   2   2    7.20    4.40
   6   2   2   -1.20    3.70
  -7  -2  -2    8.30    5.40
  -7  -2  -2   20.10    5.60
  -7  -2  -2   12.10    5.40
   7   2   2   15.40    6.80
   7   2   2   12.80    6.00
  10  -3  -2   19.10    6.70
  10  -3  -2   28.10    8.70
 -10   3   2   24.40    7.10
 -10   3   2   15.20    6.50
 -10   3   2   10.00    6.10
   9  -3  -2   71.29    9.30
   9  -3  -2   78.59   10.90
  -9   3   2   74.69   10.30
  -9   3   2   43.00    8.40
   8  -3  -2    8.70    3.80
   8  -3  -2    8.00    4.40
   8  -3  -2    6.70    4.40
  -8   3   2    8.30    5.10
  -8   3   2    8.00    4.70
   7  -3  -2    3.60    2.70
   7  -3  -2    0.50    3.10
   7  -3  -2    1.30    2.80
  -7   3   2    5.30    3.30
  -7   3   2    5.30    4.10
  -7   3   2    4.20    2.90
   6  -3  -2  136.09    9.00
   6  -3  -2  137.79    8.30
   6  -3  -2  133.49    8.50
  -6   3   2  144.19    9.10
  -6   3   2  144.19    9.90
  -6   3   2  143.89    8.60
   5  -3  -2  231.68   11.00
   5  -3  -2  241.98   10.30
   5  -3  -2  242.58   10.80
  -5   3   2  250.47   12.30
  -5   3   2  225.68   10.80
  -5   3   2  251.47   11.20
   4  -3  -2   58.19    4.40
   4  -3  -2   50.59    3.00
   4  -3  -2   58.39    2.90
   4  -3  -2   62.09    4.70
   4  -3  -2   52.59    4.30
  -4   3   2   63.89    4.70
  -4   3   2   61.59    2.90
  -4   3   2   59.79    6.30
  -4   3   2   56.79    4.90
   3  -3  -2  361.16   12.40
   3  -3  -2  350.76   12.70
   3  -3  -2  372.16   12.50
  -3   3   2  359.46   13.80
  -3   3   2  384.26   12.00
  -3   3   2  364.36   13.70
  -3   3   2  351.86   11.40
   2  -3  -2  145.69    6.10
   2  -3  -2  150.18    6.80
   2  -3  -2  141.09    6.50
  -2   3   2  153.78    5.10
  -2   3   2  151.58    5.10
  -2   3   2  152.78    6.80
  -2   3   2  136.89    7.50
  -2   3   2  156.38    7.10
   1  -3  -2   47.10    3.70
   1  -3  -2   44.00    3.50
   1  -3  -2   39.30    3.00
  -1   3   2   50.79    5.30
  -1   3   2   57.39    5.20
  -1   3   2   49.80    3.50
   0  -3  -2   62.29    2.40
   0  -3  -2   60.89    2.40
   0  -3  -2   65.99    4.40
   0  -3  -2   63.39    3.90
   0  -3  -2   55.39    4.30
   0   3   2   57.69    4.80
   0   3   2   70.99    5.20
   0   3   2   64.09    3.70
   0   3   2   64.19    4.80
  -1  -3  -2  109.09    6.10
  -1  -3  -2   90.49    4.50
  -1  -3  -2   98.69    6.20
  -1  -3  -2   94.69    5.60
   1   3   2   99.69    6.80
   1   3   2  104.39    6.80
   1   3   2   99.89    5.00
   1   3   2   96.79    6.40
  -2  -3  -2  243.08   10.90
  -2  -3  -2  261.67   11.10
  -2  -3  -2  245.48    9.80
  -2  -3  -2  262.47   11.40
   2   3   2  273.87   12.50
   2   3   2  240.78   11.80
   2   3   2  252.17   12.20
   2   3   2  243.48   11.30
   2   3   2  254.87    9.60
  -3  -3  -2   78.19    6.30
  -3  -3  -2   89.29    7.00
  -3  -3  -2   80.99    6.50
  -3  -3  -2   89.79    6.30
   3   3   2   92.89    8.70
   3   3   2   82.49    6.60
   3   3   2   84.09    5.50
   3   3   2   77.09    8.10
   3   3   2   91.29    8.80
  -4  -3  -2  180.48   11.30
  -4  -3  -2  202.98   11.20
  -4  -3  -2  218.88   11.40
  -4  -3  -2  185.08   10.30
   4   3   2  187.18    9.40
   4   3   2  189.48   12.20
   4   3   2  204.68   12.60
   4   3   2  204.88   10.70
   4   3   2  193.18   12.10
  -5  -3  -2   20.60    5.50
  -5  -3  -2   30.80    5.60
  -5  -3  -2   21.70    5.40
  -5  -3  -2   21.90    5.30
   5   3   2   24.70    6.00
   5   3   2   23.80    6.30
   5   3   2   20.70    4.90
   5   3   2   30.90    6.90
  -6  -3  -2   -2.10    3.40
  -6  -3  -2   -2.10    4.10
  -6  -3  -2    1.20    4.20
  -6  -3  -2    4.30    5.20
   6   3   2    2.20    5.20
   6   3   2    4.90    5.50
   6   3   2   -4.90    5.90
  10  -4  -2    2.20    5.40
  10  -4  -2   -0.40    4.70
 -10   4   2    4.50    5.70
 -10   4   2    2.60    5.80
   9  -4  -2    9.50    4.70
   9  -4  -2    1.10    4.60
  -9   4   2   -1.40    4.70
  -9   4   2    5.30    4.70
   8  -4  -2    4.00    4.40
   8  -4  -2    3.30    3.80
   8  -4  -2    9.60    4.10
  -8   4   2    8.90    4.20
  -8   4   2    1.00    4.00
   7  -4  -2   93.39    9.00
   7  -4  -2   92.09    9.20
   7  -4  -2   93.09    8.60
  -7   4   2  101.09    7.50
  -7   4   2   89.99    9.20
  -7   4   2   86.29    9.40
   6  -4  -2   46.30    5.90
   6  -4  -2   44.40    5.80
   6  -4  -2   39.50    5.20
  -6   4   2   40.90    5.60
  -6   4   2   44.10    5.70
  -6   4   2   38.50    6.10
   5  -4  -2   27.00    2.70
   5  -4  -2   21.40    3.70
   5  -4  -2   21.20    3.80
   5  -4  -2   27.10    4.00
   5  -4  -2   21.40    2.70
  -5   4   2   21.20    4.00
  -5   4   2   28.10    4.30
  -5   4   2   22.20    4.30
   4  -4  -2  137.49    7.30
   4  -4  -2  161.58    6.80
   4  -4  -2  151.68    7.80
   4  -4  -2  149.19    8.00
  -4   4   2  146.29    8.60
  -4   4   2  156.68    6.60
  -4   4   2  169.28    9.20
  -4   4   2  156.28    7.30
   3  -4  -2   35.70    3.60
   3  -4  -2   38.30    4.70
   3  -4  -2   33.60    4.10
  -3   4   2   32.10    4.40
  -3   4   2   32.70    2.70
  -3   4   2   35.50    4.00
  -3   4   2   25.60    4.40
   2  -4  -2  140.59    6.10
   2  -4  -2  147.59    7.40
   2  -4  -2  136.99    7.30
  -2   4   2  141.19    7.40
  -2   4   2  141.79    8.40
  -2   4   2  143.39    4.60
  -2   4   2  148.79    7.60
  -2   4   2  145.09    4.70
   1  -4  -2  545.15   16.20
   1  -4  -2  529.65   17.40
   1  -4  -2  521.85   17.80
  -1   4   2  506.95   17.00
  -1   4   2  549.25   19.50
  -1   4   2  518.75   18.50
   0  -4  -2   13.60    2.60
   0  -4  -2   17.50    3.20
   0  -4  -2   14.00    1.50
   0  -4  -2   15.60    1.50
   0  -4  -2   16.60    3.60
   0   4   2   18.70    4.00
   0   4   2   12.40    3.50
   0   4   2    8.40    3.00
   0   4   2   16.60    2.80
  -1  -4  -2  192.18    8.90
  -1  -4  -2  178.18    7.20
  -1  -4  -2  196.38   10.00
  -1  -4  -2  193.98    9.30
   1   4   2  202.88   10.90
   1   4   2  196.08   10.40
   1   4   2  184.38    8.40
   1   4   2  177.08   10.00
  -2  -4  -2    6.10    3.10
  -2  -4  -2    6.00    2.40
  -2  -4  -2    7.80    3.00
  -2  -4  -2    7.50    2.50
   2   4   2   10.90    3.00
   2   4   2   11.00    3.90
   2   4   2    6.80    3.00
   2   4   2    4.90    3.40
  -3  -4  -2   52.09    5.70
  -3  -4  -2   43.30    6.20
  -3  -4  -2   48.40    6.20
  -3  -4  -2   38.00    6.20
  -3  -4  -2   40.30    5.50
   3   4   2   37.10    6.90
   3   4   2   38.70    4.60
   3   4   2   42.70    6.90
   3   4   2   42.90    6.10
  -4  -4  -2   20.00    4.30
  -4  -4  -2   29.10    5.60
  -4  -4  -2   26.70    6.50
  -4  -4  -2   26.30    5.80
   4   4   2   11.80    5.80
   4   4   2   20.00    5.50
   4   4   2   30.60    5.80
   4   4   2   13.90    5.00
  -5  -4  -2   33.40    6.40
  -5  -4  -2   35.10    7.90
  -5  -4  -2   36.10    6.50
   5   4   2   37.20    7.70
   5   4   2   35.10    7.50
   5   4   2   42.70    8.90
  -6  -4  -2    3.40    5.40
  -6  -4  -2   -1.90    4.70
  -6  -4  -2    1.40    4.20
  -6  -4  -2    1.30    5.10
   6   4   2    5.60    6.60
   6   4   2   -1.90    5.00
   6   4   2   -3.10    5.30
  10  -5  -2    3.60    5.50
  10  -5  -2    3.00    4.10
 -10   5   2    3.30    5.60
 -10   5   2   -3.90    5.40
   9  -5  -2    5.80    4.50
   9  -5  -2   18.00    5.90
   9  -5  -2   22.70    6.00
  -9   5   2   20.30    6.50
  -9   5   2   25.60    6.80
   8  -5  -2   28.60    5.80
   8  -5  -2   12.10    4.20
   8  -5  -2   32.10    5.50
  -8   5   2   22.30    4.70
  -8   5   2   24.90    5.80
  -8   5   2   27.30    6.40
   7  -5  -2  191.78   11.50
   7  -5  -2  202.58   11.60
   7  -5  -2  170.58   10.90
  -7   5   2  191.18   12.80
  -7   5   2  218.18   11.80
  -7   5   2  198.98   11.70
   6  -5  -2   21.50    4.10
   6  -5  -2   29.20    5.20
   6  -5  -2   18.40    3.80
   6  -5  -2   26.70    3.10
  -6   5   2   21.80    4.40
  -6   5   2   29.10    5.20
  -6   5   2   17.20    4.60
   5  -5  -2    5.40    2.40
   5  -5  -2    5.70    2.30
   5  -5  -2    6.50    2.20
   5  -5  -2   11.60    3.20
  -5   5   2    7.50    3.20
  -5   5   2   11.10    3.40
  -5   5   2    7.30    2.80
  -5   5   2    6.00    1.90
   4  -5  -2    4.70    2.40
   4  -5  -2    1.70    1.30
   4  -5  -2    5.50    2.40
   4  -5  -2    2.60    2.50
  -4   5   2    1.40    1.80
  -4   5   2    1.30    1.90
  -4   5   2    0.60    1.60
  -4   5   2    2.60    2.90
   3  -5  -2   27.30    4.10
   3  -5  -2   28.80    4.70
   3  -5  -2   24.20    2.90
  -3   5   2   17.20    2.20
  -3   5   2   18.60    3.90
  -3   5   2   23.00    4.50
  -3   5   2   23.30    3.90
   2  -5  -2  221.68   10.20
   2  -5  -2  221.38    8.40
   2  -5  -2  213.68   10.50
  -2   5   2  216.88    6.00
  -2   5   2  238.38   10.80
  -2   5   2  229.28   10.90
  -2   5   2  213.18    6.00
  -2   5   2  215.78   11.70
   1  -5  -2  282.07   11.80
   1  -5  -2  273.87   12.30
   1  -5  -2  272.37   10.10
  -1   5   2  266.47   11.50
  -1   5   2  258.47   13.30
  -1   5   2  270.07   12.90
   0  -5  -2    2.40    1.90
   0  -5  -2   -0.70    0.90
   0  -5  -2    0.90    1.90
   0  -5  -2   -2.70    2.20
   0   5   2    1.30    2.20
   0   5   2   -0.90    1.90
   0   5   2   -0.10    2.50
  -1  -5  -2   -0.60    3.10
  -1  -5  -2    1.80    2.30
  -1  -5  -2    1.40    2.40
  -1  -5  -2    4.10    1.90
   1   5   2    1.60    1.90
   1   5   2    2.00    3.40
   1   5   2    0.50    2.70
   1   5   2    0.50    2.90
  -2  -5  -2    3.80    2.70
  -2  -5  -2   -2.30    2.60
  -2  -5  -2    1.00    2.50
   2   5   2    1.00    3.30
   2   5   2   -0.70    3.50
   2   5   2   -1.40    2.00
   2   5   2    3.30    3.70
  -3  -5  -2   63.99    7.30
  -3  -5  -2   41.70    6.10
  -3  -5  -2   34.40    6.30
   3   5   2   55.39    8.20
   3   5   2   54.09    7.50
   3   5   2   41.80    7.50
  -4  -5  -2   16.40    5.00
  -4  -5  -2    2.30    4.30
  -4  -5  -2    8.30    5.30
  -4  -5  -2   10.40    4.70
   4   5   2   14.60    6.40
   4   5   2    9.90    5.90
   4   5   2    7.70    4.30
  -5  -5  -2    2.10    4.60
  -5  -5  -2   -1.90    4.70
  -5  -5  -2   -1.80    5.30
  -5  -5  -2   -1.30    3.80
   5   5   2    1.40    5.70
   5   5   2   -3.00    5.30
  10  -6  -2   11.10    5.10
  10  -6  -2    6.60    5.70
 -10   6   2    3.80    6.20
 -10   6   2   11.40    6.40
   9  -6  -2    5.30    4.50
   9  -6  -2    8.80    4.50
   9  -6  -2   11.20    5.90
  -9   6   2    2.10    4.90
  -9   6   2    4.50    5.10
   8  -6  -2   55.09    8.10
   8  -6  -2   76.79    9.00
   8  -6  -2   50.99    7.80
  -8   6   2   57.19    8.90
  -8   6   2   60.99    7.60
  -8   6   2   54.89    7.90
   7  -6  -2   38.50    5.60
   7  -6  -2   47.00    6.50
   7  -6  -2   38.80    6.00
  -7   6   2   46.40    6.70
  -7   6   2   35.60    6.80
  -7   6   2   39.10    6.00
   6  -6  -2   32.40    4.40
   6  -6  -2   32.40    6.10
   6  -6  -2   25.60    4.50
   6  -6  -2   23.60    4.80
  -6   6   2   23.50    5.30
  -6   6   2   21.30    4.50
  -6   6   2   29.70    5.40
   5  -6  -2    5.30    1.90
   5  -6  -2    5.30    3.10
   5  -6  -2    6.50    2.90
   5  -6  -2    5.60    3.00
  -5   6   2    4.40    3.60
  -5   6   2    6.20    3.20
  -5   6   2    9.60    2.90
  -5   6   2   12.60    3.00
   4  -6  -2   95.99    7.60
   4  -6  -2  105.69    7.50
   4  -6  -2  100.89    7.50
   4  -6  -2   95.99    5.70
  -4   6   2  103.59    7.30
  -4   6   2   96.49    9.70
  -4   6   2  107.69    5.70
  -4   6   2   93.69    9.20
   3  -6  -2  205.78   11.10
   3  -6  -2  205.18   10.90
   3  -6  -2  176.58   10.10
   3  -6  -2  195.88    8.00
  -3   6   2  199.88    6.80
  -3   6   2  216.98   10.90
  -3   6   2  187.88   10.80
  -3   6   2  187.08   11.70
   2  -6  -2   45.10    3.60
   2  -6  -2   59.49    6.30
   2  -6  -2   59.79    6.90
  -2   6   2   49.99    7.20
  -2   6   2   53.89    6.70
  -2   6   2   50.19    6.10
   1  -6  -2   67.09    6.80
   1  -6  -2   69.29    7.90
   1  -6  -2   59.19    4.70
  -1   6   2   64.99    7.00
  -1   6   2   55.29    7.60
  -1   6   2   50.59    6.90
   0  -6  -2   59.89    6.60
   0  -6  -2   51.49    5.20
   0  -6  -2   58.89    7.50
   0   6   2   52.69    6.20
   0   6   2   50.19    7.50
   0   6   2   60.19    7.70
  -1  -6  -2   -2.30    1.90
  -1  -6  -2    0.10    2.70
  -1  -6  -2    0.50    3.30
   1   6   2    0.30    2.80
   1   6   2    1.40    4.30
   1   6   2    3.70    3.70
  -2  -6  -2  134.49    9.70
  -2  -6  -2  113.79   12.20
  -2  -6  -2  133.79   10.90
   2   6   2  156.58   12.30
   2   6   2  117.49   11.60
  -3  -6  -2   16.00    4.80
  -3  -6  -2   15.60    6.30
  -3  -6  -2   10.40    5.50
   3   6   2   31.20    7.70
   3   6   2   17.50    6.40
   3   6   2   17.20    5.90
  -4  -6  -2   -7.50    6.40
  -4  -6  -2    2.10    5.30
  -4  -6  -2   -2.30    3.70
   4   6   2   -2.00    5.60
   4   6   2    0.70    6.80
   4   6   2    2.00    5.00
  10  -7  -2    7.50    5.10
  10  -7  -2    4.90    5.40
 -10   7   2    7.90    6.90
 -10   7   2   14.80    6.70
   9  -7  -2   13.70    5.10
   9  -7  -2   14.80    6.40
   9  -7  -2   22.40    6.00
  -9   7   2   15.80    6.10
  -9   7   2   16.70    6.60
   8  -7  -2    2.00    4.40
   8  -7  -2   -1.70    3.00
   8  -7  -2    1.40    3.70
  -8   7   2    0.30    3.90
  -8   7   2   -0.40    4.30
  -8   7   2   -0.70    3.70
   7  -7  -2   30.40    6.30
   7  -7  -2   33.50    5.80
   7  -7  -2   23.90    4.40
  -7   7   2   37.80    7.10
  -7   7   2   29.50    5.30
  -7   7   2   31.10    6.90
   6  -7  -2  169.38    9.70
   6  -7  -2  136.59   10.30
   6  -7  -2  166.28   10.70
  -6   7   2  192.68   13.00
  -6   7   2  166.38   12.20
  -6   7   2  150.98    9.10
   5  -7  -2    0.10    1.80
   5  -7  -2   -3.00    3.00
   5  -7  -2    4.50    3.60
   5  -7  -2   -2.10    1.90
  -5   7   2   -1.80    3.00
  -5   7   2   -3.70    2.90
  -5   7   2    1.30    2.70
  -5   7   2   -1.00    2.90
   4  -7  -2  110.89   10.40
   4  -7  -2  113.19    8.40
   4  -7  -2  133.59    9.60
  -4   7   2  132.89   10.10
  -4   7   2  120.59   10.30
  -4   7   2  107.29    8.50
   3  -7  -2   48.60    7.10
   3  -7  -2   44.60    6.20
   3  -7  -2   47.60    7.00
  -3   7   2   52.99    7.90
  -3   7   2   60.69    7.20
  -3   7   2   55.69    7.30
   2  -7  -2   30.80    6.10
   2  -7  -2   31.20    5.40
   2  -7  -2   28.50    5.90
  -2   7   2   24.60    5.10
  -2   7   2   24.00    5.30
  -2   7   2   24.10    5.70
   1  -7  -2   17.50    5.00
   1  -7  -2   25.70    4.90
   1  -7  -2    9.20    4.50
  -1   7   2   20.70    5.40
  -1   7   2   12.90    4.20
  -1   7   2   10.30    4.80
   0  -7  -2    5.20    4.60
   0  -7  -2    3.40    4.10
   0  -7  -2    3.40    3.30
   0   7   2    1.70    4.00
   0   7   2    6.70    4.20
   0   7   2    4.30    4.20
  -1  -7  -2   44.60    7.80
  -1  -7  -2   47.20    8.80
  -1  -7  -2   59.39    7.90
   1   7   2   54.29    8.80
   1   7   2   68.69    9.80
  -2  -7  -2   28.80    8.00
  -2  -7  -2   30.00    7.20
  -2  -7  -2   31.50    6.40
   2   7   2   30.00    7.60
   2   7   2   26.00    7.10
   9  -8  -2   26.00    6.40
   9  -8  -2   14.20    6.10
  -9   8   2   19.10    7.30
  -9   8   2   13.40    5.50
   8  -8  -2    3.90    3.90
   8  -8  -2   10.90    5.20
  -8   8   2    7.80    5.20
  -8   8   2    6.40    4.30
   7  -8  -2   14.20    5.60
   7  -8  -2   28.30    5.80
  -7   8   2   18.80    6.50
  -7   8   2   15.90    5.90
   6  -8  -2    2.50    3.40
   6  -8  -2    6.20    3.50
   6  -8  -2   10.70    4.80
  -6   8   2    5.10    4.60
  -6   8   2   10.00    3.90
  -6   8   2    7.70    5.20
   5  -8  -2    3.30    3.90
   5  -8  -2   -1.10    3.40
   5  -8  -2    2.70    3.30
  -5   8   2    0.00    3.90
  -5   8   2    0.20    3.90
  -5   8   2    1.60    2.90
   4  -8  -2   44.20    8.10
   4  -8  -2   41.20    6.90
   4  -8  -2   41.60    6.40
  -4   8   2   48.20    7.90
  -4   8   2   37.90    7.30
  -4   8   2   52.59    7.20
   3  -8  -2   88.29   10.00
   3  -8  -2   98.59   10.70
   3  -8  -2  107.89    9.80
  -3   8   2   78.29    9.00
  -3   8   2   79.09    9.50
  -3   8   2   78.69   10.80
   2  -8  -2   43.60    8.60
   2  -8  -2   50.79    8.40
   2  -8  -2   50.59    7.00
  -2   8   2   45.00    8.40
  -2   8   2   43.30    7.00
  -2   8   2   49.30    8.50
   1  -8  -2    2.10    4.90
   1  -8  -2    5.00    3.60
   1  -8  -2    4.60    4.30
  -1   8   2    7.50    5.20
  -1   8   2    2.20    4.00
  -1   8   2    1.00    4.50
   0  -8  -2   24.80    7.60
   0  -8  -2   33.80    8.00
   0  -8  -2   24.30    5.80
   0   8   2   36.80    8.10
   0   8   2   48.30    8.50
  -1  -8  -2    8.30    4.30
  -1  -8  -2    0.70    5.50
  -1  -8  -2    2.30    5.90
   1   8   2   11.30    6.30
   1   8   2    6.70    5.90
   9  -9  -2   26.20    7.40
   9  -9  -2   37.20    7.80
  -9   9   2   35.30    8.60
   8  -9  -2   28.20    7.30
   8  -9  -2   38.70    7.30
  -8   9   2   25.00    7.60
  -8   9   2   26.80    7.70
   7  -9  -2   -0.30    3.50
   7  -9  -2    1.00    4.30
  -7   9   2   -3.00    4.00
  -7   9   2   -0.70    4.40
   6  -9  -2    6.80    5.10
   6  -9  -2   11.40    4.50
   6  -9  -2   14.50    6.20
  -6   9   2   -2.80    4.70
  -6   9   2   -2.10    4.50
  -6   9   2    1.90    4.40
   5  -9  -2   28.40    7.20
   5  -9  -2   11.40    4.60
   5  -9  -2   25.80    6.60
  -5   9   2   22.00    5.60
  -5   9   2   18.00    6.40
  -5   9   2   34.90    7.60
   4  -9  -2   -0.60    5.30
   4  -9  -2   -1.20    4.30
   4  -9  -2    3.70    4.90
  -4   9   2    5.80    5.20
  -4   9   2   -1.30    3.70
  -4   9   2    0.50    5.10
   3  -9  -2   79.69    9.10
   3  -9  -2   89.89   11.50
   3  -9  -2   82.09   10.60
  -3   9   2   80.19   11.40
  -3   9   2   88.49   10.90
  -3   9   2   78.59   10.10
   2  -9  -2   33.80    7.80
   2  -9  -2   43.60    7.30
  -2   9   2   37.20    7.60
  -2   9   2   37.30    7.90
  -2   9   2   38.60    8.80
   1  -9  -2   -0.30    3.70
   1  -9  -2    2.00    5.30
   1  -9  -2   -5.00    5.60
  -1   9   2    4.90    5.70
  -1   9   2    6.80    5.50
   7 -10  -2   -3.90    3.60
   7 -10  -2    2.80    5.30
  -7  10   2    0.80    5.70
  -7  10   2   -1.50    5.20
   6 -10  -2   -1.90    4.80
   6 -10  -2    6.70    4.50
   6 -10  -2   -0.60    5.60
  -6  10   2    0.20    5.30
  -6  10   2    4.50    6.00
   5 -10  -2    3.40    5.30
   5 -10  -2   -5.50    5.00
   5 -10  -2    0.10    3.80
  -5  10   2   -5.20    5.20
  -5  10   2   -4.20    5.50
  -5  10   2   -1.70    4.40
   4 -10  -2   28.70    7.80
   4 -10  -2   28.70    7.80
   4 -10  -2   28.20    6.40
  -4  10   2   18.30    6.50
  -4  10   2   19.50    7.40
  -4  10   2   21.50    8.00
   3 -10  -2    7.70    5.30
   3 -10  -2    3.60    5.80
   3 -10  -2    9.00    7.10
  -3  10   2    2.30    6.70
  -3  10   2   20.50    7.70
  -3  10   2   17.20    6.60
  -2  10  -3    2.00    5.60
  -2  10  -3   -2.00    5.50
   2 -10   3   -0.70    6.00
   2 -10   3   -5.30    5.50
  -3  10  -3    6.60    5.70
  -3  10  -3    6.50    6.10
   3 -10   3    0.90    5.70
   3 -10   3    1.00    5.40
  -4  10  -3   45.10    9.00
  -4  10  -3   58.29    9.60
   4 -10   3   47.90   10.80
   4 -10   3   53.69   10.10
  -5  10  -3   32.60    8.40
  -5  10  -3   41.80    8.40
   5 -10   3   43.80    9.20
   5 -10   3   27.30    9.50
  -6  10  -3   13.10    6.00
  -6  10  -3   10.70    5.50
   6 -10   3   11.10    6.30
   6 -10   3   12.50    7.40
  -7  10  -3    6.40    6.40
   7 -10   3   16.90    8.00
   0   9  -3   -1.20    4.10
   0   9  -3    2.00    5.50
   0  -9   3    4.80    6.50
   0  -9   3    5.10    6.90
  -1   9  -3    6.00    5.10
  -1   9  -3    1.90    5.20
   1  -9   3   -4.20    6.10
   1  -9   3   -5.20    4.50
  -2   9  -3    3.10    3.80
  -2   9  -3    9.30    5.30
   2  -9   3    8.50    5.50
   2  -9   3    7.50    5.90
  -3   9  -3   -2.20    4.10
  -3   9  -3    2.90    4.60
   3  -9   3    3.70    5.00
   3  -9   3   10.70    6.00
  -4   9  -3   51.79    8.90
  -4   9  -3   61.29    9.30
   4  -9   3   62.69   10.50
   4  -9   3   63.69   10.70
  -5   9  -3   40.20    8.00
  -5   9  -3   57.19    8.60
   5  -9   3   49.80    6.20
   5  -9   3   58.99    9.50
   5  -9   3   62.29   10.30
  -6   9  -3   -0.30    4.90
  -6   9  -3    5.70    5.50
  -6   9  -3    1.30    4.00
   6  -9   3    2.10    3.00
   6  -9   3    0.20    5.00
   6  -9   3    0.60    4.30
  -7   9  -3   12.50    5.70
  -7   9  -3   11.60    6.20
   7  -9   3   16.40    4.70
   7  -9   3    9.80    5.40
  -8   9  -3   24.00    7.10
  -8   9  -3   18.30    7.30
   8  -9   3   40.30    7.40
   8  -9   3   23.10    7.00
   2   8  -3    5.60    5.60
   2   8  -3    6.50    5.50
  -2  -8   3    8.10    7.00
  -2  -8   3   11.60    6.90
  -2  -8   3   11.80    7.00
   1   8  -3    6.90    5.00
   1   8  -3    5.90    5.00
  -1  -8   3   -1.50    5.30
  -1  -8   3   -1.20    4.20
  -1  -8   3    8.00    6.50
   0   8  -3   46.30    8.40
   0   8  -3   45.10    8.10
   0  -8   3   41.30    8.60
   0  -8   3   61.29    9.90
  -1   8  -3   -1.60    3.30
  -1   8  -3    3.10    4.10
   1  -8   3   -2.20    4.00
   1  -8   3   -4.50    3.70
  -2   8  -3   46.20    7.40
  -2   8  -3   47.00    8.00
   2  -8   3   40.50    7.70
   2  -8   3   49.20    8.30
  -3   8  -3   82.49    9.80
  -3   8  -3   81.79   10.00
  -3   8  -3   80.89    7.70
   3  -8   3   68.59    9.30
   3  -8   3   78.09    6.40
   3  -8   3  102.69   11.40
  -4   8  -3   57.99    8.20
  -4   8  -3   50.99    6.50
  -4   8  -3   32.50    6.80
   4  -8   3   46.80    8.10
   4  -8   3   34.30    7.10
   4  -8   3   38.80    5.10
  -5   8  -3   57.59    8.60
  -5   8  -3   71.59    8.90
  -5   8  -3   75.69    8.60
   5  -8   3   77.39    9.70
   5  -8   3   97.59   10.70
   5  -8   3   74.79    7.40
  -6   8  -3   20.90    5.40
  -6   8  -3   21.30    5.00
  -6   8  -3   19.60    5.30
   6  -8   3   15.40    4.00
   6  -8   3   10.80    4.90
   6  -8   3   19.20    5.60
  -7   8  -3    2.30    5.00
  -7   8  -3   13.10    5.60
   7  -8   3   16.50    5.10
   7  -8   3   10.50    5.30
  -8   8  -3   29.00    6.90
  -8   8  -3   39.10    8.10
   8  -8   3   23.30    5.60
   8  -8   3   23.50    6.70
  -9   8  -3    8.60    6.60
  -9   8  -3    3.00    6.30
   9  -8   3    9.20    4.80
   9  -8   3   10.20    6.50
   3   7  -3   12.30    5.90
   3   7  -3    6.60    5.50
  -3  -7   3    5.10    5.80
  -3  -7   3    4.00    6.00
  -3  -7   3    8.00    5.40
   2   7  -3   -0.80    3.90
   2   7  -3    1.00    4.10
  -2  -7   3   -4.40    6.00
  -2  -7   3    1.00    4.10
  -2  -7   3    2.50    5.10
   1   7  -3   54.19    8.40
   1   7  -3   44.90    7.20
   1   7  -3   59.39    8.30
  -1  -7   3   72.19    9.40
  -1  -7   3   57.19    9.40
  -1  -7   3   60.49    9.90
   0   7  -3   42.30    7.20
   0   7  -3   54.09    8.00
   0   7  -3   46.70    5.70
   0  -7   3   67.59    9.50
   0  -7   3   37.10    6.60
   0  -7   3   41.00    5.80
  -1   7  -3    6.10    2.80
  -1   7  -3   -1.00    3.20
  -1   7  -3    3.10    3.20
   1  -7   3    8.90    4.90
   1  -7   3    4.20    2.40
   1  -7   3    0.90    3.30
  -2   7  -3   98.29    9.90
  -2   7  -3  114.69    7.50
  -2   7  -3  111.39    9.20
   2  -7   3  122.99   11.60
   2  -7   3  103.69    6.60
   2  -7   3  122.19    9.50
  -3   7  -3   33.60    5.30
  -3   7  -3   23.70    5.50
  -3   7  -3   35.90    6.10
   3  -7   3   35.90    6.80
   3  -7   3   41.20    6.90
   3  -7   3   44.60    4.80
  -4   7  -3   -3.00    2.40
  -4   7  -3    2.90    2.70
  -4   7  -3   -0.60    2.10
   4  -7   3    0.30    4.10
   4  -7   3    0.00    1.60
   4  -7   3    2.00    3.30
  -5   7  -3   20.60    4.70
  -5   7  -3   22.00    4.50
  -5   7  -3   15.80    4.30
   5  -7   3   20.20    5.50
   5  -7   3   21.10    4.00
   5  -7   3   18.80    5.80
  -6   7  -3   -0.10    3.30
  -6   7  -3    2.90    2.90
  -6   7  -3    1.50    3.60
   6  -7   3    6.10    4.00
   6  -7   3    0.70    2.60
   6  -7   3   -1.50    3.70
  -7   7  -3   13.10    4.60
  -7   7  -3   13.80    5.40
   7  -7   3   23.30    5.90
   7  -7   3   17.90    4.40
  -8   7  -3   29.60    7.50
  -8   7  -3   43.30    7.80
  -8   7  -3   33.90    7.90
   8  -7   3   28.40    6.20
   8  -7   3   31.60    6.70
   8  -7   3   29.90    7.30
  -9   7  -3   27.00    7.80
  -9   7  -3   16.50    6.30
  -9   7  -3    7.60    6.20
   9  -7   3   17.00    6.50
   9  -7   3   20.10    6.00
   9  -7   3   24.80    8.20
   4   6  -3    7.60    5.30
   4   6  -3    8.90    5.30
  -4  -6   3   11.20    5.60
  -4  -6   3   14.50    6.40
  -4  -6   3   15.70    7.30
  -4  -6   3    6.90    6.10
   3   6  -3    8.10    4.30
   3   6  -3   14.90    5.00
   3   6  -3    3.00    4.40
  -3  -6   3    7.40    4.50
  -3  -6   3    4.10    5.10
  -3  -6   3    5.70    5.30
   2   6  -3   49.10    7.10
   2   6  -3   43.00    6.30
   2   6  -3   46.60    7.40
  -2  -6   3   66.59    9.70
  -2  -6   3   37.50    5.30
  -2  -6   3   65.49    8.40
  -2  -6   3   74.79    9.80
   1   6  -3   23.10    4.70
   1   6  -3   41.20    6.70
   1   6  -3   33.50    4.80
  -1  -6   3   30.50    4.10
  -1  -6   3   30.50    5.90
  -1  -6   3   35.00    6.90
   0   6  -3    1.50    2.60
   0   6  -3    4.60    2.80
   0   6  -3    1.90    2.50
   0  -6   3    5.40    2.20
   0  -6   3    6.50    4.10
   0  -6   3    5.40    3.50
  -1   6  -3   15.30    4.00
  -1   6  -3   11.40    3.00
  -1   6  -3   13.20    3.90
   1  -6   3   17.70    4.60
   1  -6   3   11.70    2.50
   1  -6   3   13.30    3.90
  -2   6  -3   31.30    4.50
  -2   6  -3   32.00    5.50
  -2   6  -3   27.00    4.80
   2  -6   3   41.90    6.20
   2  -6   3   41.80    6.20
   2  -6   3   35.30    3.80
  -3   6  -3  220.88   11.30
  -3   6  -3  220.68   11.90
  -3   6  -3  218.88   10.70
   3  -6   3  232.58   12.10
   3  -6   3  209.18   11.80
   3  -6   3  217.98    9.40
  -4   6  -3   48.80    6.90
  -4   6  -3   54.19    6.20
  -4   6  -3   51.19    3.60
  -4   6  -3   59.29    6.50
   4  -6   3   63.79    5.90
   4  -6   3   43.70    6.20
   4  -6   3   56.89    7.20
  -5   6  -3   83.49    9.00
  -5   6  -3   81.79    6.40
  -5   6  -3   78.99    5.60
  -5   6  -3   80.39    8.30
   5  -6   3   77.69    6.20
   5  -6   3   82.79    7.00
   5  -6   3   90.69    9.40
  -6   6  -3   13.50    3.50
  -6   6  -3   16.70    4.80
  -6   6  -3   21.60    3.70
  -6   6  -3    9.40    4.20
   6  -6   3   14.20    3.90
   6  -6   3   12.90    4.80
   6  -6   3   14.30    3.50
   6  -6   3   16.40    3.90
  -7   6  -3   -2.40    3.20
  -7   6  -3   -2.20    3.50
  -7   6  -3    1.40    2.50
   7  -6   3   -2.50    4.00
   7  -6   3   -0.10    2.70
   7  -6   3    0.00    2.60
  -8   6  -3   28.00    7.20
  -8   6  -3   20.70    5.90
  -8   6  -3   22.20    6.00
   8  -6   3   20.60    6.00
   8  -6   3   20.30    5.40
   8  -6   3   26.10    6.80
  -9   6  -3   22.70    6.60
  -9   6  -3   36.80    8.40
  -9   6  -3   27.00    6.80
   9  -6   3   14.30    5.70
   9  -6   3   14.10    6.70
   9  -6   3   19.10    6.10
   5   5  -3   14.10    5.60
   5   5  -3   16.30    6.90
   5   5  -3   11.20    5.70
  -5  -5   3   12.50    7.40
  -5  -5   3   18.10    6.70
  -5  -5   3   11.40    5.80
  -5  -5   3   16.10    6.40
   4   5  -3   -1.20    3.60
   4   5  -3    1.70    3.80
   4   5  -3   -1.30    2.70
   4   5  -3   -0.90    3.50
  -4  -5   3    2.30    3.80
  -4  -5   3    3.00    3.90
  -4  -5   3    1.00    3.10
  -4  -5   3    1.10    4.10
  -4  -5   3    3.90    4.60
  -4  -5   3    7.30    4.80
   3   5  -3   86.49    8.40
   3   5  -3   99.69   10.20
   3   5  -3  108.59   10.50
   3   5  -3  108.39    8.80
   3   5  -3   92.19    7.30
  -3  -5   3   97.89   10.70
  -3  -5   3   92.29    8.60
  -3  -5   3   91.59    6.30
  -3  -5   3   75.99    6.70
  -3  -5   3   90.39   10.70
   2   5  -3   51.29    6.30
   2   5  -3   62.89    7.60
   2   5  -3   51.09    7.10
   2   5  -3   49.10    5.20
   2   5  -3   45.50    6.50
  -2  -5   3   51.59    5.20
  -2  -5   3   42.80    5.80
  -2  -5   3   52.09    7.70
  -2  -5   3   52.49    4.90
  -2  -5   3   59.99    8.30
   1   5  -3    4.20    2.60
   1   5  -3    2.80    2.50
   1   5  -3    3.10    2.30
   1   5  -3    2.60    1.70
  -1  -5   3    0.00    2.30
  -1  -5   3   -0.80    1.30
  -1  -5   3    2.70    1.70
  -1  -5   3    5.00    3.30
   0   5  -3    9.10    1.50
   0   5  -3    8.30    3.00
   0   5  -3   12.00    2.80
   0   5  -3   18.10    3.90
   0  -5   3   11.10    1.50
   0  -5   3   12.20    3.90
   0  -5   3   16.70    2.50
   0  -5   3    8.80    3.50
   0  -5   3   11.30    1.60
  -1   5  -3  102.09    7.20
  -1   5  -3  110.99    7.30
  -1   5  -3  100.79    6.10
   1  -5   3  105.99    7.20
   1  -5   3  100.99    5.10
   1  -5   3   96.19    7.50
  -2   5  -3  175.48    9.30
  -2   5  -3  182.48    8.90
  -2   5  -3  191.98   10.00
   2  -5   3  187.78    7.60
   2  -5   3  199.78   10.10
   2  -5   3  182.48   10.10
  -3   5  -3  168.48    9.50
  -3   5  -3  158.98    8.40
  -3   5  -3  171.98    6.20
  -3   5  -3  165.08    6.10
  -3   5  -3  159.58    8.60
   3  -5   3  155.08    7.30
   3  -5   3  158.58    9.20
   3  -5   3  163.48    9.30
  -4   5  -3    8.70    3.20
  -4   5  -3   13.90    3.70
  -4   5  -3   13.10    2.50
  -4   5  -3   16.00    3.00
   4  -5   3    8.40    2.20
   4  -5   3    7.90    3.50
   4  -5   3    9.90    3.20
  -5   5  -3   74.89    5.20
  -5   5  -3   93.79    9.10
  -5   5  -3   94.79    6.30
  -5   5  -3   88.29    7.30
   5  -5   3   75.99    7.20
   5  -5   3   96.19    7.60
   5  -5   3   79.69    6.10
   5  -5   3   78.69    6.20
  -6   5  -3    5.90    3.00
  -6   5  -3    0.50    2.60
  -6   5  -3    5.90    2.00
  -6   5  -3    4.50    3.20
   6  -5   3    3.10    3.60
   6  -5   3    2.80    3.10
   6  -5   3    3.50    2.20
   6  -5   3    0.40    2.70
  -7   5  -3   23.20    5.00
  -7   5  -3   31.10    6.10
  -7   5  -3   24.60    5.60
   7  -5   3   25.70    5.30
   7  -5   3   18.90    4.80
   7  -5   3   31.70    6.30
  -8   5  -3   15.50    5.30
  -8   5  -3    9.40    4.90
  -8   5  -3   27.30    6.10
   8  -5   3   16.30    4.90
   8  -5   3   14.70    5.80
   8  -5   3   13.30    5.00
  -9   5  -3   -2.30    4.30
  -9   5  -3    1.60    5.10
  -9   5  -3   -2.40    5.10
   9  -5   3   -2.10    5.20
   9  -5   3    3.50    4.20
   9  -5   3    0.40    6.30
   6   4  -3   16.60    6.30
   6   4  -3   28.30    7.10
   6   4  -3   16.80    6.20
  -6  -4   3   26.60    7.40
  -6  -4   3   12.00    5.10
  -6  -4   3   16.90    6.70
  -6  -4   3   17.20    6.70
   5   4  -3   18.00    5.30
   5   4  -3   13.40    4.90
   5   4  -3   13.90    4.70
   5   4  -3    5.50    4.70
   5   4  -3   17.80    5.20
  -5  -4   3   12.30    5.80
  -5  -4   3   17.40    5.70
  -5  -4   3    8.80    5.30
  -5  -4   3   15.10    5.20
  -5  -4   3    7.20    4.10
  -5  -4   3    7.40    4.60
  -5  -4   3   13.40    3.80
   4   4  -3   32.20    5.60
   4   4  -3   20.30    4.30
   4   4  -3   30.30    5.70
   4   4  -3   35.60    6.00
   4   4  -3   22.50    4.80
  -4  -4   3   20.80    3.80
  -4  -4   3   20.80    5.00
  -4  -4   3   23.40    4.70
  -4  -4   3   30.00    5.90
  -4  -4   3   37.60    7.00
  -4  -4   3   31.10    6.80
   3   4  -3  109.79    8.00
   3   4  -3  109.49    8.20
   3   4  -3  120.19    8.40
   3   4  -3  115.19    8.60
   3   4  -3  121.19    7.90
   3   4  -3  125.49    7.80
  -3  -4   3  115.09    6.50
  -3  -4   3  119.59    7.50
  -3  -4   3  131.59    9.80
  -3  -4   3  108.39   10.50
   2   4  -3   44.30    4.80
   2   4  -3   45.20    5.80
   2   4  -3   46.40    5.90
   2   4  -3   57.09    6.50
   2   4  -3   46.40    5.40
  -2  -4   3   42.90    4.10
  -2  -4   3   51.29    6.80
  -2  -4   3   47.60    6.20
  -2  -4   3   42.90    5.10
   1   4  -3    2.90    1.50
   1   4  -3   -1.40    1.40
   1   4  -3    2.10    1.90
   1   4  -3    0.90    1.70
  -1  -4   3    1.20    2.10
  -1  -4   3    0.00    2.00
  -1  -4   3    2.30    1.20
  -1  -4   3    1.70    2.30
   0   4  -3   66.69    5.40
   0   4  -3   64.99    4.70
   0   4  -3   65.09    5.40
   0   4  -3   77.99    3.40
   0  -4   3   79.69    6.40
   0  -4   3   67.09    3.30
   0  -4   3   69.89    3.70
   0  -4   3   75.09    5.60
  -1   4  -3   84.89    2.90
  -1   4  -3   86.99    6.00
  -1   4  -3   86.49    5.70
  -1   4  -3   75.09    5.00
   1  -4   3   77.79    6.00
   1  -4   3   79.39    3.90
   1  -4   3   73.49    5.50
   1  -4   3   80.89    2.80
  -2   4  -3   49.30    5.40
  -2   4  -3   46.60    4.80
  -2   4  -3   43.40    2.50
  -2   4  -3   43.00    4.60
  -2   4  -3   38.80    2.40
   2  -4   3   47.70    5.20
   2  -4   3   47.70    5.60
   2  -4   3   37.80    2.90
  -3   4  -3  401.36   13.90
  -3   4  -3  389.06   15.40
  -3   4  -3  416.06   13.10
  -3   4  -3  420.46   15.20
   3  -4   3  412.66   15.40
   3  -4   3  423.26   15.80
   3  -4   3  415.96   13.70
  -4   4  -3  277.37   12.40
  -4   4  -3  302.97   10.30
  -4   4  -3  294.27   11.30
  -4   4  -3  288.77   12.60
   4  -4   3  264.87   11.70
   4  -4   3  296.47   11.60
   4  -4   3  287.57   12.80
  -5   4  -3   43.80    3.10
  -5   4  -3   56.59    6.10
  -5   4  -3   51.79    6.00
  -5   4  -3   49.20    6.20
   5  -4   3   40.10    5.10
   5  -4   3   65.59    6.30
   5  -4   3   49.10    6.30
   5  -4   3   63.09    6.70
  -6   4  -3  105.69    8.20
  -6   4  -3  108.79    8.60
  -6   4  -3  120.69    8.70
   6  -4   3   98.99    7.80
   6  -4   3   95.09    8.00
   6  -4   3  106.19    8.70
   6  -4   3  101.09    7.20
  -7   4  -3  120.89    9.70
  -7   4  -3  108.09   10.60
  -7   4  -3  116.59   10.80
   7  -4   3  115.99    9.80
   7  -4   3   90.39   10.20
   7  -4   3  101.69    9.80
  -8   4  -3    2.10    4.30
  -8   4  -3   -5.10    3.40
  -8   4  -3    1.00    3.80
   8  -4   3    4.50    4.30
   8  -4   3   -3.80    3.90
   8  -4   3    1.20    3.20
  -9   4  -3   -0.20    4.40
  -9   4  -3    4.20    5.00
  -9   4  -3    3.80    4.90
   9  -4   3   -0.50    5.10
   9  -4   3    0.20    4.80
   9  -4   3    4.60    4.70
   7   3  -3   31.00    7.90
   7   3  -3   22.70    6.40
   7   3  -3   20.10    6.90
  -7  -3   3   11.00    6.90
  -7  -3   3   25.20    6.80
  -7  -3   3   31.60    5.90
  -7  -3   3   23.50    7.40
   6   3  -3   16.70    5.40
   6   3  -3   19.50    6.10
   6   3  -3   15.90    5.70
   6   3  -3   11.50    4.70
  -6  -3   3   18.00    4.80
  -6  -3   3   24.40    6.40
  -6  -3   3   18.20    7.30
  -6  -3   3   12.90    5.70
  -6  -3   3   22.40    5.70
  -6  -3   3    8.60    5.00
   5   3  -3   12.40    4.30
   5   3  -3    5.40    3.20
   5   3  -3   11.00    4.00
   5   3  -3    9.10    4.00
   5   3  -3    3.80    3.70
   5   3  -3    6.10    4.00
  -5  -3   3    9.10    2.90
  -5  -3   3    6.90    4.40
  -5  -3   3   13.70    4.70
  -5  -3   3   14.90    5.20
  -5  -3   3    4.50    3.60
  -5  -3   3    4.60    3.40
  -5  -3   3    5.30    3.50
   4   3  -3   17.00    3.90
   4   3  -3   23.30    4.50
   4   3  -3   14.60    3.80
   4   3  -3   24.80    4.90
   4   3  -3   35.30    5.10
   4   3  -3   20.00    4.40
  -4  -3   3   26.40    4.90
  -4  -3   3   19.60    4.90
  -4  -3   3   26.00    4.00
  -4  -3   3   19.10    3.90
  -4  -3   3   36.40    6.40
   3   3  -3   15.00    3.50
   3   3  -3   17.80    3.70
   3   3  -3   11.60    2.70
   3   3  -3    8.20    2.90
   3   3  -3   10.80    2.90
  -3  -3   3   15.30    4.00
  -3  -3   3   12.30    2.30
  -3  -3   3   17.50    3.40
  -3  -3   3    8.40    3.20
   2   3  -3  547.05   17.30
   2   3  -3  566.14   19.30
   2   3  -3  552.94   19.20
   2   3  -3  566.34   18.20
   2   3  -3  557.14   18.80
  -2  -3   3  588.74   16.60
  -2  -3   3  568.54   17.80
  -2  -3   3  533.15   19.40
  -2  -3   3  543.05   20.30
   1   3  -3   29.00    3.80
   1   3  -3   33.60    3.80
   1   3  -3   32.20    4.10
   1   3  -3   32.30    3.20
  -1  -3   3   27.90    4.20
  -1  -3   3   35.80    3.20
  -1  -3   3   40.80    4.90
  -1  -3   3   30.30    3.50
  -1  -3   3   31.30    2.20
   0   3  -3   36.20    2.30
   0   3  -3   39.60    4.30
   0   3  -3   37.40    3.70
   0   3  -3   33.20    1.80
   0   3  -3   41.40    4.40
   0  -3   3   44.40    4.90
   0  -3   3   36.90    2.10
   0  -3   3   36.20    2.40
   0  -3   3   41.10    4.10
   0  -3   3   33.40    1.90
   0  -3   3   39.80    4.60
  -1   3  -3   28.70    2.00
  -1   3  -3   31.30    3.50
  -1   3  -3   28.50    3.50
  -1   3  -3   26.10    1.90
  -1   3  -3   23.90    3.10
   1  -3   3   27.60    1.90
   1  -3   3   27.90    1.80
   1  -3   3   36.20    4.30
   1  -3   3   35.50    3.90
  -2   3  -3   93.89    4.80
  -2   3  -3   93.59    4.30
  -2   3  -3   86.49    5.30
  -2   3  -3  105.29    5.80
   2  -3   3   84.29    5.40
   2  -3   3   87.29    5.50
   2  -3   3   79.59    4.10
  -3   3  -3  196.08    9.20
  -3   3  -3  203.88    7.30
  -3   3  -3  209.68    8.40
  -3   3  -3  216.38    9.40
   3  -3   3  208.28    9.50
   3  -3   3  213.68    9.30
   3  -3   3  196.98    8.20
  -4   3  -3  200.08   10.00
  -4   3  -3  218.88    9.90
  -4   3  -3  207.98    6.60
  -4   3  -3  211.78    9.80
   4  -3   3  225.08   10.70
   4  -3   3  220.98    9.80
   4  -3   3  207.08    7.10
   4  -3   3  192.48    9.70
   4  -3   3  208.58    9.50
  -5   3  -3    5.80    2.60
  -5   3  -3    5.40    2.80
  -5   3  -3    7.30    2.80
   5  -3   3    6.80    2.70
   5  -3   3    8.90    3.10
   5  -3   3    8.50    3.30
   5  -3   3   10.60    2.80
  -6   3  -3  148.29    9.90
  -6   3  -3  144.39    9.20
  -6   3  -3  147.49    9.90
   6  -3   3  149.29   10.20
   6  -3   3  133.89    9.90
   6  -3   3  139.09    9.30
   6  -3   3  124.19    7.80
  -7   3  -3  137.89    9.80
  -7   3  -3  126.79   10.40
  -7   3  -3  127.59   11.70
   7  -3   3  111.19    9.10
   7  -3   3  131.59   12.40
   7  -3   3  133.09   10.90
  -8   3  -3   -0.10    3.50
  -8   3  -3    2.80    4.30
  -8   3  -3    8.00    4.70
   8  -3   3   -1.80    3.70
   8  -3   3    2.50    5.40
   8  -3   3   -0.50    3.40
  -9   3  -3    7.70    5.50
  -9   3  -3   16.20    6.40
  -9   3  -3   14.20    6.20
   9  -3   3   14.80    5.90
   9  -3   3    0.40    5.60
   9  -3   3   11.10    6.40
   8   2  -3   36.00    9.80
   8   2  -3   20.60    7.10
   8   2  -3   25.90    7.70
  -8  -2   3   26.60    8.40
  -8  -2   3   38.50    8.30
  -8  -2   3   23.00    7.60
   7   2  -3   34.60    6.90
   7   2  -3   36.90    7.40
   7   2  -3   44.60    8.70
  -7  -2   3   47.40    8.50
  -7  -2   3   46.00    7.50
  -7  -2   3   31.10    7.00
  -7  -2   3   25.70    7.20
   6   2  -3    1.80    4.00
   6   2  -3    2.90    3.90
   6   2  -3    3.20    3.70
   6   2  -3   -3.10    2.50
  -6  -2   3    1.80    4.00
  -6  -2   3    2.50    3.20
  -6  -2   3   -1.40    3.50
  -6  -2   3    3.60    4.10
  -6  -2   3    2.40    2.90
   5   2  -3   10.30    3.60
   5   2  -3    4.40    2.90
   5   2  -3    4.30    3.30
   5   2  -3    8.20    3.70
   5   2  -3    2.40    3.00
  -5  -2   3    6.80    4.00
  -5  -2   3    0.40    2.80
  -5  -2   3    8.00    3.80
  -5  -2   3    4.40    2.70
  -5  -2   3    7.00    3.60
   4   2  -3    7.40    3.00
   4   2  -3    8.60    2.90
   4   2  -3    4.20    2.50
   4   2  -3    8.40    2.90
   4   2  -3    9.00    2.70
  -4  -2   3   14.00    3.20
  -4  -2   3   10.70    3.70
  -4  -2   3   11.30    2.80
  -4  -2   3   13.80    3.90
   3   2  -3  188.08    9.10
   3   2  -3  176.88    9.10
   3   2  -3  181.98    8.30
   3   2  -3  188.68    9.20
   3   2  -3  177.68    7.90
   3   2  -3  187.58    8.90
  -3  -2   3  169.08    9.60
  -3  -2   3  175.88    9.80
  -3  -2   3  196.88    9.20
  -3  -2   3  189.88    7.70
   2   2  -3 1089.99   31.00
   2   2  -3 1158.68   29.70
   2   2  -3 1102.29   31.60
   2   2  -3 1070.39   31.40
   2   2  -3 1093.19   31.40
  -2  -2   3 1101.69   29.50
  -2  -2   3 1082.29   31.60
  -2  -2   3 1074.39   32.60
   1   2  -3  155.78    7.10
   1   2  -3  155.98    5.20
   1   2  -3  152.58    6.30
   1   2  -3  165.38    7.30
   1   2  -3  156.08    6.90
  -1  -2   3  154.98    4.90
  -1  -2   3  156.68    4.90
  -1  -2   3  153.18    7.30
  -1  -2   3  154.48    6.10
  -1  -2   3  161.38    7.80
   0   2  -3  175.18    7.10
   0   2  -3  169.38    6.10
   0   2  -3  171.48    7.00
   0   2  -3  178.28    7.30
   0  -2   3  180.38    7.70
   0  -2   3  164.88    6.60
   0  -2   3  174.08    7.70
   0  -2   3  174.18    6.20
  -1   2  -3   63.89    3.80
  -1   2  -3   55.99    3.20
  -1   2  -3   62.49    3.50
  -1   2  -3   62.09    2.70
  -1   2  -3   58.69    3.90
   1  -2   3   61.19    3.80
   1  -2   3   59.09    3.10
   1  -2   3   64.99    4.40
   1  -2   3   58.19    2.60
   1  -2   3   54.49    3.70
  -2   2  -3  116.79    6.10
  -2   2  -3  116.79    4.50
  -2   2  -3  126.69    5.70
  -2   2  -3  117.59    5.70
   2  -2   3  121.49    5.30
   2  -2   3  122.39    6.40
   2  -2   3  120.89    4.90
   2  -2   3  125.19    4.70
   2  -2   3  123.09    6.20
  -3   2  -3   73.29    5.10
  -3   2  -3   68.29    4.70
  -3   2  -3   71.69    4.50
   3  -2   3   66.99    5.10
   3  -2   3   65.79    2.70
   3  -2   3   62.99    4.40
   3  -2   3   71.19    4.90
   3  -2   3   59.29    2.50
  -4   2  -3  100.19    6.60
  -4   2  -3   84.79    5.70
  -4   2  -3   86.99    6.40
   4  -2   3   93.39    6.70
   4  -2   3   89.19    6.10
   4  -2   3  106.29    7.10
   4  -2   3   82.09    5.90
  -5   2  -3    2.70    2.20
  -5   2  -3    2.30    2.30
  -5   2  -3    8.90    3.20
   5  -2   3    4.30    2.50
   5  -2   3    2.50    2.20
   5  -2   3    3.10    2.50
   5  -2   3    2.90    2.70
  -6   2  -3   15.90    4.00
  -6   2  -3   19.90    4.80
  -6   2  -3   17.00    4.50
   6  -2   3   14.90    3.70
   6  -2   3   16.90    4.20
   6  -2   3   18.60    4.80
   6  -2   3   14.80    5.00
  -7   2  -3  115.79   11.10
  -7   2  -3  120.99    9.70
  -7   2  -3  120.29   11.60
   7  -2   3  123.49   12.50
   7  -2   3  133.49   10.50
   7  -2   3  113.79   11.40
  -8   2  -3   46.40    7.50
  -8   2  -3   25.40    6.60
  -8   2  -3   47.80    8.00
   8  -2   3   51.29    9.10
   8  -2   3   43.50    8.50
   8  -2   3   52.49    8.40
  -9   2  -3   10.30    5.80
  -9   2  -3   -3.50    5.10
   9  -2   3    5.10    5.20
   9  -2   3   -2.70    5.30
   9  -2   3    0.00    6.10
   8   1  -3   28.50    7.40
   8   1  -3   31.80    7.20
   8   1  -3   40.20    8.80
  -8  -1   3   27.90    7.80
  -8  -1   3   25.40    6.90
  -8  -1   3   47.80    9.20
   7   1  -3   36.30    7.50
   7   1  -3   26.80    6.40
  -7  -1   3   22.10    5.30
  -7  -1   3   36.50    7.30
  -7  -1   3   44.90    8.20
   6   1  -3   89.49    7.00
   6   1  -3   91.79   10.40
   6   1  -3   87.09    9.10
   6   1  -3   94.99    9.10
  -6  -1   3   94.09    6.90
  -6  -1   3  105.49   11.00
  -6  -1   3   82.69    9.80
  -6  -1   3   88.89    9.00
   5   1  -3    1.10    1.90
   5   1  -3    2.90    2.60
   5   1  -3    5.80    2.90
   5   1  -3    4.50    2.50
   5   1  -3    6.70    2.60
  -5  -1   3    0.50    1.90
  -5  -1   3    1.30    2.10
  -5  -1   3    6.10    3.30
  -5  -1   3    5.50    3.30
   4   1  -3   78.19    4.80
   4   1  -3   83.59    6.50
   4   1  -3   74.99    5.80
   4   1  -3   90.29    5.80
   4   1  -3   84.49    6.40
  -4  -1   3   75.59    5.20
  -4  -1   3   82.59    6.50
  -4  -1   3   91.59    8.60
   3   1  -3  465.15   15.70
   3   1  -3  472.15   14.70
   3   1  -3  446.56   13.50
   3   1  -3  458.85   16.10
   3   1  -3  460.35   15.90
  -3  -1   3  447.66   13.20
  -3  -1   3  433.56   16.60
  -3  -1   3  446.66   14.90
  -3  -1   3  445.86   16.50
   2   1  -3    4.20    1.70
   2   1  -3    5.20    1.60
   2   1  -3    4.50    1.60
   2   1  -3    7.00    1.30
  -2  -1   3    4.10    1.90
  -2  -1   3    7.20    1.40
  -2  -1   3    8.10    2.30
  -2  -1   3    5.30    1.30
  -2  -1   3    6.30    1.20
  -2  -1   3    5.30    1.80
   1   1  -3   76.49    4.00
   1   1  -3   76.19    3.90
   1   1  -3   75.39    3.00
   1   1  -3   77.39    4.20
   1   1  -3   73.09    2.60
  -1  -1   3   69.79    4.60
  -1  -1   3   69.39    3.00
  -1  -1   3   73.29    4.30
  -1  -1   3   72.99    2.60
   0   1  -3   90.59    3.10
   0   1  -3  104.19    4.50
   0   1  -3   95.29    4.50
   0   1  -3   97.69    4.30
   0   1  -3   94.69    3.00
   0  -1   3   99.79    4.10
   0  -1   3  101.09    4.40
   0  -1   3   98.59    4.90
   0  -1   3   93.29    4.90
  -1   1  -3  331.17   10.90
  -1   1  -3  333.97   10.80
  -1   1  -3  352.86   10.30
  -1   1  -3  335.67   10.10
   1  -1   3  325.77   10.30
   1  -1   3  346.17    9.80
   1  -1   3  335.17   11.70
   1  -1   3  327.87   11.00
   1  -1   3  325.47   10.10
   1  -1   3  313.57   10.00
  -2   1  -3  457.55   12.70
  -2   1  -3  505.75   15.50
  -2   1  -3  476.25   14.00
  -2   1  -3  481.35   15.30
   2  -1   3  467.25   14.10
   2  -1   3  480.15   13.00
   2  -1   3  465.45   12.50
   2  -1   3  487.65   15.10
   2  -1   3  473.35   15.80
   2  -1   3  481.15   15.70
  -3   1  -3  107.39    6.40
  -3   1  -3  119.99    6.70
  -3   1  -3  116.39    5.50
   3  -1   3  107.59    6.30
   3  -1   3  124.49    6.80
   3  -1   3  133.89    7.30
  -4   1  -3    3.40    2.00
  -4   1  -3    2.20    2.00
  -4   1  -3    3.50    1.90
   4  -1   3    5.90    2.50
   4  -1   3    3.00    2.20
   4  -1   3    1.50    2.00
   4  -1   3    2.90    2.00
  -5   1  -3   16.50    3.50
  -5   1  -3    9.90    3.40
  -5   1  -3   16.90    4.00
   5  -1   3   14.20    3.80
   5  -1   3   13.60    3.70
   5  -1   3    7.50    3.10
   5  -1   3   16.50    4.10
  -6   1  -3   28.60    4.90
  -6   1  -3   33.90    6.10
  -6   1  -3   25.80    5.10
   6  -1   3   18.60    4.10
   6  -1   3   30.90    6.00
   6  -1   3   28.30    6.40
   6  -1   3   33.80    5.80
  -7   1  -3   85.39    9.20
  -7   1  -3  111.39   11.10
  -7   1  -3   97.39   10.50
   7  -1   3   91.79   10.70
   7  -1   3   90.89   10.10
   7  -1   3  107.79   12.00
  -8   1  -3    7.60    5.10
  -8   1  -3    2.00    4.80
   8  -1   3   10.30    6.10
   8  -1   3    6.50    4.10
   8  -1   3   17.20    6.70
  -9   1  -3    8.90    5.80
   9  -1   3    6.20    5.60
   9   0  -3   -7.40    4.70
   9   0  -3    4.50    6.40
  -9   0   3    4.10    6.20
  -9   0   3    0.90    5.00
  -9   0   3   -0.20    5.90
   8   0  -3    7.70    4.80
   8   0  -3    2.80    4.30
   8   0  -3    0.30    4.60
  -8   0   3    0.80    4.50
  -8   0   3   -0.50    4.60
   7   0  -3   64.19    8.40
   7   0  -3   68.89    8.20
   7   0  -3   87.99   10.50
  -7   0   3   81.49   10.00
  -7   0   3   64.49    7.60
  -7   0   3   60.79    8.90
   6   0  -3   49.40    6.20
   6   0  -3   49.90    6.60
   6   0  -3   58.59    5.90
   6   0  -3   61.19    7.80
  -6   0   3   42.70    7.10
  -6   0   3   38.80    6.60
  -6   0   3   56.19    5.00
  -6   0   3   39.50    5.90
   5   0  -3  224.28   11.70
   5   0  -3  239.48   10.90
   5   0  -3  218.48    9.20
   5   0  -3  218.78   11.20
  -5   0   3  206.68   11.10
  -5   0   3  209.48    8.50
  -5   0   3  252.17   12.40
  -5   0   3  219.48   12.00
   4   0  -3  398.36   15.10
   4   0  -3  379.36   13.60
   4   0  -3  381.46   14.60
   4   0  -3  377.56   12.00
  -4   0   3  383.86   12.20
  -4   0   3  364.36   15.30
  -4   0   3  335.77   14.40
   3   0  -3    0.70    1.40
   3   0  -3    0.30    0.70
   3   0  -3   -0.40    1.30
   3   0  -3    0.50    1.10
   3   0  -3    0.70    0.90
  -3   0   3   -0.20    0.70
  -3   0   3   -0.70    1.30
  -3   0   3    0.40    1.00
  -3   0   3    0.90    1.60
   2   0  -3    9.10    1.70
   2   0  -3    6.30    1.60
   2   0  -3    5.00    1.50
   2   0  -3    6.30    1.20
   2   0  -3    7.30    1.70
  -2   0   3    7.40    2.00
  -2   0   3    6.70    1.50
  -2   0   3    7.80    2.00
   1   0  -3  339.97   12.00
   1   0  -3  340.07    9.80
   1   0  -3  333.37   10.40
   1   0  -3  341.97   11.00
   1   0  -3  333.97    9.10
   1   0  -3  354.06   10.80
  -1   0   3  342.87    9.70
  -1   0   3  338.67   11.10
  -1   0   3  338.57   11.80
  -1   0   3  349.87    9.20
  -1   0   3  345.37   11.10
   0   0  -3  119.49    4.10
   0   0  -3  122.89    4.50
   0   0  -3  121.49    5.50
   0   0  -3  128.59    5.00
   0   0  -3  124.19    5.40
   0   0   3  119.19    5.70
   0   0   3  127.79    5.00
   0   0   3  123.09    4.40
   0   0   3  114.29    5.40
   0   0   3  134.39    5.00
   0   0   3  122.09    4.20
  -1   0  -3 1174.38   32.50
  -1   0  -3 1258.37   33.50
  -1   0  -3 1228.18   32.60
  -1   0  -3 1239.88   30.80
  -1   0  -3 1268.57   32.90
   1   0   3 1273.87   34.40
   1   0   3 1248.58   33.30
   1   0   3 1212.48   30.90
   1   0   3 1258.57   33.70
   1   0   3 1250.37   32.70
  -2   0  -3  408.66   13.00
  -2   0  -3  457.55   15.20
  -2   0  -3  438.96   14.40
  -2   0  -3  451.45   12.60
   2   0   3  455.75   15.60
   2   0   3  464.05   12.80
   2   0   3  474.15   15.70
   2   0   3  451.55   15.10
   2   0   3  465.75   13.00
  -3   0  -3  460.85   15.90
  -3   0  -3  439.36   13.40
  -3   0  -3  466.25   14.20
  -3   0  -3  485.55   16.80
   3   0   3  465.55   13.10
   3   0   3  456.85   16.60
   3   0   3  451.85   16.30
   3   0   3  474.45   17.10
  -4   0  -3    2.20    1.60
  -4   0  -3    2.70    1.20
  -4   0  -3    2.50    2.20
  -4   0  -3    2.00    2.20
  -4   0  -3    1.80    1.30
   4   0   3    1.80    2.10
   4   0   3    0.70    2.10
   4   0   3    2.90    1.10
   4   0   3    4.70    2.40
   4   0   3    1.40    3.00
  -5   0  -3   57.49    6.80
  -5   0  -3   68.89    4.20
  -5   0  -3   68.19    7.40
  -5   0  -3   57.59    5.90
   5   0   3   64.99    6.70
   5   0   3   69.59    8.00
   5   0   3   60.59    7.20
   5   0   3   58.89    7.30
  -6   0  -3   39.80    6.60
  -6   0  -3   31.40    5.40
  -6   0  -3   41.00    6.40
   6   0   3   24.10    4.70
   6   0   3   34.60    6.70
   6   0   3   35.10    7.10
   6   0   3   33.80    6.10
  -7   0  -3    2.30    3.80
  -7   0  -3   -0.40    4.00
   7   0   3    2.90    4.00
   7   0   3   -0.30    5.10
   7   0   3    0.20    4.00
  -8   0  -3    2.70    4.80
  -8   0  -3    1.10    4.90
   8   0   3   -2.80    5.40
   8   0   3    3.30    5.20
   9  -1  -3   -0.20    4.80
   9  -1  -3    0.40    5.50
  -9   1   3    2.20    5.20
  -9   1   3    5.90    5.50
   8  -1  -3    8.30    4.60
   8  -1  -3    2.90    4.50
   8  -1  -3    3.20    4.10
  -8   1   3    3.70    4.70
  -8   1   3    8.60    5.30
   7  -1  -3   18.30    4.60
   7  -1  -3   16.90    4.30
   7  -1  -3   14.60    4.60
   7  -1  -3   18.50    5.10
  -7   1   3   16.00    5.20
  -7   1   3    6.40    3.10
  -7   1   3   17.60    5.30
   6  -1  -3   -1.20    1.70
   6  -1  -3    1.00    2.60
   6  -1  -3    1.80    2.80
   6  -1  -3    2.40    2.40
  -6   1   3    2.00    3.00
  -6   1   3    0.70    2.80
  -6   1   3    0.40    2.10
   5  -1  -3   26.90    3.30
   5  -1  -3   14.00    3.40
   5  -1  -3   30.20    4.10
   5  -1  -3   18.30    3.80
  -5   1   3   13.60    3.80
  -5   1   3   19.60    1.80
  -5   1   3   18.30    4.00
  -5   1   3   29.10    2.10
  -5   1   3   24.40    4.40
   4  -1  -3  309.27   11.50
   4  -1  -3  291.37    8.70
   4  -1  -3  302.37   12.00
   4  -1  -3  312.67   12.70
   4  -1  -3  291.47    9.70
  -4   1   3  302.17    9.10
  -4   1   3  303.87   12.50
  -4   1   3  281.77   12.40
  -4   1   3  313.17   13.30
  -4   1   3  299.27   10.20
  -4   1   3  291.27    8.60
   3  -1  -3  212.68    9.10
   3  -1  -3  218.08    8.30
   3  -1  -3  218.28    7.10
   3  -1  -3  210.98    8.60
   3  -1  -3  212.08    6.60
  -3   1   3  228.78    9.80
  -3   1   3  198.88    7.10
  -3   1   3  217.98    6.60
  -3   1   3  208.88    9.60
   2  -1  -3  110.69    5.10
   2  -1  -3  112.59    3.90
   2  -1  -3  126.49    5.30
   2  -1  -3  111.79    5.60
   2  -1  -3  126.59    5.30
   2  -1  -3  119.79    4.00
  -2   1   3  131.39    6.20
  -2   1   3  118.09    3.80
  -2   1   3  116.59    6.40
  -2   1   3  122.79    5.20
   1  -1  -3    8.90    1.30
   1  -1  -3    8.10    1.40
   1  -1  -3    7.00    1.10
   1  -1  -3    5.90    1.30
   1  -1  -3    7.00    1.60
   1  -1  -3    5.80    1.30
  -1   1   3    8.20    1.30
  -1   1   3    9.50    1.60
  -1   1   3    6.80    2.00
  -1   1   3    8.30    1.30
  -1   1   3    8.70    1.80
   0  -1  -3   34.20    2.90
   0  -1  -3   31.80    2.50
   0  -1  -3   32.60    2.10
   0  -1  -3   32.80    1.60
   0   1   3   31.30    2.10
   0   1   3   41.70    4.10
   0   1   3   40.00    3.80
   0   1   3   34.80    1.60
   0   1   3   33.00    2.70
  -1  -1  -3   76.59    4.70
  -1  -1  -3   90.69    4.10
  -1  -1  -3   82.09    4.50
   1   1   3   77.79    5.00
   1   1   3   84.19    5.10
   1   1   3   81.39    4.60
   1   1   3   79.59    5.20
  -2  -1  -3  138.59    5.10
  -2  -1  -3  146.49    6.60
  -2  -1  -3  146.59    4.90
  -2  -1  -3  155.38    7.10
  -2  -1  -3  129.49    7.20
   2   1   3  135.99    7.50
   2   1   3  130.99    7.50
   2   1   3  147.89    6.40
   2   1   3  145.19    7.80
  -3  -1  -3   88.29    5.90
  -3  -1  -3   94.89    6.60
  -3  -1  -3   87.39    5.90
  -3  -1  -3   81.29    4.50
   3   1   3   87.79    4.80
   3   1   3   90.59    7.00
   3   1   3   84.09    6.50
   3   1   3   87.29    6.60
  -4  -1  -3  123.89    8.50
  -4  -1  -3  116.29    7.90
  -4  -1  -3  114.99    7.70
  -4  -1  -3  115.09    6.50
   4   1   3  117.29    8.40
   4   1   3  107.39    8.30
   4   1   3  115.39    5.80
   4   1   3   98.99    7.80
  -5  -1  -3  107.99    7.30
  -5  -1  -3  126.99    9.30
  -5  -1  -3  120.09    9.40
  -5  -1  -3  121.89    8.70
   5   1   3   98.29    9.70
   5   1   3   98.49    9.90
   5   1   3  108.19    8.70
  -6  -1  -3   29.50    6.20
  -6  -1  -3   52.09    7.70
  -6  -1  -3   42.20    6.60
   6   1   3   35.20    6.50
   6   1   3   27.70    6.00
   6   1   3   33.90    6.70
  -7  -1  -3    3.70    4.10
  -7  -1  -3    3.70    4.50
  -7  -1  -3    1.10    4.00
   7   1   3    7.40    6.20
   7   1   3    2.80    4.40
   9  -2  -3   13.30    6.50
   9  -2  -3   12.30    5.20
  -9   2   3   14.70    6.20
  -9   2   3    7.00    6.20
   8  -2  -3   22.50    5.30
   8  -2  -3   10.80    5.00
  -8   2   3   25.70    6.80
  -8   2   3   27.30    6.30
   7  -2  -3   -1.00    2.20
   7  -2  -3   -0.30    2.60
   7  -2  -3    0.30    2.90
   7  -2  -3    2.10    2.90
  -7   2   3    1.20    2.50
  -7   2   3    0.70    3.10
  -7   2   3   -0.20    3.20
   6  -2  -3    1.10    2.40
   6  -2  -3    2.90    2.30
   6  -2  -3    0.40    2.00
   6  -2  -3    2.20    2.00
  -6   2   3    0.80    1.90
  -6   2   3    2.00    2.70
  -6   2   3   -0.40    2.10
   5  -2  -3   12.10    2.60
   5  -2  -3   10.50    3.00
   5  -2  -3   20.50    3.80
   5  -2  -3   13.80    2.90
  -5   2   3   19.70    4.20
  -5   2   3   18.90    3.80
  -5   2   3   21.20    4.20
   4  -2  -3  301.27   11.50
   4  -2  -3  296.07   10.00
   4  -2  -3  298.77   11.60
   4  -2  -3  307.77   12.40
   4  -2  -3  282.17    8.50
  -4   2   3  298.97   12.00
  -4   2   3  282.17   12.50
  -4   2   3  298.57    8.50
  -4   2   3  302.57   12.90
   3  -2  -3  120.29    6.10
   3  -2  -3  122.69    6.40
   3  -2  -3  130.49    5.30
   3  -2  -3  127.09    6.00
   3  -2  -3  121.29    5.30
  -3   2   3  115.49    6.70
  -3   2   3  144.79    6.50
  -3   2   3  123.39    5.10
  -3   2   3  124.19    7.30
   2  -2  -3   12.30    1.90
   2  -2  -3    6.90    1.80
   2  -2  -3   16.50    2.40
   2  -2  -3   12.00    1.60
  -2   2   3   18.10    3.30
  -2   2   3   16.00    2.70
  -2   2   3   14.00    2.20
  -2   2   3   13.40    1.70
   1  -2  -3  181.58    7.20
   1  -2  -3  184.98    5.50
   1  -2  -3  169.68    7.20
   1  -2  -3  182.28    7.40
   1  -2  -3  184.28    7.00
  -1   2   3  170.88    7.70
  -1   2   3  188.28    8.60
  -1   2   3  181.78    6.80
  -1   2   3  191.08    7.30
  -1   2   3  172.38    5.50
   0  -2  -3    0.30    1.00
   0  -2  -3    0.20    0.70
   0  -2  -3   -0.20    1.00
   0  -2  -3    1.10    0.60
   0   2   3    0.30    1.20
   0   2   3    0.70    0.60
   0   2   3    0.30    0.60
   0   2   3    0.50    1.30
   0   2   3    3.30    1.50
  -1  -2  -3    0.20    1.30
  -1  -2  -3    2.10    0.80
  -1  -2  -3    0.80    1.50
  -1  -2  -3    3.50    1.20
   1   2   3    4.50    1.80
   1   2   3    4.70    2.10
   1   2   3    3.60    2.00
   1   2   3    1.80    0.80
  -2  -2  -3  104.89    6.40
  -2  -2  -3  121.89    7.30
  -2  -2  -3  103.09    4.90
  -2  -2  -3  104.59    5.60
   2   2   3  111.19    4.60
   2   2   3  104.59    7.20
   2   2   3  118.49    7.50
   2   2   3  111.09    7.40
   2   2   3  113.59    6.50
  -3  -2  -3   31.00    4.50
  -3  -2  -3   27.70    4.40
  -3  -2  -3   31.00    4.20
  -3  -2  -3   35.00    3.80
   3   2   3   26.30    4.60
   3   2   3   32.70    4.00
   3   2   3   36.70    5.30
   3   2   3   29.80    4.90
  -4  -2  -3   23.90    4.50
  -4  -2  -3   18.40    4.50
  -4  -2  -3   18.30    3.50
  -4  -2  -3   16.50    3.80
   4   2   3   22.80    5.00
   4   2   3   28.90    5.30
   4   2   3   18.00    3.60
   4   2   3   26.20    5.60
  -5  -2  -3   75.09    8.00
  -5  -2  -3   65.79    7.70
  -5  -2  -3   59.79    7.90
   5   2   3   71.49    9.40
   5   2   3   77.89    8.70
   5   2   3   80.29    9.40
  -6  -2  -3    7.20    4.20
  -6  -2  -3    8.60    4.50
  -6  -2  -3    7.60    4.40
   6   2   3    8.20    4.80
   6   2   3   17.50    6.00
   6   2   3    9.20    5.20
  -7  -2  -3    6.50    4.70
  -7  -2  -3    4.00    5.20
  -7  -2  -3    4.40    5.30
   7   2   3    8.70    7.70
   7   2   3    4.60    5.40
  10  -3  -3    7.30    5.80
  10  -3  -3   11.40    7.00
 -10   3   3    2.00    5.80
 -10   3   3   10.50    6.90
   9  -3  -3  151.78   12.30
   9  -3  -3  174.88   15.10
  -9   3   3  169.78   13.50
  -9   3   3  141.89   14.40
   8  -3  -3   17.00    4.50
   8  -3  -3   26.60    6.30
  -8   3   3   16.50    5.00
  -8   3   3   16.80    6.20
  -8   3   3   27.80    6.30
   7  -3  -3    3.20    3.20
   7  -3  -3    1.90    2.60
   7  -3  -3    5.60    3.30
  -7   3   3    5.20    3.20
  -7   3   3    3.40    2.70
  -7   3   3    3.70    3.20
   6  -3  -3   10.00    3.20
   6  -3  -3   15.10    3.60
   6  -3  -3    9.00    2.90
   6  -3  -3   17.90    3.60
  -6   3   3   16.00    4.20
  -6   3   3   12.40    3.80
  -6   3   3    9.60    3.50
   5  -3  -3    3.80    0.90
   5  -3  -3    3.70    0.80
   5  -3  -3    4.10    2.20
   5  -3  -3    4.10    2.00
   5  -3  -3    5.50    2.20
   5  -3  -3    6.10    2.30
  -5   3   3    1.30    2.10
  -5   3   3    4.80    2.40
  -5   3   3    2.90    2.40
   4  -3  -3  332.77   13.10
   4  -3  -3  332.27   12.40
   4  -3  -3  358.06   13.20
   4  -3  -3  353.76   12.10
  -4   3   3  336.87   14.30
  -4   3   3  339.17   10.70
  -4   3   3  368.46   14.60
  -4   3   3  341.87   12.80
   3  -3  -3  276.87   10.20
   3  -3  -3  277.87    9.50
   3  -3  -3  278.47   10.70
   3  -3  -3  256.87   10.70
  -3   3   3  283.67    9.80
  -3   3   3  276.87   11.50
  -3   3   3  268.87   12.10
  -3   3   3  292.47   10.10
   2  -3  -3   -0.30    1.20
   2  -3  -3    0.40    0.70
   2  -3  -3   -3.50    1.20
   2  -3  -3    1.10    1.10
  -2   3   3    0.10    0.70
  -2   3   3    1.70    0.80
  -2   3   3    0.20    1.30
  -2   3   3    0.30    1.50
  -2   3   3    2.20    1.50
   1  -3  -3    5.70    1.90
   1  -3  -3    5.40    1.70
   1  -3  -3    2.80    1.70
  -1   3   3    2.60    1.70
  -1   3   3    1.90    1.40
  -1   3   3    5.70    2.00
  -1   3   3    4.50    1.60
   0  -3  -3  319.17   12.00
   0  -3  -3  325.67    8.90
   0  -3  -3  319.07   12.30
   0  -3  -3  326.27   11.90
   0   3   3  346.87   13.20
   0   3   3  331.07   13.40
   0   3   3  332.17   13.50
   0   3   3  314.77   10.40
  -1  -3  -3  144.39    7.40
  -1  -3  -3  135.29    5.60
  -1  -3  -3  129.59    7.50
  -1  -3  -3  124.09    7.20
   1   3   3  132.99    5.60
   1   3   3  149.29    8.40
   1   3   3  140.29    8.60
   1   3   3  130.59    7.80
  -2  -3  -3   -0.10    1.40
  -2  -3  -3    1.50    1.60
  -2  -3  -3    0.40    1.90
  -2  -3  -3    0.30    1.80
   2   3   3    4.00    3.10
   2   3   3    1.40    2.00
   2   3   3    0.90    1.10
   2   3   3    1.70    2.50
   2   3   3    1.30    2.20
  -3  -3  -3   -1.40    2.40
  -3  -3  -3    0.50    2.20
  -3  -3  -3    1.90    2.00
  -3  -3  -3   -1.60    2.10
   3   3   3   -0.10    2.00
   3   3   3    1.40    3.00
   3   3   3   -1.30    2.30
   3   3   3    1.30    1.90
   3   3   3    0.10    2.70
  -4  -3  -3   98.29    8.00
  -4  -3  -3   88.49    8.20
  -4  -3  -3   87.89    8.90
   4   3   3   91.29    9.90
   4   3   3   96.29    7.10
   4   3   3   91.69    9.50
   4   3   3  101.59   10.20
  -5  -3  -3   13.40    4.50
  -5  -3  -3   14.30    4.40
  -5  -3  -3   23.50    5.90
   5   3   3   15.60    5.60
   5   3   3   18.20    5.90
   5   3   3   27.90    7.20
  -6  -3  -3   86.49   15.10
  -6  -3  -3   71.29    9.70
  -6  -3  -3   53.09    8.00
   6   3   3   69.99   10.30
   6   3   3   47.30    9.20
   6   3   3   44.60    9.00
  10  -4  -3   14.30    6.80
  10  -4  -3    1.50    4.20
 -10   4   3   10.00    6.40
 -10   4   3   13.00    7.20
   9  -4  -3   13.40    5.00
   9  -4  -3   22.10    6.30
  -9   4   3   25.70    6.80
  -9   4   3   23.20    7.30
   8  -4  -3   87.79    9.40
   8  -4  -3   75.59    9.30
   8  -4  -3   76.59    8.20
  -8   4   3   62.09    9.30
  -8   4   3   81.29    9.90
  -8   4   3   67.89    8.10
   7  -4  -3    8.40    3.70
   7  -4  -3    6.50    3.20
   7  -4  -3   11.70    3.80
  -7   4   3    3.30    2.90
  -7   4   3    3.00    3.30
  -7   4   3    6.00    4.30
   6  -4  -3  104.89    7.50
   6  -4  -3  103.49    7.10
   6  -4  -3  113.49    8.40
  -6   4   3  103.39    7.60
  -6   4   3  120.59    8.60
  -6   4   3   94.39    9.50
   5  -4  -3   91.39    6.60
   5  -4  -3   94.69    6.70
   5  -4  -3  109.39    6.70
   5  -4  -3   96.29    4.70
  -5   4   3   90.59    7.60
  -5   4   3   94.49    4.60
  -5   4   3   99.69    6.60
  -5   4   3  100.09    7.80
   4  -4  -3   97.69    6.20
   4  -4  -3  100.29    6.30
   4  -4  -3   86.79    6.20
  -4   4   3  101.59    5.70
  -4   4   3  106.59    7.50
  -4   4   3  100.19    7.50
  -4   4   3   92.19    5.20
   3  -4  -3  632.94   19.60
   3  -4  -3  629.74   20.10
   3  -4  -3  618.44   20.60
  -3   4   3  601.34   22.20
  -3   4   3  637.54   18.00
  -3   4   3  633.74   20.10
  -3   4   3  659.73   21.40
   2  -4  -3   71.79    6.30
   2  -4  -3   75.49    5.40
   2  -4  -3   70.79    4.60
  -2   4   3   68.19    2.20
  -2   4   3   71.49    6.20
  -2   4   3   69.09    2.20
  -2   4   3   75.19    5.60
  -2   4   3   70.89    5.10
   1  -4  -3  188.38    9.20
   1  -4  -3  211.78    8.70
   1  -4  -3  191.18    9.10
  -1   4   3  195.58   10.60
  -1   4   3  170.78    8.20
  -1   4   3  223.78   10.50
  -1   4   3  194.28    9.60
   0  -4  -3  522.35   13.70
   0  -4  -3  487.95   13.60
   0  -4  -3  560.64   19.00
   0  -4  -3  559.64   17.90
   0  -4  -3  517.15   18.20
   0   4   3  544.15   20.20
   0   4   3  535.65   16.90
   0   4   3  563.04   19.70
   0   4   3  604.54   20.90
  -1  -4  -3   41.10    5.20
  -1  -4  -3   38.40    5.50
  -1  -4  -3   40.60    4.90
  -1  -4  -3   40.70    3.00
   1   4   3   36.60    3.90
   1   4   3   50.19    6.30
   1   4   3   54.59    6.70
   1   4   3   45.10    6.20
  -2  -4  -3   -1.60    2.10
  -2  -4  -3    6.40    2.90
  -2  -4  -3    2.70    1.80
  -2  -4  -3    2.50    2.70
   2   4   3    7.20    3.60
   2   4   3    2.10    3.10
   2   4   3    2.50    2.10
   2   4   3   -1.30    2.30
  -3  -4  -3  140.79    9.70
  -3  -4  -3  123.89    9.50
  -3  -4  -3  154.48    9.90
  -3  -4  -3  128.59    8.10
   3   4   3  154.58   11.20
   3   4   3  141.69    9.70
   3   4   3  141.39   11.00
  -4  -4  -3    6.60    3.80
  -4  -4  -3   -2.40    3.40
  -4  -4  -3    4.10    3.70
   4   4   3   -0.70    3.50
   4   4   3    0.90    4.10
   4   4   3    2.20    3.80
   4   4   3    0.00    4.20
  -5  -4  -3   33.30    7.30
  -5  -4  -3   35.00    6.60
  -5  -4  -3   52.99    8.60
   5   4   3   32.60    7.70
   5   4   3   48.60    8.50
   5   4   3   30.40    7.50
  10  -5  -3    9.90    4.40
  10  -5  -3    8.60    5.90
 -10   5   3   -3.90    5.80
 -10   5   3    2.30    5.50
   9  -5  -3    7.30    4.80
   9  -5  -3   10.60    4.50
  -9   5   3   12.20    5.90
  -9   5   3    5.50    5.30
   8  -5  -3   71.29    8.80
   8  -5  -3   51.29    7.20
   8  -5  -3   62.99    7.90
  -8   5   3   61.29    8.90
  -8   5   3   64.69    8.20
  -8   5   3   65.89    8.60
   7  -5  -3    0.70    2.60
   7  -5  -3   -0.10    2.50
   7  -5  -3   -1.80    2.90
  -7   5   3    1.20    2.80
  -7   5   3   -1.30    2.80
  -7   5   3    2.10    3.00
   6  -5  -3   69.09    7.40
   6  -5  -3   57.99    4.10
   6  -5  -3   64.29    7.00
   6  -5  -3   65.89    7.10
  -6   5   3   56.19    7.10
  -6   5   3   64.29    6.70
  -6   5   3   51.79    7.10
   5  -5  -3   42.80    5.70
   5  -5  -3   47.10    4.60
   5  -5  -3   46.70    5.70
   5  -5  -3   35.20    4.70
  -5   5   3   46.20    6.60
  -5   5   3   44.80    4.30
  -5   5   3   47.70    6.50
  -5   5   3   43.50    5.00
   4  -5  -3  358.06   13.60
   4  -5  -3  368.66   14.70
   4  -5  -3  355.06   14.80
  -4   5   3  373.06   12.40
  -4   5   3  358.96   13.60
  -4   5   3  374.16   16.60
  -4   5   3  368.06   15.80
   3  -5  -3   16.00    3.60
   3  -5  -3   15.40    3.40
   3  -5  -3   12.10    2.60
  -3   5   3    8.90    1.50
  -3   5   3   13.90    3.60
  -3   5   3   13.90    1.70
  -3   5   3    6.10    2.90
  -3   5   3   13.70    3.50
   2  -5  -3   22.70    4.00
   2  -5  -3   25.10    3.40
   2  -5  -3   20.10    4.00
  -2   5   3   21.80    4.50
  -2   5   3   17.90    4.20
  -2   5   3   21.00    4.10
   1  -5  -3   10.20    3.40
   1  -5  -3   14.70    3.00
   1  -5  -3   16.80    3.60
  -1   5   3   11.40    3.90
  -1   5   3    6.80    3.20
  -1   5   3   17.60    3.60
   0  -5  -3   75.69    5.80
   0  -5  -3   78.79    7.80
   0  -5  -3   78.89    7.30
   0   5   3   71.79    5.70
   0   5   3   68.99    8.10
   0   5   3   82.39    8.20
   0   5   3   82.59    8.60
  -1  -5  -3  106.49    7.80
  -1  -5  -3   81.59    8.40
  -1  -5  -3   97.79    7.40
   1   5   3   97.29    8.40
   1   5   3  100.69   10.10
   1   5   3   94.49    6.10
   1   5   3   97.09    9.40
  -2  -5  -3   18.50    4.10
  -2  -5  -3   12.30    4.60
  -2  -5  -3   33.00    5.40
   2   5   3   22.50    5.60
   2   5   3   24.30    5.30
   2   5   3   32.70    6.70
  -3  -5  -3    1.20    3.40
  -3  -5  -3   -0.30    3.80
  -3  -5  -3    0.80    3.30
   3   5   3    8.20    4.80
   3   5   3    6.90    5.20
   3   5   3    3.40    4.70
  -4  -5  -3   36.40    6.70
  -4  -5  -3   19.60    6.20
  -4  -5  -3   37.60    6.80
   4   5   3   38.80    7.50
   4   5   3   58.49    9.60
   4   5   3   28.00    7.60
  10  -6  -3    1.80    4.40
  10  -6  -3    1.60    4.90
 -10   6   3    8.90    6.40
 -10   6   3    1.70    5.50
   9  -6  -3   -0.30    3.70
   9  -6  -3   -2.80    3.20
  -9   6   3   -1.80    4.50
  -9   6   3    0.70    4.90
   8  -6  -3    5.60    3.50
   8  -6  -3   12.30    4.90
   8  -6  -3    6.40    4.40
  -8   6   3    7.10    4.10
  -8   6   3    4.10    4.10
  -8   6   3   -0.70    3.60
   7  -6  -3   -1.10    3.30
   7  -6  -3   -0.80    2.70
   7  -6  -3   -1.90    2.20
  -7   6   3   -3.00    3.40
  -7   6   3    0.70    2.70
  -7   6   3    4.10    4.00
   6  -6  -3    5.90    2.80
   6  -6  -3   10.50    3.00
   6  -6  -3    3.60    3.80
   6  -6  -3   11.80    3.70
  -6   6   3    8.30    2.50
  -6   6   3    6.10    4.00
  -6   6   3    5.50    4.00
  -6   6   3    4.50    2.90
   5  -6  -3   63.39    6.20
   5  -6  -3   73.59    6.30
   5  -6  -3   98.49    8.80
   5  -6  -3   77.89    8.00
  -5   6   3   51.59    7.20
  -5   6   3   74.39    8.70
  -5   6   3   83.69    6.20
  -5   6   3   70.19    5.40
   4  -6  -3  106.79    6.50
   4  -6  -3  105.49    7.90
   4  -6  -3  100.29    7.90
  -4   6   3  127.69    9.10
  -4   6   3  117.29    5.70
  -4   6   3  122.49    7.80
  -4   6   3  115.79    9.40
   3  -6  -3   23.10    4.40
   3  -6  -3   23.90    4.90
   3  -6  -3   26.90    3.70
  -3   6   3   23.50    5.30
  -3   6   3   31.80    5.40
  -3   6   3   27.40    4.80
   2  -6  -3   22.50    4.70
   2  -6  -3   23.20    3.40
   2  -6  -3   21.10    4.30
  -2   6   3   25.80    4.70
  -2   6   3   25.70    5.40
  -2   6   3   17.20    4.40
   1  -6  -3    3.20    2.70
   1  -6  -3    1.90    2.30
   1  -6  -3    3.40    3.00
  -1   6   3    6.60    3.00
  -1   6   3   -0.40    2.80
  -1   6   3    1.80    3.00
   0  -6  -3   18.20    5.20
   0  -6  -3   25.00    4.30
   0  -6  -3   17.00    4.30
   0   6   3   19.20    5.30
   0   6   3   16.90    4.90
   0   6   3   12.30    3.60
  -1  -6  -3   76.99    8.40
  -1  -6  -3   86.49    7.60
  -1  -6  -3   63.99    8.30
   1   6   3   65.99    8.70
   1   6   3   82.79   10.50
   1   6   3   54.69    8.20
  -2  -6  -3   36.10    6.10
  -2  -6  -3   31.00    6.70
   2   6   3   11.20    5.20
   2   6   3   32.20    7.00
   2   6   3   32.10    7.50
  -3  -6  -3   64.79    8.90
  -3  -6  -3   23.60    6.40
   3   6   3   32.70    8.70
   3   6   3   37.30    7.70
   3   6   3   37.90    8.30
  10  -7  -3   13.10    7.00
  10  -7  -3    6.90    5.00
 -10   7   3   10.10    6.40
 -10   7   3    5.90    6.30
   9  -7  -3   -1.60    3.70
   9  -7  -3    3.70    3.00
   9  -7  -3    3.10    5.70
  -9   7   3    8.20    5.80
  -9   7   3    3.10    4.80
   8  -7  -3    1.10    3.20
   8  -7  -3   13.20    5.30
   8  -7  -3    5.00    4.30
  -8   7   3    8.90    5.00
  -8   7   3    0.70    4.10
  -8   7   3   -0.50    3.60
   7  -7  -3   21.40    5.80
   7  -7  -3   21.00    5.20
   7  -7  -3   16.00    4.40
  -7   7   3   19.70    5.70
  -7   7   3   18.50    6.00
  -7   7   3   17.50    4.80
   6  -7  -3    0.60    2.70
   6  -7  -3   -0.20    2.80
   6  -7  -3    6.50    3.50
   6  -7  -3   -2.20    2.40
  -6   7   3    2.30    4.50
  -6   7   3   -1.50    3.40
  -6   7   3   -0.20    2.60
   5  -7  -3  190.08   11.70
   5  -7  -3  206.88   11.40
   5  -7  -3  204.58   12.70
  -5   7   3  212.28   14.10
  -5   7   3  211.18   11.10
  -5   7   3  225.08   13.60
   4  -7  -3    1.60    2.90
   4  -7  -3    6.80    3.90
   4  -7  -3   -0.70    1.90
   4  -7  -3   -7.20    3.10
  -4   7   3    2.50    3.90
  -4   7   3   -0.60    3.30
  -4   7   3   -0.90    2.60
   3  -7  -3   31.00    5.40
   3  -7  -3   36.50    6.30
   3  -7  -3   21.10    5.40
  -3   7   3   26.00    5.40
  -3   7   3   28.20    5.40
  -3   7   3   35.30    7.00
   2  -7  -3   -3.30    2.70
   2  -7  -3   -1.50    2.30
  -2   7   3   -0.80    2.90
  -2   7   3   -1.60    3.80
  -2   7   3    0.70    2.80
   1  -7  -3    4.50    3.10
   1  -7  -3    7.20    4.40
  -1   7   3    4.30    3.90
  -1   7   3    6.00    4.60
  -1   7   3    4.50    3.70
   0  -7  -3    2.90    5.10
   0  -7  -3    4.70    3.80
   0   7   3    5.90    5.10
   0   7   3    6.10    4.70
  -1  -7  -3    6.70    5.00
  -1  -7  -3   18.00    5.40
   1   7   3   18.10    6.70
   1   7   3   18.50    6.40
  -2  -7  -3   -4.90    4.60
  -2  -7  -3   -0.10    4.70
  -2  -7  -3   -1.50    5.70
   2   7   3    2.90    5.60
   2   7   3    2.20    5.20
   9  -8  -3    2.80    4.20
   9  -8  -3    3.30    5.70
  -9   8   3    6.10    6.20
   8  -8  -3    4.10    4.00
   8  -8  -3    0.90    4.90
  -8   8   3    1.30    4.50
  -8   8   3   -0.40    4.60
   7  -8  -3    7.10    4.10
   7  -8  -3    3.30    4.20
  -7   8   3    7.40    5.20
  -7   8   3    9.70    5.80
   6  -8  -3   19.10    5.10
   6  -8  -3   13.80    4.30
   6  -8  -3   21.90    6.10
  -6   8   3   25.40    6.80
  -6   8   3   18.50    4.90
  -6   8   3   16.40    6.10
   5  -8  -3   15.00    5.60
   5  -8  -3   13.80    4.60
   5  -8  -3   13.20    4.50
  -5   8   3    7.80    4.40
  -5   8   3   12.30    5.50
  -5   8   3   12.70    5.70
   4  -8  -3   30.60    6.80
   4  -8  -3   22.20    6.30
   4  -8  -3   17.40    5.00
  -4   8   3   18.50    5.50
  -4   8   3   16.70    5.40
  -4   8   3   17.40    5.90
   3  -8  -3   23.80    5.50
   3  -8  -3   18.50    5.50
   3  -8  -3   16.60    5.80
  -3   8   3   20.40    6.20
  -3   8   3    8.10    4.40
  -3   8   3   25.90    6.90
   2  -8  -3   40.20    7.20
   2  -8  -3   45.90    8.70
   2  -8  -3   44.90    7.00
  -2   8   3   47.70    8.40
  -2   8   3   30.80    5.90
  -2   8   3   42.30    8.50
   1  -8  -3   43.20    8.20
   1  -8  -3   27.00    6.70
   1  -8  -3   43.70    7.10
  -1   8   3   40.00    7.70
  -1   8   3   42.30    8.60
   0  -8  -3    8.50    5.90
   0  -8  -3   10.10    6.30
   0  -8  -3   -4.20    3.30
   0   8   3    7.00    5.60
   0   8   3    4.20    5.70
  -1  -8  -3    0.50    6.50
  -1  -8  -3   -1.10    5.00
  -1  -8  -3   -1.40    5.50
   1   8   3   -0.60    5.10
   1   8   3   -1.50    5.60
   8  -9  -3    2.20    4.30
   8  -9  -3    6.80    6.40
  -8   9   3    4.70    6.10
  -8   9   3    9.90    6.30
   7  -9  -3    7.30    6.00
   7  -9  -3    9.30    4.60
  -7   9   3    5.30    5.40
  -7   9   3    6.10    5.60
   6  -9  -3    3.90    5.00
   6  -9  -3   10.70    5.90
   6  -9  -3    5.40    4.00
  -6   9   3    9.20    4.50
  -6   9   3    0.40    4.80
  -6   9   3   -2.80    4.50
   5  -9  -3   19.60    7.40
   5  -9  -3   13.00    4.90
   5  -9  -3   23.60    7.20
  -5   9   3   24.10    6.60
  -5   9   3    6.30    5.90
  -5   9   3   24.00    7.30
   4  -9  -3   40.50    8.00
   4  -9  -3   48.10    9.50
   4  -9  -3   30.30    6.60
  -4   9   3   33.50    6.90
  -4   9   3   27.00    8.00
  -4   9   3   22.50    7.00
   3  -9  -3    2.40    5.20
   3  -9  -3   -0.20    5.00
   3  -9  -3    3.90    3.90
  -3   9   3    6.30    5.20
  -3   9   3    5.40    5.40
  -3   9   3    9.80    6.40
   2  -9  -3   45.10    9.70
   2  -9  -3   34.60    8.70
   2  -9  -3   47.00    7.70
  -2   9   3   34.80    8.80
  -2   9   3   38.50    8.80
   1  -9  -3   12.80    5.30
   1  -9  -3    0.30    5.30
   1  -9  -3    6.50    6.60
  -1   9   3    7.90    6.80
  -1   9   3   11.90    7.70
   6 -10  -3    3.10    6.70
   6 -10  -3   11.60    5.40
  -6  10   3    5.60    6.40
  -6  10   3   19.10    7.50
   5 -10  -3    4.10    5.70
   5 -10  -3   -0.40    4.20
   5 -10  -3    8.60    7.10
  -5  10   3    5.10    5.20
  -5  10   3    5.40    6.80
  -5  10   3    9.20    6.40
   4 -10  -3    9.90    6.60
   4 -10  -3   26.00    8.80
   4 -10  -3    5.30    5.00
  -4  10   3   -3.30    5.60
  -4  10   3    1.70    6.30
  -4  10   3    2.60    6.50
  -2  10  -4    4.30    6.10
   2 -10   4    8.80    7.70
   2 -10   4    8.60    7.40
  -3  10  -4   -5.50    4.50
  -3  10  -4    5.30    6.10
   3 -10   4    0.40    6.10
   3 -10   4   15.70    8.30
  -4  10  -4    5.50    5.30
  -4  10  -4   -1.50    5.00
   4 -10   4    4.60    5.60
   4 -10   4    0.20    6.90
  -5  10  -4   84.69   11.20
  -5  10  -4   84.69   12.10
   5 -10   4  104.59   13.00
   5 -10   4  112.89   14.00
  -6  10  -4   39.10    7.60
   6 -10   4   55.09   11.80
   6 -10   4   30.60    8.40
   0   9  -4    4.30    5.40
   0   9  -4   23.90    7.00
   0  -9   4   20.60    7.10
   0  -9   4   22.20    8.00
   0  -9   4   17.80    8.10
  -1   9  -4   28.70    7.70
  -1   9  -4   37.20    8.10
   1  -9   4   26.20    8.30
   1  -9   4   16.70    6.70
  -2   9  -4   21.20    7.00
  -2   9  -4   17.10    6.50
   2  -9   4   36.50    8.80
   2  -9   4   23.40    7.20
  -3   9  -4   -2.10    3.80
  -3   9  -4    1.70    4.70
   3  -9   4    0.30    4.90
   3  -9   4    0.50    4.50
  -4   9  -4   72.59   10.40
  -4   9  -4   78.49   10.40
   4  -9   4   62.69   10.30
   4  -9   4   67.89   10.30
  -5   9  -4   69.09    9.20
  -5   9  -4   70.59   10.40
  -5   9  -4   82.89   10.10
   5  -9   4   88.59   11.20
   5  -9   4  101.09   12.30
  -6   9  -4    2.90    3.90
  -6   9  -4   12.70    6.10
  -6   9  -4    5.40    4.80
   6  -9   4    5.80    4.40
   6  -9   4    1.50    4.40
   6  -9   4    6.00    6.30
  -7   9  -4   19.30    6.90
  -7   9  -4    4.50    5.60
   7  -9   4   21.60    7.10
   7  -9   4    8.20    4.60
  -8   9  -4   -7.30    5.30
  -8   9  -4   -1.40    5.50
   8  -9   4    5.20    7.00
   8  -9   4    2.80    4.20
   2   8  -4   -0.20    4.90
   2   8  -4    5.90    5.60
  -2  -8   4    6.80    7.10
  -2  -8   4   11.80    7.30
  -2  -8   4   12.80    7.40
   1   8  -4   -3.80    3.80
   1   8  -4   -4.30    4.10
  -1  -8   4    1.60    4.70
  -1  -8   4   -0.20    5.50
  -1  -8   4   -7.30    5.10
   0   8  -4   36.40    7.80
   0   8  -4   52.79    8.70
   0  -8   4   57.49    9.60
   0  -8   4   21.00    7.20
   0  -8   4   35.30    8.90
  -1   8  -4  318.87   17.60
  -1   8  -4  277.17   16.50
   1  -8   4  308.37   18.80
   1  -8   4  284.57   16.30
  -2   8  -4    3.20    4.10
  -2   8  -4   -0.20    3.70
  -2   8  -4    3.50    3.20
   2  -8   4   -0.10    4.70
   2  -8   4    0.30    5.00
  -3   8  -4   59.19    7.20
  -3   8  -4   84.79   10.10
  -3   8  -4   52.79    8.30
   3  -8   4   77.39   10.60
   3  -8   4   82.19   10.00
  -4   8  -4   19.80    4.80
  -4   8  -4   25.50    5.50
  -4   8  -4   24.60    5.50
   4  -8   4   20.80    5.90
   4  -8   4   15.60    5.70
   4  -8   4   22.00    4.00
  -5   8  -4    7.90    4.30
  -5   8  -4    4.80    3.50
  -5   8  -4   12.80    4.70
   5  -8   4   10.70    3.20
   5  -8   4    5.30    4.30
   5  -8   4   17.20    5.50
  -6   8  -4   34.10    7.30
  -6   8  -4   33.50    6.70
  -6   8  -4   55.09    7.40
   6  -8   4   37.50    7.10
   6  -8   4   32.50    5.30
   6  -8   4   38.80    7.30
  -7   8  -4   75.89    9.80
  -7   8  -4   87.59   11.70
   7  -8   4   65.09    7.90
   7  -8   4   64.69   10.20
  -8   8  -4   17.40    6.70
  -8   8  -4   31.80    7.80
   8  -8   4   31.90    7.90
   8  -8   4   38.00    6.90
  -9   8  -4   27.80    8.30
  -9   8  -4   42.70    9.40
   9  -8   4   47.10    8.10
   9  -8   4   21.40    7.60
   3   7  -4   -4.30    4.40
   3   7  -4    0.60    4.70
  -3  -7   4   -5.60    5.30
  -3  -7   4   -6.70    5.00
  -3  -7   4    0.10    4.50
   2   7  -4    5.90    4.50
   2   7  -4   -0.20    3.90
  -2  -7   4    0.30    5.20
  -2  -7   4    0.60    4.20
  -2  -7   4   -2.00    4.80
   1   7  -4   -3.60    3.20
   1   7  -4    2.70    3.60
   1   7  -4   -3.10    3.60
  -1  -7   4   -0.80    4.70
  -1  -7   4    2.50    4.10
  -1  -7   4    1.10    4.80
   0   7  -4   97.79   10.70
   0   7  -4   99.89    7.90
   0   7  -4  113.89   11.30
   0  -7   4  116.79   11.30
   0  -7   4  122.39   12.90
   0  -7   4  116.59   12.40
  -1   7  -4   46.30    7.20
  -1   7  -4   25.50    5.10
  -1   7  -4   39.10    6.50
   1  -7   4   30.50    6.50
   1  -7   4   24.70    5.70
  -2   7  -4    1.60    2.50
  -2   7  -4    0.90    3.20
  -2   7  -4    1.90    2.30
   2  -7   4   -1.20    3.00
   2  -7   4    0.50    1.60
   2  -7   4    0.40    3.30
  -3   7  -4    1.70    3.20
  -3   7  -4    0.20    2.90
  -3   7  -4    2.30    3.30
   3  -7   4    1.60    3.90
   3  -7   4   11.90    5.10
   3  -7   4    2.80    1.60
  -4   7  -4   34.50    5.70
  -4   7  -4   25.50    5.60
  -4   7  -4   44.20    6.30
   4  -7   4   42.80    7.10
   4  -7   4   51.89    8.20
   4  -7   4   38.30    4.70
  -5   7  -4   49.10    7.70
  -5   7  -4   61.79    7.20
  -5   7  -4   48.80    7.10
   5  -7   4   60.59    8.40
   5  -7   4   40.70    7.00
   5  -7   4   45.70    5.70
  -6   7  -4   24.50    4.30
  -6   7  -4    9.20    4.30
  -6   7  -4   25.40    6.20
   6  -7   4   19.00    5.50
   6  -7   4   19.20    5.00
   6  -7   4   17.30    4.40
  -7   7  -4    6.00    4.50
  -7   7  -4    2.10    3.90
   7  -7   4    2.30    2.80
   7  -7   4   -0.60    3.70
  -8   7  -4   11.20    5.90
  -8   7  -4    5.20    5.50
   8  -7   4    4.30    5.10
   8  -7   4    9.50    4.50
  -9   7  -4    9.60    5.30
  -9   7  -4   -3.20    4.90
   9  -7   4   -0.20    5.80
   9  -7   4   11.40    5.10
   4   6  -4   26.80    7.20
   4   6  -4   37.30    8.20
   4   6  -4   32.00    7.10
  -4  -6   4   28.90    7.90
  -4  -6   4   22.80    7.30
  -4  -6   4   29.50    8.00
  -4  -6   4   26.50    8.00
   3   6  -4    8.20    5.10
   3   6  -4    9.20    4.90
   3   6  -4   -0.40    3.70
  -3  -6   4    0.20    6.10
  -3  -6   4    0.70    4.40
  -3  -6   4   -0.10    5.00
   2   6  -4   10.60    3.90
   2   6  -4    5.70    4.10
   2   6  -4   14.30    4.90
  -2  -6   4    7.10    5.00
  -2  -6   4    6.80    5.70
  -2  -6   4    8.70    3.90
   1   6  -4   43.20    6.80
   1   6  -4   43.80    5.90
   1   6  -4   55.59    7.40
  -1  -6   4   66.89    9.00
  -1  -6   4   68.69    9.20
  -1  -6   4   72.29    8.50
   0   6  -4   32.10    5.60
   0   6  -4   37.70    5.40
   0   6  -4   30.70    5.60
   0  -6   4   34.30    6.10
   0  -6   4   31.30    6.20
   0  -6   4   24.80    6.10
   0  -6   4   35.60    3.60
  -1   6  -4    8.00    3.30
  -1   6  -4   14.20    3.40
  -1   6  -4   10.00    3.40
   1  -6   4    8.20    1.90
   1  -6   4   11.60    4.20
   1  -6   4    9.20    3.60
  -2   6  -4  111.19    8.10
  -2   6  -4  106.09    7.40
  -2   6  -4  126.89    8.80
   2  -6   4  121.59    9.00
   2  -6   4  113.19   10.80
   2  -6   4  107.09    5.60
  -3   6  -4   -0.50    1.90
  -3   6  -4   -1.70    1.40
  -3   6  -4    2.40    2.50
   3  -6   4   -0.30    3.20
   3  -6   4    1.20    1.40
   3  -6   4    2.40    3.20
  -4   6  -4  310.67   13.40
  -4   6  -4  320.57   15.40
  -4   6  -4  315.07   11.00
  -4   6  -4  327.97   14.60
   4  -6   4  308.17   15.10
   4  -6   4  305.47   12.40
   4  -6   4  330.27   15.30
  -5   6  -4  118.19    7.40
  -5   6  -4  125.89    9.30
  -5   6  -4  125.59    9.20
  -5   6  -4  121.79    7.20
   5  -6   4  127.79    9.60
   5  -6   4  120.49    7.70
   5  -6   4  112.49    8.80
  -6   6  -4    1.20    2.80
  -6   6  -4   -1.50    3.00
  -6   6  -4    8.10    4.00
   6  -6   4    1.40    3.30
   6  -6   4    3.30    2.50
   6  -6   4    3.10    3.80
  -7   6  -4    2.50    2.80
  -7   6  -4   -4.90    3.50
  -7   6  -4   -1.60    3.50
   7  -6   4    3.80    3.00
   7  -6   4   -4.90    3.20
  -8   6  -4   36.00    7.00
  -8   6  -4   31.60    7.20
  -8   6  -4   28.40    7.20
   8  -6   4   31.90    6.40
   8  -6   4   28.70    7.70
  -9   6  -4   -3.40    5.30
  -9   6  -4    7.20    5.70
  -9   6  -4   -1.00    5.70
   9  -6   4    7.30    6.30
   9  -6   4    1.50    4.00
   5   5  -4   24.10    7.30
   5   5  -4   17.30    6.00
   5   5  -4   15.50    5.80
  -5  -5   4   10.40    6.70
  -5  -5   4   26.70    7.70
  -5  -5   4   24.10    7.50
  -5  -5   4   21.50    7.80
   4   5  -4  112.59   11.40
   4   5  -4  133.19   10.50
   4   5  -4  126.79   10.50
  -4  -5   4  119.09   12.20
  -4  -5   4  120.79   13.40
  -4  -5   4  131.39   13.70
  -4  -5   4  102.99    9.70
   3   5  -4    1.60    2.60
   3   5  -4    4.60    3.20
   3   5  -4    3.00    3.90
   3   5  -4    0.40    3.50
  -3  -5   4    4.20    4.70
  -3  -5   4   -1.10    2.60
  -3  -5   4    2.50    2.90
  -3  -5   4    2.30    4.90
   2   5  -4  194.18   11.30
   2   5  -4  165.58   10.00
   2   5  -4  195.88   11.50
   2   5  -4  178.78    9.10
  -2  -5   4  167.38   12.10
  -2  -5   4  181.98   11.80
  -2  -5   4  179.28    7.80
  -2  -5   4  180.08   10.20
   1   5  -4  112.89    7.60
   1   5  -4  101.99    7.90
   1   5  -4  116.59    6.00
   1   5  -4  114.49    8.10
  -1  -5   4  116.69   10.70
  -1  -5   4  113.59    5.40
  -1  -5   4  123.59    8.20
  -1  -5   4  113.49    9.20
   0   5  -4   -0.30    1.70
   0   5  -4    1.90    2.10
   0   5  -4    2.60    2.50
   0   5  -4    0.60    0.90
   0  -5   4    4.60    3.10
   0  -5   4    1.60    1.40
   0  -5   4    3.90    1.40
   0  -5   4    2.30    2.50
   0  -5   4    2.70    2.50
  -1   5  -4  106.09    3.60
  -1   5  -4   98.99    6.60
  -1   5  -4  116.09    7.80
  -1   5  -4   94.29    6.90
   1  -5   4   87.69    7.10
   1  -5   4  121.99    8.50
   1  -5   4   98.49    3.50
   1  -5   4   95.69    4.50
  -2   5  -4  245.98    7.50
  -2   5  -4  232.68   11.00
  -2   5  -4  238.58   11.80
  -2   5  -4  247.08   11.30
  -2   5  -4  239.38    7.50
   2  -5   4  242.38   11.60
   2  -5   4  236.18    8.60
   2  -5   4  248.78   12.40
  -3   5  -4  152.58    8.00
  -3   5  -4  155.38    6.50
  -3   5  -4  153.68    9.20
  -3   5  -4  157.68    8.90
   3  -5   4  161.98    7.20
   3  -5   4  143.69    9.00
   3  -5   4  141.49    9.50
  -4   5  -4  258.97   12.80
  -4   5  -4  264.17   10.50
  -4   5  -4  267.27   12.60
  -4   5  -4  264.47   10.70
   4  -5   4  259.17   10.80
   4  -5   4  252.57   12.70
   4  -5   4  250.87   12.70
  -5   5  -4   34.80    5.70
  -5   5  -4   43.80    4.30
  -5   5  -4   45.70    6.60
  -5   5  -4   42.00    5.00
   5  -5   4   33.50    5.70
   5  -5   4   27.90    4.90
   5  -5   4   47.70    5.50
  -6   5  -4   12.30    4.50
  -6   5  -4    7.80    4.10
  -6   5  -4   15.70    3.80
   6  -5   4    9.80    4.20
   6  -5   4    8.70    3.40
   6  -5   4    3.70    3.60
  -7   5  -4    2.90    3.60
  -7   5  -4   -2.20    2.70
  -7   5  -4    3.80    3.70
   7  -5   4    4.00    4.10
   7  -5   4    2.50    2.80
  -8   5  -4    1.30    3.00
  -8   5  -4    1.60    4.40
  -8   5  -4   -5.20    3.20
   8  -5   4   -4.10    4.00
   8  -5   4    4.90    3.70
  -9   5  -4    7.10    5.10
  -9   5  -4   15.30    6.40
  -9   5  -4    6.20    5.50
   9  -5   4   14.70    6.50
   9  -5   4   10.30    5.40
   6   4  -4    6.70    5.20
   6   4  -4   14.50    6.30
   6   4  -4    8.60    5.40
  -6  -4   4   13.70    6.60
  -6  -4   4    3.10    5.60
  -6  -4   4    6.20    5.70
  -6  -4   4    1.60    4.20
   5   4  -4   72.59    9.00
   5   4  -4   65.59    8.60
   5   4  -4   98.69   10.20
  -5  -4   4   89.99    9.40
  -5  -4   4   62.79   10.00
  -5  -4   4  106.99   11.40
  -5  -4   4   82.39   10.20
  -5  -4   4   97.39   11.60
   4   4  -4   -0.30    2.50
   4   4  -4    1.00    2.50
   4   4  -4    1.00    2.90
   4   4  -4    0.00    2.40
   4   4  -4   -0.40    3.00
  -4  -4   4    1.00    2.80
  -4  -4   4    0.20    1.70
  -4  -4   4    5.10    3.80
  -4  -4   4    2.90    3.50
  -4  -4   4    0.30    3.20
   3   4  -4   46.10    6.10
   3   4  -4   35.40    5.60
   3   4  -4   42.20    5.90
   3   4  -4   50.99    6.00
   3   4  -4   41.20    4.70
  -3  -4   4   37.90    3.90
  -3  -4   4   41.10    6.80
  -3  -4   4   48.50    5.80
  -3  -4   4   49.40    7.00
   2   4  -4  147.59    9.10
   2   4  -4  144.89    7.80
   2   4  -4  151.08    8.90
   2   4  -4  156.68    9.30
  -2  -4   4  157.78    6.50
  -2  -4   4  157.18    8.50
  -2  -4   4  157.18   10.40
  -2  -4   4  154.48   10.30
   1   4  -4  113.69    7.10
   1   4  -4  121.69    6.00
   1   4  -4  136.39    8.00
   1   4  -4  114.69    7.70
  -1  -4   4  125.69    8.40
  -1  -4   4  119.59    4.80
  -1  -4   4  120.59    8.60
  -1  -4   4  116.29    6.90
   0   4  -4  341.47   13.60
   0   4  -4  338.47   10.70
   0   4  -4  345.57   13.90
   0   4  -4  337.97   13.00
   0   4  -4  320.47    9.50
   0  -4   4  311.87    9.90
   0  -4   4  348.07   14.60
   0  -4   4  346.47    9.80
   0  -4   4  325.47   12.90
   0  -4   4  341.47   14.60
  -1   4  -4  200.98    9.60
  -1   4  -4  185.48    6.20
  -1   4  -4  171.28    8.60
  -1   4  -4  176.88    8.60
  -1   4  -4  182.98    6.40
   1  -4   4  184.88    9.00
   1  -4   4  203.68   10.40
   1  -4   4  180.58    6.30
   1  -4   4  191.78    9.70
   1  -4   4  175.88    6.10
  -2   4  -4   57.79    6.00
  -2   4  -4   55.39    4.50
  -2   4  -4   55.79    3.40
  -2   4  -4   58.49    5.60
   2  -4   4   50.59    6.00
   2  -4   4   49.20    3.20
   2  -4   4   55.99    5.70
   2  -4   4   58.39    5.90
  -3   4  -4   90.59    5.20
  -3   4  -4   89.89    5.30
  -3   4  -4   92.19    6.50
  -3   4  -4   93.79    6.50
   3  -4   4   99.59    7.20
   3  -4   4  114.49    7.20
   3  -4   4   98.59    5.40
   3  -4   4  106.39    6.20
  -4   4  -4  100.49    7.10
  -4   4  -4  105.99    6.50
  -4   4  -4   96.69    4.90
  -4   4  -4   99.29    7.40
   4  -4   4   93.89    6.00
   4  -4   4  101.09    5.60
   4  -4   4   98.19    7.40
   4  -4   4   85.59    7.00
  -5   4  -4  251.27   12.50
  -5   4  -4  263.37   13.10
  -5   4  -4  261.57    8.40
  -5   4  -4  262.27   12.20
   5  -4   4  242.38   12.00
   5  -4   4  268.07    8.90
   5  -4   4  260.47   12.00
   5  -4   4  262.27   13.40
  -6   4  -4   61.49    7.10
  -6   4  -4   59.59    7.60
  -6   4  -4   58.89    7.40
   6  -4   4   75.19    8.90
   6  -4   4   49.70    6.20
   6  -4   4   78.09    8.00
  -7   4  -4  159.78   11.20
  -7   4  -4  142.19   10.90
  -7   4  -4  131.99   10.00
   7  -4   4  127.79   10.70
   7  -4   4  142.99   11.30
   7  -4   4  140.49   10.40
  -8   4  -4   21.90    6.10
  -8   4  -4   26.20    6.90
  -8   4  -4   13.50    5.20
   8  -4   4   22.00    6.50
   8  -4   4   16.80    5.90
   8  -4   4   27.50    6.30
  -9   4  -4    9.80    5.20
  -9   4  -4    4.50    4.80
  -9   4  -4   10.90    6.20
   9  -4   4   -0.40    5.70
   9  -4   4    6.30    5.00
   7   3  -4   21.70    7.10
   7   3  -4   39.00    8.60
  -7  -3   4   22.20    7.80
  -7  -3   4   32.60    8.10
  -7  -3   4   27.50    7.30
  -7  -3   4   39.70    7.60
   6   3  -4  157.78   11.50
   6   3  -4  152.58   12.50
  -6  -3   4  156.28   14.60
  -6  -3   4  160.08   15.00
  -6  -3   4  137.69    9.30
  -6  -3   4  159.68   12.90
   5   3  -4    7.80    4.40
   5   3  -4    9.10    4.10
   5   3  -4    6.30    3.70
   5   3  -4   10.00    4.60
  -5  -3   4    3.90    2.90
  -5  -3   4    5.80    4.40
  -5  -3   4    6.90    3.60
  -5  -3   4    3.50    2.80
  -5  -3   4    4.20    4.70
  -5  -3   4    5.20    4.40
   4   3  -4   -0.90    2.50
   4   3  -4    8.90    3.20
   4   3  -4    3.00    2.20
   4   3  -4    4.90    3.30
   4   3  -4    5.20    2.80
  -4  -3   4    4.70    2.80
  -4  -3   4    5.80    2.20
  -4  -3   4    6.20    2.80
  -4  -3   4    5.80    4.10
  -4  -3   4    3.70    3.30
   3   3  -4   36.50    5.10
   3   3  -4   36.20    4.20
   3   3  -4   41.80    5.50
   3   3  -4   49.70    5.70
   3   3  -4   45.70    5.50
  -3  -3   4   45.40    4.70
  -3  -3   4   36.50    3.70
  -3  -3   4   50.49    6.20
  -3  -3   4   40.00    6.50
   2   3  -4   -1.20    1.20
   2   3  -4    0.40    1.10
   2   3  -4    2.60    1.90
   2   3  -4    0.10    1.20
   2   3  -4    1.10    1.60
  -2  -3   4    0.00    0.80
  -2  -3   4   -0.90    2.10
  -2  -3   4    2.40    1.80
  -2  -3   4   -0.10    1.80
   1   3  -4  441.96   15.80
   1   3  -4  446.46   15.50
   1   3  -4  455.25   16.10
   1   3  -4  444.06   14.20
  -1  -3   4  447.96   14.70
  -1  -3   4  416.36   12.00
  -1  -3   4  437.46   16.90
  -1  -3   4  437.06   11.90
  -1  -3   4  446.76   16.60
   0   3  -4  222.48    9.70
   0   3  -4  238.18    9.70
   0   3  -4  235.88    9.60
   0   3  -4  223.98    8.00
   0  -3   4  236.08   10.50
   0  -3   4  215.08    5.90
   0  -3   4  219.48    9.00
   0  -3   4  203.98   10.10
   0  -3   4  223.28    5.80
  -1   3  -4   15.90    2.90
  -1   3  -4   19.00    1.50
  -1   3  -4   13.30    2.00
  -1   3  -4   15.70    2.90
  -1   3  -4   19.20    2.80
   1  -3   4   17.30    1.60
   1  -3   4   19.40    3.50
   1  -3   4   14.00    2.80
   1  -3   4   17.10    3.10
  -2   3  -4  319.17   11.00
  -2   3  -4  327.07   11.00
  -2   3  -4  302.07   11.90
  -2   3  -4  316.27   12.30
   2  -3   4  326.37   10.50
   2  -3   4  315.97   12.40
   2  -3   4  325.57   11.60
   2  -3   4  333.67   13.10
  -3   3  -4  118.09    6.40
  -3   3  -4  120.99    5.10
  -3   3  -4  121.29    6.80
  -3   3  -4  113.99    7.10
   3  -3   4  114.39    6.10
   3  -3   4  107.29    7.20
   3  -3   4  130.39    7.50
   3  -3   4  125.99    5.70
  -4   3  -4  171.98    9.30
  -4   3  -4  163.08    8.50
  -4   3  -4  169.38    8.70
   4  -3   4  170.38    9.50
   4  -3   4  152.28    5.70
   4  -3   4  152.98    8.80
   4  -3   4  159.28    8.30
   4  -3   4  157.98    5.70
  -5   3  -4  293.87   13.70
  -5   3  -4  301.97   13.30
  -5   3  -4  329.37   14.70
   5  -3   4  326.07   14.00
   5  -3   4  338.07   15.20
   5  -3   4  303.27   13.60
  -6   3  -4    4.40    3.30
  -6   3  -4   -1.60    2.20
  -6   3  -4    0.10    2.60
   6  -3   4    2.80    2.80
   6  -3   4    3.70    3.50
   6  -3   4    0.40    3.00
  -7   3  -4   61.39    8.40
  -7   3  -4   56.59    8.10
  -7   3  -4   63.29    7.90
   7  -3   4   68.89    9.00
   7  -3   4   68.39    8.50
   7  -3   4   61.19    8.60
  -8   3  -4   57.19    8.60
  -8   3  -4   37.40    6.60
  -8   3  -4   43.70    8.00
   8  -3   4   21.10    6.90
   8  -3   4   45.40    7.90
  -9   3  -4   11.10    6.30
  -9   3  -4   11.00    6.00
   9  -3   4   11.70    7.20
   9  -3   4   15.80    6.10
   8   2  -4   -4.10    6.80
   8   2  -4   -2.00    5.80
  -8  -2   4    2.00    5.80
  -8  -2   4   -0.80    5.00
  -8  -2   4    7.90    6.60
   7   2  -4   63.39    9.10
   7   2  -4   51.29    7.80
   7   2  -4   93.19   11.60
  -7  -2   4   53.49    8.80
  -7  -2   4   79.29   11.20
  -7  -2   4   74.59   10.50
   6   2  -4  150.98   10.60
   6   2  -4  138.09   10.40
   6   2  -4  151.78   11.60
   6   2  -4  133.89   10.80
  -6  -2   4  140.49   13.00
  -6  -2   4  147.99   11.40
  -6  -2   4  143.99   11.90
   5   2  -4   -0.90    2.60
   5   2  -4   -2.30    2.40
   5   2  -4   -2.30    2.80
   5   2  -4   -1.80    2.00
   5   2  -4    1.20    2.60
  -5  -2   4   -0.40    2.90
  -5  -2   4    0.80    2.10
  -5  -2   4   -0.10    2.80
  -5  -2   4   -4.10    2.70
   4   2  -4    8.70    2.70
   4   2  -4    9.30    2.80
   4   2  -4    8.30    3.00
   4   2  -4    9.90    3.30
   4   2  -4    7.40    2.40
  -4  -2   4    6.70    3.00
  -4  -2   4   17.20    4.40
  -4  -2   4   10.90    3.80
  -4  -2   4   10.70    2.50
   3   2  -4   37.90    4.80
   3   2  -4   29.30    4.20
   3   2  -4   38.40    4.80
   3   2  -4   36.90    3.80
  -3  -2   4   34.00    4.60
  -3  -2   4   38.90    3.60
  -3  -2   4   32.40    5.40
  -3  -2   4   31.00    5.00
   2   2  -4  509.85   17.00
   2   2  -4  516.75   15.00
   2   2  -4  534.65   17.70
   2   2  -4  529.85   17.60
   2   2  -4  511.55   17.60
  -2  -2   4  533.55   19.00
  -2  -2   4  507.25   15.20
  -2  -2   4  523.25   15.40
  -2  -2   4  517.75   17.90
   1   2  -4  272.87   10.70
   1   2  -4  285.07    7.60
   1   2  -4  296.87   10.20
   1   2  -4  292.47   10.90
   1   2  -4  282.77   10.90
  -1  -2   4  278.37    9.50
  -1  -2   4  282.77   11.80
  -1  -2   4  278.77    7.40
  -1  -2   4  274.37    7.40
  -1  -2   4  275.07   11.30
   0   2  -4  110.89    5.80
   0   2  -4  122.09    5.40
   0   2  -4  130.89    6.10
   0   2  -4  116.89    5.80
   0  -2   4  120.29    6.60
   0  -2   4  119.39    6.50
   0  -2   4  111.49    5.30
  -1   2  -4    0.20    0.60
  -1   2  -4    0.30    1.20
  -1   2  -4   -0.30    0.90
  -1   2  -4    0.80    1.10
   1  -2   4    0.20    0.90
   1  -2   4    1.80    1.30
   1  -2   4    0.40    1.80
   1  -2   4    0.60    0.60
  -2   2  -4   26.50    3.20
  -2   2  -4   23.70    3.10
  -2   2  -4   21.10    3.30
   2  -2   4   27.80    3.90
   2  -2   4   24.10    2.80
   2  -2   4   22.10    2.60
   2  -2   4   20.90    3.50
  -3   2  -4  825.22   24.70
  -3   2  -4  809.82   24.90
  -3   2  -4  809.62   23.50
   3  -2   4  791.22   25.30
   3  -2   4  781.42   25.30
   3  -2   4  786.22   24.00
   3  -2   4  786.72   21.20
   3  -2   4  778.42   20.70
  -4   2  -4  152.18    8.60
  -4   2  -4  138.49    7.20
  -4   2  -4  137.39    8.20
   4  -2   4  136.19    8.60
   4  -2   4  146.79    8.50
   4  -2   4  160.98    8.60
  -5   2  -4  131.79    8.70
  -5   2  -4  116.49    8.30
  -5   2  -4  105.89    7.10
   5  -2   4   89.49    9.00
   5  -2   4  116.09    7.70
   5  -2   4   99.29    7.70
  -6   2  -4    5.50    3.30
  -6   2  -4    5.20    3.30
  -6   2  -4    6.30    3.70
   6  -2   4    7.70    3.80
   6  -2   4    8.90    4.20
   6  -2   4    3.60    2.90
  -7   2  -4    0.50    3.50
  -7   2  -4    0.60    3.20
  -7   2  -4    4.90    3.70
   7  -2   4    1.70    3.20
   7  -2   4   -0.90    3.80
  -8   2  -4   41.70    8.60
  -8   2  -4   28.20    7.20
   8  -2   4   37.40    8.40
   8  -2   4   30.30    7.00
  -9   2  -4   64.69   10.00
  -9   2  -4   63.09   10.40
   9  -2   4   54.29   11.70
   9  -2   4   61.09    9.90
   8   1  -4    1.60    5.00
   8   1  -4   -0.20    5.00
   8   1  -4    2.50    4.80
  -8  -1   4   -0.90    5.40
  -8  -1   4   -1.90    5.00
   7   1  -4   20.80    6.00
   7   1  -4   20.40    5.30
   7   1  -4   28.90    6.80
  -7  -1   4   29.70    6.90
  -7  -1   4   26.20    6.70
  -7  -1   4   22.30    5.70
   6   1  -4  117.69    8.60
   6   1  -4  115.69   11.10
   6   1  -4   96.99    9.60
  -6  -1   4   98.19    8.40
  -6  -1   4  112.19   11.00
  -6  -1   4  100.49   11.00
  -6  -1   4  100.69   10.20
   5   1  -4  104.59    8.20
   5   1  -4  102.49    8.10
   5   1  -4  101.89    5.90
   5   1  -4   95.79    6.90
   5   1  -4   96.69    7.50
  -5  -1   4  104.59   10.30
  -5  -1   4   96.29    5.40
  -5  -1   4  104.19    9.90
  -5  -1   4  119.79    7.00
   4   1  -4   51.29    3.60
   4   1  -4   60.89    4.90
   4   1  -4   58.29    6.30
   4   1  -4   59.09    6.10
   4   1  -4   72.59    7.10
  -4  -1   4   59.69    4.80
  -4  -1   4   47.60    6.30
  -4  -1   4   54.99    3.40
  -4  -1   4   43.60    6.40
   3   1  -4  330.37   11.40
   3   1  -4  359.96   13.50
   3   1  -4  322.67   13.20
   3   1  -4  347.77   13.10
  -3  -1   4  354.46   14.40
  -3  -1   4  336.77   12.50
  -3  -1   4  357.06   14.50
  -3  -1   4  332.27   10.30
  -3  -1   4  330.27   10.00
   2   1  -4  202.58    8.70
   2   1  -4  219.88    7.10
   2   1  -4  204.28    8.80
   2   1  -4  219.38    8.90
  -2  -1   4  201.68    6.30
  -2  -1   4  208.38    6.40
  -2  -1   4  201.48    6.80
  -2  -1   4  214.38    8.90
  -2  -1   4  216.08    9.70
  -2  -1   4  207.18    9.90
   1   1  -4   55.69    3.70
   1   1  -4   53.99    2.80
   1   1  -4   52.39    3.80
   1   1  -4   60.39    2.30
   1   1  -4   55.69    3.80
  -1  -1   4   52.59    4.40
  -1  -1   4   52.99    2.20
  -1  -1   4   59.89    4.30
  -1  -1   4   54.09    2.70
   0   1  -4  580.74   17.00
   0   1  -4  544.35   16.20
   0   1  -4  564.34   15.10
   0   1  -4  564.94   14.70
   0   1  -4  534.75   16.70
   0  -1   4  560.64   18.00
   0  -1   4  565.94   17.60
   0  -1   4  541.75   16.00
  -1   1  -4  624.34   18.40
  -1   1  -4  598.64   16.90
  -1   1  -4  621.64   18.40
  -1   1  -4  589.94   16.80
   1  -1   4  617.64   17.60
   1  -1   4  590.64   17.90
   1  -1   4  608.74   19.60
   1  -1   4  586.44   17.30
   1  -1   4  600.54   18.30
  -2   1  -4  387.06   13.70
  -2   1  -4  403.66   14.00
  -2   1  -4  411.26   11.90
  -2   1  -4  375.16   11.90
   2  -1   4  398.76   14.80
   2  -1   4  393.76   12.10
   2  -1   4  414.36   14.50
   2  -1   4  388.16   13.40
  -3   1  -4  667.13   21.10
  -3   1  -4  612.94   20.30
  -3   1  -4  601.84   18.20
  -3   1  -4  623.74   16.20
   3  -1   4  639.84   20.60
   3  -1   4  613.54   16.20
   3  -1   4  616.64   21.10
   3  -1   4  618.54   21.20
  -4   1  -4   28.30    3.40
  -4   1  -4   28.10    4.70
  -4   1  -4   20.90    3.90
   4  -1   4   28.00    4.80
   4  -1   4   36.00    5.10
   4  -1   4   31.90    4.70
  -5   1  -4    8.10    3.20
  -5   1  -4    7.20    2.50
  -5   1  -4    2.50    2.70
   5  -1   4    8.00    3.70
   5  -1   4    4.70    2.50
   5  -1   4    7.40    3.10
  -6   1  -4    5.90    3.40
  -6   1  -4   15.60    4.70
  -6   1  -4   14.70    3.70
   6  -1   4    4.20    3.70
   6  -1   4   11.40    4.30
   6  -1   4    7.80    4.20
  -7   1  -4    6.40    4.10
  -7   1  -4    6.20    4.50
   7  -1   4    2.60    4.60
   7  -1   4    6.40    4.50
  -8   1  -4   48.30    8.40
  -8   1  -4   60.39    9.50
   8  -1   4   45.60    8.60
   8  -1   4   52.89    9.60
   9   0  -4   14.40    6.90
   9   0  -4    7.80    5.70
   9   0  -4   11.40    6.10
  -9   0   4    3.90    6.10
  -9   0   4    4.50    6.20
   8   0  -4    7.30    4.60
   8   0  -4    9.90    5.60
   8   0  -4    5.30    5.00
  -8   0   4    1.70    4.60
  -8   0   4   -0.50    4.60
   7   0  -4   -0.20    2.50
   7   0  -4    4.00    3.80
   7   0  -4   -1.40    3.30
  -7   0   4    2.00    4.20
  -7   0   4    2.80    3.90
  -7   0   4    0.00    3.80
   6   0  -4  152.48   10.20
   6   0  -4  144.69    7.40
   6   0  -4  158.58    9.50
   6   0  -4  147.19   10.50
  -6   0   4  135.09    9.90
  -6   0   4  135.79   10.60
  -6   0   4  142.19   10.60
   5   0  -4   74.69    7.30
   5   0  -4   78.09    5.90
   5   0  -4   72.99    4.50
   5   0  -4   81.59    8.00
  -5   0   4   81.99    8.20
  -5   0   4   64.49    4.50
  -5   0   4   80.19    8.00
  -5   0   4   95.49    9.40
   4   0  -4   58.69    4.50
   4   0  -4   70.09    5.70
   4   0  -4   66.79    3.30
   4   0  -4   73.49    5.90
  -4   0   4   73.19    7.40
  -4   0   4   67.09    3.20
  -4   0   4   59.59    4.20
  -4   0   4   81.49    8.00
   3   0  -4  521.05   15.50
   3   0  -4  490.25   16.60
   3   0  -4  491.25   17.20
   3   0  -4  496.85   16.80
  -3   0   4  470.95   17.90
  -3   0   4  512.65   15.80
  -3   0   4  517.15   18.10
   2   0  -4   67.29    4.30
   2   0  -4   63.19    4.20
   2   0  -4   68.29    3.50
   2   0  -4   76.19    4.70
  -2   0   4   75.39    5.00
  -2   0   4   70.19    5.10
  -2   0   4   67.89    4.30
   1   0  -4  479.65   13.50
   1   0  -4  486.65   14.50
   1   0  -4  495.35   13.90
   1   0  -4  483.95   14.90
   1   0  -4  512.25   15.60
  -1   0   4  505.05   15.30
  -1   0   4  472.85   13.60
  -1   0   4  498.65   13.50
  -1   0   4  478.25   15.80
  -1   0   4  508.65   16.70
   0   0  -4  335.07   10.30
   0   0  -4  349.17   11.90
   0   0  -4  345.97   11.10
   0   0  -4  338.67    9.90
   0   0   4  344.27   12.60
   0   0   4  342.97   12.20
   0   0   4  343.77   11.10
   0   0   4  335.77   10.00
  -1   0  -4   12.10    1.10
  -1   0  -4   14.00    2.00
  -1   0  -4   12.40    2.10
  -1   0  -4   10.60    2.20
   1   0   4   17.70    2.50
   1   0   4   14.10    2.30
   1   0   4   16.80    3.20
   1   0   4   12.60    1.20
   1   0   4   11.30    2.30
  -2   0  -4  398.96   13.30
  -2   0  -4  439.16   14.60
  -2   0  -4  442.86   11.90
  -2   0  -4  445.76   15.60
  -2   0  -4  441.06   14.50
   2   0   4  444.36   16.10
   2   0   4  447.66   13.40
   2   0   4  438.26   15.80
   2   0   4  432.86   12.10
   2   0   4  429.76   15.30
  -3   0  -4   59.49    4.70
  -3   0  -4   52.79    3.20
  -3   0  -4   50.19    3.40
  -3   0  -4   62.19    5.80
  -3   0  -4   50.99    5.60
  -3   0  -4   56.49    3.20
   3   0   4   51.49    5.90
   3   0   4   64.09    6.60
   3   0   4   53.49    3.20
   3   0   4   51.79    3.80
   3   0   4   58.19    6.00
  -4   0  -4   91.69    6.90
  -4   0  -4   91.29    5.20
  -4   0  -4   79.39    4.40
  -4   0  -4   94.09    7.30
   4   0   4  105.59    8.20
   4   0   4   89.49    7.30
   4   0   4   89.59    4.00
   4   0   4   97.59    7.30
  -5   0  -4   25.70    5.10
  -5   0  -4   38.80    4.80
  -5   0  -4   39.20    5.90
   5   0   4   33.60    5.70
   5   0   4   25.40    5.60
   5   0   4   39.70    6.20
  -6   0  -4    9.80    4.30
  -6   0  -4   10.60    4.50
   6   0   4   10.40    4.70
   6   0   4   11.90    4.70
   6   0   4   17.40    4.70
  -7   0  -4   20.60    5.50
  -7   0  -4   11.30    5.10
  -7   0  -4   13.70    5.40
   7   0   4   11.40    4.90
   7   0   4   14.90    7.20
  -8   0  -4   27.90    7.40
  -8   0  -4   14.20    7.40
  -8   0  -4   19.60    6.10
   8   0   4   18.40    7.20
   8   0   4   26.10    7.70
   9  -1  -4    0.10    4.20
   9  -1  -4   -3.20    4.90
   9  -1  -4    2.80    4.70
  -9   1   4    2.30    5.30
  -9   1   4    2.10    5.50
   8  -1  -4   -3.90    3.40
   8  -1  -4    2.70    4.40
   8  -1  -4    1.60    3.40
  -8   1   4    1.70    4.20
  -8   1   4    0.90    4.80
  -8   1   4    0.10    4.40
   7  -1  -4   52.99    7.50
   7  -1  -4   81.39    9.50
   7  -1  -4   65.49    7.40
  -7   1   4   77.79    9.90
  -7   1   4   51.09    7.40
  -7   1   4   65.59    8.70
   6  -1  -4  115.09    8.60
   6  -1  -4  108.29    7.70
   6  -1  -4  119.79    6.40
   6  -1  -4  113.69    8.80
  -6   1   4  108.09    8.80
  -6   1   4  115.09    9.10
  -6   1   4  105.79   10.60
   5  -1  -4   24.40    4.20
   5  -1  -4   19.30    3.70
   5  -1  -4   24.30    2.80
   5  -1  -4   27.80    4.70
  -5   1   4   36.40    5.40
  -5   1   4   26.50    2.20
  -5   1   4   24.30    4.90
  -5   1   4   29.40    4.90
  -5   1   4   27.10    2.70
   4  -1  -4  242.28    7.80
   4  -1  -4  253.87   11.50
   4  -1  -4  253.17    8.60
   4  -1  -4  261.97   11.10
   4  -1  -4  257.07   10.20
  -4   1   4  258.27   12.20
  -4   1   4  255.87    8.90
  -4   1   4  252.47    7.70
  -4   1   4  255.77   12.10
   3  -1  -4   12.00    2.20
   3  -1  -4    6.70    2.00
   3  -1  -4   10.60    2.30
   3  -1  -4    9.00    1.00
   3  -1  -4   10.40    1.10
  -3   1   4    9.60    1.00
  -3   1   4   11.70    3.10
  -3   1   4    8.10    1.80
  -3   1   4    9.70    2.70
   2  -1  -4  291.37   10.90
   2  -1  -4  296.07    8.60
   2  -1  -4  287.57   10.00
   2  -1  -4  287.67   10.10
   2  -1  -4  294.87    8.30
  -2   1   4  301.77   11.10
  -2   1   4  305.07   10.70
  -2   1   4  276.27   11.90
   1  -1  -4   52.99    3.70
   1  -1  -4   48.90    3.90
   1  -1  -4   55.49    3.50
   1  -1  -4   56.29    3.20
  -1   1   4   55.29    4.50
  -1   1   4   55.79    3.30
  -1   1   4   57.09    3.20
  -1   1   4   54.49    3.40
  -1   1   4   53.89    4.10
   0  -1  -4  323.27   10.20
   0  -1  -4  326.47   11.70
   0  -1  -4  320.57   10.80
   0   1   4  324.57   12.50
   0   1   4  339.77   12.40
   0   1   4  334.77   11.50
   0   1   4  332.57    9.10
   0   1   4  309.37    8.80
  -1  -1  -4   30.90    3.10
  -1  -1  -4   28.00    3.30
  -1  -1  -4   27.00    3.60
   1   1   4   27.50    3.80
   1   1   4   29.70    3.70
   1   1   4   31.00    4.40
   1   1   4   38.20    4.10
  -2  -1  -4  108.89    3.50
  -2  -1  -4  105.29    3.40
  -2  -1  -4  108.69    6.30
  -2  -1  -4  117.69    7.10
  -2  -1  -4  105.99    5.90
   2   1   4  110.49    7.10
   2   1   4  118.49    5.90
   2   1   4  129.09    7.60
   2   1   4  123.39    7.60
  -3  -1  -4  351.96   10.50
  -3  -1  -4  334.27   10.80
  -3  -1  -4  359.96   13.60
  -3  -1  -4  384.76   14.30
  -3  -1  -4  337.57   14.60
   3   1   4  354.06   12.20
   3   1   4  354.36   15.10
   3   1   4  340.27   15.10
   3   1   4  345.57   15.00
  -4  -1  -4  445.36   17.40
  -4  -1  -4  441.16   17.20
  -4  -1  -4  415.76   14.40
  -4  -1  -4  464.85   18.70
   4   1   4  456.15   19.00
   4   1   4  427.76   18.00
   4   1   4  480.75   19.50
   4   1   4  430.86   14.40
  -5  -1  -4   -2.90    2.00
  -5  -1  -4   -3.50    2.60
  -5  -1  -4   -0.20    2.90
   5   1   4   -0.70    3.90
   5   1   4    1.70    2.80
   5   1   4    2.10    3.80
  -6  -1  -4   36.60    6.40
  -6  -1  -4   41.70    7.00
  -6  -1  -4   40.50    7.20
   6   1   4   43.40    8.00
   6   1   4   37.00    7.00
   6   1   4   49.70    8.20
  -7  -1  -4    0.80    4.40
  -7  -1  -4   -2.60    4.20
  -7  -1  -4    5.10    4.40
   7   1   4    2.90    4.70
   7   1   4   -1.70    6.70
   9  -2  -4   16.40    5.40
   9  -2  -4   12.90    6.50
  -9   2   4   13.00    7.00
  -9   2   4   14.60    6.00
   8  -2  -4   72.59    9.30
   8  -2  -4   81.59    9.20
   8  -2  -4  101.89   11.50
  -8   2   4   86.59   10.20
  -8   2   4   77.39    8.80
  -8   2   4   66.59    9.70
   7  -2  -4   44.80    7.00
   7  -2  -4   33.90    6.00
   7  -2  -4   44.90    6.30
  -7   2   4   50.59    7.50
  -7   2   4   46.70    7.10
  -7   2   4   37.50    7.00
   6  -2  -4    7.50    3.30
   6  -2  -4    5.50    2.40
   6  -2  -4    8.30    2.60
   6  -2  -4    6.50    3.00
  -6   2   4   10.80    3.60
  -6   2   4    3.50    2.90
  -6   2   4    8.90    3.90
   5  -2  -4  146.09    8.40
   5  -2  -4  146.79    6.30
   5  -2  -4  132.99    4.70
   5  -2  -4  141.89    7.90
   5  -2  -4  146.49    9.00
  -5   2   4  142.09    9.20
  -5   2   4  138.39    8.50
  -5   2   4  130.49    9.00
  -5   2   4  142.49    4.80
   4  -2  -4    3.40    1.80
   4  -2  -4    0.90    1.40
   4  -2  -4    2.70    1.30
   4  -2  -4    2.30    1.80
   4  -2  -4    2.80    1.60
  -4   2   4    4.40    2.60
  -4   2   4    2.70    2.00
  -4   2   4    3.20    2.30
  -4   2   4    2.80    1.30
   3  -2  -4  546.85   16.90
   3  -2  -4  554.74   15.70
   3  -2  -4  537.25   18.10
   3  -2  -4  555.64   17.60
  -3   2   4  566.24   18.70
  -3   2   4  538.35   19.70
  -3   2   4  537.45   16.70
   2  -2  -4  446.46   15.40
   2  -2  -4  465.55   13.70
   2  -2  -4  474.55   15.10
   2  -2  -4  440.06   13.60
  -2   2   4  495.45   15.50
  -2   2   4  465.65   15.50
  -2   2   4  458.25   17.10
   1  -2  -4  150.38    5.30
   1  -2  -4  148.89    7.20
   1  -2  -4  163.78    6.60
   1  -2  -4  148.89    6.80
  -1   2   4  150.48    8.10
  -1   2   4  148.99    7.60
  -1   2   4  153.98    6.80
  -1   2   4  145.29    5.30
  -1   2   4  143.49    6.00
   0  -2  -4   16.40    2.60
   0  -2  -4   19.50    2.00
   0  -2  -4   13.80    2.80
   0  -2  -4   15.40    1.60
   0   2   4   17.40    3.20
   0   2   4   23.40    3.50
   0   2   4   17.00    1.60
   0   2   4   16.40    3.30
   0   2   4   16.50    1.90
  -1  -2  -4   12.10    2.70
  -1  -2  -4   14.20    2.80
  -1  -2  -4   11.70    1.10
  -1  -2  -4    9.80    1.70
   1   2   4    8.60    2.70
   1   2   4   12.40    1.00
   1   2   4   10.60    2.60
   1   2   4   13.90    3.30
  -2  -2  -4    9.90    2.70
  -2  -2  -4    9.10    2.40
  -2  -2  -4   10.30    1.40
  -2  -2  -4    2.60    2.10
  -2  -2  -4    7.60    1.30
   2   2   4    9.50    2.60
   2   2   4    6.00    2.60
   2   2   4   11.90    3.40
   2   2   4    9.90    3.10
  -3  -2  -4  326.97   14.80
  -3  -2  -4  327.67   14.00
  -3  -2  -4  316.27   11.00
  -3  -2  -4  340.47   13.20
   3   2   4  343.57   15.70
   3   2   4  354.66   15.80
   3   2   4  338.57   13.10
   3   2   4  332.17   15.40
  -4  -2  -4  111.29    7.80
  -4  -2  -4  117.19    9.10
  -4  -2  -4   99.89    7.90
   4   2   4  101.09    9.90
   4   2   4  117.09    7.10
   4   2   4  111.99   10.90
   4   2   4  111.09   10.40
  -5  -2  -4   -0.20    2.80
  -5  -2  -4    4.50    3.80
  -5  -2  -4   -3.40    3.60
   5   2   4   -2.70    3.40
   5   2   4   -0.60    3.90
   5   2   4   -1.90    3.20
  -6  -2  -4   -1.30    3.80
  -6  -2  -4   11.30    5.30
  -6  -2  -4    6.10    4.20
   6   2   4    3.50    4.90
   6   2   4    9.20    5.40
   6   2   4    5.00    5.40
  -7  -2  -4   17.90    7.30
  -7  -2  -4   15.60    6.50
  -7  -2  -4   19.20    6.10
   7   2   4   17.90    7.40
   7   2   4   21.80    7.70
  10  -3  -4    3.70    5.00
  10  -3  -4   -1.30    5.80
 -10   3   4    3.30    5.60
 -10   3   4   -1.30    4.30
   9  -3  -4    4.40    4.30
   9  -3  -4   18.10    6.40
  -9   3   4   10.00    5.70
  -9   3   4    3.00    4.30
   8  -3  -4   69.99    8.70
   8  -3  -4   82.99   10.20
   8  -3  -4   78.69    8.70
  -8   3   4   47.40    8.30
  -8   3   4   70.69    8.30
  -8   3   4   76.69    9.80
   7  -3  -4   36.00    5.90
   7  -3  -4   36.40    5.60
   7  -3  -4   65.89    8.10
   7  -3  -4   32.90    4.90
  -7   3   4   47.80    6.90
  -7   3   4   39.80    6.80
  -7   3   4   52.69    6.90
   6  -3  -4   12.20    3.60
   6  -3  -4   18.30    4.30
   6  -3  -4   17.30    3.60
   6  -3  -4   19.20    3.40
  -6   3   4   24.20    4.70
  -6   3   4   19.60    4.50
  -6   3   4   11.00    4.20
   5  -3  -4   16.20    3.60
   5  -3  -4   15.00    2.90
   5  -3  -4   17.30    3.50
   5  -3  -4   11.40    2.00
   5  -3  -4   11.10    2.80
  -5   3   4   15.70    4.00
  -5   3   4   13.80    1.80
  -5   3   4   19.10    4.10
  -5   3   4   18.60    3.90
   4  -3  -4  341.47   11.80
   4  -3  -4  355.56   13.40
   4  -3  -4  323.07   13.30
   4  -3  -4  331.27   12.40
  -4   3   4  357.26   14.60
  -4   3   4  345.87   15.20
  -4   3   4  324.37   12.70
  -4   3   4  354.16   11.60
   3  -3  -4  257.27   10.80
   3  -3  -4  258.07    9.20
   3  -3  -4  255.27    9.60
   3  -3  -4  268.37   10.80
  -3   3   4  248.48   10.10
  -3   3   4  265.07   11.30
  -3   3   4  275.17   12.70
  -3   3   4  258.67    9.60
   2  -3  -4  187.78    6.30
   2  -3  -4  181.78    8.30
   2  -3  -4  189.58    8.60
   2  -3  -4  182.28    7.80
  -2   3   4  190.78    6.40
  -2   3   4  186.68   10.00
  -2   3   4  211.78    8.70
  -2   3   4  187.58    9.00
   1  -3  -4  136.29    6.80
   1  -3  -4  133.29    4.10
   1  -3  -4  143.49    7.20
   1  -3  -4  127.99    6.90
  -1   3   4  135.09    6.10
  -1   3   4  127.79    7.60
  -1   3   4  143.59    8.50
  -1   3   4  129.79    4.10
  -1   3   4  140.99    7.20
   0  -3  -4    2.20    0.80
   0  -3  -4    2.90    0.90
   0  -3  -4    2.70    1.90
   0  -3  -4    5.10    2.20
   0  -3  -4    2.00    1.70
   0   3   4    1.40    2.10
   0   3   4    0.40    1.80
   0   3   4    3.60    1.20
   0   3   4    2.30    2.00
   0   3   4    2.10    0.90
  -1  -3  -4   15.10    3.50
  -1  -3  -4   17.10    3.40
  -1  -3  -4   10.30    2.10
  -1  -3  -4    8.80    2.70
  -1  -3  -4   15.20    2.20
   1   3   4   15.10    4.00
   1   3   4   21.10    4.60
   1   3   4   11.70    1.80
   1   3   4   16.40    3.70
  -2  -3  -4  132.69    8.10
  -2  -3  -4  123.09    8.10
  -2  -3  -4  111.59    6.20
  -2  -3  -4  107.79    5.30
   2   3   4  117.99    7.80
   2   3   4  122.09    8.70
   2   3   4  122.09    5.10
   2   3   4  122.69    9.00
  -3  -3  -4   82.99    8.00
  -3  -3  -4   84.99    8.40
  -3  -3  -4   77.59    6.20
   3   3   4   76.69    8.90
   3   3   4   88.79    9.20
   3   3   4   88.59    6.90
   3   3   4   71.29    8.50
  -4  -3  -4    2.10    3.40
  -4  -3  -4    0.10    3.00
  -4  -3  -4    2.30    2.90
   4   3   4   -0.60    3.20
   4   3   4    0.10    3.30
   4   3   4   -2.00    2.80
   4   3   4    5.40    4.60
  -5  -3  -4    8.30    4.20
  -5  -3  -4    7.40    4.80
  -5  -3  -4    1.90    4.10
   5   3   4   11.40    5.40
   5   3   4    9.20    5.50
   5   3   4    2.30    5.90
  -6  -3  -4    6.80    4.70
  -6  -3  -4    6.30    5.50
   6   3   4    8.20    6.00
   6   3   4    8.60    6.40
   6   3   4    0.60    6.70
  10  -4  -4    3.60    4.80
  10  -4  -4   -0.60    5.30
 -10   4   4    2.40    6.50
 -10   4   4    1.90    5.60
   9  -4  -4    0.70    3.90
   9  -4  -4    3.10    4.60
  -9   4   4    4.00    5.30
  -9   4   4   -1.50    4.40
   8  -4  -4   30.00    5.80
   8  -4  -4   30.70    7.10
  -8   4   4   18.40    5.80
  -8   4   4   22.30    5.50
  -8   4   4   20.40    5.80
   7  -4  -4  127.99    8.30
   7  -4  -4  136.89   10.10
   7  -4  -4  150.38    9.80
  -7   4   4  140.79   10.10
  -7   4   4  111.89   11.60
  -7   4   4  136.79   10.50
   6  -4  -4   86.89    6.50
   6  -4  -4   83.39    8.50
   6  -4  -4   90.49    7.30
   6  -4  -4   79.29    7.80
  -6   4   4   80.29    8.70
  -6   4   4   63.09    8.10
  -6   4   4   96.79    7.80
   5  -4  -4  223.28    9.90
   5  -4  -4  227.08   11.10
   5  -4  -4  224.68   10.90
   5  -4  -4  211.58    9.90
  -5   4   4  212.68   11.70
  -5   4   4  220.68   10.30
  -5   4   4  211.38    8.30
  -5   4   4  218.08   12.20
   4  -4  -4 1017.20   31.30
   4  -4  -4 1022.80   30.00
   4  -4  -4 1026.90   30.90
  -4   4   4 1045.80   29.50
  -4   4   4 1047.80   33.80
  -4   4   4 1023.90   32.40
  -4   4   4 1020.00   29.60
   3  -4  -4   29.70    3.90
   3  -4  -4   38.90    4.80
   3  -4  -4   35.10    4.60
  -3   4   4   29.20    2.90
  -3   4   4   28.10    4.10
  -3   4   4   35.90    5.70
  -3   4   4   26.10    4.30
   2  -4  -4  105.79    6.40
   2  -4  -4   99.19    6.20
   2  -4  -4   96.79    6.50
  -2   4   4  102.09    7.00
  -2   4   4  113.99    6.50
  -2   4   4  111.09    7.90
   1  -4  -4  260.67   11.30
   1  -4  -4  254.97   10.90
   1  -4  -4  248.38   11.10
  -1   4   4  258.57   12.90
  -1   4   4  257.47   10.00
  -1   4   4  262.47   11.80
  -1   4   4  243.48   12.10
   0  -4  -4   17.10    1.00
   0  -4  -4   18.50    1.10
   0  -4  -4   17.20    3.80
   0  -4  -4   19.20    3.50
   0  -4  -4   25.30    4.30
   0   4   4   22.50    4.50
   0   4   4   21.70    2.90
   0   4   4   15.70    4.50
   0   4   4   22.40    4.40
  -1  -4  -4  226.08    8.10
  -1  -4  -4  234.98   11.40
  -1  -4  -4  231.18   11.80
  -1  -4  -4  225.38   11.20
   1   4   4  243.08   12.70
   1   4   4  259.77   13.60
   1   4   4  236.88    8.80
   1   4   4  229.88   12.30
  -2  -4  -4  138.89    9.20
  -2  -4  -4  135.59    7.90
  -2  -4  -4  142.99    9.70
  -2  -4  -4  150.48    9.70
   2   4   4  135.29    9.50
   2   4   4  134.79   10.00
   2   4   4  171.48   11.60
  -3  -4  -4    6.80    3.50
  -3  -4  -4   -0.60    3.00
  -3  -4  -4    3.20    3.20
   3   4   4    4.80    4.00
   3   4   4    3.20    3.80
   3   4   4    3.40    5.20
  -4  -4  -4   20.70    5.40
  -4  -4  -4   18.30    5.40
  -4  -4  -4   32.50    5.80
   4   4   4   30.90    6.90
   4   4   4   35.20    7.60
  -5  -4  -4   -0.90    5.20
  -5  -4  -4    2.50    4.20
  -5  -4  -4    2.50    4.70
   5   4   4    3.50    5.80
   5   4   4    0.70    5.80
  10  -5  -4    6.90    5.20
  10  -5  -4   -1.80    4.60
 -10   5   4    6.20    6.10
 -10   5   4   16.50    7.10
   9  -5  -4    4.10    5.40
   9  -5  -4    0.20    4.00
  -9   5   4    9.50    6.20
  -9   5   4   13.50    6.20
   8  -5  -4   56.39    7.90
   8  -5  -4   58.49    7.70
  -8   5   4   44.00    7.70
  -8   5   4   60.79    8.10
  -8   5   4   56.59    7.90
   7  -5  -4  111.69    9.10
   7  -5  -4  106.79    8.60
  -7   5   4   83.39    9.90
  -7   5   4  114.49   11.00
  -7   5   4  112.79    8.80
   6  -5  -4   25.40    4.70
   6  -5  -4   35.30    4.30
   6  -5  -4   35.90    5.70
   6  -5  -4   34.80    5.10
  -6   5   4   22.90    4.80
  -6   5   4   37.50    6.50
  -6   5   4   28.00    3.60
  -6   5   4   39.00    5.80
   5  -5  -4   32.50    4.60
   5  -5  -4   26.80    4.70
   5  -5  -4   34.50    5.10
  -5   5   4   30.00    4.20
  -5   5   4   33.60    4.00
  -5   5   4   28.30    5.60
  -5   5   4   32.50    5.70
   4  -5  -4    2.40    1.80
   4  -5  -4    0.00    2.20
   4  -5  -4   -3.10    2.10
  -4   5   4    2.20    1.90
  -4   5   4    3.30    2.80
  -4   5   4    1.80    2.80
  -4   5   4    7.00    2.00
   3  -5  -4   34.90    4.30
   3  -5  -4   35.50    5.00
   3  -5  -4   29.90    4.60
  -3   5   4   29.50    5.60
  -3   5   4   34.90    2.10
  -3   5   4   29.50    2.00
  -3   5   4   36.90    5.20
  -3   5   4   32.00    4.90
   2  -5  -4   65.19    6.70
   2  -5  -4   58.99    5.20
   2  -5  -4   68.89    6.90
  -2   5   4   72.29    6.70
  -2   5   4   58.99    7.50
  -2   5   4   78.29    7.80
   1  -5  -4    6.70    2.40
   1  -5  -4    3.00    2.50
   1  -5  -4    9.60    3.60
  -1   5   4    1.10    3.10
  -1   5   4    1.70    2.00
  -1   5   4    4.30    3.10
  -1   5   4   -1.20    2.20
   0  -5  -4   30.90    4.50
   0  -5  -4   19.10    4.40
   0  -5  -4   26.80    4.60
   0   5   4   24.00    5.30
   0   5   4   18.40    4.60
   0   5   4   21.30    3.30
   0   5   4   17.20    4.70
  -1  -5  -4   33.80    5.40
  -1  -5  -4   32.90    5.60
  -1  -5  -4   40.60    5.90
   1   5   4   40.30    6.60
   1   5   4   32.90    6.10
   1   5   4   33.70    6.50
  -2  -5  -4  141.49   10.60
  -2  -5  -4  146.39   10.50
  -2  -5  -4  130.89    9.60
   2   5   4  116.39   11.90
   2   5   4  107.49   10.70
   2   5   4  108.39   10.80
  -3  -5  -4   25.40    7.10
  -3  -5  -4   20.10    5.20
  -3  -5  -4   23.50    6.00
   3   5   4   22.10    5.80
   3   5   4   24.30    7.40
   3   5   4   34.80    7.70
  -4  -5  -4   -0.10    4.10
  -4  -5  -4    3.60    4.20
  -4  -5  -4    1.40    4.80
   4   5   4   -4.10    5.00
   4   5   4   -4.40    5.00
  10  -6  -4   -1.10    4.20
  10  -6  -4    1.00    6.10
 -10   6   4   -3.00    5.30
 -10   6   4    8.30    6.60
   9  -6  -4    2.90    3.80
   9  -6  -4    5.50    4.40
  -9   6   4    5.10    5.10
  -9   6   4    6.30    5.00
   8  -6  -4    2.70    3.10
   8  -6  -4    1.60    3.70
   8  -6  -4    2.50    3.40
  -8   6   4   -3.00    3.20
  -8   6   4    1.50    3.50
  -8   6   4    1.90    3.80
   7  -6  -4   -0.20    2.50
   7  -6  -4    2.30    3.40
   7  -6  -4    0.90    2.60
  -7   6   4    5.40    3.20
  -7   6   4    9.20    4.30
  -7   6   4    0.70    3.70
   6  -6  -4  164.78    9.80
   6  -6  -4  139.89    7.90
   6  -6  -4  132.19    9.20
   6  -6  -4  141.79    9.40
  -6   6   4  138.69    7.60
  -6   6   4  138.99   10.90
  -6   6   4  140.19    8.30
  -6   6   4  138.39   11.10
   5  -6  -4   -4.50    3.10
   5  -6  -4   -0.70    2.40
   5  -6  -4   -0.20    1.70
  -5   6   4    0.50    2.00
  -5   6   4   -1.40    3.00
  -5   6   4   -0.50    3.00
  -5   6   4   -0.20    2.30
   4  -6  -4   92.59    7.60
   4  -6  -4   93.39    6.70
   4  -6  -4   85.99    8.40
  -4   6   4  102.79   10.50
  -4   6   4  104.69    8.00
  -4   6   4   84.39    7.00
   3  -6  -4  149.49    9.60
   3  -6  -4  147.99    9.60
   3  -6  -4  136.79    8.00
  -3   6   4  171.78   11.70
  -3   6   4  174.08   10.40
  -3   6   4  140.49    9.80
   2  -6  -4    5.90    2.70
   2  -6  -4    1.70    2.70
   2  -6  -4    8.30    4.10
  -2   6   4    6.70    3.40
  -2   6   4   12.90    3.60
  -2   6   4    8.10    3.80
   1  -6  -4   -1.20    3.30
   1  -6  -4   -0.20    2.00
   1  -6  -4   -0.20    2.60
  -1   6   4    2.80    3.40
  -1   6   4    1.50    2.50
  -1   6   4   -2.50    2.80
   0  -6  -4   29.50    5.50
   0  -6  -4   44.30    7.20
   0  -6  -4   27.70    5.10
   0   6   4   38.70    7.10
   0   6   4   38.20    7.00
   0   6   4   24.60    6.00
  -1  -6  -4   17.10    4.90
  -1  -6  -4   23.80    5.30
  -1  -6  -4   14.90    5.30
   1   6   4   24.00    6.40
   1   6   4   37.20    7.90
   1   6   4   19.20    5.90
  -2  -6  -4    9.90    5.40
  -2  -6  -4   18.10    5.40
  -2  -6  -4    8.90    5.60
   2   6   4   31.30    7.00
   2   6   4   17.20    6.50
   2   6   4    9.90    5.20
  -3  -6  -4   24.30    7.30
  -3  -6  -4   24.50    6.00
   3   6   4   22.80    7.80
   3   6   4   29.80    8.80
   3   6   4   35.10    7.80
  10  -7  -4    6.30    4.70
  10  -7  -4    3.20    5.30
 -10   7   4   14.40    7.30
 -10   7   4   12.50    7.60
   9  -7  -4   38.80    7.10
   9  -7  -4   23.50    6.10
  -9   7   4   19.80    6.20
  -9   7   4   21.60    7.10
  -9   7   4   16.60    8.30
   8  -7  -4    3.20    3.60
   8  -7  -4    1.70    4.50
   8  -7  -4    2.60    3.30
  -8   7   4   -0.10    3.00
  -8   7   4    1.40    4.30
  -8   7   4    1.80    3.40
   7  -7  -4    7.20    4.10
   7  -7  -4   10.80    4.30
   7  -7  -4   10.80    3.70
  -7   7   4   14.40    5.60
  -7   7   4    5.40    4.80
   6  -7  -4   25.30    4.90
   6  -7  -4   33.70    6.10
   6  -7  -4   37.40    5.30
   6  -7  -4   37.40    6.40
  -6   7   4   44.40    7.70
  -6   7   4   37.70    5.30
  -6   7   4   37.00    7.20
   5  -7  -4    8.70    4.00
   5  -7  -4   13.90    4.10
   5  -7  -4   11.10    3.40
   5  -7  -4   16.10    4.90
  -5   7   4   15.90    4.20
  -5   7   4   10.30    4.70
  -5   7   4   14.40    5.60
   4  -7  -4  106.79   10.80
   4  -7  -4  110.49    9.00
   4  -7  -4  105.99    7.20
  -4   7   4   98.09    8.30
  -4   7   4  102.69   10.10
  -4   7   4  104.79   11.50
   3  -7  -4   80.09    8.90
   3  -7  -4   76.19    8.40
  -3   7   4   82.79    8.70
  -3   7   4   80.09    8.90
  -3   7   4   66.19    9.40
   2  -7  -4   -2.40    2.70
   2  -7  -4    1.70    3.60
  -2   7   4    0.90    4.00
  -2   7   4    1.30    3.10
  -2   7   4    5.50    4.00
   1  -7  -4    7.80    5.10
   1  -7  -4   10.70    4.20
  -1   7   4    8.50    4.80
  -1   7   4   14.60    5.80
  -1   7   4    2.10    3.30
   0  -7  -4    4.90    4.10
   0  -7  -4    5.70    5.00
   0   7   4    3.30    4.60
   0   7   4    8.80    5.60
  -1  -7  -4    9.30    5.60
  -1  -7  -4    8.70    4.40
   1   7   4   12.20    6.30
   1   7   4   25.30    7.30
  -2  -7  -4   11.70    7.20
  -2  -7  -4   12.80    5.40
   2   7   4    9.50    7.60
   2   7   4   19.40    7.20
   2   7   4   13.80    7.10
   9  -8  -4   17.90    5.90
  -9   8   4    3.40    5.40
  -9   8   4    3.60    6.30
   8  -8  -4    9.60    4.80
   8  -8  -4   14.40    6.30
  -8   8   4   14.20    6.30
  -8   8   4    5.80    5.60
   7  -8  -4   -2.50    3.50
   7  -8  -4   -1.50    3.60
  -7   8   4   -0.50    4.50
  -7   8   4    0.80    4.80
   6  -8  -4    1.20    2.90
   6  -8  -4    3.40    5.10
   6  -8  -4    4.90    4.60
  -6   8   4    3.50    4.80
  -6   8   4    2.80    4.00
  -6   8   4    0.30    4.60
   5  -8  -4    8.90    4.20
   5  -8  -4   12.10    4.50
   5  -8  -4   16.20    6.20
  -5   8   4    6.60    3.80
  -5   8   4   11.10    5.60
  -5   8   4    9.70    5.10
   4  -8  -4    4.60    4.10
   4  -8  -4    6.80    4.50
   4  -8  -4    9.70    4.90
  -4   8   4    3.70    4.50
  -4   8   4   16.00    6.40
  -4   8   4    8.70    4.20
   3  -8  -4   55.39    8.50
   3  -8  -4   45.70    7.40
   3  -8  -4   45.30    7.90
  -3   8   4   45.10    7.50
  -3   8   4   56.99    8.00
  -3   8   4   50.69    8.90
   2  -8  -4   17.40    5.40
   2  -8  -4   18.90    5.90
  -2   8   4   16.10    6.10
  -2   8   4   27.40    8.90
  -2   8   4   26.00    6.30
   1  -8  -4    5.40    4.60
   1  -8  -4   -2.20    3.50
  -1   8   4    2.90    5.40
  -1   8   4    0.40    4.60
   0  -8  -4   32.70    7.50
   0  -8  -4   41.20    7.40
   0   8   4   23.40    7.90
   0   8   4   43.60    8.70
   8  -9  -4   27.30    8.00
   8  -9  -4   28.40    7.00
  -8   9   4   21.00    6.40
  -8   9   4   31.10    8.50
   7  -9  -4    8.20    4.50
   7  -9  -4   12.70    6.50
  -7   9   4    6.70    6.30
  -7   9   4    0.10    5.60
   6  -9  -4    3.20    4.10
   6  -9  -4    7.90    5.20
  -6   9   4    5.20    5.60
  -6   9   4   -1.00    5.20
   5  -9  -4    3.30    4.30
   5  -9  -4    2.60    5.30
   5  -9  -4    1.10    5.80
  -5   9   4   -6.90    4.50
  -5   9   4    1.00    5.00
  -5   9   4    3.50    5.20
   4  -9  -4   11.80    6.10
   4  -9  -4    7.90    5.20
   4  -9  -4   10.10    6.00
  -4   9   4   12.70    5.50
  -4   9   4    3.40    5.00
  -4   9   4    7.30    6.30
   3  -9  -4   11.70    6.20
   3  -9  -4   25.10    6.40
   3  -9  -4   22.90    7.40
  -3   9   4   22.60    7.60
  -3   9   4   16.70    6.20
   2  -9  -4   -1.90    5.50
   2  -9  -4   -6.50    4.90
   2  -9  -4   -3.00    3.90
  -2   9   4    4.40    5.90
  -2   9   4    1.10    5.50
  -3  10  -5    5.30    5.70
  -3  10  -5    5.80    4.50
   3 -10   5    4.90    6.90
   3 -10   5    8.40    6.60
  -4  10  -5   25.30    7.30
  -4  10  -5   14.80    6.00
   4 -10   5   16.90    8.40
   4 -10   5   17.80    8.10
  -5  10  -5   14.90    6.30
  -5  10  -5    6.80    5.70
   5 -10   5    7.40    6.20
   5 -10   5    3.50    6.80
  -6  10  -5    0.60    5.80
   6 -10   5    3.80    5.60
   6 -10   5    7.60    8.00
   0   9  -5   -3.10    4.90
   0   9  -5    1.40    5.10
   0  -9   5    1.80    5.80
   0  -9   5    1.10    6.90
   0  -9   5    4.10    6.40
  -1   9  -5    4.80    5.50
  -1   9  -5   -0.30    4.50
   1  -9   5    8.90    5.90
   1  -9   5    1.10    5.20
   1  -9   5    7.30    6.20
  -2   9  -5    0.20    4.50
  -2   9  -5    3.90    5.10
   2  -9   5   10.80    5.80
   2  -9   5   13.70    6.80
   2  -9   5    5.40    6.10
  -3   9  -5   16.20    6.20
  -3   9  -5   21.00    7.20
   3  -9   5   20.30    6.90
   3  -9   5   10.60    6.20
  -4   9  -5   -0.70    4.50
  -4   9  -5    1.70    4.10
  -4   9  -5   -3.70    3.80
   4  -9   5    1.70    5.30
   4  -9   5   -1.30    5.10
  -5   9  -5    5.90    4.40
  -5   9  -5    6.00    5.20
  -5   9  -5   -1.30    4.40
   5  -9   5    3.20    4.70
   5  -9   5    5.20    5.70
  -6   9  -5   -1.10    4.60
  -6   9  -5    0.60    3.30
   6  -9   5    0.90    4.90
   6  -9   5   -3.20    4.00
  -7   9  -5    1.20    5.30
  -7   9  -5    9.40    5.40
   7  -9   5   11.30    5.70
  -8   9  -5    1.10    5.80
  -8   9  -5    1.10    5.80
   8  -9   5    6.10    6.10
   8  -9   5    1.20    5.60
   2   8  -5   15.00    6.70
   2   8  -5   14.80    5.90
  -2  -8   5   18.80    8.20
  -2  -8   5    0.10    6.70
  -2  -8   5   11.30    7.30
   1   8  -5   11.60    5.50
   1   8  -5    4.00    5.50
  -1  -8   5    7.90    6.40
  -1  -8   5   11.80    7.60
  -1  -8   5   10.10    5.80
   0   8  -5   25.90    6.70
   0   8  -5   15.50    6.50
   0   8  -5   13.50    6.00
   0  -8   5   12.50    6.60
   0  -8   5   17.00    6.00
   0  -8   5    5.60    5.80
  -1   8  -5    7.50    4.80
  -1   8  -5    7.70    5.00
  -1   8  -5    7.50    4.70
   1  -8   5   10.30    5.30
   1  -8   5   14.20    6.30
   1  -8   5   15.30    6.20
  -2   8  -5  165.78   12.50
  -2   8  -5  169.48   12.30
  -2   8  -5  152.08   10.70
   2  -8   5  183.48   14.30
   2  -8   5  180.48   13.90
   2  -8   5  145.19   12.00
  -3   8  -5   82.09    9.80
  -3   8  -5   64.39    8.40
  -3   8  -5   95.49   10.90
   3  -8   5   72.79   10.30
   3  -8   5   91.99   11.40
  -4   8  -5    7.50    5.00
  -4   8  -5    6.90    3.70
  -4   8  -5    2.90    4.30
   4  -8   5    3.30    4.90
   4  -8   5    7.70    6.00
  -5   8  -5   -1.40    2.70
  -5   8  -5   -0.80    3.70
  -5   8  -5    2.30    3.80
   5  -8   5   -1.10    3.60
   5  -8   5    0.50    2.60
   5  -8   5    5.40    5.50
  -6   8  -5   -5.20    3.60
  -6   8  -5    3.30    4.70
   6  -8   5    3.10    5.40
   6  -8   5    1.60    3.80
   6  -8   5    1.60    3.00
  -7   8  -5    7.20    5.50
  -7   8  -5   12.70    6.90
   7  -8   5    9.50    5.20
   7  -8   5   10.50    4.00
  -8   8  -5   52.29   10.00
  -8   8  -5   27.50    7.70
   8  -8   5   26.10    6.20
   8  -8   5   33.10    8.00
   3   7  -5   15.30    6.40
   3   7  -5   12.90    6.10
  -3  -7   5    9.20    6.60
  -3  -7   5   -0.60    5.40
   2   7  -5    7.60    4.50
   2   7  -5    3.90    4.70
   2   7  -5    3.50    4.70
  -2  -7   5    5.10    5.80
  -2  -7   5    0.30    5.30
  -2  -7   5   11.60    5.70
   1   7  -5   63.39    8.90
   1   7  -5   65.69    8.90
   1   7  -5   59.69    7.50
  -1  -7   5   63.89    9.90
  -1  -7   5   48.80    9.60
  -1  -7   5   69.09    9.40
   0   7  -5   71.39    9.30
   0   7  -5   56.09    7.20
   0   7  -5   57.49    8.50
   0  -7   5   52.69    7.60
   0  -7   5   64.19    9.50
   0  -7   5   68.29   10.00
  -1   7  -5   26.00    5.40
  -1   7  -5   34.00    6.50
  -1   7  -5   29.20    5.20
   1  -7   5   29.60    6.70
   1  -7   5   19.90    6.10
   1  -7   5   29.80    6.80
  -2   7  -5  131.99   10.30
  -2   7  -5  121.79    9.60
  -2   7  -5  156.78    9.90
   2  -7   5  130.49   10.20
   2  -7   5  159.28   11.70
   2  -7   5  144.39   11.40
  -3   7  -5  182.68   11.10
  -3   7  -5  180.88   11.00
  -3   7  -5  199.88   12.40
   3  -7   5  178.58    8.40
   3  -7   5  173.48   11.70
   3  -7   5  170.18   12.80
  -4   7  -5   39.60    5.80
  -4   7  -5   35.10    5.90
  -4   7  -5   34.00    6.60
   4  -7   5   23.00    3.50
   4  -7   5   40.40    7.40
   4  -7   5   34.80    6.90
  -5   7  -5    8.60    3.40
  -5   7  -5    7.60    3.90
  -5   7  -5    2.70    3.90
   5  -7   5    3.50    2.30
   5  -7   5    6.70    4.20
   5  -7   5    3.30    3.70
  -6   7  -5   45.10    7.40
  -6   7  -5   29.80    6.70
   6  -7   5   47.30    7.90
   6  -7   5   36.20    5.60
   6  -7   5   30.70    6.70
  -7   7  -5   -0.20    4.40
  -7   7  -5   -4.30    4.40
   7  -7   5    2.70    4.90
   7  -7   5   -0.50    2.70
  -8   7  -5   30.10    6.60
   8  -7   5   12.00    4.60
   8  -7   5   35.50    8.00
  -9   7  -5   58.09   10.20
  -9   7  -5   32.90    8.80
   9  -7   5   41.20    7.80
   9  -7   5   20.30    7.60
   4   6  -5   -1.10    4.80
   4   6  -5    3.20    4.90
   4   6  -5    2.30    5.80
  -4  -6   5    1.10    6.30
  -4  -6   5   -6.10    5.00
  -4  -6   5    4.70    5.70
   3   6  -5   32.10    7.00
   3   6  -5   39.30    7.60
   3   6  -5   26.30    6.50
  -3  -6   5   29.90    6.50
  -3  -6   5   35.30    8.70
  -3  -6   5   29.50    7.40
   2   6  -5   84.59    9.80
   2   6  -5   92.09    9.00
   2   6  -5  118.39   11.30
  -2  -6   5   70.89    8.00
  -2  -6   5  119.29   12.70
  -2  -6   5   88.29   10.70
   1   6  -5   -1.20    1.90
   1   6  -5    0.70    2.50
   1   6  -5   -1.00    2.50
  -1  -6   5   -0.40    3.60
  -1  -6   5   -5.20    3.20
  -1  -6   5    0.00    3.70
   0   6  -5    5.80    3.10
   0   6  -5    6.50    3.50
   0   6  -5    6.30    3.10
   0  -6   5    9.50    4.00
   0  -6   5   -0.10    3.60
   0  -6   5    2.00    3.90
  -1   6  -5   60.99    6.80
  -1   6  -5   75.39    8.10
  -1   6  -5   60.89    7.50
   1  -6   5   80.29    8.40
   1  -6   5   55.09    7.80
   1  -6   5   58.39    7.90
  -2   6  -5  172.88   10.10
  -2   6  -5  179.68   11.00
  -2   6  -5  177.98   10.20
   2  -6   5  188.48   11.30
   2  -6   5  167.08   11.40
   2  -6   5  193.48   11.70
   2  -6   5  167.18    7.00
  -3   6  -5  444.26   17.20
  -3   6  -5  412.76   17.50
  -3   6  -5  428.96   18.40
   3  -6   5  459.25   18.60
   3  -6   5  415.76   14.30
   3  -6   5  434.76   18.40
   3  -6   5  394.56   18.80
  -4   6  -5   61.09    7.40
  -4   6  -5   55.99    7.50
  -4   6  -5   62.39    4.90
  -4   6  -5   64.69    6.70
   4  -6   5   68.69    8.30
   4  -6   5   62.49    7.30
   4  -6   5   50.59    7.10
   4  -6   5   52.89    5.40
  -5   6  -5   34.80    4.60
  -5   6  -5   34.50    6.00
  -5   6  -5   26.60    5.60
  -5   6  -5   29.90    4.10
   5  -6   5   35.10    6.50
   5  -6   5   37.40    4.90
   5  -6   5   27.30    5.90
   5  -6   5   45.80    5.90
  -6   6  -5   10.90    3.90
  -6   6  -5    8.40    4.40
  -6   6  -5   15.60    5.00
   6  -6   5   11.60    4.40
   6  -6   5    7.50    4.40
   6  -6   5   15.70    4.00
  -7   6  -5   27.60    5.30
  -7   6  -5   21.00    6.00
  -7   6  -5   23.70    5.90
   7  -6   5   26.50    5.80
   7  -6   5   12.40    6.00
  -8   6  -5   55.39    9.20
  -8   6  -5   51.59    9.00
  -8   6  -5   49.60    7.80
   8  -6   5   54.99    8.10
   8  -6   5   43.20    8.80
  -9   6  -5   37.00    8.80
  -9   6  -5   20.30    7.10
  -9   6  -5   29.40    7.10
   9  -6   5   28.60    8.30
   9  -6   5   36.40    7.80
   5   5  -5    0.50    4.70
   5   5  -5   -0.60    5.80
  -5  -5   5    1.10    5.40
  -5  -5   5   -2.90    5.40
  -5  -5   5   -0.20    5.10
  -5  -5   5    0.00    5.50
   4   5  -5   -0.30    3.80
   4   5  -5    5.00    4.50
   4   5  -5    5.40    4.40
  -4  -5   5    3.50    5.00
  -4  -5   5    7.20    5.40
  -4  -5   5   14.90    6.30
   3   5  -5  146.19   10.90
   3   5  -5  147.89   10.60
   3   5  -5  186.58   10.10
   3   5  -5  150.28   11.00
  -3  -5   5  150.48   12.30
  -3  -5   5  153.18    9.90
  -3  -5   5  169.98   13.20
   2   5  -5   98.39    9.60
   2   5  -5   67.29    7.60
   2   5  -5   75.39    6.00
   2   5  -5   87.09    9.00
  -2  -5   5   81.19    7.90
  -2  -5   5   75.19    9.20
  -2  -5   5   92.59   10.50
   1   5  -5    4.80    1.90
   1   5  -5    2.60    2.60
   1   5  -5    2.10    2.60
   1   5  -5    0.60    2.10
  -1  -5   5   -1.20    2.70
  -1  -5   5    5.50    2.80
  -1  -5   5    3.80    3.40
   0   5  -5   29.20    5.10
   0   5  -5   20.90    4.20
   0   5  -5   24.00    4.30
   0   5  -5   26.10    2.80
   0  -5   5   21.40    1.90
   0  -5   5   23.30    5.10
   0  -5   5   26.30    4.80
   0  -5   5   27.30    5.30
  -1   5  -5   -0.10    1.00
  -1   5  -5    1.90    2.00
  -1   5  -5    1.20    2.10
  -1   5  -5   -1.00    2.00
  -1   5  -5    0.30    1.00
   1  -5   5   -2.00    1.60
   1  -5   5    0.30    0.70
   1  -5   5    1.90    2.50
   1  -5   5    1.10    2.50
  -2   5  -5   19.40    4.10
  -2   5  -5   13.60    3.40
  -2   5  -5   17.00    3.50
  -2   5  -5   17.70    2.40
   2  -5   5   18.90    4.60
   2  -5   5   16.90    3.90
   2  -5   5   21.50    4.40
   2  -5   5   15.90    2.20
  -3   5  -5  147.99    6.90
  -3   5  -5  145.99    9.10
  -3   5  -5  138.89    7.90
  -3   5  -5  146.29    9.00
   3  -5   5  149.29    7.00
   3  -5   5  141.39    9.40
   3  -5   5  160.28    9.20
   3  -5   5  157.28   10.00
  -4   5  -5   18.80    4.10
  -4   5  -5    8.40    2.60
  -4   5  -5    5.10    2.90
  -4   5  -5   15.40    2.90
   4  -5   5   13.50    3.50
   4  -5   5    9.50    2.40
   4  -5   5   16.10    4.60
   4  -5   5   12.00    4.20
  -5   5  -5   31.60    5.60
  -5   5  -5   27.60    4.20
  -5   5  -5   32.20    5.70
  -5   5  -5   24.50    3.20
   5  -5   5   33.00    4.30
   5  -5   5   25.10    4.20
   5  -5   5   35.90    6.10
   5  -5   5   31.10    5.50
  -6   5  -5   76.99    8.00
  -6   5  -5   90.29    9.30
  -6   5  -5   96.29   10.10
   6  -5   5   72.39    8.30
   6  -5   5   80.69    8.10
   6  -5   5   82.69    9.50
  -7   5  -5   55.49    8.70
  -7   5  -5   47.60    6.80
  -7   5  -5   61.09    8.10
   7  -5   5   39.20    7.50
   7  -5   5   50.59    7.10
  -8   5  -5   27.30    7.00
  -8   5  -5   30.70    7.30
  -8   5  -5   21.10    5.80
   8  -5   5   24.80    6.90
   8  -5   5   34.10    7.10
  -9   5  -5    0.70    5.20
  -9   5  -5  -12.40    5.30
  -9   5  -5    4.30    5.70
   9  -5   5   -0.70    5.50
   9  -5   5   -2.30    4.50
   6   4  -5    1.00    4.40
   6   4  -5    7.60    5.50
   6   4  -5    1.00    5.10
  -6  -4   5    3.50    7.00
  -6  -4   5   -6.00    3.90
  -6  -4   5    6.00    5.40
  -6  -4   5   -5.00    5.20
   5   4  -5    5.50    4.80
   5   4  -5   -2.90    3.60
   5   4  -5    1.60    4.40
  -5  -4   5    2.20    4.80
  -5  -4   5    1.10    5.20
  -5  -4   5    2.90    5.70
   4   4  -5   55.99    7.50
   4   4  -5   43.70    6.60
   4   4  -5   45.40    6.30
   4   4  -5   49.60    7.20
  -4  -4   5   50.59    8.80
  -4  -4   5   61.69    6.40
  -4  -4   5   49.00    7.40
  -4  -4   5   60.69    9.30
   3   4  -5   59.69    7.40
   3   4  -5   75.19    6.60
   3   4  -5   69.99    7.60
   3   4  -5   74.09    8.10
   3   4  -5   75.49    5.50
  -3  -4   5   64.99    6.60
  -3  -4   5   73.59    4.70
  -3  -4   5   71.09    8.40
  -3  -4   5   93.99   10.40
   2   4  -5   56.09    6.70
   2   4  -5   63.39    6.70
   2   4  -5   59.89    6.80
   2   4  -5   58.79    5.10
  -2  -4   5   58.99    3.40
  -2  -4   5   48.50    6.70
  -2  -4   5   59.89    7.90
  -2  -4   5   64.89    6.20
   1   4  -5   99.99    5.80
   1   4  -5  114.29    7.50
   1   4  -5   94.79    6.80
   1   4  -5  100.79    7.10
  -1  -4   5  115.29    8.50
  -1  -4   5  108.39    6.90
  -1  -4   5   97.59    3.70
  -1  -4   5  101.99    3.70
  -1  -4   5  107.69    8.30
   0   4  -5   39.70    3.20
   0   4  -5   38.00    5.20
   0   4  -5   41.20    5.00
   0   4  -5   46.30    5.50
   0  -4   5   43.90    5.80
   0  -4   5   53.69    5.80
   0  -4   5   42.80    6.30
  -1   4  -5  212.28   10.40
  -1   4  -5  215.78    8.20
  -1   4  -5  215.18   10.20
  -1   4  -5  210.78    6.50
  -1   4  -5  214.38    9.80
   1  -4   5  211.98    6.60
   1  -4   5  247.38   11.30
   1  -4   5  205.68   11.10
   1  -4   5  210.28   10.00
  -2   4  -5   76.39    5.30
  -2   4  -5   75.29    5.60
  -2   4  -5   74.29    4.60
  -2   4  -5   67.09    6.50
   2  -4   5   70.79    7.00
   2  -4   5   72.99    5.90
   2  -4   5   73.59    3.90
   2  -4   5   73.09    7.50
  -3   4  -5   16.20    3.40
  -3   4  -5   18.00    2.80
  -3   4  -5   16.20    3.70
  -3   4  -5   16.20    2.90
   3  -4   5   10.30    3.10
   3  -4   5   13.10    3.70
   3  -4   5   15.90    3.20
   3  -4   5   19.00    2.70
  -4   4  -5   37.60    5.60
  -4   4  -5   42.10    5.00
  -4   4  -5   50.49    6.00
  -4   4  -5   34.00    3.30
   4  -4   5   35.80    4.40
   4  -4   5   35.50    5.70
   4  -4   5   29.40    5.10
   4  -4   5   34.40    3.90
  -5   4  -5    8.30    3.30
  -5   4  -5    6.20    2.80
  -5   4  -5    3.50    3.00
   5  -4   5    8.50    2.80
   5  -4   5    0.20    3.40
   5  -4   5    5.70    3.60
  -6   4  -5  110.59    8.70
  -6   4  -5  150.58   10.00
  -6   4  -5  135.49   10.20
   6  -4   5  127.89    9.70
   6  -4   5  126.69    9.30
   6  -4   5  151.28   10.80
  -7   4  -5   47.80    7.40
  -7   4  -5   41.60    6.70
  -7   4  -5   43.50    7.70
   7  -4   5   25.90    5.70
   7  -4   5   31.40    7.10
  -8   4  -5   -6.40    3.50
  -8   4  -5   -2.50    4.60
  -8   4  -5    0.90    4.10
   8  -4   5    1.60    4.70
   8  -4   5   -0.10    3.60
  -9   4  -5    7.00    5.70
  -9   4  -5   -2.90    5.60
   9  -4   5    1.40    4.70
   9  -4   5   -0.70    6.90
   7   3  -5   24.20    7.60
   7   3  -5   54.99    9.90
  -7  -3   5   35.90    8.50
  -7  -3   5   30.80    9.10
  -7  -3   5   47.80    9.30
   6   3  -5   -0.90    4.90
   6   3  -5   -1.80    4.30
   6   3  -5   -0.60    4.10
  -6  -3   5   -1.60    4.00
  -6  -3   5   -3.30    4.20
  -6  -3   5    0.70    4.50
   5   3  -5   28.20    4.70
   5   3  -5   22.80    5.50
   5   3  -5   22.90    5.40
   5   3  -5   20.70    5.80
  -5  -3   5   40.30    6.90
  -5  -3   5   21.70    6.20
  -5  -3   5   30.20    4.20
  -5  -3   5   27.40    6.80
   4   3  -5    7.30    3.00
   4   3  -5    7.60    3.60
   4   3  -5    3.10    2.60
   4   3  -5    8.00    3.50
  -4  -3   5    0.90    2.50
  -4  -3   5    7.50    3.00
  -4  -3   5    5.00    3.70
  -4  -3   5    6.30    2.00
   3   3  -5   15.90    3.70
   3   3  -5   10.80    3.10
   3   3  -5    6.00    2.10
   3   3  -5    6.70    2.90
   3   3  -5   10.60    3.30
  -3  -3   5   11.90    4.00
  -3  -3   5    8.40    3.50
  -3  -3   5    9.50    1.90
  -3  -3   5   13.30    2.90
   2   3  -5  262.47   11.10
   2   3  -5  241.98    8.50
   2   3  -5  267.47   11.90
   2   3  -5  273.57   12.10
   2   3  -5  276.07   12.20
  -2  -3   5  259.07    8.70
  -2  -3   5  261.27   10.10
  -2  -3   5  270.87    8.20
  -2  -3   5  237.58   12.80
  -2  -3   5  258.77   12.60
   1   3  -5  115.39    7.00
   1   3  -5  112.39    7.00
   1   3  -5  105.59    5.90
   1   3  -5  119.39    7.30
  -1  -3   5  122.09    8.00
  -1  -3   5  105.49    5.90
  -1  -3   5  109.79    7.80
   0   3  -5  388.36   14.20
   0   3  -5  378.46   14.00
   0   3  -5  366.36   13.70
   0   3  -5  357.06   12.30
   0  -3   5  353.06   14.80
   0  -3   5  376.16   14.90
   0  -3   5  380.26   13.20
  -1   3  -5  163.08    7.50
  -1   3  -5  155.48    5.20
  -1   3  -5  183.78    8.60
  -1   3  -5  151.88    7.80
  -1   3  -5  180.48    7.40
   1  -3   5  146.99    8.70
   1  -3   5  138.09    7.40
   1  -3   5  157.28    8.20
   1  -3   5  155.58    5.30
  -2   3  -5   43.80    3.70
  -2   3  -5   49.99    5.00
  -2   3  -5   38.70    4.80
  -2   3  -5   45.20    3.40
   2  -3   5   36.90    2.90
   2  -3   5   39.40    4.50
   2  -3   5   49.40    5.80
   2  -3   5   39.30    4.80
  -3   3  -5    3.00    1.90
  -3   3  -5    6.20    2.10
  -3   3  -5    0.30    1.70
   3  -3   5    3.10    1.90
   3  -3   5    0.30    1.40
   3  -3   5    0.80    2.30
   3  -3   5   -1.10    1.80
  -4   3  -5   76.69    5.70
  -4   3  -5   71.59    6.00
  -4   3  -5   71.29    7.20
   4  -3   5   63.69    3.40
   4  -3   5   88.39    8.40
   4  -3   5   65.79    3.70
   4  -3   5   71.49    7.70
   4  -3   5   74.89    5.80
  -5   3  -5   26.40    5.10
  -5   3  -5   24.40    4.60
  -5   3  -5   30.30    4.70
   5  -3   5   24.90    5.50
   5  -3   5   33.80    5.80
   5  -3   5   28.00    4.70
  -6   3  -5   50.59    6.40
  -6   3  -5   52.69    7.40
  -6   3  -5   42.70    6.50
   6  -3   5   44.60    7.20
   6  -3   5   40.20    6.30
   6  -3   5   43.90    6.50
  -7   3  -5    3.10    3.40
  -7   3  -5    0.40    3.60
  -7   3  -5    0.70    3.20
   7  -3   5   -0.10    2.90
   7  -3   5    2.20    4.30
  -8   3  -5   27.60    7.10
  -8   3  -5    7.00    5.80
   8  -3   5   21.40    6.50
   8  -3   5   11.20    6.10
  -9   3  -5    0.00    5.80
  -9   3  -5   -0.20    5.20
   9  -3   5   -2.70    6.20
   9  -3   5    6.70    4.40
   8   2  -5   52.99   10.50
   7   2  -5   10.20    5.40
   7   2  -5   12.10    5.90
   7   2  -5    8.20    5.60
  -7  -2   5   17.60    7.40
  -7  -2   5    6.80    6.00
  -7  -2   5   25.60    7.10
   6   2  -5   17.10    5.60
   6   2  -5    7.30    4.50
   6   2  -5   11.60    4.50
   6   2  -5   13.40    4.70
  -6  -2   5    7.30    5.00
  -6  -2   5    5.80    5.00
  -6  -2   5    7.90    4.80
   5   2  -5   56.89    7.40
   5   2  -5   55.09    6.90
   5   2  -5   48.30    6.80
   5   2  -5   49.70    5.80
  -5  -2   5   51.39    8.20
  -5  -2   5   48.20    6.40
  -5  -2   5   53.69    8.00
   4   2  -5   50.49    4.80
   4   2  -5   53.49    6.40
   4   2  -5   54.19    6.50
   4   2  -5   49.70    6.20
  -4  -2   5   43.30    6.80
  -4  -2   5   46.10    3.70
  -4  -2   5   48.50    5.90
  -4  -2   5   57.49    7.60
   3   2  -5   59.39    6.10
   3   2  -5   62.69    6.30
   3   2  -5   51.49    3.80
   3   2  -5   41.70    5.30
  -3  -2   5   42.20    6.20
  -3  -2   5   58.29    7.20
  -3  -2   5   55.99    6.20
  -3  -2   5   43.80    3.40
   2   2  -5    5.70    1.20
   2   2  -5    6.30    2.40
   2   2  -5    3.70    2.00
   2   2  -5    7.70    2.40
  -2  -2   5    6.80    2.90
  -2  -2   5    4.30    2.40
  -2  -2   5    7.00    1.10
  -2  -2   5    7.80    1.80
   1   2  -5    2.10    1.20
   1   2  -5    2.30    1.60
   1   2  -5   -0.10    1.30
  -1  -2   5    4.50    1.50
  -1  -2   5    2.80    2.10
  -1  -2   5    1.40    1.80
   0   2  -5    0.90    1.30
   0   2  -5    1.70    0.50
   0   2  -5    1.00    0.50
   0   2  -5    0.20    1.40
   0   2  -5    0.60    1.30
   0  -2   5    0.70    1.70
   0  -2   5   -0.20    1.50
   0  -2   5    2.20    1.40
  -1   2  -5 1080.59   29.50
  -1   2  -5 1075.09   29.70
  -1   2  -5 1012.00   30.30
  -1   2  -5 1071.19   27.70
  -1   2  -5 1052.29   27.30
   1  -2   5 1063.99   30.00
   1  -2   5 1033.20   31.70
   1  -2   5 1029.20   27.80
   1  -2   5 1010.20   30.10
  -2   2  -5  743.73   23.30
  -2   2  -5  785.32   24.10
  -2   2  -5  772.82   22.40
   2  -2   5  785.32   22.60
   2  -2   5  762.22   25.10
   2  -2   5  761.62   24.10
   2  -2   5  753.12   22.30
  -3   2  -5   84.49    6.30
  -3   2  -5   88.69    6.40
  -3   2  -5   80.49    5.10
   3  -2   5   81.79    7.00
   3  -2   5   83.39    4.40
   3  -2   5   88.39    3.80
   3  -2   5   86.29    6.50
   3  -2   5   81.19    5.60
  -4   2  -5   43.80    4.70
  -4   2  -5   42.50    5.60
  -4   2  -5   41.10    5.40
   4  -2   5   38.80    5.10
   4  -2   5   49.10    6.40
   4  -2   5   42.20    6.00
  -5   2  -5   44.40    6.00
  -5   2  -5   47.20    6.60
  -5   2  -5   50.99    5.40
   5  -2   5   50.59    6.80
   5  -2   5   41.90    6.80
   5  -2   5   48.00    6.20
  -6   2  -5    2.60    3.10
  -6   2  -5   -0.30    3.00
  -6   2  -5    1.10    3.50
   6  -2   5    2.30    3.80
   6  -2   5    0.00    2.70
   6  -2   5    0.00    3.40
  -7   2  -5   42.60    7.00
  -7   2  -5   28.80    6.60
   7  -2   5   27.70    6.50
   7  -2   5   25.60    6.90
  -8   2  -5   36.30    8.00
   8  -2   5   37.90   10.00
   8  -2   5   32.40    7.70
   8   1  -5   13.80    5.80
   8   1  -5   27.20    7.20
   8   1  -5   24.60    7.80
  -8  -1   5   14.00    7.30
  -8  -1   5   17.00    7.30
   7   1  -5    9.10    5.10
   7   1  -5   11.30    5.40
   7   1  -5    5.60    3.80
  -7  -1   5    9.20    5.50
  -7  -1   5    7.00    4.60
  -7  -1   5    3.10    4.70
   6   1  -5    1.20    3.30
   6   1  -5   -0.30    2.70
   6   1  -5    0.40    2.50
  -6  -1   5   -0.40    3.40
  -6  -1   5   -2.60    3.30
  -6  -1   5    2.30    3.60
   5   1  -5   56.29    7.10
   5   1  -5   43.80    5.20
   5   1  -5   35.20    5.30
   5   1  -5   46.20    6.30
  -5  -1   5   53.69    7.40
  -5  -1   5   53.99    7.40
  -5  -1   5   54.89    3.70
  -5  -1   5   57.19    6.00
   4   1  -5  528.35   19.80
   4   1  -5  551.34   17.40
   4   1  -5  533.35   19.20
   4   1  -5  526.75   19.50
  -4  -1   5  531.45   18.30
  -4  -1   5  525.95   20.80
  -4  -1   5  482.75   15.50
  -4  -1   5  530.95   14.80
  -4  -1   5  546.85   21.10
   3   1  -5   51.59    5.40
   3   1  -5   46.50    3.30
   3   1  -5   43.00    4.90
   3   1  -5   45.40    5.20
  -3  -1   5   48.30    5.10
  -3  -1   5   38.00    2.20
  -3  -1   5   48.60    6.10
  -3  -1   5   35.60    2.10
  -3  -1   5   40.80    5.70
   2   1  -5   15.70    2.80
   2   1  -5   11.10    2.50
   2   1  -5   13.20    1.60
   2   1  -5   18.60    3.00
   2   1  -5   16.40    1.40
  -2  -1   5   16.40    3.20
  -2  -1   5   14.40    1.70
  -2  -1   5   15.00    3.60
  -2  -1   5   17.30    1.50
  -2  -1   5   15.40    1.40
  -2  -1   5   13.90    3.00
   1   1  -5  163.48    5.90
   1   1  -5  158.38    7.40
   1   1  -5  167.38    7.60
   1   1  -5  163.68    5.40
   1   1  -5  152.88    7.00
  -1  -1   5  157.28    5.10
  -1  -1   5  161.98    5.90
  -1  -1   5  149.39    7.90
  -1  -1   5  177.28    8.80
   0   1  -5  170.28    7.50
   0   1  -5  153.18    5.50
   0   1  -5  164.78    6.00
   0   1  -5  163.68    7.50
   0   1  -5  166.38    6.60
   0  -1   5  154.88    8.20
   0  -1   5  160.08    6.70
   0  -1   5  166.78    8.10
   0  -1   5  159.38    5.50
  -1   1  -5  713.83   20.30
  -1   1  -5  729.13   20.40
  -1   1  -5  727.53   22.30
  -1   1  -5  724.33   22.10
   1  -1   5  762.52   22.30
   1  -1   5  737.33   22.20
   1  -1   5  720.43   23.70
   1  -1   5  728.23   21.10
  -2   1  -5  384.96   12.00
  -2   1  -5  386.86   14.30
  -2   1  -5  389.96   13.20
  -2   1  -5  399.96   14.60
   2  -1   5  426.26   15.20
   2  -1   5  422.66   13.30
   2  -1   5  382.26   13.90
   2  -1   5  381.26   15.60
  -3   1  -5   14.30    1.90
  -3   1  -5    9.70    2.90
  -3   1  -5   18.30    2.40
  -3   1  -5   17.40    3.40
   3  -1   5   11.70    3.60
   3  -1   5   14.70    3.90
   3  -1   5   13.70    3.00
   3  -1   5   13.60    1.90
  -4   1  -5   97.99    7.30
  -4   1  -5   80.29    6.90
  -4   1  -5   78.79    4.90
   4  -1   5   94.39    7.20
   4  -1   5   87.19    7.30
   4  -1   5   90.59    8.90
  -5   1  -5   96.19    6.20
  -5   1  -5  108.59    8.70
  -5   1  -5  117.19    8.60
   5  -1   5   99.79    8.50
   5  -1   5   92.49    9.90
   5  -1   5  104.29    9.80
  -6   1  -5   21.50    5.40
  -6   1  -5   12.00    4.70
   6  -1   5   13.50    4.50
   6  -1   5   22.10    6.60
   6  -1   5    9.20    4.20
  -7   1  -5   89.99   10.70
  -7   1  -5  120.69   12.10
   7  -1   5  122.09   13.50
   7  -1   5  102.79   11.70
  -8   1  -5    2.30    5.30
  -8   1  -5    3.70    4.50
   8  -1   5    4.00    7.70
   8  -1   5   -0.60    4.80
   9   0  -5   30.40    9.90
   9   0  -5   15.20    6.30
   9   0  -5   16.90    7.00
  -9   0   5   22.10    8.50
  -9   0   5   12.90    7.30
   8   0  -5   20.60    7.30
   8   0  -5   21.80    6.60
   8   0  -5    3.60    4.00
  -8   0   5   12.60    5.50
  -8   0   5   12.40    6.30
  -8   0   5   12.80    5.80
   7   0  -5   45.80    7.70
   7   0  -5   26.70    5.30
   7   0  -5   38.40    6.10
  -7   0   5   25.60    6.20
  -7   0   5   34.30    6.70
  -7   0   5   29.90    6.90
   6   0  -5    1.10    2.40
   6   0  -5    0.60    2.60
   6   0  -5   -1.50    2.30
  -6   0   5    2.50    2.50
  -6   0   5    2.50    3.40
  -6   0   5   -0.60    3.20
   5   0  -5  214.78    7.20
   5   0  -5  224.48   11.80
   5   0  -5  247.58   12.60
   5   0  -5  211.88   10.20
  -5   0   5  205.28    9.30
  -5   0   5  219.38   12.70
  -5   0   5  231.78   12.80
  -5   0   5  220.98    7.00
   4   0  -5  659.53   21.90
   4   0  -5  662.43   22.70
   4   0  -5  634.44   20.10
   4   0  -5  683.73   22.30
  -4   0   5  630.04   23.40
  -4   0   5  621.04   20.10
  -4   0   5  651.43   23.50
   3   0  -5   73.59    5.50
   3   0  -5   71.19    5.30
   3   0  -5   59.99    4.60
   3   0  -5   75.79    4.30
  -3   0   5   68.09    5.50
  -3   0   5   63.49    4.80
  -3   0   5   75.99    6.40
   2   0  -5   39.40    1.60
   2   0  -5   43.90    3.00
   2   0  -5   41.80    4.10
   2   0  -5   45.40    3.70
   2   0  -5   40.50    4.40
  -2   0   5   50.29    5.40
  -2   0   5   52.99    5.10
  -2   0   5   53.99    6.00
  -2   0   5   41.50    1.60
   1   0  -5   14.10    1.90
   1   0  -5   16.30    2.20
   1   0  -5   15.00    2.40
   1   0  -5   13.90    2.60
   1   0  -5   17.80    2.20
  -1   0   5   22.50    2.30
  -1   0   5   19.50    2.90
  -1   0   5   18.90    3.20
  -1   0   5   16.00    3.20
   0   0  -5  129.79    6.80
   0   0  -5  139.39    5.10
   0   0  -5  133.49    6.20
   0   0  -5  133.69    5.60
   0   0   5  141.09    5.30
   0   0   5  134.49    7.60
   0   0   5  142.79    6.30
   0   0   5  129.09    7.20
   0   0   5  130.79    5.40
  -1   0  -5  304.37   11.10
  -1   0  -5  318.77   10.80
  -1   0  -5  299.07    8.60
  -1   0  -5  316.17   12.10
   1   0   5  300.07    8.80
   1   0   5  303.17   11.60
   1   0   5  295.17   12.90
   1   0   5  316.77   11.70
   1   0   5  299.17   11.80
  -2   0  -5  383.06   14.90
  -2   0  -5  387.56   10.70
  -2   0  -5  387.56   13.80
  -2   0  -5  403.46   14.20
   2   0   5  421.16   15.60
   2   0   5  397.06   14.90
   2   0   5  384.76   11.00
   2   0   5  415.16   13.50
   2   0   5  411.36   16.30
  -3   0  -5   52.99    2.90
  -3   0  -5   51.29    5.50
  -3   0  -5   48.90    5.10
  -3   0  -5   50.69    2.60
  -3   0  -5   55.79    6.10
   3   0   5   50.39    3.10
   3   0   5   64.59    7.20
   3   0   5   54.09    3.60
   3   0   5   63.99    6.60
   3   0   5   51.99    6.50
  -4   0  -5    9.60    3.70
  -4   0  -5    8.70    2.90
  -4   0  -5   11.40    2.10
  -4   0  -5   12.30    3.30
   4   0   5   13.80    4.60
   4   0   5    8.10    3.60
   4   0   5   14.40    3.60
   4   0   5   10.90    1.80
  -5   0  -5  173.08   10.70
  -5   0  -5  174.88   10.50
  -5   0  -5  171.58   11.50
   5   0   5  173.98   12.10
   5   0   5  171.48   11.50
   5   0   5  165.78   11.00
  -6   0  -5   61.99    8.20
  -6   0  -5   62.49    8.50
  -6   0  -5   69.79    8.10
   6   0   5   48.20    7.10
   6   0   5   67.99    9.00
   6   0   5   41.10    7.90
  -7   0  -5   -3.70    4.00
  -7   0  -5   -1.50    3.20
  -7   0  -5   -0.30    3.90
   7   0   5   -3.60    3.80
   7   0   5   -5.80    5.70
   9  -1  -5   11.40    5.90
   9  -1  -5   24.70    8.10
   9  -1  -5   30.00    7.20
  -9   1   5   22.10    7.90
  -9   1   5   19.40    7.20
   8  -1  -5   74.29    8.80
   8  -1  -5   80.99   10.70
   8  -1  -5   60.89    9.10
  -8   1   5   59.39    9.30
  -8   1   5   95.29   11.50
  -8   1   5   53.19    8.90
   7  -1  -5    0.40    2.90
   7  -1  -5   -2.00    3.30
   7  -1  -5    1.80    2.70
  -7   1   5   -2.90    2.90
  -7   1   5   -0.80    3.80
  -7   1   5   -1.20    3.40
   6  -1  -5   10.40    3.70
   6  -1  -5    4.20    2.40
   6  -1  -5    5.40    3.20
  -6   1   5    6.10    3.40
  -6   1   5    2.30    3.30
  -6   1   5    9.70    3.80
   5  -1  -5  132.09    8.50
   5  -1  -5  124.19    4.80
   5  -1  -5  131.99    7.60
   5  -1  -5  137.59    9.10
  -5   1   5  140.79    6.40
  -5   1   5  139.19    4.70
  -5   1   5  135.79    9.50
  -5   1   5  145.89    9.50
   4  -1  -5   90.99    6.30
   4  -1  -5   80.89    5.40
   4  -1  -5   93.19    6.60
  -4   1   5   96.69    5.30
  -4   1   5   99.29    7.60
  -4   1   5   88.89    7.10
   3  -1  -5  255.17    9.80
   3  -1  -5  254.77    7.00
   3  -1  -5  250.87   11.00
   3  -1  -5  256.67    7.00
   3  -1  -5  271.07   10.50
  -3   1   5  265.97   11.60
  -3   1   5  265.67   12.50
  -3   1   5  248.48   10.10
   2  -1  -5   19.60    2.70
   2  -1  -5   13.20    1.70
   2  -1  -5   18.50    3.20
   2  -1  -5   15.10    1.60
   2  -1  -5   14.00    2.30
  -2   1   5   15.40    1.70
  -2   1   5   17.90    3.10
  -2   1   5   17.30    3.20
  -2   1   5   15.60    3.50
   1  -1  -5  248.68    8.90
   1  -1  -5  242.58   10.20
   1  -1  -5  247.18    9.20
  -1   1   5  244.08    9.00
  -1   1   5  252.07   10.90
  -1   1   5  259.97    9.10
  -1   1   5  269.47   11.60
   0  -1  -5  173.98    7.30
   0  -1  -5  164.08    8.20
   0  -1  -5  166.38    6.80
   0   1   5  165.78    8.80
   0   1   5  163.88    5.30
   0   1   5  164.58    7.70
   0   1   5  176.78    8.80
   0   1   5  174.98    5.70
  -1  -1  -5  202.08    8.70
  -1  -1  -5  200.68    9.60
  -1  -1  -5  195.48    8.00
   1   1   5  208.68    9.80
   1   1   5  218.28    9.50
   1   1   5  194.68   10.30
  -2  -1  -5  130.19    6.90
  -2  -1  -5  142.79    8.30
  -2  -1  -5  139.39    7.50
   2   1   5  130.29    8.30
   2   1   5  138.99    8.40
   2   1   5  139.19    7.20
   2   1   5  143.69    8.90
  -3  -1  -5  147.49    9.30
  -3  -1  -5  139.89    4.60
  -3  -1  -5  137.59    4.70
  -3  -1  -5  126.19    7.60
  -3  -1  -5  153.98    8.60
   3   1   5  138.49    9.30
   3   1   5  152.58   10.10
   3   1   5  139.79    9.30
   3   1   5  142.39    7.20
  -4  -1  -5   75.79    8.10
  -4  -1  -5   87.29    7.10
  -4  -1  -5   79.59    7.50
   4   1   5   77.09    5.10
   4   1   5   78.99    9.00
   4   1   5   80.49    8.60
   4   1   5   79.79    9.00
  -5  -1  -5   73.19    8.10
  -5  -1  -5  104.89    8.50
  -5  -1  -5   76.59    8.80
   5   1   5   87.39    9.80
   5   1   5   75.99    9.00
   5   1   5   73.59    9.30
  -6  -1  -5   -0.20    3.80
  -6  -1  -5    8.80    5.40
  -6  -1  -5    5.50    3.80
   6   1   5    4.50    5.10
   6   1   5    2.70    4.10
   6   1   5    9.50    5.60
  -7  -1  -5    0.20    4.70
  -7  -1  -5   -0.70    5.80
  -7  -1  -5    0.00    3.20
   7   1   5   -4.50    4.40
   7   1   5   -2.20    5.50
   9  -2  -5   41.70    7.70
   9  -2  -5   78.79   11.00
   9  -2  -5   54.29    9.00
  -9   2   5   51.99   10.00
  -9   2   5   70.59    9.90
   8  -2  -5    6.40    3.90
   8  -2  -5    8.10    4.90
   8  -2  -5    8.90    4.00
  -8   2   5    4.80    4.40
  -8   2   5   12.70    5.60
  -8   2   5    6.20    4.70
   7  -2  -5   70.59    7.70
   7  -2  -5   78.69    9.40
   7  -2  -5   55.89    7.60
  -7   2   5   74.49    9.10
  -7   2   5   60.09    8.60
  -7   2   5   63.29    8.50
   6  -2  -5   35.70    5.20
   6  -2  -5   33.70    3.50
   6  -2  -5   40.50    6.20
   6  -2  -5   33.70    5.50
  -6   2   5   46.70    6.70
  -6   2   5   40.60    6.80
  -6   2   5   40.50    6.50
   5  -2  -5    2.20    2.20
   5  -2  -5    2.40    2.00
   5  -2  -5    1.10    1.90
   5  -2  -5    1.90    1.40
  -5   2   5    2.70    2.40
  -5   2   5    3.00    2.90
  -5   2   5    1.10    2.30
  -5   2   5    1.00    1.30
   4  -2  -5  187.58    8.70
   4  -2  -5  181.48    9.40
   4  -2  -5  164.28    6.10
   4  -2  -5  174.28    6.40
   4  -2  -5  171.98    8.40
  -4   2   5  191.28    7.90
  -4   2   5  193.18   10.90
  -4   2   5  161.28    5.90
  -4   2   5  168.78    9.70
   3  -2  -5  284.87   11.80
   3  -2  -5  279.37   11.00
   3  -2  -5  269.87    9.00
   3  -2  -5  283.07   10.50
  -3   2   5  284.27   12.00
  -3   2   5  285.07   13.40
  -3   2   5  276.87   11.00
   2  -2  -5   15.70    2.30
   2  -2  -5   17.60    2.40
   2  -2  -5   16.20    3.00
   2  -2  -5   20.80    3.10
  -2   2   5   17.60    3.80
  -2   2   5   20.00    2.60
  -2   2   5   22.10    3.20
  -2   2   5   18.60    3.30
   1  -2  -5  385.86   13.60
   1  -2  -5  395.26   13.00
   1  -2  -5  393.56   12.00
   1  -2  -5  386.96   14.50
  -1   2   5  404.66   15.90
  -1   2   5  388.26   13.60
  -1   2   5  416.26   12.70
  -1   2   5  383.16   15.10
   0  -2  -5  168.48    6.30
   0  -2  -5  168.18    7.80
   0  -2  -5  161.48    8.40
   0  -2  -5  148.99    5.10
   0   2   5  160.78    8.20
   0   2   5  176.48    9.40
   0   2   5  159.08    8.80
   0   2   5  153.58    5.10
   0   2   5  156.78    4.90
  -1  -2  -5  364.26   13.40
  -1  -2  -5  344.27   11.60
  -1  -2  -5  319.97   13.60
   1   2   5  349.27   15.20
   1   2   5  331.27   13.70
   1   2   5  333.57   14.10
  -2  -2  -5   25.70    4.10
  -2  -2  -5   29.80    4.60
  -2  -2  -5   38.00    4.10
   2   2   5   36.30    5.80
   2   2   5   39.40    5.70
   2   2   5   41.20    5.00
   2   2   5   29.80    5.10
  -3  -2  -5   10.60    3.40
  -3  -2  -5   12.00    3.20
  -3  -2  -5    6.60    3.40
   3   2   5   11.20    3.20
   3   2   5   14.50    4.20
   3   2   5   11.00    4.10
   3   2   5   13.00    3.90
  -4  -2  -5   10.80    4.10
  -4  -2  -5   19.30    4.60
  -4  -2  -5   22.00    4.60
   4   2   5   20.20    5.20
   4   2   5   18.80    5.00
   4   2   5   23.40    5.40
   4   2   5   12.20    3.80
  -5  -2  -5    9.20    4.30
  -5  -2  -5    9.30    4.20
  -5  -2  -5   10.60    4.10
   5   2   5    2.30    4.40
   5   2   5   15.20    5.30
   5   2   5    7.20    5.70
  -6  -2  -5   37.10    6.80
  -6  -2  -5   65.99    8.50
   6   2   5   25.10    7.20
   6   2   5   19.50    6.90
   6   2   5   24.60    7.00
  10  -3  -5    3.70    5.20
  10  -3  -5    6.30    6.60
 -10   3   5   11.70    7.80
 -10   3   5   13.90    6.90
   9  -3  -5   21.10    6.40
   9  -3  -5   23.30    6.00
   9  -3  -5   27.20    8.10
  -9   3   5   28.60    8.30
  -9   3   5   32.10    7.40
   8  -3  -5    2.10    4.00
   8  -3  -5    6.50    3.90
   8  -3  -5    3.20    4.10
  -8   3   5    9.00    4.60
  -8   3   5    0.50    4.50
  -8   3   5    1.10    4.40
   7  -3  -5    1.50    3.10
   7  -3  -5    0.80    2.40
   7  -3  -5   -0.70    2.90
  -7   3   5    0.90    3.90
  -7   3   5    0.70    3.20
  -7   3   5    1.50    3.00
   6  -3  -5   58.69    6.70
   6  -3  -5   85.99    7.90
   6  -3  -5   70.99    5.10
   6  -3  -5   80.69    8.40
  -6   3   5   59.89    7.80
  -6   3   5   72.29    7.90
  -6   3   5   82.29    8.80
   5  -3  -5   51.69    6.30
   5  -3  -5   50.99    5.50
   5  -3  -5   54.69    4.30
   5  -3  -5   54.19    5.90
  -5   3   5   49.10    3.60
  -5   3   5   56.19    7.10
  -5   3   5   51.19    7.00
  -5   3   5   55.79    6.30
   4  -3  -5   -0.30    1.50
   4  -3  -5    0.60    1.40
   4  -3  -5    4.30    2.10
   4  -3  -5    2.50    1.90
  -4   3   5    1.60    1.60
  -4   3   5    1.60    1.90
  -4   3   5   -0.30    1.50
  -4   3   5   -0.90    1.90
   3  -3  -5   65.09    4.60
   3  -3  -5   64.49    5.40
   3  -3  -5   74.59    5.50
   3  -3  -5   71.39    4.20
  -3   3   5   76.99    5.90
  -3   3   5   77.39    5.60
  -3   3   5   61.49    7.20
   2  -3  -5   90.69    6.10
   2  -3  -5   97.19    4.30
   2  -3  -5   90.39    5.60
   2  -3  -5  102.79    6.40
  -2   3   5  100.19    5.90
  -2   3   5   89.89    7.30
  -2   3   5  102.69    5.90
  -2   3   5  105.29    6.90
   1  -3  -5    6.90    2.50
   1  -3  -5    3.40    2.00
   1  -3  -5    1.60    2.10
   1  -3  -5    4.90    1.10
  -1   3   5    2.90    1.00
  -1   3   5    3.90    2.10
  -1   3   5    2.70    2.30
  -1   3   5    3.50    1.60
  -1   3   5    2.60    2.40
   0  -3  -5  274.17   11.30
   0  -3  -5  251.87   10.90
   0  -3  -5  255.37    8.20
   0  -3  -5  247.68   11.30
   0   3   5  270.77   13.00
   0   3   5  261.57   12.60
   0   3   5  259.67   11.90
   0   3   5  239.98    8.10
   0   3   5  259.77    8.40
  -1  -3  -5   39.50    3.10
  -1  -3  -5   21.60    4.20
  -1  -3  -5   29.50    4.30
  -1  -3  -5   31.00    2.20
   1   3   5   43.90    6.40
   1   3   5   42.30    5.90
   1   3   5   35.90    2.00
   1   3   5   41.80    5.80
  -2  -3  -5   33.10    4.00
  -2  -3  -5   37.10    5.20
  -2  -3  -5   32.80    5.20
   2   3   5   31.60    6.50
   2   3   5   39.60    6.40
   2   3   5   38.10    5.40
  -3  -3  -5   13.00    3.90
  -3  -3  -5   19.10    4.70
  -3  -3  -5   12.90    3.20
   3   3   5   13.00    4.10
   3   3   5   21.90    6.10
   3   3   5   16.40    4.80
   3   3   5   13.60    4.50
  -4  -3  -5    7.40    3.90
  -4  -3  -5   -0.10    4.10
  -4  -3  -5    4.30    4.20
   4   3   5    8.30    4.50
   4   3   5    9.90    4.30
   4   3   5    4.70    5.20
  -5  -3  -5   26.30    6.40
  -5  -3  -5   23.80    6.00
   5   3   5   27.10    7.40
   5   3   5   26.80    8.00
   5   3   5   32.90    7.60
  -6  -3  -5   52.39    8.30
  -6  -3  -5   38.80    8.80
   6   3   5   56.09   10.10
   6   3   5   49.80    9.60
   6   3   5   37.90    8.80
  10  -4  -5    9.10    5.50
  10  -4  -5    8.40    6.60
 -10   4   5   -3.40    5.30
 -10   4   5    3.60    6.50
   9  -4  -5   16.80    6.30
   9  -4  -5    6.30    4.50
  -9   4   5   14.40    6.00
  -9   4   5    8.00    5.00
   8  -4  -5   30.70    6.80
   8  -4  -5   31.50    6.30
   8  -4  -5   21.70    5.20
  -8   4   5   16.80    5.30
  -8   4   5   17.70    6.30
  -8   4   5   24.50    6.20
   7  -4  -5    5.00    3.20
   7  -4  -5    3.30    2.80
   7  -4  -5    3.70    3.30
  -7   4   5    0.60    4.10
  -7   4   5   -0.40    3.20
  -7   4   5    4.40    4.10
   6  -4  -5  120.59    8.90
   6  -4  -5  115.59    8.20
   6  -4  -5  120.49    7.40
   6  -4  -5  112.49    7.80
  -6   4   5   83.49    9.30
  -6   4   5  110.09    8.20
  -6   4   5   90.59    9.70
   5  -4  -5   42.00    4.80
   5  -4  -5   42.60    5.70
   5  -4  -5   38.50    5.40
   5  -4  -5   42.90    4.80
  -5   4   5   31.40    5.70
  -5   4   5   37.20    4.20
  -5   4   5   47.20    5.30
  -5   4   5   44.10    6.30
   4  -4  -5   -0.20    2.20
   4  -4  -5    6.80    2.90
   4  -4  -5   -0.50    1.80
   4  -4  -5    2.70    1.60
  -4   4   5    3.70    2.60
  -4   4   5    4.20    2.20
  -4   4   5    0.50    1.90
  -4   4   5    7.20    3.40
   3  -4  -5    5.20    2.40
   3  -4  -5    4.90    2.00
   3  -4  -5    3.20    2.10
   3  -4  -5    2.70    1.30
  -3   4   5    5.20    1.60
  -3   4   5    2.60    2.50
  -3   4   5    4.00    2.90
  -3   4   5    7.50    2.80
   2  -4  -5   18.50    3.40
   2  -4  -5   17.60    3.30
   2  -4  -5   16.70    1.40
   2  -4  -5   18.20    3.50
  -2   4   5   14.50    4.00
  -2   4   5   17.60    1.50
  -2   4   5   18.40    3.20
  -2   4   5   22.30    4.40
  -2   4   5   13.80    1.40
   1  -4  -5   29.10    4.60
   1  -4  -5   28.20    4.40
   1  -4  -5   37.50    4.90
  -1   4   5   21.30    4.70
  -1   4   5   35.60    5.10
  -1   4   5   31.70    3.60
  -1   4   5   35.60    5.80
   0  -4  -5  188.58    9.80
   0  -4  -5  155.88    5.00
   0  -4  -5  171.38    9.50
   0  -4  -5  173.08    9.50
   0   4   5  159.58   10.90
   0   4   5  147.49    6.50
   0   4   5  162.08   10.40
   0   4   5  161.68    9.90
  -1  -4  -5   37.90    5.70
  -1  -4  -5   61.59    6.60
  -1  -4  -5   57.69    6.60
   1   4   5   52.99    7.30
   1   4   5   48.90    7.20
   1   4   5   49.70    6.90
  -2  -4  -5    9.90    4.50
  -2  -4  -5    2.80    3.00
  -2  -4  -5    2.40    2.90
   2   4   5    2.40    3.80
   2   4   5    0.70    2.90
   2   4   5    1.10    3.00
  -3  -4  -5   -1.00    3.00
  -3  -4  -5    7.00    4.50
  -3  -4  -5   10.90    4.10
   3   4   5    7.40    4.20
   3   4   5    5.80    3.70
   3   4   5   11.90    5.40
  -4  -4  -5    3.00    4.40
  -4  -4  -5    2.30    4.20
  -4  -4  -5    5.30    4.70
   4   4   5    5.40    5.30
   4   4   5    6.50    5.00
  -5  -4  -5   17.10    7.10
  -5  -4  -5   18.10    6.00
  -5  -4  -5   10.60    5.60
   5   4   5   20.90    7.80
   5   4   5    9.50    7.10
  10  -5  -5    2.90    5.70
  10  -5  -5    3.20    4.40
 -10   5   5    9.50    6.80
 -10   5   5    4.00    5.70
   9  -5  -5   18.90    5.60
   9  -5  -5   19.20    6.00
  -9   5   5   11.90    5.20
  -9   5   5    9.20    5.60
  -9   5   5   21.10    7.20
   8  -5  -5   18.20    5.40
   8  -5  -5   21.70    5.10
  -8   5   5   33.00    7.60
  -8   5   5   24.20    5.90
  -8   5   5   13.80    5.80
   7  -5  -5   -1.90    2.70
   7  -5  -5   -0.60    2.60
   7  -5  -5    2.10    3.00
  -7   5   5    1.10    3.50
  -7   5   5    2.00    3.80
  -7   5   5    0.40    3.60
   6  -5  -5  181.68   10.80
   6  -5  -5  186.58   10.90
   6  -5  -5  172.48    9.60
  -6   5   5  177.98    9.90
  -6   5   5  150.78   11.60
  -6   5   5  157.78   11.50
   5  -5  -5  153.38    9.30
   5  -5  -5  148.29    9.00
   5  -5  -5  149.29    9.30
  -5   5   5  157.58    8.40
  -5   5   5  156.38    8.30
  -5   5   5  164.28   11.60
  -5   5   5  169.58   10.90
   4  -5  -5   17.40    4.00
   4  -5  -5   25.10    4.40
   4  -5  -5   25.10    4.50
  -4   5   5   16.00    4.10
  -4   5   5   18.30    4.80
  -4   5   5   26.70    4.50
  -4   5   5   17.90    2.70
   3  -5  -5    7.20    2.70
   3  -5  -5    8.30    3.10
   3  -5  -5    9.30    3.20
  -3   5   5    6.10    3.00
  -3   5   5    3.40    3.20
  -3   5   5    5.40    3.10
  -3   5   5    5.70    1.10
   2  -5  -5   62.79    6.90
   2  -5  -5   61.89    6.80
   2  -5  -5   73.29    6.80
  -2   5   5   67.09    6.30
  -2   5   5   64.39    8.20
  -2   5   5   57.79    7.20
   1  -5  -5   35.00    5.20
   1  -5  -5   39.70    5.20
   1  -5  -5   45.50    6.30
  -1   5   5   43.00    6.60
  -1   5   5   39.80    4.40
  -1   5   5   35.10    6.00
  -1   5   5   36.80    6.10
   0  -5  -5    3.20    2.80
   0  -5  -5    2.40    3.10
   0  -5  -5    1.20    2.80
   0   5   5    1.40    3.20
   0   5   5    5.90    3.50
   0   5   5    7.40    4.10
  -1  -5  -5   71.99    7.90
  -1  -5  -5   50.79    6.60
  -1  -5  -5   52.89    7.30
   1   5   5   62.09    8.80
   1   5   5   51.89    7.90
   1   5   5   59.39    8.40
  -2  -5  -5   86.39    9.90
  -2  -5  -5  103.29    9.70
  -2  -5  -5   86.79    8.80
   2   5   5   88.19   10.90
   2   5   5   84.49   11.10
   2   5   5   88.79   10.30
  -3  -5  -5   38.90    6.90
  -3  -5  -5   16.10    5.80
  -3  -5  -5   16.20    5.70
   3   5   5   28.00    6.30
   3   5   5   29.80    7.30
   3   5   5   18.10    6.70
  -4  -5  -5   38.20    7.20
  -4  -5  -5   37.70    7.30
  -4  -5  -5   24.90    7.60
   4   5   5   42.90    9.40
   4   5   5   31.10    9.40
  10  -6  -5   21.90    6.60
  10  -6  -5   25.70    7.50
 -10   6   5   19.20    8.20
 -10   6   5    5.00    6.10
   9  -6  -5    0.60    3.70
   9  -6  -5    5.30    4.70
  -9   6   5   -1.30    4.70
  -9   6   5    0.50    4.90
  -9   6   5   -0.10    5.80
   8  -6  -5    8.90    4.10
   8  -6  -5   13.50    4.70
  -8   6   5    1.60    4.40
  -8   6   5    6.60    5.00
  -8   6   5    3.80    4.80
   7  -6  -5    3.60    3.10
   7  -6  -5    0.30    3.00
   7  -6  -5   -0.20    3.50
  -7   6   5   -2.90    3.30
  -7   6   5    0.10    4.50
  -7   6   5    0.10    2.90
   6  -6  -5   99.69    9.50
   6  -6  -5   83.99    8.80
   6  -6  -5   91.09    7.70
  -6   6   5   64.79    8.90
  -6   6   5   71.39    9.40
  -6   6   5   89.09    7.10
  -6   6   5   74.99    7.10
   5  -6  -5  307.27   15.20
   5  -6  -5  324.17   14.60
   5  -6  -5  322.77   15.20
  -5   6   5  322.27   16.30
  -5   6   5  367.06   18.60
  -5   6   5  324.77   14.10
   4  -6  -5   34.90    5.00
   4  -6  -5   47.70    6.80
   4  -6  -5   34.20    5.90
  -4   6   5   37.30    6.20
  -4   6   5   44.00    7.50
  -4   6   5   37.40    5.60
   3  -6  -5   66.89    5.90
   3  -6  -5   58.39    7.20
   3  -6  -5   63.49    7.50
  -3   6   5   67.89    7.30
  -3   6   5   62.99    8.60
  -3   6   5   52.89    6.80
   2  -6  -5   90.89    8.90
   2  -6  -5   99.19    8.20
   2  -6  -5   84.89    6.80
  -2   6   5   99.89    7.60
  -2   6   5   87.69    9.40
  -2   6   5   96.39   10.50
   1  -6  -5    0.70    3.70
   1  -6  -5    0.50    3.10
   1  -6  -5   -1.10    2.40
  -1   6   5    7.40    4.20
  -1   6   5    2.70    3.70
  -1   6   5    2.60    2.90
   0  -6  -5   44.30    6.50
   0  -6  -5   31.20    5.80
   0  -6  -5   31.40    6.90
   0   6   5   34.50    7.60
   0   6   5   42.10    7.60
   0   6   5   42.80    7.50
  -1  -6  -5  155.68   11.30
  -1  -6  -5  165.28   12.10
  -1  -6  -5  151.68   10.80
   1   6   5  186.18   13.70
   1   6   5  176.28   13.90
   1   6   5  157.58   12.40
  -2  -6  -5    3.60    4.40
  -2  -6  -5    5.70    5.10
  -2  -6  -5    6.10    5.20
   2   6   5   -2.80    4.30
   2   6   5    1.60    5.20
   2   6   5    8.60    5.90
  -3  -6  -5   22.10    7.10
  -3  -6  -5   47.60    8.20
   3   6   5   31.90    8.70
   3   6   5   35.20    8.50
   9  -7  -5    4.60    4.40
   9  -7  -5   -1.80    3.40
  -9   7   5   -1.40    5.20
  -9   7   5   -5.90    7.40
  -9   7   5   -5.20    5.10
   8  -7  -5    2.50    4.20
   8  -7  -5    1.00    3.20
  -8   7   5    0.30    5.70
  -8   7   5   -0.50    4.60
   7  -7  -5    4.30    4.40
   7  -7  -5    2.90    3.60
   7  -7  -5    2.30    3.20
  -7   7   5    1.20    4.60
  -7   7   5    0.00    4.60
   6  -7  -5   78.89    9.90
   6  -7  -5  117.09   11.10
   6  -7  -5   94.69    8.00
   6  -7  -5  112.19   10.70
  -6   7   5   94.89   12.00
  -6   7   5  109.79    9.30
   5  -7  -5   25.10    5.30
   5  -7  -5   14.80    4.10
   5  -7  -5   17.20    5.50
  -5   7   5   23.80    5.20
  -5   7   5   17.80    6.20
  -5   7   5   15.80    5.10
   4  -7  -5   29.60    6.00
   4  -7  -5   24.60    4.50
   4  -7  -5   21.00    5.20
  -4   7   5   16.70    5.80
  -4   7   5   17.80    4.90
  -4   7   5   19.50    5.20
   3  -7  -5    1.10    3.60
   3  -7  -5    3.10    2.70
   3  -7  -5    3.40    3.20
  -3   7   5    5.00    3.50
  -3   7   5   -4.80    2.90
  -3   7   5    3.30    3.70
   2  -7  -5   33.00    6.50
   2  -7  -5   33.00    6.30
  -2   7   5   24.90    6.30
  -2   7   5   33.80    5.50
  -2   7   5   36.10    7.50
   1  -7  -5   57.89    9.00
   1  -7  -5   68.29    8.40
  -1   7   5   47.20    8.20
  -1   7   5   40.40    8.20
   0  -7  -5   23.40    7.30
   0  -7  -5   34.70    6.60
   0   7   5   22.90    7.10
   0   7   5   33.70    7.90
  -1  -7  -5   -3.90    4.90
  -1  -7  -5   -0.80    3.70
   1   7   5    1.00    5.70
   1   7   5    1.80    5.00
   1   7   5    4.90    5.30
   9  -8  -5    2.30    4.30
  -9   8   5    8.00    6.70
  -9   8   5    1.60    7.80
   8  -8  -5    0.30    5.70
   8  -8  -5    0.50    3.80
  -8   8   5   -4.40    4.90
  -8   8   5    1.10    4.20
   7  -8  -5    8.20    4.80
   7  -8  -5    6.20    5.10
  -7   8   5    7.50    5.90
  -7   8   5    7.30    5.40
   6  -8  -5    7.30    5.10
   6  -8  -5    9.30    4.60
  -6   8   5    4.00    5.00
  -6   8   5   13.80    6.30
   5  -8  -5    6.10    4.90
   5  -8  -5   -3.70    2.90
   5  -8  -5    0.90    4.50
  -5   8   5    3.70    5.00
  -5   8   5   -2.30    4.20
  -5   8   5    2.90    4.50
   4  -8  -5    6.30    4.40
   4  -8  -5    7.20    5.40
  -4   8   5   -2.60    4.00
  -4   8   5    3.00    4.00
  -4   8   5    1.00    4.70
   3  -8  -5    2.80    4.10
   3  -8  -5   -0.20    3.80
  -3   8   5    0.90    4.60
  -3   8   5    1.30    4.50
  -3   8   5    2.40    5.10
   2  -8  -5   13.40    5.70
   2  -8  -5   16.90    5.40
  -2   8   5   17.40    6.90
  -2   8   5   12.10    5.70
   1  -8  -5   30.90    7.80
   1  -8  -5   34.90    7.30
  -1   8   5   24.00    8.00
  -1   8   5   27.80    7.30
   0  -8  -5    1.30    5.40
   0  -8  -5    6.50    5.50
   0   8   5   15.30    6.90
   0   8   5   11.00    7.10
   8  -9  -5   -1.40    4.30
   8  -9  -5   -4.00    5.70
  -8   9   5    1.80    6.30
  -8   9   5   -3.90    5.90
   7  -9  -5   51.89    8.60
   7  -9  -5   54.79    9.80
  -7   9   5   34.80    9.10
  -7   9   5   50.39   10.00
   6  -9  -5   -1.30    5.20
   6  -9  -5    5.40    4.70
  -6   9   5    3.10    6.20
  -6   9   5    3.20    5.90
   5  -9  -5    2.80    5.90
   5  -9  -5   -1.30    4.10
   5  -9  -5    1.90    5.20
  -5   9   5    0.80    5.50
  -5   9   5   -1.00    5.00
  -5   9   5   -0.50    5.40
   4  -9  -5    6.60    6.70
   4  -9  -5   18.00    6.60
   4  -9  -5    6.80    5.10
  -4   9   5    9.20    6.30
  -4   9   5   13.30    7.10
   3  -9  -5    0.90    5.10
   3  -9  -5    3.50    6.00
   3  -9  -5   -1.10    4.50
  -3   9   5   -1.10    4.50
  -3   9   5   -4.20    4.90
   2  -9  -5    8.80    5.80
   2  -9  -5   13.70    8.00
   2  -9  -5    0.00    4.70
  -2   9   5    0.90    6.20
  -2   9   5   -2.00    6.20
  -4  10  -6    6.30    5.40
  -4  10  -6    3.80    5.80
   4 -10   6   -0.50    6.80
   4 -10   6   -3.40    6.50
   4 -10   6    2.00    6.40
  -5  10  -6   15.60    6.80
  -5  10  -6   17.40    7.50
   5 -10   6   25.70    8.80
   5 -10   6   23.80    7.80
   5 -10   6   27.20    9.90
   0   9  -6   22.10    7.10
   0  -9   6   22.10    8.70
   0  -9   6   15.20    8.40
   0  -9   6   13.50    7.90
  -1   9  -6   17.10    6.60
  -1   9  -6   17.50    6.60
   1  -9   6   17.20    7.40
   1  -9   6   37.70    9.20
   1  -9   6   24.90    8.40
  -2   9  -6    2.90    4.60
  -2   9  -6    3.60    4.80
   2  -9   6    8.40    6.50
   2  -9   6   12.00    6.80
   2  -9   6    8.40    7.00
  -3   9  -6   22.30    6.70
  -3   9  -6   19.20    6.00
  -3   9  -6   19.00    6.00
   3  -9   6   22.90    7.40
   3  -9   6   32.20    8.60
   3  -9   6   22.20    7.20
  -4   9  -6   18.80    6.00
  -4   9  -6   11.80    5.80
  -4   9  -6   19.90    6.40
   4  -9   6   26.70    6.90
   4  -9   6    9.50    7.80
   4  -9   6   13.20    7.00
  -5   9  -6    1.60    4.90
  -5   9  -6    5.00    4.50
  -5   9  -6   -0.60    4.60
   5  -9   6    0.90    5.60
   5  -9   6    5.10    6.70
   5  -9   6    0.10    4.70
  -6   9  -6   10.30    6.30
  -6   9  -6    4.60    5.50
   6  -9   6   19.30    6.70
   6  -9   6   12.00    6.60
  -7   9  -6   28.20    8.20
  -7   9  -6   39.00    9.00
   7  -9   6   36.40    9.60
   1   8  -6    7.70    5.70
   1   8  -6    4.30    4.30
  -1  -8   6    4.70    6.50
  -1  -8   6    4.00    6.20
  -1  -8   6   -2.50    5.40
   0   8  -6   59.39    9.60
   0   8  -6   44.50    8.40
   0   8  -6   38.60    7.50
   0  -8   6   57.49   10.20
   0  -8   6   54.19   10.40
   0  -8   6   75.69   10.50
  -1   8  -6   35.90    7.10
  -1   8  -6   43.40    8.10
  -1   8  -6   35.30    7.30
   1  -8   6   41.30    8.80
   1  -8   6   41.00    8.60
   1  -8   6   52.19    9.40
  -2   8  -6    0.90    4.40
  -2   8  -6    2.00    3.80
  -2   8  -6    4.50    4.20
   2  -8   6   -3.20    4.20
   2  -8   6    1.80    4.20
   2  -8   6    2.10    5.20
  -3   8  -6  209.48   13.70
  -3   8  -6  187.58   13.70
  -3   8  -6  203.78   13.00
   3  -8   6  185.28   15.30
   3  -8   6  186.18   13.40
   3  -8   6  205.18   14.50
  -4   8  -6   42.50    8.00
  -4   8  -6   34.60    6.70
  -4   8  -6   37.50    6.50
   4  -8   6   33.50    7.70
   4  -8   6   56.49    8.70
   4  -8   6   44.70    8.30
  -5   8  -6    4.30    3.30
  -5   8  -6    3.70    4.50
  -5   8  -6    7.50    4.80
   5  -8   6    1.60    4.10
   5  -8   6   -2.30    4.10
   5  -8   6    3.00    4.80
  -6   8  -6   34.70    7.70
  -6   8  -6   26.50    6.80
   6  -8   6   46.80    9.00
   6  -8   6   39.00    8.20
  -7   8  -6    2.00    5.20
  -7   8  -6    6.50    5.60
   7  -8   6    3.60    5.10
   7  -8   6    9.60    3.90
  -8   8  -6    6.70    6.30
  -8   8  -6   -0.90    5.80
   8  -8   6   -0.20    6.60
   8  -8   6   -1.80    3.70
   3   7  -6   13.10    5.10
   3   7  -6    5.20    5.20
   3   7  -6    6.20    5.70
  -3  -7   6    8.20    8.20
  -3  -7   6   11.40    7.20
   2   7  -6    5.70    4.60
   2   7  -6    6.10    4.90
   2   7  -6    6.10    4.80
  -2  -7   6    2.40    5.30
  -2  -7   6    2.10    6.70
  -2  -7   6    2.30    4.40
   1   7  -6   62.49    9.20
   1   7  -6   49.50    8.40
   1   7  -6   48.70    7.30
  -1  -7   6   85.09   11.80
  -1  -7   6   57.29    8.80
  -1  -7   6   64.09   10.50
   0   7  -6   80.89    9.80
   0   7  -6   60.79    8.90
   0   7  -6   71.49    8.40
   0  -7   6   78.09   10.90
   0  -7   6   89.69   10.40
   0  -7   6   67.39   10.40
  -1   7  -6   15.20    4.50
  -1   7  -6   16.30    5.00
  -1   7  -6   12.10    4.30
   1  -7   6   12.00    5.20
   1  -7   6   17.70    5.80
   1  -7   6   16.40    5.60
  -2   7  -6   49.70    7.90
  -2   7  -6   58.49    7.50
  -2   7  -6   67.69    8.10
   2  -7   6   49.20    8.60
   2  -7   6   50.99    8.10
   2  -7   6   42.40    7.50
  -3   7  -6   92.19    7.90
  -3   7  -6   71.59    8.50
  -3   7  -6   99.39   10.40
   3  -7   6  117.79   11.80
   3  -7   6   96.89   10.40
   3  -7   6  112.49   11.80
  -4   7  -6   32.60    6.60
  -4   7  -6   28.70    6.00
  -4   7  -6   22.30    4.60
   4  -7   6   20.80    6.10
   4  -7   6   35.50    6.30
   4  -7   6   24.30    5.80
  -5   7  -6   57.99    6.70
  -5   7  -6   45.40    7.50
  -5   7  -6   62.89    8.40
   5  -7   6   71.49   10.00
   5  -7   6   57.69    7.70
   5  -7   6   52.19    5.80
   5  -7   6   44.00    7.50
  -6   7  -6    7.20    4.70
  -6   7  -6    3.50    4.60
   6  -7   6   -2.00    4.50
   6  -7   6    5.60    3.10
   6  -7   6    1.30    4.00
  -7   7  -6   76.79   10.30
  -7   7  -6   86.89   10.80
   7  -7   6   64.39    8.00
  -8   7  -6   10.00    6.40
  -8   7  -6    4.70    5.70
   8  -7   6    3.80    4.20
   8  -7   6    2.60    5.10
   4   6  -6   -2.50    4.70
   4   6  -6    6.20    5.20
   4   6  -6    3.10    4.90
  -4  -6   6    4.80    6.00
  -4  -6   6    2.70    5.80
  -4  -6   6    5.70    6.40
   3   6  -6    7.40    5.10
   3   6  -6   15.80    5.40
   3   6  -6    7.50    4.80
  -3  -6   6    1.70    5.40
  -3  -6   6    7.50    6.50
   2   6  -6   93.09   10.50
   2   6  -6   85.99   10.10
   2   6  -6   77.79    8.90
  -2  -6   6  102.49   12.40
  -2  -6   6   78.89   10.70
  -2  -6   6   98.39    9.60
   1   6  -6  345.07   17.10
   1   6  -6  341.97   17.20
   1   6  -6  346.77   16.10
  -1  -6   6  342.07   18.90
  -1  -6   6  305.77   15.50
  -1  -6   6  382.96   19.60
   0   6  -6   23.30    5.10
   0   6  -6   17.30    5.00
   0   6  -6   25.90    5.10
   0  -6   6   15.30    5.30
   0  -6   6   19.80    5.40
   0  -6   6    8.70    4.90
  -1   6  -6   -0.10    1.70
  -1   6  -6    3.20    2.60
  -1   6  -6    3.60    3.00
   1  -6   6   -2.20    2.50
   1  -6   6   -2.80    2.70
   1  -6   6    0.20    3.30
  -2   6  -6   20.30    4.30
  -2   6  -6   18.70    4.80
  -2   6  -6   12.40    3.90
   2  -6   6   11.60    4.50
   2  -6   6   15.50    4.70
   2  -6   6   18.30    5.10
  -3   6  -6   21.60    5.10
  -3   6  -6   20.70    4.10
  -3   6  -6   15.20    4.30
   3  -6   6   26.60    6.30
   3  -6   6   24.30    5.20
   3  -6   6   18.10    2.70
   3  -6   6   12.80    4.20
  -4   6  -6  228.48   10.10
  -4   6  -6  263.27   13.70
  -4   6  -6  227.68   13.10
  -4   6  -6  231.78   10.90
   4  -6   6  210.08   13.20
   4  -6   6  237.88   13.70
   4  -6   6  208.18   11.60
   4  -6   6  238.98   10.30
  -5   6  -6  148.19   10.90
  -5   6  -6  159.28    8.20
  -5   6  -6  145.29   10.60
   5  -6   6  135.09   10.70
   5  -6   6  155.48    9.40
   5  -6   6  147.09   10.90
   5  -6   6  134.19    8.40
  -6   6  -6   91.99    8.70
  -6   6  -6  116.49   11.10
  -6   6  -6   86.69   10.40
   6  -6   6   72.79    9.50
   6  -6   6   84.99    8.70
   6  -6   6   71.59    8.70
  -7   6  -6   16.00    4.80
  -7   6  -6   23.50    6.60
  -7   6  -6   24.40    6.30
   7  -6   6   19.30    5.00
   7  -6   6   16.80    5.60
  -8   6  -6   13.80    6.20
  -8   6  -6    7.70    4.80
  -8   6  -6   10.90    5.40
   8  -6   6    4.90    5.20
   8  -6   6   11.20    4.80
  -9   6  -6   11.60    6.70
  -9   6  -6   14.60    7.50
  -9   6  -6   28.00    7.40
   9  -6   6   13.20    6.00
   9  -6   6   15.80    7.10
   5   5  -6    7.30    5.50
   5   5  -6   15.40    6.40
  -5  -5   6   11.10    7.40
  -5  -5   6    8.40    6.60
  -5  -5   6    0.20    5.60
   4   5  -6   44.00    7.50
   4   5  -6   43.70    7.70
  -4  -5   6   61.59   10.10
  -4  -5   6   45.90    8.30
  -4  -5   6   57.39   10.00
   3   5  -6    0.50    3.70
   3   5  -6   -1.20    3.60
   3   5  -6    3.00    3.70
  -3  -5   6    1.00    4.30
  -3  -5   6    5.10    4.30
  -3  -5   6    4.20    3.50
   2   5  -6  121.49    9.40
   2   5  -6  117.39    9.40
   2   5  -6  112.59    7.50
   2   5  -6  115.19    8.90
  -2  -5   6  121.69   10.30
  -2  -5   6  132.59   11.30
  -2  -5   6  112.99    8.40
   1   5  -6    5.70    3.20
   1   5  -6    0.40    2.30
   1   5  -6    4.20    2.90
   1   5  -6    1.70    2.10
  -1  -5   6   -2.50    3.20
  -1  -5   6    3.00    2.70
  -1  -5   6    6.50    3.70
   0   5  -6   10.40    2.20
   0   5  -6    8.50    3.30
   0   5  -6    6.00    3.10
   0   5  -6   13.40    3.60
  -1   5  -6   83.39    8.40
  -1   5  -6   80.99    4.70
  -1   5  -6   82.69    7.90
  -1   5  -6   77.79    6.40
   1  -5   6   68.19    3.00
   1  -5   6   71.39    8.30
   1  -5   6   84.29    9.70
   1  -5   6   88.29    7.20
  -2   5  -6   10.40    3.40
  -2   5  -6    6.10    2.60
  -2   5  -6    7.80    2.20
  -2   5  -6   11.50    3.60
   2  -5   6    6.80    3.40
   2  -5   6    9.50    3.90
   2  -5   6    7.60    1.60
   2  -5   6   13.00    3.80
  -3   5  -6   82.19    5.90
  -3   5  -6   74.89    5.50
  -3   5  -6   89.89    8.40
  -3   5  -6   98.59    9.20
   3  -5   6   86.09    5.20
   3  -5   6   90.99    9.40
   3  -5   6   88.29    7.10
   3  -5   6   89.39    7.40
  -4   5  -6   84.09    6.60
  -4   5  -6   82.09    8.40
  -4   5  -6   86.79    8.60
  -4   5  -6   88.39    5.70
   4  -5   6   96.69    6.90
   4  -5   6   76.79    8.60
   4  -5   6  100.79    8.30
   4  -5   6   76.99    5.70
  -5   5  -6   43.10    5.50
  -5   5  -6   47.20    7.00
  -5   5  -6   56.89    7.30
   5  -5   6   47.20    7.40
   5  -5   6   53.19    5.90
   5  -5   6   42.50    6.80
  -6   5  -6    1.50    3.30
  -6   5  -6    0.10    3.20
  -6   5  -6   -1.90    3.40
   6  -5   6   -1.80    2.30
   6  -5   6   -4.60    3.70
   6  -5   6    1.80    4.30
  -7   5  -6   -2.00    4.00
  -7   5  -6   -3.50    3.40
  -7   5  -6    0.30    3.70
   7  -5   6   -7.90    4.30
   7  -5   6    0.00    3.30
  -8   5  -6   41.50    7.90
  -8   5  -6   39.00    8.20
  -8   5  -6   32.30    6.90
   8  -5   6   29.60    7.60
   8  -5   6   37.20    7.20
  -9   5  -6    9.30    5.20
  -9   5  -6    3.80    5.90
   9  -5   6   -1.80    5.60
   9  -5   6    5.20    5.00
   6   4  -6   26.30    7.10
   6   4  -6   30.30    8.40
   6   4  -6   34.50    7.80
  -6  -4   6   16.30    7.40
  -6  -4   6   24.90    7.40
  -6  -4   6   40.30    9.20
   5   4  -6   16.60    4.80
   5   4  -6   21.30    6.10
   5   4  -6   22.40    5.70
  -5  -4   6    9.20    5.80
  -5  -4   6   16.50    6.50
  -5  -4   6    5.20    5.30
   4   4  -6    5.20    4.10
   4   4  -6   -0.30    2.50
   4   4  -6    4.60    3.70
  -4  -4   6    2.20    4.20
  -4  -4   6   -2.50    3.20
  -4  -4   6    1.90    3.90
   3   4  -6    1.30    2.80
   3   4  -6    4.10    3.30
   3   4  -6    6.00    2.90
   3   4  -6    1.50    3.00
  -3  -4   6    4.00    4.30
  -3  -4   6    4.10    2.90
  -3  -4   6    6.30    4.10
   2   4  -6   29.70    4.40
   2   4  -6   29.80    5.00
   2   4  -6   30.30    5.30
   2   4  -6   25.10    5.20
  -2  -4   6   34.90    6.50
  -2  -4   6   39.60    5.00
  -2  -4   6   34.40    6.40
   1   4  -6  101.19    7.70
   1   4  -6  115.89    6.40
   1   4  -6  112.19    7.80
   1   4  -6  115.79    7.90
  -1  -4   6  105.39    6.80
  -1  -4   6  121.19    9.00
  -1  -4   6   96.69    8.40
   0   4  -6  373.46   15.30
   0   4  -6  354.16   14.80
   0   4  -6  379.36   15.00
   0   4  -6  360.26   12.90
   0  -4   6  358.36   16.10
   0  -4   6  374.46   14.10
   0  -4   6  357.06   16.30
  -1   4  -6    0.50    0.70
  -1   4  -6    0.40    1.80
  -1   4  -6   -1.20    1.20
  -1   4  -6   -1.90    1.60
  -1   4  -6   -1.00    1.30
   1  -4   6    0.30    2.10
   1  -4   6   -0.80    2.00
   1  -4   6    0.70    0.60
   1  -4   6    5.00    2.90
  -2   4  -6  272.67   11.30
  -2   4  -6  298.07   12.60
  -2   4  -6  291.37   13.00
  -2   4  -6  282.07   11.10
   2  -4   6  247.08   12.00
   2  -4   6  283.67   12.50
   2  -4   6  260.37   13.50
   2  -4   6  284.37    9.60
  -3   4  -6   39.30    4.60
  -3   4  -6   38.00    5.60
  -3   4  -6   42.10    5.40
   3  -4   6   43.10    6.10
   3  -4   6   43.90    4.40
   3  -4   6   26.60    5.40
   3  -4   6   37.80    4.90
  -4   4  -6   35.90    5.40
  -4   4  -6   46.80    6.40
  -4   4  -6   34.70    4.90
   4  -4   6   35.60    5.80
   4  -4   6   39.10    6.10
   4  -4   6   51.19    5.00
   4  -4   6   45.30    5.10
  -5   4  -6   35.20    6.20
  -5   4  -6   48.60    6.30
  -5   4  -6   39.60    5.70
   5  -4   6   45.40    5.90
   5  -4   6   47.50    7.00
   5  -4   6   41.80    6.50
  -6   4  -6  163.58   10.30
  -6   4  -6  171.48   11.90
  -6   4  -6  146.19   10.70
   6  -4   6  137.39   11.10
   6  -4   6  160.78   10.60
   6  -4   6  155.48   11.50
  -7   4  -6    2.20    4.10
  -7   4  -6    4.80    3.60
  -7   4  -6    2.00    4.40
   7  -4   6    0.90    4.10
   7  -4   6    0.90    3.40
  -8   4  -6  103.19   11.80
  -8   4  -6   89.99   11.80
   8  -4   6   78.59   11.20
   8  -4   6  100.09   11.50
  -9   4  -6    5.60    6.10
   9  -4   6    2.50    4.80
   7   3  -6   37.00    8.40
   7   3  -6   23.80    7.30
  -7  -3   6   25.30    7.80
  -7  -3   6   26.00    8.40
  -7  -3   6   50.69   10.30
   6   3  -6  119.99   12.30
   6   3  -6   78.49    9.20
   6   3  -6   71.19    9.60
  -6  -3   6  103.49   13.00
  -6  -3   6  100.59   12.20
  -6  -3   6   88.69   12.10
   5   3  -6    1.50    2.60
   5   3  -6    3.00    3.80
   5   3  -6    1.70    3.20
  -5  -3   6   -3.50    3.30
  -5  -3   6    2.10    3.00
  -5  -3   6    2.00    3.30
   4   3  -6   43.30    6.30
   4   3  -6   58.89    7.30
   4   3  -6   56.19    7.10
  -4  -3   6   56.39    8.50
  -4  -3   6   53.59    7.20
  -4  -3   6   62.39    8.70
   3   3  -6    3.10    2.70
   3   3  -6    5.30    1.90
   3   3  -6    8.00    2.80
   3   3  -6    3.10    2.80
  -3  -3   6    7.70    1.60
  -3  -3   6    4.40    3.30
  -3  -3   6   10.60    3.80
  -3  -3   6    3.20    3.10
  -3  -3   6    3.00    2.30
   2   3  -6    2.20    2.10
   2   3  -6    1.50    1.70
   2   3  -6   -0.70    2.00
  -2  -3   6    2.10    1.60
  -2  -3   6    2.10    2.40
  -2  -3   6    0.50    0.70
  -2  -3   6    0.70    2.30
  -2  -3   6    0.10    0.60
   1   3  -6  520.95   18.70
   1   3  -6  494.05   17.10
   1   3  -6  526.85   18.70
  -1  -3   6  535.55   20.00
  -1  -3   6  523.25   20.20
  -1  -3   6  505.85   16.60
   0   3  -6  395.86   14.20
   0   3  -6  398.26   15.20
   0   3  -6  424.26   15.60
   0  -3   6  434.86   17.10
   0  -3   6  424.16   16.70
   0  -3   6  388.36   14.20
  -1   3  -6  182.08    9.20
  -1   3  -6  169.98    5.70
  -1   3  -6  173.18    8.30
  -1   3  -6  173.88    8.60
  -1   3  -6  191.48    6.00
   1  -3   6  164.58   10.10
   1  -3   6  171.68    9.20
   1  -3   6  176.98    6.10
   1  -3   6  177.28    8.60
  -2   3  -6  123.99    7.70
  -2   3  -6  126.99    7.00
  -2   3  -6  132.29    7.30
   2  -3   6  126.09    5.90
   2  -3   6  115.39    7.00
   2  -3   6  132.69    7.90
   2  -3   6  123.09    8.60
  -3   3  -6    6.20    2.80
  -3   3  -6    1.60    1.70
  -3   3  -6    4.20    2.30
   3  -3   6    3.20    2.70
   3  -3   6    3.20    1.70
   3  -3   6    2.40    2.20
   3  -3   6    5.70    2.10
  -4   3  -6   55.89    6.00
  -4   3  -6   54.49    6.80
  -4   3  -6   48.90    6.00
   4  -3   6   48.20    6.40
   4  -3   6   48.10    3.70
   4  -3   6   47.50    6.80
   4  -3   6   51.09    5.70
  -5   3  -6   13.20    4.30
  -5   3  -6    4.00    3.20
  -5   3  -6    8.20    3.40
   5  -3   6    7.50    3.90
   5  -3   6    2.30    3.40
   5  -3   6    9.40    3.30
  -6   3  -6    3.60    2.70
  -6   3  -6    5.80    3.50
  -6   3  -6    7.50    4.60
   6  -3   6    4.00    4.50
   6  -3   6    7.40    5.00
   6  -3   6    4.70    3.30
  -7   3  -6   12.90    5.30
  -7   3  -6   28.40    6.80
   7  -3   6   21.30    5.70
   7  -3   6   12.00    5.40
  -8   3  -6   42.40    8.90
  -8   3  -6   28.60    7.20
   8  -3   6   42.90    8.00
   8  -3   6   24.40    8.60
   7   2  -6   48.60    8.60
   7   2  -6   81.79   10.70
  -7  -2   6   92.29   12.10
  -7  -2   6   69.09   10.70
  -7  -2   6   54.39   10.30
   6   2  -6   -1.10    3.50
   6   2  -6    6.70    4.40
   6   2  -6    7.50    4.40
  -6  -2   6    5.70    4.70
  -6  -2   6    0.70    4.50
   5   2  -6    1.70    2.80
   5   2  -6    0.90    3.20
   5   2  -6    1.60    3.30
   5   2  -6   -0.20    2.10
  -5  -2   6    0.20    3.20
  -5  -2   6    1.20    3.30
  -5  -2   6    1.90    3.80
   4   2  -6   11.80    3.70
   4   2  -6   18.10    3.20
   4   2  -6   11.20    3.90
   4   2  -6   16.60    4.10
  -4  -2   6   18.90    4.20
  -4  -2   6   15.00    4.50
  -4  -2   6   10.10    4.00
  -4  -2   6   16.70    2.60
   3   2  -6   37.10    5.30
   3   2  -6   25.60    2.90
   3   2  -6   39.50    5.40
   3   2  -6   43.30    5.50
  -3  -2   6   38.30    6.20
  -3  -2   6   35.60    3.30
  -3  -2   6   41.60    5.80
  -3  -2   6   35.80    5.80
   2   2  -6  234.18   10.70
   2   2  -6  223.08    6.90
   2   2  -6  215.18   10.40
   2   2  -6  216.78   10.00
  -2  -2   6  226.58    7.90
  -2  -2   6  223.78   11.20
  -2  -2   6  209.68    6.70
  -2  -2   6  217.88   11.70
   1   2  -6  201.08    9.60
   1   2  -6  206.38    9.40
   1   2  -6  206.58    9.20
  -1  -2   6  214.98    7.90
  -1  -2   6  200.18   10.70
  -1  -2   6  193.48   10.30
   0   2  -6    0.80    1.50
   0   2  -6   -0.10    0.60
   0   2  -6    0.30    1.40
   0   2  -6   -1.60    1.20
   0   2  -6    1.10    0.70
   0  -2   6   -1.00    1.60
   0  -2   6   -0.10    1.70
   0  -2   6    1.50    1.40
  -1   2  -6    7.80    2.10
  -1   2  -6    8.20    2.50
  -1   2  -6    7.80    2.50
  -1   2  -6   11.00    1.70
   1  -2   6    7.70    3.00
   1  -2   6   11.10    2.80
   1  -2   6    8.40    1.60
   1  -2   6   10.30    2.70
  -2   2  -6  170.38    8.70
  -2   2  -6  164.48    7.40
  -2   2  -6  171.38    7.20
  -2   2  -6  167.98    8.90
   2  -2   6  157.98    9.70
   2  -2   6  177.18    8.20
   2  -2   6  175.68    7.80
   2  -2   6  160.58    8.80
  -3   2  -6  612.94   20.70
  -3   2  -6  566.64   20.60
  -3   2  -6  565.74   18.00
   3  -2   6  583.64   19.70
   3  -2   6  584.04   22.00
   3  -2   6  560.94   17.80
   3  -2   6  591.34   21.30
  -4   2  -6   40.70    6.10
  -4   2  -6   36.00    5.50
  -4   2  -6   43.80    4.60
   4  -2   6   30.60    5.50
   4  -2   6   39.80    5.30
   4  -2   6   33.70    2.20
   4  -2   6   37.70    6.20
  -5   2  -6  114.49    7.10
  -5   2  -6  117.89    9.20
  -5   2  -6  107.29    8.90
   5  -2   6  112.99    9.20
   5  -2   6  125.59   10.00
   5  -2   6  114.19    8.80
  -6   2  -6    4.20    3.80
  -6   2  -6    8.90    4.30
   6  -2   6    0.60    3.60
   6  -2   6    2.50    3.30
   6  -2   6    0.90    3.60
  -7   2  -6   -0.40    4.10
  -7   2  -6   -2.80    4.20
   7  -2   6    5.20    4.10
   7  -2   6   -1.90    4.30
  -8   2  -6   46.90    9.00
  -8   2  -6   35.80    7.90
   8  -2   6   54.19   10.40
   8  -2   6   39.00    8.20
   8   1  -6   47.10    9.60
   8   1  -6   38.30    8.50
  -8  -1   6   33.70    9.50
  -8  -1   6   25.90    8.00
  -8  -1   6   32.80    8.60
   7   1  -6    5.90    3.70
   7   1  -6    2.00    4.10
   7   1  -6    0.80    3.80
  -7  -1   6    1.40    4.80
  -7  -1   6   -3.10    4.30
  -7  -1   6   -0.90    4.50
   6   1  -6   38.10    6.80
   6   1  -6   38.90    5.90
   6   1  -6   27.40    5.80
  -6  -1   6   32.40    7.00
  -6  -1   6   29.30    6.60
   5   1  -6  152.38    8.50
   5   1  -6  136.19    9.90
   5   1  -6  128.29    9.40
   5   1  -6  149.88    9.60
  -5  -1   6  125.49   10.30
  -5  -1   6  135.19    8.40
  -5  -1   6  140.19   10.80
   4   1  -6   15.60    3.80
   4   1  -6   10.50    3.20
   4   1  -6   12.60    2.70
   4   1  -6    9.20    3.30
  -4  -1   6   12.30    1.20
  -4  -1   6   17.70    4.50
  -4  -1   6   12.70    3.10
  -4  -1   6    8.50    3.70
   3   1  -6  207.48    8.10
   3   1  -6  231.98   10.60
   3   1  -6  225.18   10.80
   3   1  -6  210.88   10.50
  -3  -1   6  217.88   12.00
  -3  -1   6  225.28   10.60
  -3  -1   6  229.28   11.70
   2   1  -6   24.30    2.30
   2   1  -6   22.90    3.70
   2   1  -6   24.10    3.80
   2   1  -6   22.10    1.90
   2   1  -6   18.30    3.30
  -2  -1   6   25.00    4.30
  -2  -1   6   20.60    1.90
  -2  -1   6   18.10    4.20
  -2  -1   6   19.70    3.90
   1   1  -6    4.50    1.90
   1   1  -6    5.00    1.30
   1   1  -6    3.60    1.40
   1   1  -6    5.80    2.00
  -1  -1   6    3.90    2.30
  -1  -1   6    6.70    1.20
  -1  -1   6    4.10    1.40
  -1  -1   6   10.20    2.80
   0   1  -6    1.80    1.60
   0   1  -6   -0.30    1.20
   0   1  -6    1.80    1.00
   0   1  -6    3.70    1.40
   0  -1   6    1.40    1.90
   0  -1   6    1.10    1.40
   0  -1   6    0.30    2.00
  -1   1  -6   34.00    3.10
  -1   1  -6   27.00    2.90
  -1   1  -6   33.60    4.20
  -1   1  -6   26.70    3.90
   1  -1   6   27.10    3.90
   1  -1   6   24.90    4.50
   1  -1   6   24.50    3.70
   1  -1   6   22.30    3.00
  -2   1  -6  320.67   13.30
  -2   1  -6  364.96   14.30
  -2   1  -6  351.46   12.40
  -2   1  -6  342.47   10.90
   2  -1   6  346.97   14.10
   2  -1   6  346.37   13.30
   2  -1   6  354.56   12.90
   2  -1   6  346.17   15.30
  -3   1  -6  484.25   18.20
  -3   1  -6  464.95   16.50
  -3   1  -6  481.15   17.80
  -3   1  -6  478.15   14.20
   3  -1   6  469.15   17.60
   3  -1   6  455.05   14.70
   3  -1   6  454.55   19.10
   3  -1   6  454.85   18.40
  -4   1  -6    2.10    1.60
  -4   1  -6    6.60    2.60
  -4   1  -6    5.80    3.00
  -4   1  -6    3.70    2.80
   4  -1   6    7.80    4.00
   4  -1   6    1.20    2.70
   4  -1   6    3.40    2.60
  -5   1  -6   15.00    4.30
  -5   1  -6   23.70    5.50
   5  -1   6   13.20    4.50
   5  -1   6   15.10    4.50
   5  -1   6   15.10    4.70
  -6   1  -6    4.70    3.90
  -6   1  -6    3.70    3.50
  -6   1  -6    6.30    4.10
   6  -1   6    5.50    4.40
   6  -1   6    4.70    4.20
   6  -1   6    6.30    4.00
  -7   1  -6    1.80    4.80
  -7   1  -6    8.30    4.90
  -7   1  -6    9.30    4.00
   7  -1   6    4.60    4.50
   7  -1   6    9.80    6.20
  -8   1  -6   14.60    5.50
  -8   1  -6   23.60    7.00
  -8   1  -6   14.70    6.70
   8  -1   6   13.00    7.40
   8  -1   6   20.10    7.40
   8   0  -6   19.80    5.50
   8   0  -6   29.90    7.10
   8   0  -6   28.80    7.40
  -8   0   6   20.10    7.60
  -8   0   6   28.80    7.40
  -8   0   6   32.90    8.20
   7   0  -6    1.30    3.60
   7   0  -6    1.50    3.50
   7   0  -6    3.10    3.40
  -7   0   6    0.90    4.10
  -7   0   6    1.30    3.90
  -7   0   6   -1.70    3.50
   6   0  -6   47.30    5.60
   6   0  -6   63.79    8.20
   6   0  -6   38.80    6.40
  -6   0   6   40.60    7.10
  -6   0   6   50.79    7.90
   5   0  -6   -0.30    2.40
   5   0  -6    0.60    1.90
   5   0  -6   -0.50    2.10
  -5   0   6    0.70    2.70
  -5   0   6   -1.10    2.10
  -5   0   6    3.60    3.30
   4   0  -6  210.88    9.10
   4   0  -6  217.28   10.80
   4   0  -6  214.08   11.00
   4   0  -6  196.78   10.30
  -4   0   6  207.58   11.60
  -4   0   6  194.88   11.80
  -4   0   6  193.38    9.50
   3   0  -6  129.69    7.10
   3   0  -6  134.09    7.90
   3   0  -6  135.69    6.30
   3   0  -6  131.59    7.60
  -3   0   6  125.39    7.30
  -3   0   6  135.49    8.20
  -3   0   6  116.89    8.60
   2   0  -6  149.79    8.10
   2   0  -6  152.58    7.30
   2   0  -6  168.88    6.80
   2   0  -6  175.98    8.10
   2   0  -6  153.88    5.30
  -2   0   6  156.88    8.30
  -2   0   6  158.28    5.20
  -2   0   6  162.68    8.50
  -2   0   6  161.38    9.50
   1   0  -6   65.89    5.20
   1   0  -6   62.79    3.70
   1   0  -6   62.09    4.40
   1   0  -6   69.99    4.10
  -1   0   6   63.99    5.40
  -1   0   6   65.19    6.60
  -1   0   6   65.59    4.60
  -1   0   6   62.39    3.80
   0   0  -6   39.70    4.20
   0   0  -6   32.90    2.50
   0   0  -6   38.20    3.10
   0   0  -6   42.40    4.80
   0   0   6   43.60    4.40
   0   0   6   40.20    3.60
   0   0   6   32.90    4.60
   0   0   6   37.90    5.20
  -1   0  -6  229.98   10.30
  -1   0  -6  202.58    6.30
  -1   0  -6  197.88    8.40
  -1   0  -6  188.78    8.70
   1   0   6  201.78   10.80
   1   0   6  182.38    9.20
   1   0   6  198.28    6.50
   1   0   6  194.18    9.10
   1   0   6  201.48    9.50
  -2   0  -6   59.89    5.80
  -2   0  -6   65.39    4.90
  -2   0  -6   62.49    6.40
  -2   0  -6   57.99    2.30
   2   0   6   64.49    6.20
   2   0   6   64.69    7.20
   2   0   6   64.49    2.70
   2   0   6   84.29    7.80
   2   0   6   69.79    5.10
  -3   0  -6  194.38    9.90
  -3   0  -6  171.58   10.20
  -3   0  -6  192.78    9.50
  -3   0  -6  177.58    5.70
   3   0   6  181.78   10.30
   3   0   6  178.98    7.90
   3   0   6  199.48   11.40
   3   0   6  173.38    6.00
   3   0   6  204.58   11.70
  -4   0  -6   53.89    7.00
  -4   0  -6   62.29    6.70
  -4   0  -6   72.59    7.40
   4   0   6   50.89    7.40
   4   0   6   53.49    6.90
   4   0   6   74.99    8.80
  -5   0  -6    6.30    3.30
  -5   0  -6    0.50    2.70
  -5   0  -6    0.70    3.10
   5   0   6   -3.80    2.70
   5   0   6   -1.70    2.80
   5   0   6   -3.90    3.30
  -6   0  -6   43.00    7.50
  -6   0  -6   47.70    7.20
  -6   0  -6   53.39    8.10
   6   0   6   45.30    8.10
   6   0   6   37.80    7.80
   6   0   6   65.19    9.70
  -7   0  -6   28.90    8.30
  -7   0  -6   61.49   10.10
  -7   0  -6   49.00    7.90
   7   0   6   36.60    8.00
   7   0   6   36.90    8.60
   9  -1  -6    4.70    5.80
   9  -1  -6    5.90    6.00
   9  -1  -6   10.10    6.30
  -9   1   6    1.50    4.50
  -9   1   6   -0.10    5.40
   8  -1  -6   54.19    8.10
   8  -1  -6   28.50    6.80
   8  -1  -6   50.19    8.80
  -8   1   6   29.50    7.50
  -8   1   6   40.90    8.60
  -8   1   6   40.10    7.90
   7  -1  -6   59.89    8.40
   7  -1  -6   40.60    7.10
   7  -1  -6   38.00    6.00
  -7   1   6   39.00    7.20
  -7   1   6   37.20    7.20
  -7   1   6   43.50    7.60
   6  -1  -6    1.80    3.10
   6  -1  -6    3.70    2.70
   6  -1  -6    6.20    3.60
  -6   1   6    4.20    3.70
  -6   1   6    3.80    3.50
  -6   1   6    2.00    3.40
   5  -1  -6    9.90    3.40
   5  -1  -6    2.20    1.80
   5  -1  -6   13.60    3.70
  -5   1   6    4.60    3.30
  -5   1   6    6.20    2.40
  -5   1   6    3.90    3.10
   4  -1  -6   -0.70    1.20
   4  -1  -6   -1.20    1.70
   4  -1  -6    2.80    1.90
  -4   1   6   -0.50    1.60
  -4   1   6   -3.90    1.60
  -4   1   6   -0.70    2.00
   3  -1  -6   15.50    1.40
   3  -1  -6    9.10    2.40
   3  -1  -6   13.70    1.30
   3  -1  -6   13.20    3.10
   3  -1  -6   16.30    2.90
  -3   1   6   14.00    3.50
  -3   1   6   14.30    3.90
  -3   1   6   11.80    3.00
   2  -1  -6  636.24   21.20
   2  -1  -6  636.04   19.50
   2  -1  -6  630.24   17.50
   2  -1  -6  620.94   19.70
  -2   1   6  672.63   20.80
  -2   1   6  620.54   17.90
  -2   1   6  663.13   23.20
  -2   1   6  651.23   21.60
   1  -1  -6  266.87   11.50
   1  -1  -6  274.47   10.00
   1  -1  -6  268.97   10.00
  -1   1   6  270.57   12.60
  -1   1   6  269.27    9.90
  -1   1   6  248.38   11.90
  -1   1   6  251.57    9.80
   0  -1  -6  192.98    9.70
   0  -1  -6  211.08    8.70
   0  -1  -6  204.68    8.30
   0   1   6  192.38   10.10
   0   1   6  207.38    6.60
   0   1   6  205.98    9.30
   0   1   6  204.68    6.90
   0   1   6  210.28   10.90
  -1  -1  -6   78.99    6.20
  -1  -1  -6   68.79    4.70
  -1  -1  -6   71.99    5.20
   1   1   6   67.09    6.50
   1   1   6   73.89    7.10
   1   1   6   76.79    7.90
  -2  -1  -6    2.10    1.90
  -2  -1  -6   -0.50    2.20
  -2  -1  -6    0.70    1.90
   2   1   6    2.50    2.30
   2   1   6   -1.60    1.80
   2   1   6    0.30    2.30
   2   1   6   -0.20    2.20
  -3  -1  -6   22.70    4.20
  -3  -1  -6   19.30    3.90
  -3  -1  -6   26.40    4.80
   3   1   6   24.70    3.80
   3   1   6   32.50    6.00
   3   1   6   27.40    5.70
   3   1   6   22.10    4.60
  -4  -1  -6   90.69    8.80
  -4  -1  -6   94.19    9.40
  -4  -1  -6   96.59    8.80
   4   1   6   90.99    9.70
   4   1   6   87.19    9.50
   4   1   6   90.49    9.20
  -5  -1  -6    8.00    4.40
  -5  -1  -6    2.90    3.90
  -5  -1  -6    2.70    3.30
   5   1   6    6.50    5.80
   5   1   6    3.10    4.50
   5   1   6    7.60    4.60
  -6  -1  -6   51.19    8.50
  -6  -1  -6   55.69    8.00
  -6  -1  -6   51.39    8.50
   6   1   6   46.50    8.50
   6   1   6   49.99    8.80
   6   1   6   44.20    8.60
  -7  -1  -6   33.70    7.30
  -7  -1  -6   14.20    7.70
  -7  -1  -6   43.90    9.00
   7   1   6   27.00    9.20
   7   1   6   21.90    7.50
   9  -2  -6   -4.10    4.80
   9  -2  -6    4.20    5.20
   9  -2  -6    1.80    4.90
  -9   2   6   -2.00    5.20
  -9   2   6    3.50    5.70
   8  -2  -6   58.59    8.40
   8  -2  -6   64.39    8.00
   8  -2  -6  104.19   11.60
  -8   2   6   65.79    9.70
  -8   2   6   70.89   10.10
  -8   2   6   46.00    7.90
   7  -2  -6   30.00    6.20
   7  -2  -6   23.70    5.00
   7  -2  -6   25.10    5.80
  -7   2   6   25.80    5.80
  -7   2   6   35.10    7.00
  -7   2   6   24.30    6.70
   6  -2  -6    0.50    2.00
   6  -2  -6    0.70    2.60
   6  -2  -6    0.80    2.80
  -6   2   6   -2.70    2.70
  -6   2   6   -3.50    2.50
  -6   2   6   -0.40    3.10
   5  -2  -6    5.40    2.40
   5  -2  -6    4.00    2.70
   5  -2  -6    3.10    1.20
   5  -2  -6    2.50    2.30
  -5   2   6    3.10    2.70
  -5   2   6    1.30    1.70
  -5   2   6    3.80    3.00
   4  -2  -6    3.50    2.00
   4  -2  -6    6.10    2.50
   4  -2  -6    1.60    1.20
   4  -2  -6    5.40    1.40
   4  -2  -6    2.80    2.10
  -4   2   6    0.80    2.50
  -4   2   6    3.10    2.00
  -4   2   6    0.30    1.70
   3  -2  -6  281.27   12.40
   3  -2  -6  288.07   11.50
   3  -2  -6  274.97   10.90
   3  -2  -6  277.57    9.30
  -3   2   6  284.27   14.10
  -3   2   6  289.27   12.40
  -3   2   6  284.27   12.00
   2  -2  -6  157.28    7.80
   2  -2  -6  159.38    8.60
   2  -2  -6  154.58    6.90
   2  -2  -6  168.98    6.90
  -2   2   6  159.88    7.80
  -2   2   6  164.98    7.10
  -2   2   6  161.18    8.90
  -2   2   6  155.38    9.80
   1  -2  -6   24.90    3.50
   1  -2  -6   19.30    3.60
   1  -2  -6   21.90    2.80
  -1   2   6   18.00    4.00
  -1   2   6   20.40    2.70
  -1   2   6   23.00    3.40
  -1   2   6   25.00    4.50
   0  -2  -6   73.19    5.50
   0  -2  -6   79.49    6.30
   0  -2  -6   80.29    4.50
   0   2   6   75.79    3.00
   0   2   6   73.89    2.80
   0   2   6   82.19    8.00
   0   2   6   74.69    6.10
   0   2   6   85.29    6.80
  -1  -2  -6   12.40    2.80
  -1  -2  -6   15.50    2.70
  -1  -2  -6    6.80    2.80
   1   2   6    9.10    3.70
   1   2   6   12.20    3.60
   1   2   6   12.00    3.70
  -2  -2  -6   96.89    6.10
  -2  -2  -6   93.19    7.70
  -2  -2  -6   88.69    6.90
   2   2   6  102.99    7.10
   2   2   6   96.09    9.60
   2   2   6  106.09    8.30
  -3  -2  -6   86.19    8.60
  -3  -2  -6   92.89    8.50
  -3  -2  -6   81.19    6.70
   3   2   6   80.79    9.40
   3   2   6   85.49    6.60
   3   2   6   73.19    8.60
   3   2   6   90.49    9.90
  -4  -2  -6    2.30    3.00
  -4  -2  -6    2.40    3.60
  -4  -2  -6    2.40    3.00
   4   2   6   -0.10    3.30
   4   2   6    5.40    5.10
   4   2   6    4.10    3.90
  -5  -2  -6   -1.80    3.50
  -5  -2  -6   -2.60    1.90
  -5  -2  -6   -3.50    3.60
   5   2   6    1.00    3.70
   5   2   6   -1.30    4.30
   5   2   6    2.20    4.30
  -6  -2  -6   15.30    5.80
  -6  -2  -6   15.20    6.00
   6   2   6   17.10    6.90
   6   2   6   15.90    6.50
   6   2   6   15.90    6.80
   9  -3  -6   12.80    5.40
   9  -3  -6    3.90    5.00
   9  -3  -6   11.90    5.90
  -9   3   6   -2.70    4.50
  -9   3   6   10.00    6.10
  -9   3   6    8.90    5.40
   8  -3  -6   48.10    7.10
   8  -3  -6   44.40    7.30
   8  -3  -6   61.39    9.00
  -8   3   6   38.00    7.40
  -8   3   6   41.80    7.90
  -8   3   6   32.60    6.80
   7  -3  -6   52.79    7.20
   7  -3  -6   51.39    6.60
   7  -3  -6   51.49    7.70
  -7   3   6   48.30    7.70
  -7   3   6   57.09    8.10
  -7   3   6   46.70    8.10
   6  -3  -6  106.39    7.90
   6  -3  -6  129.39    9.60
   6  -3  -6  106.49    8.10
  -6   3   6  128.09   10.40
  -6   3   6  108.79    8.80
  -6   3   6  101.69   10.40
   5  -3  -6    3.60    2.00
   5  -3  -6    4.60    2.60
   5  -3  -6    1.40    2.50
   5  -3  -6    7.00    2.50
  -5   3   6    1.70    2.70
  -5   3   6    1.10    2.60
  -5   3   6    4.50    2.00
  -5   3   6    2.20    3.00
   4  -3  -6   74.49    7.20
   4  -3  -6   57.79    4.50
   4  -3  -6   68.49    5.70
   4  -3  -6   72.59    5.40
  -4   3   6   75.39    7.60
  -4   3   6   64.29    8.00
  -4   3   6   70.39    5.50
   3  -3  -6    3.70    1.90
   3  -3  -6    3.40    2.20
   3  -3  -6    0.20    1.90
   3  -3  -6    3.80    1.70
  -3   3   6    1.30    2.10
  -3   3   6    9.90    3.80
  -3   3   6    2.30    2.20
   2  -3  -6    1.00    1.20
   2  -3  -6   -0.90    1.80
   2  -3  -6   -0.80    1.60
   2  -3  -6    0.10    1.70
  -2   3   6    0.60    2.40
  -2   3   6    0.30    1.90
  -2   3   6   -0.60    1.70
  -2   3   6    0.90    2.00
   1  -3  -6  101.69    4.50
   1  -3  -6   99.89    6.70
   1  -3  -6  103.59    6.40
   1  -3  -6  110.39    7.40
  -1   3   6   99.69    5.10
  -1   3   6   97.69    7.90
  -1   3   6  100.09    6.70
  -1   3   6   88.59    7.40
   0  -3  -6   76.49    5.90
   0  -3  -6   64.99    3.30
   0  -3  -6   78.59    4.10
   0  -3  -6   83.49    6.40
   0  -3  -6   83.89    6.80
   0   3   6   89.59    8.30
   0   3   6   87.19    8.70
   0   3   6   84.19    8.90
   0   3   6   76.29    3.30
  -1  -3  -6  324.17   11.50
  -1  -3  -6  351.36   14.60
  -1  -3  -6  338.97   15.10
   1   3   6  361.26   17.00
   1   3   6  319.07   15.10
   1   3   6  348.07   15.70
  -2  -3  -6  246.68   12.20
  -2  -3  -6  221.88    9.60
  -2  -3  -6  201.98   12.20
   2   3   6  214.68   11.80
   2   3   6  242.98   14.20
   2   3   6  190.98   12.40
  -3  -3  -6   -1.00    2.70
  -3  -3  -6   -1.80    2.80
   3   3   6   -1.50    3.80
   3   3   6   -1.50    2.50
   3   3   6   -1.60    3.00
  -4  -3  -6    1.80    3.40
  -4  -3  -6   -0.90    3.70
   4   3   6   -0.60    4.70
   4   3   6    2.40    4.30
   4   3   6   -0.80    3.90
  -5  -3  -6    6.50    5.10
  -5  -3  -6    4.60    4.60
   5   3   6    3.10    4.70
   5   3   6    6.70    7.10
   5   3   6    7.40    6.50
  10  -4  -6    6.60    6.20
  10  -4  -6    4.80    4.90
 -10   4   6    1.90    5.80
 -10   4   6    7.70    5.30
   9  -4  -6    2.10    4.70
   9  -4  -6   -2.00    5.20
   9  -4  -6    0.10    3.70
  -9   4   6    3.60    5.00
  -9   4   6   -1.60    4.60
  -9   4   6   -5.90    4.30
   8  -4  -6    0.50    2.90
   8  -4  -6    0.70    3.60
   8  -4  -6    0.10    3.40
  -8   4   6    2.90    4.80
  -8   4   6    2.60    4.50
  -8   4   6    4.00    4.20
   7  -4  -6  139.89   10.00
   7  -4  -6  180.78   12.00
   7  -4  -6  142.29    9.90
  -7   4   6  154.08   12.20
  -7   4   6  160.38   11.50
  -7   4   6  125.19   12.80
   6  -4  -6    2.40    2.70
   6  -4  -6   -0.60    2.00
   6  -4  -6    0.80    2.50
   6  -4  -6   -0.80    2.20
  -6   4   6    0.60    3.60
  -6   4   6    2.30    2.80
  -6   4   6   -1.50    2.60
   5  -4  -6  166.68    8.20
   5  -4  -6  171.28    9.90
   5  -4  -6  178.08    9.20
   5  -4  -6  162.08   10.00
  -5   4   6  149.79   11.40
  -5   4   6  155.38   10.70
  -5   4   6  162.58    8.40
  -5   4   6  161.08    9.10
   4  -4  -6  106.59    6.70
   4  -4  -6  106.29    8.00
   4  -4  -6  107.09    7.70
   4  -4  -6  110.09    6.20
  -4   4   6   86.69    9.70
  -4   4   6  109.09    6.50
  -4   4   6   94.89    7.80
  -4   4   6  107.39    7.30
   3  -4  -6   18.70    3.60
   3  -4  -6   15.60    2.30
   3  -4  -6   17.80    3.60
   3  -4  -6   21.70    4.30
  -3   4   6   20.70    4.10
  -3   4   6   19.20    3.90
  -3   4   6   21.50    5.00
  -3   4   6   17.60    2.70
   2  -4  -6   31.70    2.30
   2  -4  -6   40.60    5.10
   2  -4  -6   39.10    5.30
   2  -4  -6   37.50    5.20
  -2   4   6   29.90    3.00
  -2   4   6   41.90    5.90
  -2   4   6   36.20    4.40
  -2   4   6   40.90    6.50
  -2   4   6   40.10    5.20
   1  -4  -6  125.49    8.70
   1  -4  -6  129.79    8.30
   1  -4  -6  127.29    8.00
  -1   4   6  129.19    9.80
  -1   4   6  134.39    9.70
  -1   4   6  133.69    8.60
  -1   4   6  118.19    6.20
   0  -4  -6   -3.10    2.00
   0  -4  -6    5.10    2.90
   0  -4  -6    8.90    3.70
   0   4   6    1.50    3.30
   0   4   6    4.60    3.70
   0   4   6    1.00    2.80
  -1  -4  -6  146.79   10.60
  -1  -4  -6  178.58   10.50
  -1  -4  -6  167.38   10.40
   1   4   6  157.28   11.80
   1   4   6  171.78   11.30
   1   4   6  159.78   11.00
  -2  -4  -6   65.29    8.30
  -2  -4  -6   75.99    8.10
  -2  -4  -6   42.90    6.50
   2   4   6   64.89    9.30
   2   4   6   71.69    8.70
   2   4   6   65.69    8.80
  -3  -4  -6   -2.10    4.00
  -3  -4  -6    4.20    3.70
  -3  -4  -6    4.70    3.70
   3   4   6    3.70    6.10
   3   4   6   -0.30    4.40
   3   4   6    2.40    4.40
  -4  -4  -6    0.20    4.50
  -4  -4  -6   -4.10    3.50
  -4  -4  -6   -4.10    3.70
   4   4   6    2.60    6.80
   4   4   6   -9.80    5.30
  10  -5  -6    7.00    5.50
  10  -5  -6    3.20    6.50
 -10   5   6    5.40    6.30
 -10   5   6    0.80    5.70
   9  -5  -6   14.40    5.40
   9  -5  -6    3.30    3.00
  -9   5   6    9.00    5.40
  -9   5   6    2.90    6.50
  -9   5   6    7.20    5.80
   8  -5  -6   19.90    5.70
   8  -5  -6   19.40    5.30
  -8   5   6   12.90    5.70
  -8   5   6   16.70    5.70
  -8   5   6   12.60    5.10
   7  -5  -6   13.00    4.20
   7  -5  -6   24.40    5.40
   7  -5  -6   31.00    6.10
  -7   5   6   20.60    5.00
  -7   5   6   20.90    6.10
  -7   5   6   15.60    5.60
   6  -5  -6   28.90    5.40
   6  -5  -6   23.70    4.30
   6  -5  -6   30.10    5.40
   6  -5  -6   31.70    5.00
  -6   5   6   19.40    4.20
  -6   5   6   21.80    6.10
  -6   5   6   18.90    5.30
   5  -5  -6   28.90    4.10
   5  -5  -6   37.20    5.50
   5  -5  -6   24.70    4.90
   5  -5  -6   32.60    5.30
  -5   5   6   34.50    6.10
  -5   5   6   23.80    5.90
  -5   5   6   38.00    4.80
  -5   5   6   33.60    4.90
   4  -5  -6   60.89    6.60
   4  -5  -6   53.39    6.70
   4  -5  -6   55.79    6.50
  -4   5   6   54.19    6.30
  -4   5   6   50.59    7.80
  -4   5   6   40.20    4.00
  -4   5   6   46.40    6.40
   3  -5  -6   64.39    6.90
   3  -5  -6   56.69    6.80
   3  -5  -6   58.99    6.70
  -3   5   6   57.79    6.80
  -3   5   6   58.09    8.00
  -3   5   6   65.39    7.70
   2  -5  -6   -0.20    3.00
   2  -5  -6    2.00    2.40
   2  -5  -6   -0.50    2.20
  -2   5   6   -2.50    2.40
  -2   5   6    0.10    3.30
  -2   5   6   -3.20    3.00
   1  -5  -6   -2.60    2.40
   1  -5  -6    1.70    2.80
   1  -5  -6    2.30    3.50
  -1   5   6    0.70    2.10
  -1   5   6    5.10    3.90
  -1   5   6    1.60    3.60
  -1   5   6    4.50    4.00
   0  -5  -6   11.10    4.00
   0  -5  -6   21.60    4.80
   0  -5  -6   11.30    4.10
   0   5   6   11.80    4.70
   0   5   6   14.90    5.30
   0   5   6    5.60    3.80
  -1  -5  -6   28.10    5.60
  -1  -5  -6   39.10    6.00
  -1  -5  -6   25.70    5.50
   1   5   6   28.30    6.20
   1   5   6   32.30    6.60
   1   5   6   40.90    7.60
  -2  -5  -6   25.50    6.10
  -2  -5  -6   25.10    5.80
  -2  -5  -6   26.70    5.70
   2   5   6   26.40    6.50
   2   5   6   18.60    6.20
   2   5   6   33.20    7.70
  -3  -5  -6    9.70    4.80
  -3  -5  -6   14.20    5.50
  -3  -5  -6    7.90    6.10
   3   5   6    5.90    6.50
   3   5   6   10.50    6.50
   9  -6  -6   29.60    6.60
   9  -6  -6   16.20    5.60
  -9   6   6    6.60    6.30
  -9   6   6   23.70    7.70
  -9   6   6   24.80    8.20
   8  -6  -6    6.60    4.50
   8  -6  -6   12.00    4.80
  -8   6   6   11.40    4.60
  -8   6   6    4.40    4.50
  -8   6   6   11.00    6.00
   7  -6  -6   25.60    5.60
   7  -6  -6   21.50    5.20
  -7   6   6   17.50    4.40
  -7   6   6   20.50    6.20
  -7   6   6   15.60    5.60
   6  -6  -6   37.60    5.90
   6  -6  -6   26.60    5.30
   6  -6  -6   31.70    5.60
  -6   6   6   29.90    6.50
  -6   6   6   30.10    7.10
   5  -6  -6   18.30    4.80
   5  -6  -6   16.30    4.50
   5  -6  -6   17.40    4.70
  -5   6   6   17.10    4.30
  -5   6   6   27.40    5.90
  -5   6   6    9.10    4.60
   4  -6  -6   90.89    8.50
   4  -6  -6   75.19    8.50
   4  -6  -6   90.29    7.70
  -4   6   6   84.09    8.80
  -4   6   6   73.49    8.10
  -4   6   6   84.79   10.40
   3  -6  -6   73.49    7.30
   3  -6  -6   79.29    8.70
   3  -6  -6   73.79    8.30
  -3   6   6   80.79    8.30
  -3   6   6   62.69    7.90
  -3   6   6   79.99   10.20
   2  -6  -6   18.20    4.80
   2  -6  -6   13.00    4.10
   2  -6  -6    5.40    3.70
  -2   6   6    6.40    4.00
  -2   6   6    6.90    3.70
  -2   6   6   15.70    5.40
   1  -6  -6   39.10    6.50
   1  -6  -6   33.90    6.50
   1  -6  -6   34.00    6.00
  -1   6   6   41.10    7.80
  -1   6   6   41.80    7.50
  -1   6   6   44.20    7.20
   0  -6  -6    9.10    4.80
   0  -6  -6    8.60    4.60
   0  -6  -6   14.80    4.80
   0   6   6   10.80    5.40
   0   6   6   12.30    5.50
   0   6   6   22.30    7.10
  -1  -6  -6    1.20    4.10
  -1  -6  -6    6.50    6.80
  -1  -6  -6    5.40    4.10
   1   6   6    2.40    5.00
   1   6   6    4.40    5.20
   1   6   6    9.40    6.30
  -2  -6  -6   22.60    5.90
  -2  -6  -6   44.70    7.60
  -2  -6  -6   33.00    7.30
   2   6   6   33.80    7.90
   2   6   6   39.80    9.30
   2   6   6   39.40    8.50
   9  -7  -6   21.20    5.80
   9  -7  -6   21.80    6.30
  -9   7   6    7.20    6.20
  -9   7   6   19.90    7.30
   8  -7  -6    2.20    4.70
   8  -7  -6    5.70    4.20
  -8   7   6   -3.20    4.60
  -8   7   6    7.70    6.20
   7  -7  -6    1.50    4.30
   7  -7  -6    4.40    3.70
   7  -7  -6   -1.10    3.00
  -7   7   6    0.90    4.90
  -7   7   6   -3.30    4.20
   6  -7  -6    5.10    3.60
   6  -7  -6    4.90    5.00
   6  -7  -6    9.20    3.70
  -6   7   6   10.70    5.50
  -6   7   6   -4.50    4.20
   5  -7  -6    2.80    3.40
   5  -7  -6   11.40    5.30
   5  -7  -6    5.40    3.40
  -5   7   6    2.20    3.80
  -5   7   6    4.60    5.00
  -5   7   6    9.10    4.80
   4  -7  -6   37.60    6.40
   4  -7  -6   37.80    6.70
   4  -7  -6   35.00    5.60
  -4   7   6   35.80    6.40
  -4   7   6   30.00    6.40
  -4   7   6   19.80    6.20
   3  -7  -6   -2.90    4.10
   3  -7  -6    3.30    3.30
   3  -7  -6   -1.50    3.60
  -3   7   6    9.90    5.10
  -3   7   6    2.00    4.10
  -3   7   6    7.60    3.90
   2  -7  -6   10.70    4.80
   2  -7  -6    1.50    3.70
  -2   7   6    0.10    4.40
  -2   7   6    3.70    4.40
   1  -7  -6   -0.50    3.70
   1  -7  -6    3.90    4.40
  -1   7   6    9.10    5.60
  -1   7   6    8.10    5.40
   0  -7  -6   29.30    6.60
   0  -7  -6   18.10    5.80
   0   7   6   30.90    8.00
   0   7   6   28.10    7.50
  -1  -7  -6    3.80    4.80
  -1  -7  -6    5.60    5.50
   1   7   6    0.70    6.10
   1   7   6    5.10    6.00
   1   7   6    3.50    5.60
   8  -8  -6   55.19    8.30
  -8   8   6   56.19   10.30
  -8   8   6   32.80    9.10
   7  -8  -6    0.70    5.20
   7  -8  -6    4.60    4.60
  -7   8   6    4.30    6.00
  -7   8   6    6.00    5.40
   6  -8  -6   11.40    5.30
   6  -8  -6   12.90    4.90
  -6   8   6   10.40    6.40
  -6   8   6   10.10    5.90
   5  -8  -6    5.30    4.30
   5  -8  -6    9.20    5.10
  -5   8   6    7.90    5.90
  -5   8   6   13.90    5.80
  -5   8   6    3.70    4.40
   4  -8  -6    2.00    4.40
   4  -8  -6    2.20    4.10
  -4   8   6    4.40    5.40
  -4   8   6    2.10    4.50
  -4   8   6    5.70    5.50
   3  -8  -6   30.10    7.10
   3  -8  -6   26.50    6.50
  -3   8   6   29.60    8.30
  -3   8   6   22.30    6.60
   2  -8  -6   35.80    8.40
   2  -8  -6   35.30    7.20
  -2   8   6   19.90    7.00
  -2   8   6   19.40    7.10
   1  -8  -6   -1.90    4.40
   1  -8  -6    8.50    6.10
  -1   8   6   -3.30    5.30
  -1   8   6    4.80    6.60
   7  -9  -6   -1.70    4.20
   7  -9  -6    8.30    6.70
  -7   9   6   -2.20    6.40
  -7   9   6    3.60    6.20
   6  -9  -6    6.70    5.50
   6  -9  -6   13.50    5.00
  -6   9   6    8.40    6.70
  -6   9   6   12.80    8.40
   5  -9  -6    3.40    5.90
   5  -9  -6    5.20    4.90
   5  -9  -6   19.80    7.70
  -5   9   6    6.50    6.90
  -5   9   6   15.20    6.00
  -5   9   6    7.20    7.10
   4  -9  -6    1.10    5.10
   4  -9  -6   -2.10    6.20
  -4   9   6    8.30    5.70
  -4   9   6    4.30    6.20
   3  -9  -6   13.50    6.60
   3  -9  -6   13.60    6.10
  -3   9   6    6.40    7.10
  -3   9   6   11.50    7.30
  -1   9  -7    0.20    4.70
  -1   9  -7    1.60    5.30
   1  -9   7    0.80    6.10
   1  -9   7    0.70    6.50
   1  -9   7    1.40    6.20
  -2   9  -7   44.90    8.30
  -2   9  -7   55.59    9.60
  -2   9  -7   44.80    8.50
   2  -9   7   55.79   11.00
   2  -9   7   56.59   10.50
   2  -9   7   56.69   11.10
  -3   9  -7   31.80    7.10
  -3   9  -7   53.19    9.70
  -3   9  -7   50.69    8.50
   3  -9   7   41.60    9.90
   3  -9   7   44.60    8.70
   3  -9   7   63.39   10.90
  -4   9  -7   -2.00    3.70
  -4   9  -7    9.60    5.90
  -4   9  -7    8.50    6.30
   4  -9   7    2.10    5.50
   4  -9   7    2.80    5.80
   4  -9   7   12.50    7.10
  -5   9  -7   13.00    6.40
  -5   9  -7    6.70    8.20
  -5   9  -7    3.60    5.10
   5  -9   7   14.60    6.50
   5  -9   7   16.40    7.60
  -6   9  -7   -0.40    5.10
  -6   9  -7   -0.10    5.40
   6  -9   7    3.70    6.70
   6  -9   7   -1.00    7.30
   1   8  -7    2.00    4.70
   1   8  -7    8.30    5.50
   1   8  -7   -0.90    4.80
  -1  -8   7    1.20    5.50
  -1  -8   7    5.90    6.50
  -1  -8   7    0.70    5.80
   0   8  -7   14.80    6.70
   0   8  -7   23.40    6.90
   0   8  -7   17.40    6.30
   0  -8   7   12.60    5.80
   0  -8   7   31.60    9.20
   0  -8   7   27.70    8.40
  -1   8  -7   33.80    7.10
  -1   8  -7   38.60    7.00
  -1   8  -7   37.90    7.70
   1  -8   7   31.60    8.70
   1  -8   7   37.10    7.10
   1  -8   7   33.60    8.50
  -2   8  -7   95.49   10.50
  -2   8  -7  107.69   11.50
  -2   8  -7   92.89   11.50
   2  -8   7  133.89   13.60
   2  -8   7  102.19   12.90
   2  -8   7  100.49   12.20
  -3   8  -7   20.60    5.90
  -3   8  -7   12.40    6.00
  -3   8  -7   22.20    6.80
   3  -8   7   16.30    5.90
   3  -8   7   23.30    7.10
   3  -8   7   34.40    7.80
  -4   8  -7    1.40    4.30
  -4   8  -7   -1.40    2.40
  -4   8  -7   -1.70    2.70
   4  -8   7   -3.10    4.10
   4  -8   7    1.60    4.60
   4  -8   7    1.00    4.40
  -5   8  -7    4.90    5.00
  -5   8  -7    5.50    5.20
   5  -8   7   16.80    6.80
   5  -8   7    7.60    5.90
  -6   8  -7    3.80    5.20
  -6   8  -7    0.50    4.70
   6  -8   7    4.00    5.80
   6  -8   7    4.30    6.40
  -7   8  -7    6.20    5.60
  -7   8  -7    4.00    6.00
   7  -8   7    6.50    5.70
   3   7  -7   29.80    7.70
   3   7  -7   26.50    7.20
   3   7  -7   23.90    7.40
  -3  -7   7   24.70    8.60
  -3  -7   7   31.70    9.20
   2   7  -7    9.80    4.60
   2   7  -7    7.40    4.90
   2   7  -7   18.00    5.90
  -2  -7   7    9.30    6.30
  -2  -7   7    6.20    6.20
   1   7  -7   14.00    5.60
   1   7  -7    4.50    5.40
   1   7  -7    5.70    4.50
  -1  -7   7   11.60    5.80
  -1  -7   7    6.20    6.00
  -1  -7   7    8.90    5.50
   0   7  -7   -0.20    3.60
   0   7  -7    0.10    3.60
   0   7  -7   -0.20    3.10
   0  -7   7   -1.30    4.60
   0  -7   7    0.60    4.40
   0  -7   7    1.00    4.60
  -1   7  -7   19.30    5.30
  -1   7  -7   14.70    4.90
  -1   7  -7   11.40    4.30
   1  -7   7   20.40    7.20
   1  -7   7   23.60    6.50
   1  -7   7   13.90    5.00
  -2   7  -7    4.90    3.70
  -2   7  -7    2.70    3.00
  -2   7  -7    2.10    3.80
   2  -7   7    1.70    4.40
   2  -7   7   -0.60    4.20
   2  -7   7    2.70    3.60
  -3   7  -7   11.30    3.90
  -3   7  -7   22.00    5.30
  -3   7  -7    5.90    4.20
   3  -7   7    7.60    5.40
   3  -7   7   16.90    5.00
   3  -7   7   15.60    5.40
  -4   7  -7   16.50    5.20
  -4   7  -7   17.40    4.50
  -4   7  -7   28.20    6.40
   4  -7   7   33.00    6.80
   4  -7   7   30.40    7.70
   4  -7   7   20.80    5.70
  -5   7  -7   17.70    5.90
  -5   7  -7   33.40    6.80
   5  -7   7   34.70    6.90
   5  -7   7   20.40    6.40
  -6   7  -7    9.80    5.10
  -6   7  -7   11.60    5.10
   6  -7   7   12.00    4.20
   6  -7   7    9.50    5.40
   6  -7   7    8.50    5.20
  -7   7  -7   17.90    6.10
  -7   7  -7    7.30    5.60
   7  -7   7   10.10    5.90
   7  -7   7   16.00    4.70
  -8   7  -7    6.10    5.60
  -8   7  -7    2.00    5.90
   8  -7   7   10.10    7.10
   8  -7   7    2.30    4.20
   4   6  -7    5.70    5.50
   4   6  -7   12.60    6.00
  -4  -6   7   15.50    8.00
  -4  -6   7   20.00    7.50
  -4  -6   7    7.00    6.80
   3   6  -7   55.79    8.90
   3   6  -7   94.49   11.00
   3   6  -7   53.99    8.50
  -3  -6   7   72.29   10.50
  -3  -6   7   66.29   11.20
   2   6  -7   67.39    9.00
   2   6  -7   68.19    9.20
   2   6  -7   78.49    9.70
  -2  -6   7   84.69   11.40
  -2  -6   7   97.09   12.30
  -2  -6   7   80.99    9.30
   1   6  -7    6.00    3.90
   1   6  -7    7.30    4.30
   1   6  -7   13.20    4.70
  -1  -6   7   -1.20    4.10
  -1  -6   7    6.70    4.80
  -1  -6   7    3.00    4.10
   0   6  -7  160.58   11.50
   0   6  -7  154.08   10.80
   0   6  -7  156.08   10.90
   0  -6   7  158.68   12.40
   0  -6   7  199.18   13.60
   0  -6   7  171.38   10.50
  -1   6  -7   61.89    7.70
  -1   6  -7   77.69    9.20
  -1   6  -7   66.59    7.70
   1  -6   7   67.39    9.10
   1  -6   7   67.79    9.00
   1  -6   7   57.19    7.30
  -2   6  -7   21.70    5.00
  -2   6  -7   21.20    4.40
  -2   6  -7   18.90    5.20
   2  -6   7   16.10    4.70
   2  -6   7   15.40    5.00
   2  -6   7   13.90    5.00
  -3   6  -7  105.99   10.30
  -3   6  -7   99.29    7.40
  -3   6  -7  108.09    9.00
   3  -6   7  107.19   11.20
   3  -6   7  127.59   11.50
   3  -6   7  101.99    8.80
  -4   6  -7   28.90    6.00
  -4   6  -7   20.30    4.00
  -4   6  -7   19.70    3.80
  -4   6  -7   23.20    5.50
   4  -6   7   16.80    6.30
   4  -6   7   12.10    4.60
   4  -6   7   24.50    5.00
   4  -6   7   19.00    3.20
  -5   6  -7   32.00    6.30
  -5   6  -7   28.50    4.60
  -5   6  -7   37.30    6.50
   5  -6   7   36.20    7.20
   5  -6   7   27.00    6.30
   5  -6   7   35.10    5.10
  -6   6  -7  112.09   11.60
  -6   6  -7  108.79   11.10
  -6   6  -7   95.49    8.30
   6  -6   7   89.09   10.90
   6  -6   7   90.59    8.80
   6  -6   7  113.49   12.10
  -7   6  -7   -3.40    5.10
  -7   6  -7    0.00    4.60
  -7   6  -7    0.40    3.60
   7  -6   7    3.20    3.40
   7  -6   7   13.70    6.80
  -8   6  -7    8.70    6.50
  -8   6  -7    4.10    5.80
  -8   6  -7    2.80    5.30
   8  -6   7    6.40    5.60
   8  -6   7    6.50    4.60
   5   5  -7   -3.80    4.40
   5   5  -7   -0.90    4.90
  -5  -5   7   -6.30    5.10
  -5  -5   7   -9.70    5.10
  -5  -5   7    0.00    5.50
   4   5  -7   16.70    6.00
   4   5  -7   19.30    6.10
  -4  -5   7   19.40    6.60
  -4  -5   7   14.80    6.70
  -4  -5   7   10.20    6.20
   3   5  -7  166.08   12.50
   3   5  -7  171.18   12.30
  -3  -5   7  176.98   13.20
  -3  -5   7  163.28   13.90
   2   5  -7  108.99    8.90
   2   5  -7  121.19    8.00
   2   5  -7  118.39    9.40
   2   5  -7  105.79    9.20
  -2  -5   7  130.39   12.70
  -2  -5   7  104.79    8.00
  -2  -5   7  124.09   12.80
   1   5  -7   32.70    5.70
   1   5  -7   40.30    4.80
   1   5  -7   45.30    6.80
   1   5  -7   38.10    5.90
  -1  -5   7   32.80    6.80
  -1  -5   7   32.10    4.90
  -1  -5   7   39.20    7.30
   0   5  -7  127.99    9.30
   0   5  -7  141.49    9.50
   0   5  -7  136.79    7.20
   0   5  -7  141.79    9.30
   0  -5   7  125.09    8.60
   0  -5   7  138.19   10.50
   0  -5   7  131.39   10.50
  -1   5  -7  310.87   15.00
  -1   5  -7  340.67   14.80
  -1   5  -7  345.27   12.60
  -1   5  -7  353.76   15.50
   1  -5   7  314.07   15.80
   1  -5   7  318.87   16.80
   1  -5   7  325.47   14.50
  -2   5  -7  124.19    8.80
  -2   5  -7  105.09    8.40
  -2   5  -7  114.99    7.60
  -2   5  -7  126.19    7.20
   2  -5   7  111.29    5.70
   2  -5   7  124.39    9.90
   2  -5   7  123.69    8.80
   2  -5   7  120.29    8.80
  -3   5  -7   15.50    4.20
  -3   5  -7   18.20    4.60
  -3   5  -7   17.30    3.40
  -3   5  -7   15.80    3.50
   3  -5   7   15.60    4.20
   3  -5   7   14.90    3.90
   3  -5   7   21.50    5.60
   3  -5   7    8.10    2.10
  -4   5  -7    5.80    3.00
  -4   5  -7   -1.10    2.70
  -4   5  -7    1.70    2.70
   4  -5   7    0.60    3.00
   4  -5   7    0.50    1.70
   4  -5   7    1.10    2.70
   4  -5   7    3.90    3.40
  -5   5  -7    2.90    2.60
  -5   5  -7    1.30    3.40
  -5   5  -7   -2.90    2.50
   5  -5   7    1.50    2.70
   5  -5   7    3.00    3.40
   5  -5   7   -1.60    3.80
  -6   5  -7  114.39   11.50
  -6   5  -7  122.89    9.80
  -6   5  -7  137.79   10.00
   6  -5   7  119.99    9.30
   6  -5   7   96.09   10.90
  -7   5  -7  140.09   10.80
  -7   5  -7  157.38   12.90
  -7   5  -7  132.79   12.80
   7  -5   7  140.29   11.10
   7  -5   7  128.19   13.40
  -8   5  -7   -5.00    4.90
  -8   5  -7    3.90    6.00
   8  -5   7    0.80    4.20
   8  -5   7    2.90    6.60
   6   4  -7   -3.40    5.00
   6   4  -7    0.90    5.20
   6   4  -7    1.10    5.60
  -6  -4   7   -3.10    5.80
  -6  -4   7    1.00    5.70
   5   4  -7   29.50    6.70
   5   4  -7   24.90    6.90
   5   4  -7   33.10    7.30
  -5  -4   7   40.60    8.80
  -5  -4   7   24.90    7.20
  -5  -4   7   36.30    8.80
   4   4  -7   75.99    9.40
   4   4  -7   80.39    8.60
   4   4  -7   74.79    9.40
  -4  -4   7  102.09   12.40
  -4  -4   7   86.19   11.50
  -4  -4   7   77.39    9.70
   3   4  -7   12.40    3.50
   3   4  -7   12.30    3.80
   3   4  -7   12.50    4.50
  -3  -4   7   15.60    5.90
  -3  -4   7    5.30    4.20
   2   4  -7   32.80    4.60
   2   4  -7   42.40    6.10
   2   4  -7   30.10    5.60
  -2  -4   7   35.70    4.60
  -2  -4   7   46.90    7.80
  -2  -4   7   49.30    7.60
   1   4  -7   10.10    2.80
   1   4  -7    6.10    3.30
   1   4  -7    5.20    3.10
  -1  -4   7   14.00    4.40
  -1  -4   7    9.00    2.80
  -1  -4   7    5.50    3.70
   0   4  -7  342.17   14.60
   0   4  -7  318.77   14.10
   0   4  -7  323.37   12.50
   0  -4   7  303.27   15.10
   0  -4   7  285.77   15.20
   0  -4   7  314.47   13.00
  -1   4  -7  653.93   21.10
  -1   4  -7  639.64   16.50
  -1   4  -7  676.13   23.00
  -1   4  -7  645.14   16.60
  -1   4  -7  683.53   23.40
   1  -4   7  624.84   23.50
   1  -4   7  695.93   25.30
   1  -4   7  627.84   21.90
  -2   4  -7   55.39    6.60
  -2   4  -7   57.09    6.60
  -2   4  -7   41.10    5.10
   2  -4   7   45.70    6.70
   2  -4   7   46.00    6.00
   2  -4   7   41.60    3.20
   2  -4   7   38.70    5.60
  -3   4  -7    2.30    2.50
  -3   4  -7    3.90    2.50
  -3   4  -7    4.40    2.80
   3  -4   7    6.50    3.10
   3  -4   7    6.50    3.70
   3  -4   7    1.80    1.80
   3  -4   7    1.20    2.40
  -4   4  -7   32.10    5.00
  -4   4  -7   17.70    4.40
  -4   4  -7   23.90    4.70
   4  -4   7   29.00    5.60
   4  -4   7   21.60    3.60
   4  -4   7   22.00    4.20
   4  -4   7   26.90    5.70
  -5   4  -7   77.89    7.80
  -5   4  -7   59.89    7.20
  -5   4  -7   68.89    8.60
   5  -4   7   67.79    8.70
   5  -4   7   53.29    8.30
   5  -4   7   59.09    7.00
  -6   4  -7  214.18   14.00
  -6   4  -7  194.68   12.70
  -6   4  -7  212.38   11.80
   6  -4   7  179.38   13.20
   6  -4   7  207.18   12.50
  -7   4  -7   99.29   11.70
  -7   4  -7   87.19   10.30
   7  -4   7   82.99   10.90
   7  -4   7   92.09   10.30
  -8   4  -7   -0.50    5.30
  -8   4  -7   -4.30    4.30
   8  -4   7   11.00    6.40
   8  -4   7    0.50    4.20
   7   3  -7    6.90    6.00
   7   3  -7   16.80    6.70
   7   3  -7    8.60    6.10
  -7  -3   7   14.00    7.70
  -7  -3   7    4.80    5.90
  -7  -3   7   14.30    8.80
   6   3  -7    5.60    4.60
   6   3  -7    5.50    5.20
   6   3  -7    4.80    4.90
  -6  -3   7   14.30    6.80
  -6  -3   7   16.50    7.00
   5   3  -7   93.59    9.90
   5   3  -7  101.79   10.50
   5   3  -7  102.49   10.70
  -5  -3   7  115.29    9.70
  -5  -3   7  120.39   13.30
  -5  -3   7  118.99   13.30
   4   3  -7   28.50    5.60
   4   3  -7   25.90    5.40
   4   3  -7   22.90    4.70
  -4  -3   7   29.20    6.60
  -4  -3   7   26.90    6.90
  -4  -3   7   29.10    6.00
   3   3  -7   71.49    7.80
   3   3  -7   66.29    7.10
   3   3  -7   57.69    7.10
  -3  -3   7   57.09    8.30
  -3  -3   7   75.79    8.60
  -3  -3   7   65.49    8.70
  -3  -3   7   58.79    4.40
   2   3  -7   23.90    4.20
   2   3  -7   30.90    5.00
   2   3  -7   23.00    4.70
  -2  -3   7   25.20    5.50
  -2  -3   7   25.30    3.40
  -2  -3   7   34.30    6.10
   1   3  -7   69.09    6.30
   1   3  -7   56.79    6.40
   1   3  -7   58.39    6.40
  -1  -3   7   67.39    8.00
  -1  -3   7   70.29    8.20
  -1  -3   7   62.39    4.60
   0   3  -7   57.29    6.20
   0   3  -7   49.70    5.10
   0   3  -7   55.49    5.90
   0  -3   7   47.30    4.90
   0  -3   7   44.10    6.20
   0  -3   7   57.29    7.10
  -1   3  -7  249.68   10.80
  -1   3  -7  230.88   10.70
  -1   3  -7  219.48    8.10
  -1   3  -7  229.28    7.40
  -1   3  -7  255.27   11.70
   1  -3   7  228.38   11.60
   1  -3   7  212.78   10.30
   1  -3   7  237.18   12.60
   1  -3   7  233.88    7.90
  -2   3  -7   42.60    5.00
  -2   3  -7   50.29    5.90
  -2   3  -7   33.10    4.60
  -2   3  -7   36.30    3.50
   2  -3   7   30.30    3.50
   2  -3   7   31.30    4.70
   2  -3   7   38.40    6.10
   2  -3   7   35.90    5.20
  -3   3  -7    8.30    2.60
  -3   3  -7   15.10    3.90
  -3   3  -7   17.80    4.10
   3  -3   7    9.40    3.80
   3  -3   7    1.80    2.40
   3  -3   7    4.20    2.00
   3  -3   7    9.70    3.40
  -4   3  -7   52.99    6.50
  -4   3  -7   58.19    7.20
  -4   3  -7   67.19    6.20
   4  -3   7   56.09    6.20
   4  -3   7   60.49    5.20
   4  -3   7   53.19    7.60
   4  -3   7   57.29    7.70
  -5   3  -7   59.39    8.00
  -5   3  -7   48.10    6.80
  -5   3  -7   68.79    6.90
   5  -3   7   47.90    7.50
   5  -3   7   51.69    7.60
   5  -3   7   66.69    7.60
  -6   3  -7   65.09    8.60
  -6   3  -7   68.39    9.00
   6  -3   7   69.79    8.50
   6  -3   7   90.69   10.80
   6  -3   7   83.39   10.40
  -7   3  -7   38.20    7.60
  -7   3  -7   31.90    7.60
   7  -3   7   33.10    7.20
   7  -3   7   31.40    7.40
  -8   3  -7    9.20    5.80
  -8   3  -7    2.80    5.90
   8  -3   7    5.70    6.30
   8  -3   7    6.30    5.10
   7   2  -7    8.50    5.40
   7   2  -7    7.00    5.80
  -7  -2   7    3.70    7.20
  -7  -2   7    3.20    6.20
  -7  -2   7    4.00    5.80
   6   2  -7    9.80    4.50
   6   2  -7   10.20    4.90
   6   2  -7    5.90    4.50
  -6  -2   7   29.30    7.30
  -6  -2   7   14.20    6.10
   5   2  -7   41.60    6.60
   5   2  -7   36.40    6.30
   5   2  -7   39.60    6.50
  -5  -2   7   45.50    8.10
  -5  -2   7   43.90    6.30
  -5  -2   7   34.40    7.40
   4   2  -7   91.69    7.70
   4   2  -7   77.09    8.00
   4   2  -7   85.19    8.50
  -4  -2   7   98.69   10.50
  -4  -2   7  101.59   10.80
  -4  -2   7   97.29    9.20
   3   2  -7  130.59    8.50
   3   2  -7   92.49    7.30
   3   2  -7  113.19    5.10
   3   2  -7  122.69    8.40
  -3  -2   7  112.79    9.30
  -3  -2   7  107.39    8.20
  -3  -2   7  104.29    8.20
  -3  -2   7  108.99    4.70
   2   2  -7    6.90    2.80
   2   2  -7    5.50    2.40
   2   2  -7    7.50    2.80
   2   2  -7   11.70    1.30
  -2  -2   7   10.00    1.90
  -2  -2   7    9.30    3.40
  -2  -2   7   10.10    3.70
  -2  -2   7    9.40    1.20
   1   2  -7   53.09    5.60
   1   2  -7   44.80    2.20
   1   2  -7   40.40    5.10
   1   2  -7   48.10    2.10
   1   2  -7   48.70    5.30
  -1  -2   7   48.40    3.60
  -1  -2   7   55.49    6.80
  -1  -2   7   53.29    6.70
   0   2  -7   63.79    4.80
   0   2  -7   72.19    5.70
   0   2  -7   65.69    3.10
   0   2  -7   72.29    3.50
   0   2  -7   71.19    5.60
   0  -2   7   57.59    6.90
   0  -2   7   63.89    4.60
   0  -2   7   75.89    7.50
  -1   2  -7   47.70    5.30
  -1   2  -7   48.70    3.30
  -1   2  -7   57.99    6.10
  -1   2  -7   56.99    4.20
   1  -2   7   62.19    6.70
   1  -2   7   58.29    3.90
   1  -2   7   61.19    6.00
   1  -2   7   47.10    6.30
  -2   2  -7  289.67   12.80
  -2   2  -7  307.87   13.10
  -2   2  -7  282.17   10.70
  -2   2  -7  271.47   10.30
   2  -2   7  251.27   11.40
   2  -2   7  286.67   14.20
   2  -2   7  279.07   12.60
   2  -2   7  281.77   11.30
  -3   2  -7   31.70    4.20
  -3   2  -7   31.50    5.10
  -3   2  -7   29.00    5.10
  -3   2  -7   31.80    3.60
   3  -2   7   33.90    4.50
   3  -2   7   32.40    5.80
   3  -2   7   20.90    5.00
   3  -2   7   29.90    4.10
  -4   2  -7  150.08    7.50
  -4   2  -7  166.88   10.40
  -4   2  -7  156.28   10.20
   4  -2   7  151.88   10.50
   4  -2   7  148.69    9.40
   4  -2   7  149.69   10.90
  -5   2  -7   -3.20    2.80
  -5   2  -7    8.00    4.20
   5  -2   7   -0.50    3.20
   5  -2   7   -0.30    2.80
   5  -2   7    3.50    3.80
  -6   2  -7   -2.10    3.40
  -6   2  -7    0.10    3.60
   6  -2   7   -3.90    5.20
   6  -2   7   -1.40    3.80
   6  -2   7    2.20    3.60
  -7   2  -7   24.70    6.70
  -7   2  -7   21.50    6.70
   7  -2   7   27.70    7.10
   7  -2   7   21.60    7.10
  -8   2  -7   14.50    6.10
  -8   2  -7   13.60    7.40
  -8   2  -7   17.80    6.10
   8  -2   7   10.20    6.10
   8  -2   7   30.90    9.20
   8   1  -7   -3.40    4.90
   8   1  -7    6.70    6.40
  -8  -1   7   -5.00    5.00
  -8  -1   7   -6.10    6.30
  -8  -1   7    7.10    6.30
   7   1  -7   -3.00    3.90
   7   1  -7    3.00    4.00
  -7  -1   7   -1.00    4.20
  -7  -1   7    2.60    4.60
  -7  -1   7   -1.50    4.60
   6   1  -7   -2.10    2.40
   6   1  -7   -0.60    3.00
   6   1  -7    3.10    3.50
  -6  -1   7    0.20    2.90
  -6  -1   7    2.50    4.00
   5   1  -7   40.10    4.80
   5   1  -7   36.50    6.20
   5   1  -7   38.20    5.80
   5   1  -7   56.39    7.50
  -5  -1   7   30.80    6.50
  -5  -1   7   50.09    6.50
  -5  -1   7   49.50    8.10
   4   1  -7  367.96   16.00
   4   1  -7  363.06   12.90
   4   1  -7  351.46   16.10
   4   1  -7  373.76   15.70
  -4  -1   7  352.86   15.30
  -4  -1   7  346.27   16.90
  -4  -1   7  352.46   17.60
   3   1  -7   21.60    4.10
   3   1  -7   31.40    4.80
   3   1  -7   25.90    2.80
   3   1  -7   24.90    4.10
  -3  -1   7   25.60    5.30
  -3  -1   7   34.80    5.40
  -3  -1   7   22.30    4.50
   2   1  -7  113.39    7.30
   2   1  -7  109.59    4.50
   2   1  -7  123.19    7.10
   2   1  -7  113.99    7.20
   2   1  -7  112.89    4.90
  -2  -1   7  116.59    7.70
  -2  -1   7  112.19    7.90
  -2  -1   7  116.89    8.60
  -2  -1   7  107.09    4.40
   1   1  -7    5.30    2.10
   1   1  -7    9.90    2.70
   1   1  -7    5.40    2.40
   1   1  -7    7.70    1.70
  -1  -1   7    9.80    2.00
  -1  -1   7    2.50    2.60
  -1  -1   7    7.50    3.10
   0   1  -7   58.79    6.10
   0   1  -7   57.09    3.60
   0   1  -7   55.49    3.90
   0   1  -7   63.09    6.00
   0  -1   7   60.79    6.90
   0  -1   7   57.69    6.50
   0  -1   7   55.79    5.20
  -1   1  -7  207.78    7.90
  -1   1  -7  199.58   10.20
  -1   1  -7  210.08    8.30
  -1   1  -7  197.78    9.70
   1  -1   7  207.08    9.80
   1  -1   7  199.78   11.30
   1  -1   7  210.38   10.30
  -2   1  -7  277.17   11.00
  -2   1  -7  280.77   12.90
  -2   1  -7  277.07    9.40
  -2   1  -7  286.07   12.40
   2  -1   7  276.87   12.00
   2  -1   7  284.67   14.40
   2  -1   7  271.47   12.90
   2  -1   7  272.37   11.90
  -3   1  -7   15.40    4.00
  -3   1  -7   24.40    3.90
  -3   1  -7   20.70    4.30
  -3   1  -7   20.30    2.50
   3  -1   7   18.60    3.90
   3  -1   7   14.30    4.30
   3  -1   7   18.40    3.30
   3  -1   7   13.90    4.20
  -4   1  -7   25.70    4.40
  -4   1  -7   32.30    5.90
  -4   1  -7   20.70    4.60
   4  -1   7   22.70    5.70
   4  -1   7   24.40    4.90
   4  -1   7    8.30    4.20
  -5   1  -7    8.70    4.10
  -5   1  -7    4.10    3.70
  -5   1  -7    0.40    2.50
   5  -1   7    0.20    2.90
   5  -1   7    0.00    3.50
   5  -1   7   -3.00    4.50
  -6   1  -7   52.29    8.00
  -6   1  -7   40.80    7.50
  -6   1  -7   57.59    7.80
   6  -1   7   46.50    8.40
   6  -1   7   54.29    8.60
   6  -1   7   56.69    8.60
  -7   1  -7    5.30    4.90
  -7   1  -7   -6.70    3.20
  -7   1  -7   -3.10    4.40
   7  -1   7   -5.40    4.20
   7  -1   7   -5.20    5.70
   8   0  -7    1.90    5.20
   8   0  -7    1.70    4.60
   8   0  -7   -1.30    4.20
  -8   0   7    3.90    4.90
  -8   0   7    0.90    5.40
  -8   0   7    0.60    3.80
   7   0  -7   -0.40    3.50
   7   0  -7    3.50    3.10
   7   0  -7    5.70    4.40
  -7   0   7    1.80    4.40
  -7   0   7    5.10    4.80
  -7   0   7    5.20    4.50
   6   0  -7   14.60    5.10
   6   0  -7   19.50    4.30
   6   0  -7   10.40    4.40
  -6   0   7   16.40    5.30
  -6   0   7   25.60    6.60
   5   0  -7   76.49    8.10
   5   0  -7   78.39    5.90
   5   0  -7   93.49    9.30
  -5   0   7   62.69    6.30
  -5   0   7   60.89    8.40
  -5   0   7   76.49    9.20
   4   0  -7   76.19    7.50
   4   0  -7   71.79    7.00
   4   0  -7   78.59    5.20
   4   0  -7   80.69    8.00
  -4   0   7   78.89    8.60
  -4   0   7   68.49    8.50
  -4   0   7   74.59    6.20
   3   0  -7   87.19    6.20
   3   0  -7   88.59    5.10
   3   0  -7   91.49    7.10
   3   0  -7   91.39    6.60
  -3   0   7   83.99    6.60
  -3   0   7   93.39    8.70
  -3   0   7   86.49    9.20
   2   0  -7   11.80    2.70
   2   0  -7   12.20    2.70
   2   0  -7    8.40    1.90
   2   0  -7    9.10    1.70
   2   0  -7    9.10    2.70
  -2   0   7   10.90    3.50
  -2   0   7    8.00    2.90
  -2   0   7    8.50    1.60
  -2   0   7    7.50    2.80
   1   0  -7  687.93   22.20
   1   0  -7  743.83   23.80
   1   0  -7  699.73   20.90
   1   0  -7  716.13   20.70
  -1   0   7  716.33   21.00
  -1   0   7  678.03   21.90
  -1   0   7  708.13   24.90
  -1   0   7  728.93   24.80
   0   0  -7  448.06   17.00
   0   0  -7  452.85   15.70
   0   0  -7  428.16   13.40
   0   0  -7  426.36   14.40
   0   0   7  432.46   18.10
   0   0   7  457.95   15.80
   0   0   7  466.35   14.50
   0   0   7  456.45   17.70
  -1   0  -7   67.39    5.20
  -1   0  -7   60.69    6.20
  -1   0  -7   58.19    4.80
  -1   0  -7   61.39    3.00
   1   0   7   61.99    6.60
   1   0   7   61.79    3.40
   1   0   7   63.89    7.50
   1   0   7   58.09    3.20
   1   0   7   55.89    6.20
  -2   0  -7    2.30    2.70
  -2   0  -7    8.30    0.80
  -2   0  -7    8.90    3.00
  -2   0  -7    5.90    2.50
   2   0   7    7.10    1.00
   2   0   7    9.40    3.60
   2   0   7    4.50    3.10
   2   0   7    6.20    2.70
   2   0   7    7.70    2.80
  -3   0  -7    8.10    2.90
  -3   0  -7    7.40    3.20
  -3   0  -7    5.30    3.30
   3   0   7    3.70    2.20
   3   0   7    2.20    3.70
   3   0   7    6.50    3.40
   3   0   7    3.10    2.50
  -4   0  -7   19.50    4.50
  -4   0  -7   19.80    4.20
   4   0   7   15.00    5.20
   4   0   7   12.40    4.60
   4   0   7   14.10    3.90
  -5   0  -7  125.49   11.50
  -5   0  -7  125.69    9.60
  -5   0  -7  104.69   10.90
   5   0   7  124.19   12.30
   5   0   7  128.39   12.20
   5   0   7  121.19   12.20
  -6   0  -7   41.60    7.80
  -6   0  -7   68.09    8.80
  -6   0  -7   52.89    8.80
   6   0   7   50.09    9.00
   6   0   7   41.20    7.90
   6   0   7   38.60    8.60
  -7   0  -7   -0.50    4.30
  -7   0  -7    0.50    4.80
  -7   0  -7   -0.40    4.60
   7   0   7    1.00    5.60
   7   0   7   -1.50    4.70
   9  -1  -7   23.90    7.80
   9  -1  -7   28.70    8.10
   9  -1  -7   22.70    6.50
  -9   1   7   15.10    7.70
  -9   1   7   16.20    7.20
  -9   1   7    8.90    9.30
   8  -1  -7   -3.80    4.00
   8  -1  -7    7.90    4.80
   8  -1  -7    5.10    4.90
  -8   1   7    0.20    6.40
  -8   1   7   -7.80    4.40
  -8   1   7   -1.10    3.60
   7  -1  -7   17.60    5.30
   7  -1  -7   27.60    6.10
   7  -1  -7   20.80    4.90
  -7   1   7   22.10    6.10
  -7   1   7   21.90    6.30
  -7   1   7   17.90    5.60
   6  -1  -7  122.19   10.00
   6  -1  -7  125.89    9.70
   6  -1  -7  159.08    9.50
  -6   1   7  121.69   12.30
  -6   1   7  124.19   12.30
   5  -1  -7   10.10    3.70
   5  -1  -7   12.60    3.80
   5  -1  -7    7.70    2.60
  -5   1   7    9.80    2.90
  -5   1   7   12.40    4.60
  -5   1   7   11.00    4.20
   4  -1  -7   96.69    6.80
   4  -1  -7   92.19    7.20
   4  -1  -7   89.39    5.80
  -4   1   7   84.79    9.10
  -4   1   7   68.89    6.00
  -4   1   7   85.29    8.60
   3  -1  -7  277.47    8.00
   3  -1  -7  269.57   12.60
   3  -1  -7  296.37   11.20
   3  -1  -7  276.87   11.90
  -3   1   7  254.07   12.10
  -3   1   7  261.67   14.10
  -3   1   7  293.67   13.00
   2  -1  -7   16.90    3.50
   2  -1  -7   18.30    3.00
   2  -1  -7   26.10    3.70
  -2   1   7   12.10    3.70
  -2   1   7   13.90    2.20
  -2   1   7   15.90    3.30
  -2   1   7   16.80    3.80
   1  -1  -7  557.24   20.20
   1  -1  -7  585.14   18.30
   1  -1  -7  562.04   18.20
  -1   1   7  572.74   21.30
  -1   1   7  561.14   18.10
  -1   1   7  550.94   21.50
  -1   1   7  586.44   18.00
   0  -1  -7  207.28   10.60
   0  -1  -7  173.28    8.10
   0  -1  -7  182.88    8.50
   0   1   7  180.58    6.30
   0   1   7  180.08   10.40
   0   1   7  181.78    6.70
   0   1   7  180.48    9.10
   0   1   7  176.48   10.70
  -1  -1  -7   -0.30    1.80
  -1  -1  -7    0.40    1.60
  -1  -1  -7    0.30    2.30
   1   1   7   -0.10    2.50
   1   1   7    0.10    2.40
   1   1   7   -2.50    1.90
  -2  -1  -7    5.00    2.90
  -2  -1  -7   -1.00    1.80
  -2  -1  -7    2.60    2.20
   2   1   7   -1.70    2.40
   2   1   7   -0.10    2.40
   2   1   7   -1.20    1.90
   2   1   7    0.20    3.10
  -3  -1  -7   21.20    4.80
  -3  -1  -7   33.90    5.00
  -3  -1  -7   30.60    5.00
   3   1   7   21.40    4.00
   3   1   7   22.10    6.00
   3   1   7   33.80    5.70
   3   1   7   31.60    6.00
  -4  -1  -7   40.50    6.90
  -4  -1  -7   37.40    5.80
  -4  -1  -7   37.50    6.10
   4   1   7   47.50    8.50
   4   1   7   27.40    6.00
   4   1   7   35.40    7.20
  -5  -1  -7  181.48   12.00
  -5  -1  -7  197.28   14.50
  -5  -1  -7  148.89   11.20
   5   1   7  202.48   14.30
   5   1   7  151.68   14.80
   5   1   7  201.08   14.30
  -6  -1  -7    8.60    5.50
  -6  -1  -7   13.20    5.10
  -6  -1  -7    9.10    5.70
   6   1   7   10.70    6.10
   6   1   7   18.30    8.40
   6   1   7   15.00    7.60
   9  -2  -7   65.19   10.40
   9  -2  -7   44.30    8.60
   9  -2  -7   41.40    8.30
  -9   2   7   48.00    9.30
  -9   2   7   34.00    8.60
  -9   2   7   41.40    9.40
   8  -2  -7   -1.70    3.50
   8  -2  -7    4.40    4.50
   8  -2  -7    3.10    4.50
  -8   2   7    2.80    4.90
  -8   2   7    3.20    5.00
  -8   2   7   -1.40    4.10
   7  -2  -7   69.29    8.50
   7  -2  -7   95.49   10.70
   7  -2  -7   84.19    8.40
  -7   2   7   67.79    9.30
  -7   2   7   62.39    9.20
  -7   2   7   77.49    9.70
   6  -2  -7  149.88   10.00
   6  -2  -7  149.19    9.20
   6  -2  -7  167.08   11.20
  -6   2   7  144.79   10.50
  -6   2   7  146.39   11.20
  -6   2   7  106.09   11.40
   5  -2  -7   18.40    4.40
   5  -2  -7   17.70    3.60
   5  -2  -7   11.10    3.50
  -5   2   7   12.80    4.40
  -5   2   7    8.50    3.90
  -5   2   7    8.20    2.60
   4  -2  -7    3.20    1.80
   4  -2  -7    2.80    2.20
   4  -2  -7    4.90    2.50
   4  -2  -7    5.60    1.50
   4  -2  -7    2.60    2.10
  -4   2   7    1.50    2.60
  -4   2   7    4.00    3.00
  -4   2   7    3.20    2.10
   3  -2  -7   77.69    5.40
   3  -2  -7   81.79    6.00
   3  -2  -7   71.79    6.30
   3  -2  -7   85.69    4.40
  -3   2   7   81.59    9.00
  -3   2   7   84.69    6.50
  -3   2   7   83.29    6.50
   2  -2  -7   59.29    4.30
   2  -2  -7   55.09    4.10
   2  -2  -7   61.69    6.50
   2  -2  -7   63.49    5.80
  -2   2   7   56.29    4.40
  -2   2   7   56.29    7.20
  -2   2   7   72.89    7.50
  -2   2   7   61.89    5.80
   1  -2  -7  270.67   12.60
   1  -2  -7  253.57   11.10
   1  -2  -7  266.97   10.00
  -1   2   7  250.47   13.40
  -1   2   7  266.97   13.40
  -1   2   7  277.97   11.50
  -1   2   7  280.07    9.90
   0  -2  -7  367.36   12.70
   0  -2  -7  366.06   14.20
   0  -2  -7  385.36   15.90
   0   2   7  354.26   10.00
   0   2   7  364.46    9.90
   0   2   7  362.56   15.10
   0   2   7  374.86   17.00
   0   2   7  375.86   16.50
  -1  -2  -7  141.59    7.30
  -1  -2  -7  128.39    9.10
  -1  -2  -7  157.08    8.80
   1   2   7  147.09   10.40
   1   2   7  150.78    9.50
   1   2   7  135.59    9.10
  -2  -2  -7   -0.20    1.80
  -2  -2  -7   -2.00    2.60
  -2  -2  -7    2.10    2.20
   2   2   7    0.10    2.90
   2   2   7   -0.60    2.90
   2   2   7    2.00    3.10
  -3  -2  -7   51.19    7.30
  -3  -2  -7   56.89    6.30
  -3  -2  -7   62.99    7.30
   3   2   7   58.19    6.30
   3   2   7   56.39    8.30
   3   2   7   56.39    8.00
   3   2   7   62.19    8.30
  -4  -2  -7   22.00    5.40
  -4  -2  -7   15.30    3.90
  -4  -2  -7   17.60    5.40
   4   2   7   11.10    6.60
   4   2   7   15.60    5.90
   4   2   7   11.00    5.20
  -5  -2  -7    5.50    4.40
  -5  -2  -7    1.50    5.20
   5   2   7    8.50    5.90
   5   2   7   12.50    5.50
   5   2   7    3.20    4.80
  -6  -2  -7   21.10    6.70
  -6  -2  -7   28.90    7.40
   6   2   7   42.00    9.00
   6   2   7   12.80    7.30
   9  -3  -7    1.50    4.80
   9  -3  -7    2.50    5.00
   9  -3  -7   -3.60    4.00
  -9   3   7    1.40    5.10
  -9   3   7    3.00    5.30
  -9   3   7   -1.30    6.60
   8  -3  -7    1.80    4.40
   8  -3  -7   -0.50    3.90
   8  -3  -7    1.60    3.20
  -8   3   7    2.50    4.20
  -8   3   7   -2.70    4.10
  -8   3   7   -0.30    4.20
   7  -3  -7   33.40    6.00
   7  -3  -7   28.60    6.40
   7  -3  -7   26.90    5.20
  -7   3   7   33.40    6.80
  -7   3   7   30.60    6.60
  -7   3   7   35.80    7.50
   6  -3  -7   90.19    7.40
   6  -3  -7   68.49    7.60
   6  -3  -7  106.49   10.30
  -6   3   7   88.09    8.90
  -6   3   7   87.39   10.40
  -6   3   7   81.69    9.40
   5  -3  -7  129.69    6.20
   5  -3  -7  124.29    8.30
   5  -3  -7  135.59    8.60
   5  -3  -7  115.29    8.80
  -5   3   7  125.09   10.70
  -5   3   7  139.59    8.10
  -5   3   7  148.89   10.20
   4  -3  -7   12.20    2.90
   4  -3  -7   14.00    3.90
   4  -3  -7    8.80    2.60
   4  -3  -7    7.40    2.90
  -4   3   7   11.40    3.60
  -4   3   7   11.00    4.20
  -4   3   7   12.90    3.80
   3  -3  -7   16.60    3.30
   3  -3  -7   16.40    2.80
   3  -3  -7   10.30    3.20
   3  -3  -7   13.60    3.50
  -3   3   7   13.70    3.60
  -3   3   7   10.60    3.90
  -3   3   7    6.90    2.80
   2  -3  -7    1.00    2.00
   2  -3  -7    1.40    2.20
   2  -3  -7    0.00    2.00
   2  -3  -7   -0.10    1.20
  -2   3   7    1.40    2.10
  -2   3   7    3.00    2.90
  -2   3   7    0.90    2.00
  -2   3   7    0.40    2.70
   1  -3  -7  135.99    7.80
   1  -3  -7  131.29    8.80
   1  -3  -7  135.29    6.00
   1  -3  -7  132.59    8.30
  -1   3   7  149.49   10.10
  -1   3   7  150.98    6.40
  -1   3   7  121.29    9.50
  -1   3   7  134.09    8.30
   0  -3  -7  256.37   12.00
   0  -3  -7  238.98   11.60
   0  -3  -7  215.18   12.10
   0  -3  -7  244.98    9.00
   0   3   7  254.27   14.00
   0   3   7  245.58   13.50
   0   3   7  247.58   12.70
  -1  -3  -7   94.89    5.80
  -1  -3  -7  103.09    8.60
  -1  -3  -7  104.99    8.00
   1   3   7  113.49    9.40
   1   3   7  105.69    8.70
   1   3   7  112.99    9.60
  -2  -3  -7   63.59    7.30
  -2  -3  -7   61.09    7.60
   2   3   7   57.99    8.10
   2   3   7   63.19    8.80
   2   3   7   57.69    7.20
  -3  -3  -7   11.10    4.10
  -3  -3  -7   10.70    4.50
   3   3   7    9.80    5.10
   3   3   7    8.80    5.10
   3   3   7    8.30    5.40
  -4  -3  -7    3.40    4.50
  -4  -3  -7    1.40    3.70
   4   3   7    0.20    4.60
   4   3   7    6.80    5.40
  -5  -3  -7   16.80    5.70
  -5  -3  -7   12.10    6.10
   5   3   7    3.10    8.00
   5   3   7    6.30    7.10
   9  -4  -7   -0.50    4.50
   9  -4  -7   -0.20    3.70
   9  -4  -7   -3.40    4.20
  -9   4   7    1.20    5.00
  -9   4   7    3.80    5.60
  -9   4   7    0.20    3.30
   8  -4  -7    0.90    4.00
   8  -4  -7    3.60    4.20
   8  -4  -7   -1.90    3.00
  -8   4   7    1.10    4.20
  -8   4   7    3.80    5.10
  -8   4   7   -0.80    4.30
   7  -4  -7    3.00    3.50
   7  -4  -7   -0.70    2.90
   7  -4  -7    1.10    3.10
  -7   4   7   -3.20    4.60
  -7   4   7   -0.90    3.40
  -7   4   7   -0.10    4.00
   6  -4  -7  130.49    8.80
   6  -4  -7  116.09    8.90
   6  -4  -7  134.39   10.00
  -6   4   7  108.99   11.80
  -6   4   7  152.88    9.90
   5  -4  -7  100.89    6.80
   5  -4  -7   97.99    7.70
   5  -4  -7   89.19    7.90
   5  -4  -7   85.59    6.00
  -5   4   7   91.09    6.90
  -5   4   7   80.99   10.00
  -5   4   7   84.59    6.90
  -5   4   7   96.09    9.70
   4  -4  -7    1.30    2.40
   4  -4  -7    1.30    2.60
   4  -4  -7   -0.20    2.00
   4  -4  -7    0.20    2.10
  -4   4   7    0.60    2.70
  -4   4   7   -1.00    1.80
  -4   4   7   -0.50    2.60
   3  -4  -7   40.30    5.60
   3  -4  -7   32.40    4.60
   3  -4  -7   25.30    4.60
   3  -4  -7   23.50    3.00
  -3   4   7   30.00    5.00
  -3   4   7   25.10    5.70
  -3   4   7   25.00    4.90
   2  -4  -7    8.30    1.80
   2  -4  -7   14.20    3.70
   2  -4  -7   12.80    3.70
   2  -4  -7   14.90    3.90
  -2   4   7    5.00    3.40
  -2   4   7   10.10    3.90
  -2   4   7   10.40    3.10
  -2   4   7   10.40    3.40
   1  -4  -7  109.19    7.80
   1  -4  -7  112.39    8.60
   1  -4  -7  114.59    8.00
  -1   4   7  112.69    5.90
  -1   4   7  118.79    8.50
  -1   4   7  128.39   10.50
  -1   4   7  109.59   10.90
   0  -4  -7   45.50    6.30
   0  -4  -7   47.30    6.20
   0  -4  -7   39.20    6.10
   0   4   7   47.00    7.60
   0   4   7   46.40    6.70
   0   4   7   46.10    7.20
  -1  -4  -7    2.90    3.50
  -1  -4  -7    1.40    2.80
  -1  -4  -7   -0.20    2.60
   1   4   7   -0.60    3.30
   1   4   7    3.80    4.10
   1   4   7    6.30    4.30
  -2  -4  -7   -0.40    3.30
  -2  -4  -7    4.80    3.80
  -2  -4  -7   -5.10    3.50
   2   4   7   -5.50    4.60
   2   4   7    1.40    3.70
   2   4   7   -2.30    4.00
  -3  -4  -7    9.50    4.60
  -3  -4  -7   18.00    5.40
  -3  -4  -7    4.60    4.30
   3   4   7    3.40    6.50
   3   4   7    2.70    5.00
  -4  -4  -7   33.10    7.60
  -4  -4  -7   41.50    8.00
  -4  -4  -7   25.70    7.20
   4   4   7   45.90   10.80
   4   4   7   36.50    8.00
   9  -5  -7   -2.00    4.10
   9  -5  -7   -1.70    3.80
  -9   5   7   -0.10    5.30
  -9   5   7   -2.90    5.80
  -9   5   7    4.90    5.70
   8  -5  -7    4.80    4.60
   8  -5  -7   -5.90    3.50
   8  -5  -7    1.60    3.40
  -8   5   7   -2.50    3.80
  -8   5   7    5.20    5.40
  -8   5   7    6.40    5.30
   7  -5  -7    3.30    3.30
   7  -5  -7    1.20    2.50
   7  -5  -7   -2.10    2.70
  -7   5   7   -1.30    3.10
  -7   5   7   -2.40    3.90
  -7   5   7   -0.10    4.40
   6  -5  -7    3.40    3.00
   6  -5  -7   -0.80    2.80
   6  -5  -7    3.20    2.70
  -6   5   7   -0.20    3.80
  -6   5   7    1.10    4.20
  -6   5   7    2.60    2.80
   5  -5  -7  102.89    9.60
   5  -5  -7   76.39    7.60
   5  -5  -7   88.49    8.90
  -5   5   7   85.49   10.60
  -5   5   7   65.59    7.10
  -5   5   7   66.39    8.40
  -5   5   7   88.39    6.70
   4  -5  -7   46.60    6.30
   4  -5  -7   44.50    6.10
   4  -5  -7   41.20    6.20
  -4   5   7   42.10    7.60
  -4   5   7   53.79    6.80
  -4   5   7   40.90    6.10
   3  -5  -7   -0.90    2.40
   3  -5  -7    2.10    3.00
   3  -5  -7    0.70    3.40
  -3   5   7   -1.40    3.10
  -3   5   7   -0.70    2.60
  -3   5   7    3.80    3.30
   2  -5  -7   87.89    7.70
   2  -5  -7   88.69    8.60
   2  -5  -7   98.39    8.10
  -2   5   7   88.09   10.50
  -2   5   7   96.79    9.40
  -2   5   7   85.49    9.40
  -2   5   7   99.39    7.00
   1  -5  -7    2.70    3.80
   1  -5  -7   -0.20    3.50
   1  -5  -7   -0.10    2.80
  -1   5   7    3.40    3.60
  -1   5   7    5.50    4.50
  -1   5   7    2.50    3.20
   0  -5  -7    3.80    3.50
   0  -5  -7   -0.20    3.10
   0  -5  -7    1.60    3.30
   0   5   7    1.00    3.90
   0   5   7    3.30    4.70
   0   5   7    2.20    3.80
  -1  -5  -7    9.70    4.60
  -1  -5  -7   10.00    4.70
  -1  -5  -7    4.10    3.80
   1   5   7    3.40    4.50
   1   5   7    7.80    5.00
   1   5   7   13.70    6.60
  -2  -5  -7   -0.80    5.20
  -2  -5  -7   -3.20    3.50
  -2  -5  -7   -3.10    3.40
   2   5   7   -1.50    4.30
   2   5   7   -1.50    4.80
   2   5   7   -6.20    4.40
  -3  -5  -7   37.50    7.30
  -3  -5  -7   26.90    7.00
  -3  -5  -7   33.90    6.60
   3   5   7   21.50    7.80
   3   5   7   25.40    7.30
   9  -6  -7    0.80    4.30
   9  -6  -7    3.90    4.90
  -9   6   7   -5.50    4.50
  -9   6   7   -3.20    4.90
  -9   6   7    6.80    7.30
   8  -6  -7   12.60    4.70
   8  -6  -7   11.20    5.00
  -8   6   7    8.70    5.80
  -8   6   7   13.10    6.20
   7  -6  -7    0.00    3.40
   7  -6  -7    4.40    3.60
  -7   6   7    4.10    4.30
  -7   6   7   -0.90    4.90
   6  -6  -7    0.20    3.20
   6  -6  -7   -1.90    3.40
   6  -6  -7    3.60    3.30
  -6   6   7   -2.90    4.30
  -6   6   7    4.30    4.20
   5  -6  -7   40.00    6.30
   5  -6  -7   50.59    7.20
   5  -6  -7   43.40    6.40
  -5   6   7   46.80    6.20
  -5   6   7   42.50    6.90
  -5   6   7   49.70    8.80
   4  -6  -7   17.00    4.40
   4  -6  -7   15.50    4.90
   4  -6  -7   15.10    4.70
  -4   6   7   17.20    5.80
  -4   6   7   17.00    4.80
  -4   6   7   22.60    5.30
   3  -6  -7   23.70    4.90
   3  -6  -7   23.00    5.10
   3  -6  -7   29.80    6.10
  -3   6   7   23.30    6.30
  -3   6   7   29.30    5.60
  -3   6   7   36.10    7.50
   2  -6  -7   35.30    6.40
   2  -6  -7   31.20    6.30
   2  -6  -7   58.49    7.30
  -2   6   7   31.40    6.70
  -2   6   7   52.39    9.00
   1  -6  -7   12.80    4.80
   1  -6  -7   13.10    4.50
   1  -6  -7   17.10    5.10
  -1   6   7    9.90    5.00
  -1   6   7   18.90    6.60
  -1   6   7   20.80    6.10
   0  -6  -7   12.80    5.60
   0  -6  -7   13.80    5.40
   0  -6  -7   17.50    5.60
   0   6   7   16.50    6.40
   0   6   7    9.20    5.20
   0   6   7   10.90    5.90
  -1  -6  -7    1.60    4.60
  -1  -6  -7    5.60    5.40
  -1  -6  -7    0.80    4.10
   1   6   7    9.30    6.10
   1   6   7    9.90    5.80
   1   6   7    4.30    5.80
  -2  -6  -7   -5.80    5.20
  -2  -6  -7    4.20    4.80
  -2  -6  -7   -0.90    4.50
   2   6   7    2.00    5.90
   2   6   7    2.90    7.00
   2   6   7   -3.30    5.50
   9  -7  -7    1.60    4.70
   9  -7  -7   -5.20    4.50
  -9   7   7    1.70    6.10
  -9   7   7   -1.80    6.40
   8  -7  -7   38.40    6.80
   8  -7  -7   40.60    7.50
  -8   7   7   31.70    8.30
  -8   7   7   24.50    9.20
   7  -7  -7   36.30    6.60
   7  -7  -7   45.60    7.50
  -7   7   7   31.90    7.60
  -7   7   7   33.40    8.50
   6  -7  -7   17.10    4.70
   6  -7  -7   31.10    5.80
   6  -7  -7   23.90    5.70
  -6   7   7   14.40    6.10
  -6   7   7   10.80    6.10
   5  -7  -7   11.20    5.30
   5  -7  -7    7.30    3.70
   5  -7  -7    9.90    4.20
  -5   7   7    7.10    4.70
  -5   7   7    8.20    4.90
  -5   7   7    6.80    5.60
   4  -7  -7    2.80    3.60
   4  -7  -7   -1.50    3.40
   4  -7  -7   -0.90    3.30
  -4   7   7    3.30    4.70
  -4   7   7    6.90    4.60
  -4   7   7   -0.30    3.50
   3  -7  -7    5.00    3.30
   3  -7  -7   -0.40    3.90
   3  -7  -7    0.00    3.70
  -3   7   7    6.40    5.40
  -3   7   7   -1.90    4.10
   2  -7  -7    8.60    4.70
   2  -7  -7    5.30    4.60
  -2   7   7    1.50    5.00
  -2   7   7    2.30    4.40
   1  -7  -7   63.29    9.00
   1  -7  -7   49.99    8.10
  -1   7   7   46.10    8.70
  -1   7   7   49.90   10.00
   0  -7  -7   20.80    6.20
   0  -7  -7   18.70    7.50
   0   7   7   23.50    8.10
   0   7   7   43.50    9.50
   0   7   7   20.60    7.20
   8  -8  -7   28.30    7.20
  -8   8   7   19.20    8.00
  -8   8   7   20.20    8.70
   7  -8  -7   64.89    9.20
  -7   8   7   70.19   12.00
   6  -8  -7    6.30    6.00
   6  -8  -7    6.90    4.70
  -6   8   7    8.30    6.00
  -6   8   7    3.90    6.50
   5  -8  -7    6.00    5.80
   5  -8  -7   11.20    5.20
  -5   8   7    7.20    5.40
  -5   8   7   10.40    5.10
  -5   8   7    7.90    6.50
   4  -8  -7   -3.10    4.10
   4  -8  -7    4.70    5.00
  -4   8   7    3.00    5.00
  -4   8   7    5.90    5.70
   3  -8  -7    0.50    4.50
   3  -8  -7    1.10    4.90
  -3   8   7    8.50    6.50
  -3   8   7    3.80    5.30
   2  -8  -7   36.80    7.50
   2  -8  -7   30.20    7.40
  -2   8   7   18.80    7.50
  -2   8   7   46.80   10.10
   5  -9  -7   -3.10    4.20
  -2   9  -8    3.70    6.80
  -2   9  -8    5.80    5.70
  -2   9  -8    1.20    4.60
   2  -9   8    6.40    7.80
   2  -9   8    8.20    7.20
   2  -9   8    6.50    6.00
  -3   9  -8   31.70    7.80
  -3   9  -8   33.30    7.50
  -3   9  -8   26.00    7.70
   3  -9   8   36.80    9.70
   3  -9   8   28.70    8.80
   3  -9   8   28.30    7.70
  -4   9  -8   38.00    7.50
  -4   9  -8   42.10    9.30
  -4   9  -8   38.50    8.30
   4  -9   8   38.30    9.80
   4  -9   8   53.49   10.10
   4  -9   8   50.09    9.90
  -5   9  -8   -1.10    5.20
  -5   9  -8    2.40    5.60
   5  -9   8   -3.70    5.00
   5  -9   8   -8.50    7.10
   1   8  -8    7.90    5.80
   1   8  -8    3.20    4.00
   1   8  -8    3.10    5.00
  -1  -8   8    3.10    6.40
  -1  -8   8    4.40    6.60
   0   8  -8    5.20    4.40
   0   8  -8   10.70    6.00
   0   8  -8    2.80    5.00
   0  -8   8   21.80    7.50
   0  -8   8    4.50    6.40
   0  -8   8   16.20    7.40
  -1   8  -8   51.99    8.70
  -1   8  -8   61.49    9.50
  -1   8  -8   45.50    8.30
   1  -8   8   56.69   10.70
   1  -8   8   62.79   10.10
   1  -8   8   62.69   11.30
  -2   8  -8   -2.90    4.20
  -2   8  -8   -3.50    2.70
  -2   8  -8   -0.90    4.70
   2  -8   8    0.40    4.40
   2  -8   8    9.50    6.20
   2  -8   8    4.80    7.30
  -3   8  -8   52.09    9.20
  -3   8  -8   62.29    9.00
  -3   8  -8   32.90    7.40
   3  -8   8   40.30    8.50
   3  -8   8   52.99   10.20
   3  -8   8   52.39   10.20
  -4   8  -8   22.30    5.40
  -4   8  -8   11.50    5.80
  -4   8  -8   24.10    7.20
   4  -8   8   22.40    6.80
   4  -8   8   17.90    8.00
   4  -8   8   24.20    6.60
  -5   8  -8    6.80    5.20
  -5   8  -8    4.70    5.40
   5  -8   8   22.50    7.30
   5  -8   8   10.80    7.60
  -6   8  -8    7.50    4.50
  -6   8  -8    7.20    5.80
   6  -8   8   -2.40    4.70
   6  -8   8   11.00    7.50
  -7   8  -8    0.60    5.40
  -7   8  -8    7.20    6.50
   7  -8   8    9.80    6.30
   2   7  -8   14.70    6.20
   2   7  -8   21.10    7.10
   2   7  -8    4.90    4.60
  -2  -7   8    8.40    6.80
  -2  -7   8   12.40    6.70
   1   7  -8   39.70    7.80
   1   7  -8   45.40    8.30
   1   7  -8   45.10    8.00
  -1  -7   8   28.20    8.60
  -1  -7   8   40.70    8.70
   0   7  -8   24.80    6.30
   0   7  -8   19.50    6.00
   0   7  -8   12.80    5.10
   0  -7   8   21.60    6.50
   0  -7   8   17.80    6.10
   0  -7   8   31.90    8.00
  -1   7  -8   13.10    5.30
  -1   7  -8   18.20    5.20
  -1   7  -8   13.50    5.10
   1  -7   8   11.20    5.90
   1  -7   8   10.90    4.80
   1  -7   8    8.10    5.50
  -2   7  -8    0.40    4.10
  -2   7  -8    1.80    3.90
  -2   7  -8   -1.10    2.90
   2  -7   8   -2.60    4.00
   2  -7   8   -3.70    4.00
   2  -7   8    1.80    5.00
  -3   7  -8   -0.20    3.80
  -3   7  -8   -3.80    3.40
  -3   7  -8    5.10    3.30
   3  -7   8    1.10    4.50
   3  -7   8   -0.30    3.80
   3  -7   8   -6.90    4.10
  -4   7  -8  104.99   11.10
  -4   7  -8  115.19    8.60
  -4   7  -8  130.39   10.70
   4  -7   8  116.89   13.30
   4  -7   8  128.49   11.90
   4  -7   8   94.49   10.80
  -5   7  -8  134.39   12.70
  -5   7  -8  134.79   12.90
   5  -7   8   89.49   11.40
   5  -7   8  108.39   11.80
  -6   7  -8    4.40    4.90
  -6   7  -8    0.90    4.30
   6  -7   8    0.70    5.70
   6  -7   8    3.30    6.10
  -7   7  -8   35.70    7.90
  -7   7  -8   22.00    7.30
   7  -7   8   26.40    7.50
   4   6  -8    2.60    5.70
  -4  -6   8    7.20    7.00
  -4  -6   8    4.20    7.60
   3   6  -8    8.00    5.40
   3   6  -8    4.70    5.00
  -3  -6   8    0.60    6.80
  -3  -6   8    2.60    5.40
   2   6  -8  110.69   11.90
  -2  -6   8  118.39   13.80
  -2  -6   8  118.69   13.60
   1   6  -8   83.79   10.40
   1   6  -8   54.39    8.00
   1   6  -8   65.89    8.80
  -1  -6   8   64.79    8.10
  -1  -6   8   67.39   10.20
  -1  -6   8   67.79   10.20
   0   6  -8   -0.10    2.40
   0   6  -8    0.70    3.00
   0   6  -8   -2.20    3.00
   0  -6   8   -1.10    4.20
   0  -6   8    0.80    3.90
   0  -6   8   -1.40    3.30
  -1   6  -8  154.48   10.80
  -1   6  -8  167.58   10.70
  -1   6  -8  130.69   10.40
   1  -6   8  136.79   13.40
   1  -6   8  141.19   11.60
   1  -6   8  134.19   10.10
  -2   6  -8    2.70    3.20
  -2   6  -8   -2.50    2.70
  -2   6  -8   -1.50    2.70
   2  -6   8    0.90    2.80
   2  -6   8   -0.70    3.50
   2  -6   8   -0.50    3.80
  -3   6  -8   22.80    5.20
  -3   6  -8   10.80    3.50
  -3   6  -8   11.60    4.50
   3  -6   8   15.00    6.10
   3  -6   8    9.10    4.20
   3  -6   8   20.60    5.20
  -4   6  -8  169.88   12.10
  -4   6  -8  172.08   11.60
   4  -6   8  174.88   11.00
   4  -6   8  172.08   13.00
   4  -6   8  163.88   11.80
  -5   6  -8   21.10    5.80
  -5   6  -8   16.60    4.70
  -5   6  -8   23.20    6.20
   5  -6   8   36.10    7.40
   5  -6   8   10.30    5.30
  -6   6  -8   -2.00    4.30
  -6   6  -8   -3.10    3.60
  -6   6  -8   -1.70    4.10
   6  -6   8    2.50    4.50
   6  -6   8    8.20    6.10
   6  -6   8    0.30    2.70
  -7   6  -8   36.70    7.30
  -7   6  -8   37.20    7.00
  -7   6  -8   45.30    8.90
   7  -6   8   45.40    7.70
   7  -6   8   35.50    8.00
  -8   6  -8   20.70    7.80
  -8   6  -8    7.40    5.40
   8  -6   8   16.60    5.80
   8  -6   8   14.20    7.80
   5   5  -8    3.40    5.70
   5   5  -8   -2.70    5.00
  -5  -5   8    4.10    7.00
  -5  -5   8    1.40    6.20
  -5  -5   8   -4.80    5.80
   4   5  -8   -0.80    4.40
   4   5  -8    2.40    4.80
  -4  -5   8   -0.10    5.90
  -4  -5   8    8.50    6.00
  -4  -5   8    0.00    5.50
   3   5  -8   37.70    7.10
   3   5  -8   35.90    7.10
  -3  -5   8   49.30    9.00
  -3  -5   8   41.00    8.90
   2   5  -8   73.59    9.00
   2   5  -8   56.19    8.10
  -2  -5   8   90.19   11.30
  -2  -5   8   78.29   10.90
   1   5  -8   52.69    7.50
   1   5  -8   52.19    5.70
   1   5  -8   46.80    7.20
  -1  -5   8   44.40    5.80
  -1  -5   8   49.30    8.30
  -1  -5   8   60.29    9.40
   0   5  -8   14.10    4.00
   0   5  -8    5.80    2.60
   0   5  -8   10.90    4.00
   0  -5   8   12.70    4.90
   0  -5   8    7.70    4.10
   0  -5   8    6.80    3.60
  -1   5  -8   20.90    5.00
  -1   5  -8   32.80    6.00
  -1   5  -8   20.90    3.90
   1  -5   8   37.90    6.00
   1  -5   8   23.90    5.70
   1  -5   8   24.20    6.10
  -2   5  -8    4.20    2.80
  -2   5  -8    8.40    4.00
  -2   5  -8    8.90    3.20
   2  -5   8   10.60    4.20
   2  -5   8   13.70    5.20
   2  -5   8    3.90    3.60
  -3   5  -8   45.00    6.90
  -3   5  -8   82.59    8.70
  -3   5  -8   48.40    5.50
   3  -5   8   41.80    7.40
   3  -5   8   50.59    6.60
   3  -5   8   48.50    7.30
  -4   5  -8    0.70    3.30
  -4   5  -8    5.30    3.60
  -4   5  -8   -0.30    2.70
   4  -5   8    2.20    3.20
   4  -5   8    3.70    3.40
   4  -5   8    3.40    2.40
   4  -5   8    6.50    4.40
  -5   5  -8   27.90    6.20
  -5   5  -8   32.60    5.80
  -5   5  -8   37.50    6.30
   5  -5   8   22.80    5.70
   5  -5   8   27.70    4.70
   5  -5   8   16.70    5.80
  -6   5  -8   -3.20    3.30
  -6   5  -8    5.40    4.50
  -6   5  -8    2.30    4.20
   6  -5   8   -0.30    2.60
   6  -5   8    2.20    5.30
   6  -5   8   -1.70    5.00
  -7   5  -8   36.20    8.00
  -7   5  -8    6.50    4.80
   7  -5   8   23.80    7.00
   7  -5   8    7.20    7.10
   7  -5   8   17.50    5.40
  -8   5  -8   54.29    9.50
  -8   5  -8   53.89    9.70
   8  -5   8   72.69   10.30
   8  -5   8   56.89   10.20
   6   4  -8   16.80    6.70
  -6  -4   8   24.40    8.50
   5   4  -8   19.20    6.20
   5   4  -8   18.30    6.20
   5   4  -8   21.10    6.80
  -5  -4   8   27.40    8.40
  -5  -4   8   19.80    6.20
  -5  -4   8   12.60    6.60
   4   4  -8   46.20    8.00
   4   4  -8   52.19    7.10
   4   4  -8   51.79    8.10
  -4  -4   8   45.10    7.90
  -4  -4   8   36.20    8.50
  -4  -4   8   46.10    9.00
   3   4  -8   91.79    9.90
   3   4  -8   93.09    8.90
   3   4  -8   87.29    9.60
  -3  -4   8  102.29   12.00
  -3  -4   8   91.79   11.20
   2   4  -8   34.50    5.20
   2   4  -8   30.40    5.60
   2   4  -8   28.60    5.50
  -2  -4   8   52.39    5.40
  -2  -4   8   47.00    8.00
  -2  -4   8   44.00    8.00
   1   4  -8  101.39    7.80
   1   4  -8  101.19    9.40
   1   4  -8   96.49    6.90
  -1  -4   8   82.59    6.50
  -1  -4   8  108.99   10.80
  -1  -4   8  120.09   11.50
   0   4  -8  126.09    8.60
   0   4  -8  132.49    9.00
   0   4  -8  132.49    8.20
   0  -4   8  108.59    9.50
   0  -4   8  130.69    7.90
   0  -4   8  120.69   10.10
  -1   4  -8   32.90    5.00
  -1   4  -8   43.40    6.30
  -1   4  -8   59.09    6.80
   1  -4   8   39.50    7.20
   1  -4   8   54.79    6.50
   1  -4   8   49.60    7.10
  -2   4  -8  315.87   15.00
  -2   4  -8  321.07   13.80
  -2   4  -8  311.57   13.90
  -2   4  -8  296.47   10.10
   2  -4   8  304.57   16.40
   2  -4   8  316.37   14.70
   2  -4   8  319.07   14.60
   2  -4   8  308.17   10.90
  -3   4  -8   74.69    7.50
  -3   4  -8   81.29    8.70
  -3   4  -8   81.09    6.70
   3  -4   8   88.39    8.20
   3  -4   8   73.89    8.50
   3  -4   8   85.39    5.70
   3  -4   8   80.09    9.50
  -4   4  -8   90.49    9.50
  -4   4  -8   95.29    7.20
  -4   4  -8   90.89    7.80
   4  -4   8   95.79   11.10
   4  -4   8   70.69    8.60
   4  -4   8   83.99    6.60
  -5   4  -8   25.30    6.00
  -5   4  -8   25.50    5.90
  -5   4  -8   20.90    4.40
   5  -4   8   24.60    6.30
   5  -4   8   25.30    6.20
   5  -4   8   32.80    5.70
  -6   4  -8   -4.00    4.20
  -6   4  -8    2.90    4.50
   6  -4   8    3.30    4.40
   6  -4   8    3.20    4.60
   6  -4   8    1.90    3.20
  -7   4  -8   30.10    7.20
  -7   4  -8   27.20    7.80
   7  -4   8   31.30    6.80
   7  -4   8   37.10    9.00
  -8   4  -8   39.00    8.60
  -8   4  -8   20.20    6.40
   8  -4   8   20.60    6.50
   8  -4   8   26.90    8.20
   6   3  -8   66.29    9.30
   6   3  -8   81.89   10.40
   6   3  -8   71.39   10.20
  -6  -3   8   65.79   11.00
  -6  -3   8   67.59   11.20
   5   3  -8    4.80    3.80
   5   3  -8    1.90    4.00
   5   3  -8    0.20    4.30
  -5  -3   8    1.30    4.80
  -5  -3   8   -1.70    4.50
  -5  -3   8    3.20    4.00
   4   3  -8   33.10    6.00
   4   3  -8   27.50    6.00
   4   3  -8   36.00    6.20
  -4  -3   8   34.20    7.00
  -4  -3   8   24.80    6.20
  -4  -3   8   21.20    6.20
   3   3  -8   21.70    4.80
   3   3  -8   17.60    4.60
   3   3  -8   34.50    5.50
  -3  -3   8   21.70    5.70
  -3  -3   8   15.10    4.90
  -3  -3   8   22.50    5.30
   2   3  -8   61.79    7.20
   2   3  -8   56.59    6.80
   2   3  -8   80.69    6.50
  -2  -3   8   75.89    9.00
  -2  -3   8   70.39    9.00
  -2  -3   8   55.89    4.30
   1   3  -8  231.38   11.70
   1   3  -8  257.37   12.80
   1   3  -8  266.47   12.50
  -1  -3   8  245.28   10.20
  -1  -3   8  266.37   14.40
  -1  -3   8  246.08   13.80
   0   3  -8    7.90    3.10
   0   3  -8    5.90    3.00
   0   3  -8    6.20    2.80
   0  -3   8    4.20    2.40
   0  -3   8    8.20    3.40
   0  -3   8    4.90    3.50
  -1   3  -8   50.09    3.10
  -1   3  -8   49.80    6.30
  -1   3  -8   54.39    6.00
  -1   3  -8   53.89    5.80
   1  -3   8   52.69    6.70
   1  -3   8   38.50    5.10
   1  -3   8   56.79    7.50
  -2   3  -8  100.59    5.40
  -2   3  -8  103.49    7.60
  -2   3  -8  100.59    6.60
  -2   3  -8   85.69    7.10
   2  -3   8   90.99    7.50
   2  -3   8   98.19    9.90
   2  -3   8  107.79    7.70
   2  -3   8  112.79    6.20
  -3   3  -8   95.39    6.30
  -3   3  -8   93.69    6.10
  -3   3  -8   97.19    9.20
  -3   3  -8   94.89    7.60
   3  -3   8   77.39    8.30
   3  -3   8   98.69    6.60
   3  -3   8   86.29    6.70
   3  -3   8   97.39   10.40
  -4   3  -8   21.30    3.90
  -4   3  -8   24.50    5.50
  -4   3  -8   19.70    4.80
   4  -3   8   24.10    6.20
   4  -3   8   25.20    6.50
   4  -3   8   30.60    5.00
  -5   3  -8    3.80    3.70
  -5   3  -8    7.60    4.70
   5  -3   8   10.10    3.80
   5  -3   8    6.00    4.30
   5  -3   8   15.80    6.20
  -6   3  -8    9.80    4.50
  -6   3  -8    5.00    4.60
   6  -3   8    3.40    4.20
   6  -3   8    9.80    6.30
   6  -3   8    6.60    4.00
  -7   3  -8    4.70    5.40
  -7   3  -8    1.40    4.70
   7  -3   8   -0.10    6.50
   7  -3   8   -2.20    3.60
   7  -3   8    0.20    5.20
   7   2  -8    9.20    5.90
   7   2  -8   13.50    6.50
  -7  -2   8    9.60    6.80
  -7  -2   8    6.50    6.00
  -7  -2   8   17.40    7.40
   6   2  -8    4.10    4.50
   6   2  -8    8.50    4.60
   6   2  -8    8.50    4.60
  -6  -2   8   12.80    5.90
  -6  -2   8    4.30    5.20
   5   2  -8    6.40    3.90
   5   2  -8    5.50    3.90
   5   2  -8    7.50    4.00
  -5  -2   8   10.40    4.50
  -5  -2   8    0.50    4.30
  -5  -2   8   12.50    5.40
   4   2  -8   13.00    4.30
   4   2  -8   11.40    4.30
   4   2  -8   15.80    4.40
  -4  -2   8   10.10    4.90
  -4  -2   8    5.40    3.80
  -4  -2   8   18.50    4.60
   3   2  -8  163.08   10.20
   3   2  -8  154.48    9.70
   3   2  -8  156.78    9.80
  -3  -2   8  148.99   11.30
  -3  -2   8  150.58   10.60
  -3  -2   8  163.18   10.50
   2   2  -8  314.97    9.00
   2   2  -8  308.57   14.10
   2   2  -8  300.37   13.60
   2   2  -8  316.27   13.70
  -2  -2   8  320.07   16.00
  -2  -2   8  300.07   14.60
  -2  -2   8  283.67   10.10
  -2  -2   8  295.57   14.80
   1   2  -8    5.90    1.20
   1   2  -8    7.70    1.40
   1   2  -8   12.80    3.60
   1   2  -8    8.30    2.80
   1   2  -8   13.20    3.20
  -1  -2   8    7.70    3.50
  -1  -2   8   10.60    2.30
  -1  -2   8    9.30    3.60
   0   2  -8    9.70    3.00
   0   2  -8    8.40    2.50
   0   2  -8   10.30    3.20
   0   2  -8    8.30    1.60
   0  -2   8   11.50    2.80
   0  -2   8    2.90    2.90
   0  -2   8    7.70    3.30
  -1   2  -8   19.80    3.30
  -1   2  -8   11.40    2.20
  -1   2  -8    7.10    3.00
  -1   2  -8   15.90    3.70
   1  -2   8   11.10    3.40
   1  -2   8   21.00    4.40
   1  -2   8   16.40    4.40
  -2   2  -8  101.09    8.00
  -2   2  -8  125.69    8.50
  -2   2  -8  115.19    6.30
  -2   2  -8  108.19    6.30
   2  -2   8  119.09    8.40
   2  -2   8  129.39    9.80
   2  -2   8  119.09    7.20
   2  -2   8  108.89    7.90
  -3   2  -8  129.49    7.40
  -3   2  -8  131.89    6.60
  -3   2  -8  128.39    9.20
  -3   2  -8  118.29    8.80
   3  -2   8  114.29    7.40
   3  -2   8  126.49    8.10
   3  -2   8  125.19   10.10
   3  -2   8  141.29    9.60
  -4   2  -8  236.78   13.10
  -4   2  -8  224.38   11.20
  -4   2  -8  215.78   12.90
   4  -2   8  222.18   12.40
   4  -2   8  225.08   13.50
   4  -2   8  225.78   14.80
  -5   2  -8    4.80    3.00
  -5   2  -8    3.70    3.70
  -5   2  -8   -0.20    3.60
   5  -2   8    0.00    3.70
   5  -2   8   -0.80    2.80
   5  -2   8    5.00    5.30
  -6   2  -8   56.79    8.70
  -6   2  -8   64.29    8.20
  -6   2  -8   59.49    8.90
   6  -2   8   44.60    8.50
   6  -2   8   51.19    9.70
   6  -2   8   54.79    8.40
  -7   2  -8    2.10    4.00
  -7   2  -8   -1.00    4.70
  -7   2  -8   -7.20    4.60
   7  -2   8    0.40    4.20
   7  -2   8   -2.10    6.20
   8   1  -8   22.90    7.00
   8   1  -8   26.50    7.80
  -8  -1   8   18.40    6.90
  -8  -1   8   20.90    7.60
  -8  -1   8   19.50    8.00
   7   1  -8    4.30    4.60
   7   1  -8    3.70    4.50
  -7  -1   8    1.90    5.10
  -7  -1   8    1.10    3.30
   6   1  -8   -2.80    3.20
   6   1  -8   -0.30    3.50
  -6  -1   8   -0.50    2.50
  -6  -1   8    1.20    4.60
   5   1  -8   26.30    5.50
   5   1  -8   24.30    5.30
   5   1  -8   23.00    3.90
   5   1  -8   16.70    4.90
  -5  -1   8   19.90    6.10
  -5  -1   8   20.60    5.90
  -5  -1   8   23.60    5.10
   4   1  -8   -1.30    2.90
   4   1  -8    1.80    2.70
   4   1  -8    1.50    3.00
   4   1  -8   -0.30    1.70
  -4  -1   8    2.40    3.20
  -4  -1   8    3.80    3.50
  -4  -1   8   -1.10    3.00
   3   1  -8  437.86   17.70
   3   1  -8  470.55   17.50
   3   1  -8  439.56   18.00
  -3  -1   8  454.85   18.50
  -3  -1   8  419.06   19.50
  -3  -1   8  432.86   18.70
   2   1  -8  160.48    9.30
   2   1  -8  153.08    9.00
   2   1  -8  151.98    8.40
   2   1  -8  161.38    6.50
  -2  -1   8  159.48    6.10
  -2  -1   8  155.78   10.00
  -2  -1   8  152.18   10.50
  -2  -1   8  140.19    9.10
   1   1  -8   65.29    6.70
   1   1  -8   56.99    5.40
   1   1  -8   54.29    3.60
   1   1  -8   56.49    6.10
  -1  -1   8   72.09    7.00
  -1  -1   8   42.60    6.50
  -1  -1   8   54.59    4.10
  -1  -1   8   62.49    7.40
   0   1  -8   -0.70    1.60
   0   1  -8   -1.50    1.20
   0   1  -8   -0.80    1.10
   0   1  -8   -0.30    2.00
   0  -1   8    1.60    1.90
   0  -1   8   -0.10    2.20
   0  -1   8   -0.20    2.10
  -1   1  -8    5.60    2.20
  -1   1  -8    1.20    2.70
  -1   1  -8    4.60    1.70
  -1   1  -8    3.70    2.70
   1  -1   8    4.80    2.80
   1  -1   8    3.10    2.30
   1  -1   8    4.10    3.40
  -2   1  -8   88.19    4.50
  -2   1  -8   85.79    7.90
  -2   1  -8   81.39    5.80
  -2   1  -8   89.09    7.50
   2  -1   8   84.59    9.40
   2  -1   8   87.59    8.50
   2  -1   8   76.59    6.60
   2  -1   8   84.29    7.60
  -3   1  -8   55.09    6.70
  -3   1  -8   55.49    6.10
  -3   1  -8   36.40    5.90
   3  -1   8   44.00    7.20
   3  -1   8   50.39    6.90
   3  -1   8   44.80    5.10
   3  -1   8   47.30    6.20
  -4   1  -8   21.60    5.60
  -4   1  -8   19.80    4.90
  -4   1  -8   18.60    4.10
   4  -1   8   17.10    4.60
   4  -1   8    9.30    4.70
   4  -1   8   11.40    4.80
  -5   1  -8    2.70    3.10
  -5   1  -8   11.20    4.60
  -5   1  -8    9.50    4.70
   5  -1   8    1.00    4.10
   5  -1   8    7.40    5.20
   5  -1   8   10.00    4.70
  -6   1  -8   28.50    7.60
  -6   1  -8   18.70    5.30
  -6   1  -8   27.50    6.90
   6  -1   8   39.20    7.50
   6  -1   8   29.20    7.70
   6  -1   8   24.20    7.80
  -7   1  -8   26.30    6.90
  -7   1  -8   23.60    7.40
  -7   1  -8   32.80    7.50
   7  -1   8   20.20    7.10
   7  -1   8   24.20    7.70
   8   0  -8   -0.50    5.00
   8   0  -8   -0.70    4.90
  -8   0   8   -1.50    4.90
  -8   0   8   -6.20    5.00
  -8   0   8    0.20    5.70
   7   0  -8    2.40    3.80
   7   0  -8    3.10    4.40
   7   0  -8    4.50    4.20
  -7   0   8    2.50    4.80
  -7   0   8    4.60    3.70
   6   0  -8    8.30    4.60
   6   0  -8    2.90    3.80
   6   0  -8   10.10    3.30
  -6   0   8    5.40    4.00
  -6   0   8    6.40    4.70
   5   0  -8    2.20    3.40
   5   0  -8    3.70    3.00
   5   0  -8    1.70    2.40
  -5   0   8    1.60    2.80
  -5   0   8    1.40    3.80
  -5   0   8    1.80    3.30
   4   0  -8   48.50    6.10
   4   0  -8   44.10    4.50
   4   0  -8   67.19    7.90
   4   0  -8   55.49    6.60
  -4   0   8   73.59    8.30
  -4   0   8   41.50    7.10
  -4   0   8   57.99    6.80
   3   0  -8   97.29    7.60
   3   0  -8   99.49    6.80
   3   0  -8   94.19    5.70
   3   0  -8  104.99    7.30
  -3   0   8   86.79    9.50
  -3   0   8   84.09    7.20
  -3   0   8   92.59    7.70
   2   0  -8   32.40    5.10
   2   0  -8   43.80    4.80
   2   0  -8   41.40    4.20
   2   0  -8   31.10    4.60
  -2   0   8   36.30    5.60
  -2   0   8   31.70    5.80
  -2   0   8   43.10    5.80
  -2   0   8   36.00    3.30
   1   0  -8    5.30    2.60
   1   0  -8    3.40    2.00
   1   0  -8    3.50    2.30
   1   0  -8    1.20    1.40
  -1   0   8    4.00    2.80
  -1   0   8    3.70    2.10
  -1   0   8    3.80    2.80
  -1   0   8    1.20    1.60
   0   0  -8  117.99    8.30
   0   0  -8  123.19    6.50
   0   0  -8  131.59    7.60
   0   0  -8  127.19    5.70
   0   0   8  123.99    7.50
   0   0   8  129.89    6.50
   0   0   8  115.09    9.10
   0   0   8  129.59    9.00
  -1   0  -8  353.76   14.00
  -1   0  -8  330.37   10.20
  -1   0  -8  331.17   12.90
  -1   0  -8  355.56   15.50
   1   0   8  332.37   10.80
   1   0   8  364.76   17.10
   1   0   8  342.37   11.20
   1   0   8  329.27   15.00
   1   0   8  351.86   14.70
  -2   0  -8    1.40    2.40
  -2   0  -8   -0.10    2.40
  -2   0  -8    4.30    2.30
   2   0   8    0.30    2.70
   2   0   8    1.10    2.20
   2   0   8   -1.90    2.20
   2   0   8   -1.70    2.80
  -3   0  -8    2.60    3.00
  -3   0  -8    5.10    2.80
  -3   0  -8    8.10    3.60
   3   0   8   11.70    5.00
   3   0   8    3.40    3.50
   3   0   8    4.50    3.10
   3   0   8    4.60    2.80
  -4   0  -8   96.39    7.90
  -4   0  -8   78.69    8.90
  -4   0  -8   93.89    9.10
   4   0   8   83.19   10.10
   4   0   8   82.39   10.90
   4   0   8   82.19    9.30
  -5   0  -8   -0.70    4.00
  -5   0  -8    4.30    4.50
  -5   0  -8   -1.60    3.50
   5   0   8    5.60    6.20
   5   0   8    1.30    3.90
   5   0   8    2.10    4.60
  -6   0  -8   53.19    8.10
  -6   0  -8   35.00    7.40
  -6   0  -8   37.50    7.60
   6   0   8   34.60    7.70
   6   0   8   45.10    9.10
   6   0   8   31.40    8.30
   8  -1  -8   47.80    9.10
   8  -1  -8   48.90    7.80
   8  -1  -8   42.10    8.30
  -8   1   8   43.10    8.70
  -8   1   8   48.50    9.30
  -8   1   8   42.80    8.90
   7  -1  -8   71.89    9.80
   7  -1  -8   57.29    8.30
   7  -1  -8   58.89    7.60
  -7   1   8   63.09    9.70
  -7   1   8   42.80    8.30
  -7   1   8   50.39    9.00
   6  -1  -8   16.30    5.10
   6  -1  -8   11.60    4.60
   6  -1  -8    9.70    3.30
  -6   1   8   17.80    5.30
  -6   1   8   11.50    5.30
   5  -1  -8   10.40    3.60
   5  -1  -8   11.20    3.20
   5  -1  -8   19.80    4.80
  -5   1   8   12.80    4.30
  -5   1   8    8.20    3.20
  -5   1   8   11.40    4.80
   4  -1  -8    3.90    2.10
   4  -1  -8    6.00    3.10
   4  -1  -8    2.90    2.60
  -4   1   8   -1.80    2.40
  -4   1   8   12.20    3.70
  -4   1   8    5.10    2.80
   3  -1  -8   14.60    2.60
   3  -1  -8   27.30    4.80
   3  -1  -8   22.80    2.10
   3  -1  -8   14.90    3.40
   3  -1  -8   16.30    3.30
  -3   1   8   13.70    3.70
  -3   1   8   22.30    4.50
  -3   1   8   21.80    5.00
   2  -1  -8  123.79    7.10
   2  -1  -8  127.69    8.70
   2  -1  -8  132.99    7.50
  -2   1   8  139.69    6.40
  -2   1   8  136.49   10.00
  -2   1   8  135.19    9.20
  -2   1   8  133.29    8.10
   1  -1  -8   -3.10    2.00
   1  -1  -8    1.30    1.70
   1  -1  -8   -0.50    2.20
  -1   1   8    0.90    1.60
  -1   1   8   -2.60    2.10
  -1   1   8   -0.10    1.90
  -1   1   8   -0.40    2.40
   0  -1  -8  183.08    8.90
   0  -1  -8  168.58    8.60
   0  -1  -8  177.38   10.50
   0   1   8  180.08    6.80
   0   1   8  160.88   10.90
   0   1   8  151.68    9.10
   0   1   8  179.68   10.90
  -1  -1  -8  123.49    7.70
  -1  -1  -8  131.89    7.70
  -1  -1  -8  137.49    9.40
   1   1   8  134.99    9.20
   1   1   8  140.19    9.30
   1   1   8  121.29    9.90
  -2  -1  -8    1.00    2.30
  -2  -1  -8    3.00    2.50
  -2  -1  -8   -1.10    2.50
   2   1   8   -0.80    2.70
   2   1   8    4.30    3.40
   2   1   8   -0.40    3.20
  -3  -1  -8   -2.50    2.70
  -3  -1  -8    4.50    2.80
  -3  -1  -8   -0.80    2.60
   3   1   8    3.10    3.50
   3   1   8    0.90    3.00
   3   1   8   -1.50    3.50
   3   1   8    2.90    3.80
  -4  -1  -8    6.80    3.80
  -4  -1  -8    4.70    4.00
  -4  -1  -8    6.50    4.80
   4   1   8    2.80    4.00
   4   1   8    0.40    3.80
   4   1   8    9.00    5.50
  -5  -1  -8    4.20    4.50
  -5  -1  -8   -2.40    3.30
  -5  -1  -8    0.80    4.40
   5   1   8    4.50    4.60
   5   1   8   -2.60    4.70
   5   1   8    7.50    7.30
  -6  -1  -8   16.50    6.00
  -6  -1  -8   12.60    6.30
  -6  -1  -8    6.00    7.10
   6   1   8   19.60    7.10
   6   1   8   13.50    6.80
   6   1   8   14.90    8.90
   9  -2  -8   -6.10    4.70
   9  -2  -8    8.50    5.90
   9  -2  -8    0.30    4.60
  -9   2   8   -2.90    5.00
  -9   2   8   -0.20    6.20
  -9   2   8   -0.40    5.30
   8  -2  -8   35.40    6.60
   8  -2  -8   49.60    8.40
   8  -2  -8   52.39    9.30
  -8   2   8   20.80    8.60
  -8   2   8   24.60    7.10
  -8   2   8   37.10    9.20
   7  -2  -8    1.80    3.10
   7  -2  -8    4.00    4.30
   7  -2  -8   -1.30    3.50
  -7   2   8    0.60    4.20
  -7   2   8    0.00    3.60
  -7   2   8    0.10    3.90
   6  -2  -8   19.20    4.00
   6  -2  -8   23.50    5.50
   6  -2  -8   25.40    5.40
  -6   2   8   17.30    6.20
  -6   2   8   26.10    6.20
   5  -2  -8   16.80    4.50
   5  -2  -8   15.80    3.60
   5  -2  -8   15.00    4.40
  -5   2   8    9.80    4.60
  -5   2   8   17.20    3.90
  -5   2   8    9.20    4.00
   4  -2  -8   42.50    5.20
   4  -2  -8   50.89    6.70
   4  -2  -8   52.69    6.00
   4  -2  -8   47.00    4.30
  -4   2   8   37.30    6.60
  -4   2   8   38.60    5.30
  -4   2   8   32.30    5.60
   3  -2  -8   82.29    7.10
   3  -2  -8   63.39    5.30
   3  -2  -8   80.49    4.60
   3  -2  -8   85.19    8.30
  -3   2   8   92.99    8.80
  -3   2   8   66.49    6.90
  -3   2   8   75.49    9.10
   2  -2  -8  129.39    8.90
   2  -2  -8  106.19    6.30
   2  -2  -8  111.99    7.20
   2  -2  -8  107.89    6.20
  -2   2   8  117.19    9.60
  -2   2   8  119.69    7.10
  -2   2   8  111.09    6.50
  -2   2   8  138.19    9.40
   1  -2  -8    0.70    2.50
   1  -2  -8   -1.20    1.20
   1  -2  -8   -0.10    1.90
  -1   2   8    2.80    2.00
  -1   2   8    0.70    1.70
  -1   2   8   -0.60    2.40
  -1   2   8    4.40    3.20
   0  -2  -8    4.00    2.90
   0  -2  -8    1.10    2.90
   0  -2  -8    3.80    1.90
   0   2   8    2.50    3.00
   0   2   8    4.50    3.90
   0   2   8    2.60    3.20
  -1  -2  -8  115.59    7.00
  -1  -2  -8  109.59    7.90
  -1  -2  -8  109.89    9.10
   1   2   8  137.59    9.50
   1   2   8  115.49    9.80
   1   2   8  134.89    9.90
  -2  -2  -8   54.09    7.40
  -2  -2  -8   67.19    6.50
  -2  -2  -8   75.39    7.60
   2   2   8   57.69    8.60
   2   2   8   56.49    6.80
   2   2   8   47.80    7.20
  -3  -2  -8    2.50    3.30
  -3  -2  -8   -1.00    3.10
  -3  -2  -8    2.60    3.60
   3   2   8    0.00    3.80
   3   2   8   -3.20    3.80
  -4  -2  -8    5.00    4.80
  -4  -2  -8   15.30    5.10
   4   2   8    4.70    6.10
   4   2   8    9.50    5.20
   4   2   8    8.40    6.10
  -5  -2  -8    3.90    4.60
  -5  -2  -8    3.10    5.00
   5   2   8    9.10    7.30
   5   2   8    4.90    5.20
   5   2   8    8.40    5.60
   9  -3  -8    7.00    5.60
   9  -3  -8    9.30    4.80
   9  -3  -8    3.90    6.60
  -9   3   8    3.50    7.40
  -9   3   8   13.80    6.80
  -9   3   8    5.70    6.10
   8  -3  -8    0.10    4.90
   8  -3  -8    3.20    4.60
   8  -3  -8    4.40    3.90
  -8   3   8    0.70    4.80
  -8   3   8    8.80    5.80
  -8   3   8    7.70    5.10
   7  -3  -8   17.90    4.60
   7  -3  -8   28.50    6.40
   7  -3  -8   20.80    5.30
  -7   3   8   24.50    6.20
  -7   3   8   17.30    6.20
  -7   3   8   14.40    5.90
   6  -3  -8   21.70    5.30
   6  -3  -8   17.50    4.50
   6  -3  -8   15.80    4.20
  -6   3   8   18.50    5.40
  -6   3   8   13.30    5.80
  -6   3   8   13.80    5.20
   5  -3  -8   27.70    4.60
   5  -3  -8   26.10    5.40
   5  -3  -8   22.50    4.80
  -5   3   8   17.00    4.20
  -5   3   8   17.10    5.30
  -5   3   8   20.60    5.30
   4  -3  -8  176.58   10.00
   4  -3  -8  174.88    7.70
   4  -3  -8  171.88    9.00
   4  -3  -8  165.38   10.60
  -4   3   8  160.98   10.30
  -4   3   8  197.48   13.30
  -4   3   8  181.88   10.80
   3  -3  -8   45.40    6.40
   3  -3  -8   49.00    5.00
   3  -3  -8   34.00    4.20
   3  -3  -8   47.30    5.80
  -3   3   8   41.30    6.30
  -3   3   8   44.70    6.20
  -3   3   8   32.50    6.30
   2  -3  -8   19.10    4.40
   2  -3  -8   14.20    2.70
   2  -3  -8   17.60    3.90
   2  -3  -8    6.20    3.00
  -2   3   8   14.90    4.10
  -2   3   8   14.60    3.20
  -2   3   8   14.70    3.60
  -2   3   8   10.40    4.10
   1  -3  -8   19.90    3.00
   1  -3  -8   12.50    3.40
   1  -3  -8   10.00    3.50
   1  -3  -8    9.90    3.80
  -1   3   8   17.40    2.70
  -1   3   8   14.80    4.70
  -1   3   8   12.00    3.90
  -1   3   8   12.70    4.40
   0  -3  -8    5.20    2.10
   0  -3  -8   -2.90    3.40
   0  -3  -8    0.80    2.60
   0   3   8    7.40    3.50
   0   3   8    4.90    3.90
   0   3   8    3.40    3.40
  -1  -3  -8   95.39    9.50
  -1  -3  -8   92.69    8.70
   1   3   8   97.99   10.30
   1   3   8   94.79   10.80
   1   3   8  102.39   10.60
  -2  -3  -8   99.39    9.20
  -2  -3  -8   79.69    8.80
   2   3   8   98.19   10.00
   2   3   8  101.69   10.80
   2   3   8   90.19   10.90
  -3  -3  -8    4.20    3.70
  -3  -3  -8   11.80    5.00
   3   3   8   -2.70    5.00
   3   3   8   -4.20    4.00
  -4  -3  -8   -0.80    5.50
  -4  -3  -8    5.70    4.10
   4   3   8    3.50    5.50
   4   3   8    6.40    6.90
   9  -4  -8    4.00    4.50
   9  -4  -8    2.00    5.00
   9  -4  -8    7.20    5.70
  -9   4   8   -2.00    5.50
  -9   4   8    1.90    5.50
  -9   4   8    3.10    6.00
   8  -4  -8   10.10    5.10
   8  -4  -8    5.50    4.70
   8  -4  -8    5.90    4.90
  -8   4   8    1.30    5.10
  -8   4   8   10.10    6.20
  -8   4   8    1.50    5.20
   7  -4  -8   30.10    5.70
   7  -4  -8   22.40    5.90
   7  -4  -8   36.00    7.00
  -7   4   8   28.80    6.30
  -7   4   8   22.20    7.10
  -7   4   8   19.60    6.50
   6  -4  -8    8.50    3.50
   6  -4  -8   11.50    3.80
   6  -4  -8   13.80    4.70
  -6   4   8    6.60    4.30
  -6   4   8    5.50    3.70
  -6   4   8    6.00    4.50
   5  -4  -8   92.39    9.40
   5  -4  -8   89.09    8.70
   5  -4  -8   96.49    6.90
  -5   4   8   89.79   11.10
  -5   4   8  101.89    7.60
  -5   4   8   89.49    8.50
  -5   4   8   83.69    9.30
   4  -4  -8   40.80    5.00
   4  -4  -8   38.60    6.00
   4  -4  -8   35.50    5.80
   4  -4  -8   22.70    3.80
  -4   4   8   32.50    5.40
  -4   4   8   29.00    6.30
  -4   4   8   30.60    5.60
   3  -4  -8   15.60    4.10
   3  -4  -8   11.50    3.90
   3  -4  -8   23.90    4.50
   3  -4  -8   10.60    2.50
  -3   4   8   19.20    4.70
  -3   4   8    8.50    3.90
  -3   4   8    7.10    4.20
   2  -4  -8   -0.70    3.10
   2  -4  -8   -0.90    2.70
   2  -4  -8    0.00    2.70
  -2   4   8   -1.10    3.20
  -2   4   8    0.60    2.30
  -2   4   8    3.70    3.60
  -2   4   8   -1.30    2.20
   1  -4  -8    3.50    3.10
   1  -4  -8    3.40    3.30
   1  -4  -8    4.30    3.40
  -1   4   8    7.90    4.20
  -1   4   8    6.40    4.20
  -1   4   8    2.30    3.90
   0  -4  -8   22.90    5.40
   0  -4  -8   44.20    6.50
   0  -4  -8   29.60    6.00
   0   4   8   29.00    6.90
   0   4   8   29.90    6.60
   0   4   8   35.00    6.70
  -1  -4  -8   63.89    8.60
  -1  -4  -8   49.40    7.10
  -1  -4  -8   69.09    8.10
   1   4   8   58.49    8.80
   1   4   8   51.29    8.00
   1   4   8   66.59    8.80
  -2  -4  -8   11.10    4.50
  -2  -4  -8   18.20    5.70
  -2  -4  -8    9.60    4.70
   2   4   8   15.10    6.40
   2   4   8    7.20    6.20
   2   4   8   20.20    5.80
  -3  -4  -8   26.20    6.30
  -3  -4  -8    6.20    4.30
  -3  -4  -8   18.50    5.90
   3   4   8    1.00    5.30
   3   4   8   21.60    7.70
   9  -5  -8   35.00    8.30
   9  -5  -8   18.30    6.30
   9  -5  -8   15.50    5.70
  -9   5   8   13.10    8.40
  -9   5   8   10.50    6.40
  -9   5   8    9.50    6.90
   8  -5  -8   15.60    5.30
   8  -5  -8   30.60    6.70
   8  -5  -8   38.10    7.50
  -8   5   8   18.10    6.00
  -8   5   8   13.70    6.30
  -8   5   8   25.00    7.80
   7  -5  -8    4.30    3.60
   7  -5  -8    1.80    4.00
   7  -5  -8   -1.40    3.10
  -7   5   8    0.90    4.40
  -7   5   8    3.70    4.50
  -7   5   8    3.80    5.30
   6  -5  -8   -1.10    2.50
   6  -5  -8   -0.30    2.90
   6  -5  -8    4.00    3.30
  -6   5   8    5.20    4.30
  -6   5   8    1.10    4.30
  -6   5   8   -5.00    2.50
   5  -5  -8    0.30    3.30
   5  -5  -8   -2.20    2.70
   5  -5  -8    0.00    2.90
  -5   5   8    2.90    3.70
  -5   5   8   -0.40    3.70
  -5   5   8   -4.10    3.60
   4  -5  -8   47.10    6.90
   4  -5  -8   46.90    6.90
   4  -5  -8   41.20    6.10
  -4   5   8   27.90    5.50
  -4   5   8   29.30    6.10
  -4   5   8   32.70    7.30
   3  -5  -8  113.29    8.80
   3  -5  -8  134.09    9.80
   3  -5  -8  117.59    9.30
  -3   5   8  144.09   12.30
  -3   5   8  108.59   10.90
  -3   5   8  121.99    8.50
   2  -5  -8   33.70    5.60
   2  -5  -8   23.80    5.20
   2  -5  -8   33.60    6.00
  -2   5   8   23.10    6.00
  -2   5   8   17.50    5.70
  -2   5   8   19.00    5.00
   1  -5  -8   74.09    8.60
   1  -5  -8   45.80    6.80
   1  -5  -8   88.89    9.20
  -1   5   8   77.99    8.90
  -1   5   8   77.29   10.20
  -1   5   8   77.69   10.00
   0  -5  -8   25.90    5.60
   0  -5  -8   14.70    4.90
   0  -5  -8   37.60    7.10
   0   5   8   24.40    7.40
   0   5   8   17.10    5.90
   0   5   8   28.90    6.90
  -1  -5  -8    2.60    5.00
  -1  -5  -8   -4.40    3.20
  -1  -5  -8    0.50    3.80
   1   5   8    0.80    4.60
   1   5   8   -2.40    4.60
   1   5   8   -0.50    4.50
  -2  -5  -8    8.80    6.10
  -2  -5  -8    7.50    5.30
  -2  -5  -8    9.00    5.00
   2   5   8    9.90    7.40
   2   5   8    6.90    6.30
   2   5   8   12.50    6.90
   9  -6  -8   47.10    8.80
   9  -6  -8   33.70    7.30
  -9   6   8   32.50    9.10
  -9   6   8   34.10    9.20
   8  -6  -8    0.80    2.70
   8  -6  -8   -3.50    4.80
  -8   6   8   -3.20    5.40
  -8   6   8   -1.70    5.50
   7  -6  -8   23.20    5.90
   7  -6  -8    6.20    4.00
  -7   6   8   11.60    5.90
  -7   6   8   22.30    7.50
   6  -6  -8   -1.30    2.80
   6  -6  -8    0.60    3.50
  -6   6   8    1.80    4.80
  -6   6   8    0.20    4.20
   5  -6  -8    0.00    3.10
   5  -6  -8   -0.40    3.70
   5  -6  -8   -1.50    2.60
  -5   6   8   -0.60    4.50
  -5   6   8   -4.70    3.40
  -5   6   8    2.20    4.10
   4  -6  -8   44.40    7.10
   4  -6  -8   60.29    7.60
   4  -6  -8   41.00    6.90
  -4   6   8   40.00    8.30
  -4   6   8   54.19    8.30
  -4   6   8   50.59    7.00
   3  -6  -8   70.49    8.80
   3  -6  -8   82.39    8.60
   3  -6  -8   69.29    8.10
  -3   6   8   68.59    9.10
  -3   6   8   78.89   10.90
   2  -6  -8   -4.30    2.90
   2  -6  -8    3.80    4.10
   2  -6  -8    0.70    3.80
  -2   6   8    3.80    4.50
  -2   6   8   -2.90    4.80
   1  -6  -8   25.90    6.10
   1  -6  -8   35.60    6.90
   1  -6  -8   24.50    6.40
  -1   6   8   22.50    6.80
  -1   6   8   38.50    8.00
  -1   6   8   27.70    7.70
   0  -6  -8   16.60    5.40
   0  -6  -8    7.60    4.80
   0  -6  -8   13.30    5.80
   0   6   8    7.30    5.60
   0   6   8   15.00    6.90
   0   6   8   12.60    5.70
  -1  -6  -8   -3.70    4.20
  -1  -6  -8   -0.90    4.60
  -1  -6  -8    6.70    4.90
   1   6   8   -3.90    5.00
   1   6   8    1.70    5.00
   1   6   8   -2.30    4.80
   8  -7  -8    0.00    4.40
   8  -7  -8    4.00    4.50
  -8   7   8   -7.00    5.80
  -8   7   8   -2.40    5.30
   7  -7  -8    3.90    4.40
   7  -7  -8    0.50    3.80
  -7   7   8   -1.50    5.60
  -7   7   8   -1.80    4.70
   6  -7  -8    2.80    4.30
   6  -7  -8    0.60    3.40
  -6   7   8    4.20    5.40
  -6   7   8   -3.10    5.30
   5  -7  -8    4.20    5.30
   5  -7  -8    4.10    3.70
   5  -7  -8    4.20    5.40
  -5   7   8    5.10    4.90
  -5   7   8    5.00    6.60
  -5   7   8   11.60    5.20
   4  -7  -8    0.70    4.00
   4  -7  -8    0.30    3.70
   4  -7  -8    3.90    4.90
  -4   7   8    0.20    4.90
  -4   7   8    3.70    4.60
   3  -7  -8    9.70    5.10
   3  -7  -8    9.80    5.10
   3  -7  -8   15.90    5.40
  -3   7   8   18.90    7.10
  -3   7   8    9.30    6.20
   2  -7  -8   -3.00    5.20
   2  -7  -8   -1.80    5.00
   2  -7  -8   -1.30    4.00
  -2   7   8    0.10    5.40
  -2   7   8   -4.90    4.40
   1  -7  -8   22.10    6.70
   1  -7  -8   14.30    6.10
  -1   7   8   15.10    7.00
  -1   7   8    0.70    6.30
   0  -7  -8   33.50    8.00
   7  -8  -8    6.10    4.50
  -7   8   8   -3.20    5.80
  -7   8   8    8.00    7.40
   6  -8  -8   22.30    6.20
  -6   8   8   13.30    6.80
  -6   8   8   20.00    8.20
   5  -8  -8    9.60    4.20
   5  -8  -8    2.40    5.70
  -5   8   8   -1.80    5.40
  -5   8   8    6.90    6.70
   4  -8  -8    1.00    4.90
   4  -8  -8   -0.80    4.60
  -4   8   8    0.30    5.80
  -4   8   8    2.10    5.00
   3  -8  -8   -3.20    4.20
   3  -8  -8   -7.50    5.60
  -3   8   8   -0.60    6.20
  -3   8   8    0.10    6.50
  -3   9  -9   35.20    8.60
  -3   9  -9   36.30    9.10
  -3   9  -9   36.70    7.70
   3  -9   9   28.80    9.40
   3  -9   9   56.59    9.40
   3  -9   9   37.80    9.30
  -4   9  -9    9.00    6.10
  -4   9  -9    2.70    5.90
  -4   9  -9   19.30    7.40
   4  -9   9   21.90    9.30
   4  -9   9    9.20    7.30
   4  -9   9   -1.80    7.40
   0   8  -9    2.90    5.00
   0   8  -9   13.30    6.40
   0   8  -9    7.40    5.80
   0  -8   9    8.50    7.10
   0  -8   9    7.20    6.80
  -1   8  -9   29.30    7.00
  -1   8  -9   34.20    7.40
  -1   8  -9   41.90    8.30
   1  -8   9   32.50    9.10
   1  -8   9   38.90    9.20
   1  -8   9   48.00    9.20
  -2   8  -9   48.70    9.10
  -2   8  -9   63.29    9.60
  -2   8  -9   44.90    7.90
   2  -8   9   79.09   13.40
   2  -8   9   56.89    9.80
   2  -8   9   74.99   11.40
  -3   8  -9   36.80    7.90
  -3   8  -9   34.50    8.00
  -3   8  -9   39.60    7.30
   3  -8   9   25.60    7.60
   3  -8   9   27.60    7.20
   3  -8   9   56.49   11.90
  -4   8  -9    8.80    4.30
  -4   8  -9    8.20    6.40
  -4   8  -9    3.40    5.30
   4  -8   9   10.60    5.30
   4  -8   9   18.00    7.40
   4  -8   9   -0.70    5.10
  -5   8  -9   34.70    8.00
  -5   8  -9   38.80    8.50
   5  -8   9   48.20   10.70
   5  -8   9   34.60    8.90
  -6   8  -9   47.60    9.50
  -6   8  -9   62.69   10.10
   6  -8   9   69.99   12.10
   6  -8   9   39.00    8.70
   2   7  -9    5.70    6.00
   2   7  -9    6.30    5.30
  -2  -7   9    2.60    5.70
  -2  -7   9    9.80    8.50
   1   7  -9    5.50    5.20
   1   7  -9   -2.10    4.70
  -1  -7   9    2.50    5.90
  -1  -7   9    1.30    5.70
   0   7  -9   75.39   10.50
   0   7  -9   74.69   10.00
   0   7  -9   78.79   10.40
   0  -7   9  103.39   13.20
   0  -7   9   70.39    9.50
   0  -7   9   45.40    9.60
  -1   7  -9   76.79    9.40
  -1   7  -9   68.09    9.90
  -1   7  -9   66.19    9.50
   1  -7   9   65.39   10.00
   1  -7   9   59.69   10.50
   1  -7   9   42.90    7.20
  -2   7  -9   30.50    6.10
  -2   7  -9   18.90    6.10
  -2   7  -9   24.00    6.40
   2  -7   9   24.50    7.10
   2  -7   9   27.90    6.80
   2  -7   9   27.30    8.00
  -3   7  -9    0.40    3.90
  -3   7  -9    9.80    5.00
   3  -7   9   -4.80    3.90
   3  -7   9    2.40    3.90
   3  -7   9    6.80    5.10
  -4   7  -9    1.00    3.90
  -4   7  -9    7.90    5.10
   4  -7   9    4.40    5.20
   4  -7   9    8.30    8.80
   4  -7   9    7.80    4.80
  -5   7  -9   34.00    7.30
  -5   7  -9   38.50    7.80
   5  -7   9   28.90    7.40
   5  -7   9   27.80    7.40
  -6   7  -9  123.19   12.60
  -6   7  -9  119.09   13.10
   6  -7   9   99.39   13.40
   6  -7   9   91.79   12.10
  -7   7  -9    2.50    5.70
  -7   7  -9   -4.00    5.10
   7  -7   9   -1.00    5.50
   3   6  -9   27.10    6.10
   3   6  -9   43.10    8.30
  -3  -6   9   21.50    8.40
  -3  -6   9   34.30    8.60
   2   6  -9   59.79    9.30
   2   6  -9   50.49    8.00
  -2  -6   9   53.89   10.70
  -2  -6   9   55.69   10.30
   1   6  -9   46.60    8.20
   1   6  -9   55.79    8.40
  -1  -6   9   36.60    8.50
  -1  -6   9   43.80    9.00
   0   6  -9  100.89   11.00
   0   6  -9  107.09   11.40
   0  -6   9   99.59    9.60
   0  -6   9  107.49   13.40
   0  -6   9  126.09   13.50
  -1   6  -9   12.50    4.90
  -1   6  -9   10.10    4.60
   1  -6   9    4.30    4.10
   1  -6   9    8.60    5.50
   1  -6   9   10.70    5.10
  -2   6  -9   18.20    5.40
  -2   6  -9   19.00    5.40
   2  -6   9   15.00    5.30
   2  -6   9    7.60    4.10
   2  -6   9   21.50    6.20
  -3   6  -9    7.70    4.20
  -3   6  -9    6.60    4.00
   3  -6   9    7.70    5.00
   3  -6   9    6.80    4.80
   3  -6   9    2.30    4.70
  -4   6  -9   -1.20    3.10
  -4   6  -9   -0.40    4.00
   4  -6   9    0.10    3.70
   4  -6   9   -5.30    4.10
  -5   6  -9   29.80    6.90
  -5   6  -9   20.50    5.80
   5  -6   9   21.50    6.70
   5  -6   9   29.50    7.30
  -6   6  -9   44.60    8.70
  -6   6  -9   38.80    6.90
  -6   6  -9   59.69    8.50
   6  -6   9   43.80    9.10
   6  -6   9   43.60    8.40
  -7   6  -9    7.50    6.40
  -7   6  -9   19.80    7.40
   7  -6   9    9.70    8.90
   7  -6   9   17.00    7.90
   4   5  -9   44.00    8.10
   4   5  -9   32.40    7.50
  -4  -5   9   34.20    8.10
  -4  -5   9   34.80    9.60
  -4  -5   9   23.70    8.10
   3   5  -9   49.20    8.40
   3   5  -9   47.50    8.40
  -3  -5   9   42.20    8.50
  -3  -5   9   56.39   10.20
   2   5  -9   10.00    4.90
   2   5  -9   14.30    5.60
  -2  -5   9    9.70    5.50
  -2  -5   9    3.60    5.00
   1   5  -9    3.80    2.70
   1   5  -9   -1.30    3.10
   1   5  -9    4.00    3.70
  -1  -5   9    3.50    4.30
  -1  -5   9    3.00    3.30
  -1  -5   9    7.00    4.80
   0   5  -9   11.10    3.50
   0   5  -9   14.10    4.80
   0   5  -9   14.70    4.60
   0  -5   9   14.00    5.30
   0  -5   9    5.60    4.60
   0  -5   9   10.70    3.50
  -1   5  -9   87.79    9.40
  -1   5  -9   68.29    6.70
  -1   5  -9   95.49    9.40
   1  -5   9   93.29   10.30
   1  -5   9   65.39    9.50
   1  -5   9   77.09    8.40
  -2   5  -9   41.50    5.70
  -2   5  -9   41.10    6.60
  -2   5  -9   41.30    7.00
   2  -5   9   48.00    7.40
   2  -5   9   33.50    7.20
   2  -5   9   35.30    6.10
  -3   5  -9    4.70    3.70
  -3   5  -9    6.10    3.70
  -3   5  -9    7.20    3.70
   3  -5   9    8.70    4.20
   3  -5   9   13.50    5.30
   3  -5   9   15.80    5.00
  -4   5  -9    0.30    3.30
  -4   5  -9    1.60    3.10
  -4   5  -9   -2.80    3.30
   4  -5   9    0.90    3.70
   4  -5   9    1.60    4.30
  -5   5  -9   23.30    5.20
  -5   5  -9   20.40    5.00
  -5   5  -9   16.60    5.40
   5  -5   9   23.60    6.60
   5  -5   9   22.30    5.20
   5  -5   9    6.60    5.00
  -6   5  -9   52.19    8.90
  -6   5  -9   50.39    8.10
   6  -5   9   59.19   10.40
   6  -5   9   56.99    7.80
   6  -5   9   54.29    9.10
  -7   5  -9   36.20    8.40
  -7   5  -9   40.30    8.00
   7  -5   9   44.60   10.30
   7  -5   9   34.40   11.50
   7  -5   9   48.70    8.20
   5   4  -9   63.29    9.30
   5   4  -9   62.59    9.50
   5   4  -9   50.69    9.00
  -5  -4   9   71.39   11.20
  -5  -4   9   59.89   11.40
  -5  -4   9   66.69   11.80
   4   4  -9   56.39    7.80
   4   4  -9   67.99    9.30
   4   4  -9   69.29    9.40
  -4  -4   9   65.89    9.80
  -4  -4   9   66.59   10.90
  -4  -4   9   61.39   10.10
   3   4  -9    5.60    4.00
   3   4  -9    8.10    4.80
   3   4  -9    8.70    4.10
  -3  -4   9    6.60    3.80
  -3  -4   9   10.50    5.70
  -3  -4   9    6.20    4.70
   2   4  -9   41.00    5.80
   2   4  -9   38.20    6.50
   2   4  -9   48.90    7.30
  -2  -4   9   64.19    9.10
  -2  -4   9   40.00    8.00
   1   4  -9   29.00    5.80
   1   4  -9   32.10    5.90
   1   4  -9   34.80    5.40
  -1  -4   9   38.40    5.00
  -1  -4   9   35.60    7.10
  -1  -4   9   24.20    6.40
   0   4  -9  122.89    9.20
   0   4  -9  124.49    8.60
   0   4  -9  127.59    8.60
   0  -4   9  123.59   12.30
   0  -4   9  113.09    7.80
   0  -4   9  117.29   10.10
  -1   4  -9  267.07   14.10
  -1   4  -9  269.97   13.00
  -1   4  -9  290.37   13.70
   1  -4   9  272.07   14.80
   1  -4   9  304.37   16.40
   1  -4   9  282.47   13.20
  -2   4  -9   31.90    5.20
  -2   4  -9   45.90    6.80
  -2   4  -9   32.40    5.70
   2  -4   9   42.60    6.80
   2  -4   9   30.00    6.50
   2  -4   9   37.00    6.10
  -3   4  -9   13.70    3.00
  -3   4  -9   12.50    4.20
  -3   4  -9    8.10    4.00
  -3   4  -9   20.00    4.60
   3  -4   9   14.50    5.30
   3  -4   9    8.70    3.40
   3  -4   9   12.80    4.50
   3  -4   9   10.60    3.00
  -4   4  -9   57.39    6.60
  -4   4  -9   36.10    4.90
  -4   4  -9   31.80    5.80
  -4   4  -9   43.20    6.90
   4  -4   9   53.69    8.70
   4  -4   9   43.20    7.40
   4  -4   9   52.49    6.40
  -5   4  -9    1.90    4.40
  -5   4  -9    4.70    4.10
   5  -4   9    1.90    4.40
   5  -4   9    7.20    3.90
   5  -4   9    5.50    4.80
  -6   4  -9   65.99    9.40
  -6   4  -9   58.19    9.10
   6  -4   9   64.79    8.50
   6  -4   9   68.59   11.00
   6  -4   9   46.00    9.00
  -7   4  -9   41.00    9.10
  -7   4  -9   38.00    8.00
   7  -4   9   33.60    7.50
   7  -4   9   16.70    7.10
   7  -4   9   26.50    9.70
   6   3  -9   11.40    4.80
   6   3  -9   22.20    7.30
   6   3  -9   -0.60    4.90
  -6  -3   9   16.20    6.50
  -6  -3   9   34.10    9.10
   5   3  -9  142.39   11.60
   5   3  -9  166.98   12.50
   5   3  -9  135.79   13.00
  -5  -3   9  134.99   11.40
  -5  -3   9  139.79   15.50
  -5  -3   9  136.49   14.80
   4   3  -9   67.79    8.50
   4   3  -9   78.29    8.80
   4   3  -9   91.39    9.90
  -4  -3   9   91.39   11.40
  -4  -3   9   93.59   10.20
  -4  -3   9   97.09   12.50
   3   3  -9   16.50    4.40
   3   3  -9   15.30    4.60
   3   3  -9    9.10    3.90
  -3  -3   9   14.00    5.00
  -3  -3   9   11.50    4.50
  -3  -3   9    4.80    4.20
   2   3  -9   29.30    5.40
   2   3  -9   40.50    6.40
   2   3  -9   38.10    6.20
  -2  -3   9   26.10    6.50
  -2  -3   9   36.10    6.70
   1   3  -9  247.48   12.30
   1   3  -9  268.87   13.40
   1   3  -9  237.38   12.40
  -1  -3   9  239.48   14.40
  -1  -3   9  213.98   10.00
  -1  -3   9  236.08   14.10
   0   3  -9  142.19    9.10
   0   3  -9  121.99    8.20
   0   3  -9  130.89    9.20
   0  -3   9  161.48   11.40
   0  -3   9  150.58   10.70
   0  -3   9  130.59    8.00
  -1   3  -9   77.29    8.20
  -1   3  -9   81.99    7.50
  -1   3  -9   75.49    4.20
  -1   3  -9   90.49    7.30
   1  -3   9   62.49    8.50
   1  -3   9   86.29    9.20
   1  -3   9   82.69    7.70
  -2   3  -9   37.20    3.80
  -2   3  -9   27.70    5.10
  -2   3  -9   42.80    6.30
  -2   3  -9   41.80    5.20
   2  -3   9   39.60    6.00
   2  -3   9   33.80    6.40
   2  -3   9   25.40    5.40
   2  -3   9   39.60    4.50
  -3   3  -9   -2.00    2.60
  -3   3  -9   -0.10    1.70
  -3   3  -9    0.60    3.10
  -3   3  -9    3.30    2.60
   3  -3   9   -2.00    3.30
   3  -3   9    3.80    3.10
   3  -3   9    0.40    1.90
   3  -3   9   -0.60    3.10
  -4   3  -9  195.88   12.40
  -4   3  -9  191.78   10.00
  -4   3  -9  167.68    9.10
  -4   3  -9  208.98   13.00
   4  -3   9  183.08   12.50
   4  -3   9  193.08   14.50
   4  -3   9  185.98   10.90
  -5   3  -9  161.68   12.30
  -5   3  -9  172.28   10.40
  -5   3  -9  152.88   12.10
   5  -3   9  179.88   13.10
   5  -3   9  159.98   13.50
   5  -3   9  151.18   10.90
  -6   3  -9   -2.20    3.20
  -6   3  -9    0.90    4.40
  -6   3  -9    6.40    5.40
   6  -3   9    6.10    5.30
   6  -3   9    6.00    5.90
   6  -3   9    3.70    3.90
  -7   3  -9   -0.60    3.90
  -7   3  -9   -0.70    5.70
  -7   3  -9   -0.20    4.80
   7  -3   9    1.60    8.50
   7  -3   9    3.90    5.60
   7  -3   9   -3.80    5.10
   7   2  -9   -4.50    4.60
   7   2  -9    0.70    4.80
  -7  -2   9    1.90    6.40
  -7  -2   9    0.80    6.20
   6   2  -9   14.10    5.80
   6   2  -9   14.90    5.50
   6   2  -9   15.50    5.70
  -6  -2   9   20.10    7.20
  -6  -2   9   26.80    7.50
   5   2  -9   20.30    4.90
   5   2  -9   36.80    7.40
   5   2  -9   33.10    6.60
  -5  -2   9   18.80    5.30
  -5  -2   9   26.90    6.50
  -5  -2   9   28.80    7.60
   4   2  -9  107.99    9.30
   4   2  -9   94.09    9.40
   4   2  -9  110.39   10.40
  -4  -2   9  109.29   12.10
  -4  -2   9  120.99   12.40
  -4  -2   9  118.99   11.30
   3   2  -9    1.40    3.00
   3   2  -9    0.30    2.70
   3   2  -9    1.20    2.50
  -3  -2   9    7.40    3.70
  -3  -2   9    3.50    3.70
  -3  -2   9   -0.10    3.10
   2   2  -9  181.08   10.70
   2   2  -9  182.88   10.90
   2   2  -9  173.78   10.00
  -2  -2   9  165.38   11.40
  -2  -2   9  173.78   12.30
  -2  -2   9  175.18    7.50
  -2  -2   9  200.88   11.70
   1   2  -9  230.38   12.30
   1   2  -9  268.17   12.00
   1   2  -9  264.87    8.40
   1   2  -9  271.47   13.20
  -1  -2   9  238.28   14.10
  -1  -2   9  248.58   14.10
  -1  -2   9  240.58   10.10
   0   2  -9    7.00    3.50
   0   2  -9    5.50    1.80
   0   2  -9   10.70    3.50
   0   2  -9   12.30    3.10
   0  -2   9    8.60    2.80
   0  -2   9    2.60    3.70
   0  -2   9    2.10    3.00
  -1   2  -9   41.70    5.80
  -1   2  -9   41.80    5.80
  -1   2  -9   51.19    5.30
  -1   2  -9   41.40    3.90
   1  -2   9   52.89    7.80
   1  -2   9   49.90    6.10
   1  -2   9   46.30    6.50
  -2   2  -9  130.09    9.50
  -2   2  -9  137.69    7.50
  -2   2  -9  134.09    9.40
  -2   2  -9  147.59    7.30
   2  -2   9  140.59    9.50
   2  -2   9  146.19    8.50
   2  -2   9  134.49   10.90
   2  -2   9  138.69    9.30
  -3   2  -9  134.99   10.30
  -3   2  -9  148.79   10.20
  -3   2  -9  138.89    8.00
  -3   2  -9  132.09    7.90
   3  -2   9  107.79   11.80
   3  -2   9  152.58   10.50
   3  -2   9  139.29    8.90
   3  -2   9  148.99    9.20
  -4   2  -9  269.37   12.80
  -4   2  -9  235.48   14.00
  -4   2  -9  274.27   15.10
   4  -2   9  268.47   16.70
   4  -2   9  256.47   13.70
   4  -2   9  267.07   15.80
  -5   2  -9   82.49    8.20
  -5   2  -9   66.39    8.70
  -5   2  -9   92.69   10.30
   5  -2   9   86.99   11.40
   5  -2   9   98.89   10.40
   5  -2   9   71.29    9.60
  -6   2  -9    6.70    4.10
  -6   2  -9    4.00    4.50
  -6   2  -9    0.20    4.40
   6  -2   9    2.30    5.30
   6  -2   9    2.90    7.10
   6  -2   9   -1.80    3.80
  -7   2  -9   -0.90    5.80
  -7   2  -9   -0.20    5.20
  -7   2  -9    3.50    4.20
   7  -2   9    6.30    5.30
   7  -2   9    1.20    6.70
   7   1  -9   14.80    6.20
   7   1  -9    9.30    5.50
  -7  -1   9    3.80    6.10
  -7  -1   9    0.70    3.70
   6   1  -9    8.70    5.40
   6   1  -9   -3.20    3.50
  -6  -1   9    1.80    4.90
  -6  -1   9   -0.10    3.00
   5   1  -9   71.39    8.60
   5   1  -9  110.69   11.70
   5   1  -9   92.69    9.80
  -5  -1   9   87.49   11.10
  -5  -1   9   99.29    9.90
  -5  -1   9  113.19   12.80
   4   1  -9   69.09    7.80
   4   1  -9   85.09    9.00
   4   1  -9   88.49    9.20
  -4  -1   9   68.19    9.90
  -4  -1   9   79.59    8.70
  -4  -1   9   73.79    9.40
   3   1  -9   79.59    7.80
   3   1  -9   78.79    8.40
   3   1  -9   72.39    7.90
   3   1  -9   82.89    4.90
  -3  -1   9   89.79    9.60
  -3  -1   9   80.99    9.20
  -3  -1   9   85.79    9.90
   2   1  -9   53.19    6.60
   2   1  -9   44.70    5.50
   2   1  -9   49.80    6.20
   2   1  -9   46.90    3.70
  -2  -1   9   48.40    7.50
  -2  -1   9   44.50    3.40
  -2  -1   9   45.60    7.00
  -2  -1   9   65.29    7.80
   1   1  -9  107.49    5.60
   1   1  -9   96.19    7.30
   1   1  -9  101.29    6.70
   1   1  -9  103.09    7.90
  -1  -1   9   98.49   10.00
  -1  -1   9   94.69    6.00
  -1  -1   9   99.99    7.60
  -1  -1   9  106.29    9.00
   0   1  -9   47.30    6.00
   0   1  -9   38.90    5.90
   0   1  -9   41.40    4.10
   0   1  -9   36.30    4.20
   0  -1   9   42.70    5.40
   0  -1   9   44.20    6.90
   0  -1   9   50.99    7.60
  -1   1  -9    9.20    3.50
  -1   1  -9   17.30    3.30
  -1   1  -9   15.20    4.00
  -1   1  -9   17.70    2.80
   1  -1   9   11.70    3.80
   1  -1   9    8.80    4.00
   1  -1   9   17.50    4.60
  -2   1  -9    1.30    2.00
  -2   1  -9    0.80    2.50
  -2   1  -9    1.50    1.70
  -2   1  -9    1.60    3.00
   2  -1   9    2.40    2.50
   2  -1   9    5.00    3.60
   2  -1   9   -0.40    3.60
   2  -1   9    2.40    3.40
  -3   1  -9    4.30    2.70
  -3   1  -9    6.90    3.70
  -3   1  -9    9.60    3.80
   3  -1   9   10.10    5.10
   3  -1   9    4.10    4.20
   3  -1   9    3.90    2.80
  -4   1  -9   82.19    8.10
  -4   1  -9   86.29    9.80
  -4   1  -9   86.29    9.20
   4  -1   9   80.39    9.00
   4  -1   9   93.69   11.60
   4  -1   9   74.99   10.20
  -5   1  -9   67.99    9.30
  -5   1  -9   72.49    9.30
  -5   1  -9   61.39    7.60
   5  -1   9   72.89   10.30
   5  -1   9   66.69   10.40
   5  -1   9   72.19    9.50
  -6   1  -9   25.00    6.20
  -6   1  -9   21.50    6.60
  -6   1  -9   18.10    6.70
   6  -1   9   12.10    6.00
   6  -1   9    9.10    6.50
   6  -1   9   17.80    8.50
   8   0  -9   -0.20    4.90
   8   0  -9    2.30    5.60
  -8   0   9   -2.20    5.20
  -8   0   9   -2.40    5.90
  -8   0   9   -4.20    5.30
   7   0  -9    5.30    4.60
   7   0  -9   14.50    6.00
  -7   0   9    9.80    6.00
  -7   0   9   10.60    6.60
   6   0  -9   45.80    7.70
   6   0  -9   32.40    6.70
  -6   0   9   26.90    6.80
  -6   0   9   28.40    7.90
   5   0  -9   37.20    4.90
   5   0  -9   46.80    7.30
   5   0  -9   43.20    6.70
  -5   0   9   47.60    8.70
  -5   0   9   46.60    7.70
  -5   0   9   48.80    6.60
   4   0  -9   10.40    2.80
   4   0  -9    4.40    3.10
   4   0  -9    4.10    3.10
   4   0  -9    9.00    3.80
  -4   0   9    6.90    3.90
  -4   0   9    2.90    3.20
  -4   0   9   11.60    5.00
   3   0  -9    5.50    2.00
   3   0  -9    3.70    2.60
   3   0  -9    3.60    2.60
   3   0  -9    2.70    2.70
  -3   0   9    4.90    3.20
  -3   0   9    5.40    3.10
  -3   0   9    2.70    3.40
   2   0  -9   28.70    5.30
   2   0  -9   23.80    3.70
   2   0  -9   25.60    4.40
   2   0  -9   28.90    3.60
  -2   0   9   31.60    5.30
  -2   0   9   29.30    3.30
  -2   0   9   20.90    5.20
  -2   0   9   24.60    5.20
   1   0  -9  142.89    7.20
   1   0  -9  143.39    9.60
   1   0  -9  156.58    8.80
   1   0  -9  134.89    7.10
  -1   0   9  131.39   10.10
  -1   0   9  131.29   10.20
  -1   0   9  165.68    8.70
  -1   0   9  144.89    7.70
   0   0  -9  288.57   10.10
   0   0  -9  287.27   12.70
   0   0  -9  289.37   11.60
   0   0  -9  294.67   14.30
   0   0   9  265.27   12.40
   0   0   9  268.97   10.90
   0   0   9  272.67   15.20
   0   0   9  286.07   14.90
  -1   0  -9   32.80    5.10
  -1   0  -9   40.00    4.80
  -1   0  -9   31.30    5.50
   1   0   9   40.40    5.70
   1   0   9   38.50    6.80
   1   0   9   33.50    6.00
  -2   0  -9   25.10    4.30
  -2   0  -9   32.50    5.30
  -2   0  -9   31.80    5.60
   2   0   9   34.10    6.00
   2   0   9   25.20    5.20
   2   0   9   24.20    6.60
  -3   0  -9   38.10    6.60
  -3   0  -9   47.50    6.90
  -3   0  -9   46.70    6.10
   3   0   9   46.20    8.10
   3   0   9   36.50    6.40
   3   0   9   44.20    7.50
  -4   0  -9    3.60    4.00
  -4   0  -9   11.80    4.80
  -4   0  -9    9.30    3.90
   4   0   9    6.00    5.40
   4   0   9   14.90    5.00
   4   0   9    3.70    5.30
  -5   0  -9   87.79    9.40
  -5   0  -9   82.89    9.90
  -5   0  -9   74.29    9.80
   5   0   9   87.69   11.90
   5   0   9   76.79   11.40
   5   0   9   97.19   11.40
  -6   0  -9   19.20    7.80
  -6   0  -9   20.90    6.10
  -6   0  -9   15.70    6.40
   6   0   9   30.70   10.40
   6   0   9   23.80    8.40
   6   0   9   15.00    6.40
   8  -1  -9   -3.60    4.40
   8  -1  -9    2.30    4.80
  -8   1   9    1.40    6.20
  -8   1   9   -2.00    4.90
  -8   1   9   -0.60    5.30
   7  -1  -9   35.40    6.50
   7  -1  -9   37.60    7.40
   7  -1  -9   50.69    8.60
  -7   1   9   47.80    9.10
  -7   1   9   23.30    6.70
   6  -1  -9  164.38   12.20
   6  -1  -9  189.08   12.20
  -6   1   9  151.48   12.50
  -6   1   9  135.59   13.90
   5  -1  -9   -1.00    2.00
   5  -1  -9    1.00    2.50
   5  -1  -9    2.70    3.10
  -5   1   9   -1.90    3.90
  -5   1   9    1.10    3.00
  -5   1   9    2.00    3.70
   4  -1  -9   -0.40    2.50
   4  -1  -9    3.30    2.10
   4  -1  -9    1.50    2.80
  -4   1   9   -0.80    2.90
  -4   1   9   -1.30    3.00
  -4   1   9   -0.20    3.20
   3  -1  -9   32.20    3.30
   3  -1  -9   32.60    5.40
   3  -1  -9   32.10    4.60
   3  -1  -9   33.20    5.20
  -3   1   9   26.50    5.00
  -3   1   9   33.90    3.20
  -3   1   9   24.10    5.80
  -3   1   9   36.00    5.80
   2  -1  -9   42.00    5.30
   2  -1  -9   28.90    5.30
   2  -1  -9   35.00    4.40
  -2   1   9   41.20    4.50
  -2   1   9   27.90    6.00
  -2   1   9   19.70    5.30
  -2   1   9   28.10    4.50
   1  -1  -9  249.38   11.50
   1  -1  -9  246.08   11.00
   1  -1  -9  264.37   13.50
  -1   1   9  246.48   14.30
  -1   1   9  257.97   11.30
  -1   1   9  257.37   10.70
  -1   1   9  246.48   14.40
   0  -1  -9  220.88   10.40
   0  -1  -9  219.68   10.40
   0  -1  -9  206.88   12.10
   0   1   9  213.78    8.70
   0   1   9  219.38   13.80
   0   1   9  212.48   11.00
   0   1   9  190.68   12.40
  -1  -1  -9   10.90    4.10
  -1  -1  -9   23.80    4.30
  -1  -1  -9   16.40    3.70
   1   1   9   23.40    5.00
   1   1   9   20.50    4.80
   1   1   9   14.10    4.70
  -2  -1  -9   -2.10    2.30
  -2  -1  -9   -0.30    3.00
  -2  -1  -9    1.40    3.20
   2   1   9    2.00    4.10
   2   1   9    1.90    3.40
   2   1   9    2.60    3.10
  -3  -1  -9    2.30    3.20
  -3  -1  -9   -2.80    2.70
  -3  -1  -9    0.90    3.00
   3   1   9    1.10    4.30
   3   1   9   -0.80    3.80
  -4  -1  -9   68.49    8.60
  -4  -1  -9   73.19    8.60
  -4  -1  -9   44.90    7.90
   4   1   9   60.19   10.70
   4   1   9   50.59    9.40
   4   1   9   61.69    8.90
  -5  -1  -9   12.10    6.40
  -5  -1  -9    4.30    5.40
  -5  -1  -9   15.10    5.60
   5   1   9   12.70    7.50
   5   1   9    9.50    5.60
   5   1   9   11.10    6.40
   8  -2  -9   -0.60    4.70
   8  -2  -9    0.40    4.70
   8  -2  -9    0.40    3.80
  -8   2   9   -1.90    5.00
  -8   2   9    1.70    4.60
  -8   2   9   -0.10    4.90
   7  -2  -9   34.90    7.30
   7  -2  -9   31.60    5.70
   7  -2  -9   26.00    6.20
  -7   2   9   28.30    7.50
  -7   2   9   29.30    7.20
  -7   2   9   20.90    6.50
   6  -2  -9   34.10    6.60
   6  -2  -9   34.40    5.40
   6  -2  -9   43.40    7.30
  -6   2   9   24.50    6.80
  -6   2   9   19.50    6.20
   5  -2  -9   70.19    7.60
   5  -2  -9   85.39    9.30
   5  -2  -9   72.79    7.20
  -5   2   9   66.39    7.40
  -5   2   9   59.99    9.20
  -5   2   9   69.29    8.80
   4  -2  -9   10.00    3.70
   4  -2  -9    7.60    3.10
   4  -2  -9   13.80    3.60
  -4   2   9   12.90    4.30
  -4   2   9    7.90    3.40
  -4   2   9    8.50    4.40
   3  -2  -9  139.29    8.70
   3  -2  -9  151.78    8.60
   3  -2  -9  167.28   10.80
   3  -2  -9  153.68    7.10
  -3   2   9  155.38    7.20
  -3   2   9  166.98   10.80
  -3   2   9  162.18    9.70
  -3   2   9  143.79   11.60
   2  -2  -9   74.09    5.80
   2  -2  -9   71.09    5.50
   2  -2  -9   81.49    8.30
   2  -2  -9   86.69    6.60
  -2   2   9   78.19    6.30
  -2   2   9   73.79    5.70
  -2   2   9   77.19    8.70
  -2   2   9   72.59    9.00
   1  -2  -9   36.70    6.20
   1  -2  -9   37.50    5.20
   1  -2  -9   47.50    5.20
  -1   2   9   41.50    6.90
  -1   2   9   36.60    4.20
  -1   2   9   49.60    6.20
  -1   2   9   45.40    7.40
   0  -2  -9   61.99    7.80
   0  -2  -9   79.09    6.00
   0  -2  -9   71.49    7.20
   0   2   9   93.39    9.90
   0   2   9   78.29    8.20
   0   2   9   68.79    9.20
  -1  -2  -9   -3.70    2.30
  -1  -2  -9    3.10    2.80
  -1  -2  -9   -1.10    3.00
   1   2   9    0.20    2.90
   1   2   9   -0.10    4.00
   1   2   9   -1.50    3.30
  -2  -2  -9   20.90    4.10
  -2  -2  -9   29.90    5.60
  -2  -2  -9   12.80    4.80
   2   2   9   13.90    5.10
   2   2   9   13.50    6.00
   2   2   9   24.80    6.20
  -3  -2  -9   67.29    8.90
  -3  -2  -9   96.89    9.70
   3   2   9   90.29   11.60
   3   2   9  103.59   11.90
  -4  -2  -9   21.10    6.40
  -4  -2  -9   26.50    6.40
   4   2   9   13.80    7.30
   4   2   9   23.70    7.70
  -5  -2  -9    0.80    3.20
  -5  -2  -9   -0.20    5.10
   5   2   9    3.30    7.60
   9  -3  -9    3.90    6.10
   9  -3  -9    0.90    4.50
   9  -3  -9    1.30    5.30
  -9   3   9   -1.20    5.50
  -9   3   9   -6.80    5.70
  -9   3   9   -1.30    6.20
   8  -3  -9    9.60    4.40
   8  -3  -9   -0.10    4.30
   8  -3  -9    5.00    5.20
  -8   3   9   14.70    6.10
  -8   3   9    4.60    4.00
  -8   3   9    9.60    6.10
   7  -3  -9    3.50    3.50
   7  -3  -9    2.40    3.80
   7  -3  -9    1.90    4.30
  -7   3   9    5.20    4.80
  -7   3   9    4.10    4.90
  -7   3   9    4.60    5.40
   6  -3  -9   89.19   10.10
   6  -3  -9   66.09    7.60
   6  -3  -9   62.39    7.30
  -6   3   9   61.19    9.60
  -6   3   9   79.39    9.90
   5  -3  -9  128.39    9.00
   5  -3  -9  125.59   10.20
   5  -3  -9  146.49    9.10
  -5   3   9  146.19   10.90
  -5   3   9  102.89   11.70
  -5   3   9  125.99    8.90
   4  -3  -9    1.00    2.50
   4  -3  -9    1.60    3.10
   4  -3  -9    0.00    1.90
  -4   3   9   -5.00    3.00
  -4   3   9    2.10    3.00
  -4   3   9   -0.90    2.90
   3  -3  -9  158.18    8.40
   3  -3  -9  144.99    9.40
   3  -3  -9  141.89    7.80
   3  -3  -9  155.98   10.60
  -3   3   9  143.39   12.00
  -3   3   9  140.39    9.50
  -3   3   9  151.88   11.10
   2  -3  -9   18.20    4.80
   2  -3  -9   16.70    3.90
   2  -3  -9   16.80    3.00
   2  -3  -9   23.00    4.60
  -2   3   9   16.10    5.30
  -2   3   9   18.60    4.30
  -2   3   9   21.00    4.00
  -2   3   9   14.10    4.80
   1  -3  -9   20.80    5.20
   1  -3  -9   15.90    4.20
   1  -3  -9   22.80    3.50
   1  -3  -9   20.80    4.60
  -1   3   9   21.40    4.90
  -1   3   9   25.10    6.00
  -1   3   9   25.90    6.50
   0  -3  -9   43.00    6.90
   0  -3  -9   39.20    5.90
   0   3   9   19.60    5.60
   0   3   9   46.60    7.80
   0   3   9   47.30    6.90
  -1  -3  -9    1.20    3.20
  -1  -3  -9    2.30    3.90
   1   3   9   -3.20    3.90
   1   3   9   -3.30    3.10
   1   3   9    0.20    3.70
  -2  -3  -9   26.80    5.70
   2   3   9   24.30    5.90
   2   3   9   19.60    6.20
   2   3   9   22.30    6.90
  -3  -3  -9   88.59   10.80
  -3  -3  -9   94.69   10.50
   3   3   9  114.89   13.40
   3   3   9   83.49   11.10
  -4  -3  -9    3.30    5.50
  -4  -3  -9   11.90    5.40
   4   3   9    7.40    7.00
   4   3   9    2.20    6.00
   9  -4  -9    9.70    6.30
   9  -4  -9    2.70    5.20
   9  -4  -9   12.10    6.00
  -9   4   9   17.10    7.40
  -9   4   9    2.10    6.10
  -9   4   9    4.60    6.30
   8  -4  -9    2.90    4.80
   8  -4  -9    5.80    4.40
   8  -4  -9   11.70    5.30
  -8   4   9    9.10    6.10
  -8   4   9    9.00    5.50
  -8   4   9   10.60    6.80
   7  -4  -9    0.50    3.70
   7  -4  -9    1.00    3.10
   7  -4  -9    1.90    3.90
  -7   4   9   -2.50    4.10
  -7   4   9    1.80    4.20
  -7   4   9    3.20    5.10
   6  -4  -9   22.00    5.70
   6  -4  -9   19.60    4.50
   6  -4  -9   23.80    5.20
  -6   4   9   35.60    7.20
  -6   4   9   25.70    5.60
  -6   4   9   23.40    7.00
   5  -4  -9   80.79    9.10
   5  -4  -9   70.39    7.10
   5  -4  -9   57.49    7.20
  -5   4   9   57.29    9.60
  -5   4   9   51.49    7.60
  -5   4   9   65.59    7.80
   4  -4  -9    4.00    3.10
   4  -4  -9   11.60    4.40
   4  -4  -9    7.70    3.00
   4  -4  -9    5.70    3.30
  -4   4   9   12.50    4.40
  -4   4   9    8.80    5.40
  -4   4   9    5.70    3.50
   3  -4  -9   65.09    7.70
   3  -4  -9   76.39    7.10
   3  -4  -9   70.39    8.30
  -3   4   9   66.89    8.50
  -3   4   9   65.59    7.20
  -3   4   9   68.59    9.50
   2  -4  -9  116.69    9.00
   2  -4  -9  113.69    8.10
   2  -4  -9  120.99   10.40
  -2   4   9  127.69    9.20
  -2   4   9  128.09   10.90
  -2   4   9  117.89   12.30
   1  -4  -9   94.79    9.80
   1  -4  -9   76.59    8.40
   1  -4  -9   68.49    7.40
  -1   4   9   70.69    8.50
  -1   4   9   66.39    9.40
  -1   4   9   67.49    9.50
   0  -4  -9    4.10    3.60
   0  -4  -9    1.40    3.70
   0  -4  -9   -0.20    3.40
   0   4   9    2.70    4.50
   0   4   9    6.40    5.10
   0   4   9    4.30    4.70
  -1  -4  -9    3.30    3.50
  -1  -4  -9    5.60    4.40
  -1  -4  -9    7.30    4.30
   1   4   9    2.00    4.80
   1   4   9    3.40    4.80
   1   4   9    1.90    4.20
  -2  -4  -9   -0.60    5.20
  -2  -4  -9   -7.50    4.30
  -2  -4  -9    1.50    3.90
   2   4   9    3.10    6.40
   2   4   9   -0.70    5.90
  -3  -4  -9    3.60    4.70
  -3  -4  -9   10.60    5.70
  -3  -4  -9   12.70    5.50
   3   4   9    8.70    7.10
   3   4   9    1.60    5.90
   9  -5  -9   12.40    6.40
   9  -5  -9   12.50    5.80
   9  -5  -9    4.10    5.20
  -9   5   9   -0.20    6.30
  -9   5   9    6.80    6.30
  -9   5   9   -4.60    6.30
   8  -5  -9   14.80    5.90
   8  -5  -9   14.70    5.40
   8  -5  -9   16.20    5.30
  -8   5   9   23.50    7.40
  -8   5   9    9.10    6.40
  -8   5   9   19.00    8.70
   7  -5  -9   15.30    5.30
   7  -5  -9   23.20    5.40
  -7   5   9   14.20    6.20
  -7   5   9   11.20    6.40
   6  -5  -9   13.00    4.80
   6  -5  -9    8.60    4.30
  -6   5   9    5.10    4.80
  -6   5   9    6.90    5.70
   5  -5  -9   14.90    5.00
   5  -5  -9   14.60    4.70
  -5   5   9   11.20    5.00
  -5   5   9   18.80    6.50
  -5   5   9    7.60    3.80
   4  -5  -9   14.60    4.60
   4  -5  -9   10.00    4.20
   4  -5  -9   12.90    4.50
  -4   5   9   17.70    5.60
  -4   5   9   10.60    5.70
  -4   5   9   10.00    4.20
   3  -5  -9   56.49    7.10
   3  -5  -9   61.49    8.10
   3  -5  -9   54.29    7.60
  -3   5   9   55.99    9.70
  -3   5   9   58.69    8.70
   2  -5  -9  103.99   10.90
   2  -5  -9   78.89    8.60
   2  -5  -9  119.59    9.80
  -2   5   9  118.69   12.20
  -2   5   9  114.69   10.90
  -2   5   9   98.29   12.10
   1  -5  -9    0.80    3.90
   1  -5  -9   19.20    5.40
   1  -5  -9   24.70    5.90
  -1   5   9   17.00    6.10
  -1   5   9   12.60    6.10
  -1   5   9   12.40    4.80
   0  -5  -9    8.50    4.90
   0  -5  -9    9.60    4.90
   0  -5  -9   14.90    6.30
   0   5   9    4.10    5.40
   0   5   9    9.90    5.90
   0   5   9    5.40    4.60
  -1  -5  -9    5.90    5.00
  -1  -5  -9    8.40    4.90
  -1  -5  -9    1.80    4.30
   1   5   9   -0.80    6.50
   1   5   9    8.70    5.80
   1   5   9    0.20    5.60
  -2  -5  -9    1.20    4.20
  -2  -5  -9    7.00    6.30
  -2  -5  -9   -0.30    4.80
   2   5   9   -1.40    7.00
   2   5   9    8.40    8.60
   8  -6  -9   15.90    5.60
   8  -6  -9   18.50    6.10
  -8   6   9    7.90    6.70
  -8   6   9    5.10    6.60
   7  -6  -9   14.80    5.30
   7  -6  -9   12.70    5.50
  -7   6   9    3.80    5.10
  -7   6   9   14.30    6.80
   6  -6  -9    3.00    3.80
   6  -6  -9    5.70    4.30
  -6   6   9    5.40    6.10
  -6   6   9    4.20    4.60
   5  -6  -9    2.50    3.50
   5  -6  -9    3.30    3.60
  -5   6   9   -5.90    4.40
  -5   6   9    3.70    4.40
  -5   6   9    1.20    3.90
   4  -6  -9    2.80    4.10
   4  -6  -9   -0.10    3.60
   4  -6  -9    3.50    3.70
  -4   6   9   -1.70    5.00
  -4   6   9   -1.80    4.20
   3  -6  -9   19.20    5.50
   3  -6  -9   20.90    5.50
   3  -6  -9   30.90    6.80
  -3   6   9   35.70    8.70
  -3   6   9   27.00    6.90
   2  -6  -9   19.10    5.90
   2  -6  -9   19.20    5.60
   2  -6  -9   24.40    6.40
  -2   6   9   17.50    6.70
  -2   6   9   31.00    8.60
   1  -6  -9    4.70    4.80
   1  -6  -9    3.60    4.70
   1  -6  -9    0.00    5.30
  -1   6   9    3.60    5.30
  -1   6   9    6.50    5.50
  -1   6   9    8.00    6.40
   0  -6  -9   -1.00    2.60
   0  -6  -9    0.50    4.60
   0  -6  -9    2.20    5.70
   0   6   9    7.90    5.90
   0   6   9    2.60    6.00
   0   6   9   -1.50    5.90
   7  -7  -9   30.20    7.50
   7  -7  -9   31.50    7.20
  -7   7   9   31.10    7.90
  -7   7   9   31.30    9.70
   6  -7  -9    7.40    4.50
   6  -7  -9    4.60    4.60
  -6   7   9   -1.90    5.70
  -6   7   9    7.80    5.90
   5  -7  -9   -2.20    2.80
   5  -7  -9    5.90    3.90
   5  -7  -9    2.00    5.90
  -5   7   9    3.30    5.80
  -5   7   9   10.60    6.90
   4  -7  -9    0.60    5.30
   4  -7  -9    0.80    3.70
   4  -7  -9    6.20    4.70
  -4   7   9    7.20    5.30
  -4   7   9   14.20    7.40
   3  -7  -9    1.80    4.60
   3  -7  -9    3.70    5.30
   3  -7  -9   -3.00    3.90
  -3   7   9   -2.40    5.40
  -3   7   9   -0.70    6.00
   2  -7  -9    8.10    5.40
   2  -7  -9    7.50    5.70
   2  -7  -9   15.50    5.80
  -2   7   9    6.40    6.40
  -2   7   9    6.10    8.20
   1  -7  -9   20.10    6.50
  -1   7   9   20.30    9.00
  -1   7   9   18.70    8.10
   5  -8  -9   -1.00    4.80
   5  -8  -9    0.90    5.00
  -5   8   9    5.00    6.70
  -5   8   9    6.50    6.40
  -1   8 -10    3.50    5.90
  -1   8 -10    1.80    5.50
   1  -8  10   -0.20    6.00
   1  -8  10    2.20    7.00
  -2   8 -10   13.90    6.40
  -2   8 -10    4.50    5.70
   2  -8  10    3.30    6.10
   2  -8  10   10.60    5.60
   2  -8  10   19.90    8.70
  -3   8 -10   31.00    8.20
  -3   8 -10   20.50    7.10
   3  -8  10   13.10    8.70
   3  -8  10   25.60    8.30
   3  -8  10   10.60    6.10
  -4   8 -10   41.00    8.70
  -4   8 -10   30.00    8.00
   4  -8  10   40.70    9.90
   4  -8  10   26.50    7.30
  -5   8 -10   10.30    6.50
  -5   8 -10    3.30    5.80
   5  -8  10   -2.30    5.70
   5  -8  10    2.90    7.00
   1   7 -10   55.79    9.80
   1   7 -10   64.79   10.30
  -1  -7  10   65.39   11.60
  -1  -7  10   86.39   13.20
   0   7 -10   14.80    6.40
   0   7 -10   14.00    6.40
   0  -7  10   14.00    6.90
   0  -7  10   16.40    7.40
  -1   7 -10   13.30    5.90
  -1   7 -10   17.70    6.20
   1  -7  10   32.70    9.70
   1  -7  10   32.70    6.60
   1  -7  10   19.60    7.70
  -2   7 -10   11.50    4.80
  -2   7 -10    5.20    4.80
   2  -7  10    0.60    5.20
   2  -7  10    3.50    4.30
   2  -7  10    8.60    6.20
  -3   7 -10    4.20    4.50
  -3   7 -10   -1.60    4.20
   3  -7  10   -2.80    4.20
   3  -7  10    0.30    6.80
   3  -7  10    1.90    4.20
  -4   7 -10   16.20    6.00
  -4   7 -10   12.70    5.70
   4  -7  10   18.20    7.00
   4  -7  10    2.40    6.00
  -5   7 -10   37.10    7.80
  -5   7 -10   25.90    7.70
   5  -7  10   24.10    8.20
   5  -7  10   42.30    9.00
  -6   7 -10    5.10    5.50
  -6   7 -10   10.90    6.30
   6  -7  10    0.40    5.90
   6  -7  10    9.00    7.00
   3   6 -10    9.30    6.20
   3   6 -10    2.90    5.30
  -3  -6  10   -4.10    5.30
  -3  -6  10   -4.30    5.70
  -3  -6  10   -0.20    5.20
   2   6 -10   59.19    9.30
   2   6 -10   59.99    9.60
  -2  -6  10   57.59   11.10
  -2  -6  10   75.69   11.80
   1   6 -10   79.99   10.50
   1   6 -10   97.99   11.40
  -1  -6  10   70.19   11.40
  -1  -6  10   79.09   11.90
   0   6 -10   -3.70    3.40
   0   6 -10   -0.60    4.10
   0  -6  10    4.20    5.30
   0  -6  10    6.50    5.60
  -1   6 -10   28.70    6.70
  -1   6 -10   22.70    6.10
   1  -6  10   34.20    7.70
   1  -6  10   21.20    5.70
   1  -6  10   28.20    8.30
  -2   6 -10    6.70    4.60
  -2   6 -10    8.10    4.30
   2  -6  10   19.30    7.40
   2  -6  10   17.10    5.70
   2  -6  10    5.40    5.10
  -3   6 -10   32.40    6.80
  -3   6 -10   32.50    7.00
   3  -6  10   25.30    7.30
   3  -6  10   34.00    8.00
   3  -6  10   30.70    6.70
  -4   6 -10   75.29    9.20
  -4   6 -10   89.99   10.80
   4  -6  10   78.79   10.10
   4  -6  10   70.79   11.00
  -5   6 -10    4.90    4.50
  -5   6 -10   10.00    5.50
   5  -6  10    5.10    6.40
   5  -6  10    4.10    6.00
  -6   6 -10   10.30    6.30
   6  -6  10    9.70    6.40
   6  -6  10    6.50    6.40
   4   5 -10    7.70    4.60
   4   5 -10    0.80    5.20
  -4  -5  10    3.10    7.40
  -4  -5  10    8.30    6.00
  -4  -5  10    9.60    6.80
   3   5 -10   21.20    6.50
   3   5 -10   19.20    5.80
  -3  -5  10   26.60    8.10
  -3  -5  10   16.00    6.80
  -3  -5  10   24.80    7.20
   2   5 -10   26.20    6.50
   2   5 -10   28.30    6.60
  -2  -5  10   25.50    8.10
  -2  -5  10   13.50    6.30
   1   5 -10   -2.80    3.40
   1   5 -10    3.40    3.70
  -1  -5  10    1.70    5.50
  -1  -5  10    1.90    4.90
   0   5 -10   27.10    6.10
   0   5 -10   33.40    6.30
   0   5 -10   24.80    4.80
   0  -5  10   29.20    7.30
   0  -5  10   27.10    6.60
   0  -5  10   24.60    5.20
  -1   5 -10    3.50    3.50
  -1   5 -10   -2.70    3.00
  -1   5 -10    0.70    3.50
   1  -5  10    3.70    3.70
   1  -5  10   -1.00    3.60
   1  -5  10    1.10    3.80
  -2   5 -10  218.98   12.80
  -2   5 -10  251.67   14.20
   2  -5  10  210.08   15.30
   2  -5  10  226.38   14.10
   2  -5  10  236.58   13.40
  -3   5 -10  122.69   10.00
  -3   5 -10  134.39   11.00
  -3   5 -10  151.58   10.20
   3  -5  10  114.79   12.90
   3  -5  10  121.39   11.60
   3  -5  10  127.69   10.70
  -4   5 -10   -1.30    3.10
  -4   5 -10   -0.40    3.30
  -4   5 -10    3.50    4.20
   4  -5  10   -1.80    4.70
   4  -5  10   -0.20    4.80
  -5   5 -10    0.00    4.60
  -5   5 -10    3.30    4.20
   5  -5  10   -2.90    4.70
   5  -5  10   -2.70    5.10
  -6   5 -10    1.50    5.20
  -6   5 -10   -0.30    4.60
   6  -5  10    0.80    5.10
   6  -5  10    7.20    6.60
  -7   5 -10    1.00    6.00
  -7   5 -10   -2.60    5.20
   7  -5  10    3.80    6.20
   7  -5  10    1.00    4.30
   5   4 -10    1.20    5.10
   5   4 -10   -4.20    4.70
  -5  -4  10   -6.30    5.50
  -5  -4  10    0.50    4.60
  -5  -4  10    4.40    5.60
   4   4 -10   80.89   10.30
   4   4 -10   77.19   10.10
   4   4 -10   70.29    8.90
  -4  -4  10   70.89   11.50
  -4  -4  10   71.59   10.40
  -4  -4  10   78.89   12.10
   3   4 -10   16.30    5.30
   3   4 -10   21.80    5.70
   3   4 -10   26.40    5.60
  -3  -4  10   33.60    8.40
  -3  -4  10   34.70    7.60
  -3  -4  10   31.10    7.40
   2   4 -10    2.30    3.40
   2   4 -10    2.50    3.80
   2   4 -10    0.10    3.40
  -2  -4  10   -2.90    4.10
  -2  -4  10    0.30    4.40
   1   4 -10    1.60    3.40
   1   4 -10    9.20    4.10
   1   4 -10    3.90    3.10
  -1  -4  10   14.00    5.70
  -1  -4  10    5.90    5.00
   0   4 -10   58.49    6.90
   0   4 -10   65.19    8.10
   0   4 -10   57.29    7.50
   0  -4  10   45.60    8.20
   0  -4  10   54.39    8.50
   0  -4  10   54.79    6.60
  -1   4 -10   28.70    6.10
  -1   4 -10   25.40    5.00
  -1   4 -10   21.20    4.70
   1  -4  10   31.60    6.90
   1  -4  10   14.20    4.00
   1  -4  10   13.40    5.00
  -2   4 -10  176.08   12.00
  -2   4 -10  198.28   11.00
  -2   4 -10  184.38   11.80
   2  -4  10  191.98   14.10
   2  -4  10  195.68   12.80
   2  -4  10  191.38   11.60
  -3   4 -10   14.20    3.90
  -3   4 -10   15.60    4.90
  -3   4 -10   15.70    4.80
   3  -4  10   10.60    4.30
   3  -4  10    7.30    3.60
   3  -4  10   17.70    6.60
  -4   4 -10   -0.90    3.40
  -4   4 -10    6.10    4.20
  -4   4 -10    2.00    2.30
  -4   4 -10   -1.50    3.80
   4  -4  10    1.50    2.30
   4  -4  10    7.70    5.60
   4  -4  10    1.70    4.00
  -5   4 -10   14.90    6.00
  -5   4 -10    7.80    4.20
  -5   4 -10    8.80    5.00
   5  -4  10    9.80    6.10
   5  -4  10    4.40    4.70
   5  -4  10    0.10    3.80
  -6   4 -10    5.20    5.70
  -6   4 -10   15.70    6.10
  -6   4 -10    3.80    4.00
   6  -4  10    2.70    5.20
   6  -4  10   18.80    8.30
   6  -4  10    2.80    4.10
  -7   4 -10   12.90    6.70
  -7   4 -10    7.40    6.70
  -7   4 -10    9.50    5.10
   7  -4  10    5.50    6.50
   7  -4  10    7.80    5.40
   6   3 -10   12.10    5.90
   6   3 -10   10.10    5.20
   6   3 -10   10.50    5.80
  -6  -3  10   12.80    6.90
  -6  -3  10    3.60    6.70
   5   3 -10    8.80    5.60
   5   3 -10   16.50    6.30
   5   3 -10    9.50    5.40
  -5  -3  10   14.00    6.60
  -5  -3  10   12.90    6.50
  -5  -3  10   13.30    7.10
   4   3 -10   11.80    4.40
   4   3 -10   29.90    6.60
   4   3 -10   17.00    5.60
  -4  -3  10   19.90    6.30
  -4  -3  10   26.30    7.10
  -4  -3  10   30.60    8.00
   3   3 -10   37.10    6.40
   3   3 -10   28.10    6.20
   3   3 -10   28.70    6.10
  -3  -3  10   36.60    7.80
  -3  -3  10   30.40    7.00
  -3  -3  10   35.10    7.20
   2   3 -10    0.50    3.20
   2   3 -10   -0.40    2.80
   2   3 -10   -2.20    2.50
  -2  -3  10    3.10    4.10
  -2  -3  10    1.00    3.40
  -2  -3  10   -3.90    3.10
   1   3 -10    1.70    3.10
   1   3 -10   -0.10    2.70
   1   3 -10   -0.40    1.90
  -1  -3  10    3.60    3.80
  -1  -3  10   -1.80    4.40
  -1  -3  10   -0.20    2.30
   0   3 -10    5.00    3.20
   0   3 -10   11.50    3.50
   0   3 -10    5.70    3.60
   0  -3  10   -2.50    4.50
   0  -3  10   10.30    3.50
   0  -3  10   12.60    4.70
  -1   3 -10   18.30    4.80
  -1   3 -10   14.00    3.50
  -1   3 -10   11.40    4.40
   1  -3  10   20.40    5.40
   1  -3  10   16.30    5.30
   1  -3  10   17.60    4.70
  -2   3 -10    1.80    3.90
  -2   3 -10    4.20    2.40
  -2   3 -10    6.30    2.50
  -2   3 -10    3.10    3.30
   2  -3  10    5.60    5.20
   2  -3  10    2.70    3.70
   2  -3  10    2.80    3.40
  -3   3 -10    1.80    2.00
  -3   3 -10   -0.60    3.00
  -3   3 -10   -1.70    3.10
  -3   3 -10    0.70    2.10
   3  -3  10    2.10    2.40
   3  -3  10    0.70    3.20
   3  -3  10    2.50    5.10
  -4   3 -10   10.60    3.60
  -4   3 -10   12.80    5.50
  -4   3 -10   15.80    4.90
   4  -3  10   21.30    6.10
   4  -3  10   12.90    5.90
   4  -3  10    6.60    4.00
  -5   3 -10   31.00    5.60
  -5   3 -10   23.80    6.20
  -5   3 -10   26.10    6.80
   5  -3  10   13.40    6.80
   5  -3  10   15.80    7.10
   5  -3  10   17.00    5.00
  -6   3 -10   34.30    7.60
  -6   3 -10   59.59    9.60
  -6   3 -10   41.60    7.10
   6  -3  10   54.99    8.60
   6  -3  10   33.70    8.40
   6  -3  10   59.19   11.80
   6   2 -10   -2.40    4.40
   6   2 -10   -5.20    3.90
   6   2 -10    3.20    5.10
  -6  -2  10    3.30    6.10
  -6  -2  10    4.40    5.30
   5   2 -10    0.30    2.70
   5   2 -10    2.60    4.20
   5   2 -10    0.10    3.80
  -5  -2  10    1.20    4.60
  -5  -2  10   -3.30    4.80
  -5  -2  10   -4.10    4.10
   4   2 -10   16.20    4.90
   4   2 -10   20.90    5.60
   4   2 -10   18.50    5.30
  -4  -2  10   22.50    6.40
  -4  -2  10    8.20    5.00
  -4  -2  10   17.70    5.20
   3   2 -10  230.48   12.60
   3   2 -10  199.78   12.50
   3   2 -10  222.98   13.00
  -3  -2  10  197.68   13.20
  -3  -2  10  205.58   14.90
  -3  -2  10  213.68   13.60
   2   2 -10  124.59    9.30
   2   2 -10  105.69    8.20
   2   2 -10  110.59    9.00
  -2  -2  10  113.69   11.60
  -2  -2  10  131.89   13.10
  -2  -2  10  113.49    9.40
   1   2 -10   32.50    5.60
   1   2 -10   39.80    6.20
   1   2 -10   26.20    4.70
  -1  -2  10   37.60    4.70
  -1  -2  10   35.20    6.80
  -1  -2  10   22.70    6.20
   0   2 -10  104.39    9.50
   0   2 -10   91.19    5.10
   0   2 -10  109.89    7.30
   0   2 -10  108.99    8.60
   0  -2  10  109.49    7.40
   0  -2  10   95.59   10.00
   0  -2  10   84.59   10.00
  -1   2 -10    0.50    2.90
  -1   2 -10   11.30    3.80
  -1   2 -10    4.00    2.20
  -1   2 -10    6.50    2.40
   1  -2  10    3.10    2.70
   1  -2  10    3.40    3.50
   1  -2  10   10.10    4.60
  -2   2 -10    4.20    4.20
  -2   2 -10   16.10    3.30
  -2   2 -10   14.60    4.40
  -2   2 -10   17.60    3.40
   2  -2  10    7.80    4.40
   2  -2  10    8.20    3.70
   2  -2  10   10.20    4.90
  -3   2 -10  193.48   13.00
  -3   2 -10  219.98   13.20
  -3   2 -10  234.58   11.30
   3  -2  10  230.98   14.00
   3  -2  10  202.68   14.90
   3  -2  10  214.58   12.20
  -4   2 -10    8.00    4.50
  -4   2 -10    7.40    3.60
  -4   2 -10    9.70    4.80
   4  -2  10    7.40    4.90
   4  -2  10    9.30    4.00
   4  -2  10   -1.00    5.00
  -5   2 -10   26.90    6.90
  -5   2 -10   25.10    5.60
  -5   2 -10   20.30    6.40
   5  -2  10   12.50    7.10
   5  -2  10   11.40    6.20
   5  -2  10    5.80    4.40
  -6   2 -10    9.70    5.60
  -6   2 -10   19.20    6.30
  -6   2 -10    2.80    5.00
   6  -2  10    7.00    8.60
   6  -2  10    8.00    6.60
   6  -2  10    8.90    5.30
   7   1 -10    3.70    5.30
   7   1 -10    3.50    5.40
  -7  -1  10    0.20    5.20
  -7  -1  10   -1.40    5.90
   6   1 -10    6.00    4.90
   6   1 -10    3.50    4.20
  -6  -1  10    1.90    4.70
  -6  -1  10    5.10    5.90
   5   1 -10   45.80    7.60
   5   1 -10   38.50    7.40
   5   1 -10   34.40    6.50
  -5  -1  10   49.90    7.70
  -5  -1  10   50.39    8.70
  -5  -1  10   40.80    8.70
   4   1 -10  102.19    9.90
   4   1 -10   98.59    8.20
   4   1 -10  106.29    9.30
  -4  -1  10  103.99   10.70
  -4  -1  10   95.39   10.70
  -4  -1  10   96.19   12.00
   3   1 -10  236.28   13.70
   3   1 -10  269.17   13.90
   3   1 -10  257.47   12.60
  -3  -1  10  248.18   16.00
  -3  -1  10  269.57   14.60
  -3  -1  10  245.78   14.60
   2   1 -10   28.80    3.50
   2   1 -10   34.50    5.10
   2   1 -10   29.70    5.40
   2   1 -10   38.90    6.10
  -2  -1  10   27.00    6.50
  -2  -1  10   40.70    7.10
  -2  -1  10   44.40    6.70
   1   1 -10    1.80    1.90
   1   1 -10    3.20    3.00
   1   1 -10    3.80    3.90
   1   1 -10    0.30    2.00
  -1  -1  10    2.40    3.60
  -1  -1  10    2.50    2.30
  -1  -1  10    1.20    3.30
  -1  -1  10    0.30    2.40
   0   1 -10   12.40    4.40
   0   1 -10   27.70    5.20
   0   1 -10   19.00    3.40
   0   1 -10   25.70    3.40
   0  -1  10   21.00    5.40
   0  -1  10   31.50    4.80
   0  -1  10   20.50    5.10
   0  -1  10   26.90    4.70
  -1   1 -10   36.70    4.00
  -1   1 -10   40.80    4.80
  -1   1 -10   50.69    6.60
  -1   1 -10   38.60    6.20
   1  -1  10   46.60    5.10
   1  -1  10   29.40    6.50
   1  -1  10   49.10    6.70
   1  -1  10   34.20    6.10
  -2   1 -10   73.09    8.20
  -2   1 -10   62.39    6.30
  -2   1 -10   44.50    6.80
   2  -1  10   49.10    8.30
   2  -1  10   61.09    7.40
   2  -1  10   78.49    8.90
  -3   1 -10   43.20    5.70
  -3   1 -10   34.40    6.70
  -3   1 -10   43.40    6.70
   3  -1  10   39.20    6.30
   3  -1  10   40.10    8.10
   3  -1  10   53.09    8.60
  -4   1 -10    9.90    4.10
  -4   1 -10    4.40    4.40
  -4   1 -10    1.50    3.60
   4  -1  10    7.40    5.90
   4  -1  10    0.40    3.30
   4  -1  10    2.40    5.50
  -5   1 -10    0.10    4.40
  -5   1 -10    1.70    4.40
  -5   1 -10    3.20    3.80
   5  -1  10   -2.70    4.90
   5  -1  10    1.40    4.10
   5  -1  10    5.70    6.50
  -6   1 -10   26.40    7.50
  -6   1 -10   48.90    8.10
  -6   1 -10   24.50    7.30
   6  -1  10   29.50   10.50
   6  -1  10   22.80    7.90
   6  -1  10   36.50    8.10
   7   0 -10   23.10    7.00
   7   0 -10   11.00    6.00
  -7   0  10   13.20    6.90
  -7   0  10   10.60    7.10
   6   0 -10    3.00    4.10
   6   0 -10    2.60    4.40
  -6   0  10    1.30    4.50
  -6   0  10   -1.20    5.00
   5   0 -10   67.69    9.00
   5   0 -10   51.19    7.50
  -5   0  10   46.00    8.90
  -5   0  10   48.30    7.40
  -5   0  10   55.29    8.90
   4   0 -10   79.19    9.10
   4   0 -10   81.79    8.70
  -4   0  10   77.69    9.00
  -4   0  10   78.09    9.90
  -4   0  10   68.09   10.00
   3   0 -10   25.10    3.60
   3   0 -10   29.20    5.40
   3   0 -10   28.20    5.50
   3   0 -10   22.40    4.20
  -3   0  10   28.10    6.00
  -3   0  10   41.80    6.60
  -3   0  10   22.20    6.10
   2   0 -10   59.69    6.90
   2   0 -10   58.59    6.10
   2   0 -10   64.69    7.90
   2   0 -10   63.19    5.80
  -2   0  10   55.89    4.40
  -2   0  10   51.89    7.60
  -2   0  10   85.99    8.30
  -2   0  10   51.69    8.40
   1   0 -10   60.69    5.70
   1   0 -10   65.79    8.00
   1   0 -10   64.49    7.00
   1   0 -10   48.40    4.90
  -1   0  10   45.90    7.40
  -1   0  10   60.09    6.00
  -1   0  10   62.99    8.50
  -1   0  10   60.79    6.40
   0   0 -10  100.29    5.60
   0   0 -10  106.49    9.10
   0   0 -10  109.19    7.90
   0   0 -10  103.39    7.10
   0   0  10  104.49   11.00
   0   0  10  110.49    6.70
   0   0  10   96.29    9.90
   0   0  10  112.19    7.80
  -1   0 -10   73.29    7.50
  -1   0 -10   73.89    6.80
  -1   0 -10   63.49    8.10
   1   0  10   77.39    8.80
   1   0  10   73.79   10.10
   1   0  10   56.29    7.60
  -2   0 -10  142.19   11.10
  -2   0 -10  137.29    9.60
  -2   0 -10  130.89    8.70
   2   0  10  133.59   10.30
   2   0  10  154.48   12.80
   2   0  10  126.99   10.30
  -3   0 -10    4.10    3.10
  -3   0 -10   -1.30    3.30
  -3   0 -10    2.40    3.50
   3   0  10    0.20    4.10
   3   0  10   -9.50    5.10
  -4   0 -10    6.80    4.50
  -4   0 -10    1.70    3.40
  -4   0 -10    1.30    3.90
   4   0  10   -3.50    3.50
   4   0  10    2.90    5.60
   4   0  10   -2.90    5.00
  -5   0 -10   -7.20    3.60
  -5   0 -10    1.00    4.60
  -5   0 -10    3.70    4.00
   5   0  10   -1.30    4.10
   5   0  10   -0.40    5.20
   5   0  10   -5.80    6.40
   8  -1 -10   19.40    7.20
   8  -1 -10   13.90    6.60
  -8   1  10   16.70    7.60
  -8   1  10   11.40    7.20
  -8   1  10    3.10    6.20
   7  -1 -10   21.80    6.80
   7  -1 -10   22.00    6.40
  -7   1  10   20.50    6.90
  -7   1  10   11.20    6.70
   6  -1 -10   -1.30    2.50
   6  -1 -10    1.30    3.60
   6  -1 -10    1.00    3.80
  -6   1  10    0.90    4.20
  -6   1  10    1.60    5.10
   5  -1 -10  131.69   10.50
   5  -1 -10  110.39    9.20
  -5   1  10   92.19   11.80
  -5   1  10  106.59   11.30
  -5   1  10   94.59    9.60
   4  -1 -10   13.60    4.30
   4  -1 -10    4.60    3.10
   4  -1 -10    8.10    2.90
  -4   1  10    5.50    4.30
  -4   1  10    3.20    3.70
  -4   1  10    4.00    3.20
   3  -1 -10    0.60    2.30
   3  -1 -10    1.70    3.00
   3  -1 -10    1.80    2.30
  -3   1  10   -1.40    2.60
  -3   1  10    1.90    3.00
  -3   1  10    1.70    3.60
   2  -1 -10   75.89    7.40
   2  -1 -10   52.69    7.20
   2  -1 -10   51.79    5.70
  -2   1  10   46.20    8.20
  -2   1  10   46.60    5.90
  -2   1  10   51.09    7.70
  -2   1  10   53.59    5.40
   1  -1 -10    6.50    3.30
   1  -1 -10    7.40    3.40
   1  -1 -10    6.50    2.80
  -1   1  10    8.30    2.90
  -1   1  10    5.10    4.30
  -1   1  10   -1.60    3.10
  -1   1  10   10.40    3.60
   0  -1 -10   52.19    7.10
   0  -1 -10   56.39    6.20
   0  -1 -10   47.70    5.70
   0   1  10   62.29    7.50
   0   1  10   43.40    7.20
   0   1  10   57.49    8.60
  -1  -1 -10   58.39    6.60
  -1  -1 -10   50.09    7.40
  -1  -1 -10   52.79    6.30
   1   1  10   50.69    8.40
   1   1  10   53.49    7.50
   1   1  10   54.69    7.80
  -2  -1 -10   29.30    5.20
  -2  -1 -10   24.00    4.90
  -2  -1 -10   18.30    5.70
   2   1  10   28.00    6.90
   2   1  10   32.90    7.20
   2   1  10   19.50    5.60
  -3  -1 -10   -1.50    4.00
  -3  -1 -10    2.20    4.00
  -3  -1 -10   -0.70    3.00
   3   1  10   -1.70    4.90
   3   1  10    5.30    5.90
  -4  -1 -10   -0.70    3.80
  -4  -1 -10    0.80    4.70
  -4  -1 -10    4.80    4.40
   4   1  10    5.00    5.50
   4   1  10    6.30    7.00
  -5  -1 -10    8.30    5.80
  -5  -1 -10   17.80    5.90
   5   1  10    8.20    6.70
   5   1  10    1.10    7.20
   5   1  10   11.80    6.40
   8  -2 -10    8.90    5.70
   8  -2 -10   17.20    6.20
  -8   2  10    4.80    6.00
  -8   2  10   11.40    6.30
  -8   2  10   10.40    7.10
   7  -2 -10   12.90    5.10
   7  -2 -10    9.10    4.20
   7  -2 -10   26.60    7.10
  -7   2  10    8.90    5.70
  -7   2  10   13.50    6.60
   6  -2 -10    4.40    4.60
   6  -2 -10    2.30    3.00
   6  -2 -10    0.00    3.90
  -6   2  10    0.70    4.20
  -6   2  10   -0.50    5.20
   5  -2 -10   18.60    4.70
   5  -2 -10   13.80    4.20
   5  -2 -10   27.40    6.10
  -5   2  10   36.40    7.80
  -5   2  10   11.00    4.00
  -5   2  10   18.70    5.50
   4  -2 -10   29.80    5.40
   4  -2 -10   36.50    6.60
   4  -2 -10   34.20    5.80
  -4   2  10   31.60    6.20
  -4   2  10   38.80    6.70
  -4   2  10   13.40    5.70
   3  -2 -10    1.60    3.30
   3  -2 -10   -0.20    3.20
   3  -2 -10    3.10    2.60
  -3   2  10    5.80    3.90
  -3   2  10    6.60    4.80
  -3   2  10   -0.90    2.80
   2  -2 -10   14.20    3.60
   2  -2 -10   17.80    4.20
   2  -2 -10   17.80    4.00
   2  -2 -10   20.80    5.20
  -2   2  10   17.00    3.90
  -2   2  10   18.80    5.70
  -2   2  10   16.60    5.70
  -2   2  10   17.50    3.70
   1  -2 -10   40.20    5.00
   1  -2 -10   32.90    5.20
   1  -2 -10   25.20    5.70
  -1   2  10   25.50    6.40
  -1   2  10   33.30    6.80
  -1   2  10   38.00    5.50
   0  -2 -10   18.10    4.70
   0  -2 -10   12.90    3.70
   0  -2 -10   12.90    4.50
   0   2  10    9.70    4.70
   0   2  10   14.00    4.50
   0   2  10    3.70    4.90
  -1  -2 -10   11.30    5.00
  -1  -2 -10    8.90    3.60
  -1  -2 -10   12.60    4.10
   1   2  10   13.10    5.00
   1   2  10    9.50    5.30
   1   2  10   12.50    5.50
  -2  -2 -10   84.49   10.20
  -2  -2 -10  101.69    9.70
   2   2  10  101.39   11.00
   2   2  10  117.19   13.80
   2   2  10   92.39   11.30
  -3  -2 -10    2.00    3.90
  -3  -2 -10    5.50    4.90
   3   2  10   -2.10    5.10
   3   2  10   -4.00    5.30
  -4  -2 -10   14.60    5.40
  -4  -2 -10   12.40    6.10
   4   2  10   20.30    8.40
   4   2  10   10.30    7.20
   8  -3 -10   -0.60    4.70
   8  -3 -10   -0.90    5.10
   8  -3 -10    5.50    4.40
  -8   3  10    5.50    4.20
  -8   3  10    5.90    6.30
  -8   3  10   -5.60    5.40
   7  -3 -10   13.60    4.70
   7  -3 -10   13.50    5.10
   7  -3 -10   16.10    6.30
  -7   3  10   10.20    6.10
  -7   3  10    5.90    5.00
  -7   3  10    7.70    5.70
   6  -3 -10    2.80    3.50
   6  -3 -10   10.70    4.90
   6  -3 -10    8.20    3.80
  -6   3  10   -3.30    4.60
  -6   3  10   13.10    5.40
   5  -3 -10   40.90    6.00
   5  -3 -10   35.40    5.70
   5  -3 -10   40.00    7.40
  -5   3  10   41.80    8.50
  -5   3  10   34.60    6.50
  -5   3  10   33.30    6.60
   4  -3 -10  107.89   10.60
   4  -3 -10  112.59    8.60
   4  -3 -10   96.59    7.80
  -4   3  10   96.89    9.50
  -4   3  10   67.39   10.10
  -4   3  10  101.99   10.50
   3  -3 -10   -0.30    2.80
   3  -3 -10    2.40    2.80
   3  -3 -10    5.30    3.00
   3  -3 -10   -0.20    3.30
  -3   3  10    0.10    2.50
  -3   3  10    0.30    4.30
  -3   3  10   -3.20    2.50
  -3   3  10   -1.40    3.20
   2  -3 -10   12.20    3.90
   2  -3 -10   11.00    4.00
   2  -3 -10   13.90    4.90
   2  -3 -10   16.70    3.40
  -2   3  10   16.50    5.70
  -2   3  10   14.00    4.90
  -2   3  10   15.70    4.30
   1  -3 -10   -2.90    3.30
   1  -3 -10    0.50    2.90
   1  -3 -10   -0.30    3.20
  -1   3  10   -2.10    3.50
  -1   3  10    0.30    3.50
  -1   3  10    2.90    5.40
   0  -3 -10    2.30    3.40
   0  -3 -10    5.00    3.80
   0   3  10   -1.10    4.10
   0   3  10    2.60    4.30
   0   3  10    0.30    4.20
  -1  -3 -10    8.30    4.50
  -1  -3 -10   13.00    5.20
   1   3  10    4.00    5.90
   1   3  10   19.00    6.80
   1   3  10   11.20    5.10
  -2  -3 -10   11.30    4.90
  -2  -3 -10   12.90    5.60
   2   3  10    5.00    5.90
   2   3  10   11.40    6.50
  -3  -3 -10    2.30    5.00
  -3  -3 -10   -1.90    4.10
   3   3  10   -5.70    6.30
   3   3  10    4.80    6.30
   8  -4 -10   -1.30    4.60
   8  -4 -10    2.80    4.10
   8  -4 -10    2.20    4.60
  -8   4  10    2.10    6.00
  -8   4  10    3.40    5.50
  -8   4  10    0.30    5.30
   7  -4 -10    2.10    3.60
   7  -4 -10    1.50    3.90
   7  -4 -10   -2.50    3.90
  -7   4  10   -0.50    5.00
  -7   4  10    6.30    6.00
  -7   4  10    1.10    4.50
   6  -4 -10   -1.30    3.50
   6  -4 -10    0.70    3.30
   6  -4 -10   -0.20    3.00
  -6   4  10    2.90    4.70
  -6   4  10    8.50    5.80
  -6   4  10   -4.80    3.60
   5  -4 -10   35.10    6.70
   5  -4 -10   29.20    6.00
  -5   4  10   21.40    5.70
  -5   4  10   25.90    6.00
  -5   4  10   35.70    8.40
   4  -4 -10   70.09    9.00
   4  -4 -10   65.99    7.90
  -4   4  10   81.69    9.70
  -4   4  10   64.99   10.20
  -4   4  10   68.09    8.50
   3  -4 -10   15.10    4.90
   3  -4 -10   13.90    4.30
   3  -4 -10    8.50    4.20
  -3   4  10   11.10    5.60
  -3   4  10    8.00    4.70
   2  -4 -10    1.10    3.20
   2  -4 -10    5.50    3.90
   2  -4 -10   -2.60    3.10
  -2   4  10   -0.30    3.10
  -2   4  10   -1.90    4.70
  -2   4  10    6.30    5.40
   1  -4 -10   42.80    7.40
   1  -4 -10   38.70    6.10
   1  -4 -10   41.90    6.70
  -1   4  10   37.80    6.70
  -1   4  10   45.40    8.70
  -1   4  10   37.30    8.30
   0  -4 -10    6.30    4.60
   0  -4 -10    6.30    4.50
   0  -4 -10    7.90    5.20
   0   4  10   13.50    6.30
   0   4  10    8.60    5.70
   0   4  10   18.30    7.60
  -1  -4 -10    1.40    3.00
  -1  -4 -10    3.70    4.40
  -1  -4 -10    2.10    4.20
   1   4  10    2.30    6.20
   1   4  10    8.70    5.90
   1   4  10   -0.50    4.70
  -2  -4 -10    2.50    5.10
  -2  -4 -10    1.70    4.80
  -2  -4 -10   -0.30    5.10
   2   4  10   -1.80    5.20
   2   4  10    5.90    6.90
   8  -5 -10   11.50    5.10
   8  -5 -10    3.60    5.30
  -8   5  10    6.90    6.70
  -8   5  10   13.00    7.10
   7  -5 -10    2.00    4.70
   7  -5 -10   11.00    4.60
  -7   5  10   12.80    6.60
  -7   5  10    2.20    6.40
   6  -5 -10    9.70    4.80
   6  -5 -10    4.70    4.00
  -6   5  10   10.70    5.50
  -6   5  10    4.00    5.60
   5  -5 -10    1.80    4.80
   5  -5 -10    6.20    4.10
  -5   5  10   -0.50    5.10
  -5   5  10   -0.40    3.70
  -5   5  10    1.80    4.90
   4  -5 -10    4.60    4.70
   4  -5 -10    3.50    4.00
  -4   5  10    8.40    4.70
  -4   5  10   11.00    6.10
   3  -5 -10   45.10    7.20
   3  -5 -10   47.90    7.80
   3  -5 -10   39.60    6.50
  -3   5  10   35.70    7.40
  -3   5  10   25.00    7.40
   2  -5 -10    0.60    3.90
   2  -5 -10   -2.10    3.70
   2  -5 -10    3.10    4.00
  -2   5  10    4.90    6.10
  -2   5  10   -0.60    3.70
  -2   5  10    2.20    4.70
   1  -5 -10   59.69    8.70
   1  -5 -10   52.49    8.60
   1  -5 -10   52.59    9.00
  -1   5  10   54.29    9.60
  -1   5  10   59.79   10.30
  -1   5  10   49.40    8.00
   0  -5 -10   24.30    6.30
   0  -5 -10   12.20    5.40
   0  -5 -10   20.60    7.40
   0   5  10   14.90    5.90
   0   5  10   21.70    7.80
   0   5  10   32.80    8.70
  -1  -5 -10    0.30    4.60
  -1  -5 -10   -0.20    4.80
  -1  -5 -10   -7.90    4.10
   1   5  10   -7.60    5.50
   1   5  10    4.20    5.90
   1   5  10    3.20    7.30
   7  -6 -10    8.30    5.30
   7  -6 -10   15.70    5.80
  -7   6  10   11.00    6.20
  -7   6  10   10.20    6.90
   6  -6 -10    1.10    4.00
   6  -6 -10    0.90    4.00
  -6   6  10   -1.20    5.60
  -6   6  10    4.40    5.10
   5  -6 -10    4.10    4.60
   5  -6 -10   -3.00    3.70
  -5   6  10    6.90    5.00
  -5   6  10    5.50    6.00
   4  -6 -10   13.10    5.80
   4  -6 -10   15.90    5.60
   4  -6 -10   12.70    6.40
  -4   6  10   15.80    7.00
  -4   6  10   13.40    6.40
   3  -6 -10   17.40    5.40
   3  -6 -10   15.30    5.50
   3  -6 -10   13.30    5.90
  -3   6  10   10.10    6.50
  -3   6  10   15.90    7.10
   2  -6 -10    5.20    4.80
   2  -6 -10   -0.50    4.30
   2  -6 -10    6.80    4.90
  -2   6  10    2.80    5.70
  -2   6  10    0.70    6.20
   1  -6 -10   27.50    6.70
   1  -6 -10   15.60    6.20
   1  -6 -10   11.40    5.50
  -1   6  10   14.90    7.50
  -1   6  10   16.60    6.80
  -1   6  10    6.00    6.10
   6  -7 -10   20.70    6.20
   6  -7 -10   10.90    5.50
  -6   7  10   18.80    8.80
   5  -7 -10   40.10    8.30
   5  -7 -10   40.00    8.30
  -5   7  10   18.20    8.10
  -5   7  10   13.50    7.20
   4  -7 -10    5.50    4.70
   4  -7 -10    4.20    5.00
   4  -7 -10   10.50    6.10
  -4   7  10    7.20    7.90
  -4   7  10    1.30    5.60
   3  -7 -10    2.20    5.30
   3  -7 -10    5.10    5.70
   3  -7 -10   -2.10    5.80
  -3   7  10   -0.60    6.60
  -3   7  10    4.30    5.80
   0   7 -11   80.39   11.30
   0   7 -11   70.29   10.60
   0  -7  11   82.99   13.30
   0  -7  11   75.69   12.60
  -1   7 -11   28.80    6.70
  -1   7 -11   35.70    8.20
   1  -7  11   37.70    9.40
   1  -7  11   53.59   11.10
  -2   7 -11   -2.20    4.60
  -2   7 -11    1.90    4.90
   2  -7  11    1.80    6.10
   2  -7  11    7.20    5.80
   2  -7  11   -3.00    5.70
  -3   7 -11   -1.20    4.50
  -3   7 -11   -3.20    4.70
   3  -7  11    1.00    7.30
   3  -7  11   -0.30    5.10
   3  -7  11    1.00    7.20
  -4   7 -11   18.10    6.50
  -4   7 -11   -1.20    5.10
   4  -7  11    8.60    6.80
   4  -7  11    4.00    6.80
  -5   7 -11   12.90    6.30
  -5   7 -11   18.20    6.40
   5  -7  11   29.00   10.20
   5  -7  11   10.50    6.40
   2   6 -11    0.70    4.80
   2   6 -11   -2.50    5.00
  -2  -6  11   -6.10    5.30
  -2  -6  11    0.60    6.30
   1   6 -11   43.20    8.30
   1   6 -11   60.99    9.40
  -1  -6  11   68.59   11.40
  -1  -6  11   55.09   10.20
   0   6 -11  105.69   11.80
   0   6 -11  128.59   12.80
   0  -6  11  115.39   14.00
   0  -6  11  130.69   14.80
  -1   6 -11   72.29    9.90
  -1   6 -11   58.89    8.40
   1  -6  11   55.39   10.20
   1  -6  11   50.69    7.90
   1  -6  11   48.10   10.00
  -2   6 -11   -5.60    4.30
  -2   6 -11   -3.40    3.80
   2  -6  11   -0.90    4.30
   2  -6  11    7.60    5.70
   2  -6  11   -3.70    5.50
  -3   6 -11   17.10    6.40
  -3   6 -11    4.40    4.60
   3  -6  11    6.30    4.70
   3  -6  11   12.10    6.80
  -4   6 -11   38.90    8.20
  -4   6 -11   41.30    7.50
   4  -6  11   32.90    7.80
   4  -6  11   33.20   10.00
  -5   6 -11   10.80    6.20
   5  -6  11   14.10    7.40
   5  -6  11   24.10    7.70
   6  -6  11   -0.20    7.90
   3   5 -11   -3.40    4.50
   3   5 -11    2.00    4.90
  -3  -5  11    3.00    5.70
  -3  -5  11    5.80    6.20
  -3  -5  11    6.50    6.20
   2   5 -11   34.80    7.50
   2   5 -11   21.50    6.50
  -2  -5  11   33.30    8.70
  -2  -5  11   23.10    7.20
   1   5 -11   19.80    6.00
   1   5 -11   20.80    6.40
  -1  -5  11   21.80    7.00
  -1  -5  11   21.30    7.50
   0   5 -11   52.59    8.20
   0   5 -11   68.29    8.90
   0  -5  11   51.79    9.60
   0  -5  11   55.59   10.10
  -1   5 -11   59.29    8.00
  -1   5 -11   40.50    6.70
  -1   5 -11   33.20    6.80
   1  -5  11   62.79   10.20
   1  -5  11   38.00    6.90
   1  -5  11   43.30    8.90
  -2   5 -11   18.10    5.20
  -2   5 -11   25.50    6.40
  -2   5 -11   27.40    5.60
   2  -5  11   23.80    7.10
   2  -5  11   30.30    6.70
   2  -5  11   20.60    6.20
  -3   5 -11   73.09    8.50
  -3   5 -11   58.99    8.80
  -3   5 -11   45.90    7.10
   3  -5  11   67.09    9.60
   3  -5  11   65.69   10.60
  -4   5 -11   84.79   10.70
  -4   5 -11   60.59    8.40
   4  -5  11   52.99   10.80
   4  -5  11   63.99    9.80
  -5   5 -11   -6.00    4.20
  -5   5 -11   -4.40    5.40
   5  -5  11    6.10    5.50
   5  -5  11    3.00    6.90
  -6   5 -11    1.10    6.10
  -6   5 -11   -0.20    5.10
   6  -5  11    7.70    6.30
   6  -5  11   -2.80    6.10
   4   4 -11   39.70    7.40
   4   4 -11   56.89    9.20
   4   4 -11   43.60    8.10
  -4  -4  11   32.60    7.90
  -4  -4  11   30.70    9.10
  -4  -4  11   41.30   10.00
   3   4 -11   15.20    6.00
   3   4 -11   12.90    5.40
   3   4 -11   19.70    5.50
  -3  -4  11   20.20    6.60
  -3  -4  11   16.90    6.10
  -3  -4  11   11.50    7.30
   2   4 -11   15.70    5.20
   2   4 -11   20.70    5.50
   2   4 -11   20.80    5.90
  -2  -4  11   18.80    6.20
  -2  -4  11   15.90    6.70
   1   4 -11   -1.20    3.00
   1   4 -11    3.40    3.90
   1   4 -11    1.30    3.40
  -1  -4  11    3.90    4.80
  -1  -4  11    2.40    4.50
   0   4 -11   59.09    7.70
   0   4 -11   51.69    7.40
   0   4 -11   57.59    8.40
   0  -4  11   54.29    9.50
   0  -4  11   37.90    5.90
   0  -4  11   52.89    9.00
  -1   4 -11   87.69    9.80
  -1   4 -11   74.09    8.40
  -1   4 -11   67.39    8.00
   1  -4  11   50.59    8.80
   1  -4  11   81.29    8.90
   1  -4  11   71.09    9.40
  -2   4 -11    9.70    4.90
  -2   4 -11   10.00    5.40
  -2   4 -11   17.50    4.80
   2  -4  11    3.90    5.50
   2  -4  11    7.80    4.70
   2  -4  11    8.80    4.70
  -3   4 -11   35.40    6.40
  -3   4 -11   31.70    5.50
  -3   4 -11   59.99    8.70
   3  -4  11   32.50    7.90
   3  -4  11   31.50    6.70
  -4   4 -11   73.09   10.00
  -4   4 -11   82.69   10.60
   4  -4  11   76.19   10.50
   4  -4  11   51.99    9.80
  -5   4 -11   33.10    7.70
  -5   4 -11   52.59    8.70
   5  -4  11   35.30    8.90
   5  -4  11   48.10    9.90
  -6   4 -11   -0.60    5.40
  -6   4 -11    3.90    5.50
  -6   4 -11    5.90    4.60
   6  -4  11    1.80    5.90
   6  -4  11   -5.40    7.90
   5   3 -11   44.20    8.20
   5   3 -11   38.30    8.00
   5   3 -11   37.40    7.60
  -5  -3  11   55.79   11.30
  -5  -3  11   43.60    8.40
  -5  -3  11   51.79   10.20
   4   3 -11   25.10    6.30
   4   3 -11   29.30    7.00
   4   3 -11   11.80    5.60
  -4  -3  11   18.10    7.60
  -4  -3  11   21.60    6.60
  -4  -3  11   24.30    6.90
   3   3 -11   -0.60    2.30
   3   3 -11   -1.40    3.20
   3   3 -11    4.50    4.00
  -3  -3  11   -1.40    4.00
  -3  -3  11   -1.30    4.30
  -3  -3  11   -0.70    2.80
   2   3 -11    9.60    4.10
   2   3 -11    0.30    3.70
   2   3 -11   11.00    4.70
  -2  -3  11   15.10    5.60
  -2  -3  11    6.00    4.40
  -2  -3  11   11.60    5.80
   1   3 -11   74.59    8.90
   1   3 -11   71.79    8.20
   1   3 -11   70.59    8.10
  -1  -3  11   56.69    9.40
  -1  -3  11   74.49   10.70
   0   3 -11   43.90    7.00
   0   3 -11   44.50    6.70
   0   3 -11   41.60    6.30
   0  -3  11   23.60    4.80
   0  -3  11   37.30    7.40
   0  -3  11   40.20    8.80
  -1   3 -11    0.10    3.50
  -1   3 -11   11.20    3.70
  -1   3 -11    6.70    3.90
   1  -3  11   14.30    4.40
   1  -3  11    2.00    4.10
   1  -3  11   13.80    5.10
  -2   3 -11   26.40    5.80
  -2   3 -11   24.20    4.70
  -2   3 -11   31.80    6.50
   2  -3  11   33.10    6.80
   2  -3  11   16.70    5.40
   2  -3  11   23.50    6.60
  -3   3 -11   11.10    4.90
  -3   3 -11   10.30    4.80
   3  -3  11   14.00    6.30
   3  -3  11    2.80    4.10
  -4   3 -11  159.58   12.80
  -4   3 -11  149.09    9.50
  -4   3 -11  161.88   12.70
   4  -3  11  159.08   16.00
   4  -3  11  151.88   10.70
   4  -3  11  156.38   14.50
  -5   3 -11   82.69    9.00
  -5   3 -11   78.59   10.30
  -5   3 -11   59.69    9.60
   5  -3  11   68.09   11.40
   5  -3  11   55.19   10.30
   5  -3  11   65.09    8.70
  -6   3 -11    3.70    5.80
  -6   3 -11    4.20    4.30
  -6   3 -11   15.60    6.90
   6  -3  11    4.80    4.90
   6  -3  11    2.20    7.50
   6  -3  11    6.10    7.60
   6   2 -11   19.40    6.80
   6   2 -11   20.60    6.60
   6   2 -11   24.90    7.70
  -6  -2  11   10.50    6.60
  -6  -2  11   13.40    7.60
   5   2 -11   10.40    4.20
   5   2 -11   10.40    5.30
   5   2 -11   11.70    5.60
  -5  -2  11   13.70    6.10
  -5  -2  11   10.80    5.10
  -5  -2  11   13.50    7.00
   4   2 -11    3.30    3.90
   4   2 -11    3.60    4.00
   4   2 -11    3.30    3.00
  -4  -2  11    0.10    2.90
  -4  -2  11   -3.00    4.40
  -4  -2  11    1.30    4.90
   3   2 -11    9.10    4.60
   3   2 -11   13.50    4.60
   3   2 -11   12.00    4.20
  -3  -2  11    5.90    4.70
  -3  -2  11   12.90    4.60
  -3  -2  11    5.50    5.30
   2   2 -11  151.78   11.00
   2   2 -11  143.19    9.70
   2   2 -11  153.68   10.90
  -2  -2  11  165.08   11.50
  -2  -2  11  159.08   13.20
  -2  -2  11  133.39   13.00
   1   2 -11  162.88   11.20
   1   2 -11  182.78   12.00
   1   2 -11  193.08   10.40
  -1  -2  11  149.59   12.40
  -1  -2  11  176.68   13.40
  -1  -2  11  186.78   11.90
   0   2 -11   32.80    5.00
   0   2 -11   18.70    5.10
   0   2 -11   18.30    4.90
   0  -2  11   24.90    4.80
   0  -2  11   24.20    6.40
   0  -2  11   14.60    5.50
  -1   2 -11    2.20    2.60
  -1   2 -11    4.20    3.80
  -1   2 -11    5.10    3.70
   1  -2  11    7.60    4.70
   1  -2  11   10.90    3.70
   1  -2  11    3.50    4.90
  -2   2 -11    0.20    3.20
  -2   2 -11   -2.80    3.50
  -2   2 -11    2.00    2.90
   2  -2  11    4.00    4.20
   2  -2  11   -1.30    3.00
   2  -2  11    0.50    4.00
  -3   2 -11    0.00    2.70
  -3   2 -11    7.30    4.80
  -3   2 -11    2.20    3.70
   3  -2  11    0.90    3.70
   3  -2  11    4.20    5.40
  -4   2 -11  124.29    9.70
  -4   2 -11  116.59   12.00
  -4   2 -11  126.89   12.20
   4  -2  11  123.59   14.30
   4  -2  11  126.59   10.30
   4  -2  11  120.79   12.60
  -5   2 -11   34.60    7.70
  -5   2 -11   45.00    8.20
  -5   2 -11   26.70    6.00
   5  -2  11   32.20    8.50
   5  -2  11   23.60    8.30
   5  -2  11   40.30    7.50
   7   1 -11   52.19   10.20
   7   1 -11   60.59   10.00
  -7  -1  11   62.59   11.80
   6   1 -11   29.40    7.40
   6   1 -11   26.20    6.70
  -6  -1  11   22.80    8.50
  -6  -1  11   22.50    7.20
   5   1 -11    1.40    4.10
   5   1 -11    1.50    3.80
   5   1 -11    7.50    3.70
  -5  -1  11   -0.30    4.70
  -5  -1  11    2.30    3.30
  -5  -1  11   -3.10    5.00
   4   1 -11   -5.40    2.70
   4   1 -11    0.10    3.10
   4   1 -11    4.80    4.30
  -4  -1  11    2.30    4.50
  -4  -1  11    4.80    4.50
  -4  -1  11    3.90    4.90
   3   1 -11   63.49    8.30
   3   1 -11   66.09    8.40
   3   1 -11   54.39    6.90
  -3  -1  11   71.79    9.20
  -3  -1  11   66.89    9.20
  -3  -1  11   55.89    9.50
   2   1 -11   63.49    8.10
   2   1 -11   62.89    6.90
   2   1 -11   63.09    7.90
  -2  -1  11   40.80    7.50
  -2  -1  11   49.30    8.60
  -2  -1  11   63.89    8.10
   1   1 -11   89.59    6.70
   1   1 -11   82.39    9.10
   1   1 -11   88.89    9.30
  -1  -1  11   67.39    9.80
  -1  -1  11   55.89    8.60
  -1  -1  11   72.39    6.00
  -1  -1  11   92.59    9.20
   0   1 -11   55.19    7.30
   0   1 -11   59.09    7.90
   0   1 -11   53.59    5.40
   0   1 -11   63.99    5.90
   0  -1  11   60.79    6.90
   0  -1  11   66.59   10.00
   0  -1  11   65.99    7.10
   0  -1  11   51.39    8.00
  -1   1 -11   -1.80    3.10
  -1   1 -11   -0.30    2.00
  -1   1 -11    0.00    3.00
   1  -1  11   -2.40    2.20
   1  -1  11    0.10    3.80
   1  -1  11   -2.10    3.30
  -2   1 -11  113.39    9.40
  -2   1 -11  110.29    7.70
  -2   1 -11  104.49   11.40
   2  -1  11  107.89   12.40
   2  -1  11  104.19   10.40
   2  -1  11   90.39    9.40
  -3   1 -11   88.99   10.50
  -3   1 -11   83.59    9.20
  -3   1 -11   81.99    8.20
   3  -1  11   81.59   10.40
   3  -1  11   79.89   11.50
  -4   1 -11   14.10    4.50
  -4   1 -11    7.30    4.90
  -4   1 -11   12.10    5.60
   4  -1  11    5.00    6.30
   4  -1  11    8.30    5.70
   4  -1  11   11.20    4.40
  -5   1 -11    9.90    5.80
  -5   1 -11    1.50    5.40
  -5   1 -11    3.10    4.20
   5  -1  11    7.10    8.90
   5  -1  11    0.10    4.20
   5  -1  11    7.90    6.40
   7   0 -11    6.20    5.80
   7   0 -11   29.00    7.90
  -7   0  11   23.70    7.80
  -7   0  11   20.90    8.10
   6   0 -11   69.79    9.60
   6   0 -11   82.69   11.20
  -6   0  11   49.00    8.80
  -6   0  11   79.49   12.70
   5   0 -11    4.60    4.60
   5   0 -11   -3.00    3.40
  -5   0  11    0.10    4.40
  -5   0  11    5.00    5.50
  -5   0  11    4.80    4.90
   4   0 -11   45.30    7.60
   4   0 -11   39.10    6.90
  -4   0  11   24.00    5.90
  -4   0  11   21.20    6.60
  -4   0  11   25.20    5.90
   3   0 -11   14.00    4.30
   3   0 -11    7.20    3.90
  -3   0  11   12.50    4.50
  -3   0  11   10.60    5.20
  -3   0  11   11.20    4.90
   2   0 -11   -0.40    2.40
   2   0 -11    0.80    2.70
   2   0 -11    2.60    3.00
   2   0 -11    0.90    3.20
  -2   0  11   -5.20    3.60
  -2   0  11   -3.10    3.10
  -2   0  11   -1.50    3.30
   1   0 -11  118.39    7.50
   1   0 -11  128.49   10.40
   1   0 -11  133.49    9.30
   1   0 -11  141.59    7.80
  -1   0  11  142.69   11.80
  -1   0  11  134.59    8.60
  -1   0  11  141.89   11.80
  -1   0  11  138.29    9.00
   0   0 -11  134.39    8.10
   0   0 -11  113.89   10.20
   0   0 -11  131.69    9.30
   0   0  11  120.39    9.00
   0   0  11  115.99   12.30
  -1   0 -11  123.29    8.40
  -1   0 -11  129.49   11.00
  -1   0 -11  126.99    9.30
   1   0  11  129.49   10.20
   1   0  11  116.89   12.50
   1   0  11  122.99   10.70
  -2   0 -11  104.49    9.80
  -2   0 -11  106.79   11.20
  -2   0 -11  105.69    8.30
   2   0  11  110.69   11.40
   2   0  11  100.79   13.00
  -3   0 -11   23.30    5.20
  -3   0 -11   23.50    6.40
  -3   0 -11   22.50    5.50
   3   0  11   15.90    7.20
   3   0  11   47.00    8.90
  -4   0 -11    6.10    5.40
  -4   0 -11   10.40    4.50
  -4   0 -11    6.10    4.80
   4   0  11   14.40    8.40
   4   0  11    6.60    5.70
  -5   0 -11   24.20    6.60
  -5   0 -11    9.90    6.00
  -5   0 -11    4.30    6.50
   5   0  11   13.10    7.20
   5   0  11   16.90    6.10
   5   0  11   16.50    9.30
   7  -1 -11   93.29   12.00
   7  -1 -11   36.30    7.60
  -7   1  11   37.70    9.10
  -7   1  11   43.70   10.50
   6  -1 -11   42.00    8.20
   6  -1 -11   35.40    7.10
  -6   1  11   25.10    8.80
  -6   1  11   25.70    7.10
   5  -1 -11   42.90    7.00
   5  -1 -11   39.30    7.40
  -5   1  11   38.80    8.70
  -5   1  11   36.60    6.80
  -5   1  11   35.60    6.90
   4  -1 -11    6.20    3.90
   4  -1 -11    5.10    3.60
   4  -1 -11    7.70    2.90
  -4   1  11    4.50    3.80
  -4   1  11    5.10    3.80
  -4   1  11   -3.30    3.80
   3  -1 -11    8.20    3.50
   3  -1 -11   10.20    3.70
   3  -1 -11    9.20    3.80
  -3   1  11    2.40    3.50
  -3   1  11    6.10    4.20
  -3   1  11    6.40    4.80
   2  -1 -11   26.70    5.10
   2  -1 -11   15.10    5.00
   2  -1 -11   27.50    4.50
  -2   1  11   25.30    6.00
  -2   1  11   26.50    4.90
  -2   1  11   16.90    5.60
   1  -1 -11   61.29    7.00
   1  -1 -11   55.39    8.20
   1  -1 -11   52.69    6.00
  -1   1  11   66.99    7.30
  -1   1  11   39.70    7.50
  -1   1  11   44.70    8.40
   0  -1 -11    7.70    4.40
   0  -1 -11   12.40    3.90
   0  -1 -11   13.70    3.90
   0   1  11   11.80    4.60
   0   1  11   16.70    6.20
   0   1  11   18.90    6.10
  -1  -1 -11    4.30    3.40
  -1  -1 -11    6.40    3.50
  -1  -1 -11    4.00    4.20
   1   1  11   16.20    6.20
   1   1  11   11.40    5.40
   1   1  11    5.60    4.80
  -2  -1 -11   43.30    6.70
  -2  -1 -11   32.70    5.90
  -2  -1 -11   35.90    7.20
   2   1  11   47.60    9.90
   2   1  11   42.90    7.50
  -3  -1 -11   53.99    8.90
  -3  -1 -11   48.60    7.50
   3   1  11   46.90   10.30
   3   1  11   50.29    8.80
  -4  -1 -11   23.30    7.30
  -4  -1 -11   21.60    5.90
   4   1  11   25.10    8.00
   4   1  11   25.10    9.40
   8  -2 -11   -3.40    4.80
   8  -2 -11    8.20    6.30
  -8   2  11    5.00    6.30
  -8   2  11   -4.30    5.60
  -8   2  11    2.70    7.20
   7  -2 -11    8.00    5.30
   7  -2 -11   10.20    5.50
  -7   2  11    9.50    6.20
  -7   2  11   -3.00    5.80
   6  -2 -11   26.50    5.20
   6  -2 -11   31.40    6.70
   6  -2 -11   18.60    6.30
  -6   2  11   30.50    8.50
  -6   2  11   35.50    8.10
   5  -2 -11   18.90    5.60
   5  -2 -11   15.60    5.80
   5  -2 -11   28.20    5.20
  -5   2  11   24.50    6.20
  -5   2  11   13.20    6.30
  -5   2  11   22.30    5.80
   4  -2 -11    0.90    3.00
   4  -2 -11    5.20    4.30
   4  -2 -11    2.40    3.00
  -4   2  11   -0.60    3.40
  -4   2  11    7.00    5.30
  -4   2  11    4.20    4.10
   3  -2 -11   65.09    7.30
   3  -2 -11   61.79    8.60
   3  -2 -11   48.90    6.30
  -3   2  11   46.60    6.50
  -3   2  11   72.99    9.60
  -3   2  11   45.30    8.50
   2  -2 -11   58.29    6.10
   2  -2 -11   89.09    9.90
   2  -2 -11   78.89    7.70
   2  -2 -11   89.29    8.10
  -2   2  11   50.09    8.90
  -2   2  11   85.29    7.00
  -2   2  11   68.89    9.80
   1  -2 -11   23.30    5.30
   1  -2 -11   24.00    4.50
   1  -2 -11   22.20    5.90
  -1   2  11   10.00    5.20
  -1   2  11   16.20    6.10
  -1   2  11   24.00    5.10
   0  -2 -11   12.10    4.90
   0  -2 -11    8.20    3.40
   0  -2 -11   13.50    5.00
   0   2  11    4.30    4.10
   0   2  11   10.20    5.90
   0   2  11    5.70    6.20
  -1  -2 -11   92.89    9.10
  -1  -2 -11   70.89    9.70
   1   2  11   65.39    9.40
   1   2  11   80.79    9.60
   1   2  11   87.59   12.60
  -2  -2 -11   17.90    5.40
  -2  -2 -11   23.70    6.90
   2   2  11   16.80    6.90
   2   2  11   23.70    6.90
  -3  -2 -11   72.19    9.10
  -3  -2 -11   72.79   10.50
   3   2  11   78.69   11.40
   3   2  11   94.29   14.00
   8  -3 -11   25.80    7.90
   8  -3 -11    9.80    5.30
   8  -3 -11   19.70    6.60
  -8   3  11   23.20    8.40
  -8   3  11   17.40    7.90
  -8   3  11    9.00    8.10
   7  -3 -11   -0.40    4.60
   7  -3 -11    1.90    4.20
   7  -3 -11    0.60    3.90
  -7   3  11   -3.40    4.20
  -7   3  11   -1.70    5.80
   6  -3 -11   48.70    9.00
   6  -3 -11   33.80    6.60
   6  -3 -11   30.40    6.30
  -6   3  11   20.80    7.50
  -6   3  11   29.00    7.30
   5  -3 -11   42.50    7.80
   5  -3 -11   38.20    6.20
   5  -3 -11   25.30    5.70
  -5   3  11   32.90    6.80
  -5   3  11   24.00    7.50
  -5   3  11   42.40    7.90
   4  -3 -11   10.10    3.60
   4  -3 -11   10.60    4.10
   4  -3 -11   18.10    5.70
  -4   3  11   12.80    5.50
  -4   3  11   15.60    6.50
  -4   3  11    5.20    4.80
   3  -3 -11   91.19    9.00
   3  -3 -11   95.99   10.50
  -3   3  11   65.59   10.30
  -3   3  11   79.79    9.90
   2  -3 -11   41.70    7.50
   2  -3 -11   47.70    6.90
   2  -3 -11   35.60    5.70
  -2   3  11   34.60    8.00
  -2   3  11   53.19    6.90
  -2   3  11   38.00    7.50
   1  -3 -11   14.90    4.50
   1  -3 -11   10.60    4.20
   1  -3 -11    9.00    4.50
  -1   3  11   11.50    4.90
  -1   3  11    6.20    5.20
  -1   3  11   10.60    5.70
   0  -3 -11   23.70    5.40
   0  -3 -11   22.40    6.40
   0  -3 -11   24.80    6.00
   0   3  11   26.90    7.20
   0   3  11   22.70    6.50
   0   3  11   19.90    6.80
  -1  -3 -11   -2.30    4.30
  -1  -3 -11    0.50    3.90
   1   3  11    2.00    6.00
   1   3  11    3.40    5.80
   1   3  11    0.70    5.10
  -2  -3 -11   36.70    7.30
  -2  -3 -11   35.00    8.00
   2   3  11   32.70    9.40
   2   3  11   26.30    7.50
   8  -4 -11    9.00    5.80
   8  -4 -11    5.20    5.60
   8  -4 -11    1.90    5.30
  -8   4  11    5.60    6.80
  -8   4  11   -2.10    5.40
  -8   4  11    5.70    6.90
   7  -4 -11   16.40    5.20
   7  -4 -11   20.70    6.60
   7  -4 -11   21.90    5.90
  -7   4  11   17.00    6.20
  -7   4  11   18.60    8.20
  -7   4  11    8.10    6.10
   6  -4 -11    3.90    4.00
   6  -4 -11    4.80    5.10
  -6   4  11    7.00    6.50
  -6   4  11    2.70    5.10
   5  -4 -11   17.40    5.70
   5  -4 -11    6.60    4.30
  -5   4  11   11.50    5.00
  -5   4  11   13.90    6.70
  -5   4  11    4.00    4.60
   4  -4 -11    5.80    4.60
   4  -4 -11   -0.30    3.50
  -4   4  11    2.20    4.30
  -4   4  11    3.20    5.70
   3  -4 -11   26.70    6.40
   3  -4 -11   14.40    4.80
  -3   4  11   23.40    7.70
  -3   4  11   13.30    6.50
   2  -4 -11   36.00    6.30
   2  -4 -11   47.60    7.30
   2  -4 -11   58.09    8.70
  -2   4  11   45.20    8.50
  -2   4  11   50.49    7.00
  -2   4  11   40.10    8.80
   1  -4 -11   -4.80    3.50
   1  -4 -11    2.60    4.60
   1  -4 -11   -3.30    3.10
  -1   4  11    0.50    5.30
  -1   4  11    2.80    5.10
  -1   4  11   -3.00    4.40
   0  -4 -11   -0.10    5.10
   0  -4 -11    1.40    4.20
   0  -4 -11    2.40    4.40
   0   4  11    3.30    5.90
   0   4  11    3.40    6.00
   0   4  11    1.80    7.10
  -1  -4 -11   22.90    6.20
  -1  -4 -11   11.30    5.80
  -1  -4 -11   13.00    6.50
   1   4  11   33.80   13.40
   1   4  11   15.50    7.50
   1   4  11   13.50    6.50
   7  -5 -11   19.20    6.60
   7  -5 -11   17.10    5.50
  -7   5  11    6.60    6.00
  -7   5  11    0.10    6.40
   6  -5 -11   -5.30    3.30
   6  -5 -11    4.40    4.80
  -6   5  11    4.10    6.30
  -6   5  11    6.60    6.20
   5  -5 -11    5.10    4.50
   5  -5 -11    3.10    4.30
  -5   5  11    9.40    5.90
  -5   5  11    4.20    6.30
   4  -5 -11    4.60    4.30
   4  -5 -11   -2.50    3.90
  -4   5  11   -4.00    3.90
  -4   5  11    7.90    6.40
   3  -5 -11   23.10    6.20
   3  -5 -11   21.20    5.90
   3  -5 -11   31.60    9.10
  -3   5  11   24.30    8.60
  -3   5  11   31.10    8.20
   2  -5 -11   39.00    7.10
   2  -5 -11   22.30    5.60
   2  -5 -11   10.00    5.50
  -2   5  11   27.30    6.60
  -2   5  11   28.80    7.90
  -2   5  11   30.10    9.10
   1  -5 -11   -1.40    4.30
   1  -5 -11   -5.40    4.70
   1  -5 -11   -1.50    4.80
  -1   5  11    1.40    6.70
  -1   5  11    2.50    5.20
  -1   5  11    0.70    5.80
   0  -5 -11    1.90    4.80
   0  -5 -11    7.80    5.60
   0  -5 -11    8.20    7.00
   0   5  11    3.50    5.80
   0   5  11   -5.10    5.90
   0   5  11   -0.50    6.50
   6  -6 -11   -1.50    4.20
   6  -6 -11    1.40    5.70
  -6   6  11    1.70    6.70
   5  -6 -11   -1.30    4.10
   5  -6 -11   -0.10    4.40
  -5   6  11   -0.40    4.80
  -5   6  11    5.40    6.00
   4  -6 -11   21.90    6.40
   4  -6 -11   10.40    5.50
  -4   6  11    7.90    6.00
  -4   6  11   16.50    7.60
   3  -6 -11   18.30    6.40
   3  -6 -11   17.20    6.00
   3  -6 -11   14.80    6.50
  -3   6  11    3.40    5.80
  -3   6  11   26.10    8.80
   2  -6 -11    3.90    5.00
   2  -6 -11    0.50    4.90
   2  -6 -11   10.40    5.80
  -2   6  11   -8.30    8.60
  -2   6  11   15.30    8.60
  -1   7 -12   36.10    8.40
  -1   7 -12   34.60    8.00
   1  -7  12   38.60   10.10
   1  -7  12   51.69   11.30
  -2   7 -12   55.69    9.90
  -2   7 -12   63.69   10.30
   2  -7  12   44.70   10.50
   2  -7  12   43.70   10.30
  -3   7 -12   -0.90    5.30
  -3   7 -12   -1.40    5.10
   3  -7  12    6.30    7.10
   3  -7  12   -4.50    4.70
   1   6 -12   30.80    7.70
   1   6 -12   38.50    8.40
  -1  -6  12   37.90    9.80
  -1  -6  12   23.90    8.50
   0   6 -12   -3.70    4.00
   0   6 -12   -3.30    4.80
   0  -6  12    2.30    6.30
   0  -6  12    6.50    8.10
  -1   6 -12   16.50    5.90
  -1   6 -12   19.60    6.50
   1  -6  12   23.20    7.70
   1  -6  12   32.50    9.00
  -2   6 -12   43.10    7.90
  -2   6 -12   41.60    8.40
   2  -6  12   27.00    6.80
   2  -6  12   41.90   10.80
   2  -6  12   30.90    8.50
  -3   6 -12   18.90    6.40
  -3   6 -12   19.40    6.20
   3  -6  12   16.20    7.00
   3  -6  12   33.30    8.60
  -4   6 -12   -5.30    4.40
   4  -6  12   -0.30    6.40
   4  -6  12   -1.10    5.80
   3   5 -12   70.89   10.60
   3   5 -12   70.59   10.50
  -3  -5  12   67.39   12.30
  -3  -5  12   63.29   11.10
  -3  -5  12   67.49   12.00
   2   5 -12   11.20    6.10
   2   5 -12    4.30    5.40
  -2  -5  12    3.60    5.70
  -2  -5  12    4.90    6.50
   1   5 -12    3.90    4.20
   1   5 -12    2.10    4.70
  -1  -5  12   -2.20    5.40
  -1  -5  12    1.00    5.60
   0   5 -12   20.60    6.50
   0   5 -12   14.50    5.40
   0  -5  12   11.10    6.90
   0  -5  12   16.50    7.10
  -1   5 -12    1.50    3.80
  -1   5 -12   -1.10    4.00
   1  -5  12   -1.50    4.50
   1  -5  12   -1.70    5.10
  -2   5 -12   64.09    9.10
  -2   5 -12   84.29   10.80
  -2   5 -12  103.79   10.70
   2  -5  12   51.29    9.90
   2  -5  12   95.99   12.40
   2  -5  12   43.80    7.50
  -3   5 -12   66.09    8.70
  -3   5 -12   90.29   11.00
  -3   5 -12   74.49   10.20
   3  -5  12   82.89   11.00
   3  -5  12   73.99   12.40
  -4   5 -12    3.90    5.40
  -4   5 -12   13.20    5.90
   4  -5  12   11.90    6.30
   4  -5  12    6.20    6.90
  -5   5 -12   15.80    7.20
  -5   5 -12   10.80    6.60
   5  -5  12    9.90    7.40
   5  -5  12    4.60    5.80
   4   4 -12   55.09    9.40
   4   4 -12   61.09   10.00
  -4  -4  12   84.09   12.80
  -4  -4  12   70.19   12.80
  -4  -4  12   71.89   11.10
   3   4 -12   41.80    7.90
   3   4 -12   25.40    6.80
   3   4 -12   40.00    7.40
  -3  -4  12   39.80    9.60
  -3  -4  12   36.80    8.80
  -3  -4  12   35.00    9.20
   2   4 -12    8.00    5.30
   2   4 -12    0.80    3.90
   2   4 -12    4.10    4.90
  -2  -4  12    4.90    6.00
  -2  -4  12    5.10    5.20
  -2  -4  12    8.00    6.10
   1   4 -12   -0.50    3.90
   1   4 -12    0.20    4.40
   1   4 -12   -1.00    3.40
  -1  -4  12   -0.40    5.10
  -1  -4  12    0.00    5.70
   0   4 -12   -5.80    2.90
   0   4 -12   -2.00    4.10
   0   4 -12   -1.60    3.20
   0  -4  12    5.20    5.50
   0  -4  12   -2.00    4.50
  -1   4 -12   49.40    8.20
  -1   4 -12   46.80    7.00
  -1   4 -12   47.30    7.50
   1  -4  12   49.90    8.80
   1  -4  12   43.90    8.80
   1  -4  12   43.50    6.90
  -2   4 -12  149.79    9.90
  -2   4 -12  157.68   12.60
  -2   4 -12  145.09   11.90
   2  -4  12  115.79   12.20
   2  -4  12  146.99   15.20
   2  -4  12  151.98   11.80
  -3   4 -12   31.20    7.10
  -3   4 -12   19.60    6.60
   3  -4  12   11.60    6.80
   3  -4  12   20.50    6.20
  -4   4 -12   -1.30    4.70
  -4   4 -12    1.20    4.80
   4  -4  12   -0.10    6.00
   4  -4  12    7.30    6.40
  -5   4 -12    7.80    6.30
  -5   4 -12    5.80    5.70
   5  -4  12    0.10    5.60
   5  -4  12    4.90    6.30
   5   3 -12    2.70    5.20
   5   3 -12    5.20    4.10
   5   3 -12    3.60    5.50
  -5  -3  12    8.50    5.10
  -5  -3  12   15.60    8.20
   4   3 -12    6.30    4.10
   4   3 -12   11.50    4.80
   4   3 -12   11.70    5.40
  -4  -3  12    7.30    6.10
  -4  -3  12    9.50    6.90
  -4  -3  12   16.30    5.90
   3   3 -12   24.40    6.10
   3   3 -12   26.80    7.00
   3   3 -12   13.40    5.30
  -3  -3  12   21.50    7.80
  -3  -3  12   11.60    5.90
  -3  -3  12   10.50    5.90
   2   3 -12   65.29    8.70
   2   3 -12   75.29    9.60
   2   3 -12   66.39    8.30
  -2  -3  12   70.39   11.10
  -2  -3  12   66.19   10.10
  -2  -3  12   56.99    9.40
   1   3 -12    1.90    4.00
   1   3 -12    6.40    3.80
   1   3 -12    2.40    3.90
  -1  -3  12    2.50    5.20
  -1  -3  12    4.70    6.20
  -1  -3  12    2.50    4.60
   0   3 -12  117.99    9.00
   0   3 -12  145.99   13.00
   0   3 -12  149.99   11.90
   0  -3  12  147.99   14.30
   0  -3  12  119.59   13.60
  -1   3 -12   29.60    5.20
  -1   3 -12   31.00    6.60
  -1   3 -12   36.20    6.90
   1  -3  12   33.80    8.10
   1  -3  12   23.80    7.00
   1  -3  12   37.30    6.80
  -2   3 -12    1.00    4.10
  -2   3 -12    2.10    4.10
   2  -3  12    4.90    5.20
   2  -3  12    3.70    5.90
   2  -3  12    4.20    4.70
  -3   3 -12   11.40    5.30
  -3   3 -12   28.30    7.50
   3  -3  12   11.20    6.40
   3  -3  12   11.60    5.90
  -4   3 -12    0.00    4.80
  -4   3 -12   -4.70    4.50
   4  -3  12    0.90    4.70
   4  -3  12    2.30    6.30
  -5   3 -12   14.00    7.70
  -5   3 -12   -1.80    5.20
   5  -3  12    7.10    6.60
   5  -3  12    4.20    6.90
   5   2 -12    4.10    5.00
   5   2 -12    1.20    4.40
   5   2 -12   -1.60    4.50
  -5  -2  12    6.70    6.80
  -5  -2  12   -2.60    5.00
  -5  -2  12   -1.70    4.50
   4   2 -12    2.10    4.50
   4   2 -12   -0.10    3.90
   4   2 -12    3.20    4.30
  -4  -2  12    1.60    4.70
  -4  -2  12   -2.30    5.40
  -4  -2  12   10.80    5.20
   3   2 -12   23.40    6.10
   3   2 -12   11.30    5.20
   3   2 -12   26.90    6.00
  -3  -2  12   30.40    8.30
  -3  -2  12   31.90    7.30
  -3  -2  12   34.10    7.60
   2   2 -12   89.69   10.20
   2   2 -12   82.99    8.80
   2   2 -12   84.09    9.70
  -2  -2  12   76.69   10.20
  -2  -2  12   84.49   11.50
  -2  -2  12   80.49   11.00
   1   2 -12   23.70    5.00
   1   2 -12   29.10    6.50
   1   2 -12   22.40    5.60
  -1  -2  12   24.60    7.70
  -1  -2  12   25.50    7.00
  -1  -2  12   23.40    5.90
   0   2 -12   68.39    8.60
   0   2 -12   65.19    7.10
   0   2 -12   58.49    8.20
   0  -2  12   70.39    8.50
   0  -2  12   36.80    8.40
   0  -2  12   48.70    6.50
   0  -2  12   52.99    9.30
  -1   2 -12    4.50    4.50
  -1   2 -12    5.10    4.00
   1  -2  12    0.60    4.30
   1  -2  12   -1.10    2.90
   1  -2  12   -2.00    4.20
  -2   2 -12    5.80    4.50
  -2   2 -12    9.00    5.20
   2  -2  12   12.30    6.10
   2  -2  12   13.40    5.70
  -3   2 -12    6.60    4.50
  -3   2 -12    6.40    5.00
  -3   2 -12    5.90    3.50
   3  -2  12   -2.20    5.50
   3  -2  12    7.70    5.40
  -4   2 -12   -4.00    4.30
  -4   2 -12    4.30    5.20
  -4   2 -12    0.10    3.30
   4  -2  12   -6.60    7.20
   4  -2  12   -4.00    3.30
   4  -2  12    0.80    5.80
  -5   2 -12   11.10    5.80
  -5   2 -12   10.90    4.90
  -5   2 -12   22.60    7.50
   5  -2  12   14.60    8.70
   5  -2  12   27.90    9.80
   5  -2  12   14.70    6.10
   6   1 -12    2.30    5.00
   6   1 -12    0.50    4.70
  -6  -1  12    0.80    6.60
  -6  -1  12   -1.40    5.30
   5   1 -12    5.70    5.00
   5   1 -12   -5.40    4.20
  -5  -1  12   -0.90    5.10
  -5  -1  12    5.00    6.00
  -5  -1  12    7.70    6.10
   4   1 -12    2.50    4.00
   4   1 -12   -0.40    3.80
   4   1 -12    1.60    3.70
  -4  -1  12   -4.10    3.90
  -4  -1  12   -5.40    4.20
  -4  -1  12    2.00    4.50
   3   1 -12   11.00    4.20
   3   1 -12    9.80    4.70
   3   1 -12   21.50    5.70
  -3  -1  12    5.60    4.70
  -3  -1  12   13.80    6.50
  -3  -1  12   13.20    5.20
   2   1 -12   39.70    7.00
   2   1 -12   35.90    5.50
   2   1 -12   38.80    6.70
  -2  -1  12   34.90    7.70
  -2  -1  12   27.10    5.80
  -2  -1  12   27.60    6.90
   1   1 -12   -0.30    2.30
   1   1 -12    3.60    4.00
   1   1 -12    5.50    3.70
  -1  -1  12    0.20    4.30
  -1  -1  12   -0.80    4.00
  -1  -1  12   -2.70    3.00
   0   1 -12    7.00    4.20
   0   1 -12    4.00    3.60
   0  -1  12    4.00    3.20
   0  -1  12   -0.40    4.20
   0  -1  12    1.10    4.40
  -1   1 -12   19.70    4.00
  -1   1 -12   18.00    5.20
  -1   1 -12   19.50    5.60
   1  -1  12   13.10    6.10
   1  -1  12    7.90    4.80
   1  -1  12   11.10    6.30
  -2   1 -12   17.00    5.40
  -2   1 -12    9.40    5.50
  -2   1 -12   15.80    4.10
   2  -1  12   24.40    7.50
   2  -1  12   15.90    6.60
  -3   1 -12   -0.30    3.40
  -3   1 -12   -0.70    4.00
  -3   1 -12    6.00    5.50
   3  -1  12    9.50    5.20
   3  -1  12   -3.00    6.80
  -4   1 -12    1.40    4.30
  -4   1 -12    2.00    3.90
  -4   1 -12    0.10    5.30
   4  -1  12   12.50    7.80
   4  -1  12   -0.70    5.40
   6   0 -12    2.60    5.10
   6   0 -12    5.40    5.10
  -6   0  12   -3.80    4.80
  -6   0  12    6.90    7.00
   5   0 -12  138.39   13.30
   5   0 -12  124.59   12.20
  -5   0  12   96.49   13.20
  -5   0  12  117.59   12.80
   4   0 -12   26.30    6.40
   4   0 -12   27.00    6.10
  -4   0  12   26.00    6.30
  -4   0  12   22.50    6.80
  -4   0  12   34.80    8.40
   3   0 -12    0.60    3.40
   3   0 -12    9.60    4.20
  -3   0  12    2.00    4.40
  -3   0  12    3.90    4.10
  -3   0  12    5.10    5.40
   2   0 -12    0.50    3.10
   2   0 -12    0.50    4.00
  -2   0  12    0.10    4.40
  -2   0  12   -1.80    4.50
  -2   0  12   -0.80    3.00
   1   0 -12   12.50    5.00
   1   0 -12   18.60    4.90
   1   0 -12    6.50    3.10
  -1   0  12   11.20    5.60
  -1   0  12    9.10    4.90
   0   0 -12    4.20    3.50
   0   0 -12    0.80    4.10
   0   0 -12    2.30    2.90
   0   0  12   -0.10    4.40
   0   0  12    0.80    4.20
   0   0  12   10.00    4.40
  -1   0 -12  211.38   11.50
  -1   0 -12  208.78   12.60
  -1   0 -12  195.48   14.20
   1   0  12  226.38   13.80
   1   0  12  211.68   16.20
  -2   0 -12    7.80    3.90
  -2   0 -12   12.30    4.90
  -2   0 -12    8.00    5.10
   2   0  12    4.00    5.60
   2   0  12   16.30    6.70
  -3   0 -12   -3.10    4.10
  -3   0 -12   -0.20    4.10
  -3   0 -12    2.50    4.00
   3   0  12    7.30    6.60
   3   0  12    7.70    7.20
  -4   0 -12   -1.80    5.70
  -4   0 -12    3.30    4.50
  -4   0 -12   -2.50    4.70
   4   0  12    1.60    5.90
   4   0  12   -6.70    5.90
   7  -1 -12   45.40    9.60
   7  -1 -12   24.80    7.10
  -7   1  12   20.70    8.30
  -7   1  12   33.20   10.60
   6  -1 -12   59.79    8.80
   6  -1 -12   69.09   10.20
  -6   1  12   45.30   10.70
  -6   1  12   54.49    9.50
   5  -1 -12  130.69   12.90
  -5   1  12   96.49   11.20
  -5   1  12   98.39   11.00
  -5   1  12  110.59   13.90
   4  -1 -12   20.70    6.00
   4  -1 -12   24.90    5.90
  -4   1  12   15.10    5.60
  -4   1  12   15.60    6.50
  -4   1  12   15.30    5.20
   3  -1 -12    7.60    3.80
   3  -1 -12    8.40    4.50
   3  -1 -12    6.00    3.70
  -3   1  12    2.70    3.80
  -3   1  12    4.80    5.40
  -3   1  12    2.30    4.20
   2  -1 -12    3.00    3.10
   2  -1 -12   -0.20    3.40
   2  -1 -12   -1.60    3.30
  -2   1  12    0.10    4.90
  -2   1  12    3.60    4.60
   1  -1 -12    4.60    4.60
   1  -1 -12   -0.30    2.80
   1  -1 -12   -0.90    3.40
  -1   1  12   -2.30    3.20
  -1   1  12    2.60    4.40
  -1   1  12    9.30    5.90
   0  -1 -12   37.90    6.40
   0  -1 -12   56.49    9.40
   0  -1 -12   55.89    7.10
   0   1  12   42.40    7.10
   0   1  12   39.70    8.70
   0   1  12   32.20    7.40
  -1  -1 -12   36.00    7.50
  -1  -1 -12   57.19    7.00
  -1  -1 -12   52.89    7.30
   1   1  12   43.20    9.00
   1   1  12   56.19    8.90
   1   1  12   49.10    8.30
  -2  -1 -12   27.10    5.90
  -2  -1 -12   20.30    6.90
   2   1  12   25.40    8.30
   2   1  12   24.80    6.60
  -3  -1 -12    2.30    4.50
  -3  -1 -12    0.60    5.10
   3   1  12    2.60    5.40
   3   1  12    3.40    7.00
   7  -2 -12    0.00    4.90
   7  -2 -12    5.20    5.10
  -7   2  12   -0.70    6.20
  -7   2  12   -2.40    5.10
   6  -2 -12    1.30    4.10
   6  -2 -12    8.50    5.10
  -6   2  12    6.80    5.70
  -6   2  12   11.70    6.80
   5  -2 -12   19.70    5.10
   5  -2 -12   30.30    7.20
   5  -2 -12   16.00    5.10
  -5   2  12   11.20    5.60
  -5   2  12   17.00    5.50
  -5   2  12   22.00    8.20
   4  -2 -12   88.99   11.30
   4  -2 -12   70.29    7.60
   4  -2 -12   83.09    9.40
  -4   2  12   61.89   10.60
  -4   2  12   65.59    9.70
  -4   2  12   63.89    9.20
   3  -2 -12   23.10    5.00
   3  -2 -12   22.50    5.10
   3  -2 -12   28.60    6.80
  -3   2  12   19.70    6.40
  -3   2  12   24.00    7.70
   2  -2 -12   30.50    7.10
   2  -2 -12   36.00    6.00
   2  -2 -12   36.00    5.70
  -2   2  12   33.40    7.60
  -2   2  12   41.70    8.90
   1  -2 -12    4.60    3.90
   1  -2 -12    6.90    5.50
  -1   2  12    9.10    7.00
  -1   2  12    4.90    4.40
  -1   2  12    0.20    6.00
   0  -2 -12   36.00    6.40
   0  -2 -12   44.90    8.30
   0   2  12   32.10    8.30
   0   2  12   53.79    7.90
   0   2  12   47.10    9.20
  -1  -2 -12    6.50    5.50
  -1  -2 -12   11.40    4.70
   1   2  12   14.30    6.80
   1   2  12   19.00    6.10
   1   2  12   17.10    6.30
  -2  -2 -12   13.40    5.50
  -2  -2 -12    7.00    5.80
   2   2  12   12.20    6.90
   2   2  12    5.60    7.60
   7  -3 -12    2.20    5.50
   7  -3 -12   10.20    6.00
  -7   3  12   11.30    7.50
  -7   3  12    5.70    6.20
   6  -3 -12    0.70    3.70
   6  -3 -12    0.70    4.20
   6  -3 -12    4.10    4.90
  -6   3  12    4.40    6.50
  -6   3  12   -3.00    4.80
   5  -3 -12    7.40    4.80
   5  -3 -12    1.50    4.90
   5  -3 -12    2.50    3.50
  -5   3  12    0.10    5.20
  -5   3  12    7.50    5.10
  -5   3  12    5.40    6.20
   4  -3 -12   62.49    9.50
   4  -3 -12   48.50    7.10
  -4   3  12   40.80    7.90
  -4   3  12   37.90    9.00
   3  -3 -12    0.80    4.40
   3  -3 -12    2.50    3.70
  -3   3  12    5.00    6.20
  -3   3  12   10.10    6.50
   2  -3 -12    3.80    3.80
   2  -3 -12    6.20    5.10
  -2   3  12    4.20    5.80
  -2   3  12    5.60    5.30
   1  -3 -12    8.60    4.50
   1  -3 -12    7.70    5.00
   1  -3 -12   14.90    6.30
  -1   3  12   15.00    5.20
  -1   3  12   11.90    6.20
  -1   3  12   15.40    7.00
   0  -3 -12    8.50    4.90
   0  -3 -12    4.10    5.60
   0  -3 -12    0.40    3.70
   0   3  12    6.30    6.40
   0   3  12    9.00    5.00
   0   3  12    6.30    6.50
  -1  -3 -12    8.90    6.00
  -1  -3 -12   13.80    5.70
   1   3  12   10.60    7.40
   1   3  12   -0.80    5.30
   7  -4 -12    0.80    4.30
   7  -4 -12    3.70    5.60
  -7   4  12   -1.20    6.30
  -7   4  12   -5.40    5.40
   6  -4 -12    2.00    3.90
   6  -4 -12    7.80    5.50
  -6   4  12    6.60    5.80
  -6   4  12    4.70    6.80
   5  -4 -12    2.40    4.00
   5  -4 -12    5.60    5.10
  -5   4  12   -2.80    5.50
  -5   4  12   -1.30    4.50
   4  -4 -12   -2.40    4.20
   4  -4 -12    1.80    3.90
  -4   4  12    2.00    6.00
  -4   4  12    0.30    4.60
   3  -4 -12    1.40    4.40
   3  -4 -12   -1.60    4.30
  -3   4  12   -0.10    5.70
  -3   4  12    0.90    6.00
   2  -4 -12   14.00    5.70
   2  -4 -12    5.30    5.30
   2  -4 -12    7.90    5.30
  -2   4  12   15.70    6.70
  -2   4  12    4.50    6.50
   1  -4 -12    6.60    5.70
   1  -4 -12    4.90    4.70
   1  -4 -12    7.70    5.70
  -1   4  12    9.70    6.50
  -1   4  12    2.30    6.70
  -1   4  12   12.90    6.30
   0  -4 -12   37.70    7.50
   0  -4 -12   22.40    7.50
   0  -4 -12   17.40    5.80
   0   4  12   23.50   10.50
   0   4  12   31.20    7.60
   0   4  12   24.00    8.70
   6  -5 -12   20.70    6.10
   6  -5 -12   14.70    6.60
  -6   5  12   14.30    7.90
   5  -5 -12    0.00    4.50
   5  -5 -12   -0.20    4.40
  -5   5  12    0.60    4.90
  -5   5  12   -4.00    5.40
   4  -5 -12   -5.30    4.20
   4  -5 -12    4.90    4.70
  -4   5  12   -2.90    4.70
  -4   5  12   -0.80    5.90
   3  -5 -12   15.30    5.90
   3  -5 -12   16.80    6.20
  -3   5  12    8.90    6.90
  -3   5  12    7.80    6.10
   2  -5 -12   -1.60    5.00
   2  -5 -12   -0.70    4.10
   2  -5 -12   -0.50    4.70
  -2   5  12    3.00    5.20
  -2   5  12   -4.90    6.30
  -2   5  12    0.50    5.80
   1  -5 -12    5.40    5.20
   0   6 -13   29.40    8.00
   0  -6  13   29.60    9.70
   0  -6  13   21.70    8.90
  -1   6 -13    0.00    5.00
  -1   6 -13   -5.10    4.80
   1  -6  13   -4.70    7.60
   1  -6  13    4.50    7.10
  -2   6 -13    4.00    5.80
  -2   6 -13    7.90    5.70
   2  -6  13    8.40    7.20
   3  -6  13   17.50    7.00
   3  -6  13   21.70    8.40
   2   5 -13   51.99    9.50
  -2  -5  13   30.50    9.10
  -2  -5  13   22.30    8.60
  -2  -5  13   29.40    9.40
   1   5 -13   19.20    6.50
   1   5 -13   10.00    5.50
  -1  -5  13    8.90    6.70
  -1  -5  13    3.40    7.00
   0   5 -13    1.00    4.70
   0   5 -13   -0.50    4.20
   0  -5  13   -5.00    5.30
   0  -5  13   -0.50    5.50
  -1   5 -13   21.30    5.90
  -1   5 -13   23.00    7.00
   1  -5  13   12.40    7.00
   1  -5  13    5.90    6.70
  -2   5 -13    3.60    5.50
   2  -5  13    2.40    6.20
   2  -5  13    2.00    6.10
  -3   5 -13   44.50    8.20
  -3   5 -13   41.30    8.60
   3  -5  13   38.90    8.40
   3  -5  13   39.40    9.90
  -4   5 -13   93.89   12.00
  -4   5 -13   65.99   10.30
   4  -5  13   75.09   10.70
   4  -5  13   79.39   14.00
   3   4 -13   33.50    8.40
   3   4 -13   23.90    6.80
   3   4 -13   51.09    9.40
  -3  -4  13   42.00   11.10
  -3  -4  13   39.50   10.60
  -3  -4  13   32.30    8.70
   2   4 -13   38.30    7.70
   2   4 -13   57.69    9.50
   2   4 -13   37.20    7.50
  -2  -4  13   42.30    9.50
  -2  -4  13   50.89   10.00
  -2  -4  13   47.70   10.20
   1   4 -13   47.10    7.90
   1   4 -13   39.90    7.20
   1   4 -13   64.99    9.90
  -1  -4  13   37.50    9.90
  -1  -4  13   50.69   10.60
   0   4 -13   10.40    4.80
   0   4 -13   10.40    5.70
   0   4 -13    2.70    4.20
   0  -4  13    4.90    6.40
   0  -4  13   13.40    6.70
  -1   4 -13    0.60    4.60
  -1   4 -13   -0.50    3.40
  -1   4 -13   -0.60    4.30
   1  -4  13   -1.70    5.50
   1  -4  13   11.90    7.50
  -2   4 -13    9.30    5.50
  -2   4 -13   10.70    5.90
   2  -4  13    8.50    5.10
   2  -4  13    5.00    6.40
  -3   4 -13   18.90    6.30
  -3   4 -13   12.60    5.80
   3  -4  13   20.00    8.20
   3  -4  13   21.50    6.90
  -4   4 -13   20.80    6.90
  -4   4 -13   13.60    6.80
   4  -4  13   17.40    6.90
   4  -4  13   16.90    9.40
   4   3 -13    0.50    5.10
   4   3 -13   -4.10    4.70
   4   3 -13   -0.50    4.70
  -4  -3  13    5.80    6.60
  -4  -3  13    0.90    6.80
  -4  -3  13   -3.10    5.00
   3   3 -13    2.70    3.40
   3   3 -13   -1.10    4.60
   3   3 -13    4.60    4.80
  -3  -3  13   -1.80    6.70
  -3  -3  13    6.30    5.70
  -3  -3  13    2.60    5.40
   2   3 -13   57.79    9.60
   2   3 -13   55.19    7.80
   2   3 -13   69.19   10.00
  -2  -3  13   88.49   11.70
  -2  -3  13   46.80    9.30
  -2  -3  13   51.89   10.70
   1   3 -13   45.90    8.00
   1   3 -13   35.00    6.40
   1   3 -13   64.89    9.40
  -1  -3  13   48.70    8.50
  -1  -3  13   60.79   10.70
  -1  -3  13   62.69   10.70
   0   3 -13   12.00    5.00
   0   3 -13   15.10    4.70
   0   3 -13   23.80    6.50
   0  -3  13   17.00    7.00
   0  -3  13   15.20    6.30
  -1   3 -13   36.70    7.40
  -1   3 -13   20.40    6.00
   1  -3  13    9.20    7.30
   1  -3  13   24.20    7.70
  -2   3 -13   10.80    5.50
  -2   3 -13    3.20    4.80
   2  -3  13   -0.70    5.10
   2  -3  13    5.70    5.50
  -3   3 -13    5.00    5.60
  -3   3 -13    1.10    4.70
   3  -3  13    1.50    5.90
   3  -3  13    3.10    6.30
  -4   3 -13   20.80    7.00
  -4   3 -13   16.30    7.10
   4  -3  13   29.50    9.20
   4  -3  13   19.00    8.20
   5   2 -13   -0.40    5.00
   5   2 -13    3.30    5.40
   5   2 -13    1.80    5.40
  -5  -2  13   -4.10    6.30
  -5  -2  13   -3.10    5.30
   4   2 -13   -0.80    4.30
   4   2 -13    5.10    5.20
   4   2 -13    6.50    5.00
  -4  -2  13    4.80    5.80
  -4  -2  13    2.80    6.50
  -4  -2  13    8.00    6.80
   3   2 -13    7.20    4.60
   3   2 -13    1.10    4.50
   3   2 -13    5.00    4.80
  -3  -2  13    5.30    5.20
  -3  -2  13    5.20    5.10
  -3  -2  13    3.30    5.70
   2   2 -13   58.99    8.80
   2   2 -13   67.99    9.50
   2   2 -13   53.59    7.30
  -2  -2  13   52.19    8.60
  -2  -2  13   40.90    8.50
  -2  -2  13   51.49   10.40
   1   2 -13   96.29   10.70
   1   2 -13   97.19    9.10
   1   2 -13   85.69   10.80
  -1  -2  13   79.29   11.50
  -1  -2  13   86.39   11.70
  -1  -2  13   94.39   10.60
   0   2 -13   19.40    6.70
   0   2 -13   22.80    6.00
   0  -2  13   20.10    7.00
   0  -2  13   21.40    7.60
  -1   2 -13    2.00    4.80
  -1   2 -13    3.60    4.50
   1  -2  13    6.20    5.90
   1  -2  13    6.40    4.30
   1  -2  13   -2.60    4.50
  -2   2 -13   36.00    7.90
  -2   2 -13   50.39    8.30
   2  -2  13   35.30    7.90
   2  -2  13   34.00    8.80
  -3   2 -13   35.10    8.40
  -3   2 -13   38.00    7.60
   3  -2  13   17.30    7.70
   3  -2  13   35.30    7.90
  -4   2 -13    7.00    6.00
  -4   2 -13   15.30    6.80
   4  -2  13   10.10    6.90
   4  -2  13   19.40    8.80
   5   1 -13   -0.20    4.70
   5   1 -13    0.10    5.70
  -5  -1  13   -3.60    5.50
  -5  -1  13    0.70    5.70
   4   1 -13    1.60    4.50
   4   1 -13    1.40    4.40
   4   1 -13    2.00    4.00
  -4  -1  13   -2.70    4.50
  -4  -1  13    6.80    5.30
  -4  -1  13    3.30    6.30
   3   1 -13   16.80    5.50
   3   1 -13   31.40    7.70
   3   1 -13   17.40    5.80
  -3  -1  13   14.80    6.40
  -3  -1  13   18.50    6.00
  -3  -1  13   24.70    8.10
   2   1 -13   19.60    5.90
   2   1 -13   18.40    6.10
   2   1 -13   14.10    5.00
  -2  -1  13   23.00    7.70
  -2  -1  13   11.60    5.80
  -2  -1  13   16.90    6.10
   1   1 -13   53.89    8.60
   1   1 -13   45.60    7.50
  -1  -1  13   48.30    9.30
  -1  -1  13   47.20    9.30
   0   1 -13   77.09    9.20
   0   1 -13   72.99   10.10
   0  -1  13   56.79    9.80
   0  -1  13   50.79    9.40
  -1   1 -13   13.70    5.30
  -1   1 -13    9.20    5.60
   1  -1  13    8.20    5.80
   1  -1  13   14.30    5.20
   1  -1  13    8.20    6.20
  -2   1 -13   93.79   10.50
  -2   1 -13  108.99   12.20
   2  -1  13  119.39   12.20
   2  -1  13   95.09   12.90
  -3   1 -13   13.30    6.10
  -3   1 -13   33.00    6.00
  -3   1 -13   24.90    6.60
   3  -1  13   33.70    9.00
   3  -1  13   34.20    9.40
   6   0 -13   17.30    7.20
   6   0 -13    8.20    6.10
  -6   0  13    7.20    8.00
  -6   0  13   10.30    5.00
   5   0 -13   13.30    6.20
   5   0 -13    8.80    5.70
  -5   0  13   11.20    5.20
  -5   0  13    1.20    5.60
   4   0 -13   62.69    8.90
   4   0 -13   63.79    9.70
  -4   0  13   36.70    9.20
  -4   0  13   43.00    8.40
  -4   0  13   50.09    8.90
   3   0 -13   43.40    8.50
   3   0 -13   13.00    5.10
  -3   0  13   29.90    8.20
  -3   0  13   11.20    6.60
  -3   0  13   17.90    5.60
   2   0 -13   16.60    5.90
   2   0 -13    4.60    4.60
  -2   0  13    9.80    6.60
  -2   0  13    9.00    5.40
   1   0 -13   34.70    7.40
   1   0 -13   34.60    6.50
  -1   0  13   14.90    6.40
  -1   0  13   32.00    8.20
   0   0 -13   15.40    5.00
   0   0 -13   12.40    6.00
   0   0  13   21.60    7.10
   0   0  13   15.50    6.70
   0   0  13    8.10    5.80
  -1   0 -13    5.90    3.80
  -1   0 -13    2.60    5.30
  -1   0 -13    5.00    4.70
   1   0  13    9.10    6.50
   1   0  13    3.10    5.20
   1   0  13    1.50    5.30
  -2   0 -13   72.19    8.10
  -2   0 -13   76.49   10.80
  -2   0 -13   90.69   10.40
   2   0  13   66.69   11.90
   2   0  13   88.39   11.60
  -3   0 -13   28.40    7.30
  -3   0 -13   16.60    6.70
  -3   0 -13   26.20    6.20
   3   0  13   24.60    9.70
   3   0  13   19.10    7.50
   6  -1 -13    9.70    6.00
   6  -1 -13    6.30    5.60
  -6   1  13    6.90    6.10
  -6   1  13    2.00    6.60
   5  -1 -13   14.00    6.20
   5  -1 -13   -1.10    3.90
  -5   1  13    6.90    5.70
  -5   1  13    0.60    5.90
  -5   1  13   -6.10    6.70
   4  -1 -13    3.00    4.10
   4  -1 -13    6.20    4.80
  -4   1  13    8.60    6.80
  -4   1  13    3.10    5.00
  -4   1  13   13.10    5.70
   3  -1 -13   19.90    6.40
   3  -1 -13   16.90    5.20
  -3   1  13   14.80    6.90
  -3   1  13   32.10    8.70
   2  -1 -13   25.10    6.60
   2  -1 -13   18.70    5.30
   2  -1 -13   17.70    5.00
  -2   1  13    7.60    6.20
  -2   1  13   15.40    6.40
   1  -1 -13    3.10    4.60
   1  -1 -13    2.90    3.30
   1  -1 -13   -1.40    3.10
  -1   1  13    2.40    5.60
  -1   1  13    0.20    4.80
   0  -1 -13   22.20    5.10
   0  -1 -13   13.60    5.30
   0  -1 -13   19.30    7.30
   0   1  13   12.80    7.60
   0   1  13    9.20    5.40
   0   1  13   13.90    6.80
  -1  -1 -13   14.30    6.00
  -1  -1 -13   14.00    5.00
   1   1  13   16.80    7.70
   1   1  13   14.30    6.80
  -2  -1 -13    5.70    5.70
  -2  -1 -13    8.00    4.60
   2   1  13   10.20    7.70
   2   1  13    5.40    5.60
   6  -2 -13    5.00    5.00
   6  -2 -13    4.20    4.80
  -6   2  13    1.00    6.30
  -6   2  13   -4.30    5.10
   5  -2 -13    6.20    5.20
   5  -2 -13    2.60    4.40
  -5   2  13    3.90    6.40
  -5   2  13    9.50    7.20
  -5   2  13   10.80    5.80
   4  -2 -13   -3.30    4.70
   4  -2 -13    2.50    4.60
  -4   2  13    1.70    4.80
  -4   2  13    0.40    5.40
   3  -2 -13   78.89    8.60
   3  -2 -13   88.09    8.90
   3  -2 -13   89.09   11.20
  -3   2  13   81.09   12.30
  -3   2  13   92.59   12.20
   2  -2 -13   27.20    5.70
   2  -2 -13   24.20    7.20
  -2   2  13   25.10    7.80
  -2   2  13   30.90    8.00
   1  -2 -13   32.90    6.10
   1  -2 -13   53.39    9.20
  -1   2  13   47.60    9.60
  -1   2  13   33.30    8.70
   0  -2 -13    3.70    5.70
   0  -2 -13    6.60    4.30
   0   2  13   -3.20    5.70
   0   2  13   -5.70    5.00
   0   2  13    8.70    6.40
  -1  -2 -13   -1.10    4.70
  -1  -2 -13    4.70    4.40
   1   2  13    5.20    6.80
   1   2  13    3.50    6.20
   6  -3 -13   -3.20    5.10
  -6   3  13    2.10    5.60
  -6   3  13    8.40    7.10
   5  -3 -13   -4.10    4.50
   5  -3 -13   -1.40    4.70
  -5   3  13   -2.20    5.30
  -5   3  13    6.90    6.20
   4  -3 -13    1.60    5.30
   4  -3 -13    4.80    4.20
  -4   3  13    1.70    5.40
  -4   3  13   -0.20    6.10
   3  -3 -13   38.10    7.40
   3  -3 -13   39.20    8.30
  -3   3  13   32.40    9.10
  -3   3  13   44.70   10.00
   2  -3 -13   16.00    6.60
   2  -3 -13   14.30    5.30
  -2   3  13   15.50    7.70
  -2   3  13   17.80    8.10
   1  -3 -13   29.20    7.90
   1  -3 -13   28.20    6.40
  -1   3  13   17.80    8.00
  -1   3  13    9.40    8.10
   0  -3 -13    5.10    6.20
   0  -3 -13    7.10    6.00
   0  -3 -13   -0.70    4.30
   0   3  13    0.40    6.30
   0   3  13    5.70    6.50
   0   3  13    0.60    7.60
   5  -4 -13    2.90    5.10
   5  -4 -13   -1.40    4.50
  -5   4  13    3.40    6.70
   4  -4 -13    2.50    5.30
   4  -4 -13   -3.10    3.60
  -4   4  13    2.30    5.70
  -4   4  13   -0.60    6.20
   3  -4 -13   10.80    6.10
   3  -4 -13    8.60    6.90
  -3   4  13    5.00    7.30
  -3   4  13   16.70    8.20
   2  -4 -13   32.30    7.30
   2  -4 -13   37.80    8.30
  -2   4  13   33.00    9.40
  -2   4  13   26.10    8.20
   1  -4 -13   20.70    8.00
   1  -4 -13   51.69    9.80
  -1   4  13   23.50    8.60
  -1   4  13   38.10    8.50
  -1   4  13   37.00   10.30
  -1   5 -14    1.60    4.80
   1  -5  14    2.70    7.10
   1  -5  14   -6.90    6.00
  -2  -4  14   -1.20    6.50
   1   4 -14   -1.40    4.00
   1   4 -14    2.80    5.00
   1   4 -14    1.50    5.30
  -1  -4  14    0.50    5.50
  -1  -4  14    4.60    7.00
  -1  -4  14    2.20    6.10
   0   4 -14   13.60    6.30
   0   4 -14   25.60    6.80
   0   4 -14   25.40    6.50
   0  -4  14   27.70    8.80
   0  -4  14   30.50    9.10
  -1   4 -14    4.20    5.50
  -1   4 -14    2.50    6.00
   1  -4  14   15.30    7.70
   1  -4  14   10.40    8.50
  -2   4 -14    0.60    5.80
  -2   4 -14    6.20    5.80
   2  -4  14    2.80    6.20
   3   3 -14    9.40    5.70
   3   3 -14   10.10    6.00
   3   3 -14    1.10    5.60
  -3  -3  14    8.70    6.70
  -3  -3  14   -5.20    6.50
  -3  -3  14    8.30    6.60
   2   3 -14   47.80    9.10
   2   3 -14   34.90    7.70
   2   3 -14   38.20    7.30
  -2  -3  14   33.20    8.30
  -2  -3  14   35.00   10.10
  -2  -3  14   34.90    9.00
   1   3 -14    9.70    5.60
   1   3 -14    4.50    5.30
   1   3 -14    1.20    4.70
  -1  -3  14   -4.00    7.20
  -1  -3  14    3.80    6.20
  -1  -3  14    2.60    5.10
   0   3 -14   82.49   10.60
   0   3 -14   89.89   11.20
   0  -3  14   84.29   13.40
   0  -3  14   63.39   10.80
  -1   3 -14   38.20    9.20
  -1   3 -14   40.50    7.90
   1  -3  14   23.50    8.80
   1  -3  14   40.40    9.90
  -2   3 -14    0.50    5.30
  -2   3 -14    0.80    4.90
   2  -3  14    0.50    6.00
   2  -3  14    4.70    7.40
  -3   3 -14    3.10    6.00
   3  -3  14    1.30    8.10
   4   2 -14   -1.90    5.10
   4   2 -14    3.50    6.70
   4   2 -14    5.80    5.20
  -4  -2  14    5.00    7.10
  -4  -2  14   -0.90    5.60
  -4  -2  14    2.60    6.00
   3   2 -14   22.00    6.90
   3   2 -14   30.90    7.90
   3   2 -14   20.10    5.80
  -3  -2  14   24.60    7.30
  -3  -2  14   15.70    6.90
  -3  -2  14   24.50    8.90
   2   2 -14    7.80    5.30
   2   2 -14    6.30    5.20
   2   2 -14    2.30    5.00
  -2  -2  14   11.10    6.80
  -2  -2  14    3.80    5.90
  -2  -2  14    8.90    6.60
   1   2 -14   31.80    7.50
   1   2 -14   27.90    7.20
  -1  -2  14   27.40    7.80
  -1  -2  14   38.10    9.50
   0   2 -14  108.29   11.90
   0   2 -14  115.99   12.10
   0  -2  14   87.49   13.10
  -1   2 -14   16.10    6.10
  -1   2 -14   13.30    6.10
   1  -2  14    2.00    7.50
  -2   2 -14   -7.20    4.80
  -2   2 -14    2.10    5.00
   2  -2  14    7.00    5.40
   2  -2  14   -2.60    7.50
   4   1 -14   33.40    7.50
   4   1 -14   37.60    8.40
  -4  -1  14   41.50    8.90
  -4  -1  14   27.40    9.00
  -4  -1  14   34.30   10.40
   3   1 -14    5.70    5.50
   3   1 -14    3.20    4.40
   3   1 -14    1.50    4.80
  -3  -1  14    3.60    8.00
  -3  -1  14    7.50    6.10
  -3  -1  14    2.40    5.00
   2   1 -14   17.90    6.30
   2   1 -14   15.40    6.00
  -2  -1  14   21.40    8.90
  -2  -1  14    8.40    6.50
   1   1 -14   -3.00    4.00
   1   1 -14    1.10    4.80
  -1  -1  14   -2.50    6.00
  -1  -1  14    4.30    6.40
   0   1 -14    8.60    6.00
   0   1 -14    7.40    5.30
   0  -1  14   26.40    8.30
   0  -1  14   11.80    7.20
  -1   1 -14   53.29    9.60
  -1   1 -14   35.50    7.50
   1  -1  14   31.30    9.50
  -2   1 -14    8.80    5.90
  -2   1 -14   10.00    5.80
   2  -1  14   16.70    8.20
   2  -1  14    2.90    6.70
   5   0 -14   16.60    7.00
   5   0 -14   19.40    6.40
  -5   0  14    8.90    6.90
  -5   0  14   22.20    8.80
   4   0 -14   41.90    8.70
   4   0 -14   24.00    7.30
  -4   0  14   27.60    7.70
  -4   0  14   15.40    6.80
  -4   0  14   34.70    9.80
   3   0 -14    3.00    5.70
   3   0 -14    3.50    4.70
  -3   0  14    6.10    7.00
  -3   0  14   12.40    6.50
   2   0 -14   -1.40    4.90
   2   0 -14   -3.00    3.60
  -2   0  14   -1.30    5.90
  -2   0  14   -3.80    4.60
   1   0 -14   -1.60    4.70
   1   0 -14   -1.40    4.80
  -1   0  14   10.30    8.00
  -1   0  14    2.40    5.40
   0   0 -14   19.80    6.00
   0   0 -14   11.20    6.70
   0   0  14   10.60    6.80
   0   0  14   20.30    8.00
  -1   0 -14   33.20    8.80
  -1   0 -14   27.60    6.50
   1   0  14   19.30    8.60
   1   0  14   24.70    8.10
  -2   0 -14   10.30    6.70
   2   0  14    4.70    7.20
   5  -1 -14    7.10    6.10
   5  -1 -14   15.00    7.20
  -5   1  14    9.10    6.40
  -5   1  14    3.00    7.20
   4  -1 -14   33.40    7.30
   4  -1 -14   27.40    7.70
  -4   1  14   17.40    8.00
  -4   1  14   17.70    7.20
   3  -1 -14    7.00    5.70
   3  -1 -14    3.40    4.50
  -3   1  14   -2.00    5.40
  -3   1  14    3.90    6.40
   2  -1 -14   -2.50    4.40
   2  -1 -14    0.60    5.00
  -2   1  14    3.50    6.80
  -2   1  14   -1.60    5.70
   1  -1 -14    3.90    3.90
   1  -1 -14    7.10    6.00
  -1   1  14    6.50    6.30
  -1   1  14   13.00    6.80
   0  -1 -14    9.90    5.20
   0  -1 -14   10.30    6.50
   0   1  14   11.20    7.10
   0   1  14   11.70    7.50
  -1  -1 -14    3.70    4.30
  -1  -1 -14   -5.20    5.70
   1   1  14   11.00    8.00
   1   1  14   10.70    7.20
   5  -2 -14    3.90    5.70
   5  -2 -14   12.90    6.80
  -5   2  14    7.80    7.20
   4  -2 -14   14.20    6.00
  -4   2  14   18.60    8.30
  -4   2  14   14.70    7.80
   3  -2 -14   11.90    6.50
  -3   2  14   16.00    7.40
  -3   2  14    8.10    7.30
   2  -2 -14    7.10    5.80
   2  -2 -14    5.10    4.60
  -2   2  14   15.90    7.70
  -2   2  14    9.00    6.60
   1  -2 -14   59.99   10.30
  -1   2  14   54.59   10.80
  -1   2  14   42.30   10.00
   0  -2 -14    6.50    6.50
   0  -2 -14    6.70    4.70
   0   2  14    3.40    6.90
   0   2  14   -0.50    6.30
   4  -3 -14   12.20    6.70
   4  -3 -14   10.10    6.20
  -4   3  14    9.00    7.50
  -4   3  14    5.70    7.60
   3  -3 -14   -0.50    4.30
   3  -3 -14    0.10    5.30
  -3   3  14    6.90    8.10
  -3   3  14   -4.30    5.60
   2  -3 -14   12.70    5.60
   2  -3 -14   24.00    8.10
  -2   3  14   16.40    8.30
  -2   3  14   20.00    8.50
   2   2 -15   20.90    7.00
   2   2 -15   -1.10    5.30
  -2  -2  15    4.90    8.50
  -2  -2  15   15.50    8.70
   1   2 -15    8.10    5.80
   1   2 -15   12.60    6.10
  -1  -2  15    7.90    6.70
  -1  -2  15   -1.50    8.60
   0   2 -15    4.30    5.90
   0   2 -15    5.10    5.30
   0  -2  15    0.90    6.70
   0  -2  15    5.70    9.10
   2   1 -15    5.90    5.30
   2   1 -15    8.00    5.70
  -2  -1  15    4.10    7.80
  -2  -1  15    4.40    7.90
   1   1 -15   -0.70    4.90
   1   1 -15    4.60    7.10
  -1  -1  15    6.40    6.60
  -1  -1  15   -0.50    6.80
   0   1 -15    2.10    5.20
   0   1 -15   11.10    6.50
   0  -1  15    4.10    6.80
   0  -1  15   10.80    8.50
   3   0 -15   33.40    8.40
   3   0 -15   28.90    7.30
  -3   0  15   27.80    9.50
  -3   0  15   25.60    8.40
   2   0 -15   11.70    6.80
   2   0 -15   15.60    6.30
  -2   0  15   16.50    9.00
  -2   0  15    7.20    6.50
   1   0 -15    3.80    5.20
   1   0 -15    4.00    6.20
  -1   0  15    8.60    7.90
  -1   0  15    5.10    6.70
   2  -1 -15   47.10    9.60
  -2   1  15   42.90   10.40
  -2   1  15   36.80    9.70
   0   0   0    0.00    0.00




_computing_structure_solution     'SHELXT 2014/5 (Sheldrick, 2014)'
_computing_structure_solution     'SHELXT 2018/2 (Sheldrick, 2018)'
_computing_structure_solution     'SHELXT 2018/2 (Sheldrick, 2018)'
_computing_structure_solution     'SHELXT 2018/2 (Sheldrick, 2018)'
;
_shelx_hkl_checksum              99931
loop_
_space_group_symop_operation_xyz
'x, y, z'
'-x, -y, -z'
loop_
_atom_site_label
_atom_site_type_symbol
_atom_site_fract_x
_atom_site_fract_y
_atom_site_fract_z
_atom_site_U_iso_or_equiv
_atom_site_adp_type
_atom_site_occupancy
_atom_site_site_symmetry_order
_atom_site_calc_flag
_atom_site_refinement_flags_posn
_atom_site_refinement_flags_adp
_atom_site_refinement_flags_occupancy
_atom_site_disorder_assembly
_atom_site_disorder_group
Cu1 Cu 0.60181(5) 0.52418(4) 0.28590(3) 0.03116(14) Uani 1 1 d . . . . .
Cl2 Cl 0.78205(11) 0.80747(10) 0.27668(7) 0.0431(2) Uani 1 1 d . . . . .
Cl1 Cl 0.73643(11) 0.36344(10) 0.18792(6) 0.0405(2) Uani 1 1 d . . . . .
O1 O 0.4047(3) 0.4740(3) 0.16302(17) 0.0369(5) Uani 1 1 d . . . . .
N3 N 0.2520(3) 0.2268(3) 0.24328(19) 0.0314(6) Uani 1 1 d . . . . .
N2 N 0.4073(3) 0.3122(3) 0.31822(18) 0.0285(6) Uani 1 1 d . . . . .
N1 N 0.7102(3) 0.5166(3) 0.43564(19) 0.0322(6) Uani 1 1 d . . . . .
C6 C 0.4282(4) 0.2521(4) 0.4047(2) 0.0301(7) Uani 1 1 d . . . . .
C5 C 0.6043(4) 0.3695(4) 0.4745(2) 0.0289(7) Uani 1 1 d . . . . .
C9 C 0.1048(4) 0.2559(4) 0.0822(2) 0.0287(7) Uani 1 1 d . . . . .
N4 N -0.2000(3) 0.0541(3) 0.0207(2) 0.0393(7) Uani 1 1 d . . . . .
H4 H -0.298275 -0.030900 0.031954 0.047 Uiso 1 1 calc R . . . .
C10 C -0.0545(4) 0.1192(4) 0.0971(2) 0.0334(7) Uani 1 1 d . . . . .
H10 H -0.060765 0.072195 0.160706 0.040 Uiso 1 1 calc R . . . .
C4 C 0.6590(5) 0.3366(4) 0.5729(3) 0.0404(8) Uani 1 1 d . . . . .
H4A H 0.585114 0.234888 0.598957 0.048 Uiso 1 1 calc R . . . .
C13 C 0.1068(4) 0.3191(4) -0.0140(3) 0.0434(9) Uani 1 1 d . . . . .
H13 H 0.212916 0.410206 -0.026966 0.052 Uiso 1 1 calc R . . . .
C1 C 0.8709(4) 0.6330(4) 0.4935(3) 0.0390(8) Uani 1 1 d . . . . .
H1 H 0.943270 0.734082 0.466386 0.047 Uiso 1 1 calc R . . . .
C7 C 0.2926(4) 0.0841(4) 0.4326(3) 0.0434(9) Uani 1 1 d . . . . .
H7A H 0.185682 0.033074 0.378853 0.065 Uiso 1 1 calc GR . . . .
H7B H 0.266253 0.106475 0.501766 0.065 Uiso 1 1 calc GR . . . .
H7C H 0.338211 0.004075 0.435118 0.065 Uiso 1 1 calc GR . . . .
C11 C -0.2001(4) 0.1146(4) -0.0723(3) 0.0440(9) Uani 1 1 d . . . . .
H11 H -0.304374 0.064989 -0.123794 0.053 Uiso 1 1 calc R . . . .
C12 C -0.0466(5) 0.2495(5) -0.0915(3) 0.0525(10) Uani 1 1 d . . . . .
H12 H -0.044658 0.294268 -0.155750 0.063 Uiso 1 1 calc R . . . .
C2 C 0.9328(5) 0.6072(5) 0.5928(3) 0.0467(9) Uani 1 1 d . . . . .
H2 H 1.044963 0.689834 0.632089 0.056 Uiso 1 1 calc R . . . .
O2 O 0.5507(4) 0.0109(4) 0.2912(3) 0.0797(9) Uani 1 1 d . . . . .
H2A H 0.590467 0.103770 0.262517 0.120 Uiso 1 1 d G . . . .
H2B H 0.617584 -0.031486 0.278842 0.120 Uiso 1 1 d G . . . .
C3 C 0.8257(5) 0.4579(5) 0.6319(3) 0.0480(9) Uani 1 1 d . . . . .
H3 H 0.865116 0.438098 0.698232 0.058 Uiso 1 1 calc R . . . .
C8 C 0.2669(4) 0.3264(4) 0.1677(2) 0.0291(7) Uani 1 1 d . . . . .
O3 O -0.5025(3) -0.2291(3) 0.0417(2) 0.0612(7) Uani 1 1 d . . . . .
H3A H -0.567890 -0.278927 -0.020218 0.092 Uiso 1 1 d G . . . .
H3B H -0.518893 -0.313642 0.075699 0.092 Uiso 1 1 d G . . . .
loop_
_atom_site_aniso_label
_atom_site_aniso_U_11
_atom_site_aniso_U_22
_atom_site_aniso_U_33
_atom_site_aniso_U_23
_atom_site_aniso_U_13
_atom_site_aniso_U_12
Cu1 0.0302(2) 0.0306(2) 0.0289(2) 0.01175(16) 0.00354(16) 0.01159(17)
Cl2 0.0401(5) 0.0328(4) 0.0479(5) 0.0159(4) 0.0083(4) 0.0103(4)
Cl1 0.0468(5) 0.0481(5) 0.0339(5) 0.0106(4) 0.0081(4) 0.0284(4)
O1 0.0302(11) 0.0343(12) 0.0367(13) 0.0184(10) 0.0023(10) 0.0077(10)
N3 0.0294(14) 0.0297(14) 0.0294(14) 0.0084(11) 0.0012(12) 0.0108(11)
N2 0.0323(14) 0.0299(13) 0.0235(13) 0.0076(11) 0.0032(11) 0.0156(11)
N1 0.0328(15) 0.0356(15) 0.0310(15) 0.0067(12) 0.0037(12) 0.0195(12)
C6 0.0367(18) 0.0293(17) 0.0296(17) 0.0092(14) 0.0103(14) 0.0190(14)
C5 0.0355(17) 0.0334(17) 0.0240(16) 0.0061(14) 0.0061(14) 0.0217(15)
C9 0.0288(16) 0.0266(16) 0.0302(17) 0.0050(13) 0.0037(14) 0.0138(13)
N4 0.0275(15) 0.0379(16) 0.0449(17) 0.0034(13) 0.0054(13) 0.0112(12)
C10 0.0326(17) 0.0365(18) 0.0300(17) 0.0061(14) 0.0066(14) 0.0160(14)
C4 0.053(2) 0.045(2) 0.0312(19) 0.0131(16) 0.0063(16) 0.0301(17)
C13 0.0345(19) 0.040(2) 0.041(2) 0.0130(16) -0.0023(16) 0.0087(15)
C1 0.0352(19) 0.0412(19) 0.038(2) 0.0050(16) 0.0013(16) 0.0186(16)
C7 0.052(2) 0.0374(19) 0.043(2) 0.0197(16) 0.0167(17) 0.0208(16)
C11 0.0340(19) 0.048(2) 0.043(2) -0.0020(17) -0.0084(16) 0.0197(17)
C12 0.053(2) 0.058(2) 0.041(2) 0.0182(18) -0.0026(18) 0.0236(19)
C2 0.043(2) 0.060(2) 0.038(2) -0.0016(18) -0.0067(17) 0.0313(19)
O2 0.102(2) 0.070(2) 0.103(2) 0.0424(19) 0.057(2) 0.0580(19)
C3 0.061(2) 0.064(2) 0.0312(19) 0.0099(18) -0.0019(18) 0.043(2)
C8 0.0279(16) 0.0303(17) 0.0280(17) 0.0038(14) 0.0041(13) 0.0139(14)
O3 0.0474(16) 0.0554(16) 0.0490(17) 0.0168(13) -0.0098(13) 0.0040(13)
loop_
_atom_type_symbol
_atom_type_description
_atom_type_scat_dispersion_real
_atom_type_scat_dispersion_imag
_atom_type_scat_source
C C 0.0033 0.0016 'International Tables Vol C Tables 4.2.6.8 and 6.1.1.4'
H H 0.0000 0.0000 'International Tables Vol C Tables 4.2.6.8 and 6.1.1.4'
Cl Cl 0.1484 0.1585 'International Tables Vol C Tables 4.2.6.8 and 6.1.1.4'
Cu Cu 0.3201 1.2651 'International Tables Vol C Tables 4.2.6.8 and 6.1.1.4'
N N 0.0061 0.0033 'International Tables Vol C Tables 4.2.6.8 and 6.1.1.4'
O O 0.0106 0.0060 'International Tables Vol C Tables 4.2.6.8 and 6.1.1.4'
loop_
_geom_angle_atom_site_label_1
_geom_angle_atom_site_label_2
_geom_angle_atom_site_label_3
_geom_angle
_geom_angle_site_symmetry_1
_geom_angle_site_symmetry_3
Cl2 Cu1 Cl1 103.90(3) . .
O1 Cu1 Cl2 97.99(6) . .
O1 Cu1 Cl1 97.12(7) . .
O1 Cu1 N1 156.44(9) . .
N2 Cu1 Cl2 161.26(8) . .
N2 Cu1 Cl1 94.84(7) . .
N2 Cu1 O1 79.25(9) . .
N2 Cu1 N1 79.29(10) . .
N1 Cu1 Cl2 99.21(7) . .
N1 Cu1 Cl1 94.24(7) . .
C8 O1 Cu1 108.69(18) . .
C8 N3 N2 107.9(2) . .
N3 N2 Cu1 117.37(17) . .
C6 N2 Cu1 120.3(2) . .
C6 N2 N3 122.2(2) . .
C5 N1 Cu1 112.89(19) . .
C1 N1 Cu1 127.6(2) . .
C1 N1 C5 119.4(3) . .
N2 C6 C5 112.4(2) . .
N2 C6 C7 124.4(3) . .
C5 C6 C7 123.2(3) . .
N1 C5 C6 114.7(2) . .
N1 C5 C4 121.4(3) . .
C4 C5 C6 123.9(3) . .
C10 C9 C13 117.4(3) . .
C10 C9 C8 119.7(3) . .
C13 C9 C8 122.8(3) . .
C11 N4 C10 122.9(3) . .
N4 C10 C9 120.2(3) . .
C5 C4 C3 118.6(3) . .
C9 C13 C12 121.0(3) . .
N1 C1 C2 121.8(3) . .
N4 C11 C12 119.5(3) . .
C11 C12 C13 118.9(3) . .
C3 C2 C1 118.7(3) . .
C2 C3 C4 120.1(3) . .
O1 C8 N3 126.2(3) . .
O1 C8 C9 119.0(3) . .
N3 C8 C9 114.7(2) . .
loop_
_geom_bond_atom_site_label_1
_geom_bond_atom_site_label_2
_geom_bond_distance
_geom_bond_site_symmetry_2
Cu1 Cl2 2.2330(8) .
Cu1 Cl1 2.5612(9) .
Cu1 O1 2.014(2) .
Cu1 N2 1.936(2) .
Cu1 N1 2.032(2) .
O1 C8 1.284(3) .
N3 N2 1.371(3) .
N3 C8 1.325(4) .
N2 C6 1.283(4) .
N1 C5 1.351(4) .
N1 C1 1.335(4) .
C6 C5 1.478(4) .
C6 C7 1.483(4) .
C5 C4 1.381(4) .
C9 C10 1.376(4) .
C9 C13 1.377(4) .
C9 C8 1.489(4) .
N4 C10 1.332(4) .
N4 C11 1.330(4) .
C4 C3 1.381(5) .
C13 C12 1.382(4) .
C1 C2 1.385(4) .
C11 C12 1.358(4) .
C2 C3 1.368(5) .
loop_
_geom_hbond_atom_site_label_D
_geom_hbond_atom_site_label_H
_geom_hbond_atom_site_label_A
_geom_hbond_distance_DH
_geom_hbond_distance_HA
_geom_hbond_distance_DA
_geom_hbond_angle_DHA
_geom_hbond_site_symmetry_A
_geom_hbond_publ_flag
N4 H4 O3 0.86 1.82 2.672(3) 172.2 . yes
O2 H2A Cl1 0.85 2.36 3.201(3) 172.7 . yes
O2 H2B Cl2 0.85 2.45 3.283(3) 166.7 1_545 yes
O3 H3A Cl1 0.85 2.27 3.106(2) 169.7 2 yes
O3 H3B O1 0.85 2.11 2.956(3) 171.6 1_445 yes
