#------------------------------------------------------------------------------
#$Date: 2021-10-01 01:16:56 +0300 (Fri, 01 Oct 2021) $
#$Revision: 269405 $
#$URL: file:///home/coder/svn-repositories/cod/cif/1/56/47/1564777.cif $
#------------------------------------------------------------------------------
#
# This file is available in the Crystallography Open Database (COD),
# http://www.crystallography.net/
#
# All data on this site have been placed in the public domain by the
# contributors.
#
data_1564777
loop_
_publ_author_name
'Turner, Gemma F.'
'McKellar, Scott C.'
'Allan, David R.'
'Cheetham, Anthony K.'
'Henke, Sebastian'
'Moggach, Stephen A.'
_publ_section_title
;
 Guest-mediated phase transitions in a flexible pillared-layered
 metal--organic framework under high-pressure
;
_journal_name_full               'Chemical Science'
_journal_paper_doi               10.1039/D1SC03108B
_journal_year                    2021
_chemical_formula_moiety         '(C22 H26 N2 O8 Zn2)n 8.1 (C2 O H6)'
_chemical_formula_sum            'C38.2 H74.6 N2 O16.1 Zn2'
_chemical_formula_weight         950.39
_space_group_IT_number           123
_space_group_name_Hall           '-P 4 2'
_space_group_name_H-M_alt        'P 4/m m m'
_symmetry_cell_setting           tetragonal
_symmetry_space_group_name_Hall  '-P 4 2'
_symmetry_space_group_name_H-M   'P 4/m m m'
_atom_sites_solution_hydrogens   difmap
_atom_sites_solution_primary     other
_audit_creation_date             2021-05-26
_audit_creation_method           CRYSTALS_ver_14.61_build_6999
_audit_update_record
;
2021-06-03 deposited with the CCDC.	2021-09-29 downloaded from the CCDC.
;
_cell_angle_alpha                90
_cell_angle_beta                 90
_cell_angle_gamma                90
_cell_formula_units_Z            1
_cell_length_a                   10.9830(16)
_cell_length_b                   10.9830(16)
_cell_length_c                   9.727(2)
_cell_measurement_reflns_used    3661
_cell_measurement_temperature    298
_cell_measurement_theta_max      25
_cell_measurement_theta_min      3
_cell_volume                     1173.3(3)
_computing_cell_refinement       'Apex2 (Bruker AXS, 2006)'
_computing_data_collection       'Apex2 (Bruker AXS, 2006)'
_computing_data_reduction        'Apex2 (Bruker AXS, 2006)'
_computing_molecular_graphics    'CAMERON (Watkin et al., 1996)'
_computing_publication_material  'CRYSTALS (Betteridge et al., 2003)'
_computing_structure_refinement  'CRYSTALS (Betteridge et al., 2003)'
_computing_structure_solution    'Superflip (Palatinus & Chapuis, 2007)'
_diffrn_ambient_pressure         690000
_diffrn_ambient_temperature      298
_diffrn_measured_fraction_theta_full 0.681
_diffrn_measured_fraction_theta_max 0.642
_diffrn_measurement_device       Area
_diffrn_measurement_device_type  'Bruker Kappa Apex2'
_diffrn_measurement_method       \w
_diffrn_radiation_monochromator  graphite
_diffrn_radiation_type           'Mo K\a'
_diffrn_radiation_wavelength     0.71073
_diffrn_reflns_av_R_equivalents  0.044
_diffrn_reflns_av_unetI/netI     0.058
_diffrn_reflns_limit_h_max       4
_diffrn_reflns_limit_h_min       -5
_diffrn_reflns_limit_k_max       11
_diffrn_reflns_limit_k_min       -11
_diffrn_reflns_limit_l_max       11
_diffrn_reflns_limit_l_min       -11
_diffrn_reflns_number            4233
_diffrn_reflns_theta_full        18.315
_diffrn_reflns_theta_max         24.420
_diffrn_reflns_theta_min         2.797
_diffrn_standards_number         0
_exptl_absorpt_coefficient_mu    1.09
_exptl_absorpt_correction_T_max  0.95
_exptl_absorpt_correction_T_min  0.83
_exptl_absorpt_correction_type   multi-scan
_exptl_absorpt_process_details   'SADABS (Siemens, 1996)'
_exptl_crystal_colour            colourless
_exptl_crystal_density_diffrn    1.348
_exptl_crystal_density_meas      ?
_exptl_crystal_density_method    'not measured'
_exptl_crystal_description       plate
_exptl_crystal_F_000             506.6
_exptl_crystal_size_max          0.150
_exptl_crystal_size_mid          0.150
_exptl_crystal_size_min          0.050
_platon_squeeze_details
;
see text for details
;
_refine_diff_density_max         1.26
_refine_diff_density_min         -1.03
_refine_ls_extinction_method     None
_refine_ls_goodness_of_fit_ref   1.0403
_refine_ls_hydrogen_treatment    constr
_refine_ls_matrix_type           full
_refine_ls_number_parameters     31
_refine_ls_number_reflns         399
_refine_ls_number_restraints     69
_refine_ls_R_factor_all          0.0916
_refine_ls_R_factor_gt           0.0761
_refine_ls_shift/su_max          0.0180922
_refine_ls_shift/su_mean         0.0005979
_refine_ls_structure_factor_coef Fsqd
_refine_ls_weighting_details
;
 Method= Modified Sheldrick 
 w=1/[\s^2^(F^2^) + ( 0.04P)^2^ +24.92P] 
 ,where P=(max(Fo^2^,0) + 2Fc^2^)/3 
;
_refine_ls_weighting_scheme      calc
_refine_ls_wR_factor_all         0.2126
_refine_ls_wR_factor_gt          0.1909
_refine_ls_wR_factor_ref         0.2126
_reflns_limit_h_max              5
_reflns_limit_h_min              0
_reflns_limit_k_max              11
_reflns_limit_k_min              0
_reflns_limit_l_max              11
_reflns_limit_l_min              0
_reflns_number_gt                346
_reflns_number_total             399
_reflns_threshold_expression     I>2.0\s(I)
_oxford_diffrn_Wilson_B_factor   0.24
_oxford_diffrn_Wilson_scale      53.57
_oxford_refine_ls_r_factor_ref   0.0916
_oxford_refine_ls_scale          0.2005(7)
_oxford_reflns_number_all        399
_iucr_refine_instructions_details
;
#
# Punched on 25/05/21 at 17:21:32
#
#LIST     12                                                                    
BLOCK 
CONT SCALE 
CONT ZN   (     1 ,X'S,U'S)  UNTIL C    (     3 ) 
CONT O    (     1 ,X'S,U'S) 
RIDE C   (   3,X'S) H   (  32,X'S) 
RIDE C   (   4,X'S) H   (  13,X'S) H   (  51,X'S) H   (  53,X'S) 
RIDE C   (   5,X'S) 
END                                                                             
#
# Punched on 25/05/21 at 17:21:32
#
#LIST     16                                                                    
DIST   1.501,.01= C(1) TO C(2) 
DIST   1.247,.01= C(1) TO O(1) 
DIST   1.368,.01= C(2) TO C(3) 
DIST   1.383,.01= C(3) TO C(3,5) 
DIST   1.555,.01= C(4) TO C(4,-8) 
DIST   1.472,.01= C(4) TO N(1) 
DIST   1.530,.01= C(5) TO C(5,-7,1,1) 
DIST   1.442,.01= C(5) TO N(1) 
REM   HREST   START (DO NOT REMOVE THIS LINE) 
REM   HREST   END (DO NOT REMOVE THIS LINE) 
REM   DELU   START (DO NOT REMOVE THIS LINE) 
VIBR .0, 0.00200 = C(1) TO O(1,-3,1,0,0,1) 
VIBR .0, 0.00200 = C(1) TO C(2) 
VIBR .0, 0.00200 = C(1) TO O(1) 
VIBR .0, 0.00500 = C(2) TO O(1,-3,1,0,0,1) 
VIBR .0, 0.00500 = O(1) TO O(1,-3,1,0,0,1) 
VIBR .0, 0.00500 = O(1) TO C(2) 
VIBR .0, 0.00200 = C(2) TO C(3,-3,1,0,0,1) 
VIBR .0, 0.00200 = C(2) TO C(3) 
VIBR .0, 0.00500 = C(3,-3,1,0,0,1) TO C(1) 
VIBR .0, 0.00500 = C(3) TO C(1) 
VIBR .0, 0.00500 = C(3) TO C(3,-3,1,0,0,1) 
VIBR .0, 0.00200 = C(3) TO C(3,3,1,0,1) 
VIBR .0, 0.00500 = C(2) TO C(3,3,1,0,1) 
VIBR .0, 0.00200 = C(4) TO C(4,-3) 
VIBR .0, 0.00200 = C(4) TO N(1) 
VIBR .0, 0.00500 = N(1) TO C(4,-3) 
VIBR .0, 0.00200 = C(5) TO C(5,-3) 
VIBR .0, 0.00200 = C(5) TO N(1) 
VIBR .0, 0.00500 = N(1) TO C(5,-3) 
VIBR .0, 0.00500 = C(4,2,1,1) TO C(4,4,1,0,1) 
VIBR .0, 0.00500 = C(4,3,1,1,1) TO C(4,4,1,0,1) 
VIBR .0, 0.00500 = C(4,3,1,1,1) TO C(4,2,1,1) 
VIBR .0, 0.00500 = C(4) TO C(4,4,1,0,1) 
VIBR .0, 0.00500 = C(4) TO C(4,2,1,1) 
VIBR .0, 0.00500 = C(4) TO C(4,3,1,1,1) 
VIBR .0, 0.00500 = C(5,8,1,1,1) TO C(4,4,1,0,1) 
VIBR .0, 0.00500 = C(5,8,1,1,1) TO C(4,2,1,1) 
VIBR .0, 0.00500 = C(5,8,1,1,1) TO C(4,3,1,1,1) 
VIBR .0, 0.00500 = C(5,8,1,1,1) TO C(4) 
VIBR .0, 0.00500 = C(5,3,1,1,1) TO C(4,4,1,0,1) 
VIBR .0, 0.00500 = C(5,3,1,1,1) TO C(4,2,1,1) 
VIBR .0, 0.00500 = C(5,3,1,1,1) TO C(4,3,1,1,1) 
VIBR .0, 0.00500 = C(5,3,1,1,1) TO C(4) 
VIBR .0, 0.00500 = C(5,3,1,1,1) TO C(5,8,1,1,1) 
VIBR .0, 0.00500 = C(5) TO C(4,4,1,0,1) 
VIBR .0, 0.00500 = C(5) TO C(4,2,1,1) 
VIBR .0, 0.00500 = C(5) TO C(4,3,1,1,1) 
VIBR .0, 0.00500 = C(5) TO C(4) 
VIBR .0, 0.00500 = C(5) TO C(5,8,1,1,1) 
VIBR .0, 0.00500 = C(5) TO C(5,3,1,1,1) 
REM   DELU   END (DO NOT REMOVE THIS LINE) 
REM   THERMSIM   START (DO NOT REMOVE THIS LINE) 
U(IJ) .0, 0.04000 = C(1) TO O(1,-3,1,0,0,1) 
U(IJ) .0, 0.04000 = C(1) TO C(2) 
U(IJ) .0, 0.04000 = C(1) TO O(1) 
U(IJ) .0, 0.04000 = C(2) TO C(3,-3,1,0,0,1) 
U(IJ) .0, 0.04000 = C(2) TO C(3) 
U(IJ) .0, 0.04000 = C(3) TO C(3,3,1,0,1) 
U(IJ) .0, 0.04000 = C(4) TO C(4,-3) 
U(IJ) .0, 0.04000 = C(4) TO N(1) 
U(IJ) .0, 0.04000 = C(5) TO C(5,-3) 
U(IJ) .0, 0.04000 = C(5) TO N(1) 
REM   THERMSIM   END (DO NOT REMOVE THIS LINE) 
END                                                                             
;
_cod_data_source_file            d1sc03108b2.cif
_cod_data_source_block           1_EtOH_069GPa
_cod_depositor_comments
;
The following automatic conversions were performed:

data item '_exptl_crystal_density_meas' value 'not measured' was
changed to '?' -- the value is perceived as not measured.

Automatic conversion script
Id: cif_fix_values 7556 2019-12-06 15:28:31Z antanas 
;
_cod_original_cell_volume        1173.3(4)
_cod_original_sg_symbol_Hall     '-P 4 2 '
_cod_original_sg_symbol_H-M      'P 4/m m m '
_cod_original_formula_sum        'C38.2 H74.6 O16.1 N2 Zn2'
_cod_database_code               1564777
_platon_squeeze_void_probe_radius 1.20
_oxford_refine_reflns_threshold_expression_ref I>-10.0\s(I)
_iucr_refine_reflections_details
; 
 
# Data was input as F-squared 
# punching LIST  6 as LIST  6 with all keys set 
# NBGNXT=    36 
#LIST   6 
READ NCOEF= 8 TYPE=FIX, F'S = FSQ UNIT=DATA, CHECK=NO L30=NO ARCH=NO 
STORE  NCOEF= 6 
OUTPUT INDICES     /FO/        SIGMA(/FO/) RATIO/JCODE CORRECTIONS SERIAL 
CONT 
INPUT  H           K           L           /FO/        SIGMA(/FO/) JCODE 
CONT   CORRECTIONS SERIAL 
FOR (I4,I4,I4,F10.2,F8.2,F4.0,F7.4,F7.0) 
END 
  -1   3   0      2.06    0.28  0. 1.0000     0. 
   1  -3   0      2.03    0.20  0. 1.0000     0. 
  -1   3   0      2.00    0.23  0. 1.0000     0. 
   0   3   0    968.55   29.67  0. 1.0000     0. 
   0   3   0    914.07   29.65  0. 1.0000     0. 
   0  -3   0    947.34   29.70  0. 1.0000     0. 
   0  -3   0   1000.00   29.72  0. 1.0000     0. 
   0   3   0    939.23   29.69  0. 1.0000     0. 
   1   3   0      1.98    0.23  0. 1.0000     0. 
   1   3   0      2.13    0.28  0. 1.0000     0. 
  -1  -3   0      1.86    0.22  0. 1.0000     0. 
  -1  -3   0      2.17    0.21  0. 1.0000     0. 
  -1   4   0     53.65    1.78  0. 1.0000     0. 
   1  -4   0     50.99    1.72  0. 1.0000     0. 
  -1   4   0     52.16    1.76  0. 1.0000     0. 
   1  -4   0     52.95    1.74  0. 1.0000     0. 
   0  -4   0    287.90    9.05  0. 1.0000     0. 
   0   4   0    298.58    9.09  0. 1.0000     0. 
   0   4   0    281.65    9.06  0. 1.0000     0. 
   0   4   0    296.12    9.06  0. 1.0000     0. 
   0   4   0    285.63    9.11  0. 1.0000     0. 
   0  -4   0    291.76    9.05  0. 1.0000     0. 
   0  -4   0    298.96    9.08  0. 1.0000     0. 
   0  -4   0    277.01    9.08  0. 1.0000     0. 
   1   4   0     52.35    1.75  0. 1.0000     0. 
   1   4   0     53.25    1.76  0. 1.0000     0. 
  -1  -4   0     53.05    1.76  0. 1.0000     0. 
  -1  -4   0     52.12    1.73  0. 1.0000     0. 
  -1  -4   0     53.34    1.73  0. 1.0000     0. 
   1   4   0     53.18    1.82  0. 1.0000     0. 
  -2   5   0    189.43    6.08  0. 1.0000     0. 
   1  -5   0    188.12    6.36  0. 1.0000     0. 
  -1   5   0    215.04    6.41  0. 1.0000     0. 
  -1   5   0    202.46    6.40  0. 1.0000     0. 
   1  -5   0    199.35    6.34  0. 1.0000     0. 
   0  -5   0    418.55   12.90  0. 1.0000     0. 
   0  -5   0    398.25   12.93  0. 1.0000     0. 
   0   5   0    420.04   12.92  0. 1.0000     0. 
   0  -5   0    429.75   12.91  0. 1.0000     0. 
   0   5   0    418.18   12.94  0. 1.0000     0. 
   0  -5   0    407.36   12.93  0. 1.0000     0. 
   0   5   0    398.96   12.97  0. 1.0000     0. 
   0   5   0    414.43   12.92  0. 1.0000     0. 
   1   5   0    202.48    6.25  0. 1.0000     0. 
  -1  -5   0    191.59    6.18  0. 1.0000     0. 
  -1  -5   0    202.08    6.15  0. 1.0000     0. 
   1   5   0    194.83    6.18  0. 1.0000     0. 
   1   5   0    181.75    6.17  0. 1.0000     0. 
  -1  -5   0    197.23    6.15  0. 1.0000     0. 
   2   5   0    203.11    6.41  0. 1.0000     0. 
  -2  -5   0    201.14    6.39  0. 1.0000     0. 
  -2   6   0     38.37    1.48  0. 1.0000     0. 
   2  -6   0     36.63    1.38  0. 1.0000     0. 
   1  -6   0     67.42    2.21  0. 1.0000     0. 
   1  -6   0     63.12    2.17  0. 1.0000     0. 
  -1   6   0     65.63    2.29  0. 1.0000     0. 
  -1   6   0     63.52    2.23  0. 1.0000     0. 
   0  -6   0    205.61    6.74  0. 1.0000     0. 
   0   6   0    213.34    6.73  0. 1.0000     0. 
   0  -6   0    219.85    6.75  0. 1.0000     0. 
   0  -6   0    206.53    6.70  0. 1.0000     0. 
   0   6   0    221.60    6.77  0. 1.0000     0. 
   0  -6   0    211.32    6.70  0. 1.0000     0. 
   0   6   0    212.47    6.80  0. 1.0000     0. 
   0   6   0    210.17    6.72  0. 1.0000     0. 
  -1  -6   0     61.60    2.21  0. 1.0000     0. 
   1   6   0     64.96    2.31  0. 1.0000     0. 
   1   6   0     70.14    2.23  0. 1.0000     0. 
  -1  -6   0     65.90    2.16  0. 1.0000     0. 
   1   6   0     64.17    2.20  0. 1.0000     0. 
   1   6   0     66.73    2.16  0. 1.0000     0. 
  -1  -6   0     63.66    2.15  0. 1.0000     0. 
  -1  -6   0     64.27    2.21  0. 1.0000     0. 
   2   6   0     41.82    1.52  0. 1.0000     0. 
  -2  -6   0     39.54    1.46  0. 1.0000     0. 
   3   6   0     45.15    1.67  0. 1.0000     0. 
  -2   7   0     30.78    1.36  0. 1.0000     0. 
  -1   7   0     49.43    1.76  0. 1.0000     0. 
   1  -7   0     47.83    1.74  0. 1.0000     0. 
  -1   7   0     42.05    1.82  0. 1.0000     0. 
   1  -7   0     46.25    1.69  0. 1.0000     0. 
   0  -7   0    173.41    5.42  0. 1.0000     0. 
   0  -7   0    177.42    5.41  0. 1.0000     0. 
   0   7   0    162.62    5.48  0. 1.0000     0. 
   0   7   0    159.08    5.42  0. 1.0000     0. 
   1   7   0     45.70    1.74  0. 1.0000     0. 
  -1  -7   0     47.64    1.73  0. 1.0000     0. 
  -1  -7   0     50.63    1.74  0. 1.0000     0. 
   1   7   0     44.63    1.85  0. 1.0000     0. 
   3   7   0     39.29    1.57  0. 1.0000     0. 
  -2   8   0     17.28    1.25  0. 1.0000     0. 
   1  -8   0     26.34    1.31  0. 1.0000     0. 
  -1   8   0     25.87    1.30  0. 1.0000     0. 
   1  -8   0     25.84    1.18  0. 1.0000     0. 
  -1   8   0     24.17    1.35  0. 1.0000     0. 
   0  -8   0     53.01    1.95  0. 1.0000     0. 
   0   8   0     51.45    2.14  0. 1.0000     0. 
   0   1  -1     85.80    2.87  0. 1.0000     0. 
   0  -1   1     95.14    2.86  0. 1.0000     0. 
   1   1  -1      1.43    0.16  0. 1.0000     0. 
  -1  -1  -1      1.78    0.13  0. 1.0000     0. 
  -1   1  -1      1.37    0.14  0. 1.0000     0. 
   1  -1   1      1.47    0.12  0. 1.0000     0. 
  -1  -1   1      1.60    0.12  0. 1.0000     0. 
   1   1   1      1.61    0.15  0. 1.0000     0. 
  -1   2  -1      3.88    0.27  0. 1.0000     0. 
   1  -2  -1      4.31    0.24  0. 1.0000     0. 
   1  -2  -1      3.82    0.27  0. 1.0000     0. 
  -1   2  -1      3.69    0.28  0. 1.0000     0. 
   1  -2   1      3.94    0.25  0. 1.0000     0. 
  -1   2   1      4.06    0.26  0. 1.0000     0. 
   0   2  -1     50.07    1.67  0. 1.0000     0. 
   0  -2  -1     50.62    1.66  0. 1.0000     0. 
   0  -2  -1     52.75    1.67  0. 1.0000     0. 
   0   2  -1     53.31    1.70  0. 1.0000     0. 
   0   2   1     51.82    1.66  0. 1.0000     0. 
   0  -2   1     49.38    1.67  0. 1.0000     0. 
   1   2  -1      3.69    0.24  0. 1.0000     0. 
  -1  -2  -1      4.05    0.24  0. 1.0000     0. 
  -1  -2  -1      4.10    0.25  0. 1.0000     0. 
   1   2  -1      4.11    0.30  0. 1.0000     0. 
   1   2   1      3.91    0.27  0. 1.0000     0. 
  -1  -2   1      3.85    0.25  0. 1.0000     0. 
   1  -3  -1      0.09    0.19  0. 1.0000     0. 
  -1   3  -1      0.35    0.23  0. 1.0000     0. 
   1  -3  -1      0.11    0.16  0. 1.0000     0. 
  -1   3  -1     -0.17    0.18  0. 1.0000     0. 
   1  -3   1      0.16    0.17  0. 1.0000     0. 
  -1   3   1     -0.12    0.17  0. 1.0000     0. 
   0  -3  -1    115.28    3.64  0. 1.0000     0. 
   0  -3  -1    113.24    3.64  0. 1.0000     0. 
   0   3  -1    122.51    3.66  0. 1.0000     0. 
   0   3  -1    115.36    3.69  0. 1.0000     0. 
   0   3   1    115.55    3.65  0. 1.0000     0. 
   0  -3   1    113.97    3.66  0. 1.0000     0. 
   0   3   1    103.75    3.63  0. 1.0000     0. 
   0  -3   1    116.98    3.65  0. 1.0000     0. 
   1   3  -1      0.12    0.26  0. 1.0000     0. 
  -1  -3  -1      0.19    0.17  0. 1.0000     0. 
   1   3  -1      0.12    0.18  0. 1.0000     0. 
  -1  -3  -1      0.21    0.17  0. 1.0000     0. 
  -1  -3   1     -0.05    0.18  0. 1.0000     0. 
   1   3   1      0.38    0.21  0. 1.0000     0. 
  -2  -3  -1      5.40    0.17  0. 1.0000     0. 
  -2   4  -1      8.70    0.64  0. 1.0000     0. 
   1  -4  -1     13.40    0.61  0. 1.0000     0. 
  -1   4  -1     13.66    0.67  0. 1.0000     0. 
  -1   4  -1     13.39    0.65  0. 1.0000     0. 
   1  -4  -1     13.25    0.63  0. 1.0000     0. 
   1  -4   1     14.28    0.63  0. 1.0000     0. 
  -1   4   1     14.59    0.63  0. 1.0000     0. 
  -1   4   1     14.11    0.59  0. 1.0000     0. 
   0  -4  -1    160.19    5.00  0. 1.0000     0. 
   0  -4  -1    155.65    5.01  0. 1.0000     0. 
   0   4  -1    158.91    5.11  0. 1.0000     0. 
   0   4  -1    162.23    5.08  0. 1.0000     0. 
   0  -4  -1    164.07    5.05  0. 1.0000     0. 
   0  -4  -1    161.73    5.05  0. 1.0000     0. 
   0  -4   1    151.74    5.06  0. 1.0000     0. 
   0  -4   1    156.50    5.07  0. 1.0000     0. 
   0   4   1    160.07    5.03  0. 1.0000     0. 
   0   4   1    158.78    5.06  0. 1.0000     0. 
   0   4   1    166.72    5.02  0. 1.0000     0. 
   0   4   1    155.27    5.05  0. 1.0000     0. 
  -1  -4  -1     13.70    0.63  0. 1.0000     0. 
   1   4  -1     14.06    0.74  0. 1.0000     0. 
  -1  -4  -1     13.72    0.60  0. 1.0000     0. 
   1   4  -1     13.78    0.64  0. 1.0000     0. 
   1   4   1     14.70    0.55  0. 1.0000     0. 
  -1  -4   1     14.41    0.64  0. 1.0000     0. 
   1   4   1     12.87    0.66  0. 1.0000     0. 
   2   4  -1      9.05    0.66  0. 1.0000     0. 
  -2  -4  -1      8.93    0.54  0. 1.0000     0. 
   2   4  -1      9.33    0.55  0. 1.0000     0. 
  -2  -4   1      8.82    0.52  0. 1.0000     0. 
  -2   5  -1     48.29    1.74  0. 1.0000     0. 
   2  -5  -1     45.24    1.66  0. 1.0000     0. 
  -1   5  -1     72.47    2.44  0. 1.0000     0. 
   1  -5  -1     71.99    2.41  0. 1.0000     0. 
  -1   5  -1     73.31    2.50  0. 1.0000     0. 
   1  -5  -1     72.64    2.39  0. 1.0000     0. 
  -1   5   1     72.55    2.37  0. 1.0000     0. 
   1  -5   1     70.53    2.41  0. 1.0000     0. 
  -1   5   1     69.59    2.40  0. 1.0000     0. 
   0  -5  -1    198.78    6.50  0. 1.0000     0. 
   0  -5  -1    202.18    6.45  0. 1.0000     0. 
   0  -5  -1    209.23    6.46  0. 1.0000     0. 
   0   5  -1    198.28    6.53  0. 1.0000     0. 
   0   5  -1    205.84    6.58  0. 1.0000     0. 
   0  -5  -1    211.30    6.50  0. 1.0000     0. 
   0   5   1    205.82    6.47  0. 1.0000     0. 
   0   5   1    197.54    6.50  0. 1.0000     0. 
   0  -5   1    202.56    6.52  0. 1.0000     0. 
   0  -5   1    205.86    6.54  0. 1.0000     0. 
   0   5   1    214.74    6.50  0. 1.0000     0. 
   0   5   1    212.16    6.52  0. 1.0000     0. 
  -1  -5  -1     70.26    2.36  0. 1.0000     0. 
  -1  -5  -1     72.50    2.37  0. 1.0000     0. 
   1   5  -1     71.99    2.40  0. 1.0000     0. 
  -1  -5  -1     72.73    2.32  0. 1.0000     0. 
   1   5  -1     71.06    2.49  0. 1.0000     0. 
   1   5   1     71.55    2.39  0. 1.0000     0. 
  -1  -5   1     70.90    2.39  0. 1.0000     0. 
   1   5   1     72.30    2.32  0. 1.0000     0. 
   1   5   1     67.95    2.40  0. 1.0000     0. 
   2   5  -1     49.34    1.75  0. 1.0000     0. 
   2   5  -1     47.09    1.88  0. 1.0000     0. 
  -2  -5  -1     49.54    1.74  0. 1.0000     0. 
  -2  -5   1     48.77    1.74  0. 1.0000     0. 
   2   5   1     51.05    1.67  0. 1.0000     0. 
   2  -6  -1      4.87    0.66  0. 1.0000     0. 
  -2   6  -1      5.27    0.73  0. 1.0000     0. 
  -2   6   1      5.19    0.60  0. 1.0000     0. 
   1  -6  -1      9.02    0.69  0. 1.0000     0. 
  -1   6  -1      7.12    0.86  0. 1.0000     0. 
  -1   6  -1      9.01    0.75  0. 1.0000     0. 
   1  -6  -1      8.88    0.61  0. 1.0000     0. 
  -1   6   1      7.59    0.72  0. 1.0000     0. 
  -1   6   1      8.14    0.59  0. 1.0000     0. 
   1  -6   1      9.12    0.73  0. 1.0000     0. 
   0  -6  -1     82.50    2.68  0. 1.0000     0. 
   0   6  -1     76.97    2.83  0. 1.0000     0. 
   0   6  -1     81.53    2.77  0. 1.0000     0. 
   0  -6  -1     82.47    2.72  0. 1.0000     0. 
   0  -6  -1     80.09    2.67  0. 1.0000     0. 
   0  -6  -1     82.96    2.72  0. 1.0000     0. 
   0   6   1     79.96    2.75  0. 1.0000     0. 
   0  -6   1     83.29    2.75  0. 1.0000     0. 
   0  -6   1     81.34    2.77  0. 1.0000     0. 
   0   6   1     82.15    2.73  0. 1.0000     0. 
   0   6   1     86.71    2.71  0. 1.0000     0. 
   0   6   1     82.55    2.73  0. 1.0000     0. 
  -1  -6  -1      7.64    0.52  0. 1.0000     0. 
  -1  -6  -1      8.78    0.58  0. 1.0000     0. 
   1   6  -1      7.87    0.86  0. 1.0000     0. 
  -1  -6  -1      7.55    0.66  0. 1.0000     0. 
   1   6  -1      9.27    0.69  0. 1.0000     0. 
  -1  -6  -1      8.94    0.56  0. 1.0000     0. 
   1   6   1      9.03    0.72  0. 1.0000     0. 
   1   6   1      8.48    0.66  0. 1.0000     0. 
   1   6   1      9.12    0.59  0. 1.0000     0. 
  -1  -6   1      6.96    0.68  0. 1.0000     0. 
   1   6   1      8.98    0.64  0. 1.0000     0. 
  -2  -6  -1      5.18    0.67  0. 1.0000     0. 
   2   6  -1      6.37    0.69  0. 1.0000     0. 
   2   6  -1      5.02    0.73  0. 1.0000     0. 
   2   6   1      6.06    0.57  0. 1.0000     0. 
  -2  -6   1      4.47    0.60  0. 1.0000     0. 
  -3  -6  -1      5.25    0.69  0. 1.0000     0. 
   3   6  -1      6.39    0.75  0. 1.0000     0. 
   3   6   1      6.19    0.63  0. 1.0000     0. 
  -2   7  -1      1.51    0.77  0. 1.0000     0. 
   2  -7  -1      2.42    0.63  0. 1.0000     0. 
  -2   7   1      1.49    0.54  0. 1.0000     0. 
   1  -7  -1      4.31    0.58  0. 1.0000     0. 
  -1   7  -1      3.27    0.74  0. 1.0000     0. 
  -1   7  -1      4.92    0.65  0. 1.0000     0. 
   1  -7   1      4.34    0.67  0. 1.0000     0. 
   1  -7   1      4.79    0.59  0. 1.0000     0. 
  -1   7   1      4.68    0.63  0. 1.0000     0. 
   0   7  -1     39.34    1.61  0. 1.0000     0. 
   0   7  -1     37.00    1.70  0. 1.0000     0. 
   0  -7  -1     40.35    1.51  0. 1.0000     0. 
   0  -7  -1     39.64    1.51  0. 1.0000     0. 
   0  -7   1     39.72    1.59  0. 1.0000     0. 
   0   7   1     39.55    1.58  0. 1.0000     0. 
   0  -7   1     42.39    1.57  0. 1.0000     0. 
   0   7   1     42.97    1.54  0. 1.0000     0. 
  -1  -7  -1      4.21    0.54  0. 1.0000     0. 
   1   7  -1      3.29    0.77  0. 1.0000     0. 
   1   7  -1      3.90    0.61  0. 1.0000     0. 
  -1  -7  -1      3.97    0.48  0. 1.0000     0. 
   1   7   1      4.43    0.54  0. 1.0000     0. 
  -1  -7   1      3.76    0.60  0. 1.0000     0. 
  -1  -7   1      3.80    0.58  0. 1.0000     0. 
   1   7   1      4.10    0.61  0. 1.0000     0. 
   2   7  -1      2.67    0.76  0. 1.0000     0. 
   2   7  -1      1.74    0.61  0. 1.0000     0. 
  -2  -7  -1      1.87    0.54  0. 1.0000     0. 
  -2  -7   1      1.68    0.52  0. 1.0000     0. 
   3   7  -1      1.25    0.58  0. 1.0000     0. 
  -2   8  -1      2.12    0.84  0. 1.0000     0. 
  -1   8  -1      1.73    0.65  0. 1.0000     0. 
  -1   8  -1      0.31    0.77  0. 1.0000     0. 
   1  -8   1      0.73    0.68  0. 1.0000     0. 
   1  -8   1      0.86    0.60  0. 1.0000     0. 
   0   8  -1     10.92    1.13  0. 1.0000     0. 
   0   8  -1     13.02    1.01  0. 1.0000     0. 
   0  -8   1     11.88    1.00  0. 1.0000     0. 
   0  -8   1     13.69    0.95  0. 1.0000     0. 
   1   8  -1      0.68    0.79  0. 1.0000     0. 
   1   8  -1      1.87    0.66  0. 1.0000     0. 
  -1  -8   1      0.29    0.60  0. 1.0000     0. 
  -1  -8   1      1.12    0.62  0. 1.0000     0. 
   2   8  -1      0.91    0.85  0. 1.0000     0. 
   2   8  -1     -0.14    0.65  0. 1.0000     0. 
  -2  -8   1      0.61    0.60  0. 1.0000     0. 
  -3   9  -1     -0.01    0.96  0. 1.0000     0. 
  -2   9  -1      1.91    0.96  0. 1.0000     0. 
   2  -9   1      2.57    0.93  0. 1.0000     0. 
  -1   9  -1      3.08    0.71  0. 1.0000     0. 
  -1   9  -1      3.26    0.98  0. 1.0000     0. 
   1  -9   1      2.70    0.82  0. 1.0000     0. 
   1  -9   1      2.93    0.69  0. 1.0000     0. 
   0   9  -1     14.76    1.42  0. 1.0000     0. 
   0   9  -1     16.97    1.28  0. 1.0000     0. 
   0  -9   1     16.63    1.26  0. 1.0000     0. 
   0  -9   1     17.54    1.12  0. 1.0000     0. 
   0   0  -2     52.21    1.71  0. 1.0000     0. 
   0   0  -2     51.80    1.72  0. 1.0000     0. 
   0   0  -2     53.47    1.70  0. 1.0000     0. 
   0   0  -2     52.51    1.71  0. 1.0000     0. 
   0   0   2     54.93    1.72  0. 1.0000     0. 
   0   0   2     53.77    1.71  0. 1.0000     0. 
   0   0   2     51.21    1.70  0. 1.0000     0. 
   1   0  -2     26.74    0.94  0. 1.0000     0. 
   0   1  -2     28.69    0.93  0. 1.0000     0. 
  -1   0  -2     27.04    0.94  0. 1.0000     0. 
   0  -1  -2     28.25    0.95  0. 1.0000     0. 
   1   0  -2     27.34    0.95  0. 1.0000     0. 
   0   1  -2     31.91    0.96  0. 1.0000     0. 
   0  -1  -2     27.46    0.95  0. 1.0000     0. 
  -1   0  -2     24.07    0.93  0. 1.0000     0. 
   1   0  -2     27.28    0.98  0. 1.0000     0. 
  -1   0  -2     26.90    0.94  0. 1.0000     0. 
  -1   0  -2     27.10    0.95  0. 1.0000     0. 
   0   1  -2     30.23    1.00  0. 1.0000     0. 
   0  -1   2     29.69    0.95  0. 1.0000     0. 
  -1   0   2     25.67    0.93  0. 1.0000     0. 
  -1   0   2     28.04    0.95  0. 1.0000     0. 
   1   0   2     28.38    0.93  0. 1.0000     0. 
   1   0   2     24.62    0.96  0. 1.0000     0. 
   0   1   2     25.97    0.94  0. 1.0000     0. 
  -1   1  -2     78.30    2.52  0. 1.0000     0. 
   1   1  -2     78.89    2.57  0. 1.0000     0. 
   1   1  -2     76.96    2.51  0. 1.0000     0. 
   1  -1  -2     80.35    2.52  0. 1.0000     0. 
  -1  -1  -2     77.94    2.51  0. 1.0000     0. 
  -1   1  -2     78.10    2.54  0. 1.0000     0. 
  -1  -1  -2     79.95    2.53  0. 1.0000     0. 
   1  -1  -2     80.67    2.52  0. 1.0000     0. 
   1   1   2     74.49    2.54  0. 1.0000     0. 
  -1   1   2     77.50    2.52  0. 1.0000     0. 
   1  -1   2     79.66    2.51  0. 1.0000     0. 
  -1  -1   2     73.24    2.52  0. 1.0000     0. 
  -1   2  -2     38.38    1.32  0. 1.0000     0. 
   1  -2  -2     38.08    1.30  0. 1.0000     0. 
   1  -2  -2     37.99    1.31  0. 1.0000     0. 
  -1   2  -2     38.26    1.34  0. 1.0000     0. 
  -1   2   2     36.81    1.31  0. 1.0000     0. 
   1  -2   2     37.48    1.29  0. 1.0000     0. 
   0   2  -2     30.88    1.07  0. 1.0000     0. 
   0  -2  -2     32.60    1.08  0. 1.0000     0. 
   0  -2  -2     30.09    1.06  0. 1.0000     0. 
   0   2  -2     30.21    1.11  0. 1.0000     0. 
   0   2   2     29.80    1.08  0. 1.0000     0. 
   0   2   2     29.05    1.06  0. 1.0000     0. 
   0  -2   2     29.99    1.07  0. 1.0000     0. 
   1   2  -2     38.64    1.39  0. 1.0000     0. 
  -1  -2  -2     40.48    1.33  0. 1.0000     0. 
  -1  -2  -2     38.05    1.34  0. 1.0000     0. 
   1   2  -2     38.86    1.33  0. 1.0000     0. 
  -1  -2   2     38.33    1.33  0. 1.0000     0. 
   1   2   2     39.78    1.37  0. 1.0000     0. 
  -2   3  -2     18.71    0.83  0. 1.0000     0. 
  -2   3  -2     19.52    0.87  0. 1.0000     0. 
   2  -3   2     17.54    0.78  0. 1.0000     0. 
   1  -3  -2     16.77    0.68  0. 1.0000     0. 
   1  -3  -2     16.33    0.70  0. 1.0000     0. 
  -1   3  -2     14.82    0.71  0. 1.0000     0. 
  -1   3  -2     16.10    0.71  0. 1.0000     0. 
  -1   3   2     15.56    0.68  0. 1.0000     0. 
   1  -3   2     16.03    0.69  0. 1.0000     0. 
   0  -3  -2      7.33    0.44  0. 1.0000     0. 
   0   3  -2      7.09    0.45  0. 1.0000     0. 
   0   3  -2      7.47    0.53  0. 1.0000     0. 
   0  -3  -2      6.84    0.46  0. 1.0000     0. 
   0  -3   2      7.70    0.47  0. 1.0000     0. 
   0   3   2      7.77    0.44  0. 1.0000     0. 
   0   3   2      7.97    0.50  0. 1.0000     0. 
   0  -3   2      7.33    0.46  0. 1.0000     0. 
   1   3  -2     17.58    0.81  0. 1.0000     0. 
  -1  -3  -2     17.70    0.71  0. 1.0000     0. 
   1   3  -2     16.27    0.71  0. 1.0000     0. 
  -1  -3  -2     16.65    0.71  0. 1.0000     0. 
   1   3   2     16.83    0.76  0. 1.0000     0. 
  -1  -3   2     16.80    0.72  0. 1.0000     0. 
  -2  -3  -2     20.06    0.84  0. 1.0000     0. 
  -2  -3  -2     18.85    0.80  0. 1.0000     0. 
   2   3  -2     19.10    0.95  0. 1.0000     0. 
   2   3  -2     20.30    0.83  0. 1.0000     0. 
  -2  -3   2     20.20    0.82  0. 1.0000     0. 
   2   3   2     18.77    0.89  0. 1.0000     0. 
   2  -4  -2     22.54    0.99  0. 1.0000     0. 
  -2   4  -2     22.97    1.01  0. 1.0000     0. 
  -2   4  -2     24.59    1.06  0. 1.0000     0. 
   2  -4   2     22.74    0.97  0. 1.0000     0. 
   1  -4  -2     22.23    0.89  0. 1.0000     0. 
  -1   4  -2     21.51    0.94  0. 1.0000     0. 
  -1   4  -2     20.93    1.00  0. 1.0000     0. 
   1  -4  -2     21.21    0.96  0. 1.0000     0. 
  -1   4   2     21.19    0.89  0. 1.0000     0. 
   1  -4   2     21.60    0.90  0. 1.0000     0. 
   0  -4  -2      3.93    0.48  0. 1.0000     0. 
   0   4  -2      4.26    0.60  0. 1.0000     0. 
   0   4  -2      4.09    0.48  0. 1.0000     0. 
   0  -4  -2      4.27    0.45  0. 1.0000     0. 
   0   4   2      3.90    0.52  0. 1.0000     0. 
   0  -4   2      3.76    0.46  0. 1.0000     0. 
   0  -4   2      4.25    0.49  0. 1.0000     0. 
   0   4   2      3.94    0.44  0. 1.0000     0. 
  -1  -4  -2     21.49    0.92  0. 1.0000     0. 
  -1  -4  -2     21.40    0.89  0. 1.0000     0. 
   1   4  -2     21.22    0.92  0. 1.0000     0. 
   1   4  -2     21.99    1.04  0. 1.0000     0. 
  -1  -4   2     22.78    0.94  0. 1.0000     0. 
   1   4   2     21.55    0.96  0. 1.0000     0. 
  -2  -4  -2     24.07    0.97  0. 1.0000     0. 
  -2  -4  -2     23.52    1.00  0. 1.0000     0. 
   2   4  -2     24.65    1.00  0. 1.0000     0. 
   2   4  -2     22.13    1.13  0. 1.0000     0. 
  -2  -4   2     23.36    0.98  0. 1.0000     0. 
   2   4   2     23.45    1.06  0. 1.0000     0. 
  -3  -4  -2      0.00    0.05  0. 1.0000     0. 
  -2   5  -2     16.37    0.87  0. 1.0000     0. 
  -2   5  -2     16.36    0.94  0. 1.0000     0. 
   2  -5  -2     14.67    0.87  0. 1.0000     0. 
   2  -5   2     14.80    0.82  0. 1.0000     0. 
   1  -5  -2      7.40    0.67  0. 1.0000     0. 
  -1   5  -2      6.73    0.80  0. 1.0000     0. 
  -1   5  -2      6.82    0.66  0. 1.0000     0. 
   1  -5  -2      7.54    0.60  0. 1.0000     0. 
   1  -5   2      6.85    0.62  0. 1.0000     0. 
  -1   5   2      7.38    0.59  0. 1.0000     0. 
   0  -5  -2      1.07    0.39  0. 1.0000     0. 
   0   5  -2      1.67    0.56  0. 1.0000     0. 
   0  -5  -2      0.56    0.40  0. 1.0000     0. 
   0   5  -2      0.76    0.42  0. 1.0000     0. 
   0  -5   2      0.83    0.39  0. 1.0000     0. 
   0  -5   2      1.18    0.45  0. 1.0000     0. 
   0   5   2      1.52    0.47  0. 1.0000     0. 
   0   5   2      1.35    0.39  0. 1.0000     0. 
   1   5  -2      7.19    0.80  0. 1.0000     0. 
  -1  -5  -2      7.23    0.64  0. 1.0000     0. 
   1   5  -2      7.53    0.67  0. 1.0000     0. 
  -1  -5  -2      6.85    0.59  0. 1.0000     0. 
   1   5   2      7.45    0.72  0. 1.0000     0. 
  -1  -5   2      7.52    0.66  0. 1.0000     0. 
   2   5  -2     13.93    0.99  0. 1.0000     0. 
   2   5  -2     16.37    0.85  0. 1.0000     0. 
  -2  -5  -2     15.12    0.83  0. 1.0000     0. 
  -2  -5  -2     14.72    0.79  0. 1.0000     0. 
   2   5   2     15.52    0.89  0. 1.0000     0. 
  -2  -5   2     14.40    0.81  0. 1.0000     0. 
  -3  -5  -2      2.35    0.50  0. 1.0000     0. 
   3   5  -2      0.95    0.46  0. 1.0000     0. 
  -2   6  -2     15.59    1.00  0. 1.0000     0. 
  -2   6  -2     17.04    0.98  0. 1.0000     0. 
   2  -6  -2     15.73    0.94  0. 1.0000     0. 
   2  -6   2     17.23    0.93  0. 1.0000     0. 
   1  -6  -2     11.55    0.89  0. 1.0000     0. 
  -1   6  -2     12.83    1.06  0. 1.0000     0. 
  -1   6  -2     13.40    0.89  0. 1.0000     0. 
   1  -6  -2     13.60    0.85  0. 1.0000     0. 
   1  -6   2     13.29    0.84  0. 1.0000     0. 
  -1   6   2     14.02    0.85  0. 1.0000     0. 
   0  -6  -2      1.80    0.47  0. 1.0000     0. 
   0  -6  -2      1.82    0.49  0. 1.0000     0. 
   0   6  -2      1.22    0.65  0. 1.0000     0. 
   0   6  -2      0.98    0.49  0. 1.0000     0. 
   0  -6   2      1.79    0.48  0. 1.0000     0. 
   0   6   2      1.27    0.56  0. 1.0000     0. 
   0  -6   2      0.90    0.53  0. 1.0000     0. 
   0   6   2      1.50    0.48  0. 1.0000     0. 
  -1  -6  -2     13.25    0.79  0. 1.0000     0. 
   1   6  -2     12.67    0.86  0. 1.0000     0. 
   1   6  -2     12.45    1.02  0. 1.0000     0. 
  -1  -6  -2     13.78    0.84  0. 1.0000     0. 
   1   6   2     11.78    0.96  0. 1.0000     0. 
   1   6   2     12.80    0.83  0. 1.0000     0. 
  -1  -6   2     12.70    0.84  0. 1.0000     0. 
   2   6  -2     14.53    0.98  0. 1.0000     0. 
  -2  -6  -2     16.85    0.88  0. 1.0000     0. 
  -2  -6  -2     16.92    0.97  0. 1.0000     0. 
   2   6  -2     17.79    1.19  0. 1.0000     0. 
  -2  -6   2     17.49    0.96  0. 1.0000     0. 
   2   6   2     18.96    1.06  0. 1.0000     0. 
  -3  -6  -2      3.11    0.14  0. 1.0000     0. 
  -3  -6  -2      5.41    0.62  0. 1.0000     0. 
  -3   7  -2     -1.39    0.65  0. 1.0000     0. 
  -2   7  -2     13.66    0.99  0. 1.0000     0. 
   2  -7  -2     11.99    1.01  0. 1.0000     0. 
  -2   7  -2     12.72    1.19  0. 1.0000     0. 
   2  -7   2     11.55    0.92  0. 1.0000     0. 
  -1   7  -2     10.64    1.03  0. 1.0000     0. 
   1  -7  -2      9.84    0.92  0. 1.0000     0. 
  -1   7  -2     11.86    0.96  0. 1.0000     0. 
   1  -7  -2      9.54    0.86  0. 1.0000     0. 
   1  -7   2     10.40    0.89  0. 1.0000     0. 
  -1   7   2     10.71    0.98  0. 1.0000     0. 
  -1   7   2      9.70    0.89  0. 1.0000     0. 
   1  -7   2      9.66    0.95  0. 1.0000     0. 
   0   7  -2      5.11    0.67  0. 1.0000     0. 
   0  -7  -2      5.51    0.62  0. 1.0000     0. 
   0  -7  -2      6.15    0.79  0. 1.0000     0. 
   0   7  -2      4.80    0.86  0. 1.0000     0. 
   0   7   2      4.97    0.65  0. 1.0000     0. 
   0  -7   2      5.04    0.70  0. 1.0000     0. 
   0  -7   2      5.47    0.66  0. 1.0000     0. 
   0   7   2      5.37    0.75  0. 1.0000     0. 
  -1  -7  -2      9.50    0.85  0. 1.0000     0. 
   1   7  -2     10.27    1.12  0. 1.0000     0. 
  -1  -7  -2     10.61    0.82  0. 1.0000     0. 
   1   7  -2     10.52    0.98  0. 1.0000     0. 
   1   7   2     11.31    0.87  0. 1.0000     0. 
  -1  -7   2     12.08    0.96  0. 1.0000     0. 
  -1  -7   2     10.74    0.91  0. 1.0000     0. 
   1   7   2     11.34    1.02  0. 1.0000     0. 
   2   7  -2     13.43    1.23  0. 1.0000     0. 
  -2  -7  -2     12.74    0.86  0. 1.0000     0. 
  -2  -7  -2     14.02    0.99  0. 1.0000     0. 
   2   7  -2     14.44    1.05  0. 1.0000     0. 
   2   7   2     13.42    1.07  0. 1.0000     0. 
  -2  -7   2     12.82    0.94  0. 1.0000     0. 
   3   7  -2      8.69    1.00  0. 1.0000     0. 
  -3  -7  -2      8.00    0.95  0. 1.0000     0. 
  -3  -7  -2      7.27    0.26  0. 1.0000     0. 
  -3   8  -2      0.29    0.92  0. 1.0000     0. 
   2  -8  -2      3.99    0.80  0. 1.0000     0. 
  -2   8  -2      4.00    0.94  0. 1.0000     0. 
  -2   8  -2      2.99    0.76  0. 1.0000     0. 
   2  -8   2      3.40    0.69  0. 1.0000     0. 
  -1   8  -2      1.30    0.73  0. 1.0000     0. 
   1  -8  -2      1.29    0.68  0. 1.0000     0. 
   1  -8  -2      1.93    0.61  0. 1.0000     0. 
  -1   8  -2      2.42    0.94  0. 1.0000     0. 
  -1   8   2      0.62    0.47  0. 1.0000     0. 
   1  -8   2      2.04    0.67  0. 1.0000     0. 
  -1   8   2      1.08    0.76  0. 1.0000     0. 
   1  -8   2      1.10    0.76  0. 1.0000     0. 
   0   8  -2      1.01    0.88  0. 1.0000     0. 
   0  -8  -2     -0.76    0.59  0. 1.0000     0. 
   0   8  -2      0.62    0.70  0. 1.0000     0. 
   0  -8  -2      0.35    0.58  0. 1.0000     0. 
   0  -8   2      0.75    0.64  0. 1.0000     0. 
   0  -8   2     -0.61    0.68  0. 1.0000     0. 
   0   8   2     -0.02    0.61  0. 1.0000     0. 
   0   8   2      0.00    0.75  0. 1.0000     0. 
   1   8  -2      1.93    0.97  0. 1.0000     0. 
  -1  -8  -2      1.38    0.60  0. 1.0000     0. 
   1   8  -2      1.80    0.74  0. 1.0000     0. 
  -1  -8  -2      1.39    0.67  0. 1.0000     0. 
  -1  -8   2      1.96    0.71  0. 1.0000     0. 
   1   8   2      1.72    0.69  0. 1.0000     0. 
   1   8   2      1.02    0.77  0. 1.0000     0. 
  -1  -8   2      1.22    0.71  0. 1.0000     0. 
   2   8  -2      4.46    0.79  0. 1.0000     0. 
  -2  -8  -2      3.30    0.74  0. 1.0000     0. 
  -2  -8  -2      3.73    0.63  0. 1.0000     0. 
   2   8  -2      3.76    1.02  0. 1.0000     0. 
   2   8   2      3.80    0.70  0. 1.0000     0. 
  -2  -8   2      2.87    0.72  0. 1.0000     0. 
   2   8   2      3.08    0.79  0. 1.0000     0. 
   3   8  -2      0.65    0.77  0. 1.0000     0. 
  -3  -8  -2      0.24    0.74  0. 1.0000     0. 
  -3   9  -2      0.94    1.01  0. 1.0000     0. 
  -2   9  -2      4.70    0.82  0. 1.0000     0. 
  -2   9  -2      5.04    1.08  0. 1.0000     0. 
   2  -9   2      6.11    1.00  0. 1.0000     0. 
   2  -9   2      5.79    0.75  0. 1.0000     0. 
  -1   9  -2      4.67    0.87  0. 1.0000     0. 
  -1   9  -2      3.84    1.05  0. 1.0000     0. 
   1  -9   2      2.66    0.89  0. 1.0000     0. 
   1  -9   2      4.21    0.77  0. 1.0000     0. 
   0   9  -2      0.16    0.97  0. 1.0000     0. 
   0   9  -2      0.17    0.75  0. 1.0000     0. 
   0  -9   2      1.02    0.73  0. 1.0000     0. 
   0  -9   2      0.29    0.82  0. 1.0000     0. 
   1   9  -2      3.76    1.07  0. 1.0000     0. 
   1   9  -2      2.87    0.84  0. 1.0000     0. 
  -1  -9   2      1.91    0.76  0. 1.0000     0. 
  -1  -9   2      3.93    0.82  0. 1.0000     0. 
   2   9  -2      4.80    1.18  0. 1.0000     0. 
   2   9  -2      5.90    0.92  0. 1.0000     0. 
  -2  -9   2      4.20    0.83  0. 1.0000     0. 
  -2  -9   2      6.53    0.92  0. 1.0000     0. 
   3   9  -2      0.05    0.51  0. 1.0000     0. 
   3   9  -2      0.94    0.89  0. 1.0000     0. 
  -3  10  -2      0.65    1.07  0. 1.0000     0. 
  -2  10  -2      5.93    1.26  0. 1.0000     0. 
   2 -10   2      5.09    1.09  0. 1.0000     0. 
  -1  10  -2      3.94    0.96  0. 1.0000     0. 
  -1  10  -2      4.87    1.21  0. 1.0000     0. 
   1 -10   2      3.40    0.87  0. 1.0000     0. 
   1 -10   2      2.97    0.97  0. 1.0000     0. 
   0  10  -2      0.88    1.14  0. 1.0000     0. 
   0 -10   2      1.54    0.79  0. 1.0000     0. 
   0 -10   2      1.33    1.00  0. 1.0000     0. 
   0   0  -3    215.22    7.04  0. 1.0000     0. 
   0   0  -3    218.71    7.07  0. 1.0000     0. 
   0   0  -3    227.49    7.05  0. 1.0000     0. 
   0   0  -3    232.88    7.06  0. 1.0000     0. 
   0   0   3    223.30    7.05  0. 1.0000     0. 
   0   0   3    222.97    7.08  0. 1.0000     0. 
   0   0   3    229.01    7.06  0. 1.0000     0. 
   0   1  -3    119.27    3.74  0. 1.0000     0. 
   0   1  -3    121.86    3.81  0. 1.0000     0. 
   0  -1  -3    115.18    3.71  0. 1.0000     0. 
   0  -1  -3    111.47    3.77  0. 1.0000     0. 
   0   1  -3    120.74    3.76  0. 1.0000     0. 
   1   0  -3    117.86    3.76  0. 1.0000     0. 
   0  -1  -3    121.73    3.77  0. 1.0000     0. 
   0  -1  -3    118.22    3.75  0. 1.0000     0. 
   1   0  -3    120.91    3.77  0. 1.0000     0. 
  -1   0  -3    123.49    3.76  0. 1.0000     0. 
   1   0  -3    117.66    3.74  0. 1.0000     0. 
  -1   0  -3    117.38    3.77  0. 1.0000     0. 
   0   1  -3    118.90    3.74  0. 1.0000     0. 
  -1   0  -3    115.12    3.76  0. 1.0000     0. 
  -1   0  -3    112.72    3.76  0. 1.0000     0. 
   1   0  -3    118.24    3.81  0. 1.0000     0. 
   0   1   3    116.41    3.78  0. 1.0000     0. 
   0  -1   3    121.01    3.74  0. 1.0000     0. 
   1   0   3    121.01    3.75  0. 1.0000     0. 
   1   0   3    116.03    3.79  0. 1.0000     0. 
   0  -1   3    114.82    3.77  0. 1.0000     0. 
  -1   0   3    118.31    3.77  0. 1.0000     0. 
   0   1   3    112.57    3.79  0. 1.0000     0. 
   0  -1   3    114.56    3.75  0. 1.0000     0. 
   0   1   3    114.69    3.72  0. 1.0000     0. 
  -1   0   3    118.78    3.76  0. 1.0000     0. 
   1   1  -3     12.46    0.54  0. 1.0000     0. 
   1   1  -3     12.22    0.54  0. 1.0000     0. 
   1  -1  -3     11.83    0.58  0. 1.0000     0. 
   1  -1  -3     12.36    0.49  0. 1.0000     0. 
  -1  -1  -3     11.85    0.57  0. 1.0000     0. 
   1   1  -3     12.79    0.51  0. 1.0000     0. 
   1  -1  -3     12.25    0.56  0. 1.0000     0. 
   1   1  -3     12.03    0.62  0. 1.0000     0. 
  -1  -1  -3     11.80    0.52  0. 1.0000     0. 
  -1   1  -3     11.71    0.52  0. 1.0000     0. 
  -1   1  -3     11.86    0.50  0. 1.0000     0. 
  -1  -1  -3     12.41    0.49  0. 1.0000     0. 
  -1  -1  -3     12.51    0.56  0. 1.0000     0. 
  -1   1  -3     12.10    0.58  0. 1.0000     0. 
  -1   1  -3     11.64    0.55  0. 1.0000     0. 
   1  -1   3     11.42    0.54  0. 1.0000     0. 
  -1  -1   3     12.54    0.53  0. 1.0000     0. 
   1   1   3     10.78    0.47  0. 1.0000     0. 
  -1  -1   3     13.02    0.56  0. 1.0000     0. 
  -1   1   3     11.72    0.57  0. 1.0000     0. 
   1   1   3     12.02    0.61  0. 1.0000     0. 
   1  -1   3     12.21    0.56  0. 1.0000     0. 
  -1   2  -3     73.65    2.47  0. 1.0000     0. 
  -1   2  -3     79.96    2.40  0. 1.0000     0. 
  -1   2  -3     74.54    2.50  0. 1.0000     0. 
  -2  -1  -3     71.52    2.45  0. 1.0000     0. 
   1  -2  -3     72.21    2.45  0. 1.0000     0. 
  -2  -1  -3     70.41    2.46  0. 1.0000     0. 
   1  -2  -3     70.98    2.46  0. 1.0000     0. 
   1  -2   3     78.30    2.46  0. 1.0000     0. 
   2   1   3     74.65    2.51  0. 1.0000     0. 
  -1   2   3     74.44    2.48  0. 1.0000     0. 
   0   2  -3    164.56    4.82  0. 1.0000     0. 
   0  -2  -3    154.11    4.90  0. 1.0000     0. 
   0   2  -3    157.79    4.82  0. 1.0000     0. 
   0   2  -3    157.87    4.89  0. 1.0000     0. 
   0   2  -3    149.04    4.93  0. 1.0000     0. 
   0  -2  -3    152.78    4.89  0. 1.0000     0. 
   0   2   3    143.01    4.91  0. 1.0000     0. 
   0   2   3    146.55    4.89  0. 1.0000     0. 
   0  -2   3    148.37    4.90  0. 1.0000     0. 
   0  -2   3    153.67    4.89  0. 1.0000     0. 
   0  -2   3    154.88    4.82  0. 1.0000     0. 
   0  -2   3    154.92    4.83  0. 1.0000     0. 
  -2   1  -3     71.01    2.46  0. 1.0000     0. 
  -1  -2  -3     73.82    2.42  0. 1.0000     0. 
   1   2  -3     74.77    2.51  0. 1.0000     0. 
  -1  -2  -3     72.82    2.43  0. 1.0000     0. 
   1   2  -3     73.91    2.42  0. 1.0000     0. 
   1   2  -3     76.21    2.36  0. 1.0000     0. 
  -1  -2   3     70.49    2.42  0. 1.0000     0. 
   1   2   3     73.88    2.46  0. 1.0000     0. 
   2  -1   3     70.81    2.41  0. 1.0000     0. 
  -2   2  -3    130.76    4.20  0. 1.0000     0. 
   2  -2  -3    129.79    4.16  0. 1.0000     0. 
   2   2  -3    132.28    4.15  0. 1.0000     0. 
  -2  -2  -3    133.79    4.19  0. 1.0000     0. 
  -2  -2  -3    130.19    4.15  0. 1.0000     0. 
   2   2  -3    125.96    4.26  0. 1.0000     0. 
   2  -2  -3    125.39    4.19  0. 1.0000     0. 
  -2   2  -3    128.50    4.18  0. 1.0000     0. 
  -2  -2   3    126.57    4.16  0. 1.0000     0. 
   2   2   3    125.67    4.21  0. 1.0000     0. 
   2  -2   3    125.11    4.15  0. 1.0000     0. 
  -2   3  -3     24.27    1.10  0. 1.0000     0. 
   2  -3  -3     27.82    1.09  0. 1.0000     0. 
   2  -3  -3     25.63    1.05  0. 1.0000     0. 
  -2   3  -3     26.00    1.09  0. 1.0000     0. 
  -2   3   3     22.05    1.03  0. 1.0000     0. 
   2  -3   3     25.70    1.06  0. 1.0000     0. 
  -1   3  -3     14.84    0.82  0. 1.0000     0. 
   1  -3  -3     15.40    0.72  0. 1.0000     0. 
   1  -3  -3     15.86    0.82  0. 1.0000     0. 
  -1   3  -3     14.03    0.74  0. 1.0000     0. 
   1  -3   3     14.09    0.72  0. 1.0000     0. 
  -1   3   3     14.81    0.74  0. 1.0000     0. 
   0   3  -3     28.48    1.11  0. 1.0000     0. 
   0   3  -3     30.26    1.21  0. 1.0000     0. 
   0  -3  -3     29.26    1.10  0. 1.0000     0. 
   0  -3  -3     27.65    1.11  0. 1.0000     0. 
   0   3   3     28.72    1.10  0. 1.0000     0. 
   0  -3   3     28.19    1.12  0. 1.0000     0. 
   0  -3   3     26.49    1.09  0. 1.0000     0. 
   0   3   3     27.77    1.14  0. 1.0000     0. 
  -1  -3  -3     16.00    0.74  0. 1.0000     0. 
   1   3  -3     15.61    0.74  0. 1.0000     0. 
   1   3  -3     15.63    0.88  0. 1.0000     0. 
  -1  -3  -3     14.81    0.74  0. 1.0000     0. 
  -1  -3   3     13.21    0.72  0. 1.0000     0. 
   1   3   3     16.69    0.84  0. 1.0000     0. 
   2   3  -3     25.30    1.04  0. 1.0000     0. 
  -2  -3  -3     24.15    1.05  0. 1.0000     0. 
   2   3  -3     25.03    1.18  0. 1.0000     0. 
  -2  -3  -3     25.63    1.03  0. 1.0000     0. 
   2   3   3     26.19    1.17  0. 1.0000     0. 
  -2  -3   3     24.75    1.03  0. 1.0000     0. 
   3   3  -3     -0.36    0.18  0. 1.0000     0. 
  -3  -3  -3     -0.24    0.12  0. 1.0000     0. 
  -2   4  -3     42.53    1.63  0. 1.0000     0. 
   2  -4  -3     41.89    1.59  0. 1.0000     0. 
   2  -4  -3     38.99    1.61  0. 1.0000     0. 
  -2   4  -3     44.16    1.68  0. 1.0000     0. 
  -2   4   3     48.02    1.66  0. 1.0000     0. 
   2  -4   3     40.70    1.61  0. 1.0000     0. 
  -1   4  -3     36.45    1.55  0. 1.0000     0. 
   1  -4  -3     40.76    1.46  0. 1.0000     0. 
   1  -4  -3     41.75    1.51  0. 1.0000     0. 
  -1   4  -3     38.75    1.49  0. 1.0000     0. 
   1  -4   3     38.62    1.47  0. 1.0000     0. 
  -1   4   3     36.00    1.45  0. 1.0000     0. 
   0  -4  -3     72.17    2.39  0. 1.0000     0. 
   0   4  -3     70.73    2.40  0. 1.0000     0. 
   0  -4  -3     73.11    2.39  0. 1.0000     0. 
   0   4  -3     71.33    2.50  0. 1.0000     0. 
   0  -4   3     72.63    2.42  0. 1.0000     0. 
   0   4   3     67.11    2.41  0. 1.0000     0. 
   0  -4   3     65.95    2.38  0. 1.0000     0. 
   0   4   3     64.67    2.37  0. 1.0000     0. 
  -1  -4  -3     40.17    1.47  0. 1.0000     0. 
  -1  -4  -3     38.78    1.44  0. 1.0000     0. 
   1   4  -3     38.86    1.61  0. 1.0000     0. 
   1   4  -3     37.82    1.46  0. 1.0000     0. 
   1   4   3     37.88    1.52  0. 1.0000     0. 
  -1  -4   3     38.36    1.47  0. 1.0000     0. 
   2   4  -3     42.49    1.75  0. 1.0000     0. 
  -2  -4  -3     45.20    1.58  0. 1.0000     0. 
  -2  -4  -3     42.98    1.60  0. 1.0000     0. 
   2   4  -3     40.97    1.59  0. 1.0000     0. 
   2   4   3     41.53    1.68  0. 1.0000     0. 
  -2  -4   3     41.93    1.59  0. 1.0000     0. 
   2  -5  -3     58.42    2.19  0. 1.0000     0. 
  -2   5  -3     62.77    2.24  0. 1.0000     0. 
   2  -5  -3     59.89    2.17  0. 1.0000     0. 
  -2   5  -3     61.01    2.25  0. 1.0000     0. 
  -2   5   3     58.72    2.19  0. 1.0000     0. 
   2  -5   3     63.28    2.20  0. 1.0000     0. 
  -1   5  -3     53.07    2.04  0. 1.0000     0. 
   1  -5  -3     55.91    2.02  0. 1.0000     0. 
   1  -5  -3     58.53    2.07  0. 1.0000     0. 
  -1   5  -3     56.27    2.16  0. 1.0000     0. 
   1  -5   3     57.37    2.05  0. 1.0000     0. 
  -1   5   3     57.53    2.04  0. 1.0000     0. 
   0  -5  -3     55.56    1.98  0. 1.0000     0. 
   0  -5  -3     54.75    1.98  0. 1.0000     0. 
   0   5  -3     54.13    2.11  0. 1.0000     0. 
   0   5  -3     56.48    2.02  0. 1.0000     0. 
   0  -5   3     55.73    2.03  0. 1.0000     0. 
   0  -5   3     55.12    2.01  0. 1.0000     0. 
   0   5   3     55.80    2.00  0. 1.0000     0. 
   0   5   3     55.32    2.05  0. 1.0000     0. 
   1   5  -3     59.42    2.11  0. 1.0000     0. 
  -1  -5  -3     57.70    2.09  0. 1.0000     0. 
  -1  -5  -3     56.00    2.07  0. 1.0000     0. 
   1   5  -3     59.36    2.25  0. 1.0000     0. 
   1   5   3     58.10    2.15  0. 1.0000     0. 
  -1  -5   3     60.06    2.13  0. 1.0000     0. 
  -2  -5  -3     61.73    2.17  0. 1.0000     0. 
   2   5  -3     61.09    2.21  0. 1.0000     0. 
   2   5  -3     65.39    2.41  0. 1.0000     0. 
  -2  -5  -3     60.36    2.20  0. 1.0000     0. 
  -2  -5   3     59.78    2.21  0. 1.0000     0. 
   2   5   3     60.09    2.30  0. 1.0000     0. 
  -3  -5  -3     20.44    1.05  0. 1.0000     0. 
   3   5  -3     19.05    1.03  0. 1.0000     0. 
  -3  -5  -3     15.92    0.94  0. 1.0000     0. 
   3   5  -3     17.71    1.21  0. 1.0000     0. 
   3  -6   3      0.00    0.36  0. 1.0000     0. 
  -2   6  -3     44.73    1.87  0. 1.0000     0. 
   2  -6  -3     47.87    1.81  0. 1.0000     0. 
   2  -6  -3     46.12    1.87  0. 1.0000     0. 
  -2   6  -3     45.99    1.99  0. 1.0000     0. 
   2  -6   3     47.26    1.85  0. 1.0000     0. 
   1  -6  -3     39.99    1.65  0. 1.0000     0. 
  -1   6  -3     38.43    1.67  0. 1.0000     0. 
   1  -6  -3     39.95    1.61  0. 1.0000     0. 
  -1   6  -3     38.97    1.82  0. 1.0000     0. 
   1  -6   3     37.91    1.72  0. 1.0000     0. 
  -1   6   3     44.17    1.65  0. 1.0000     0. 
   1  -6   3     43.98    1.65  0. 1.0000     0. 
   0   6  -3     46.96    1.90  0. 1.0000     0. 
   0  -6  -3     47.79    1.80  0. 1.0000     0. 
   0  -6  -3     47.99    1.80  0. 1.0000     0. 
   0   6  -3     46.30    2.05  0. 1.0000     0. 
   0   6   3     44.85    1.88  0. 1.0000     0. 
   0  -6   3     45.96    1.90  0. 1.0000     0. 
   0   6   3     48.05    1.84  0. 1.0000     0. 
   0  -6   3     50.85    1.88  0. 1.0000     0. 
   1   6  -3     43.01    1.97  0. 1.0000     0. 
  -1  -6  -3     42.51    1.68  0. 1.0000     0. 
  -1  -6  -3     44.23    1.71  0. 1.0000     0. 
   1   6  -3     41.86    1.76  0. 1.0000     0. 
   1   6   3     42.99    1.81  0. 1.0000     0. 
   1   6   3     45.78    1.72  0. 1.0000     0. 
  -1  -6   3     44.47    1.79  0. 1.0000     0. 
  -2  -6  -3     46.72    1.78  0. 1.0000     0. 
  -2  -6  -3     46.85    1.85  0. 1.0000     0. 
   2   6  -3     45.26    2.05  0. 1.0000     0. 
   2   6   3     48.13    1.98  0. 1.0000     0. 
  -2  -6   3     48.13    1.85  0. 1.0000     0. 
   3   6  -3     18.05    1.32  0. 1.0000     0. 
   3   6  -3     16.85    1.04  0. 1.0000     0. 
  -3  -6  -3     13.66    0.91  0. 1.0000     0. 
  -3  -6   3     12.96    0.92  0. 1.0000     0. 
  -3   7  -3     19.05    1.30  0. 1.0000     0. 
  -2   7  -3     38.05    1.89  0. 1.0000     0. 
   2  -7  -3     38.77    1.75  0. 1.0000     0. 
  -2   7  -3     42.69    1.79  0. 1.0000     0. 
   2  -7   3     42.13    1.77  0. 1.0000     0. 
   1  -7  -3     45.60    1.89  0. 1.0000     0. 
   1  -7  -3     46.48    1.86  0. 1.0000     0. 
  -1   7  -3     46.31    1.90  0. 1.0000     0. 
  -1   7  -3     45.76    2.02  0. 1.0000     0. 
  -1   7   3     44.93    1.88  0. 1.0000     0. 
  -1   7   3     48.02    1.95  0. 1.0000     0. 
   1  -7   3     48.40    1.94  0. 1.0000     0. 
   1  -7   3     44.49    1.84  0. 1.0000     0. 
   0   7  -3     47.29    2.12  0. 1.0000     0. 
   0  -7  -3     48.24    1.91  0. 1.0000     0. 
   0  -7  -3     46.68    1.89  0. 1.0000     0. 
   0   7  -3     47.20    1.96  0. 1.0000     0. 
   0   7   3     50.41    2.00  0. 1.0000     0. 
   0   7   3     50.42    1.96  0. 1.0000     0. 
   0  -7   3     49.91    1.98  0. 1.0000     0. 
   0  -7   3     49.19    1.95  0. 1.0000     0. 
  -1  -7  -3     46.15    1.82  0. 1.0000     0. 
  -1  -7  -3     44.29    1.78  0. 1.0000     0. 
   1   7  -3     41.10    2.03  0. 1.0000     0. 
   1   7  -3     44.94    1.88  0. 1.0000     0. 
  -1  -7   3     46.01    1.87  0. 1.0000     0. 
  -1  -7   3     45.80    1.88  0. 1.0000     0. 
   1   7   3     46.22    1.97  0. 1.0000     0. 
   1   7   3     47.02    1.83  0. 1.0000     0. 
  -2  -7  -3     41.64    1.69  0. 1.0000     0. 
   2   7  -3     41.96    2.03  0. 1.0000     0. 
   2   7  -3     37.83    1.81  0. 1.0000     0. 
  -2  -7  -3     44.80    1.77  0. 1.0000     0. 
   2   7   3     41.88    1.94  0. 1.0000     0. 
  -2  -7   3     44.86    1.80  0. 1.0000     0. 
   3   7  -3     26.59    1.41  0. 1.0000     0. 
  -3  -7  -3     29.02    1.42  0. 1.0000     0. 
   3   7  -3     24.78    1.66  0. 1.0000     0. 
  -3  -7   3     19.91    1.27  0. 1.0000     0. 
   4   7  -3     -0.33    0.22  0. 1.0000     0. 
  -3   8  -3      2.48    1.01  0. 1.0000     0. 
   2  -8  -3      6.42    0.93  0. 1.0000     0. 
  -2   8  -3      6.62    1.07  0. 1.0000     0. 
  -2   8  -3      6.36    0.84  0. 1.0000     0. 
   2  -8   3      5.80    0.97  0. 1.0000     0. 
   2  -8   3      6.14    0.81  0. 1.0000     0. 
   1  -8  -3      5.97    0.80  0. 1.0000     0. 
  -1   8  -3      5.08    0.81  0. 1.0000     0. 
  -1   8  -3      7.08    1.09  0. 1.0000     0. 
   1  -8  -3      4.78    0.82  0. 1.0000     0. 
  -1   8   3      6.06    0.80  0. 1.0000     0. 
   1  -8   3      6.38    0.95  0. 1.0000     0. 
   1  -8   3      5.68    0.79  0. 1.0000     0. 
  -1   8   3      4.66    0.91  0. 1.0000     0. 
   0   8  -3      4.46    1.05  0. 1.0000     0. 
   0  -8  -3      4.69    0.76  0. 1.0000     0. 
   0  -8  -3      4.10    0.72  0. 1.0000     0. 
   0   8  -3      2.28    0.78  0. 1.0000     0. 
   0   8   3      4.10    0.94  0. 1.0000     0. 
   0  -8   3      3.82    0.86  0. 1.0000     0. 
   0   8   3      3.41    0.78  0. 1.0000     0. 
   0  -8   3      4.34    0.79  0. 1.0000     0. 
  -1  -8  -3      5.72    0.75  0. 1.0000     0. 
   1   8  -3      4.99    0.86  0. 1.0000     0. 
   1   8  -3      7.01    1.13  0. 1.0000     0. 
  -1  -8  -3      5.62    0.79  0. 1.0000     0. 
   1   8   3      4.61    0.98  0. 1.0000     0. 
   1   8   3      6.21    0.83  0. 1.0000     0. 
  -1  -8   3      5.67    0.89  0. 1.0000     0. 
  -1  -8   3      4.58    0.86  0. 1.0000     0. 
   2   8  -3      4.59    1.16  0. 1.0000     0. 
  -2  -8  -3      7.80    1.01  0. 1.0000     0. 
  -2  -8  -3      8.25    1.06  0. 1.0000     0. 
   2   8  -3      5.75    0.89  0. 1.0000     0. 
  -2  -8   3      5.76    0.86  0. 1.0000     0. 
   2   8   3      8.64    1.07  0. 1.0000     0. 
   2   8   3      6.77    1.00  0. 1.0000     0. 
   3   8  -3      1.62    1.10  0. 1.0000     0. 
  -3  -8  -3      1.11    0.82  0. 1.0000     0. 
   3   8  -3      1.68    0.84  0. 1.0000     0. 
  -3  -8   3      0.70    0.63  0. 1.0000     0. 
  -4  -8  -3      0.55    0.81  0. 1.0000     0. 
   4   8  -3      0.24    0.21  0. 1.0000     0. 
  -3   9  -3     10.95    1.51  0. 1.0000     0. 
  -2   9  -3     19.09    1.43  0. 1.0000     0. 
  -2   9  -3     19.99    1.66  0. 1.0000     0. 
   2  -9   3     21.97    1.39  0. 1.0000     0. 
   2  -9   3     17.60    1.50  0. 1.0000     0. 
  -1   9  -3     37.80    1.99  0. 1.0000     0. 
  -1   9  -3     25.85    1.71  0. 1.0000     0. 
   1  -9   3     32.78    1.75  0. 1.0000     0. 
   1  -9   3     30.61    1.67  0. 1.0000     0. 
   0   9  -3     15.15    1.61  0. 1.0000     0. 
   0   9  -3     16.01    1.36  0. 1.0000     0. 
   0  -9   3     16.21    1.36  0. 1.0000     0. 
   0  -9   3     15.60    1.33  0. 1.0000     0. 
   1   9  -3     19.45    1.47  0. 1.0000     0. 
   1   9  -3     20.68    1.75  0. 1.0000     0. 
  -1  -9   3     21.45    1.45  0. 1.0000     0. 
  -1  -9   3     19.80    1.43  0. 1.0000     0. 
   2   9  -3     16.62    1.48  0. 1.0000     0. 
   2   9  -3     16.73    1.72  0. 1.0000     0. 
  -2  -9   3     17.94    1.47  0. 1.0000     0. 
  -2  -9   3     19.86    1.36  0. 1.0000     0. 
   3   9  -3      8.59    1.27  0. 1.0000     0. 
   3   9  -3      9.98    1.31  0. 1.0000     0. 
   4   9  -3     10.99    0.43  0. 1.0000     0. 
  -3  10  -3      7.64    1.41  0. 1.0000     0. 
   3 -10   3     10.31    1.37  0. 1.0000     0. 
  -2  10  -3     16.44    1.49  0. 1.0000     0. 
  -2  10  -3     15.10    1.78  0. 1.0000     0. 
   2 -10   3     16.64    1.56  0. 1.0000     0. 
   2 -10   3     17.15    1.37  0. 1.0000     0. 
  -1  10  -3     14.61    1.78  0. 1.0000     0. 
  -1  10  -3     15.91    1.53  0. 1.0000     0. 
   1 -10   3     16.22    1.50  0. 1.0000     0. 
   1 -10   3     15.12    1.47  0. 1.0000     0. 
   0  10  -3     14.39    1.73  0. 1.0000     0. 
   0  10  -3     12.83    1.41  0. 1.0000     0. 
   0 -10   3     13.02    1.40  0. 1.0000     0. 
   0 -10   3     15.70    1.33  0. 1.0000     0. 
   1  10  -3     15.50    1.50  0. 1.0000     0. 
   1  10  -3     16.49    1.83  0. 1.0000     0. 
  -1 -10   3     15.78    1.44  0. 1.0000     0. 
  -1 -10   3     15.58    1.44  0. 1.0000     0. 
   2  10  -3     18.34    1.82  0. 1.0000     0. 
   2  10  -3     12.27    1.50  0. 1.0000     0. 
  -2 -10   3     12.59    1.48  0. 1.0000     0. 
  -2 -10   3     17.75    1.38  0. 1.0000     0. 
   3  10  -3      9.67    1.24  0. 1.0000     0. 
  -3 -10   3     10.62    1.30  0. 1.0000     0. 
  -3  11  -3      0.63    1.26  0. 1.0000     0. 
  -2  11  -3     14.29    1.91  0. 1.0000     0. 
   2 -11   3     16.74    1.67  0. 1.0000     0. 
  -1  11  -3     14.56    1.97  0. 1.0000     0. 
   0   0  -4    241.60    7.65  0. 1.0000     0. 
   0   0  -4    242.85    7.70  0. 1.0000     0. 
   0   0  -4    246.32    7.67  0. 1.0000     0. 
   0   0  -4    247.39    7.67  0. 1.0000     0. 
   0   0   4    239.37    7.65  0. 1.0000     0. 
   0   0   4    244.62    7.68  0. 1.0000     0. 
   0   0   4    238.99    7.66  0. 1.0000     0. 
   0   0   4    241.14    7.69  0. 1.0000     0. 
  -1   0  -4    185.31    5.94  0. 1.0000     0. 
   1   0  -4    182.70    5.94  0. 1.0000     0. 
   1   0  -4    178.21    6.00  0. 1.0000     0. 
   1   0  -4    172.93    5.92  0. 1.0000     0. 
   0  -1  -4    193.35    5.95  0. 1.0000     0. 
   0   1  -4    192.33    5.93  0. 1.0000     0. 
   0   1  -4    189.47    5.95  0. 1.0000     0. 
   0  -1  -4    180.79    5.96  0. 1.0000     0. 
   0   1  -4    188.87    5.92  0. 1.0000     0. 
  -1   0  -4    183.71    5.94  0. 1.0000     0. 
   0   1  -4    181.56    6.00  0. 1.0000     0. 
  -1   0  -4    184.91    5.95  0. 1.0000     0. 
   0  -1  -4    190.52    5.90  0. 1.0000     0. 
  -1   0  -4    184.23    5.97  0. 1.0000     0. 
   1   0  -4    188.78    5.96  0. 1.0000     0. 
   0  -1  -4    184.72    5.95  0. 1.0000     0. 
   0  -1   4    190.56    5.96  0. 1.0000     0. 
   0  -1   4    187.77    5.95  0. 1.0000     0. 
  -1   0   4    189.79    5.96  0. 1.0000     0. 
   0  -1   4    190.09    5.95  0. 1.0000     0. 
   0  -1   4    199.68    5.94  0. 1.0000     0. 
   0   1   4    188.17    5.90  0. 1.0000     0. 
   0   1   4    192.54    5.91  0. 1.0000     0. 
   0   1   4    195.10    6.00  0. 1.0000     0. 
   0   1   4    186.00    5.97  0. 1.0000     0. 
  -1   0   4    180.26    5.94  0. 1.0000     0. 
   1   0   4    189.46    6.00  0. 1.0000     0. 
   1   0   4    183.26    5.92  0. 1.0000     0. 
  -1  -1  -4    165.43    5.10  0. 1.0000     0. 
   1   1  -4    163.08    5.11  0. 1.0000     0. 
   1   1  -4    154.95    5.08  0. 1.0000     0. 
   1  -1  -4    159.61    5.06  0. 1.0000     0. 
   1  -1  -4    160.20    5.14  0. 1.0000     0. 
   1  -1  -4    161.90    5.12  0. 1.0000     0. 
   1   1  -4    160.78    5.19  0. 1.0000     0. 
   1  -1  -4    161.97    5.15  0. 1.0000     0. 
  -1   1  -4    161.22    5.13  0. 1.0000     0. 
  -1   1  -4    156.99    5.09  0. 1.0000     0. 
   1   1  -4    164.62    5.10  0. 1.0000     0. 
  -1   1  -4    162.05    5.17  0. 1.0000     0. 
  -1  -1  -4    151.73    5.07  0. 1.0000     0. 
  -1   1  -4    151.75    5.08  0. 1.0000     0. 
  -1  -1  -4    158.01    5.12  0. 1.0000     0. 
  -1  -1  -4    161.37    5.13  0. 1.0000     0. 
   1  -1   4    158.79    5.13  0. 1.0000     0. 
  -1   1   4    146.14    5.14  0. 1.0000     0. 
  -1   1   4    166.08    5.09  0. 1.0000     0. 
  -1  -1   4    166.48    5.11  0. 1.0000     0. 
   1  -1   4    159.36    5.11  0. 1.0000     0. 
   1   1   4    158.06    5.17  0. 1.0000     0. 
  -1  -1   4    161.04    5.12  0. 1.0000     0. 
   1   1   4    162.93    5.06  0. 1.0000     0. 
  -2  -1  -4     76.01    2.58  0. 1.0000     0. 
   1  -2  -4     77.22    2.51  0. 1.0000     0. 
  -1   2  -4     80.25    2.70  0. 1.0000     0. 
   2   1  -4     77.29    2.73  0. 1.0000     0. 
   1  -2  -4     76.63    2.62  0. 1.0000     0. 
   2   1  -4     75.21    2.60  0. 1.0000     0. 
  -1   2  -4     80.11    2.55  0. 1.0000     0. 
  -1   2  -4     74.88    2.54  0. 1.0000     0. 
   2   1  -4     80.12    2.60  0. 1.0000     0. 
  -2  -1  -4     78.58    2.62  0. 1.0000     0. 
  -1   2  -4     80.30    2.64  0. 1.0000     0. 
   1  -2  -4     74.10    2.64  0. 1.0000     0. 
  -2  -1  -4     75.82    2.63  0. 1.0000     0. 
   1  -2   4     77.87    2.60  0. 1.0000     0. 
   2   1   4     76.18    2.70  0. 1.0000     0. 
   1  -2   4     83.35    2.63  0. 1.0000     0. 
  -1   2   4     78.25    2.66  0. 1.0000     0. 
  -2  -1   4     81.23    2.63  0. 1.0000     0. 
   2   0  -4    155.80    5.14  0. 1.0000     0. 
  -2   0  -4    155.51    5.17  0. 1.0000     0. 
   0   2  -4    166.46    5.11  0. 1.0000     0. 
  -2   0  -4    160.40    5.16  0. 1.0000     0. 
   0  -2  -4    155.50    5.11  0. 1.0000     0. 
   0   2  -4    162.89    5.11  0. 1.0000     0. 
   0  -2  -4    153.47    5.17  0. 1.0000     0. 
   0  -2  -4    162.52    5.07  0. 1.0000     0. 
   0   2  -4    161.74    5.26  0. 1.0000     0. 
  -2   0  -4    160.44    5.18  0. 1.0000     0. 
   2   0  -4    158.15    5.18  0. 1.0000     0. 
   0  -2  -4    155.06    5.19  0. 1.0000     0. 
   0   2  -4    149.71    5.18  0. 1.0000     0. 
   0  -2   4    163.49    5.14  0. 1.0000     0. 
   0  -2   4    172.62    5.13  0. 1.0000     0. 
   0  -2   4    164.41    5.20  0. 1.0000     0. 
   0   2   4    171.67    5.08  0. 1.0000     0. 
   2   0   4    165.03    5.23  0. 1.0000     0. 
   0   2   4    159.95    5.19  0. 1.0000     0. 
   0   2   4    156.94    5.21  0. 1.0000     0. 
   0  -2   4    167.30    5.19  0. 1.0000     0. 
   0   2   4    162.98    5.07  0. 1.0000     0. 
   1   2  -4     78.96    2.52  0. 1.0000     0. 
   1   2  -4     78.05    2.51  0. 1.0000     0. 
  -1  -2  -4     72.67    2.59  0. 1.0000     0. 
  -1  -2  -4     80.59    2.51  0. 1.0000     0. 
   2  -1  -4     80.26    2.62  0. 1.0000     0. 
  -1  -2  -4     76.26    2.59  0. 1.0000     0. 
   1   2  -4     78.36    2.70  0. 1.0000     0. 
  -2   1  -4     74.14    2.62  0. 1.0000     0. 
  -2   1  -4     77.46    2.59  0. 1.0000     0. 
   2  -1  -4     77.81    2.59  0. 1.0000     0. 
   1   2  -4     77.65    2.58  0. 1.0000     0. 
  -2   1  -4     75.49    2.56  0. 1.0000     0. 
  -1  -2   4     77.98    2.53  0. 1.0000     0. 
   1   2   4     70.77    2.65  0. 1.0000     0. 
  -2   1   4     74.00    2.61  0. 1.0000     0. 
   2  -1   4     78.60    2.57  0. 1.0000     0. 
  -1  -2   4     76.80    2.59  0. 1.0000     0. 
  -2   2  -4     37.89    1.36  0. 1.0000     0. 
  -2   2  -4     39.42    1.47  0. 1.0000     0. 
  -2   2  -4     40.12    1.50  0. 1.0000     0. 
   2   2  -4     38.15    1.37  0. 1.0000     0. 
   2   2  -4     38.32    1.58  0. 1.0000     0. 
  -2  -2  -4     39.41    1.35  0. 1.0000     0. 
   2   2  -4     35.96    1.41  0. 1.0000     0. 
  -2  -2  -4     37.58    1.45  0. 1.0000     0. 
  -2  -2  -4     37.40    1.42  0. 1.0000     0. 
   2  -2  -4     36.99    1.49  0. 1.0000     0. 
   2  -2  -4     38.95    1.44  0. 1.0000     0. 
  -2   2   4     35.79    1.47  0. 1.0000     0. 
   2  -2   4     39.13    1.44  0. 1.0000     0. 
  -2  -2   4     38.97    1.44  0. 1.0000     0. 
   2   2   4     36.16    1.54  0. 1.0000     0. 
   2  -3  -4      8.36    0.73  0. 1.0000     0. 
   2  -3  -4      8.74    0.68  0. 1.0000     0. 
  -3  -2  -4      7.15    0.64  0. 1.0000     0. 
  -2   3  -4      9.35    0.71  0. 1.0000     0. 
  -3  -2  -4      6.68    0.70  0. 1.0000     0. 
  -2   3  -4      8.67    0.53  0. 1.0000     0. 
  -2   3  -4      8.58    0.74  0. 1.0000     0. 
   2  -3   4      8.64    0.71  0. 1.0000     0. 
  -2   3   4      8.39    0.74  0. 1.0000     0. 
  -1   3  -4      8.16    0.67  0. 1.0000     0. 
   1  -3  -4      9.99    0.75  0. 1.0000     0. 
  -1   3  -4      9.94    0.80  0. 1.0000     0. 
   1  -3  -4      8.28    0.67  0. 1.0000     0. 
  -1   3  -4     10.58    0.53  0. 1.0000     0. 
  -1   3   4      9.88    0.77  0. 1.0000     0. 
   1  -3   4      9.27    0.69  0. 1.0000     0. 
   0   3  -4     27.24    0.95  0. 1.0000     0. 
   0   3  -4     28.03    1.26  0. 1.0000     0. 
   0   3  -4     26.87    1.13  0. 1.0000     0. 
   0  -3  -4     24.94    1.10  0. 1.0000     0. 
   0  -3  -4     26.05    1.12  0. 1.0000     0. 
   0   3  -4     27.86    0.95  0. 1.0000     0. 
   0  -3   4     24.79    1.12  0. 1.0000     0. 
   0   3   4     26.11    1.12  0. 1.0000     0. 
   0  -3   4     26.93    0.98  0. 1.0000     0. 
   0  -3   4     26.20    1.01  0. 1.0000     0. 
   0   3   4     26.52    1.19  0. 1.0000     0. 
   0  -3   4     25.21    1.14  0. 1.0000     0. 
  -1  -3  -4      8.42    0.66  0. 1.0000     0. 
  -1  -3  -4      9.67    0.68  0. 1.0000     0. 
   1   3  -4      9.55    0.70  0. 1.0000     0. 
   1   3  -4      9.04    0.54  0. 1.0000     0. 
   1   3  -4      9.03    0.85  0. 1.0000     0. 
   1   3   4      9.51    0.84  0. 1.0000     0. 
  -1  -3   4      9.96    0.70  0. 1.0000     0. 
  -2  -3  -4      8.94    0.66  0. 1.0000     0. 
  -2  -3  -4      8.48    0.70  0. 1.0000     0. 
   2   3  -4      9.25    0.55  0. 1.0000     0. 
   2   3  -4      8.05    0.68  0. 1.0000     0. 
   2   3  -4      8.92    0.89  0. 1.0000     0. 
   2   3   4      9.81    0.87  0. 1.0000     0. 
  -2  -3   4      8.51    0.67  0. 1.0000     0. 
   3   3  -4     -0.35    0.41  0. 1.0000     0. 
  -3  -3  -4      0.47    0.41  0. 1.0000     0. 
  -3  -3  -4      0.55    0.47  0. 1.0000     0. 
   3   3   4      0.57    0.61  0. 1.0000     0. 
   3  -3   4     -0.30    0.28  0. 1.0000     0. 
   2  -4  -4     45.03    1.74  0. 1.0000     0. 
   2  -4  -4     48.66    1.79  0. 1.0000     0. 
  -2   4  -4     45.45    1.82  0. 1.0000     0. 
  -2   4  -4     43.53    1.77  0. 1.0000     0. 
  -2   4  -4     46.69    1.56  0. 1.0000     0. 
   2  -4   4     43.83    1.74  0. 1.0000     0. 
  -2   4   4     45.34    1.78  0. 1.0000     0. 
  -1   4  -4     45.17    1.76  0. 1.0000     0. 
  -1   4  -4     46.28    1.85  0. 1.0000     0. 
   1  -4  -4     49.71    1.81  0. 1.0000     0. 
   1  -4  -4     46.41    1.74  0. 1.0000     0. 
  -1   4   4     44.30    1.76  0. 1.0000     0. 
   1  -4   4     46.18    1.75  0. 1.0000     0. 
   0  -4  -4     52.20    1.94  0. 1.0000     0. 
   0   4  -4     51.76    2.06  0. 1.0000     0. 
   0  -4  -4     57.90    1.99  0. 1.0000     0. 
   0   4  -4     52.01    1.96  0. 1.0000     0. 
   0   4   4     56.20    2.03  0. 1.0000     0. 
   0  -4   4     55.35    2.00  0. 1.0000     0. 
   0   4   4     53.60    1.96  0. 1.0000     0. 
   0  -4   4     51.13    1.95  0. 1.0000     0. 
  -1  -4  -4     51.11    1.78  0. 1.0000     0. 
  -1  -4  -4     45.58    1.77  0. 1.0000     0. 
   1   4  -4     46.04    1.78  0. 1.0000     0. 
   1   4  -4     45.83    1.93  0. 1.0000     0. 
  -1  -4   4     46.78    1.78  0. 1.0000     0. 
   1   4   4     47.48    1.87  0. 1.0000     0. 
  -2  -4  -4     45.70    1.70  0. 1.0000     0. 
   2   4  -4     43.88    1.73  0. 1.0000     0. 
   2   4  -4     45.57    1.92  0. 1.0000     0. 
  -2  -4   4     44.12    1.73  0. 1.0000     0. 
   2   4   4     45.39    1.85  0. 1.0000     0. 
   3   4  -4      5.96    0.86  0. 1.0000     0. 
  -3  -4  -4      5.69    0.76  0. 1.0000     0. 
  -3  -4  -4      6.34    0.69  0. 1.0000     0. 
   3   4  -4      6.13    0.74  0. 1.0000     0. 
   3   4   4      6.98    0.86  0. 1.0000     0. 
  -3   5  -4     16.84    1.17  0. 1.0000     0. 
  -3   5  -4     15.81    1.10  0. 1.0000     0. 
   3  -5   4     20.39    1.07  0. 1.0000     0. 
   2  -5  -4     54.17    2.11  0. 1.0000     0. 
  -2   5  -4     53.29    2.18  0. 1.0000     0. 
   2  -5  -4     52.83    2.03  0. 1.0000     0. 
  -2   5  -4     54.11    2.08  0. 1.0000     0. 
  -2   5   4     55.82    2.09  0. 1.0000     0. 
   2  -5   4     53.19    2.05  0. 1.0000     0. 
  -1   5  -4     56.02    2.19  0. 1.0000     0. 
   1  -5  -4     59.28    2.21  0. 1.0000     0. 
  -1   5  -4     59.97    2.33  0. 1.0000     0. 
   1  -5  -4     60.07    2.17  0. 1.0000     0. 
   1  -5   4     58.27    2.23  0. 1.0000     0. 
   1  -5   4     59.49    2.20  0. 1.0000     0. 
  -1   5   4     61.96    2.21  0. 1.0000     0. 
   0  -5  -4     98.82    3.35  0. 1.0000     0. 
   0  -5  -4    100.55    3.36  0. 1.0000     0. 
   0   5  -4    100.48    3.49  0. 1.0000     0. 
   0   5  -4     92.99    3.36  0. 1.0000     0. 
   0  -5   4     99.29    3.38  0. 1.0000     0. 
   0  -5   4     99.73    3.39  0. 1.0000     0. 
   0   5   4     96.44    3.42  0. 1.0000     0. 
   0   5   4    100.93    3.38  0. 1.0000     0. 
  -1  -5  -4     58.03    2.17  0. 1.0000     0. 
   1   5  -4     56.76    2.17  0. 1.0000     0. 
  -1  -5  -4     63.04    2.17  0. 1.0000     0. 
   1   5  -4     57.95    2.35  0. 1.0000     0. 
   1   5   4     61.18    2.17  0. 1.0000     0. 
  -1  -5   4     54.33    2.17  0. 1.0000     0. 
   1   5   4     59.85    2.27  0. 1.0000     0. 
   2   5  -4     52.94    2.27  0. 1.0000     0. 
  -2  -5  -4     53.68    2.05  0. 1.0000     0. 
  -2  -5  -4     56.36    2.00  0. 1.0000     0. 
   2   5  -4     52.53    2.04  0. 1.0000     0. 
   2   5   4     54.99    2.16  0. 1.0000     0. 
  -2  -5   4     52.18    2.03  0. 1.0000     0. 
  -3  -5  -4     18.22    1.15  0. 1.0000     0. 
   3   5  -4     18.99    1.14  0. 1.0000     0. 
  -3  -5  -4     19.59    1.07  0. 1.0000     0. 
   3   5  -4     20.77    1.43  0. 1.0000     0. 
  -3  -5   4     19.20    1.07  0. 1.0000     0. 
   3   5   4     18.72    1.35  0. 1.0000     0. 
  -4  -5  -4     -0.10    0.09  0. 1.0000     0. 
  -3   6  -4     16.61    1.20  0. 1.0000     0. 
  -3   6  -4     20.00    1.30  0. 1.0000     0. 
   3  -6   4     21.12    1.20  0. 1.0000     0. 
   2  -6  -4     42.84    1.77  0. 1.0000     0. 
   2  -6  -4     40.35    1.80  0. 1.0000     0. 
  -2   6  -4     41.47    1.85  0. 1.0000     0. 
  -2   6  -4     39.64    1.94  0. 1.0000     0. 
   2  -6   4     45.57    1.83  0. 1.0000     0. 
  -2   6   4     46.32    1.81  0. 1.0000     0. 
   1  -6  -4     46.87    1.92  0. 1.0000     0. 
  -1   6  -4     46.52    1.92  0. 1.0000     0. 
   1  -6  -4     47.91    1.85  0. 1.0000     0. 
  -1   6  -4     40.77    2.03  0. 1.0000     0. 
   1  -6   4     47.55    1.95  0. 1.0000     0. 
  -1   6   4     49.78    1.99  0. 1.0000     0. 
  -1   6   4     50.19    1.91  0. 1.0000     0. 
   1  -6   4     46.38    1.90  0. 1.0000     0. 
   0   6  -4     68.98    2.70  0. 1.0000     0. 
   0   6  -4     67.94    2.53  0. 1.0000     0. 
   0  -6  -4     67.48    2.49  0. 1.0000     0. 
   0  -6  -4     66.70    2.47  0. 1.0000     0. 
   0   6   4     69.18    2.60  0. 1.0000     0. 
   0  -6   4     68.77    2.53  0. 1.0000     0. 
   0   6   4     72.92    2.56  0. 1.0000     0. 
   0  -6   4     68.38    2.55  0. 1.0000     0. 
  -1  -6  -4     46.71    1.88  0. 1.0000     0. 
   1   6  -4     48.25    2.16  0. 1.0000     0. 
  -1  -6  -4     47.36    1.93  0. 1.0000     0. 
   1   6  -4     48.84    1.97  0. 1.0000     0. 
  -1  -6   4     49.19    1.97  0. 1.0000     0. 
   1   6   4     49.12    1.94  0. 1.0000     0. 
  -1  -6   4     50.76    2.00  0. 1.0000     0. 
   1   6   4     49.93    2.05  0. 1.0000     0. 
   2   6  -4     44.65    1.89  0. 1.0000     0. 
   2   6  -4     41.84    2.09  0. 1.0000     0. 
  -2  -6  -4     43.87    1.84  0. 1.0000     0. 
  -2  -6  -4     45.27    1.78  0. 1.0000     0. 
  -2  -6   4     48.20    1.87  0. 1.0000     0. 
   2   6   4     44.89    2.00  0. 1.0000     0. 
   3   6  -4     23.13    1.59  0. 1.0000     0. 
   3   6  -4     19.74    1.26  0. 1.0000     0. 
  -3  -6  -4     20.53    1.27  0. 1.0000     0. 
  -3  -6  -4     21.53    1.16  0. 1.0000     0. 
   3   6   4     21.13    1.49  0. 1.0000     0. 
  -3  -6   4     21.13    1.21  0. 1.0000     0. 
  -3   7  -4     18.10    1.57  0. 1.0000     0. 
   3  -7   4     19.11    1.23  0. 1.0000     0. 
   2  -7  -4     46.67    2.03  0. 1.0000     0. 
  -2   7  -4     42.21    2.11  0. 1.0000     0. 
  -2   7  -4     47.17    2.05  0. 1.0000     0. 
   2  -7  -4     48.44    1.96  0. 1.0000     0. 
   2  -7   4     48.18    2.00  0. 1.0000     0. 
   1  -7  -4     43.24    1.90  0. 1.0000     0. 
  -1   7  -4     42.85    2.12  0. 1.0000     0. 
  -1   7  -4     44.17    1.97  0. 1.0000     0. 
   1  -7  -4     46.62    1.90  0. 1.0000     0. 
  -1   7   4     45.58    1.95  0. 1.0000     0. 
   1  -7   4     45.65    1.90  0. 1.0000     0. 
  -1   7   4     45.90    2.01  0. 1.0000     0. 
   1  -7   4     46.33    2.02  0. 1.0000     0. 
   0  -7  -4     53.22    2.15  0. 1.0000     0. 
   0   7  -4     52.45    2.22  0. 1.0000     0. 
   0   7  -4     53.02    2.40  0. 1.0000     0. 
   0  -7  -4     53.11    2.14  0. 1.0000     0. 
   0  -7   4     56.92    2.22  0. 1.0000     0. 
   0  -7   4     55.55    2.25  0. 1.0000     0. 
   0   7   4     55.59    2.21  0. 1.0000     0. 
   0   7   4     55.47    2.26  0. 1.0000     0. 
  -1  -7  -4     45.00    1.90  0. 1.0000     0. 
  -1  -7  -4     44.51    1.88  0. 1.0000     0. 
   1   7  -4     44.84    2.02  0. 1.0000     0. 
   1   7  -4     42.54    2.20  0. 1.0000     0. 
  -1  -7   4     48.79    2.02  0. 1.0000     0. 
   1   7   4     45.39    1.94  0. 1.0000     0. 
  -1  -7   4     46.30    2.02  0. 1.0000     0. 
   1   7   4     46.28    2.10  0. 1.0000     0. 
   2   7  -4     43.74    1.94  0. 1.0000     0. 
  -2  -7  -4     45.28    1.86  0. 1.0000     0. 
  -2  -7  -4     46.53    1.93  0. 1.0000     0. 
   2   7  -4     45.72    2.22  0. 1.0000     0. 
   2   7   4     46.34    2.12  0. 1.0000     0. 
  -2  -7   4     41.55    1.93  0. 1.0000     0. 
  -3  -7  -4     19.74    1.21  0. 1.0000     0. 
   3   7  -4     19.24    1.40  0. 1.0000     0. 
  -3  -7  -4     19.60    1.38  0. 1.0000     0. 
   3   7  -4     18.71    1.63  0. 1.0000     0. 
   3   7   4     21.43    1.55  0. 1.0000     0. 
  -3  -7   4     20.30    1.28  0. 1.0000     0. 
  -3   8  -4      2.44    1.05  0. 1.0000     0. 
   3  -8   4     -1.03    0.61  0. 1.0000     0. 
  -2   8  -4      2.08    1.05  0. 1.0000     0. 
  -2   8  -4      2.17    0.83  0. 1.0000     0. 
   2  -8  -4      3.40    0.93  0. 1.0000     0. 
   2  -8  -4      1.57    0.70  0. 1.0000     0. 
  -2   8   4      0.34    0.62  0. 1.0000     0. 
   2  -8   4      1.82    0.97  0. 1.0000     0. 
  -2   8   4      2.19    1.01  0. 1.0000     0. 
   2  -8   4      2.27    0.82  0. 1.0000     0. 
   1  -8  -4      1.87    0.79  0. 1.0000     0. 
  -1   8  -4      2.54    1.08  0. 1.0000     0. 
  -1   8  -4      2.16    0.82  0. 1.0000     0. 
   1  -8  -4      2.18    0.83  0. 1.0000     0. 
  -1   8   4      2.30    0.98  0. 1.0000     0. 
   1  -8   4      1.96    0.76  0. 1.0000     0. 
  -1   8   4      2.15    0.81  0. 1.0000     0. 
   1  -8   4      1.93    0.92  0. 1.0000     0. 
   0  -8  -4      2.09    0.80  0. 1.0000     0. 
   0  -8  -4      3.46    0.85  0. 1.0000     0. 
   0   8  -4      4.74    1.13  0. 1.0000     0. 
   0   8  -4      3.47    0.86  0. 1.0000     0. 
   0   8   4      3.40    0.85  0. 1.0000     0. 
   0  -8   4      3.56    0.84  0. 1.0000     0. 
   0   8   4      2.27    1.00  0. 1.0000     0. 
   0  -8   4      1.83    0.90  0. 1.0000     0. 
   1   8  -4      2.54    0.85  0. 1.0000     0. 
   1   8  -4      1.87    1.14  0. 1.0000     0. 
  -1  -8  -4      1.76    0.81  0. 1.0000     0. 
  -1  -8  -4      2.53    0.79  0. 1.0000     0. 
   1   8   4      2.21    1.07  0. 1.0000     0. 
   1   8   4      1.76    0.83  0. 1.0000     0. 
  -1  -8   4      1.66    0.86  0. 1.0000     0. 
  -1  -8   4      1.76    0.88  0. 1.0000     0. 
   2   8  -4      2.33    0.89  0. 1.0000     0. 
  -2  -8  -4      2.45    0.76  0. 1.0000     0. 
  -2  -8  -4      2.16    0.85  0. 1.0000     0. 
   2   8  -4      1.11    1.15  0. 1.0000     0. 
   2   8   4      2.27    0.86  0. 1.0000     0. 
   2   8   4      1.11    1.03  0. 1.0000     0. 
  -2  -8   4      2.54    0.85  0. 1.0000     0. 
  -2  -8   4      1.72    0.90  0. 1.0000     0. 
  -3  -8  -4      0.11    0.78  0. 1.0000     0. 
   3   8  -4      0.84    0.90  0. 1.0000     0. 
   3   8  -4     -0.26    1.14  0. 1.0000     0. 
  -3  -8  -4      0.94    0.94  0. 1.0000     0. 
   3   8   4      1.68    1.05  0. 1.0000     0. 
  -3  -8   4      0.39    0.81  0. 1.0000     0. 
  -4  -8  -4      0.09    0.15  0. 1.0000     0. 
   4   8  -4      0.38    0.37  0. 1.0000     0. 
  -4  -8  -4      1.31    0.90  0. 1.0000     0. 
  -2   9  -4     14.54    1.76  0. 1.0000     0. 
  -2   9  -4     14.80    1.40  0. 1.0000     0. 
   2  -9  -4     13.95    1.51  0. 1.0000     0. 
   2  -9   4     17.68    1.38  0. 1.0000     0. 
   2  -9   4     15.32    1.55  0. 1.0000     0. 
  -2   9   4     16.64    1.58  0. 1.0000     0. 
   1  -9  -4     18.75    1.40  0. 1.0000     0. 
   1  -9  -4     16.06    1.40  0. 1.0000     0. 
  -1   9  -4     16.39    1.45  0. 1.0000     0. 
  -1   9  -4     17.11    1.77  0. 1.0000     0. 
  -1   9   4     16.78    1.36  0. 1.0000     0. 
   1  -9   4     16.42    1.40  0. 1.0000     0. 
  -1   9   4     16.76    1.57  0. 1.0000     0. 
   1  -9   4     16.38    1.54  0. 1.0000     0. 
   0  -9  -4     21.02    1.41  0. 1.0000     0. 
   0  -9  -4     20.52    1.42  0. 1.0000     0. 
   0   9  -4     20.48    1.53  0. 1.0000     0. 
   0   9  -4     21.34    1.83  0. 1.0000     0. 
   0  -9   4     22.01    1.52  0. 1.0000     0. 
   0   9   4     19.05    1.62  0. 1.0000     0. 
   0  -9   4     19.24    1.56  0. 1.0000     0. 
   0   9   4     18.23    1.46  0. 1.0000     0. 
   1   9  -4     14.71    1.76  0. 1.0000     0. 
   1   9  -4     16.17    1.47  0. 1.0000     0. 
  -1  -9  -4     15.71    1.29  0. 1.0000     0. 
  -1  -9  -4     15.85    1.40  0. 1.0000     0. 
  -1  -9   4     14.73    1.46  0. 1.0000     0. 
   1   9   4     17.36    1.66  0. 1.0000     0. 
  -1  -9   4     17.37    1.42  0. 1.0000     0. 
   1   9   4     16.82    1.41  0. 1.0000     0. 
  -2  -9  -4     17.58    1.45  0. 1.0000     0. 
  -2  -9  -4     16.11    1.39  0. 1.0000     0. 
   2   9  -4     17.69    1.81  0. 1.0000     0. 
   2   9  -4     15.74    1.56  0. 1.0000     0. 
  -2  -9   4     16.88    1.55  0. 1.0000     0. 
  -2  -9   4     16.99    1.38  0. 1.0000     0. 
   2   9   4     17.60    1.44  0. 1.0000     0. 
   2   9   4     13.60    1.57  0. 1.0000     0. 
  -3  -9  -4      7.84    1.11  0. 1.0000     0. 
   3   9  -4      8.37    1.46  0. 1.0000     0. 
   3   9  -4      8.62    1.13  0. 1.0000     0. 
   3   9   4      8.32    1.10  0. 1.0000     0. 
  -3  -9   4      9.34    1.21  0. 1.0000     0. 
  -4  -9  -4      7.33    1.13  0. 1.0000     0. 
  -3  10  -4      4.02    1.37  0. 1.0000     0. 
   3 -10   4      8.74    1.33  0. 1.0000     0. 
  -2  10  -4     14.86    1.91  0. 1.0000     0. 
  -2  10  -4     17.34    1.52  0. 1.0000     0. 
   2 -10   4     17.15    1.67  0. 1.0000     0. 
   2 -10   4     13.27    1.42  0. 1.0000     0. 
  -1  10  -4     15.13    1.95  0. 1.0000     0. 
  -1  10  -4     12.48    1.66  0. 1.0000     0. 
   1 -10   4     13.50    1.53  0. 1.0000     0. 
   1 -10   4     17.19    1.66  0. 1.0000     0. 
   0  10  -4     12.05    1.55  0. 1.0000     0. 
   0  10  -4      9.91    1.59  0. 1.0000     0. 
   0 -10   4     16.12    1.57  0. 1.0000     0. 
   0 -10   4     14.78    1.48  0. 1.0000     0. 
   1  10  -4     16.82    1.99  0. 1.0000     0. 
   1  10  -4     15.89    1.63  0. 1.0000     0. 
  -1 -10   4     17.41    1.64  0. 1.0000     0. 
  -1 -10   4     15.29    1.58  0. 1.0000     0. 
   2  10  -4     14.14    1.90  0. 1.0000     0. 
   2  10  -4     13.42    1.62  0. 1.0000     0. 
  -2 -10   4     13.14    1.61  0. 1.0000     0. 
  -2 -10   4     14.33    1.47  0. 1.0000     0. 
   3  10  -4      7.60    1.25  0. 1.0000     0. 
   3  10  -4      6.49    1.48  0. 1.0000     0. 
  -3 -10   4      8.27    1.24  0. 1.0000     0. 
   4  10  -4     29.85    1.00  0. 1.0000     0. 
  -3  11  -4      0.12    1.36  0. 1.0000     0. 
  -2  11  -4     17.76    1.66  0. 1.0000     0. 
  -2  11  -4     15.38    2.09  0. 1.0000     0. 
   2 -11   4     18.93    1.56  0. 1.0000     0. 
   2 -11   4     19.28    1.85  0. 1.0000     0. 
  -1  11  -4     16.59    2.02  0. 1.0000     0. 
  -1  11  -4     15.93    1.70  0. 1.0000     0. 
   1 -11   4     19.40    1.68  0. 1.0000     0. 
   1 -11   4     18.08    1.76  0. 1.0000     0. 
   0  11  -4     16.28    2.01  0. 1.0000     0. 
   0  11  -4     13.88    1.61  0. 1.0000     0. 
   0 -11   4     13.34    1.55  0. 1.0000     0. 
   0 -11   4     18.15    1.65  0. 1.0000     0. 
   1  11  -4     20.31    1.76  0. 1.0000     0. 
   1  11  -4     16.94    2.10  0. 1.0000     0. 
  -1 -11   4     18.73    1.73  0. 1.0000     0. 
  -1 -11   4     19.21    1.67  0. 1.0000     0. 
   2  11  -4     16.07    1.74  0. 1.0000     0. 
   2  11  -4     17.34    2.09  0. 1.0000     0. 
  -2 -11   4     19.34    1.60  0. 1.0000     0. 
  -2 -11   4     14.44    1.70  0. 1.0000     0. 
   3  11  -4     10.13    1.40  0. 1.0000     0. 
  -3 -11   4     11.51    1.37  0. 1.0000     0. 
   4  11  -4     60.53    1.92  0. 1.0000     0. 
   0   0  -5      2.45    0.40  0. 1.0000     0. 
   0   0  -5      2.91    0.48  0. 1.0000     0. 
   0   0  -5      3.06    0.54  0. 1.0000     0. 
   0   0  -5      2.55    0.41  0. 1.0000     0. 
   0   0   5      2.65    0.43  0. 1.0000     0. 
   0   0   5      2.54    0.56  0. 1.0000     0. 
   0   0   5      2.20    0.44  0. 1.0000     0. 
   0   0   5      2.66    0.45  0. 1.0000     0. 
   0  -1  -5      1.78    0.48  0. 1.0000     0. 
   1   0  -5      3.02    0.42  0. 1.0000     0. 
   0   1  -5      2.07    0.44  0. 1.0000     0. 
   1   0  -5      2.39    0.55  0. 1.0000     0. 
   0  -1  -5      2.16    0.44  0. 1.0000     0. 
  -1   0  -5      2.84    0.46  0. 1.0000     0. 
  -1   0  -5      2.22    0.44  0. 1.0000     0. 
   0   1  -5      3.16    0.41  0. 1.0000     0. 
   0  -1  -5      2.08    0.36  0. 1.0000     0. 
   0   1  -5      2.65    0.45  0. 1.0000     0. 
  -1   0  -5      2.57    0.38  0. 1.0000     0. 
  -1   0  -5      2.94    0.53  0. 1.0000     0. 
   1   0  -5      2.83    0.49  0. 1.0000     0. 
   1   0  -5      2.62    0.41  0. 1.0000     0. 
   0   1  -5      3.03    0.61  0. 1.0000     0. 
   0  -1  -5      2.50    0.49  0. 1.0000     0. 
   1   0   5      2.52    0.38  0. 1.0000     0. 
   0  -1   5      3.36    0.49  0. 1.0000     0. 
   0  -1   5      2.27    0.53  0. 1.0000     0. 
   1   0   5      2.80    0.48  0. 1.0000     0. 
   1   0   5      2.68    0.59  0. 1.0000     0. 
  -1   0   5      2.31    0.41  0. 1.0000     0. 
   0   1   5      2.57    0.38  0. 1.0000     0. 
   0  -1   5      2.95    0.45  0. 1.0000     0. 
   0   1   5      2.26    0.46  0. 1.0000     0. 
   0   1   5      2.43    0.57  0. 1.0000     0. 
   0   1   5      2.58    0.39  0. 1.0000     0. 
  -1   0   5      3.10    0.46  0. 1.0000     0. 
   0  -1   5      2.09    0.47  0. 1.0000     0. 
  -1   1  -5     12.91    0.90  0. 1.0000     0. 
  -1   1  -5     12.15    0.74  0. 1.0000     0. 
  -1   1  -5     12.05    0.69  0. 1.0000     0. 
  -1  -1  -5     12.60    0.78  0. 1.0000     0. 
   1  -1  -5     12.55    0.77  0. 1.0000     0. 
  -1  -1  -5     12.39    0.77  0. 1.0000     0. 
  -1   1  -5     11.39    0.72  0. 1.0000     0. 
   1  -1  -5     13.00    0.69  0. 1.0000     0. 
   1  -1  -5     13.37    0.84  0. 1.0000     0. 
  -1  -1  -5     12.18    0.65  0. 1.0000     0. 
   1   1  -5     11.70    0.68  0. 1.0000     0. 
   1  -1  -5     12.23    0.81  0. 1.0000     0. 
  -1  -1  -5     13.00    0.81  0. 1.0000     0. 
   1   1  -5     13.26    0.92  0. 1.0000     0. 
   1   1  -5     13.11    0.76  0. 1.0000     0. 
   1   1  -5     12.27    0.77  0. 1.0000     0. 
  -1  -1   5     12.75    0.74  0. 1.0000     0. 
  -1   1   5     13.01    0.65  0. 1.0000     0. 
   1  -1   5     12.02    0.81  0. 1.0000     0. 
   1   1   5     13.03    0.94  0. 1.0000     0. 
   1  -1   5     13.29    0.83  0. 1.0000     0. 
   1   1   5     12.35    0.69  0. 1.0000     0. 
  -1  -1   5     11.48    0.72  0. 1.0000     0. 
   1   1   5     12.17    0.65  0. 1.0000     0. 
  -1   1   5     11.33    0.81  0. 1.0000     0. 
   1  -1   5     12.62    0.75  0. 1.0000     0. 
   2   1  -5      1.83    0.65  0. 1.0000     0. 
  -1   2  -5      2.50    0.38  0. 1.0000     0. 
   1  -2  -5      1.98    0.48  0. 1.0000     0. 
  -2  -1  -5      2.33    0.47  0. 1.0000     0. 
  -1   2  -5      2.21    0.48  0. 1.0000     0. 
   1  -2  -5      2.90    0.36  0. 1.0000     0. 
  -1   2  -5      2.81    0.63  0. 1.0000     0. 
  -1   2  -5      2.43    0.42  0. 1.0000     0. 
  -2  -1  -5      2.72    0.45  0. 1.0000     0. 
   2   1  -5      2.37    0.49  0. 1.0000     0. 
   2   1  -5      2.07    0.43  0. 1.0000     0. 
   1  -2  -5      1.49    0.54  0. 1.0000     0. 
  -2  -1  -5      2.15    0.49  0. 1.0000     0. 
   1  -2   5      1.69    0.47  0. 1.0000     0. 
   1  -2   5      2.49    0.50  0. 1.0000     0. 
   1  -2   5      2.14    0.58  0. 1.0000     0. 
  -2  -1   5      2.16    0.44  0. 1.0000     0. 
  -1   2   5      2.44    0.54  0. 1.0000     0. 
   2   1   5      2.36    0.63  0. 1.0000     0. 
   0  -2  -5      0.34    0.40  0. 1.0000     0. 
  -2   0  -5     -0.25    0.41  0. 1.0000     0. 
   0   2  -5      0.20    0.62  0. 1.0000     0. 
   2   0  -5      0.37    0.35  0. 1.0000     0. 
   0  -2  -5      0.97    0.44  0. 1.0000     0. 
  -2   0  -5      0.65    0.40  0. 1.0000     0. 
   0  -2  -5      0.00    0.29  0. 1.0000     0. 
   2   0  -5      0.23    0.27  0. 1.0000     0. 
   2   0  -5      0.20    0.48  0. 1.0000     0. 
  -2   0  -5     -0.33    0.46  0. 1.0000     0. 
  -2   0  -5     -0.24    0.36  0. 1.0000     0. 
   0   2  -5      0.73    0.39  0. 1.0000     0. 
   2   0  -5      0.43    0.39  0. 1.0000     0. 
   0  -2  -5      0.59    0.48  0. 1.0000     0. 
   0   2   5      0.25    0.30  0. 1.0000     0. 
   0   2   5      1.33    0.58  0. 1.0000     0. 
   0  -2   5      0.71    0.48  0. 1.0000     0. 
   0   2   5      1.22    0.45  0. 1.0000     0. 
   2   0   5      0.26    0.54  0. 1.0000     0. 
  -2   0   5      0.07    0.40  0. 1.0000     0. 
   2   0   5      0.39    0.34  0. 1.0000     0. 
   0   2   5      0.32    0.29  0. 1.0000     0. 
   1   2  -5      2.12    0.36  0. 1.0000     0. 
  -2   1  -5      2.13    0.44  0. 1.0000     0. 
  -2   1  -5      2.24    0.44  0. 1.0000     0. 
   1   2  -5      2.72    0.67  0. 1.0000     0. 
  -1  -2  -5      3.09    0.39  0. 1.0000     0. 
  -1  -2  -5      1.82    0.48  0. 1.0000     0. 
  -2   1  -5      2.06    0.54  0. 1.0000     0. 
   1   2  -5      2.09    0.48  0. 1.0000     0. 
   2  -1  -5      1.90    0.52  0. 1.0000     0. 
  -2   1  -5      2.00    0.40  0. 1.0000     0. 
  -1  -2  -5      2.44    0.46  0. 1.0000     0. 
   2  -1  -5      2.48    0.45  0. 1.0000     0. 
  -1  -2  -5      1.76    0.49  0. 1.0000     0. 
   1   2  -5      1.75    0.44  0. 1.0000     0. 
   2  -1  -5      1.71    0.37  0. 1.0000     0. 
   1   2   5      2.74    0.65  0. 1.0000     0. 
   2  -1   5      2.28    0.45  0. 1.0000     0. 
   1   2   5      2.07    0.30  0. 1.0000     0. 
   1   2   5      2.85    0.38  0. 1.0000     0. 
  -1  -2   5      2.58    0.40  0. 1.0000     0. 
  -2   1   5      2.19    0.49  0. 1.0000     0. 
   2  -1   5      2.45    0.59  0. 1.0000     0. 
  -1  -2   5      2.68    0.50  0. 1.0000     0. 
  -2  -2  -5     -0.17    0.41  0. 1.0000     0. 
   2   2  -5     -0.01    0.44  0. 1.0000     0. 
   2  -2  -5     -0.37    0.51  0. 1.0000     0. 
   2   2  -5      0.32    0.43  0. 1.0000     0. 
  -2  -2  -5      0.71    0.49  0. 1.0000     0. 
  -2   2  -5      0.53    0.44  0. 1.0000     0. 
  -2   2  -5      0.41    0.59  0. 1.0000     0. 
   2  -2  -5      0.14    0.46  0. 1.0000     0. 
   2  -2  -5      0.45    0.33  0. 1.0000     0. 
  -2   2  -5      0.57    0.40  0. 1.0000     0. 
  -2  -2  -5      0.31    0.40  0. 1.0000     0. 
   2   2  -5      0.62    0.68  0. 1.0000     0. 
   2   2   5      1.22    0.63  0. 1.0000     0. 
   2  -2   5      0.37    0.45  0. 1.0000     0. 
  -2   2   5      0.63    0.47  0. 1.0000     0. 
  -2  -2   5     -0.11    0.42  0. 1.0000     0. 
   2  -3  -5     10.90    1.05  0. 1.0000     0. 
  -3  -2  -5     11.08    0.81  0. 1.0000     0. 
  -3  -2  -5     12.63    0.91  0. 1.0000     0. 
  -2   3  -5     11.92    1.05  0. 1.0000     0. 
  -2   3  -5     12.77    0.73  0. 1.0000     0. 
  -2   3  -5     12.69    0.89  0. 1.0000     0. 
   2  -3  -5     11.93    0.64  0. 1.0000     0. 
   2  -3  -5     11.45    0.86  0. 1.0000     0. 
   3   2   5     13.04    1.11  0. 1.0000     0. 
   2  -3   5     11.29    0.85  0. 1.0000     0. 
  -2   3   5     10.47    0.92  0. 1.0000     0. 
  -1   3  -5     21.37    0.87  0. 1.0000     0. 
  -1   3  -5     19.90    1.06  0. 1.0000     0. 
  -3  -1  -5     20.81    1.03  0. 1.0000     0. 
  -1   3  -5     20.28    0.85  0. 1.0000     0. 
  -1   3  -5     19.08    1.20  0. 1.0000     0. 
   1  -3  -5     19.04    1.03  0. 1.0000     0. 
  -3  -1  -5     19.06    1.07  0. 1.0000     0. 
   1  -3  -5     19.83    1.12  0. 1.0000     0. 
   1  -3   5     20.43    0.94  0. 1.0000     0. 
   3   1   5     18.02    1.14  0. 1.0000     0. 
   1  -3   5     21.12    1.13  0. 1.0000     0. 
   1  -3   5     19.04    1.03  0. 1.0000     0. 
   0   3  -5      6.57    0.52  0. 1.0000     0. 
   0   3  -5      6.07    0.75  0. 1.0000     0. 
  -3   0  -5      5.57    0.71  0. 1.0000     0. 
   0  -3  -5      6.15    0.71  0. 1.0000     0. 
   0  -3  -5      6.47    0.73  0. 1.0000     0. 
   0   3  -5      6.00    0.54  0. 1.0000     0. 
   0   3  -5      6.95    0.95  0. 1.0000     0. 
   0  -3   5      5.95    0.59  0. 1.0000     0. 
   0   3   5      5.87    0.74  0. 1.0000     0. 
   0   3   5      6.16    0.74  0. 1.0000     0. 
   0  -3   5      4.80    0.65  0. 1.0000     0. 
   0  -3   5      6.10    0.78  0. 1.0000     0. 
   0  -3   5      6.44    0.78  0. 1.0000     0. 
   1   3  -5     19.97    1.06  0. 1.0000     0. 
  -1  -3  -5     19.08    1.02  0. 1.0000     0. 
  -1  -3  -5     18.02    1.03  0. 1.0000     0. 
   1   3  -5     20.88    0.90  0. 1.0000     0. 
   1   3  -5     18.61    1.23  0. 1.0000     0. 
  -1  -3   5     21.00    0.93  0. 1.0000     0. 
  -1  -3   5     20.62    1.04  0. 1.0000     0. 
   1   3   5     17.85    1.20  0. 1.0000     0. 
  -2  -3  -5     10.07    0.81  0. 1.0000     0. 
   2   3  -5     12.50    1.14  0. 1.0000     0. 
  -3   2  -5     10.17    0.92  0. 1.0000     0. 
   2   3  -5     10.36    0.88  0. 1.0000     0. 
  -2  -3  -5     11.13    0.88  0. 1.0000     0. 
   2   3  -5     12.78    0.73  0. 1.0000     0. 
  -2  -3   5     11.84    0.86  0. 1.0000     0. 
   2   3   5     10.79    1.06  0. 1.0000     0. 
  -3  -3  -5     35.27    1.52  0. 1.0000     0. 
  -3  -3  -5     35.75    1.46  0. 1.0000     0. 
  -3   3  -5     35.68    1.57  0. 1.0000     0. 
   3   3  -5     35.46    1.47  0. 1.0000     0. 
   3   3   5     33.29    1.68  0. 1.0000     0. 
   3  -3   5     32.07    1.44  0. 1.0000     0. 
  -3   4  -5      9.99    0.98  0. 1.0000     0. 
  -3   4  -5     11.14    1.03  0. 1.0000     0. 
   3  -4   5      8.72    0.93  0. 1.0000     0. 
   2  -4  -5      0.14    0.55  0. 1.0000     0. 
   2  -4  -5      0.14    0.68  0. 1.0000     0. 
  -2   4  -5      0.46    0.54  0. 1.0000     0. 
  -2   4  -5      0.36    0.73  0. 1.0000     0. 
  -2   4   5      0.35    0.57  0. 1.0000     0. 
   2  -4   5      0.02    0.54  0. 1.0000     0. 
  -1   4  -5      0.11    0.72  0. 1.0000     0. 
   1  -4  -5      0.40    0.53  0. 1.0000     0. 
   1  -4  -5      0.11    0.61  0. 1.0000     0. 
  -1   4  -5     -0.01    0.53  0. 1.0000     0. 
   1  -4   5      0.67    0.52  0. 1.0000     0. 
   1  -4   5      0.11    0.63  0. 1.0000     0. 
  -1   4   5      0.64    0.59  0. 1.0000     0. 
   0  -4  -5      2.00    0.58  0. 1.0000     0. 
   0   4  -5      1.07    0.79  0. 1.0000     0. 
   0  -4  -5      2.10    0.67  0. 1.0000     0. 
   0   4  -5      0.29    0.55  0. 1.0000     0. 
   0  -4   5      0.94    0.56  0. 1.0000     0. 
   0   4   5      0.01    0.77  0. 1.0000     0. 
   0   4   5      1.26    0.66  0. 1.0000     0. 
   0  -4   5      0.28    0.61  0. 1.0000     0. 
  -1  -4  -5      0.87    0.57  0. 1.0000     0. 
   1   4  -5      0.14    0.52  0. 1.0000     0. 
   1   4  -5      1.17    0.78  0. 1.0000     0. 
  -1  -4  -5     -0.44    0.55  0. 1.0000     0. 
   1   4   5      0.33    0.57  0. 1.0000     0. 
   1   4   5     -0.24    0.73  0. 1.0000     0. 
  -1  -4   5      0.09    0.55  0. 1.0000     0. 
   2   4  -5      0.52    0.79  0. 1.0000     0. 
  -2  -4  -5      0.72    0.60  0. 1.0000     0. 
   2   4  -5      0.37    0.56  0. 1.0000     0. 
  -2  -4  -5      0.63    0.54  0. 1.0000     0. 
   2   4   5      0.01    0.75  0. 1.0000     0. 
  -2  -4   5      0.16    0.56  0. 1.0000     0. 
  -3  -4  -5     10.43    0.90  0. 1.0000     0. 
  -3  -4  -5     10.06    0.99  0. 1.0000     0. 
   3   4  -5     10.89    1.25  0. 1.0000     0. 
   3   4  -5     11.11    0.95  0. 1.0000     0. 
   3   4   5     10.41    1.19  0. 1.0000     0. 
  -3  -4   5      8.78    0.86  0. 1.0000     0. 
  -4  -4  -5     -0.16    0.12  0. 1.0000     0. 
  -3   5  -5      3.25    0.83  0. 1.0000     0. 
  -3   5  -5      2.58    0.68  0. 1.0000     0. 
   3  -5   5      2.01    0.66  0. 1.0000     0. 
  -2   5  -5     -0.27    0.76  0. 1.0000     0. 
  -2   5  -5     -0.57    0.59  0. 1.0000     0. 
   2  -5  -5     -0.74    0.62  0. 1.0000     0. 
   2  -5  -5     -0.14    0.71  0. 1.0000     0. 
   2  -5   5      0.77    0.60  0. 1.0000     0. 
  -2   5   5      0.71    0.67  0. 1.0000     0. 
  -1   5  -5      1.83    0.82  0. 1.0000     0. 
   1  -5  -5      1.18    0.62  0. 1.0000     0. 
  -1   5  -5      1.13    0.63  0. 1.0000     0. 
   1  -5  -5      0.70    0.69  0. 1.0000     0. 
  -1   5   5      0.71    0.65  0. 1.0000     0. 
   1  -5   5      0.77    0.61  0. 1.0000     0. 
   1  -5   5      1.10    0.69  0. 1.0000     0. 
  -1   5   5      0.22    0.78  0. 1.0000     0. 
   0  -5  -5      3.07    0.66  0. 1.0000     0. 
   0   5  -5      3.36    0.89  0. 1.0000     0. 
   0  -5  -5      4.43    0.72  0. 1.0000     0. 
   0   5  -5      4.37    0.68  0. 1.0000     0. 
   0   5   5      3.95    0.85  0. 1.0000     0. 
   0  -5   5      2.84    0.66  0. 1.0000     0. 
   0   5   5      3.91    0.76  0. 1.0000     0. 
   0  -5   5      2.30    0.69  0. 1.0000     0. 
   1   5  -5      1.60    0.86  0. 1.0000     0. 
   1   5  -5      0.96    0.61  0. 1.0000     0. 
  -1  -5  -5      0.40    0.61  0. 1.0000     0. 
  -1  -5  -5      0.54    0.61  0. 1.0000     0. 
   1   5   5      1.48    0.67  0. 1.0000     0. 
  -1  -5   5      0.65    0.64  0. 1.0000     0. 
  -1  -5   5      0.76    0.63  0. 1.0000     0. 
   1   5   5      0.04    0.81  0. 1.0000     0. 
  -2  -5  -5      0.03    0.65  0. 1.0000     0. 
   2   5  -5      0.05    0.63  0. 1.0000     0. 
  -2  -5  -5      0.99    0.61  0. 1.0000     0. 
   2   5  -5     -0.20    0.87  0. 1.0000     0. 
  -2  -5   5      0.42    0.64  0. 1.0000     0. 
   2   5   5     -0.39    0.82  0. 1.0000     0. 
  -3  -5  -5      2.19    0.64  0. 1.0000     0. 
   3   5  -5      2.34    0.72  0. 1.0000     0. 
  -3  -5  -5      1.82    0.71  0. 1.0000     0. 
   3   5  -5      2.38    0.96  0. 1.0000     0. 
  -3  -5   5      2.04    0.65  0. 1.0000     0. 
   3   5   5      2.82    0.95  0. 1.0000     0. 
  -4  -5  -5     -0.49    0.20  0. 1.0000     0. 
  -3   6  -5      1.04    0.71  0. 1.0000     0. 
  -3   6  -5      1.74    0.93  0. 1.0000     0. 
   3  -6   5      2.05    0.72  0. 1.0000     0. 
  -2   6  -5      1.10    0.93  0. 1.0000     0. 
  -2   6  -5      0.14    0.72  0. 1.0000     0. 
   2  -6  -5      0.59    0.81  0. 1.0000     0. 
   2  -6  -5      0.23    0.72  0. 1.0000     0. 
  -2   6   5      0.17    0.74  0. 1.0000     0. 
   2  -6   5      1.05    0.69  0. 1.0000     0. 
   1  -6  -5      1.03    0.75  0. 1.0000     0. 
  -1   6  -5     -0.16    0.70  0. 1.0000     0. 
  -1   6  -5      0.60    0.92  0. 1.0000     0. 
   1  -6  -5      0.40    0.66  0. 1.0000     0. 
   1  -6   5      0.57    0.68  0. 1.0000     0. 
  -1   6   5      0.61    0.86  0. 1.0000     0. 
  -1   6   5      1.39    0.73  0. 1.0000     0. 
   1  -6   5      0.52    0.79  0. 1.0000     0. 
   0   6  -5      1.73    0.72  0. 1.0000     0. 
   0  -6  -5      2.70    0.76  0. 1.0000     0. 
   0   6  -5      2.72    0.98  0. 1.0000     0. 
   0  -6  -5      0.56    0.66  0. 1.0000     0. 
   0  -6   5      1.33    0.70  0. 1.0000     0. 
   0   6   5      1.48    0.91  0. 1.0000     0. 
   0  -6   5      2.21    0.78  0. 1.0000     0. 
   0   6   5      1.17    0.77  0. 1.0000     0. 
  -1  -6  -5     -1.07    0.68  0. 1.0000     0. 
  -1  -6  -5      0.87    0.67  0. 1.0000     0. 
   1   6  -5      0.70    0.74  0. 1.0000     0. 
   1   6  -5     -0.89    0.93  0. 1.0000     0. 
   1   6   5      1.60    0.75  0. 1.0000     0. 
   1   6   5      0.56    0.93  0. 1.0000     0. 
  -1  -6   5      0.63    0.75  0. 1.0000     0. 
  -1  -6   5     -0.22    0.74  0. 1.0000     0. 
  -2  -6  -5      0.22    0.67  0. 1.0000     0. 
  -2  -6  -5      0.09    0.74  0. 1.0000     0. 
   2   6  -5      0.20    0.75  0. 1.0000     0. 
   2   6  -5     -0.17    0.98  0. 1.0000     0. 
   2   6   5     -0.05    0.95  0. 1.0000     0. 
  -2  -6   5     -0.34    0.75  0. 1.0000     0. 
   3   6  -5      1.09    1.05  0. 1.0000     0. 
  -3  -6  -5      1.21    0.70  0. 1.0000     0. 
   3   6  -5      1.76    0.79  0. 1.0000     0. 
  -3  -6  -5      0.75    0.83  0. 1.0000     0. 
   3   6   5      1.77    1.05  0. 1.0000     0. 
  -3  -6   5      1.04    0.73  0. 1.0000     0. 
   4   6  -5     -1.08    0.47  0. 1.0000     0. 
  -4  -6  -5     -0.01    0.79  0. 1.0000     0. 
  -4  -6  -5     -0.38    0.19  0. 1.0000     0. 
  -3   7  -5      0.58    0.82  0. 1.0000     0. 
  -3   7  -5      2.38    1.00  0. 1.0000     0. 
   3  -7   5      1.56    0.77  0. 1.0000     0. 
  -2   7  -5      0.27    0.78  0. 1.0000     0. 
   2  -7  -5      1.54    0.79  0. 1.0000     0. 
   2  -7  -5      0.27    0.86  0. 1.0000     0. 
  -2   7  -5      1.17    1.01  0. 1.0000     0. 
   2  -7   5     -0.62    0.75  0. 1.0000     0. 
   2  -7   5      0.63    0.95  0. 1.0000     0. 
  -2   7   5      0.01    0.67  0. 1.0000     0. 
   1  -7  -5     -0.17    0.81  0. 1.0000     0. 
   1  -7  -5      0.45    0.75  0. 1.0000     0. 
  -1   7  -5     -0.42    1.02  0. 1.0000     0. 
  -1   7  -5     -0.75    0.81  0. 1.0000     0. 
  -1   7   5      0.10    0.79  0. 1.0000     0. 
   1  -7   5      0.02    0.91  0. 1.0000     0. 
   1  -7   5     -0.30    0.77  0. 1.0000     0. 
  -1   7   5     -0.46    0.94  0. 1.0000     0. 
   0   7  -5      0.69    0.83  0. 1.0000     0. 
   0   7  -5      0.98    1.04  0. 1.0000     0. 
   0  -7  -5     -0.08    0.78  0. 1.0000     0. 
   0  -7  -5     -1.39    0.74  0. 1.0000     0. 
   0   7   5      1.53    0.81  0. 1.0000     0. 
   0  -7   5      0.99    0.87  0. 1.0000     0. 
   0   7   5      0.46    0.99  0. 1.0000     0. 
   0  -7   5      0.08    0.76  0. 1.0000     0. 
   1   7  -5     -0.97    0.83  0. 1.0000     0. 
  -1  -7  -5      0.64    0.77  0. 1.0000     0. 
   1   7  -5     -0.40    1.06  0. 1.0000     0. 
  -1  -7  -5     -0.21    0.77  0. 1.0000     0. 
  -1  -7   5     -0.26    0.83  0. 1.0000     0. 
  -1  -7   5      0.43    0.84  0. 1.0000     0. 
   1   7   5     -0.18    0.81  0. 1.0000     0. 
   1   7   5      0.96    1.04  0. 1.0000     0. 
   2   7  -5      0.27    0.83  0. 1.0000     0. 
  -2  -7  -5      1.19    0.73  0. 1.0000     0. 
  -2  -7  -5      0.33    0.79  0. 1.0000     0. 
   2   7  -5      1.32    1.14  0. 1.0000     0. 
   2   7   5      1.12    0.83  0. 1.0000     0. 
   2   7   5      0.50    1.02  0. 1.0000     0. 
  -2  -7   5     -0.22    0.80  0. 1.0000     0. 
  -3  -7  -5      1.02    0.87  0. 1.0000     0. 
   3   7  -5      1.39    1.14  0. 1.0000     0. 
   3   7  -5      1.21    0.92  0. 1.0000     0. 
  -3  -7  -5      0.99    0.78  0. 1.0000     0. 
   3   7   5      1.65    1.13  0. 1.0000     0. 
  -3  -7   5      1.05    0.78  0. 1.0000     0. 
  -4  -7  -5     -0.17    0.95  0. 1.0000     0. 
   4   7  -5     -1.21    0.52  0. 1.0000     0. 
  -4  -7  -5     -0.19    0.19  0. 1.0000     0. 
  -3   8  -5     16.92    1.50  0. 1.0000     0. 
  -3   8  -5     21.75    1.75  0. 1.0000     0. 
   3  -8   5     18.70    1.41  0. 1.0000     0. 
  -2   8  -5     13.92    1.64  0. 1.0000     0. 
  -2   8  -5     12.94    1.41  0. 1.0000     0. 
   2  -8   5     12.84    1.39  0. 1.0000     0. 
   2  -8   5     10.93    1.42  0. 1.0000     0. 
   1  -8  -5     11.35    1.36  0. 1.0000     0. 
  -1   8  -5     10.79    1.34  0. 1.0000     0. 
  -1   8  -5     12.40    1.65  0. 1.0000     0. 
   1  -8  -5     12.53    1.36  0. 1.0000     0. 
   1  -8   5     11.90    1.29  0. 1.0000     0. 
   1  -8   5     12.70    1.46  0. 1.0000     0. 
  -1   8   5     13.37    1.57  0. 1.0000     0. 
  -1   8   5     11.45    1.42  0. 1.0000     0. 
   0  -8  -5     15.23    1.36  0. 1.0000     0. 
   0  -8  -5     12.64    1.34  0. 1.0000     0. 
   0   8  -5     14.36    1.45  0. 1.0000     0. 
   0   8  -5     13.32    1.67  0. 1.0000     0. 
   0   8   5     14.70    1.45  0. 1.0000     0. 
   0  -8   5     13.56    1.44  0. 1.0000     0. 
   0  -8   5     15.17    1.39  0. 1.0000     0. 
   0   8   5     12.34    1.63  0. 1.0000     0. 
   1   8  -5     14.40    1.68  0. 1.0000     0. 
  -1  -8  -5     10.85    1.36  0. 1.0000     0. 
   1   8  -5     13.36    1.48  0. 1.0000     0. 
  -1  -8  -5      9.77    1.28  0. 1.0000     0. 
  -1  -8   5     11.48    1.46  0. 1.0000     0. 
  -1  -8   5     11.32    1.40  0. 1.0000     0. 
   1   8   5     12.43    1.43  0. 1.0000     0. 
   1   8   5     12.61    1.80  0. 1.0000     0. 
   2   8  -5     13.57    1.74  0. 1.0000     0. 
  -2  -8  -5     11.93    1.33  0. 1.0000     0. 
   2   8  -5     12.66    1.46  0. 1.0000     0. 
  -2  -8  -5     11.75    1.22  0. 1.0000     0. 
  -2  -8   5     13.04    1.47  0. 1.0000     0. 
  -2  -8   5     12.98    1.33  0. 1.0000     0. 
   2   8   5     12.68    1.37  0. 1.0000     0. 
   2   8   5     15.21    1.64  0. 1.0000     0. 
   3   8  -5     20.59    1.61  0. 1.0000     0. 
   3   8  -5     17.81    1.93  0. 1.0000     0. 
  -3  -8  -5     18.84    1.51  0. 1.0000     0. 
  -3  -8  -5     18.07    1.37  0. 1.0000     0. 
  -3  -8   5     19.73    1.43  0. 1.0000     0. 
   3   8   5     17.27    1.78  0. 1.0000     0. 
  -4  -8  -5      6.68    1.13  0. 1.0000     0. 
  -3   9  -5      3.81    1.38  0. 1.0000     0. 
   3  -9   5      3.05    1.20  0. 1.0000     0. 
   3  -9   5      3.55    0.86  0. 1.0000     0. 
   2  -9  -5      0.08    1.02  0. 1.0000     0. 
  -2   9  -5      1.35    1.02  0. 1.0000     0. 
  -2   9  -5      2.19    1.33  0. 1.0000     0. 
   2  -9   5      0.31    1.10  0. 1.0000     0. 
  -2   9   5      0.66    0.67  0. 1.0000     0. 
   2  -9   5      0.84    0.94  0. 1.0000     0. 
  -2   9   5      0.63    1.18  0. 1.0000     0. 
  -1   9  -5      0.22    0.93  0. 1.0000     0. 
   1  -9  -5      1.49    0.92  0. 1.0000     0. 
   1  -9  -5      0.30    1.02  0. 1.0000     0. 
  -1   9  -5      2.23    1.33  0. 1.0000     0. 
  -1   9   5      0.30    0.93  0. 1.0000     0. 
   1  -9   5     -0.75    0.88  0. 1.0000     0. 
   1  -9   5      0.20    1.05  0. 1.0000     0. 
  -1   9   5      1.22    1.20  0. 1.0000     0. 
   0  -9  -5      1.05    0.94  0. 1.0000     0. 
   0   9  -5      1.45    0.98  0. 1.0000     0. 
   0   9  -5      2.12    1.32  0. 1.0000     0. 
   0  -9  -5      0.43    0.89  0. 1.0000     0. 
   0   9   5      2.78    1.18  0. 1.0000     0. 
   0   9   5      0.33    0.95  0. 1.0000     0. 
   0  -9   5      0.87    1.06  0. 1.0000     0. 
   0  -9   5     -0.04    0.94  0. 1.0000     0. 
  -1  -9  -5      1.16    0.90  0. 1.0000     0. 
   1   9  -5      0.46    1.00  0. 1.0000     0. 
   1   9  -5      0.87    1.30  0. 1.0000     0. 
  -1  -9  -5      0.57    0.94  0. 1.0000     0. 
   1   9   5      1.10    0.98  0. 1.0000     0. 
  -1  -9   5     -0.69    1.00  0. 1.0000     0. 
   1   9   5     -0.18    1.19  0. 1.0000     0. 
  -1  -9   5      1.24    0.95  0. 1.0000     0. 
  -2  -9  -5     -0.02    0.86  0. 1.0000     0. 
   2   9  -5      0.01    1.37  0. 1.0000     0. 
  -2  -9  -5      0.46    0.94  0. 1.0000     0. 
   2   9  -5      0.00    1.05  0. 1.0000     0. 
  -2  -9   5     -0.03    1.05  0. 1.0000     0. 
  -2  -9   5      2.15    1.00  0. 1.0000     0. 
   2   9   5      0.80    1.04  0. 1.0000     0. 
   2   9   5      0.35    1.26  0. 1.0000     0. 
  -3  -9  -5      2.47    0.94  0. 1.0000     0. 
   3   9  -5      3.57    1.12  0. 1.0000     0. 
   3   9  -5      1.17    1.46  0. 1.0000     0. 
  -3  -9  -5      2.73    1.02  0. 1.0000     0. 
   3   9   5      1.74    1.07  0. 1.0000     0. 
  -3  -9   5      1.69    0.99  0. 1.0000     0. 
   3   9   5      2.89    1.30  0. 1.0000     0. 
  -3  10  -5     -0.55    1.41  0. 1.0000     0. 
   3 -10   5      0.71    0.56  0. 1.0000     0. 
   3 -10   5      2.10    1.22  0. 1.0000     0. 
  -2  10  -5     -0.89    1.38  0. 1.0000     0. 
   2 -10  -5     -1.83    1.09  0. 1.0000     0. 
  -2  10  -5     -1.08    1.00  0. 1.0000     0. 
   2 -10   5     -0.29    0.95  0. 1.0000     0. 
   2 -10   5     -0.82    1.14  0. 1.0000     0. 
  -2  10   5      0.75    1.27  0. 1.0000     0. 
   1 -10  -5      0.36    0.93  0. 1.0000     0. 
  -1  10  -5      2.33    1.06  0. 1.0000     0. 
  -1  10  -5      2.86    1.45  0. 1.0000     0. 
   1 -10  -5     -0.97    1.01  0. 1.0000     0. 
   1 -10   5      1.37    1.16  0. 1.0000     0. 
  -1  10   5      0.40    0.75  0. 1.0000     0. 
  -1  10   5      1.68    1.30  0. 1.0000     0. 
   1 -10   5     -0.26    0.98  0. 1.0000     0. 
   0 -10  -5      1.23    1.04  0. 1.0000     0. 
   0  10  -5      0.03    1.09  0. 1.0000     0. 
   0  10  -5     -0.05    1.38  0. 1.0000     0. 
   0 -10  -5      0.60    1.02  0. 1.0000     0. 
   0  10   5      1.28    1.24  0. 1.0000     0. 
   0 -10   5      2.40    1.11  0. 1.0000     0. 
   0 -10   5     -1.22    0.98  0. 1.0000     0. 
   0  10   5      0.55    1.29  0. 1.0000     0. 
   1  10  -5      0.48    1.12  0. 1.0000     0. 
  -1 -10  -5     -0.10    1.00  0. 1.0000     0. 
  -1 -10  -5     -0.69    0.98  0. 1.0000     0. 
   1  10  -5      1.39    1.41  0. 1.0000     0. 
  -1 -10   5     -0.55    1.04  0. 1.0000     0. 
   1  10   5     -0.66    1.24  0. 1.0000     0. 
  -1 -10   5      1.07    1.07  0. 1.0000     0. 
   2  10  -5      0.09    1.44  0. 1.0000     0. 
  -2 -10  -5      0.56    1.12  0. 1.0000     0. 
   2  10  -5      0.26    1.15  0. 1.0000     0. 
  -2 -10   5      0.33    1.01  0. 1.0000     0. 
   2  10   5     -1.14    1.46  0. 1.0000     0. 
  -2 -10   5     -0.30    1.11  0. 1.0000     0. 
   3  10  -5      0.64    1.50  0. 1.0000     0. 
   3  10  -5      1.99    1.24  0. 1.0000     0. 
  -3 -10   5      1.26    1.21  0. 1.0000     0. 
  -3 -10   5     -0.59    0.88  0. 1.0000     0. 
   4  10  -5     25.60    0.96  0. 1.0000     0. 
  -3  11  -5     -2.11    1.50  0. 1.0000     0. 
  -2  11  -5     -0.06    1.61  0. 1.0000     0. 
  -2  11  -5     -1.05    1.12  0. 1.0000     0. 
   2 -11   5      1.98    1.08  0. 1.0000     0. 
   2 -11   5      0.55    1.23  0. 1.0000     0. 
  -1  11  -5     -1.13    1.51  0. 1.0000     0. 
  -1  11  -5     -0.49    1.14  0. 1.0000     0. 
   1 -11   5      1.00    1.11  0. 1.0000     0. 
   1 -11   5      0.67    1.22  0. 1.0000     0. 
   0  11  -5     -0.98    1.11  0. 1.0000     0. 
   0  11  -5      0.40    1.51  0. 1.0000     0. 
   0 -11   5      2.93    1.20  0. 1.0000     0. 
   0 -11   5     -0.53    1.01  0. 1.0000     0. 
   1  11  -5      4.69    1.63  0. 1.0000     0. 
   1  11  -5      0.36    1.23  0. 1.0000     0. 
  -1 -11   5      1.66    1.18  0. 1.0000     0. 
  -1 -11   5      2.22    1.15  0. 1.0000     0. 
   2  11  -5      0.09    1.52  0. 1.0000     0. 
   2  11  -5      1.57    1.29  0. 1.0000     0. 
  -2 -11   5      0.80    1.17  0. 1.0000     0. 
  -2 -11   5      0.31    1.09  0. 1.0000     0. 
   3  11  -5      2.80    1.30  0. 1.0000     0. 
   3  11  -5     -1.28    1.28  0. 1.0000     0. 
  -3 -11   5     -1.77    1.23  0. 1.0000     0. 
   0   0  -6     26.59    1.21  0. 1.0000     0. 
   0   0  -6     24.18    1.28  0. 1.0000     0. 
   0   0  -6     25.30    1.22  0. 1.0000     0. 
   0   0  -6     27.55    1.17  0. 1.0000     0. 
   0   0   6     24.45    1.15  0. 1.0000     0. 
   0   0   6     24.46    1.14  0. 1.0000     0. 
   0   0   6     24.43    1.22  0. 1.0000     0. 
   0   0   6     25.78    1.29  0. 1.0000     0. 
  -1   0  -6     17.60    0.96  0. 1.0000     0. 
   0   1  -6     17.29    0.97  0. 1.0000     0. 
   0  -1  -6     18.72    0.90  0. 1.0000     0. 
   0   1  -6     17.47    1.00  0. 1.0000     0. 
  -1   0  -6     15.73    0.96  0. 1.0000     0. 
   0  -1  -6     20.71    1.08  0. 1.0000     0. 
   0  -1  -6     16.74    1.00  0. 1.0000     0. 
   0   1  -6     16.62    0.96  0. 1.0000     0. 
   0  -1  -6     15.66    1.06  0. 1.0000     0. 
   1   0  -6     15.97    0.96  0. 1.0000     0. 
   1   0  -6     16.64    1.03  0. 1.0000     0. 
   1   0  -6     16.03    0.94  0. 1.0000     0. 
  -1   0  -6     19.06    1.12  0. 1.0000     0. 
  -1   0  -6     15.73    0.99  0. 1.0000     0. 
   1   0  -6     16.24    1.11  0. 1.0000     0. 
   0   1  -6     17.58    1.17  0. 1.0000     0. 
   0   1   6     16.98    1.17  0. 1.0000     0. 
   1   0   6     15.25    1.14  0. 1.0000     0. 
   0   1   6     17.29    0.88  0. 1.0000     0. 
   0   1   6     18.48    1.06  0. 1.0000     0. 
   1   0   6     17.53    1.02  0. 1.0000     0. 
  -1   0   6     16.67    0.99  0. 1.0000     0. 
   0   1   6     17.19    0.89  0. 1.0000     0. 
   1   0   6     18.48    0.94  0. 1.0000     0. 
  -1   0   6     15.79    0.90  0. 1.0000     0. 
   0  -1   6     15.45    1.05  0. 1.0000     0. 
   1   0   6     17.18    0.97  0. 1.0000     0. 
   0  -1   6     18.63    1.02  0. 1.0000     0. 
   0  -1   6     16.94    1.00  0. 1.0000     0. 
  -1   0   6     16.28    1.13  0. 1.0000     0. 
   0  -1   6     17.88    1.02  0. 1.0000     0. 
  -1   1  -6      6.01    0.64  0. 1.0000     0. 
   1   1  -6      5.92    0.70  0. 1.0000     0. 
   1  -1  -6      6.62    0.68  0. 1.0000     0. 
  -1   1  -6      7.25    0.77  0. 1.0000     0. 
   1  -1  -6      6.41    0.76  0. 1.0000     0. 
   1   1  -6      6.40    0.77  0. 1.0000     0. 
  -1   1  -6      6.68    0.71  0. 1.0000     0. 
  -1  -1  -6      6.38    0.86  0. 1.0000     0. 
  -1  -1  -6      6.43    0.65  0. 1.0000     0. 
   1   1  -6      6.81    0.83  0. 1.0000     0. 
  -1  -1  -6      6.01    0.82  0. 1.0000     0. 
   1   1  -6      7.24    0.81  0. 1.0000     0. 
  -1   1  -6      6.48    0.98  0. 1.0000     0. 
   1  -1  -6      8.44    0.87  0. 1.0000     0. 
   1  -1  -6      6.94    0.87  0. 1.0000     0. 
  -1  -1  -6      8.54    0.90  0. 1.0000     0. 
   1   1   6      7.00    0.86  0. 1.0000     0. 
   1   1   6      7.09    0.87  0. 1.0000     0. 
   1  -1   6      6.26    0.82  0. 1.0000     0. 
   1  -1   6      6.28    0.88  0. 1.0000     0. 
   1   1   6      6.67    0.64  0. 1.0000     0. 
  -1  -1   6      6.21    0.72  0. 1.0000     0. 
  -1   1   6      7.84    0.88  0. 1.0000     0. 
  -1  -1   6      7.79    0.81  0. 1.0000     0. 
   1   1   6      6.00    0.75  0. 1.0000     0. 
  -1   1   6      6.85    0.83  0. 1.0000     0. 
   1  -1   6      6.29    0.78  0. 1.0000     0. 
   1  -1   6      7.08    0.80  0. 1.0000     0. 
  -1  -1   6      6.03    0.73  0. 1.0000     0. 
  -1   1   6      5.51    0.62  0. 1.0000     0. 
  -2  -1  -6     18.37    1.02  0. 1.0000     0. 
   1  -2  -6     20.52    0.91  0. 1.0000     0. 
   1  -2  -6     18.54    1.08  0. 1.0000     0. 
  -1   2  -6     19.37    1.10  0. 1.0000     0. 
  -2  -1  -6     19.69    1.12  0. 1.0000     0. 
  -1   2  -6     19.56    0.93  0. 1.0000     0. 
  -1   2  -6     17.74    1.25  0. 1.0000     0. 
   2   1  -6     19.68    1.08  0. 1.0000     0. 
   1  -2  -6     18.65    1.13  0. 1.0000     0. 
   2   1  -6     17.97    1.13  0. 1.0000     0. 
   2   1  -6     19.51    1.28  0. 1.0000     0. 
   1  -2  -6     18.39    0.61  0. 1.0000     0. 
  -2  -1  -6     21.66    1.10  0. 1.0000     0. 
  -1   2  -6     20.43    0.98  0. 1.0000     0. 
  -1   2   6     15.91    1.12  0. 1.0000     0. 
   1  -2   6     20.02    1.01  0. 1.0000     0. 
  -2  -1   6     17.54    0.98  0. 1.0000     0. 
   2   1   6     20.10    1.26  0. 1.0000     0. 
   1  -2   6     18.90    1.06  0. 1.0000     0. 
   1  -2   6     19.64    1.14  0. 1.0000     0. 
   1  -2   6     17.82    1.08  0. 1.0000     0. 
  -1   2   6     18.94    1.26  0. 1.0000     0. 
   2   0  -6     42.03    1.61  0. 1.0000     0. 
  -2   0  -6     42.48    1.71  0. 1.0000     0. 
  -2   0  -6     36.37    1.63  0. 1.0000     0. 
   0   2  -6     43.51    1.68  0. 1.0000     0. 
  -2   0  -6     44.54    1.62  0. 1.0000     0. 
   0   2  -6     39.15    1.56  0. 1.0000     0. 
   0   2  -6     43.57    1.57  0. 1.0000     0. 
   0   2  -6     41.20    1.85  0. 1.0000     0. 
   0  -2  -6     40.47    1.70  0. 1.0000     0. 
  -2   0  -6     41.56    1.62  0. 1.0000     0. 
   0  -2  -6     39.97    1.69  0. 1.0000     0. 
   2   0  -6     43.63    1.62  0. 1.0000     0. 
   2   0  -6     42.02    1.71  0. 1.0000     0. 
   0  -2   6     40.11    1.59  0. 1.0000     0. 
   2   0   6     42.36    1.58  0. 1.0000     0. 
   0   2   6     39.03    1.79  0. 1.0000     0. 
   2   0   6     40.90    1.80  0. 1.0000     0. 
   0  -2   6     39.79    1.66  0. 1.0000     0. 
  -2   0   6     41.91    1.67  0. 1.0000     0. 
   0  -2   6     39.28    1.67  0. 1.0000     0. 
   0  -2   6     41.81    1.67  0. 1.0000     0. 
   0   2   6     37.42    1.70  0. 1.0000     0. 
   2  -1  -6     17.13    1.17  0. 1.0000     0. 
  -1  -2  -6     19.03    1.08  0. 1.0000     0. 
  -2   1  -6     19.25    1.04  0. 1.0000     0. 
  -2   1  -6     18.76    1.17  0. 1.0000     0. 
   2  -1  -6     18.52    1.06  0. 1.0000     0. 
  -2   1  -6     20.22    1.00  0. 1.0000     0. 
   1   2  -6     20.33    1.03  0. 1.0000     0. 
   2  -1  -6     19.39    0.96  0. 1.0000     0. 
  -2   1  -6     19.17    1.06  0. 1.0000     0. 
   1   2  -6     17.72    1.29  0. 1.0000     0. 
  -1  -2  -6     19.07    1.11  0. 1.0000     0. 
   1   2  -6     20.00    0.96  0. 1.0000     0. 
   1   2  -6     16.96    1.05  0. 1.0000     0. 
  -2   1   6     19.34    1.11  0. 1.0000     0. 
  -1  -2   6     19.09    1.06  0. 1.0000     0. 
  -1  -2   6     19.97    1.00  0. 1.0000     0. 
   2  -1   6     18.46    1.03  0. 1.0000     0. 
   1   2   6     19.44    1.29  0. 1.0000     0. 
   2  -1   6     18.42    1.18  0. 1.0000     0. 
   1   2   6     20.46    1.13  0. 1.0000     0. 
  -1  -2   6     20.99    1.07  0. 1.0000     0. 
  -2  -2  -6     27.96    1.35  0. 1.0000     0. 
   2   2  -6     32.59    1.35  0. 1.0000     0. 
  -2  -2  -6     30.39    1.44  0. 1.0000     0. 
  -2   2  -6     31.43    1.42  0. 1.0000     0. 
  -2   2  -6     33.17    1.33  0. 1.0000     0. 
   2  -2  -6     30.44    1.51  0. 1.0000     0. 
  -2   2  -6     30.83    1.53  0. 1.0000     0. 
   2  -2  -6     32.00    1.22  0. 1.0000     0. 
   2   2  -6     33.27    1.41  0. 1.0000     0. 
  -2   2  -6     25.45    1.25  0. 1.0000     0. 
   2  -2  -6     29.04    1.39  0. 1.0000     0. 
   2   2  -6     32.68    1.63  0. 1.0000     0. 
   2  -2   6     28.25    1.39  0. 1.0000     0. 
  -2  -2   6     30.31    1.34  0. 1.0000     0. 
  -2   2   6     29.10    1.43  0. 1.0000     0. 
   2   2   6     29.32    1.56  0. 1.0000     0. 
  -2   3  -6     57.72    1.97  0. 1.0000     0. 
  -3  -2  -6     55.27    2.08  0. 1.0000     0. 
   3   2  -6     53.39    2.07  0. 1.0000     0. 
  -2   3  -6     56.98    2.25  0. 1.0000     0. 
  -2   3  -6     59.77    2.16  0. 1.0000     0. 
   2  -3  -6     51.15    2.16  0. 1.0000     0. 
  -3  -2  -6     54.00    2.13  0. 1.0000     0. 
   2  -3  -6     56.15    2.12  0. 1.0000     0. 
   2  -3   6     53.28    2.08  0. 1.0000     0. 
   3   2   6     48.00    2.28  0. 1.0000     0. 
  -2   3   6     50.64    2.13  0. 1.0000     0. 
  -1   3  -6     42.79    1.77  0. 1.0000     0. 
   1  -3  -6     43.02    1.84  0. 1.0000     0. 
  -3  -1  -6     45.50    1.73  0. 1.0000     0. 
   1  -3  -6     42.02    1.76  0. 1.0000     0. 
  -1   3  -6     45.59    1.62  0. 1.0000     0. 
  -1   3  -6     44.97    1.97  0. 1.0000     0. 
  -3  -1  -6     42.75    1.80  0. 1.0000     0. 
  -1   3  -6     43.28    1.65  0. 1.0000     0. 
  -1   3   6     40.24    1.90  0. 1.0000     0. 
   3   1   6     43.25    1.93  0. 1.0000     0. 
  -1   3   6     40.96    1.82  0. 1.0000     0. 
   1  -3   6     42.74    1.82  0. 1.0000     0. 
   1  -3   6     41.74    1.76  0. 1.0000     0. 
   1  -3   6     41.46    1.70  0. 1.0000     0. 
   1  -3   6     46.68    1.64  0. 1.0000     0. 
   0  -3  -6     58.82    2.27  0. 1.0000     0. 
  -3   0  -6     62.50    2.27  0. 1.0000     0. 
   0   3  -6     64.48    2.10  0. 1.0000     0. 
   0  -3  -6     58.05    2.28  0. 1.0000     0. 
   0   3  -6     64.60    2.49  0. 1.0000     0. 
   0   3  -6     61.30    2.28  0. 1.0000     0. 
  -3   0  -6     59.07    2.27  0. 1.0000     0. 
   0   3   6     57.49    2.31  0. 1.0000     0. 
   0  -3   6     58.94    2.20  0. 1.0000     0. 
   0   3   6     60.06    2.39  0. 1.0000     0. 
   0  -3   6     58.01    2.27  0. 1.0000     0. 
   0  -3   6     60.82    2.27  0. 1.0000     0. 
   0  -3   6     60.45    2.19  0. 1.0000     0. 
   1   3  -6     43.72    1.96  0. 1.0000     0. 
   1   3  -6     41.96    1.54  0. 1.0000     0. 
  -3   1  -6     42.55    1.77  0. 1.0000     0. 
  -1  -3  -6     39.45    1.72  0. 1.0000     0. 
  -3   1  -6     41.00    1.69  0. 1.0000     0. 
   1   3  -6     43.95    1.75  0. 1.0000     0. 
  -1  -3  -6     39.31    1.73  0. 1.0000     0. 
  -1  -3   6     42.38    1.66  0. 1.0000     0. 
  -1  -3   6     41.10    1.73  0. 1.0000     0. 
   1   3   6     40.43    1.75  0. 1.0000     0. 
   1   3   6     43.28    1.93  0. 1.0000     0. 
  -3   2  -6     55.47    2.14  0. 1.0000     0. 
  -3   2  -6     54.86    1.99  0. 1.0000     0. 
   2   3  -6     53.21    2.31  0. 1.0000     0. 
  -2  -3  -6     54.23    2.06  0. 1.0000     0. 
   2   3  -6     54.18    2.09  0. 1.0000     0. 
  -2  -3  -6     52.35    2.10  0. 1.0000     0. 
  -2  -3   6     48.87    2.03  0. 1.0000     0. 
   2   3   6     51.90    2.24  0. 1.0000     0. 
  -3  -3  -6     64.43    2.41  0. 1.0000     0. 
   3   3  -6     64.06    2.68  0. 1.0000     0. 
  -3   3  -6     62.93    2.51  0. 1.0000     0. 
  -3   3  -6     64.98    2.49  0. 1.0000     0. 
  -3   3  -6     67.60    2.31  0. 1.0000     0. 
   3   3  -6     65.19    2.42  0. 1.0000     0. 
  -3  -3  -6     65.66    2.48  0. 1.0000     0. 
   3  -3   6     67.52    2.43  0. 1.0000     0. 
   3   3   6     59.15    2.58  0. 1.0000     0. 
  -3   4  -6     48.03    2.22  0. 1.0000     0. 
  -3   4  -6     45.75    2.05  0. 1.0000     0. 
   3  -4   6     48.92    2.00  0. 1.0000     0. 
  -2   4  -6     39.91    1.90  0. 1.0000     0. 
   2  -4  -6     39.29    1.80  0. 1.0000     0. 
   2  -4  -6     37.89    1.74  0. 1.0000     0. 
  -2   4  -6     43.64    1.79  0. 1.0000     0. 
  -2   4   6     38.80    1.79  0. 1.0000     0. 
   2  -4   6     38.39    1.72  0. 1.0000     0. 
  -1   4  -6     32.69    1.79  0. 1.0000     0. 
  -1   4  -6     33.78    1.57  0. 1.0000     0. 
   1  -4  -6     34.15    1.63  0. 1.0000     0. 
   1  -4  -6     33.83    1.56  0. 1.0000     0. 
   1  -4   6     32.05    1.55  0. 1.0000     0. 
  -1   4   6     33.22    1.71  0. 1.0000     0. 
   1  -4   6     32.88    1.61  0. 1.0000     0. 
  -1   4   6     34.05    1.60  0. 1.0000     0. 
   0  -4  -6     48.99    1.99  0. 1.0000     0. 
   0   4  -6     45.33    1.98  0. 1.0000     0. 
   0  -4  -6     48.23    2.01  0. 1.0000     0. 
   0   4  -6     48.97    2.19  0. 1.0000     0. 
   0   4   6     49.09    2.05  0. 1.0000     0. 
   0  -4   6     47.47    2.00  0. 1.0000     0. 
   0  -4   6     50.49    2.00  0. 1.0000     0. 
   0   4   6     48.03    2.10  0. 1.0000     0. 
  -1  -4  -6     31.91    1.60  0. 1.0000     0. 
  -1  -4  -6     33.17    1.57  0. 1.0000     0. 
   1   4  -6     35.36    1.80  0. 1.0000     0. 
   1   4  -6     32.16    1.59  0. 1.0000     0. 
  -1  -4   6     34.61    1.61  0. 1.0000     0. 
   1   4   6     33.37    1.59  0. 1.0000     0. 
  -1  -4   6     36.73    1.58  0. 1.0000     0. 
   1   4   6     31.71    1.74  0. 1.0000     0. 
  -2  -4  -6     38.56    1.68  0. 1.0000     0. 
  -2  -4  -6     35.80    1.78  0. 1.0000     0. 
   2   4  -6     42.42    2.02  0. 1.0000     0. 
   2   4  -6     38.72    1.76  0. 1.0000     0. 
   2   4   6     39.10    1.92  0. 1.0000     0. 
  -2  -4   6     39.97    1.72  0. 1.0000     0. 
   3   4  -6     44.77    1.98  0. 1.0000     0. 
  -3  -4  -6     49.99    2.08  0. 1.0000     0. 
   3   4  -6     48.62    2.31  0. 1.0000     0. 
  -3  -4  -6     44.18    1.94  0. 1.0000     0. 
  -3  -4   6     45.11    1.96  0. 1.0000     0. 
   3   4   6     48.41    2.21  0. 1.0000     0. 
  -4  -4  -6     -0.32    0.28  0. 1.0000     0. 
  -3   5  -6     35.33    2.04  0. 1.0000     0. 
  -3   5  -6     38.33    1.81  0. 1.0000     0. 
   3  -5   6     39.33    1.79  0. 1.0000     0. 
   2  -5  -6     26.69    1.51  0. 1.0000     0. 
  -2   5  -6     26.30    1.67  0. 1.0000     0. 
  -2   5  -6     24.23    1.46  0. 1.0000     0. 
   2  -5  -6     23.95    1.51  0. 1.0000     0. 
  -2   5   6     29.25    1.59  0. 1.0000     0. 
   2  -5   6     28.29    1.49  0. 1.0000     0. 
   2  -5   6     24.11    1.53  0. 1.0000     0. 
  -1   5  -6     24.61    1.69  0. 1.0000     0. 
  -1   5  -6     28.68    1.54  0. 1.0000     0. 
   1  -5  -6     27.42    1.47  0. 1.0000     0. 
   1  -5  -6     25.63    1.49  0. 1.0000     0. 
   1  -5   6     25.38    1.49  0. 1.0000     0. 
  -1   5   6     26.05    1.66  0. 1.0000     0. 
  -1   5   6     29.03    1.55  0. 1.0000     0. 
   1  -5   6     26.61    1.51  0. 1.0000     0. 
   0   5  -6     44.15    1.96  0. 1.0000     0. 
   0   5  -6     39.75    2.20  0. 1.0000     0. 
   0  -5   6     43.62    1.97  0. 1.0000     0. 
   0  -5   6     44.93    1.95  0. 1.0000     0. 
   0   5   6     55.78    2.25  0. 1.0000     0. 
   1   5  -6     27.21    1.53  0. 1.0000     0. 
  -1  -5  -6     26.26    1.43  0. 1.0000     0. 
  -1  -5  -6     27.30    1.53  0. 1.0000     0. 
   1   5  -6     27.19    1.78  0. 1.0000     0. 
  -1  -5   6     27.11    1.56  0. 1.0000     0. 
   1   5   6     26.71    1.55  0. 1.0000     0. 
  -1  -5   6     26.55    1.46  0. 1.0000     0. 
   1   5   6     26.43    1.70  0. 1.0000     0. 
  -2  -5  -6     24.35    1.36  0. 1.0000     0. 
   2   5  -6     25.94    1.76  0. 1.0000     0. 
   2   5  -6     22.62    1.49  0. 1.0000     0. 
  -2  -5  -6     25.61    1.50  0. 1.0000     0. 
  -2  -5   6     23.52    1.41  0. 1.0000     0. 
   2   5   6     27.49    1.69  0. 1.0000     0. 
  -3  -5  -6     35.64    1.73  0. 1.0000     0. 
   3   5  -6     37.19    2.06  0. 1.0000     0. 
  -3  -5  -6     38.24    1.85  0. 1.0000     0. 
   3   5  -6     37.33    1.81  0. 1.0000     0. 
  -3  -5   6     34.84    1.71  0. 1.0000     0. 
   3   5   6     38.12    2.04  0. 1.0000     0. 
  -3   6  -6     18.02    1.39  0. 1.0000     0. 
  -3   6  -6     17.16    1.52  0. 1.0000     0. 
   3  -6   6     19.75    1.36  0. 1.0000     0. 
  -2   6  -6     14.57    1.30  0. 1.0000     0. 
  -2   6  -6     13.70    1.45  0. 1.0000     0. 
   2  -6  -6     15.39    1.39  0. 1.0000     0. 
   2  -6  -6     14.85    1.30  0. 1.0000     0. 
   2  -6   6     14.78    1.27  0. 1.0000     0. 
   2  -6   6     13.39    1.36  0. 1.0000     0. 
  -2   6   6     13.21    1.31  0. 1.0000     0. 
   1  -6  -6     16.83    1.29  0. 1.0000     0. 
   1  -6  -6     14.65    1.34  0. 1.0000     0. 
  -1   6   6     15.74    1.34  0. 1.0000     0. 
  -1   6   6     17.44    1.49  0. 1.0000     0. 
   0  -6  -6     22.57    1.46  0. 1.0000     0. 
   0   6  -6     20.79    1.47  0. 1.0000     0. 
   0  -6  -6     20.64    1.46  0. 1.0000     0. 
   0   6  -6     22.27    1.66  0. 1.0000     0. 
   0   6   6     22.82    1.55  0. 1.0000     0. 
   0   6   6     25.09    1.66  0. 1.0000     0. 
   0  -6   6     23.48    1.50  0. 1.0000     0. 
   0  -6   6     23.07    1.45  0. 1.0000     0. 
  -1  -6  -6     16.55    1.21  0. 1.0000     0. 
   1   6  -6     13.06    1.54  0. 1.0000     0. 
  -1  -6  -6     12.99    1.26  0. 1.0000     0. 
   1   6  -6     16.34    1.34  0. 1.0000     0. 
   1   6   6     15.01    1.34  0. 1.0000     0. 
  -1  -6   6     14.12    1.27  0. 1.0000     0. 
   1   6   6     16.27    1.56  0. 1.0000     0. 
  -1  -6   6     14.93    1.32  0. 1.0000     0. 
   2   6  -6     13.71    1.63  0. 1.0000     0. 
   2   6  -6     15.28    1.29  0. 1.0000     0. 
  -2  -6  -6     14.66    1.15  0. 1.0000     0. 
  -2  -6  -6     13.36    1.30  0. 1.0000     0. 
   2   6   6     15.58    1.35  0. 1.0000     0. 
  -2  -6   6     13.19    1.23  0. 1.0000     0. 
   2   6   6     14.88    1.57  0. 1.0000     0. 
  -3  -6  -6     19.42    1.49  0. 1.0000     0. 
   3   6  -6     17.49    1.44  0. 1.0000     0. 
  -3  -6  -6     18.80    1.37  0. 1.0000     0. 
   3   6  -6     17.10    1.71  0. 1.0000     0. 
  -3  -6   6     20.74    1.32  0. 1.0000     0. 
   3   6   6     18.50    1.75  0. 1.0000     0. 
  -3   7  -6     14.05    1.36  0. 1.0000     0. 
  -3   7  -6     14.25    1.57  0. 1.0000     0. 
   3  -7   6     11.92    1.29  0. 1.0000     0. 
  -2   7  -6      7.44    1.03  0. 1.0000     0. 
   2  -7  -6      9.70    1.32  0. 1.0000     0. 
  -2   7  -6      9.74    1.32  0. 1.0000     0. 
   2  -7  -6     12.32    1.45  0. 1.0000     0. 
  -2   7   6     10.50    1.36  0. 1.0000     0. 
  -2   7   6     10.54    1.26  0. 1.0000     0. 
   2  -7   6      9.34    1.20  0. 1.0000     0. 
   2  -7   6      8.35    1.02  0. 1.0000     0. 
  -1   7  -6     10.97    1.35  0. 1.0000     0. 
  -1   7  -6     11.14    1.60  0. 1.0000     0. 
   1  -7  -6     10.29    1.30  0. 1.0000     0. 
   1  -7  -6      8.02    1.04  0. 1.0000     0. 
   1  -7   6     10.33    1.29  0. 1.0000     0. 
  -1   7   6      9.58    1.31  0. 1.0000     0. 
  -1   7   6      9.93    1.30  0. 1.0000     0. 
   1  -7   6     10.99    1.41  0. 1.0000     0. 
   0   7  -6     13.36    1.71  0. 1.0000     0. 
   0  -7  -6     16.80    1.43  0. 1.0000     0. 
   0   7  -6     14.70    1.44  0. 1.0000     0. 
   0  -7  -6     15.41    1.41  0. 1.0000     0. 
   0   7   6     18.64    1.67  0. 1.0000     0. 
   0   7   6     14.41    1.59  0. 1.0000     0. 
   0  -7   6     15.30    1.42  0. 1.0000     0. 
   0  -7   6     14.49    1.43  0. 1.0000     0. 
   1   7  -6      9.12    1.38  0. 1.0000     0. 
  -1  -7  -6     10.44    1.26  0. 1.0000     0. 
   1   7  -6     11.31    1.41  0. 1.0000     0. 
  -1  -7  -6     10.75    1.37  0. 1.0000     0. 
  -1  -7   6      7.80    1.09  0. 1.0000     0. 
   1   7   6      9.78    1.14  0. 1.0000     0. 
  -1  -7   6      9.99    1.36  0. 1.0000     0. 
   1   7   6      8.78    1.36  0. 1.0000     0. 
   2   7  -6     10.83    1.44  0. 1.0000     0. 
  -2  -7  -6      8.46    1.11  0. 1.0000     0. 
   2   7  -6     10.60    1.40  0. 1.0000     0. 
  -2  -7  -6     10.49    1.17  0. 1.0000     0. 
  -2  -7   6     10.92    1.42  0. 1.0000     0. 
  -2  -7   6      9.89    1.27  0. 1.0000     0. 
   2   7   6     11.50    1.35  0. 1.0000     0. 
   2   7   6      9.86    1.34  0. 1.0000     0. 
  -3  -7  -6     13.81    1.45  0. 1.0000     0. 
   3   7  -6     13.54    1.75  0. 1.0000     0. 
  -3  -7  -6     14.24    1.39  0. 1.0000     0. 
   3   7  -6     11.85    1.50  0. 1.0000     0. 
   3   7   6     15.47    1.75  0. 1.0000     0. 
  -3  -7   6     11.57    1.25  0. 1.0000     0. 
   4   7  -6     -0.14    0.68  0. 1.0000     0. 
  -4  -7  -6      4.81    1.12  0. 1.0000     0. 
  -3   8  -6     25.76    1.87  0. 1.0000     0. 
  -3   8  -6     27.32    2.11  0. 1.0000     0. 
   3  -8   6     19.68    1.86  0. 1.0000     0. 
   3  -8   6     23.59    1.68  0. 1.0000     0. 
   2  -8  -6     18.30    1.66  0. 1.0000     0. 
  -2   8  -6     19.24    1.67  0. 1.0000     0. 
   2  -8  -6     18.28    1.55  0. 1.0000     0. 
  -2   8  -6     18.47    1.91  0. 1.0000     0. 
   2  -8   6     18.05    1.65  0. 1.0000     0. 
   2  -8   6     18.81    1.59  0. 1.0000     0. 
  -2   8   6     20.32    1.80  0. 1.0000     0. 
   1  -8  -6     19.44    1.59  0. 1.0000     0. 
   1  -8  -6     19.89    1.60  0. 1.0000     0. 
  -1   8  -6     20.03    1.60  0. 1.0000     0. 
  -1   8  -6     21.71    1.97  0. 1.0000     0. 
   1  -8   6     19.46    1.53  0. 1.0000     0. 
   1  -8   6     21.16    1.62  0. 1.0000     0. 
  -1   8   6     20.26    1.83  0. 1.0000     0. 
  -1   8   6     23.97    1.68  0. 1.0000     0. 
   0   8  -6     29.87    2.14  0. 1.0000     0. 
   0  -8  -6     27.31    1.70  0. 1.0000     0. 
   0   8  -6     31.55    1.85  0. 1.0000     0. 
   0  -8  -6     30.02    1.75  0. 1.0000     0. 
   0   8   6     29.76    2.05  0. 1.0000     0. 
   0   8   6     30.07    1.82  0. 1.0000     0. 
   0  -8   6     29.74    1.82  0. 1.0000     0. 
   0  -8   6     27.77    1.78  0. 1.0000     0. 
  -1  -8  -6     19.82    1.48  0. 1.0000     0. 
  -1  -8  -6     19.11    1.53  0. 1.0000     0. 
   1   8  -6     20.93    1.99  0. 1.0000     0. 
   1   8  -6     18.29    1.66  0. 1.0000     0. 
   1   8   6     22.31    2.10  0. 1.0000     0. 
   1   8   6     21.01    1.72  0. 1.0000     0. 
  -1  -8   6     21.83    1.64  0. 1.0000     0. 
  -1  -8   6     18.00    1.61  0. 1.0000     0. 
   2   8  -6     17.52    1.99  0. 1.0000     0. 
  -2  -8  -6     19.94    1.46  0. 1.0000     0. 
  -2  -8  -6     20.10    1.60  0. 1.0000     0. 
   2   8  -6     21.64    1.74  0. 1.0000     0. 
   2   8   6     19.13    1.91  0. 1.0000     0. 
  -2  -8   6     17.37    1.47  0. 1.0000     0. 
  -2  -8   6     19.27    1.69  0. 1.0000     0. 
   2   8   6     19.54    1.61  0. 1.0000     0. 
  -3  -8  -6     24.58    1.77  0. 1.0000     0. 
   3   8  -6     18.88    1.76  0. 1.0000     0. 
  -3  -8  -6     22.34    1.70  0. 1.0000     0. 
   3   8  -6     20.07    2.16  0. 1.0000     0. 
   3   8   6     23.45    2.26  0. 1.0000     0. 
  -3  -8   6     24.31    1.69  0. 1.0000     0. 
   3   8   6     22.84    1.73  0. 1.0000     0. 
  -3   9  -6     12.30    1.66  0. 1.0000     0. 
  -3   9  -6      7.48    1.15  0. 1.0000     0. 
   3  -9   6     10.24    1.43  0. 1.0000     0. 
   3  -9   6     12.97    1.40  0. 1.0000     0. 
  -2   9  -6      9.53    1.59  0. 1.0000     0. 
   2  -9  -6     10.85    1.28  0. 1.0000     0. 
   2  -9  -6     11.17    1.43  0. 1.0000     0. 
  -2   9  -6      9.23    1.27  0. 1.0000     0. 
  -2   9   6      7.14    1.43  0. 1.0000     0. 
   2  -9   6      9.51    1.39  0. 1.0000     0. 
   2  -9   6     10.95    1.22  0. 1.0000     0. 
  -1   9  -6      9.25    1.23  0. 1.0000     0. 
  -1   9  -6      8.37    1.61  0. 1.0000     0. 
   1  -9  -6     12.18    1.53  0. 1.0000     0. 
   1  -9  -6     11.89    1.51  0. 1.0000     0. 
  -1   9   6     12.47    1.77  0. 1.0000     0. 
   1  -9   6      9.46    1.18  0. 1.0000     0. 
  -1   9   6      9.39    1.20  0. 1.0000     0. 
   1  -9   6     10.27    1.33  0. 1.0000     0. 
   0  -9  -6     15.54    1.49  0. 1.0000     0. 
   0   9  -6     12.93    1.64  0. 1.0000     0. 
   0  -9  -6     14.41    1.52  0. 1.0000     0. 
   0   9  -6     16.60    2.00  0. 1.0000     0. 
   0   9   6     14.19    1.82  0. 1.0000     0. 
   0  -9   6     13.32    1.57  0. 1.0000     0. 
   0   9   6     15.05    1.56  0. 1.0000     0. 
   0  -9   6     12.89    1.58  0. 1.0000     0. 
  -1  -9  -6      9.95    1.22  0. 1.0000     0. 
   1   9  -6     10.85    1.34  0. 1.0000     0. 
  -1  -9  -6     13.67    1.41  0. 1.0000     0. 
   1   9  -6      9.04    1.64  0. 1.0000     0. 
  -1  -9   6      8.82    1.28  0. 1.0000     0. 
   1   9   6     12.21    1.64  0. 1.0000     0. 
  -1  -9   6     11.98    1.56  0. 1.0000     0. 
   1   9   6     13.78    1.62  0. 1.0000     0. 
  -2  -9  -6     10.64    1.36  0. 1.0000     0. 
   2   9  -6      8.83    1.29  0. 1.0000     0. 
  -2  -9  -6      8.19    1.23  0. 1.0000     0. 
   2   9  -6      9.63    1.63  0. 1.0000     0. 
  -2  -9   6      8.19    1.27  0. 1.0000     0. 
  -2  -9   6     11.63    1.45  0. 1.0000     0. 
   2   9   6     11.74    1.63  0. 1.0000     0. 
   2   9   6     11.44    1.35  0. 1.0000     0. 
  -3  -9  -6     14.00    1.44  0. 1.0000     0. 
  -3  -9  -6     10.32    1.33  0. 1.0000     0. 
   3   9  -6     13.32    2.04  0. 1.0000     0. 
   3   9  -6     10.59    1.41  0. 1.0000     0. 
   3   9   6     12.49    1.62  0. 1.0000     0. 
  -3  -9   6     13.50    1.47  0. 1.0000     0. 
  -3  -9   6     13.92    1.78  0. 1.0000     0. 
   3   9   6     12.43    1.63  0. 1.0000     0. 
  -4  -9  -6      6.15    1.25  0. 1.0000     0. 
   4   9   6      8.89    1.31  0. 1.0000     0. 
  -3  10  -6      1.13    1.47  0. 1.0000     0. 
   3 -10   6      2.51    0.77  0. 1.0000     0. 
   2 -10  -6      6.38    1.31  0. 1.0000     0. 
  -2  10  -6      5.33    1.17  0. 1.0000     0. 
  -2  10  -6      3.56    1.61  0. 1.0000     0. 
  -2  10   6      5.50    1.48  0. 1.0000     0. 
   2 -10   6      4.80    1.12  0. 1.0000     0. 
   2 -10   6      4.60    1.37  0. 1.0000     0. 
   1 -10  -6      5.60    1.13  0. 1.0000     0. 
  -1  10  -6      2.67    1.20  0. 1.0000     0. 
  -1  10  -6      7.60    1.59  0. 1.0000     0. 
   1 -10  -6      5.49    1.20  0. 1.0000     0. 
   1 -10   6      4.11    1.17  0. 1.0000     0. 
  -1  10   6      6.25    1.54  0. 1.0000     0. 
   1 -10   6      6.07    1.31  0. 1.0000     0. 
   0  10  -6      9.82    1.69  0. 1.0000     0. 
   0 -10  -6      9.90    1.24  0. 1.0000     0. 
   0  10  -6      7.22    1.29  0. 1.0000     0. 
   0 -10  -6      7.83    1.21  0. 1.0000     0. 
   0 -10   6      7.50    1.30  0. 1.0000     0. 
   0 -10   6      8.88    1.22  0. 1.0000     0. 
   0  10   6      8.76    1.61  0. 1.0000     0. 
   0  10   6      6.16    1.30  0. 1.0000     0. 
  -1 -10  -6      3.63    1.13  0. 1.0000     0. 
  -1 -10  -6      5.47    1.11  0. 1.0000     0. 
   1  10  -6      7.76    1.72  0. 1.0000     0. 
   1  10  -6      4.62    1.29  0. 1.0000     0. 
   1  10   6      4.39    1.47  0. 1.0000     0. 
  -1 -10   6      7.65    1.27  0. 1.0000     0. 
   1  10   6      4.43    1.26  0. 1.0000     0. 
  -1 -10   6      5.02    1.20  0. 1.0000     0. 
  -2 -10  -6      3.29    1.15  0. 1.0000     0. 
   2  10  -6      7.30    1.69  0. 1.0000     0. 
   2  10  -6      4.85    1.29  0. 1.0000     0. 
   2  10   6      5.04    1.48  0. 1.0000     0. 
  -2 -10   6      5.67    1.20  0. 1.0000     0. 
  -2 -10   6      4.69    1.24  0. 1.0000     0. 
   2  10   6      3.93    1.24  0. 1.0000     0. 
   3  10  -6      7.00    1.74  0. 1.0000     0. 
   3  10  -6      6.27    1.43  0. 1.0000     0. 
  -3 -10  -6      8.04    1.22  0. 1.0000     0. 
  -3 -10  -6      6.02    1.24  0. 1.0000     0. 
   3  10   6      6.56    1.30  0. 1.0000     0. 
  -3 -10   6      6.39    1.18  0. 1.0000     0. 
   3  10   6      8.57    1.52  0. 1.0000     0. 
  -3 -10   6      7.94    1.39  0. 1.0000     0. 
   0   0  -7    120.72    4.09  0. 1.0000     0. 
   0   0  -7    117.25    3.98  0. 1.0000     0. 
   0   0  -7    122.84    3.97  0. 1.0000     0. 
   0   0  -7    119.39    4.00  0. 1.0000     0. 
   0   0   7    115.41    3.95  0. 1.0000     0. 
   0   0   7    119.77    4.03  0. 1.0000     0. 
   0   0   7    117.67    3.95  0. 1.0000     0. 
   0   0   7    112.81    4.07  0. 1.0000     0. 
  -1   0  -7     64.42    2.34  0. 1.0000     0. 
  -1   0  -7     64.50    2.51  0. 1.0000     0. 
  -1   0  -7     67.20    2.40  0. 1.0000     0. 
   1   0  -7     65.48    2.36  0. 1.0000     0. 
   1   0  -7     66.32    2.38  0. 1.0000     0. 
   0   1  -7     65.88    2.38  0. 1.0000     0. 
   0   1  -7     65.03    2.58  0. 1.0000     0. 
   0   1  -7     65.40    2.39  0. 1.0000     0. 
   0   1  -7     67.04    2.38  0. 1.0000     0. 
   0  -1  -7     63.68    2.41  0. 1.0000     0. 
   0  -1  -7     64.70    2.32  0. 1.0000     0. 
   1   0  -7     64.00    2.53  0. 1.0000     0. 
  -1   0  -7     67.70    2.42  0. 1.0000     0. 
   0  -1  -7     63.50    2.44  0. 1.0000     0. 
   0  -1  -7     66.29    2.46  0. 1.0000     0. 
   1   0  -7     66.67    2.43  0. 1.0000     0. 
   1   0   7     66.98    2.34  0. 1.0000     0. 
  -1   0   7     64.37    2.34  0. 1.0000     0. 
   0  -1   7     63.99    2.40  0. 1.0000     0. 
   0  -1   7     64.79    2.39  0. 1.0000     0. 
   1   0   7     64.21    2.38  0. 1.0000     0. 
  -1   0   7     64.80    2.43  0. 1.0000     0. 
   0  -1   7     66.17    2.42  0. 1.0000     0. 
   0   1   7     65.45    2.30  0. 1.0000     0. 
  -1   0   7     66.19    2.38  0. 1.0000     0. 
   1   0   7     62.87    2.54  0. 1.0000     0. 
   0   1   7     66.18    2.32  0. 1.0000     0. 
   1   0   7     65.70    2.43  0. 1.0000     0. 
  -1   0   7     63.10    2.50  0. 1.0000     0. 
   0  -1   7     64.24    2.52  0. 1.0000     0. 
   0   1   7     59.85    2.47  0. 1.0000     0. 
   0   1   7     63.63    2.53  0. 1.0000     0. 
  -1   1  -7     27.65    1.53  0. 1.0000     0. 
   1  -1  -7     27.63    1.26  0. 1.0000     0. 
  -1  -1  -7     25.37    1.36  0. 1.0000     0. 
   1   1  -7     27.29    1.60  0. 1.0000     0. 
  -1   1  -7     28.12    1.29  0. 1.0000     0. 
   1  -1  -7     29.05    1.43  0. 1.0000     0. 
  -1  -1  -7     26.21    1.38  0. 1.0000     0. 
   1   1  -7     25.65    1.34  0. 1.0000     0. 
  -1  -1  -7     25.53    1.27  0. 1.0000     0. 
  -1   1  -7     27.58    1.33  0. 1.0000     0. 
  -1   1  -7     27.48    1.32  0. 1.0000     0. 
  -1  -1  -7     27.01    1.50  0. 1.0000     0. 
   1  -1  -7     27.17    1.43  0. 1.0000     0. 
   1   1  -7     28.00    1.28  0. 1.0000     0. 
   1  -1  -7     26.17    1.33  0. 1.0000     0. 
   1   1  -7     26.13    1.33  0. 1.0000     0. 
  -1   1   7     25.48    1.38  0. 1.0000     0. 
  -1   1   7     26.22    1.27  0. 1.0000     0. 
   1   1   7     25.38    1.56  0. 1.0000     0. 
   1  -1   7     23.99    1.30  0. 1.0000     0. 
   1  -1   7     26.58    1.46  0. 1.0000     0. 
  -1   1   7     25.53    1.51  0. 1.0000     0. 
   1   1   7     26.24    1.20  0. 1.0000     0. 
  -1  -1   7     25.31    1.36  0. 1.0000     0. 
  -1  -1   7     27.87    1.33  0. 1.0000     0. 
  -1   1   7     28.28    1.21  0. 1.0000     0. 
   1  -1   7     26.92    1.34  0. 1.0000     0. 
   1   1   7     26.50    1.31  0. 1.0000     0. 
  -1  -1   7     26.28    1.43  0. 1.0000     0. 
  -1  -1   7     26.14    1.34  0. 1.0000     0. 
   1   1   7     24.37    1.37  0. 1.0000     0. 
   1  -1   7     26.39    1.35  0. 1.0000     0. 
   1  -2  -7     17.60    1.15  0. 1.0000     0. 
   2   1  -7     16.74    1.38  0. 1.0000     0. 
  -2  -1  -7     14.75    1.19  0. 1.0000     0. 
   1  -2  -7     16.32    1.21  0. 1.0000     0. 
  -2  -1  -7     17.25    1.12  0. 1.0000     0. 
  -1   2  -7     18.46    1.17  0. 1.0000     0. 
   2   1  -7     17.09    1.13  0. 1.0000     0. 
   2   1  -7     14.91    0.99  0. 1.0000     0. 
  -1   2  -7     17.04    0.99  0. 1.0000     0. 
   2   1  -7     16.72    1.21  0. 1.0000     0. 
  -1   2  -7     17.09    1.05  0. 1.0000     0. 
  -1   2  -7     19.05    1.39  0. 1.0000     0. 
  -1   2   7     16.84    1.19  0. 1.0000     0. 
   2   1   7     16.44    1.35  0. 1.0000     0. 
   1  -2   7     15.13    1.22  0. 1.0000     0. 
   1  -2   7     16.36    1.07  0. 1.0000     0. 
   1  -2   7     15.95    1.14  0. 1.0000     0. 
  -2  -1   7     14.27    1.02  0. 1.0000     0. 
  -1   2   7     16.95    1.35  0. 1.0000     0. 
   1  -2   7     18.44    1.24  0. 1.0000     0. 
   0   2  -7     50.52    1.98  0. 1.0000     0. 
   2   0  -7     47.01    1.92  0. 1.0000     0. 
   0   2  -7     50.97    2.18  0. 1.0000     0. 
   0   2  -7     51.73    1.87  0. 1.0000     0. 
   2   0  -7     49.00    2.02  0. 1.0000     0. 
  -2   0  -7     50.31    2.06  0. 1.0000     0. 
   2   0  -7     52.24    1.93  0. 1.0000     0. 
   0  -2  -7     45.17    2.04  0. 1.0000     0. 
  -2   0  -7     49.03    1.92  0. 1.0000     0. 
  -2   0  -7     47.21    1.98  0. 1.0000     0. 
  -2   0  -7     49.10    1.91  0. 1.0000     0. 
   0   2  -7     49.76    1.86  0. 1.0000     0. 
   0  -2  -7     49.07    2.01  0. 1.0000     0. 
   0   2   7     42.79    2.12  0. 1.0000     0. 
   2   0   7     48.99    1.88  0. 1.0000     0. 
   0  -2   7     50.01    1.95  0. 1.0000     0. 
   0  -2   7     49.13    1.96  0. 1.0000     0. 
   0   2   7     48.14    2.06  0. 1.0000     0. 
   2   0   7     50.28    1.95  0. 1.0000     0. 
   0  -2   7     50.92    2.01  0. 1.0000     0. 
  -2   0   7     46.54    1.99  0. 1.0000     0. 
   2   0   7     46.59    2.17  0. 1.0000     0. 
   0  -2   7     46.31    1.98  0. 1.0000     0. 
  -2   1  -7     17.42    1.07  0. 1.0000     0. 
   2  -1  -7     16.73    1.14  0. 1.0000     0. 
  -1  -2  -7     17.46    1.14  0. 1.0000     0. 
  -1  -2  -7     17.90    1.22  0. 1.0000     0. 
   1   2  -7     17.37    1.42  0. 1.0000     0. 
  -2   1  -7     16.66    1.14  0. 1.0000     0. 
  -2   1  -7     17.62    1.35  0. 1.0000     0. 
   1   2  -7     18.34    1.04  0. 1.0000     0. 
   1   2  -7     17.28    1.12  0. 1.0000     0. 
   2  -1  -7     15.45    1.28  0. 1.0000     0. 
   1   2  -7     19.07    1.21  0. 1.0000     0. 
   2  -1  -7     18.27    0.56  0. 1.0000     0. 
  -2   1  -7     18.87    1.15  0. 1.0000     0. 
   2  -1  -7     15.84    1.06  0. 1.0000     0. 
   2  -1   7     16.77    1.15  0. 1.0000     0. 
  -2   1   7     17.78    1.21  0. 1.0000     0. 
  -1  -2   7     17.32    1.21  0. 1.0000     0. 
  -1  -2   7     17.44    1.13  0. 1.0000     0. 
  -1  -2   7     16.98    1.22  0. 1.0000     0. 
  -1  -2   7     16.48    1.10  0. 1.0000     0. 
   1   2   7     17.19    1.37  0. 1.0000     0. 
   2  -1   7     18.42    1.22  0. 1.0000     0. 
   1   2   7     18.23    1.22  0. 1.0000     0. 
   2  -1   7     18.63    1.32  0. 1.0000     0. 
   2  -2  -7     11.07    1.21  0. 1.0000     0. 
   2  -2  -7     11.66    1.06  0. 1.0000     0. 
   2   2  -7     13.38    1.37  0. 1.0000     0. 
  -2   2  -7     12.68    1.12  0. 1.0000     0. 
  -2   2  -7     12.24    1.34  0. 1.0000     0. 
   2   2  -7     12.06    1.11  0. 1.0000     0. 
  -2  -2  -7     12.62    1.17  0. 1.0000     0. 
  -2   2  -7     11.89    1.03  0. 1.0000     0. 
  -2  -2  -7     12.24    1.03  0. 1.0000     0. 
   2   2  -7     12.12    1.07  0. 1.0000     0. 
  -2   2  -7     11.74    0.96  0. 1.0000     0. 
  -2  -2   7     10.54    1.00  0. 1.0000     0. 
   2  -2   7      9.17    1.15  0. 1.0000     0. 
   2  -2   7     11.32    1.13  0. 1.0000     0. 
   2   2   7     10.63    1.30  0. 1.0000     0. 
  -2   2   7     10.59    1.14  0. 1.0000     0. 
   2  -2   7     11.80    1.06  0. 1.0000     0. 
   3   2  -7     10.37    1.11  0. 1.0000     0. 
  -3  -2  -7      8.96    1.18  0. 1.0000     0. 
  -2   3  -7     12.61    1.38  0. 1.0000     0. 
  -2   3  -7     11.01    1.18  0. 1.0000     0. 
   2  -3  -7     10.34    1.28  0. 1.0000     0. 
   2  -3  -7     12.08    1.14  0. 1.0000     0. 
   3   2  -7     11.01    1.23  0. 1.0000     0. 
  -3  -2  -7     10.54    1.05  0. 1.0000     0. 
   3   2   7     11.07    1.24  0. 1.0000     0. 
   2  -3   7      9.60    1.21  0. 1.0000     0. 
   2  -3   7     11.05    1.08  0. 1.0000     0. 
  -2   3   7     11.23    1.20  0. 1.0000     0. 
   1  -3  -7     12.71    1.13  0. 1.0000     0. 
   3   1  -7     13.60    1.12  0. 1.0000     0. 
  -3  -1  -7     11.85    1.06  0. 1.0000     0. 
  -1   3  -7     13.90    1.18  0. 1.0000     0. 
  -1   3  -7     14.91    1.48  0. 1.0000     0. 
   1  -3  -7     13.07    1.21  0. 1.0000     0. 
  -3  -1  -7     11.58    1.19  0. 1.0000     0. 
  -1   3   7     12.31    1.18  0. 1.0000     0. 
   1  -3   7     13.27    1.24  0. 1.0000     0. 
  -1   3   7     12.13    1.32  0. 1.0000     0. 
   1  -3   7     13.41    1.15  0. 1.0000     0. 
   3   1   7     10.55    1.42  0. 1.0000     0. 
  -3   0  -7     35.87    1.69  0. 1.0000     0. 
   0  -3  -7     36.10    1.70  0. 1.0000     0. 
   0   3  -7     35.76    1.68  0. 1.0000     0. 
   0   3  -7     35.81    1.93  0. 1.0000     0. 
   0  -3  -7     36.37    1.80  0. 1.0000     0. 
  -3   0  -7     35.09    1.66  0. 1.0000     0. 
  -3   0  -7     37.06    1.81  0. 1.0000     0. 
   3   0  -7     30.77    1.77  0. 1.0000     0. 
   0   3   7     35.97    1.85  0. 1.0000     0. 
   0  -3   7     37.34    1.67  0. 1.0000     0. 
   0  -3   7     36.31    1.70  0. 1.0000     0. 
   0   3   7     31.28    1.86  0. 1.0000     0. 
   1   3  -7     13.36    1.22  0. 1.0000     0. 
   1   3  -7     14.58    1.47  0. 1.0000     0. 
  -3   1  -7     13.02    1.12  0. 1.0000     0. 
  -3   1  -7     13.62    1.39  0. 1.0000     0. 
   3  -1  -7      8.52    1.14  0. 1.0000     0. 
  -1  -3  -7     11.97    1.21  0. 1.0000     0. 
  -1  -3  -7     13.87    1.16  0. 1.0000     0. 
  -1  -3   7     13.06    1.21  0. 1.0000     0. 
   1   3   7     12.74    1.19  0. 1.0000     0. 
  -1  -3   7     11.86    1.12  0. 1.0000     0. 
   1   3   7     10.49    1.34  0. 1.0000     0. 
  -2  -3  -7     10.15    1.05  0. 1.0000     0. 
  -3   2  -7     12.02    1.04  0. 1.0000     0. 
   2   3  -7     10.34    1.17  0. 1.0000     0. 
   2   3  -7      9.78    1.43  0. 1.0000     0. 
  -3   2  -7     10.32    1.37  0. 1.0000     0. 
  -2  -3  -7     10.12    1.19  0. 1.0000     0. 
  -2  -3   7      9.80    1.03  0. 1.0000     0. 
   3  -2   7      8.00    0.93  0. 1.0000     0. 
   2   3   7     10.37    1.33  0. 1.0000     0. 
  -3   3  -7     10.06    1.12  0. 1.0000     0. 
   3   3  -7      5.45    1.10  0. 1.0000     0. 
   3   3  -7      7.05    0.90  0. 1.0000     0. 
  -3  -3  -7      6.71    0.96  0. 1.0000     0. 
  -3   3  -7      9.34    1.29  0. 1.0000     0. 
  -3  -3  -7      7.32    0.87  0. 1.0000     0. 
   3   3   7      7.70    1.14  0. 1.0000     0. 
   3  -3   7      7.46    0.84  0. 1.0000     0. 
  -3   4  -7      7.51    0.93  0. 1.0000     0. 
  -2   4  -7     10.08    1.45  0. 1.0000     0. 
  -2   4  -7     10.09    1.18  0. 1.0000     0. 
   2  -4  -7      9.04    1.14  0. 1.0000     0. 
   2  -4  -7      9.90    1.05  0. 1.0000     0. 
   2  -4   7     10.35    1.25  0. 1.0000     0. 
  -2   4   7      6.73    0.96  0. 1.0000     0. 
   2  -4   7      9.95    1.16  0. 1.0000     0. 
  -1   4  -7     11.23    1.18  0. 1.0000     0. 
   1  -4  -7     10.51    1.13  0. 1.0000     0. 
   1  -4  -7     10.63    1.20  0. 1.0000     0. 
  -1   4  -7     10.07    1.45  0. 1.0000     0. 
  -1   4   7     10.69    1.18  0. 1.0000     0. 
  -1   4   7     10.28    1.33  0. 1.0000     0. 
   1  -4   7      9.47    1.19  0. 1.0000     0. 
   1  -4   7      9.20    1.28  0. 1.0000     0. 
   0   4  -7     31.41    1.62  0. 1.0000     0. 
   0  -4  -7     30.76    1.68  0. 1.0000     0. 
   0  -4  -7     27.89    1.62  0. 1.0000     0. 
   0   4  -7     28.64    1.84  0. 1.0000     0. 
   0   4   7     31.15    1.81  0. 1.0000     0. 
   0  -4   7     30.86    1.63  0. 1.0000     0. 
   0   4   7     32.07    1.78  0. 1.0000     0. 
   0  -4   7     28.17    1.57  0. 1.0000     0. 
   1   4  -7     10.10    1.24  0. 1.0000     0. 
  -1  -4  -7     10.24    1.14  0. 1.0000     0. 
   1   4  -7     11.92    1.52  0. 1.0000     0. 
  -1  -4  -7      9.56    1.25  0. 1.0000     0. 
   1   4   7     11.49    1.47  0. 1.0000     0. 
   1   4   7     10.15    1.26  0. 1.0000     0. 
  -1  -4   7      9.18    1.24  0. 1.0000     0. 
  -1  -4   7     10.03    1.15  0. 1.0000     0. 
   2   4  -7     11.35    1.51  0. 1.0000     0. 
   2   4  -7      7.67    0.92  0. 1.0000     0. 
  -2  -4  -7      8.97    1.01  0. 1.0000     0. 
  -2  -4  -7      9.15    1.06  0. 1.0000     0. 
   2   4   7      8.35    1.14  0. 1.0000     0. 
   2   4   7      8.93    1.03  0. 1.0000     0. 
  -2  -4   7      9.18    1.07  0. 1.0000     0. 
   3   4  -7     11.17    1.29  0. 1.0000     0. 
  -3  -4  -7      8.73    1.12  0. 1.0000     0. 
  -3  -4  -7      8.36    1.02  0. 1.0000     0. 
   3   4  -7     10.20    1.34  0. 1.0000     0. 
  -3  -4   7      8.59    1.05  0. 1.0000     0. 
   3   4   7      7.62    1.20  0. 1.0000     0. 
  -4  -4  -7      2.87    0.69  0. 1.0000     0. 
  -4  -4  -7      3.00    0.90  0. 1.0000     0. 
  -5  -4  -7     -0.31    0.14  0. 1.0000     0. 
  -3   5  -7     14.02    1.39  0. 1.0000     0. 
  -3   5  -7     15.81    1.58  0. 1.0000     0. 
   3  -5   7     15.81    1.35  0. 1.0000     0. 
   2  -5  -7     14.53    1.41  0. 1.0000     0. 
   2  -5  -7     14.31    1.32  0. 1.0000     0. 
  -2   5  -7     14.90    1.65  0. 1.0000     0. 
  -2   5  -7     14.63    1.36  0. 1.0000     0. 
  -2   5   7     10.29    1.29  0. 1.0000     0. 
   2  -5   7     14.77    1.34  0. 1.0000     0. 
   2  -5   7     15.21    1.46  0. 1.0000     0. 
  -2   5   7     13.05    1.40  0. 1.0000     0. 
  -1   5  -7     14.71    1.33  0. 1.0000     0. 
   1  -5  -7     13.46    1.27  0. 1.0000     0. 
  -1   5  -7     12.55    1.59  0. 1.0000     0. 
   1  -5  -7     13.41    1.30  0. 1.0000     0. 
   1  -5   7     15.50    1.40  0. 1.0000     0. 
  -1   5   7     14.73    1.33  0. 1.0000     0. 
  -1   5   7     13.45    1.49  0. 1.0000     0. 
   1  -5   7     14.83    1.33  0. 1.0000     0. 
   0  -5  -7     36.20    1.85  0. 1.0000     0. 
   0   5  -7     36.93    1.85  0. 1.0000     0. 
   0  -5  -7     35.16    1.83  0. 1.0000     0. 
   0   5  -7     39.12    2.10  0. 1.0000     0. 
   0  -5   7     36.30    1.81  0. 1.0000     0. 
   0   5   7     33.66    2.02  0. 1.0000     0. 
   0   5   7     38.75    1.95  0. 1.0000     0. 
   0  -5   7     38.05    1.85  0. 1.0000     0. 
   1   5  -7     14.03    1.66  0. 1.0000     0. 
   1   5  -7     14.78    1.35  0. 1.0000     0. 
  -1  -5  -7     12.81    1.30  0. 1.0000     0. 
  -1  -5  -7     12.49    1.20  0. 1.0000     0. 
  -1  -5   7     15.07    1.33  0. 1.0000     0. 
  -1  -5   7     15.35    1.38  0. 1.0000     0. 
   1   5   7     13.95    1.36  0. 1.0000     0. 
   1   5   7     14.35    1.54  0. 1.0000     0. 
   2   5  -7     13.49    1.33  0. 1.0000     0. 
  -2  -5  -7     14.19    1.21  0. 1.0000     0. 
  -2  -5  -7     12.50    1.32  0. 1.0000     0. 
   2   5  -7     15.23    1.67  0. 1.0000     0. 
   2   5   7     12.56    1.33  0. 1.0000     0. 
  -2  -5   7     14.28    1.28  0. 1.0000     0. 
   2   5   7     13.76    1.56  0. 1.0000     0. 
  -3  -5  -7     15.75    1.39  0. 1.0000     0. 
  -3  -5  -7     15.38    1.49  0. 1.0000     0. 
   3   5  -7     16.40    1.46  0. 1.0000     0. 
   3   5  -7     15.70    1.72  0. 1.0000     0. 
   3   5   7     16.81    1.72  0. 1.0000     0. 
  -3  -5   7     15.33    1.29  0. 1.0000     0. 
  -4  -5  -7     12.77    1.25  0. 1.0000     0. 
  -4  -5  -7     12.20    1.47  0. 1.0000     0. 
  -5  -5  -7     -0.40    0.16  0. 1.0000     0. 
  -3   6  -7      7.54    1.30  0. 1.0000     0. 
  -3   6  -7      6.19    1.03  0. 1.0000     0. 
   3  -6   7      6.38    1.27  0. 1.0000     0. 
   3  -6   7      8.19    1.05  0. 1.0000     0. 
  -2   6  -7      6.83    1.03  0. 1.0000     0. 
   2  -6  -7      7.33    1.04  0. 1.0000     0. 
   2  -6  -7      7.61    1.14  0. 1.0000     0. 
  -2   6  -7      5.22    1.33  0. 1.0000     0. 
   2  -6   7      6.36    1.01  0. 1.0000     0. 
   2  -6   7      6.68    1.14  0. 1.0000     0. 
  -2   6   7      5.19    1.03  0. 1.0000     0. 
  -2   6   7      8.77    1.30  0. 1.0000     0. 
   1  -6  -7      6.56    0.98  0. 1.0000     0. 
  -1   6  -7      5.15    0.99  0. 1.0000     0. 
  -1   6  -7      6.20    1.32  0. 1.0000     0. 
   1  -6  -7      6.14    1.05  0. 1.0000     0. 
  -1   6   7      6.47    1.04  0. 1.0000     0. 
  -1   6   7      6.72    1.21  0. 1.0000     0. 
   1  -6   7      4.23    0.93  0. 1.0000     0. 
   1  -6   7      5.96    1.08  0. 1.0000     0. 
   0   6  -7     18.92    1.77  0. 1.0000     0. 
   0  -6  -7     18.25    1.49  0. 1.0000     0. 
   0  -6  -7     18.36    1.49  0. 1.0000     0. 
   0   6  -7     20.01    1.52  0. 1.0000     0. 
   0   6   7     21.53    1.67  0. 1.0000     0. 
   0  -6   7     18.24    1.51  0. 1.0000     0. 
   0   6   7     17.02    1.68  0. 1.0000     0. 
   0  -6   7     17.31    1.49  0. 1.0000     0. 
  -1  -6  -7      7.44    0.99  0. 1.0000     0. 
   1   6  -7      6.80    1.01  0. 1.0000     0. 
   1   6  -7      8.28    1.34  0. 1.0000     0. 
  -1  -6  -7      7.18    1.03  0. 1.0000     0. 
   1   6   7      7.14    1.27  0. 1.0000     0. 
  -1  -6   7      5.74    1.02  0. 1.0000     0. 
   1   6   7      6.67    1.11  0. 1.0000     0. 
  -1  -6   7      5.46    1.02  0. 1.0000     0. 
   2   6  -7      9.48    1.42  0. 1.0000     0. 
  -2  -6  -7      5.95    1.05  0. 1.0000     0. 
  -2  -6  -7      6.76    0.93  0. 1.0000     0. 
   2   6  -7      6.90    1.05  0. 1.0000     0. 
   2   6   7      6.39    1.06  0. 1.0000     0. 
   2   6   7      7.59    1.31  0. 1.0000     0. 
  -2  -6   7      5.58    1.07  0. 1.0000     0. 
  -2  -6   7      7.02    1.00  0. 1.0000     0. 
   3   6  -7      6.09    1.08  0. 1.0000     0. 
   3   6  -7      6.43    1.46  0. 1.0000     0. 
  -3  -6  -7     10.48    1.34  0. 1.0000     0. 
  -3  -6  -7      6.51    1.07  0. 1.0000     0. 
  -3  -6   7      7.17    1.02  0. 1.0000     0. 
   3   6   7      7.80    1.39  0. 1.0000     0. 
  -4  -6  -7      7.53    1.20  0. 1.0000     0. 
  -4  -6  -7      5.92    0.98  0. 1.0000     0. 
  -5  -6  -7      0.30    0.17  0. 1.0000     0. 
  -3   7  -7     10.62    1.48  0. 1.0000     0. 
  -3   7  -7      4.89    1.09  0. 1.0000     0. 
   3  -7   7      6.41    1.04  0. 1.0000     0. 
   3  -7   7      6.74    1.29  0. 1.0000     0. 
   2  -7  -7      6.63    1.06  0. 1.0000     0. 
   2  -7  -7      8.28    1.22  0. 1.0000     0. 
  -2   7  -7      7.05    1.08  0. 1.0000     0. 
  -2   7  -7      6.39    1.39  0. 1.0000     0. 
  -2   7   7      4.94    0.96  0. 1.0000     0. 
  -2   7   7      7.71    1.33  0. 1.0000     0. 
   2  -7   7      6.50    1.03  0. 1.0000     0. 
   2  -7   7      6.27    1.21  0. 1.0000     0. 
  -1   7  -7      6.48    1.43  0. 1.0000     0. 
   1  -7  -7      8.55    1.07  0. 1.0000     0. 
   1  -7  -7      5.87    1.16  0. 1.0000     0. 
  -1   7  -7      6.54    1.07  0. 1.0000     0. 
   1  -7   7      7.31    1.02  0. 1.0000     0. 
  -1   7   7      9.14    1.35  0. 1.0000     0. 
   1  -7   7      6.97    1.15  0. 1.0000     0. 
  -1   7   7      7.87    1.16  0. 1.0000     0. 
   0  -7  -7     18.05    1.57  0. 1.0000     0. 
   0   7  -7     16.33    1.51  0. 1.0000     0. 
   0   7  -7     17.22    1.92  0. 1.0000     0. 
   0  -7  -7     19.46    1.56  0. 1.0000     0. 
   0  -7   7     17.85    1.57  0. 1.0000     0. 
   0   7   7     19.37    1.85  0. 1.0000     0. 
   0  -7   7     19.26    1.54  0. 1.0000     0. 
   0   7   7     19.72    1.73  0. 1.0000     0. 
  -1  -7  -7      6.50    1.06  0. 1.0000     0. 
   1   7  -7      7.08    1.39  0. 1.0000     0. 
  -1  -7  -7      5.56    1.07  0. 1.0000     0. 
   1   7  -7      6.70    1.08  0. 1.0000     0. 
  -1  -7   7      7.01    1.08  0. 1.0000     0. 
  -1  -7   7      8.37    1.14  0. 1.0000     0. 
   1   7   7      6.74    1.38  0. 1.0000     0. 
   1   7   7      7.08    1.21  0. 1.0000     0. 
  -2  -7  -7      8.29    1.17  0. 1.0000     0. 
   2   7  -7      7.51    1.50  0. 1.0000     0. 
   2   7  -7      6.22    1.12  0. 1.0000     0. 
  -2  -7  -7      7.72    1.04  0. 1.0000     0. 
   2   7   7      8.91    1.17  0. 1.0000     0. 
   2   7   7      8.12    1.40  0. 1.0000     0. 
  -2  -7   7      6.87    1.06  0. 1.0000     0. 
  -2  -7   7      7.44    1.18  0. 1.0000     0. 
  -3  -7  -7      7.47    1.25  0. 1.0000     0. 
   3   7  -7      8.29    1.17  0. 1.0000     0. 
   3   7  -7      6.24    1.58  0. 1.0000     0. 
  -3  -7  -7      7.80    1.21  0. 1.0000     0. 
  -3  -7   7      6.85    1.13  0. 1.0000     0. 
   3   7   7      6.40    1.22  0. 1.0000     0. 
   3   7   7     10.25    1.54  0. 1.0000     0. 
   4   7  -7     -0.40    0.74  0. 1.0000     0. 
  -4  -7  -7      1.92    0.78  0. 1.0000     0. 
  -5  -7  -7      5.42    0.28  0. 1.0000     0. 
  -3   8  -7      6.91    1.16  0. 1.0000     0. 
  -3   8  -7      8.92    1.57  0. 1.0000     0. 
   3  -8   7      8.95    1.14  0. 1.0000     0. 
   3  -8   7      8.10    1.41  0. 1.0000     0. 
   2  -8  -7      8.06    1.24  0. 1.0000     0. 
  -2   8  -7      9.24    1.53  0. 1.0000     0. 
  -2   8  -7      6.93    1.15  0. 1.0000     0. 
  -2   8   7      7.39    1.39  0. 1.0000     0. 
   2  -8   7      7.29    1.15  0. 1.0000     0. 
  -2   8   7      6.76    1.08  0. 1.0000     0. 
   2  -8   7      9.08    1.36  0. 1.0000     0. 
  -1   8  -7      6.76    1.55  0. 1.0000     0. 
   1  -8  -7      7.74    1.27  0. 1.0000     0. 
  -1   8  -7      9.07    1.17  0. 1.0000     0. 
   1  -8  -7      6.66    1.15  0. 1.0000     0. 
  -1   8   7      7.65    1.27  0. 1.0000     0. 
   1  -8   7      6.63    1.25  0. 1.0000     0. 
  -1   8   7      9.27    1.45  0. 1.0000     0. 
   1  -8   7      5.40    1.05  0. 1.0000     0. 
   0   8  -7     21.74    1.69  0. 1.0000     0. 
   0  -8  -7     17.05    1.61  0. 1.0000     0. 
   0   8  -7     16.88    2.01  0. 1.0000     0. 
   0  -8  -7     17.13    1.62  0. 1.0000     0. 
   0  -8   7     18.82    1.69  0. 1.0000     0. 
   0   8   7     19.40    1.71  0. 1.0000     0. 
   0  -8   7     18.35    1.69  0. 1.0000     0. 
   0   8   7     19.07    1.90  0. 1.0000     0. 
   1   8  -7      8.05    1.22  0. 1.0000     0. 
  -1  -8  -7      6.37    1.19  0. 1.0000     0. 
   1   8  -7      6.52    1.55  0. 1.0000     0. 
  -1  -8  -7      8.26    1.12  0. 1.0000     0. 
   1   8   7      6.72    1.20  0. 1.0000     0. 
   1   8   7      9.37    1.51  0. 1.0000     0. 
  -1  -8   7      7.60    1.16  0. 1.0000     0. 
  -1  -8   7      7.03    1.20  0. 1.0000     0. 
   2   8  -7      6.63    1.25  0. 1.0000     0. 
  -2  -8  -7      6.50    1.19  0. 1.0000     0. 
   2   8  -7      8.26    1.60  0. 1.0000     0. 
  -2  -8  -7      9.69    1.13  0. 1.0000     0. 
  -2  -8   7      8.50    1.19  0. 1.0000     0. 
   2   8   7      7.00    1.44  0. 1.0000     0. 
   2   8   7      7.97    1.30  0. 1.0000     0. 
  -2  -8   7      7.73    1.23  0. 1.0000     0. 
  -3  -8  -7      8.47    1.28  0. 1.0000     0. 
   3   8  -7      7.24    1.27  0. 1.0000     0. 
  -3  -8  -7      8.43    1.16  0. 1.0000     0. 
   3   8  -7      9.38    1.69  0. 1.0000     0. 
   3   8   7      7.78    1.27  0. 1.0000     0. 
   3   8   7      9.50    1.55  0. 1.0000     0. 
  -3  -8   7      9.76    1.23  0. 1.0000     0. 
  -3  -8   7      7.10    1.28  0. 1.0000     0. 
  -4  -8  -7      6.48    1.24  0. 1.0000     0. 
   4   8  -7      0.78    0.75  0. 1.0000     0. 
  -5  -8  -7     14.25    0.50  0. 1.0000     0. 
  -3   9  -7      8.44    1.25  0. 1.0000     0. 
  -3   9  -7      8.84    1.68  0. 1.0000     0. 
   3  -9   7      6.00    1.43  0. 1.0000     0. 
   3  -9   7      7.14    1.12  0. 1.0000     0. 
  -2   9  -7      9.55    1.75  0. 1.0000     0. 
   2  -9  -7      8.05    1.22  0. 1.0000     0. 
  -2   9  -7      8.70    1.30  0. 1.0000     0. 
   2  -9  -7     10.04    1.37  0. 1.0000     0. 
   2  -9   7      8.50    1.44  0. 1.0000     0. 
  -2   9   7     11.96    1.54  0. 1.0000     0. 
   2  -9   7      8.67    1.26  0. 1.0000     0. 
   1  -9  -7      8.57    1.33  0. 1.0000     0. 
  -1   9  -7      8.51    1.67  0. 1.0000     0. 
   1  -9  -7      8.99    1.26  0. 1.0000     0. 
  -1   9  -7      9.54    1.30  0. 1.0000     0. 
  -1   9   7      9.36    1.54  0. 1.0000     0. 
   1  -9   7      8.19    1.37  0. 1.0000     0. 
   1  -9   7      9.74    1.25  0. 1.0000     0. 
  -1   9   7      9.24    1.29  0. 1.0000     0. 
   0   9  -7     20.07    1.82  0. 1.0000     0. 
   0   9  -7     22.65    2.21  0. 1.0000     0. 
   0  -9  -7     17.99    1.69  0. 1.0000     0. 
   0  -9  -7     18.41    1.65  0. 1.0000     0. 
   0  -9   7     17.99    1.74  0. 1.0000     0. 
   0   9   7     19.08    2.01  0. 1.0000     0. 
   0   9   7     17.22    1.77  0. 1.0000     0. 
   0  -9   7     16.62    1.76  0. 1.0000     0. 
  -1  -9  -7      9.22    1.20  0. 1.0000     0. 
   1   9  -7     12.02    1.74  0. 1.0000     0. 
  -1  -9  -7     10.14    1.29  0. 1.0000     0. 
   1   9  -7      9.44    1.36  0. 1.0000     0. 
  -1  -9   7      9.31    1.29  0. 1.0000     0. 
  -1  -9   7      8.87    1.32  0. 1.0000     0. 
   1   9   7      7.43    1.36  0. 1.0000     0. 
   1   9   7      8.29    1.57  0. 1.0000     0. 
  -2  -9  -7      7.62    1.29  0. 1.0000     0. 
   2   9  -7      8.53    1.40  0. 1.0000     0. 
   2   9  -7     10.35    1.78  0. 1.0000     0. 
  -2  -9  -7      8.20    1.21  0. 1.0000     0. 
   2   9   7     12.40    1.73  0. 1.0000     0. 
  -2  -9   7     11.56    1.58  0. 1.0000     0. 
   2   9   7      9.16    1.43  0. 1.0000     0. 
  -2  -9   7      7.68    1.32  0. 1.0000     0. 
  -3  -9  -7      7.75    1.22  0. 1.0000     0. 
   3   9  -7      9.82    1.83  0. 1.0000     0. 
  -3  -9  -7      7.80    1.33  0. 1.0000     0. 
   3   9  -7      9.46    1.45  0. 1.0000     0. 
   3   9   7      9.14    1.36  0. 1.0000     0. 
  -3  -9   7     11.27    1.56  0. 1.0000     0. 
  -3  -9   7     11.03    1.45  0. 1.0000     0. 
   3   9   7     10.43    1.70  0. 1.0000     0. 
  -4  -9  -7      4.77    1.29  0. 1.0000     0. 
   4   9   7      6.34    1.34  0. 1.0000     0. 
   0  10  -7      8.03    1.78  0. 1.0000     0. 
   0  10  -7      8.14    1.40  0. 1.0000     0. 
   0 -10  -7      8.59    1.29  0. 1.0000     0. 
   0 -10  -7      7.77    1.33  0. 1.0000     0. 
   0  10   7      7.51    1.47  0. 1.0000     0. 
   0 -10   7      8.30    1.30  0. 1.0000     0. 
   0   0  -8     57.07    2.17  0. 1.0000     0. 
   0   0  -8     58.09    2.23  0. 1.0000     0. 
   0   0  -8     56.45    2.22  0. 1.0000     0. 
   0   0  -8     56.02    2.37  0. 1.0000     0. 
   0   0   8     57.13    2.46  0. 1.0000     0. 
   0   0   8     52.54    2.15  0. 1.0000     0. 
   0   0   8     51.30    2.29  0. 1.0000     0. 
   0   0   8     54.15    2.16  0. 1.0000     0. 
   0   1  -8      9.48    1.07  0. 1.0000     0. 
   1   0  -8     11.19    1.06  0. 1.0000     0. 
   1   0  -8     10.44    1.18  0. 1.0000     0. 
   0  -1  -8      9.74    1.20  0. 1.0000     0. 
   0  -1  -8      9.95    1.18  0. 1.0000     0. 
  -1   0  -8     10.23    1.12  0. 1.0000     0. 
   0   1  -8     10.46    1.09  0. 1.0000     0. 
   1   0  -8      9.96    1.07  0. 1.0000     0. 
  -1   0  -8     10.21    1.00  0. 1.0000     0. 
   1   0  -8      9.09    1.27  0. 1.0000     0. 
   0   1  -8      9.34    1.38  0. 1.0000     0. 
  -1   0  -8     10.48    1.30  0. 1.0000     0. 
   0   1  -8     11.20    1.08  0. 1.0000     0. 
  -1   0  -8      9.62    1.08  0. 1.0000     0. 
   0  -1   8     10.14    1.12  0. 1.0000     0. 
   0  -1   8      9.28    1.10  0. 1.0000     0. 
   1   0   8      9.69    1.01  0. 1.0000     0. 
   0   1   8      9.64    1.25  0. 1.0000     0. 
   1   0   8      9.44    1.14  0. 1.0000     0. 
  -1   0   8      9.47    1.17  0. 1.0000     0. 
  -1   0   8      9.60    0.97  0. 1.0000     0. 
  -1   0   8      8.92    1.13  0. 1.0000     0. 
   0  -1   8     10.98    1.33  0. 1.0000     0. 
   0   1   8      9.55    1.22  0. 1.0000     0. 
   0  -1   8     11.30    1.27  0. 1.0000     0. 
  -1   0   8     10.93    1.11  0. 1.0000     0. 
   1   0   8     10.66    1.40  0. 1.0000     0. 
   1   0   8     10.21    1.17  0. 1.0000     0. 
   1  -1  -8      1.81    0.85  0. 1.0000     0. 
  -1  -1  -8      1.52    0.77  0. 1.0000     0. 
   1   1  -8      1.05    0.77  0. 1.0000     0. 
  -1  -1  -8      0.81    0.76  0. 1.0000     0. 
   1   1  -8      1.55    1.02  0. 1.0000     0. 
  -1   1  -8      1.73    0.73  0. 1.0000     0. 
  -1   1  -8      1.60    0.72  0. 1.0000     0. 
   1   1  -8      0.34    0.67  0. 1.0000     0. 
  -1   1  -8      2.70    1.07  0. 1.0000     0. 
   1   1  -8      1.37    0.85  0. 1.0000     0. 
   1  -1  -8      2.08    0.75  0. 1.0000     0. 
  -1   1  -8      0.39    0.70  0. 1.0000     0. 
   1   1   8      2.43    1.05  0. 1.0000     0. 
  -1  -1   8      1.15    0.96  0. 1.0000     0. 
   1  -1   8      1.47    0.79  0. 1.0000     0. 
  -1  -1   8      1.45    0.82  0. 1.0000     0. 
  -1  -1   8      0.83    0.71  0. 1.0000     0. 
   1  -1   8      0.16    0.67  0. 1.0000     0. 
  -1   1   8      0.01    1.01  0. 1.0000     0. 
   1   1   8      0.68    0.78  0. 1.0000     0. 
  -1  -1   8      1.13    0.74  0. 1.0000     0. 
   1  -1   8      1.75    0.83  0. 1.0000     0. 
   1  -1   8      0.96    0.89  0. 1.0000     0. 
  -1   1   8      1.74    0.79  0. 1.0000     0. 
  -2  -1  -8      0.47    0.82  0. 1.0000     0. 
   2   1  -8      0.40    0.59  0. 1.0000     0. 
   2   1  -8      1.26    0.87  0. 1.0000     0. 
   1  -2  -8      1.14    0.77  0. 1.0000     0. 
  -2  -1  -8     -0.55    0.73  0. 1.0000     0. 
   2   1  -8      0.06    0.70  0. 1.0000     0. 
   2   1  -8      0.23    0.97  0. 1.0000     0. 
  -1   2  -8     -0.52    0.74  0. 1.0000     0. 
  -1   2  -8      1.32    1.10  0. 1.0000     0. 
   1  -2  -8      0.11    0.85  0. 1.0000     0. 
  -2  -1   8      0.31    0.95  0. 1.0000     0. 
  -1   2   8     -0.80    1.02  0. 1.0000     0. 
  -2  -1   8      0.22    0.55  0. 1.0000     0. 
   2   1   8      0.07    0.81  0. 1.0000     0. 
   2   1   8      0.49    1.04  0. 1.0000     0. 
  -2  -1   8      0.32    0.63  0. 1.0000     0. 
   1  -2   8     -0.44    0.72  0. 1.0000     0. 
   1  -2   8     -0.27    0.85  0. 1.0000     0. 
  -1   2   8     -0.08    0.79  0. 1.0000     0. 
  -2   0  -8     15.45    1.16  0. 1.0000     0. 
   0  -2  -8     12.76    1.29  0. 1.0000     0. 
   0   2  -8     14.66    1.55  0. 1.0000     0. 
   0  -2  -8     13.61    1.28  0. 1.0000     0. 
   2   0  -8     15.91    1.35  0. 1.0000     0. 
  -2   0  -8     12.41    1.23  0. 1.0000     0. 
  -2   0  -8     11.48    1.12  0. 1.0000     0. 
   2   0  -8     12.89    1.13  0. 1.0000     0. 
  -2   0  -8     12.06    1.41  0. 1.0000     0. 
   0   2  -8     13.95    1.23  0. 1.0000     0. 
   2   0  -8     12.98    1.14  0. 1.0000     0. 
   2   0   8     13.72    1.05  0. 1.0000     0. 
   0   2   8     11.08    1.47  0. 1.0000     0. 
   0  -2   8     13.51    1.20  0. 1.0000     0. 
  -2   0   8     13.92    1.24  0. 1.0000     0. 
   2   0   8     12.46    1.25  0. 1.0000     0. 
   2   0   8     13.10    1.52  0. 1.0000     0. 
   0  -2   8     13.93    1.24  0. 1.0000     0. 
   2   0   8     13.53    1.31  0. 1.0000     0. 
   0   2   8     13.59    1.35  0. 1.0000     0. 
  -2   0   8     15.19    1.48  0. 1.0000     0. 
  -2   1  -8     -0.08    0.70  0. 1.0000     0. 
  -1  -2  -8      0.65    0.81  0. 1.0000     0. 
  -1  -2  -8     -0.61    0.79  0. 1.0000     0. 
   1   2  -8      0.98    0.79  0. 1.0000     0. 
   2  -1  -8      0.35    0.72  0. 1.0000     0. 
   2  -1  -8     -0.71    0.88  0. 1.0000     0. 
  -2   1  -8     -0.43    0.74  0. 1.0000     0. 
  -2   1  -8     -0.05    0.72  0. 1.0000     0. 
   1   2  -8     -0.27    1.09  0. 1.0000     0. 
  -2   1  -8     -1.05    1.07  0. 1.0000     0. 
   2  -1   8      0.74    0.79  0. 1.0000     0. 
  -2   1   8      0.10    1.02  0. 1.0000     0. 
   2  -1   8     -0.12    0.97  0. 1.0000     0. 
  -1  -2   8     -0.45    0.82  0. 1.0000     0. 
   2  -1   8      0.60    0.86  0. 1.0000     0. 
   1   2   8     -0.85    1.04  0. 1.0000     0. 
   1   2   8     -0.19    0.83  0. 1.0000     0. 
  -2   1   8      0.00    0.79  0. 1.0000     0. 
   2  -1   8      0.85    0.66  0. 1.0000     0. 
  -1  -2   8     -0.23    0.76  0. 1.0000     0. 
   2  -2  -8      0.15    0.78  0. 1.0000     0. 
   2   2  -8      1.07    0.80  0. 1.0000     0. 
   2   2  -8     -1.38    1.10  0. 1.0000     0. 
  -2   2  -8      1.00    1.09  0. 1.0000     0. 
  -2   2  -8      1.16    0.76  0. 1.0000     0. 
   2  -2  -8      1.43    0.96  0. 1.0000     0. 
   2   2   8      1.22    0.88  0. 1.0000     0. 
   2   2   8      0.52    1.08  0. 1.0000     0. 
  -2  -2   8     -0.02    0.71  0. 1.0000     0. 
  -2   2   8      1.30    0.86  0. 1.0000     0. 
  -2   2   8     -0.18    1.04  0. 1.0000     0. 
   2  -2   8     -0.06    0.73  0. 1.0000     0. 
   2  -2   8     -0.04    0.91  0. 1.0000     0. 
   3   2  -8     -0.58    0.84  0. 1.0000     0. 
  -2   3  -8      2.30    1.27  0. 1.0000     0. 
  -3  -2  -8     -0.42    0.84  0. 1.0000     0. 
   2  -3  -8      0.48    0.82  0. 1.0000     0. 
   3   2  -8     -0.99    0.55  0. 1.0000     0. 
  -3  -2  -8     -0.31    0.90  0. 1.0000     0. 
   2  -3  -8      0.33    0.96  0. 1.0000     0. 
  -2   3  -8      1.38    0.87  0. 1.0000     0. 
  -2   3   8     -0.71    1.10  0. 1.0000     0. 
   3   2   8      0.64    1.23  0. 1.0000     0. 
   2  -3   8     -2.30    0.99  0. 1.0000     0. 
  -2   3   8      1.27    0.92  0. 1.0000     0. 
   2  -3   8      0.59    0.81  0. 1.0000     0. 
   1  -3  -8      0.60    0.80  0. 1.0000     0. 
  -1   3  -8      0.66    0.83  0. 1.0000     0. 
   1  -3  -8      1.30    0.90  0. 1.0000     0. 
   3   1  -8      0.40    0.79  0. 1.0000     0. 
  -3  -1  -8     -0.15    0.89  0. 1.0000     0. 
  -1   3  -8      2.88    1.21  0. 1.0000     0. 
   3   1  -8      1.82    0.88  0. 1.0000     0. 
  -3  -1  -8      0.84    0.77  0. 1.0000     0. 
  -1   3   8      0.28    0.86  0. 1.0000     0. 
  -1   3   8      1.42    1.10  0. 1.0000     0. 
   1  -3   8     -0.25    0.76  0. 1.0000     0. 
   1  -3   8     -1.39    0.89  0. 1.0000     0. 
   3   1   8     -0.10    1.11  0. 1.0000     0. 
   0   3  -8     10.25    1.33  0. 1.0000     0. 
   3   0  -8     10.12    1.17  0. 1.0000     0. 
   0  -3  -8      7.66    1.03  0. 1.0000     0. 
   0  -3  -8      8.17    1.01  0. 1.0000     0. 
   3   0  -8      8.40    1.05  0. 1.0000     0. 
  -3   0  -8      7.53    1.01  0. 1.0000     0. 
  -3   0  -8     10.79    1.17  0. 1.0000     0. 
   0   3  -8      8.58    0.99  0. 1.0000     0. 
   0  -3   8      8.36    1.02  0. 1.0000     0. 
   3   0   8      8.04    1.18  0. 1.0000     0. 
   0   3   8      8.12    1.07  0. 1.0000     0. 
   0  -3   8      9.53    1.19  0. 1.0000     0. 
   0   3   8     10.68    1.49  0. 1.0000     0. 
  -1  -3  -8      1.37    0.87  0. 1.0000     0. 
   1   3  -8      0.19    0.84  0. 1.0000     0. 
   3  -1  -8      3.74    1.02  0. 1.0000     0. 
  -3   1  -8      0.89    0.18  0. 1.0000     0. 
  -3   1  -8      1.65    0.84  0. 1.0000     0. 
  -3   1  -8      0.59    1.01  0. 1.0000     0. 
   1   3  -8      1.91    1.15  0. 1.0000     0. 
  -1  -3  -8      0.47    0.83  0. 1.0000     0. 
   1   3   8      1.68    0.93  0. 1.0000     0. 
   1   3   8     -0.45    1.10  0. 1.0000     0. 
  -1  -3   8      0.57    0.83  0. 1.0000     0. 
  -1  -3   8     -1.23    0.84  0. 1.0000     0. 
   3  -2  -8     -0.04    0.99  0. 1.0000     0. 
  -2  -3  -8     -0.24    0.77  0. 1.0000     0. 
   2   3  -8     -1.52    0.83  0. 1.0000     0. 
  -3   2  -8      0.09    1.04  0. 1.0000     0. 
  -2  -3  -8     -0.72    0.85  0. 1.0000     0. 
   2   3  -8     -2.51    1.16  0. 1.0000     0. 
  -3   2   8     -0.81    0.32  0. 1.0000     0. 
   3  -2   8     -0.45    0.59  0. 1.0000     0. 
   2   3   8      0.93    0.94  0. 1.0000     0. 
   2   3   8      1.22    1.09  0. 1.0000     0. 
  -2  -3   8     -0.61    0.85  0. 1.0000     0. 
  -3  -3  -8      0.17    0.95  0. 1.0000     0. 
  -3   3  -8      1.73    1.12  0. 1.0000     0. 
   3  -3  -8      0.61    0.93  0. 1.0000     0. 
  -3   3  -8      1.18    0.81  0. 1.0000     0. 
   3   3  -8      1.95    0.90  0. 1.0000     0. 
   3   3  -8     -0.11    0.82  0. 1.0000     0. 
  -3  -3  -8      1.15    0.80  0. 1.0000     0. 
   3   3   8      0.95    1.16  0. 1.0000     0. 
  -3   3   8     -0.30    0.46  0. 1.0000     0. 
   3  -3   8     -1.08    1.01  0. 1.0000     0. 
   3  -3   8      0.10    0.74  0. 1.0000     0. 
   3  -4  -8      0.13    0.97  0. 1.0000     0. 
  -3   4  -8      1.18    1.18  0. 1.0000     0. 
  -4  -3  -8      0.54    0.93  0. 1.0000     0. 
  -3   4  -8      0.65    0.88  0. 1.0000     0. 
  -4  -3  -8     -0.02    0.45  0. 1.0000     0. 
   3  -4   8     -0.62    0.84  0. 1.0000     0. 
   3  -4   8      1.21    1.08  0. 1.0000     0. 
  -3   4   8     -0.75    0.50  0. 1.0000     0. 
   2  -4  -8      2.01    0.87  0. 1.0000     0. 
  -4  -2  -8     -0.32    0.86  0. 1.0000     0. 
  -2   4  -8      3.39    0.89  0. 1.0000     0. 
  -2   4  -8      1.91    1.21  0. 1.0000     0. 
   2  -4  -8      0.41    0.98  0. 1.0000     0. 
   2  -4   8      2.01    0.89  0. 1.0000     0. 
  -2   4   8      2.09    0.95  0. 1.0000     0. 
   2  -4   8     -0.64    1.00  0. 1.0000     0. 
  -2   4   8      2.36    1.17  0. 1.0000     0. 
   1  -4  -8      0.96    0.83  0. 1.0000     0. 
   1  -4  -8      1.24    0.93  0. 1.0000     0. 
  -1   4  -8      1.17    1.26  0. 1.0000     0. 
  -1   4  -8      0.00    0.87  0. 1.0000     0. 
  -1   4   8      0.82    0.90  0. 1.0000     0. 
  -1   4   8      1.97    1.13  0. 1.0000     0. 
   1  -4   8      1.93    1.01  0. 1.0000     0. 
   1  -4   8     -0.93    0.86  0. 1.0000     0. 
   0   4  -8     19.07    1.91  0. 1.0000     0. 
   0  -4  -8     14.77    1.43  0. 1.0000     0. 
   0  -4  -8     16.18    1.45  0. 1.0000     0. 
   0   4  -8     17.36    1.50  0. 1.0000     0. 
   0  -4   8     20.61    1.53  0. 1.0000     0. 
   0   4   8     17.92    1.68  0. 1.0000     0. 
   0   4   8     17.30    1.59  0. 1.0000     0. 
   0  -4   8     17.05    1.54  0. 1.0000     0. 
   1   4  -8     -0.54    0.86  0. 1.0000     0. 
   1   4  -8      1.62    1.24  0. 1.0000     0. 
  -1  -4  -8      1.34    0.93  0. 1.0000     0. 
  -1  -4  -8      0.29    0.85  0. 1.0000     0. 
  -1  -4   8      0.59    0.91  0. 1.0000     0. 
   1   4   8      0.32    1.12  0. 1.0000     0. 
   1   4   8      0.02    0.96  0. 1.0000     0. 
  -1  -4   8      1.73    0.92  0. 1.0000     0. 
   2   4  -8      2.22    1.27  0. 1.0000     0. 
   2   4  -8      0.79    0.90  0. 1.0000     0. 
  -2  -4  -8      1.18    0.81  0. 1.0000     0. 
  -2  -4  -8      0.63    0.89  0. 1.0000     0. 
   2   4   8      1.24    0.93  0. 1.0000     0. 
  -2  -4   8      2.52    0.97  0. 1.0000     0. 
  -2  -4   8      1.14    0.87  0. 1.0000     0. 
   2   4   8      1.47    1.16  0. 1.0000     0. 
   3   4  -8      0.68    0.96  0. 1.0000     0. 
   3   4  -8      0.24    1.28  0. 1.0000     0. 
  -3  -4  -8     -0.42    0.83  0. 1.0000     0. 
  -3  -4  -8      1.38    0.94  0. 1.0000     0. 
  -3  -4   8     -0.03    0.73  0. 1.0000     0. 
   3   4   8      0.61    1.21  0. 1.0000     0. 
  -4  -4  -8      0.90    0.80  0. 1.0000     0. 
   4   4  -8      0.11    0.37  0. 1.0000     0. 
  -4  -4  -8      1.39    1.02  0. 1.0000     0. 
  -3   5  -8      4.04    1.01  0. 1.0000     0. 
  -3   5  -8      4.75    1.27  0. 1.0000     0. 
   3  -5   8      2.99    0.96  0. 1.0000     0. 
   3  -5   8      3.85    1.18  0. 1.0000     0. 
  -2   5  -8      7.53    1.39  0. 1.0000     0. 
   2  -5  -8      5.40    0.97  0. 1.0000     0. 
  -2   5  -8      4.24    1.01  0. 1.0000     0. 
   2  -5  -8      6.61    1.14  0. 1.0000     0. 
   2  -5   8      6.83    1.25  0. 1.0000     0. 
  -2   5   8      6.89    1.14  0. 1.0000     0. 
  -2   5   8      6.17    1.27  0. 1.0000     0. 
   2  -5   8      5.78    1.05  0. 1.0000     0. 
  -1   5  -8      6.45    1.40  0. 1.0000     0. 
   1  -5  -8      4.47    0.93  0. 1.0000     0. 
  -1   5  -8      7.25    1.05  0. 1.0000     0. 
   1  -5  -8      5.71    1.08  0. 1.0000     0. 
   1  -5   8      4.97    1.01  0. 1.0000     0. 
  -1   5   8      6.46    1.28  0. 1.0000     0. 
   1  -5   8      4.19    1.12  0. 1.0000     0. 
  -1   5   8      5.70    1.05  0. 1.0000     0. 
   0  -5  -8     25.08    1.72  0. 1.0000     0. 
   0   5  -8     28.69    1.74  0. 1.0000     0. 
   0   5  -8     26.20    2.06  0. 1.0000     0. 
   0  -5  -8     22.77    1.62  0. 1.0000     0. 
   0  -5   8     29.36    1.77  0. 1.0000     0. 
   0  -5   8     26.75    1.72  0. 1.0000     0. 
   0   5   8     27.39    1.83  0. 1.0000     0. 
   0   5   8     27.55    2.00  0. 1.0000     0. 
  -1  -5  -8      5.40    0.99  0. 1.0000     0. 
  -1  -5  -8      5.49    1.00  0. 1.0000     0. 
   1   5  -8      5.00    1.40  0. 1.0000     0. 
   1   5  -8      6.68    1.07  0. 1.0000     0. 
  -1  -5   8      4.67    1.05  0. 1.0000     0. 
  -1  -5   8      7.45    1.09  0. 1.0000     0. 
   1   5   8      4.59    1.06  0. 1.0000     0. 
   1   5   8      6.90    1.33  0. 1.0000     0. 
  -2  -5  -8      5.13    0.92  0. 1.0000     0. 
   2   5  -8      7.27    1.44  0. 1.0000     0. 
   2   5  -8      5.19    1.09  0. 1.0000     0. 
  -2  -5  -8      6.10    1.06  0. 1.0000     0. 
  -2  -5   8      6.91    1.15  0. 1.0000     0. 
   2   5   8      7.01    1.09  0. 1.0000     0. 
   2   5   8      6.09    1.31  0. 1.0000     0. 
  -2  -5   8      6.35    1.04  0. 1.0000     0. 
  -3  -5  -8      4.37    0.98  0. 1.0000     0. 
  -3  -5  -8      2.30    1.01  0. 1.0000     0. 
   3   5  -8      4.39    1.05  0. 1.0000     0. 
   3   5  -8      4.30    1.38  0. 1.0000     0. 
   3   5   8      3.62    1.34  0. 1.0000     0. 
  -3  -5   8      3.29    0.95  0. 1.0000     0. 
   3   5   8      2.59    1.05  0. 1.0000     0. 
  -4  -5  -8      3.45    1.13  0. 1.0000     0. 
  -4  -5  -8      4.24    1.05  0. 1.0000     0. 
  -5  -5  -8     -0.29    0.16  0. 1.0000     0. 
  -3   6  -8      1.19    0.98  0. 1.0000     0. 
  -3   6  -8      1.13    1.32  0. 1.0000     0. 
  -3   6   8      0.32    0.46  0. 1.0000     0. 
   3  -6   8      1.97    1.17  0. 1.0000     0. 
   3  -6   8      0.04    0.94  0. 1.0000     0. 
   2  -6  -8      0.75    1.09  0. 1.0000     0. 
  -2   6  -8      0.47    1.01  0. 1.0000     0. 
  -2   6  -8      0.34    1.32  0. 1.0000     0. 
   2  -6  -8      1.07    0.97  0. 1.0000     0. 
   2  -6   8     -0.29    0.98  0. 1.0000     0. 
   2  -6   8      0.40    1.18  0. 1.0000     0. 
  -2   6   8      1.24    1.28  0. 1.0000     0. 
  -2   6   8      0.72    1.04  0. 1.0000     0. 
  -1   6  -8     -0.04    1.01  0. 1.0000     0. 
   1  -6  -8      4.11    1.12  0. 1.0000     0. 
   1  -6  -8      1.33    0.97  0. 1.0000     0. 
  -1   6  -8      2.10    1.42  0. 1.0000     0. 
   1  -6   8      2.08    1.13  0. 1.0000     0. 
  -1   6   8      0.61    1.10  0. 1.0000     0. 
   1  -6   8      0.65    0.97  0. 1.0000     0. 
  -1   6   8     -0.09    1.37  0. 1.0000     0. 
   0  -6  -8      9.51    1.22  0. 1.0000     0. 
   0  -6  -8      8.95    1.17  0. 1.0000     0. 
   0   6  -8     12.47    1.60  0. 1.0000     0. 
   0   6  -8      6.77    1.17  0. 1.0000     0. 
   0  -6   8      7.64    1.20  0. 1.0000     0. 
   0  -6   8      7.25    1.17  0. 1.0000     0. 
   0   6   8     11.29    1.53  0. 1.0000     0. 
   0   6   8     10.78    1.41  0. 1.0000     0. 
  -1  -6  -8      2.40    1.05  0. 1.0000     0. 
   1   6  -8     -0.06    1.01  0. 1.0000     0. 
   1   6  -8     -0.40    1.38  0. 1.0000     0. 
  -1  -6  -8      2.11    1.07  0. 1.0000     0. 
   1   6   8      0.21    1.42  0. 1.0000     0. 
  -1  -6   8      0.13    1.02  0. 1.0000     0. 
  -1  -6   8      0.05    1.05  0. 1.0000     0. 
   1   6   8      0.93    1.21  0. 1.0000     0. 
   2   6  -8     -0.90    1.03  0. 1.0000     0. 
  -2  -6  -8      0.23    0.96  0. 1.0000     0. 
   2   6  -8     -0.13    1.35  0. 1.0000     0. 
  -2  -6  -8      0.56    1.07  0. 1.0000     0. 
   2   6   8      0.09    1.06  0. 1.0000     0. 
  -2  -6   8     -0.21    0.98  0. 1.0000     0. 
  -2  -6   8      0.59    1.14  0. 1.0000     0. 
   2   6   8      1.26    1.31  0. 1.0000     0. 
   3   6  -8     -0.21    1.01  0. 1.0000     0. 
  -3  -6  -8      0.02    1.04  0. 1.0000     0. 
  -3  -6  -8     -0.08    0.98  0. 1.0000     0. 
   3   6  -8      0.15    1.39  0. 1.0000     0. 
   3   6   8     -0.98    1.05  0. 1.0000     0. 
   3   6   8      1.07    1.33  0. 1.0000     0. 
  -3  -6   8     -0.28    0.94  0. 1.0000     0. 
  -4  -6  -8     -0.11    0.94  0. 1.0000     0. 
  -4  -6  -8     -0.22    1.10  0. 1.0000     0. 
  -5  -6  -8      2.87    0.21  0. 1.0000     0. 
  -3   7  -8      0.69    1.03  0. 1.0000     0. 
  -3   7  -8     -0.63    1.40  0. 1.0000     0. 
   3  -7   8     -1.62    0.97  0. 1.0000     0. 
   3  -7   8     -1.82    1.21  0. 1.0000     0. 
   2  -7  -8      0.45    1.12  0. 1.0000     0. 
  -2   7  -8      1.54    1.01  0. 1.0000     0. 
  -2   7  -8     -0.27    1.35  0. 1.0000     0. 
   2  -7  -8      1.23    1.01  0. 1.0000     0. 
  -2   7   8      0.09    0.94  0. 1.0000     0. 
   2  -7   8      0.48    1.17  0. 1.0000     0. 
  -2   7   8      0.37    1.33  0. 1.0000     0. 
   2  -7   8      0.69    1.01  0. 1.0000     0. 
  -1   7  -8     -0.71    0.97  0. 1.0000     0. 
   1  -7  -8     -0.08    1.03  0. 1.0000     0. 
   1  -7  -8      2.59    1.16  0. 1.0000     0. 
  -1   7  -8      2.34    1.42  0. 1.0000     0. 
  -1   7   8      1.99    1.31  0. 1.0000     0. 
   1  -7   8     -0.52    0.95  0. 1.0000     0. 
   1  -7   8      0.79    1.15  0. 1.0000     0. 
  -1   7   8      0.09    1.10  0. 1.0000     0. 
   0  -7  -8      4.39    1.10  0. 1.0000     0. 
   0   7  -8      6.21    1.18  0. 1.0000     0. 
   0   7  -8      6.08    1.55  0. 1.0000     0. 
   0  -7  -8      6.59    1.16  0. 1.0000     0. 
   0  -7   8      7.11    1.16  0. 1.0000     0. 
   0   7   8      5.55    1.24  0. 1.0000     0. 
   0   7   8      6.52    1.43  0. 1.0000     0. 
   0  -7   8      9.67    1.28  0. 1.0000     0. 
  -1  -7  -8      1.03    1.03  0. 1.0000     0. 
   1   7  -8      0.22    1.36  0. 1.0000     0. 
  -1  -7  -8     -0.04    1.07  0. 1.0000     0. 
   1   7  -8      0.18    1.04  0. 1.0000     0. 
  -1  -7   8      1.03    1.09  0. 1.0000     0. 
   1   7   8     -0.54    1.09  0. 1.0000     0. 
   1   7   8      1.44    1.43  0. 1.0000     0. 
  -1  -7   8     -0.07    1.00  0. 1.0000     0. 
   2   7  -8      0.82    1.46  0. 1.0000     0. 
   2   7  -8      0.68    1.09  0. 1.0000     0. 
  -2  -7  -8      0.21    1.08  0. 1.0000     0. 
  -2  -7  -8     -0.75    0.96  0. 1.0000     0. 
   2   7   8      0.70    1.18  0. 1.0000     0. 
  -2  -7   8     -0.26    1.10  0. 1.0000     0. 
   2   7   8     -0.54    1.32  0. 1.0000     0. 
  -2  -7   8      1.25    1.01  0. 1.0000     0. 
  -3  -7  -8     -0.30    1.13  0. 1.0000     0. 
   3   7  -8     -0.95    1.08  0. 1.0000     0. 
   3   7  -8     -0.04    1.46  0. 1.0000     0. 
  -3  -7  -8      0.98    1.04  0. 1.0000     0. 
   3   7   8      0.00    1.13  0. 1.0000     0. 
  -3  -7   8     -0.78    1.10  0. 1.0000     0. 
   3   7   8      0.90    1.42  0. 1.0000     0. 
  -3  -7   8      0.53    1.02  0. 1.0000     0. 
  -4  -7  -8      0.04    0.91  0. 1.0000     0. 
   4   7  -8      0.81    0.68  0. 1.0000     0. 
  -4  -7  -8     -0.64    1.19  0. 1.0000     0. 
   4   7   8     -0.87    1.15  0. 1.0000     0. 
  -5  -7  -8     11.71    0.43  0. 1.0000     0. 
  -3   8  -8      1.40    1.08  0. 1.0000     0. 
  -3   8  -8     -0.24    1.53  0. 1.0000     0. 
   3  -8   8      0.60    1.27  0. 1.0000     0. 
   3  -8   8      1.93    1.01  0. 1.0000     0. 
  -2   8  -8      0.00    1.50  0. 1.0000     0. 
  -2   8  -8     -1.61    1.01  0. 1.0000     0. 
   2  -8  -8     -0.63    1.07  0. 1.0000     0. 
   2  -8  -8     -1.56    1.20  0. 1.0000     0. 
  -2   8   8     -0.67    0.96  0. 1.0000     0. 
   2  -8   8      2.15    1.27  0. 1.0000     0. 
  -2   8   8      0.57    1.40  0. 1.0000     0. 
   2  -8   8     -0.66    1.01  0. 1.0000     0. 
   1  -8  -8      1.15    1.21  0. 1.0000     0. 
  -1   8  -8      1.16    1.09  0. 1.0000     0. 
   1  -8  -8      1.07    1.10  0. 1.0000     0. 
  -1   8  -8      5.71    1.65  0. 1.0000     0. 
   1  -8   8     -0.93    1.04  0. 1.0000     0. 
   1  -8   8      2.01    1.22  0. 1.0000     0. 
  -1   8   8      0.33    1.17  0. 1.0000     0. 
  -1   8   8      2.21    1.43  0. 1.0000     0. 
   0  -8  -8      1.22    1.10  0. 1.0000     0. 
   0  -8  -8      0.99    1.13  0. 1.0000     0. 
   0   8  -8      0.95    1.14  0. 1.0000     0. 
   0   8  -8      2.68    1.53  0. 1.0000     0. 
   0  -8   8      2.62    1.17  0. 1.0000     0. 
   0   8   8      0.42    1.12  0. 1.0000     0. 
   0  -8   8      1.29    1.09  0. 1.0000     0. 
   0   8   8      2.62    1.41  0. 1.0000     0. 
   1   8  -8     -2.13    1.08  0. 1.0000     0. 
   1   8  -8     -0.04    1.49  0. 1.0000     0. 
  -1  -8  -8      0.24    1.02  0. 1.0000     0. 
  -1  -8  -8     -0.97    1.10  0. 1.0000     0. 
   1   8   8      0.31    1.45  0. 1.0000     0. 
   1   8   8     -1.29    1.19  0. 1.0000     0. 
  -1  -8   8      1.52    1.14  0. 1.0000     0. 
  -1  -8   8      0.08    1.07  0. 1.0000     0. 
  -2  -8  -8     -0.20    1.00  0. 1.0000     0. 
   2   8  -8      1.15    1.51  0. 1.0000     0. 
  -2  -8  -8      0.22    1.16  0. 1.0000     0. 
   2   8  -8     -0.51    1.12  0. 1.0000     0. 
   2   8   8      0.99    1.53  0. 1.0000     0. 
  -2  -8   8      1.00    1.10  0. 1.0000     0. 
   2   8   8     -0.71    1.24  0. 1.0000     0. 
  -2  -8   8     -1.05    1.12  0. 1.0000     0. 
  -3  -8  -8      0.33    1.11  0. 1.0000     0. 
  -3  -8  -8     -1.35    1.19  0. 1.0000     0. 
   3   8  -8     -0.16    1.23  0. 1.0000     0. 
   3   8  -8     -0.91    1.55  0. 1.0000     0. 
  -3  -8   8     -0.81    1.20  0. 1.0000     0. 
   3   8   8      0.42    1.23  0. 1.0000     0. 
  -3  -8   8      0.26    1.05  0. 1.0000     0. 
  -4  -8  -8      0.26    1.21  0. 1.0000     0. 
  -4  -8  -8      1.14    0.53  0. 1.0000     0. 
   4   8   8     -0.68    1.22  0. 1.0000     0. 
   0   9  -8      4.53    1.31  0. 1.0000     0. 
   0  -9  -8      4.54    1.26  0. 1.0000     0. 
   0  -9  -8      2.80    1.21  0. 1.0000     0. 
   0   9  -8      6.39    1.72  0. 1.0000     0. 
   0  -9   8      4.26    1.22  0. 1.0000     0. 
   0   9   8      4.34    1.32  0. 1.0000     0. 
   0   0  -9      2.85    0.89  0. 1.0000     0. 
   0   0  -9      2.82    0.91  0. 1.0000     0. 
   0   0   9      2.81    1.18  0. 1.0000     0. 
   0   0   9      0.39    0.95  0. 1.0000     0. 
   0   1  -9      3.34    1.19  0. 1.0000     0. 
   0   1  -9      0.95    0.86  0. 1.0000     0. 
   1   0  -9      3.06    0.99  0. 1.0000     0. 
   0   1  -9      2.87    0.90  0. 1.0000     0. 
   0  -1  -9      2.46    0.91  0. 1.0000     0. 
   0   1  -9      2.57    0.82  0. 1.0000     0. 
  -1   0  -9      2.66    0.88  0. 1.0000     0. 
   1   0  -9      1.69    0.84  0. 1.0000     0. 
   0  -1  -9      2.51    0.94  0. 1.0000     0. 
  -1   0  -9      3.24    0.87  0. 1.0000     0. 
   0   1   9      2.60    1.03  0. 1.0000     0. 
   0  -1   9      4.77    1.17  0. 1.0000     0. 
   0  -1   9      2.85    0.94  0. 1.0000     0. 
   1   0   9      2.68    0.97  0. 1.0000     0. 
  -1   0   9      2.31    0.93  0. 1.0000     0. 
   0  -1   9      0.31    0.87  0. 1.0000     0. 
   1   0   9      4.81    1.15  0. 1.0000     0. 
  -1   0   9      2.74    1.19  0. 1.0000     0. 
   0  -1   9      3.24    0.91  0. 1.0000     0. 
   0   1   9      4.75    1.23  0. 1.0000     0. 
   1   1  -9     17.10    1.33  0. 1.0000     0. 
  -1   1  -9     16.59    1.34  0. 1.0000     0. 
   1  -1  -9     17.52    1.57  0. 1.0000     0. 
  -1   1  -9     18.44    1.35  0. 1.0000     0. 
  -1   1  -9     17.65    1.30  0. 1.0000     0. 
   1   1  -9     17.38    1.42  0. 1.0000     0. 
   1  -1  -9     16.74    1.38  0. 1.0000     0. 
  -1  -1  -9     19.27    1.41  0. 1.0000     0. 
   1   1  -9     16.05    1.42  0. 1.0000     0. 
  -1   1  -9     17.28    1.69  0. 1.0000     0. 
  -1  -1  -9     18.70    1.47  0. 1.0000     0. 
   1   1  -9     16.46    1.68  0. 1.0000     0. 
   1  -1   9     21.73    1.49  0. 1.0000     0. 
   1   1   9     16.37    1.54  0. 1.0000     0. 
   1   1   9     19.69    1.82  0. 1.0000     0. 
  -1   1   9     15.75    1.50  0. 1.0000     0. 
   1  -1   9     18.72    1.66  0. 1.0000     0. 
   1  -1   9     18.57    1.37  0. 1.0000     0. 
  -1  -1   9     17.94    1.43  0. 1.0000     0. 
  -1  -1   9     17.81    1.44  0. 1.0000     0. 
  -1   1   9     17.52    1.76  0. 1.0000     0. 
  -1  -1   9     19.71    1.68  0. 1.0000     0. 
   1  -1   9     16.57    1.50  0. 1.0000     0. 
  -1  -1   9     18.83    1.34  0. 1.0000     0. 
   1  -2  -9     21.92    1.63  0. 1.0000     0. 
  -2  -1  -9     18.61    1.54  0. 1.0000     0. 
  -1   2  -9     19.17    1.82  0. 1.0000     0. 
   1  -2  -9     20.41    1.51  0. 1.0000     0. 
   2   1  -9     16.98    1.48  0. 1.0000     0. 
  -2  -1  -9     20.08    1.47  0. 1.0000     0. 
  -1   2  -9     19.55    1.47  0. 1.0000     0. 
   2   1  -9     19.19    1.49  0. 1.0000     0. 
  -1   2   9     21.17    1.81  0. 1.0000     0. 
  -1   2   9     19.68    1.56  0. 1.0000     0. 
   2   1   9     23.73    2.03  0. 1.0000     0. 
  -2  -1   9     21.55    1.71  0. 1.0000     0. 
  -2  -1   9     20.69    1.55  0. 1.0000     0. 
   1  -2   9     18.94    1.55  0. 1.0000     0. 
   1  -2   9     19.66    1.41  0. 1.0000     0. 
   2   1   9     18.32    1.54  0. 1.0000     0. 
   2   0  -9     -0.19    0.97  0. 1.0000     0. 
  -2   0  -9      3.63    0.92  0. 1.0000     0. 
   0  -2  -9      3.42    1.00  0. 1.0000     0. 
   0   2  -9      3.89    1.26  0. 1.0000     0. 
   0   2  -9      3.39    0.95  0. 1.0000     0. 
   2   0  -9      3.07    0.86  0. 1.0000     0. 
   0  -2  -9      3.14    0.94  0. 1.0000     0. 
  -2   0  -9      3.67    0.94  0. 1.0000     0. 
   0  -2   9      2.27    0.91  0. 1.0000     0. 
   2   0   9      4.24    0.99  0. 1.0000     0. 
  -2   0   9      2.81    0.90  0. 1.0000     0. 
   2   0   9      4.26    1.22  0. 1.0000     0. 
   0  -2   9      2.67    0.96  0. 1.0000     0. 
   0   2   9      3.19    1.27  0. 1.0000     0. 
  -2   0   9      4.30    1.23  0. 1.0000     0. 
   0   2   9      2.93    1.10  0. 1.0000     0. 
  -2   1  -9     19.52    1.43  0. 1.0000     0. 
   1   2  -9     19.89    1.53  0. 1.0000     0. 
   1   2  -9     19.15    1.87  0. 1.0000     0. 
  -1  -2  -9     19.42    1.53  0. 1.0000     0. 
  -2   1  -9     20.98    1.39  0. 1.0000     0. 
  -2   1  -9     20.97    1.46  0. 1.0000     0. 
   2  -1  -9     17.77    1.63  0. 1.0000     0. 
  -2   1  -9     19.23    1.81  0. 1.0000     0. 
  -1  -2  -9     21.31    1.50  0. 1.0000     0. 
   2  -1  -9     19.10    1.44  0. 1.0000     0. 
   2  -1   9     20.66    1.59  0. 1.0000     0. 
  -2   1   9     21.96    1.77  0. 1.0000     0. 
  -1  -2   9     18.89    1.51  0. 1.0000     0. 
   1   2   9     20.84    1.90  0. 1.0000     0. 
   1   2   9     21.73    1.69  0. 1.0000     0. 
   2  -1   9     20.45    1.50  0. 1.0000     0. 
   2  -1   9     21.12    1.42  0. 1.0000     0. 
  -2   1   9     21.15    1.56  0. 1.0000     0. 
  -1  -2   9     22.67    1.50  0. 1.0000     0. 
   2  -1   9     18.44    1.84  0. 1.0000     0. 
   2   2  -9     22.47    1.63  0. 1.0000     0. 
   2  -2  -9     19.49    1.68  0. 1.0000     0. 
  -2   2  -9     22.19    1.61  0. 1.0000     0. 
   2  -2  -9     23.29    1.55  0. 1.0000     0. 
  -2   2  -9     23.74    1.88  0. 1.0000     0. 
  -2  -2  -9     23.15    1.51  0. 1.0000     0. 
  -2  -2  -9     21.43    1.64  0. 1.0000     0. 
   2   2  -9     21.07    1.92  0. 1.0000     0. 
   2   2   9     21.53    1.93  0. 1.0000     0. 
  -2  -2   9     22.40    1.48  0. 1.0000     0. 
   2  -2   9     22.42    1.53  0. 1.0000     0. 
  -2   2   9     22.81    1.86  0. 1.0000     0. 
   2   2   9     19.64    1.65  0. 1.0000     0. 
  -2   2   9     23.23    1.73  0. 1.0000     0. 
  -2  -2   9     23.17    1.65  0. 1.0000     0. 
   2  -2   9     23.82    1.65  0. 1.0000     0. 
   2  -3  -9     23.40    1.72  0. 1.0000     0. 
  -2   3  -9     23.90    1.67  0. 1.0000     0. 
  -3  -2  -9     22.70    1.71  0. 1.0000     0. 
   3   2  -9     23.57    1.64  0. 1.0000     0. 
  -2   3  -9     26.38    2.02  0. 1.0000     0. 
   2  -3  -9     23.76    1.61  0. 1.0000     0. 
  -3  -2  -9     23.06    1.59  0. 1.0000     0. 
   2  -3   9     21.74    1.63  0. 1.0000     0. 
  -2   3   9     25.56    1.95  0. 1.0000     0. 
   3   2   9     21.92    2.35  0. 1.0000     0. 
   2  -3   9     24.46    1.74  0. 1.0000     0. 
  -2   3   9     21.81    1.83  0. 1.0000     0. 
   3   2   9     21.35    1.72  0. 1.0000     0. 
  -1   3  -9     22.67    1.58  0. 1.0000     0. 
   3   1  -9     23.26    1.58  0. 1.0000     0. 
   3   1  -9     21.84    0.73  0. 1.0000     0. 
  -3  -1  -9     25.21    1.56  0. 1.0000     0. 
  -1   3  -9     24.15    1.97  0. 1.0000     0. 
  -3  -1  -9     21.42    1.61  0. 1.0000     0. 
   1  -3  -9     20.78    1.59  0. 1.0000     0. 
   3   1  -9     21.19    1.64  0. 1.0000     0. 
   1  -3  -9     21.03    1.66  0. 1.0000     0. 
   1  -3   9     21.13    1.55  0. 1.0000     0. 
   1  -3   9     22.01    1.67  0. 1.0000     0. 
  -1   3   9     21.85    1.68  0. 1.0000     0. 
   3   1   9     21.09    2.05  0. 1.0000     0. 
  -1   3   9     20.59    1.91  0. 1.0000     0. 
   0   3  -9      4.50    1.37  0. 1.0000     0. 
   0  -3  -9      3.84    1.01  0. 1.0000     0. 
   3   0  -9      6.88    1.09  0. 1.0000     0. 
   0   3  -9      5.07    1.03  0. 1.0000     0. 
  -3   0  -9      3.34    0.95  0. 1.0000     0. 
   0  -3  -9      4.51    1.01  0. 1.0000     0. 
  -3   0  -9      5.05    1.02  0. 1.0000     0. 
   0  -3   9      3.85    1.03  0. 1.0000     0. 
   0  -3   9      4.37    1.02  0. 1.0000     0. 
   0   3   9      5.89    1.20  0. 1.0000     0. 
   0   3   9      4.52    1.37  0. 1.0000     0. 
   1   3  -9     22.28    1.66  0. 1.0000     0. 
   3  -1  -9     21.10    1.69  0. 1.0000     0. 
   1   3  -9     20.96    2.03  0. 1.0000     0. 
  -1  -3  -9     21.07    1.55  0. 1.0000     0. 
  -3   1  -9     22.12    1.53  0. 1.0000     0. 
  -1  -3  -9     22.40    1.63  0. 1.0000     0. 
  -1  -3   9     20.98    1.56  0. 1.0000     0. 
   1   3   9     22.17    2.03  0. 1.0000     0. 
   1   3   9     21.14    1.77  0. 1.0000     0. 
  -1  -3   9     21.12    1.61  0. 1.0000     0. 
  -2  -3  -9     25.32    1.59  0. 1.0000     0. 
  -2  -3  -9     22.71    1.75  0. 1.0000     0. 
  -3   2  -9     26.15    1.99  0. 1.0000     0. 
   2   3  -9     24.66    2.13  0. 1.0000     0. 
   2   3  -9     26.24    1.78  0. 1.0000     0. 
  -2  -3   9     24.55    1.60  0. 1.0000     0. 
  -2  -3   9     22.80    1.74  0. 1.0000     0. 
   2   3   9     22.69    1.76  0. 1.0000     0. 
   2   3   9     28.12    2.11  0. 1.0000     0. 
   3  -2   9     24.05    1.75  0. 1.0000     0. 
  -3  -3  -9     23.38    1.85  0. 1.0000     0. 
  -3  -3  -9     23.03    1.72  0. 1.0000     0. 
  -3   3  -9     23.96    2.07  0. 1.0000     0. 
   3   3  -9     22.90    1.67  0. 1.0000     0. 
   3  -3   9     23.75    1.81  0. 1.0000     0. 
   3   3   9     22.36    1.76  0. 1.0000     0. 
   3  -3   9     20.70    1.50  0. 1.0000     0. 
   3   3   9     24.95    2.35  0. 1.0000     0. 
  -2   4  -9     13.58    1.86  0. 1.0000     0. 
   2  -4  -9     15.02    1.54  0. 1.0000     0. 
   2  -4  -9     14.67    1.58  0. 1.0000     0. 
  -2   4  -9     18.16    1.59  0. 1.0000     0. 
  -2   4   9     15.90    1.84  0. 1.0000     0. 
   2  -4   9     17.38    1.67  0. 1.0000     0. 
  -2   4   9     15.67    1.68  0. 1.0000     0. 
   2  -4   9     14.12    1.60  0. 1.0000     0. 
   1  -4  -9     14.16    1.69  0. 1.0000     0. 
  -1   4  -9     17.46    1.97  0. 1.0000     0. 
   1  -4  -9     15.67    1.54  0. 1.0000     0. 
  -1   4  -9     12.68    1.53  0. 1.0000     0. 
  -1   4   9     13.25    1.69  0. 1.0000     0. 
   1  -4   9     16.09    1.67  0. 1.0000     0. 
   1  -4   9     15.00    1.53  0. 1.0000     0. 
  -1   4   9     15.58    1.75  0. 1.0000     0. 
   0   4  -9      2.98    1.44  0. 1.0000     0. 
   0   4  -9      1.00    1.05  0. 1.0000     0. 
   0  -4  -9      3.26    1.07  0. 1.0000     0. 
   0  -4  -9      2.84    1.05  0. 1.0000     0. 
   0   4   9      1.94    1.42  0. 1.0000     0. 
   0  -4   9      2.94    1.08  0. 1.0000     0. 
   0  -4   9      2.17    1.05  0. 1.0000     0. 
   0   4   9     -0.19    1.24  0. 1.0000     0. 
   1   4  -9     14.11    1.58  0. 1.0000     0. 
  -1  -4  -9     14.18    1.52  0. 1.0000     0. 
   1   4  -9     16.03    2.15  0. 1.0000     0. 
  -1  -4  -9     15.83    1.61  0. 1.0000     0. 
   1   4   9     14.94    1.84  0. 1.0000     0. 
  -1  -4   9     18.60    1.59  0. 1.0000     0. 
   1   4   9     16.91    2.06  0. 1.0000     0. 
  -1  -4   9     14.63    1.59  0. 1.0000     0. 
  -2  -4  -9     14.88    1.63  0. 1.0000     0. 
   2   4  -9     15.05    1.63  0. 1.0000     0. 
  -2  -4  -9     16.87    1.44  0. 1.0000     0. 
   2   4  -9     17.54    1.97  0. 1.0000     0. 
  -2  -4   9     17.06    1.49  0. 1.0000     0. 
   2   4   9     17.18    2.02  0. 1.0000     0. 
  -2  -4   9     17.11    1.70  0. 1.0000     0. 
   2   4   9     16.78    1.64  0. 1.0000     0. 
  -3  -4  -9     17.86    1.66  0. 1.0000     0. 
   3   4  -9     16.68    1.58  0. 1.0000     0. 
   3   4   9     14.36    1.65  0. 1.0000     0. 
   3   4   9     20.01    2.18  0. 1.0000     0. 
  -4  -4  -9      6.87    1.19  0. 1.0000     0. 
  -4  -4  -9      3.35    0.88  0. 1.0000     0. 
  -3   5  -9      7.12    1.52  0. 1.0000     0. 
  -3   5  -9      6.65    1.16  0. 1.0000     0. 
  -5  -3  -9      4.97    0.25  0. 1.0000     0. 
   3  -5   9      8.17    1.37  0. 1.0000     0. 
   3  -5   9      5.26    1.09  0. 1.0000     0. 
   2  -5  -9      4.73    1.05  0. 1.0000     0. 
   2  -5  -9      6.63    1.21  0. 1.0000     0. 
  -2   5  -9      4.62    1.49  0. 1.0000     0. 
  -2   5  -9      4.93    1.10  0. 1.0000     0. 
   2  -5   9      5.38    1.27  0. 1.0000     0. 
   2  -5   9      4.46    1.09  0. 1.0000     0. 
  -2   5   9      4.77    1.41  0. 1.0000     0. 
  -2   5   9      3.86    1.13  0. 1.0000     0. 
   1  -5  -9      5.08    1.07  0. 1.0000     0. 
  -1   5  -9      4.00    1.08  0. 1.0000     0. 
  -1   5  -9      5.14    1.46  0. 1.0000     0. 
   1  -5  -9      4.70    1.20  0. 1.0000     0. 
   1  -5   9      5.27    1.24  0. 1.0000     0. 
   1  -5   9      4.21    1.07  0. 1.0000     0. 
  -1   5   9      5.24    1.43  0. 1.0000     0. 
  -1   5   9      4.01    1.14  0. 1.0000     0. 
   0  -5  -9      1.49    1.01  0. 1.0000     0. 
   0   5  -9      0.17    1.36  0. 1.0000     0. 
   0   5  -9     -0.25    1.04  0. 1.0000     0. 
   0  -5  -9     -0.47    0.97  0. 1.0000     0. 
   0  -5   9     -0.78    1.06  0. 1.0000     0. 
   0   5   9     -0.62    1.06  0. 1.0000     0. 
   0  -5   9      1.65    1.08  0. 1.0000     0. 
   0   5   9      1.59    1.37  0. 1.0000     0. 
  -1  -5  -9      3.68    1.06  0. 1.0000     0. 
   1   5  -9      5.30    1.54  0. 1.0000     0. 
   1   5  -9      3.29    1.10  0. 1.0000     0. 
  -1  -5  -9      4.86    1.07  0. 1.0000     0. 
   1   5   9      5.65    1.49  0. 1.0000     0. 
   1   5   9      3.47    1.16  0. 1.0000     0. 
  -1  -5   9      3.10    1.13  0. 1.0000     0. 
  -1  -5   9      2.23    1.10  0. 1.0000     0. 
  -2  -5  -9      3.76    1.04  0. 1.0000     0. 
   2   5  -9      5.33    1.18  0. 1.0000     0. 
   2   5  -9      6.56    1.53  0. 1.0000     0. 
  -2  -5  -9      2.92    1.11  0. 1.0000     0. 
  -2  -5   9      4.20    1.20  0. 1.0000     0. 
  -2  -5   9      6.10    1.12  0. 1.0000     0. 
   2   5   9      5.60    1.20  0. 1.0000     0. 
   2   5   9      4.55    1.46  0. 1.0000     0. 
  -3  -5  -9      6.46    1.23  0. 1.0000     0. 
  -3  -5  -9      6.37    1.11  0. 1.0000     0. 
   3   5  -9      7.07    1.21  0. 1.0000     0. 
   3   5  -9      6.44    1.56  0. 1.0000     0. 
   3   5   9      9.44    1.62  0. 1.0000     0. 
  -3  -5   9      3.37    1.19  0. 1.0000     0. 
   3   5   9      5.01    1.23  0. 1.0000     0. 
  -4  -5  -9      2.18    1.02  0. 1.0000     0. 
  -5  -5  -9      6.79    0.30  0. 1.0000     0. 
  -3   6  -9     11.19    1.36  0. 1.0000     0. 
  -3   6  -9     11.19    1.75  0. 1.0000     0. 
   3  -6   9     10.95    1.29  0. 1.0000     0. 
   3  -6   9     10.22    1.49  0. 1.0000     0. 
  -2   6  -9     10.44    1.67  0. 1.0000     0. 
  -2   6  -9      9.92    1.29  0. 1.0000     0. 
   2  -6  -9      8.80    1.37  0. 1.0000     0. 
   2  -6  -9     10.39    1.25  0. 1.0000     0. 
   2  -6   9     10.40    1.27  0. 1.0000     0. 
   2  -6   9     10.09    1.41  0. 1.0000     0. 
  -2   6   9      9.55    1.44  0. 1.0000     0. 
  -2   6   9     11.41    1.64  0. 1.0000     0. 
  -1   6  -9      8.96    1.25  0. 1.0000     0. 
   1  -6  -9      8.30    1.23  0. 1.0000     0. 
   1  -6  -9      9.20    1.33  0. 1.0000     0. 
  -1   6  -9      9.64    1.61  0. 1.0000     0. 
   1  -6   9      9.49    1.38  0. 1.0000     0. 
   1  -6   9      8.83    1.23  0. 1.0000     0. 
  -1   6   9     10.65    1.39  0. 1.0000     0. 
  -1   6   9      9.94    1.61  0. 1.0000     0. 
   0  -6  -9      3.37    1.12  0. 1.0000     0. 
   0   6  -9      1.59    1.12  0. 1.0000     0. 
   0  -6  -9      0.45    1.01  0. 1.0000     0. 
   0   6  -9      2.80    1.51  0. 1.0000     0. 
   0  -6   9      2.51    1.16  0. 1.0000     0. 
   0  -6   9      2.36    1.16  0. 1.0000     0. 
   0   6   9      1.37    1.14  0. 1.0000     0. 
   0   6   9      3.07    1.42  0. 1.0000     0. 
  -1  -6  -9      8.00    1.24  0. 1.0000     0. 
   1   6  -9     12.96    1.76  0. 1.0000     0. 
  -1  -6  -9      7.19    1.17  0. 1.0000     0. 
   1   6  -9     11.44    1.36  0. 1.0000     0. 
  -1  -6   9     11.86    1.59  0. 1.0000     0. 
   1   6   9      9.35    1.34  0. 1.0000     0. 
   1   6   9      9.75    1.61  0. 1.0000     0. 
  -1  -6   9      7.47    1.25  0. 1.0000     0. 
   2   6  -9     10.44    1.74  0. 1.0000     0. 
   2   6  -9     10.81    1.35  0. 1.0000     0. 
  -2  -6  -9      9.70    1.22  0. 1.0000     0. 
  -2  -6  -9      9.64    1.28  0. 1.0000     0. 
   2   6   9     10.75    1.62  0. 1.0000     0. 
  -2  -6   9      8.45    1.25  0. 1.0000     0. 
   2   6   9      9.98    1.41  0. 1.0000     0. 
  -2  -6   9      8.02    1.30  0. 1.0000     0. 
  -3  -6  -9      9.67    1.26  0. 1.0000     0. 
   3   6  -9     10.51    1.75  0. 1.0000     0. 
  -3  -6  -9      9.27    1.37  0. 1.0000     0. 
   3   6  -9      9.84    1.36  0. 1.0000     0. 
   3   6   9     10.63    1.77  0. 1.0000     0. 
  -3  -6   9      8.82    1.38  0. 1.0000     0. 
   3   6   9      9.85    1.36  0. 1.0000     0. 
  -3  -6   9     12.07    1.46  0. 1.0000     0. 
  -4  -6  -9      4.75    1.10  0. 1.0000     0. 
  -4  -6  -9      5.22    1.27  0. 1.0000     0. 
   4   6   9      3.86    1.22  0. 1.0000     0. 
  -3   7  -9      9.40    1.34  0. 1.0000     0. 
  -3   7  -9      8.45    1.77  0. 1.0000     0. 
   3  -7   9      9.24    1.27  0. 1.0000     0. 
  -2   7  -9     10.71    1.81  0. 1.0000     0. 
   2  -7  -9      7.72    1.43  0. 1.0000     0. 
  -2   7  -9      7.32    1.30  0. 1.0000     0. 
   2  -7  -9      8.11    1.27  0. 1.0000     0. 
  -2   7   9      5.22    1.10  0. 1.0000     0. 
   2  -7   9      8.52    1.46  0. 1.0000     0. 
   2  -7   9      8.94    1.32  0. 1.0000     0. 
  -1   7  -9      4.55    1.21  0. 1.0000     0. 
   1  -7  -9     10.06    1.28  0. 1.0000     0. 
   1  -7  -9      7.12    1.34  0. 1.0000     0. 
  -1   7  -9      7.56    1.73  0. 1.0000     0. 
   1  -7   9      6.79    1.21  0. 1.0000     0. 
   1  -7   9      8.07    1.39  0. 1.0000     0. 
  -1   7   9      6.88    1.33  0. 1.0000     0. 
   0  -7  -9      1.35    1.14  0. 1.0000     0. 
   0   7  -9      0.64    1.50  0. 1.0000     0. 
   0   7  -9     -0.01    1.15  0. 1.0000     0. 
   0  -7  -9      1.03    1.14  0. 1.0000     0. 
   0  -7   9      4.36    1.26  0. 1.0000     0. 
   0  -7   9      1.38    1.11  0. 1.0000     0. 
   0   7   9      2.19    1.18  0. 1.0000     0. 
  -1  -7  -9      7.88    1.32  0. 1.0000     0. 
  -1  -7  -9      6.07    1.18  0. 1.0000     0. 
   1   7  -9      7.47    1.79  0. 1.0000     0. 
   1   7  -9      6.27    1.30  0. 1.0000     0. 
   1   7   9      9.93    1.41  0. 1.0000     0. 
  -1  -7   9      9.52    1.39  0. 1.0000     0. 
  -1  -7   9      8.58    1.30  0. 1.0000     0. 
   2   7  -9      9.35    1.83  0. 1.0000     0. 
  -2  -7  -9      6.85    1.33  0. 1.0000     0. 
   2   7  -9      8.07    1.36  0. 1.0000     0. 
  -2  -7  -9      9.04    1.26  0. 1.0000     0. 
  -2  -7   9      8.42    1.38  0. 1.0000     0. 
  -2  -7   9      8.50    1.29  0. 1.0000     0. 
   2   7   9      7.35    1.48  0. 1.0000     0. 
   3   7  -9      6.67    1.34  0. 1.0000     0. 
   3   7  -9     10.13    1.83  0. 1.0000     0. 
  -3  -7  -9      7.07    1.30  0. 1.0000     0. 
  -3  -7  -9      5.66    1.33  0. 1.0000     0. 
   3   7   9      7.02    1.42  0. 1.0000     0. 
  -3  -7   9      6.32    1.43  0. 1.0000     0. 
   0   0 -10      0.42    0.93  0. 1.0000     0. 
   0   0 -10      2.18    1.02  0. 1.0000     0. 
   0   0  10     -0.32    1.02  0. 1.0000     0. 
   0   0  10     -1.50    1.33  0. 1.0000     0. 
  -1   0 -10      6.70    1.11  0. 1.0000     0. 
   1   0 -10      7.64    1.18  0. 1.0000     0. 
   0  -1 -10      7.30    1.17  0. 1.0000     0. 
   0  -1 -10      6.49    1.06  0. 1.0000     0. 
   1   0 -10      6.98    1.04  0. 1.0000     0. 
  -1   0 -10      7.77    1.09  0. 1.0000     0. 
  -1   0  10      8.22    1.19  0. 1.0000     0. 
  -1   0  10      6.08    1.50  0. 1.0000     0. 
   0   1  10      8.50    1.21  0. 1.0000     0. 
   1   0  10     10.98    1.46  0. 1.0000     0. 
   1   0  10      5.17    1.15  0. 1.0000     0. 
   0   1  10      6.34    1.49  0. 1.0000     0. 
   1  -1 -10     18.83    1.59  0. 1.0000     0. 
  -1  -1 -10     17.95    1.64  0. 1.0000     0. 
   1  -1 -10     20.69    1.71  0. 1.0000     0. 
  -1  -1 -10     22.16    1.60  0. 1.0000     0. 
   1   1  10     20.89    1.98  0. 1.0000     0. 
  -1   1  10     20.70    1.72  0. 1.0000     0. 
   1   1  10     18.49    1.78  0. 1.0000     0. 
  -1   1  10     22.84    2.08  0. 1.0000     0. 
  -1   2 -10     24.62    1.77  0. 1.0000     0. 
  -2  -1 -10     21.42    1.67  0. 1.0000     0. 
  -2  -1 -10     20.56    1.65  0. 1.0000     0. 
   1  -2 -10     22.79    1.69  0. 1.0000     0. 
   1  -2 -10     22.07    1.76  0. 1.0000     0. 
  -1   2 -10     22.40    2.10  0. 1.0000     0. 
   2   1  10     19.21    1.78  0. 1.0000     0. 
  -1   2  10     21.98    2.08  0. 1.0000     0. 
  -1   2  10     18.65    1.80  0. 1.0000     0. 
   1  -2  10     23.76    1.77  0. 1.0000     0. 
   1  -2  10     21.43    1.61  0. 1.0000     0. 
   2   1  10     20.64    2.12  0. 1.0000     0. 
   2   0 -10     11.03    1.33  0. 1.0000     0. 
   0   2 -10     13.56    2.02  0. 1.0000     0. 
   0   2 -10      7.87    1.18  0. 1.0000     0. 
   0  -2 -10      9.08    1.20  0. 1.0000     0. 
  -2   0 -10      8.52    1.13  0. 1.0000     0. 
   0  -2 -10      8.67    1.15  0. 1.0000     0. 
  -2   0 -10      8.71    1.14  0. 1.0000     0. 
   0  -2  10      9.48    1.23  0. 1.0000     0. 
   2   0  10      7.02    1.20  0. 1.0000     0. 
  -2   0  10     11.04    1.51  0. 1.0000     0. 
   2   0  10     10.33    1.58  0. 1.0000     0. 
   0   2  10     12.16    1.59  0. 1.0000     0. 
   0  -2  10     10.35    1.19  0. 1.0000     0. 
   0   2  10     11.05    1.31  0. 1.0000     0. 
   2  -1 -10     20.96    1.59  0. 1.0000     0. 
  -1  -2 -10     19.51    1.62  0. 1.0000     0. 
   1   2 -10     23.04    1.76  0. 1.0000     0. 
   1   2 -10     21.72    2.11  0. 1.0000     0. 
  -1  -2 -10     22.06    1.71  0. 1.0000     0. 
   2  -1 -10     19.38    1.77  0. 1.0000     0. 
  -1  -2  10     20.55    1.70  0. 1.0000     0. 
   1   2  10     23.10    2.11  0. 1.0000     0. 
  -1  -2  10     21.03    1.70  0. 1.0000     0. 
   1   2  10     22.20    1.88  0. 1.0000     0. 
  -2   1  10     26.50    2.03  0. 1.0000     0. 
  -2   1  10     21.91    1.79  0. 1.0000     0. 
   2   2 -10     23.06    1.81  0. 1.0000     0. 
   2  -2 -10     21.15    1.67  0. 1.0000     0. 
  -2   2 -10     27.03    2.22  0. 1.0000     0. 
  -2  -2 -10     24.83    1.69  0. 1.0000     0. 
   2   2 -10     25.56    2.10  0. 1.0000     0. 
   2  -2 -10     25.46    1.87  0. 1.0000     0. 
  -2  -2 -10     24.39    1.78  0. 1.0000     0. 
   2  -2  10     26.90    1.75  0. 1.0000     0. 
  -2   2  10     24.45    1.84  0. 1.0000     0. 
   2   2  10     25.10    1.94  0. 1.0000     0. 
   2   2  10     24.66    2.38  0. 1.0000     0. 
  -2   2  10     22.84    2.11  0. 1.0000     0. 
  -2  -2  10     22.27    1.75  0. 1.0000     0. 
   2  -3 -10     22.20    1.71  0. 1.0000     0. 
  -3  -2 -10     23.35    1.64  0. 1.0000     0. 
  -2   3 -10     23.32    2.25  0. 1.0000     0. 
  -3  -2 -10     22.91    1.82  0. 1.0000     0. 
  -2   3 -10     23.32    1.73  0. 1.0000     0. 
   2  -3 -10     22.99    1.86  0. 1.0000     0. 
   3   2 -10     21.31    1.73  0. 1.0000     0. 
   2  -3  10     24.11    1.87  0. 1.0000     0. 
   3   2  10     23.90    1.88  0. 1.0000     0. 
   2  -3  10     20.00    1.67  0. 1.0000     0. 
   3   2  10     27.44    2.40  0. 1.0000     0. 
  -2   3  10     23.25    2.10  0. 1.0000     0. 
  -2   3  10     22.28    1.86  0. 1.0000     0. 
  -1   3 -10     21.85    1.72  0. 1.0000     0. 
  -3  -1 -10     23.99    1.73  0. 1.0000     0. 
   1  -3 -10     21.21    1.79  0. 1.0000     0. 
   1  -3 -10     19.59    1.68  0. 1.0000     0. 
  -1   3 -10     20.59    2.17  0. 1.0000     0. 
  -3  -1 -10     21.85    1.71  0. 1.0000     0. 
  -1   3  10     19.70    2.11  0. 1.0000     0. 
   3   1  10     18.97    1.79  0. 1.0000     0. 
   1  -3  10     22.73    1.78  0. 1.0000     0. 
  -1   3  10     17.95    1.84  0. 1.0000     0. 
   3   1  10     22.21    2.13  0. 1.0000     0. 
   1  -3  10     19.76    1.65  0. 1.0000     0. 
   0  -3 -10      8.39    1.17  0. 1.0000     0. 
   0   3 -10     12.07    1.60  0. 1.0000     0. 
   0   3 -10     13.81    1.81  0. 1.0000     0. 
   0  -3 -10     11.03    1.44  0. 1.0000     0. 
  -3   0 -10      8.25    1.19  0. 1.0000     0. 
   0   3  10      9.27    1.59  0. 1.0000     0. 
   0  -3  10     10.26    1.31  0. 1.0000     0. 
   3   0  10      7.79    1.21  0. 1.0000     0. 
   0   3  10     10.24    1.35  0. 1.0000     0. 
   0  -3  10      7.95    1.28  0. 1.0000     0. 
   1   3 -10     20.17    2.24  0. 1.0000     0. 
   1   3 -10     19.31    1.76  0. 1.0000     0. 
  -1  -3 -10     20.06    1.78  0. 1.0000     0. 
  -1  -3 -10     21.66    1.63  0. 1.0000     0. 
   1   3  10     18.25    1.88  0. 1.0000     0. 
  -1  -3  10     24.28    1.73  0. 1.0000     0. 
  -1  -3  10     19.69    1.73  0. 1.0000     0. 
   1   3  10     21.15    2.14  0. 1.0000     0. 
  -2  -3 -10     21.81    1.78  0. 1.0000     0. 
  -2  -3 -10     20.10    1.65  0. 1.0000     0. 
   2   3 -10     21.11    2.23  0. 1.0000     0. 
   2   3 -10     22.61    1.79  0. 1.0000     0. 
  -2  -3  10     19.00    1.78  0. 1.0000     0. 
   2   3  10     21.83    1.90  0. 1.0000     0. 
   2   3  10     25.65    2.47  0. 1.0000     0. 
  -2  -3  10     24.99    1.71  0. 1.0000     0. 
  -3  -3 -10     20.22    1.60  0. 1.0000     0. 
  -3  -3 -10     20.54    1.81  0. 1.0000     0. 
   3   3 -10     17.86    1.71  0. 1.0000     0. 
  -3   3 -10     18.14    2.13  0. 1.0000     0. 
   3   3  10     18.48    1.81  0. 1.0000     0. 
   3  -3  10     20.23    1.90  0. 1.0000     0. 
   3   3  10     23.48    2.54  0. 1.0000     0. 
  -3   4 -10     17.46    2.10  0. 1.0000     0. 
   3  -4  10     11.32    1.44  0. 1.0000     0. 
   3  -4  10     18.02    1.89  0. 1.0000     0. 
  -2   4 -10     16.69    1.85  0. 1.0000     0. 
  -2   4 -10     20.93    2.27  0. 1.0000     0. 
   2  -4 -10     19.34    1.70  0. 1.0000     0. 
   2  -4 -10     18.91    1.90  0. 1.0000     0. 
  -4  -2 -10     19.97    0.71  0. 1.0000     0. 
  -2   4  10     20.48    1.85  0. 1.0000     0. 
   2  -4  10     19.42    1.79  0. 1.0000     0. 
   2  -4  10     22.86    1.89  0. 1.0000     0. 
  -2   4  10     22.82    2.10  0. 1.0000     0. 
  -4  -1 -10     19.56    0.62  0. 1.0000     0. 
   1  -4 -10     15.80    1.75  0. 1.0000     0. 
   1  -4 -10     15.67    1.69  0. 1.0000     0. 
  -1   4 -10     16.55    2.18  0. 1.0000     0. 
  -1   4 -10     15.30    1.68  0. 1.0000     0. 
  -1   4  10     20.10    1.89  0. 1.0000     0. 
  -1   4  10     21.37    2.07  0. 1.0000     0. 
   1  -4  10     17.16    1.79  0. 1.0000     0. 
   1  -4  10     19.65    1.75  0. 1.0000     0. 
   0  -4 -10      9.18    1.23  0. 1.0000     0. 
   0  -4 -10      7.50    1.24  0. 1.0000     0. 
   0   4 -10      6.34    1.30  0. 1.0000     0. 
   0   4 -10     15.67    2.27  0. 1.0000     0. 
   0  -4  10      9.03    1.35  0. 1.0000     0. 
   0   4  10     11.05    1.60  0. 1.0000     0. 
   0   4  10      9.39    1.36  0. 1.0000     0. 
   1   4 -10     16.52    1.72  0. 1.0000     0. 
  -1  -4 -10     16.09    1.62  0. 1.0000     0. 
   1   4 -10     15.97    2.22  0. 1.0000     0. 
  -1  -4 -10     14.71    1.72  0. 1.0000     0. 
   1   4  10     15.73    1.85  0. 1.0000     0. 
  -1  -4  10     13.14    1.76  0. 1.0000     0. 
  -1  -4  10     18.72    1.68  0. 1.0000     0. 
   1   4  10     15.83    2.12  0. 1.0000     0. 
  -2  -4 -10     17.32    1.76  0. 1.0000     0. 
  -2  -4 -10     18.40    1.68  0. 1.0000     0. 
   2   4 -10     19.35    1.79  0. 1.0000     0. 
   2   4 -10     17.25    2.19  0. 1.0000     0. 
   2   4  10     20.76    2.30  0. 1.0000     0. 
  -2  -4  10     19.38    1.64  0. 1.0000     0. 
   2   4  10     18.42    1.86  0. 1.0000     0. 
  -2  -4  10     18.91    1.82  0. 1.0000     0. 
   3   4 -10     17.23    1.83  0. 1.0000     0. 
  -3  -4 -10     19.03    1.69  0. 1.0000     0. 
  -3  -4 -10     17.60    1.88  0. 1.0000     0. 
   3   4  10     17.28    2.48  0. 1.0000     0. 
   3   4  10     17.07    1.81  0. 1.0000     0. 
  -4  -4 -10     -2.20    1.19  0. 1.0000     0. 
  -4  -4 -10      1.21    0.52  0. 1.0000     0. 
  -5  -3 -10     14.09    0.46  0. 1.0000     0. 
  -3   5 -10      9.82    1.80  0. 1.0000     0. 
   3  -5  10     16.48    1.85  0. 1.0000     0. 
   3  -5  10      9.31    1.27  0. 1.0000     0. 
  -2   5 -10      9.68    1.77  0. 1.0000     0. 
  -2   5 -10     10.29    1.37  0. 1.0000     0. 
   2  -5 -10     11.53    1.51  0. 1.0000     0. 
   2  -5 -10     12.29    1.54  0. 1.0000     0. 
  -2   5  10     13.03    1.74  0. 1.0000     0. 
   2  -5  10     10.66    1.49  0. 1.0000     0. 
   2  -5  10     11.14    1.38  0. 1.0000     0. 
  -1   5 -10     10.92    1.78  0. 1.0000     0. 
   1  -5 -10      8.74    1.30  0. 1.0000     0. 
   1  -5 -10      7.50    1.37  0. 1.0000     0. 
  -1   5 -10      6.75    1.24  0. 1.0000     0. 
  -1   5  10      9.65    1.72  0. 1.0000     0. 
  -1   5  10      8.22    1.42  0. 1.0000     0. 
   1  -5  10      9.99    1.29  0. 1.0000     0. 
   1  -5  10      8.37    1.40  0. 1.0000     0. 
   0   5 -10      2.72    1.16  0. 1.0000     0. 
   0  -5 -10      1.73    1.12  0. 1.0000     0. 
   0  -5 -10      4.39    1.18  0. 1.0000     0. 
   0   5 -10      4.34    1.65  0. 1.0000     0. 
   0  -5  10      4.43    1.31  0. 1.0000     0. 
   0  -5  10      4.79    1.31  0. 1.0000     0. 
   0   5  10      4.28    1.27  0. 1.0000     0. 
   0   5  10      5.64    1.58  0. 1.0000     0. 
  -1  -5 -10     11.55    1.50  0. 1.0000     0. 
   1   5 -10      8.98    1.78  0. 1.0000     0. 
  -1  -5 -10      8.84    1.30  0. 1.0000     0. 
   1   5 -10      8.47    1.32  0. 1.0000     0. 
   1   5  10     11.57    1.68  0. 1.0000     0. 
   1   5  10      6.31    1.40  0. 1.0000     0. 
  -1  -5  10     10.19    1.39  0. 1.0000     0. 
  -1  -5  10      8.02    1.32  0. 1.0000     0. 
  -2  -5 -10      9.09    1.35  0. 1.0000     0. 
  -2  -5 -10     10.01    1.30  0. 1.0000     0. 
   2   5 -10     11.48    1.38  0. 1.0000     0. 
   2   5 -10     12.59    1.86  0. 1.0000     0. 
  -2  -5  10     11.88    1.57  0. 1.0000     0. 
   2   5  10      9.37    1.46  0. 1.0000     0. 
  -2  -5  10     10.20    1.40  0. 1.0000     0. 
   3   5 -10      7.02    1.34  0. 1.0000     0. 
  -3  -5 -10      8.70    1.26  0. 1.0000     0. 
  -3  -5 -10     10.07    1.39  0. 1.0000     0. 
   3   5  10      9.43    1.44  0. 1.0000     0. 
   0  -1 -11      3.59    1.15  0. 1.0000     0. 
   0  -1 -11      1.65    1.06  0. 1.0000     0. 
   0   1  11      0.81    1.18  0. 1.0000     0. 
   0   1  11      4.47    1.51  0. 1.0000     0. 
  -1  -1 -11      2.41    1.15  0. 1.0000     0. 
   1  -1 -11      4.93    1.21  0. 1.0000     0. 
  -1  -1 -11      2.98    1.11  0. 1.0000     0. 
   1  -1 -11      4.41    1.12  0. 1.0000     0. 
   1   1  11      1.72    1.45  0. 1.0000     0. 
  -1   1  11      2.68    1.27  0. 1.0000     0. 
   1   1  11     -0.77    1.32  0. 1.0000     0. 
  -1   1  11      1.58    1.50  0. 1.0000     0. 
   1  -2 -11      2.33    1.10  0. 1.0000     0. 
  -2  -1 -11      3.18    1.18  0. 1.0000     0. 
   1  -2 -11      3.53    1.19  0. 1.0000     0. 
  -2  -1 -11      3.54    1.14  0. 1.0000     0. 
  -1   2  11      1.66    1.26  0. 1.0000     0. 
  -1   2  11      7.05    1.62  0. 1.0000     0. 
   2   1  11      2.41    1.33  0. 1.0000     0. 
   0  -2 -11      3.25    1.14  0. 1.0000     0. 
   0  -2 -11      2.38    1.12  0. 1.0000     0. 
   0   2  11      2.07    1.27  0. 1.0000     0. 
   0   2  11      7.75    1.61  0. 1.0000     0. 
  -1  -2 -11      4.28    1.11  0. 1.0000     0. 
   2  -1 -11      2.16    1.28  0. 1.0000     0. 
  -1  -2 -11      1.61    1.15  0. 1.0000     0. 
   1   2  11      0.72    1.36  0. 1.0000     0. 
   1   2  11      4.49    1.52  0. 1.0000     0. 
  -2   1  11      2.49    1.54  0. 1.0000     0. 
  -2   1  11      1.99    0.81  0. 1.0000     0. 
   0  -3 -11      0.89    1.15  0. 1.0000     0. 
-512 
#   4233 reflections output 
;
loop_
_symmetry_equiv_pos_as_xyz
x,y,z
-x,-y,-z
-y,x,z
y,-x,-z
-x,-y,z
x,y,-z
y,-x,z
-y,x,-z
-x,y,z
x,-y,-z
y,x,z
-y,-x,-z
x,-y,z
-x,y,-z
-y,-x,z
y,x,-z
loop_
_atom_site_label
_atom_site_type_symbol
_atom_site_fract_x
_atom_site_fract_y
_atom_site_fract_z
_atom_site_U_iso_or_equiv
_atom_site_occupancy
_atom_site_adp_type
_atom_site_refinement_flags_posn
_atom_site_refinement_flags_adp
_atom_site_refinement_flags_occupancy
_atom_site_disorder_assembly
_atom_site_disorder_group
_atom_site_attached_hydrogens
Zn1 Zn 0.5000 0.5000 0.3463(2) 0.0243 1.0000 Uani S T . . . .
C1 C 0.2633(11) 0.5000 0.5000 0.0395 1.0000 Uani DS TU . . . .
C2 C 0.1267(11) 0.5000 0.5000 0.0318 1.0000 Uani DS TU . . . .
C3 C 0.0630(4) 0.5000 0.3768(9) 0.0506 1.0000 Uani DS TU . . . .
C4 C 0.4118(6) 0.4118(6) 0.0801(5) 0.0363 0.3750 Uani DS U . . . .
C5 C 0.5000 0.3790(9) 0.0788(5) 0.0336 0.3750 Uani DS U . . . .
N1 N 0.5000 0.5000 0.1359 0.0202 1.0000 Uani D U . . . .
O1 O 0.3160(8) 0.5000 0.3847(7) 0.0427 1.0000 Uani DS TU . . . .
H13 H 0.3308 0.4395 0.1007 0.0468 0.3750 Uiso R . . . . .
H51 H 0.5714 0.3370 0.1104 0.0403 0.3750 Uiso R . . . . .
H53 H 0.4287 0.3370 0.1104 0.0403 0.3750 Uiso R . . . . .
H32 H 0.1059 0.5000 0.2920 0.0598 1.0000 Uiso RS . . . . .
loop_
_atom_site_aniso_label
_atom_site_aniso_U_11
_atom_site_aniso_U_22
_atom_site_aniso_U_33
_atom_site_aniso_U_23
_atom_site_aniso_U_13
_atom_site_aniso_U_12
Zn1 0.0269(13) 0.0269(13) 0.0192(12) 0.0000 0.0000 0.0000
C1 0.025(5) 0.050(11) 0.044(4) 0.0000 0.0000 0.0000
C2 0.025(4) 0.036(10) 0.034(4) 0.0000 0.0000 0.0000
C3 0.028(5) 0.090(11) 0.034(5) 0.0000 -0.001(3) 0.0000
C4 0.0444 0.0444 0.0200 0.0003 0.0003 -0.0220
C5 0.0634 0.0231 0.0143 -0.0010 0.0000 0.0000
N1 0.0221 0.0221 0.0164 0.0000 0.0000 0.0000
O1 0.020(4) 0.066(7) 0.042(4) 0.0000 -0.003(3) 0.0000
loop_
_atom_type_symbol
_atom_type_scat_dispersion_real
_atom_type_scat_dispersion_imag
_atom_type_scat_Cromer_Mann_a1
_atom_type_scat_Cromer_Mann_b1
_atom_type_scat_Cromer_Mann_a2
_atom_type_scat_Cromer_Mann_b2
_atom_type_scat_Cromer_Mann_a3
_atom_type_scat_Cromer_Mann_b3
_atom_type_scat_Cromer_Mann_a4
_atom_type_scat_Cromer_Mann_b4
_atom_type_scat_Cromer_Mann_c
_atom_type_scat_source
C 0.0033 0.0016 2.3100 20.8439 1.0200 10.2075 1.5886 0.5687 0.8650 51.6512
0.2156 'International Tables Vol C 4.2.6.8 and 6.1.1.4'
H 0.0000 0.0000 0.4930 10.5109 0.3229 26.1257 0.1402 3.1424 0.0408 57.7998
0.0030 'International Tables Vol C 4.2.6.8 and 6.1.1.4'
N 0.0061 0.0033 12.2126 0.0057 3.1322 9.8933 2.0125 28.9975 1.1663 0.5826
-11.5290 'International Tables Vol C 4.2.6.8 and 6.1.1.4'
O 0.0106 0.0060 3.0485 13.2771 2.2868 5.7011 1.5463 0.3239 0.8670 32.9089
0.2508 'International Tables Vol C 4.2.6.8 and 6.1.1.4'
Zn 0.2839 1.4301 14.0743 3.2655 7.0318 0.2333 5.1652 10.3163 2.4100 58.7097
1.3041 'International Tables Vol C 4.2.6.8 and 6.1.1.4'
loop_
_geom_angle_atom_site_label_1
_geom_angle_site_symmetry_1
_geom_angle_atom_site_label_2
_geom_angle_site_symmetry_2
_geom_angle_atom_site_label_3
_geom_angle_site_symmetry_3
_geom_angle
_geom_angle_publ_flag
Zn1 2_666 Zn1 . O1 3_655 79.52(19) yes
Zn1 2_666 Zn1 . O1 5_665 79.52(19) yes
O1 3_655 Zn1 . O1 5_665 88.10(7) yes
Zn1 2_666 Zn1 . O1 7_565 79.52(19) yes
O1 3_655 Zn1 . O1 7_565 159.0(4) yes
O1 5_665 Zn1 . O1 7_565 88.10(7) yes
Zn1 2_666 Zn1 . O1 . 79.52(19) yes
O1 3_655 Zn1 . O1 . 88.10(7) yes
O1 5_665 Zn1 . O1 . 159.0(4) yes
O1 7_565 Zn1 . O1 . 88.10(7) yes
Zn1 2_666 Zn1 . N1 . 179.99 yes
O1 3_655 Zn1 . N1 . 100.48(19) yes
O1 5_665 Zn1 . N1 . 100.48(19) yes
O1 7_565 Zn1 . N1 . 100.48(19) yes
O1 . Zn1 . N1 . 100.48(19) yes
O1 6_556 C1 . C2 . 117.3(6) yes
O1 6_556 C1 . O1 . 125.5(12) yes
C2 . C1 . O1 . 117.3(6) yes
C1 . C2 . C3 6_556 120.3(5) yes
C1 . C2 . C3 . 120.3(5) yes
C3 6_556 C2 . C3 . 119.5(11) yes
C2 . C3 . C3 5_565 120.3(5) yes
C2 . C3 . H32 . 120.0 no
C3 5_565 C3 . H32 . 119.7 no
C4 6_555 C4 . H13 11_555 102.0 no
C4 6_555 C4 . H53 11_555 109.2 no
H13 11_555 C4 . H53 11_555 114.5 no
C4 6_555 C4 . H51 9_655 109.3 no
H13 11_555 C4 . H51 9_655 9.4 no
H53 11_555 C4 . H51 9_655 105.8 no
C4 6_555 C4 . H51 7_565 109.3 no
H13 11_555 C4 . H51 7_565 114.4 no
H53 11_555 C4 . H51 7_565 0.1 no
H51 9_655 C4 . H51 7_565 105.7 no
C4 6_555 C4 . N1 . 111.6(2) yes
H13 11_555 C4 . N1 . 108.9 no
H53 11_555 C4 . N1 . 110.4 no
H51 9_655 C4 . N1 . 110.4 no
H51 7_565 C4 . N1 . 110.4 no
C4 6_555 C4 . H13 . 102.0 no
H13 11_555 C4 . H13 . 122.8 no
H53 11_555 C4 . H13 . 9.4 no
H51 9_655 C4 . H13 . 114.4 no
H51 7_565 C4 . H13 . 9.4 no
C4 6_555 C4 . H53 . 109.2 no
H13 11_555 C4 . H53 . 9.4 no
H53 11_555 C4 . H53 . 105.9 no
H51 9_655 C4 . H53 . 0.1 no
H51 7_565 C4 . H53 . 105.8 no
N1 . C4 . H13 . 108.9 no
N1 . C4 . H53 . 110.4 no
H13 . C4 . H53 . 114.5 no
C5 6_555 C5 . H51 9_655 108.6 no
C5 6_555 C5 . H53 9_655 108.7 no
H51 9_655 C5 . H53 9_655 109.4 no
C5 6_555 C5 . H51 . 108.6 no
H51 9_655 C5 . H51 . 109.5 no
H53 9_655 C5 . H51 . 0.0 no
C5 6_555 C5 . H53 . 108.7 no
H51 9_655 C5 . H53 . 0.0 no
H53 9_655 C5 . H53 . 109.4 no
H51 . C5 . H53 . 109.4 no
C5 6_555 C5 . N1 . 112.7(2) yes
H51 9_655 C5 . N1 . 108.7 no
H53 9_655 C5 . N1 . 108.7 no
H51 . C5 . N1 . 108.7 no
H53 . C5 . N1 . 108.7 no
C4 5_665 N1 . C4 . 136.8(5) yes
C4 5_665 N1 . C4 3_655 82.21(16) yes
C4 . N1 . C4 3_655 82.21(16) yes
C4 5_665 N1 . C4 13_565 82.21(16) yes
C4 . N1 . C4 13_565 82.21(16) yes
C4 3_655 N1 . C4 13_565 136.8(5) yes
C4 5_665 N1 . C5 3_655 41.54(5) yes
C4 . N1 . C5 3_655 117.7(2) yes
C4 3_655 N1 . C5 3_655 41.54(5) yes
C4 13_565 N1 . C5 3_655 117.7(2) yes
C4 5_665 N1 . C5 5_665 41.54(5) yes
C4 . N1 . C5 5_665 117.7(2) yes
C4 3_655 N1 . C5 5_665 117.7(2) yes
C4 13_565 N1 . C5 5_665 41.54(5) yes
C5 3_655 N1 . C5 5_665 81.46(17) yes
C4 5_665 N1 . C5 11_555 117.7(2) yes
C4 . N1 . C5 11_555 41.54(5) yes
C4 3_655 N1 . C5 11_555 117.7(2) yes
C4 13_565 N1 . C5 11_555 41.54(5) yes
C5 3_655 N1 . C5 11_555 134.7(5) yes
C4 5_665 N1 . Zn1 . 111.6(2) yes
C4 . N1 . Zn1 . 111.6(2) yes
C4 3_655 N1 . Zn1 . 111.6(2) yes
C4 13_565 N1 . Zn1 . 111.6(2) yes
C5 3_655 N1 . Zn1 . 112.7(2) yes
C4 5_665 N1 . C5 . 117.7(2) yes
C4 . N1 . C5 . 41.54(5) yes
C4 3_655 N1 . C5 . 41.54(5) yes
C4 13_565 N1 . C5 . 117.7(2) yes
C5 3_655 N1 . C5 . 81.46(17) yes
C5 5_665 N1 . C5 11_555 81.46(17) yes
C5 5_665 N1 . Zn1 . 112.7(2) yes
C5 11_555 N1 . Zn1 . 112.7(2) yes
C5 5_665 N1 . C5 . 134.7(5) yes
C5 11_555 N1 . C5 . 81.46(17) yes
Zn1 . N1 . C5 . 112.7(2) yes
Zn1 . O1 . C1 . 127.7(7) yes
C5 . H51 . C4 9_655 67.7 no
C5 . H53 . C4 . 67.7 no
loop_
_geom_bond_atom_site_label_1
_geom_bond_site_symmetry_1
_geom_bond_atom_site_label_2
_geom_bond_site_symmetry_2
_geom_bond_distance
_geom_bond_publ_flag
Zn1 . Zn1 2_666 2.991(4) yes
Zn1 . O1 3_655 2.056(8) yes
Zn1 . O1 5_665 2.056(8) yes
Zn1 . O1 7_565 2.056(8) yes
Zn1 . O1 . 2.056(8) yes
Zn1 . N1 . 2.047(2) yes
C1 . O1 6_556 1.262(7) yes
C1 . C2 . 1.501(9) yes
C1 . O1 . 1.262(7) yes
C2 . C3 6_556 1.388(7) yes
C2 . C3 . 1.388(7) yes
C3 . C3 5_565 1.384(9) yes
C3 . H32 . 0.950 no
C4 . C4 6_555 1.559(9) yes
C4 . H13 11_555 0.962 no
C4 . H53 11_555 0.893 no
C4 . H51 9_655 0.892 no
C4 . H51 7_565 0.892 no
C4 . N1 . 1.473(9) yes
C4 . H13 . 0.962 no
C4 . H53 . 0.893 no
C5 . C5 6_555 1.533(9) yes
C5 . H51 9_655 0.961 no
C5 . H53 9_655 0.960 no
C5 . H51 . 0.961 no
C5 . H53 . 0.960 no
C5 . N1 . 1.440(9) yes
loop_
_platon_squeeze_void_nr
_platon_squeeze_void_average_x
_platon_squeeze_void_average_y
_platon_squeeze_void_average_z
_platon_squeeze_void_volume
_platon_squeeze_void_count_electrons
_platon_squeeze_void_content
1 -0.002 -0.002 -0.020 720 211 '8.1 (C2 O H6)'
