#------------------------------------------------------------------------------
#$Date: 2021-10-07 11:27:23 +0300 (Thu, 07 Oct 2021) $
#$Revision: 269844 $
#$URL: file:///home/coder/svn-repositories/cod/cif/1/56/48/1564880.cif $
#------------------------------------------------------------------------------
#
# This file is available in the Crystallography Open Database (COD),
# http://www.crystallography.net/
#
# All data on this site have been placed in the public domain by the
# contributors.
#
data_1564880
loop_
_publ_author_name
'Murphy, Jaime M.'
'Gaertner, Andrea A.E.'
'Owen, Amanda M.'
'Struder, Samantha'
'McMillen, Colin D.'
'Wetzler, Modi'
'Brumaghim, Julia L.'
_publ_section_title
;
 Coordination complexes of methimazole with copper: Controlling redox
 reactions and sulfur extrusion
;
_journal_name_full               'Inorganica Chimica Acta'
_journal_page_first              119568
_journal_paper_doi               10.1016/j.ica.2020.119568
_journal_volume                  507
_journal_year                    2020
_chemical_formula_sum            'C16 H26 Cu N8 O10 S4'
_chemical_formula_weight         682.23
_space_group_crystal_system      triclinic
_space_group_IT_number           2
_space_group_name_Hall           '-P 1'
_space_group_name_H-M_alt        'P -1'
_atom_sites_solution_hydrogens   mixed
_atom_sites_solution_primary     dual
_atom_sites_solution_secondary   difmap
_audit_creation_method           SHELXL-2016/6
_cell_angle_alpha                84.5081(19)
_cell_angle_beta                 87.5770(19)
_cell_angle_gamma                89.586(2)
_cell_formula_units_Z            1
_cell_length_a                   8.0915(4)
_cell_length_b                   8.6847(5)
_cell_length_c                   9.5541(5)
_cell_measurement_reflns_used    9796
_cell_measurement_temperature    298(2)
_cell_measurement_theta_max      30.53
_cell_measurement_theta_min      2.52
_cell_volume                     667.71(6)
_computing_cell_refinement       'Bruker SAINT'
_computing_data_collection       'Bruker APEX3'
_computing_data_reduction        'Bruker SAINT'
_computing_molecular_graphics    'Bruker SHELXTL'
_computing_publication_material  'Bruker SHELXTL'
_computing_structure_refinement  'SHELXL-2014 (Sheldrick 2014)'
_computing_structure_solution    'SHELXT-2014 (Sheldrick 2014)'
_diffrn_ambient_temperature      298(2)
_diffrn_measured_fraction_theta_full 0.987
_diffrn_measured_fraction_theta_max 0.991
_diffrn_measurement_device_type  'Bruker D8 Venture Photon 100'
_diffrn_measurement_method       '\f and \w scans'
_diffrn_radiation_type           MoK\a
_diffrn_radiation_wavelength     0.71073
_diffrn_reflns_av_R_equivalents  0.0232
_diffrn_reflns_av_unetI/netI     0.0135
_diffrn_reflns_Laue_measured_fraction_full 0.987
_diffrn_reflns_Laue_measured_fraction_max 0.991
_diffrn_reflns_limit_h_max       11
_diffrn_reflns_limit_h_min       -11
_diffrn_reflns_limit_k_max       12
_diffrn_reflns_limit_k_min       -12
_diffrn_reflns_limit_l_max       13
_diffrn_reflns_limit_l_min       -13
_diffrn_reflns_number            29160
_diffrn_reflns_point_group_measured_fraction_full 0.987
_diffrn_reflns_point_group_measured_fraction_max 0.991
_diffrn_reflns_theta_full        25.242
_diffrn_reflns_theta_max         30.531
_diffrn_reflns_theta_min         2.143
_diffrn_source                   'Incoatec I\mS'
_exptl_absorpt_coefficient_mu    1.197
_exptl_absorpt_correction_T_max  1.0000
_exptl_absorpt_correction_T_min  0.9401
_exptl_absorpt_correction_type   multi-scan
_exptl_absorpt_process_details   'SADABS, Bruker'
_exptl_crystal_colour            blue
_exptl_crystal_density_diffrn    1.697
_exptl_crystal_density_meas      .
_exptl_crystal_density_method    .
_exptl_crystal_description       column
_exptl_crystal_F_000             351
_exptl_crystal_size_max          0.339
_exptl_crystal_size_mid          0.065
_exptl_crystal_size_min          0.046
_exptl_transmission_factor_max   .
_exptl_transmission_factor_min   .
_refine_diff_density_max         0.626
_refine_diff_density_min         -0.470
_refine_diff_density_rms         0.138
_refine_ls_extinction_coef       .
_refine_ls_extinction_method     none
_refine_ls_goodness_of_fit_ref   1.160
_refine_ls_hydrogen_treatment    mixed
_refine_ls_matrix_type           full
_refine_ls_number_parameters     188
_refine_ls_number_reflns         4055
_refine_ls_number_restraints     3
_refine_ls_restrained_S_all      1.160
_refine_ls_R_factor_all          0.0354
_refine_ls_R_factor_gt           0.0292
_refine_ls_shift/su_max          0.000
_refine_ls_shift/su_mean         0.000
_refine_ls_structure_factor_coef Fsqd
_refine_ls_weighting_details
'w=1/[\s^2^(Fo^2^)+(0.0518P)^2^+0.2618P] where P=(Fo^2^+2Fc^2^)/3'
_refine_ls_weighting_scheme      calc
_refine_ls_wR_factor_gt          0.0861
_refine_ls_wR_factor_ref         0.1006
_reflns_Friedel_coverage         0.000
_reflns_Friedel_fraction_full    .
_reflns_Friedel_fraction_max     .
_reflns_number_gt                3698
_reflns_number_total             4055
_reflns_threshold_expression     'I > 2\s(I)'
_cod_data_source_file            4.cif
_cod_data_source_block           4
_cod_database_code               1564880
_shelx_shelxl_version_number     2016/6
_shelx_space_group_comment
;
The symmetry employed for this shelxl refinement is uniquely defined
by the following loop, which should always be used as a source of
symmetry information in preference to the above space-group names.
They are only intended as comments.
;
_shelx_estimated_absorpt_t_min   0.687
_shelx_estimated_absorpt_t_max   0.947
_shelx_res_file
;
TITL d8-3765_a.res in P-1
    d8-3765_a.res
    created by SHELXL-2016/6 at 13:29:16 on 19-Sep-2019
REM Old TITL d8-3765 in P-1
REM SHELXT solution in P-1
REM R1 0.121,  Rweak 0.007,  Alpha 0.051,  Orientation as input
REM Formula found by SHELXT:  C24 Cu N4 O6 S4
CELL  0.71073   8.0915   8.6847   9.5541   84.5081   87.577   89.586
ZERR    1.000   0.0004   0.0005   0.0005    0.0019    0.0019    0.002
LATT  1
SFAC C H CU N O S
UNIT 16 26 1 8 10 4
TEMP 25
SIZE 0.046 0.065 0.339
L.S. 10
BOND $H
LIST 4
ACTA
FMAP 2
EQIV $2 -x+2, -y, -z+2
HTAB O1 O2_$2
EQIV $3 -x+2, -y, -z+1
HTAB O5W O4_$3
HTAB O5W O4
dfix 0.85 o5w h5a
dfix 0.85 o5w h5b
dang 1.40 h5a h5b
PLAN 20
WGHT    0.051800    0.261800
FVAR       1.47801
CU1   3    0.500000    0.000000    0.500000    10.50000    0.02953    0.02517 =
         0.02487   -0.00294   -0.00215    0.00921
S1    6    0.185357    0.280108    0.435899    11.00000    0.02493    0.03745 =
         0.03822   -0.00557   -0.00420    0.01019
S2    6    0.991600    0.145158    0.814476    11.00000    0.03082    0.04713 =
         0.03500   -0.00576   -0.00029    0.00078
O1    5    0.847595    0.144258    0.927257    11.00000    0.04062    0.08729 =
         0.05210    0.00589    0.01232    0.01889
AFIX  83
H1    2    0.840447    0.058183    0.970511    11.00000   -1.50000
AFIX   0
O2    5    1.141335    0.106798    0.889960    11.00000    0.03074    0.07773 =
         0.05238   -0.00904   -0.00630    0.00040
O3    5    0.991621    0.299769    0.746176    11.00000    0.07051    0.05267 =
         0.08571    0.00926    0.01205    0.00691
O4    5    0.954686    0.029338    0.722361    11.00000    0.06813    0.07223 =
         0.05022   -0.02122   -0.00621   -0.01349
O5W   5    0.787550    0.089997    0.458470    11.00000    0.03412    0.03781 =
         0.05336   -0.00450   -0.00480    0.00531
H5A   2    0.844471    0.059008    0.392440    11.00000    0.07233
H5B   2    0.838528    0.084539    0.533545    11.00000    0.06600
N1    4    0.439974    0.117974    0.318116    11.00000    0.02847    0.03020 =
         0.02721   -0.00067   -0.00096    0.00643
N2    4    0.304461    0.272398    0.165578    11.00000    0.04348    0.03346 =
         0.03062   -0.00139   -0.01123    0.00623
N3    4    0.451032    0.192853    0.595557    11.00000    0.02751    0.02868 =
         0.02971   -0.00581   -0.00318    0.00662
N4    4    0.348120    0.422477    0.631085    11.00000    0.03683    0.02395 =
         0.03934   -0.00621    0.00369    0.00130
C1    1    0.317030    0.219185    0.301944    11.00000    0.02744    0.02672 =
         0.02959   -0.00266   -0.00544    0.00277
C2    1    0.510966    0.108076    0.185598    11.00000    0.03820    0.03927 =
         0.02935   -0.00413    0.00304    0.00687
AFIX  43
H2    2    0.602068    0.047325    0.164422    11.00000   -1.20000
AFIX   0
C3    1    0.426770    0.201032    0.091113    11.00000    0.05358    0.04390 =
         0.02693   -0.00163   -0.00238    0.00564
AFIX  43
H3    2    0.447799    0.214036   -0.005738    11.00000   -1.20000
AFIX   0
C4    1    0.179447    0.379784    0.107413    11.00000    0.07525    0.05669 =
         0.04535   -0.00370   -0.02672    0.03025
AFIX 137
H4A   2    0.074910    0.327892    0.109268    11.00000   -1.50000
H4B   2    0.211651    0.415674    0.012069    11.00000   -1.50000
H4C   2    0.169673    0.466315    0.162700    11.00000   -1.50000
AFIX   0
C5    1    0.335969    0.297483    0.559216    11.00000    0.02614    0.02411 =
         0.02978   -0.00368    0.00083    0.00325
C6    1    0.541703    0.255708    0.694571    11.00000    0.03239    0.04129 =
         0.03307   -0.00711   -0.00634    0.00221
AFIX  43
H6    2    0.632263    0.209191    0.738414    11.00000   -1.20000
AFIX   0
C7    1    0.478100    0.396041    0.718005    11.00000    0.04235    0.03746 =
         0.03911   -0.01267   -0.00244   -0.00591
AFIX  43
H7    2    0.515417    0.461941    0.781011    11.00000   -1.20000
AFIX   0
C8    1    0.242704    0.560203    0.622061    11.00000    0.06102    0.02667 =
         0.06006   -0.00800    0.00528    0.01238
AFIX 137
H8A   2    0.215490    0.586897    0.525918    11.00000   -1.50000
H8B   2    0.300402    0.644610    0.655735    11.00000   -1.50000
H8C   2    0.143000    0.539540    0.678607    11.00000   -1.50000
AFIX   0
HKLF 4
REM  d8-3765_a.res in P-1
REM R1 =  0.0292 for    3698 Fo > 4sig(Fo)  and  0.0354 for all    4055 data
REM    188 parameters refined using      3 restraints
END
WGHT      0.0508      0.2652
REM Highest difference peak  0.626,  deepest hole -0.470,  1-sigma level  0.138
Q1    1   0.9994  0.0622  0.8013  11.00000  0.05    0.63
Q2    1   0.9556  0.2199  0.6975  11.00000  0.05    0.46
Q3    1   0.8399  0.0599  0.8942  11.00000  0.05    0.46
Q4    1   0.4959  0.1893  0.1273  11.00000  0.05    0.44
Q5    1   0.1411  0.3509  0.0355  11.00000  0.05    0.39
Q6    1   1.0195 -0.0402  0.7665  11.00000  0.05    0.38
Q7    1   0.9246  0.1393  0.8635  11.00000  0.05    0.36
Q8    1   1.1129  0.0284  0.8633  11.00000  0.05    0.34
Q9    1   0.2956  0.2366  0.2203  11.00000  0.05    0.34
Q10   1   0.2575  0.4888  0.0665  11.00000  0.05    0.32
Q11   1   0.3656  0.2266  0.1261  11.00000  0.05    0.31
Q12   1   0.2518  0.3123  0.1422  11.00000  0.05    0.30
Q13   1   0.3295  0.4570  0.0201  11.00000  0.05    0.30
Q14   1   0.4844  0.2759  0.0053  11.00000  0.05    0.30
Q15   1   1.0917  0.1546  0.9273  11.00000  0.05    0.30
Q16   1   0.8737  0.1151  0.9981  11.00000  0.05    0.29
Q17   1   0.8685  0.0692  0.9994  11.00000  0.05    0.29
Q18   1   1.1387  0.1002  0.9397  11.00000  0.05    0.29
Q19   1   0.3687  0.2091 -0.0201  11.00000  0.05    0.29
Q20   1   0.1291  0.4394  0.1691  11.00000  0.05    0.28
;
_shelx_res_checksum              1478
_shelx_hkl_file
;
  -1   0   0  758.42   16.10
  -1   0   0  690.73   14.50
   1   0   0  673.43   13.80
   1   0   0  684.33   13.90
   1   0   0  755.22   13.60
   1   0   0  711.73   13.60
   1   0   0  728.53   12.80
  -3   0   0 4235.48   72.49
  -3   0   0 4348.06   75.19
  -3   0   0 4244.08   71.09
  -3   0   0 4315.07   74.39
  -3   0   0 4133.19   73.79
  -3   0   0 4277.07   73.19
  -3   0   0 4189.88   73.99
  -3   0   0 4088.79   72.99
  -3   0   0 4089.39   74.89
  -3   0   0 4324.87   72.19
   3   0   0 4085.69   74.69
   3   0   0 4220.28   70.99
   3   0   0 4220.48   71.99
   3   0   0 4092.39   72.79
  -4   0   0 4013.80   72.89
  -4   0   0 3934.21   75.29
  -4   0   0 4166.18   76.19
  -4   0   0 4037.00   74.19
  -4   0   0 4083.49   68.19
  -4   0   0 4095.59   74.99
  -4   0   0 4086.09   72.89
  -4   0   0 4098.69   74.39
  -4   0   0 4189.78   71.69
  -4   0   0 3960.90   73.89
  -4   0   0 4049.89   70.29
  -4   0   0 4134.29   72.29
   4   0   0 4058.49   71.39
   4   0   0 4057.69   75.69
   4   0   0 4043.10   70.09
   4   0   0 3998.80   72.59
   4   0   0 4114.09   73.19
   4   0   0 4037.30   75.09
  -5   0   0  226.38   10.70
  -5   0   0  234.58   11.20
  -5   0   0  237.68   11.40
  -5   0   0  223.38   10.40
  -5   0   0  238.98   10.10
  -5   0   0  229.98   10.70
  -5   0   0  264.47   12.10
  -5   0   0  247.48    9.50
  -5   0   0  254.67   10.00
  -5   0   0  243.28   10.40
  -5   0   0  247.58    7.30
   5   0   0  247.38   10.30
   5   0   0  256.77   11.70
   5   0   0  239.78   10.00
   5   0   0  246.48    9.40
   5   0   0  234.08   11.60
   5   0   0  252.37    8.70
  -6   0   0 5731.13  107.79
  -6   0   0 5732.73  103.49
  -6   0   0 5705.53  103.19
  -6   0   0 5742.63  105.59
  -6   0   0 5632.14   95.09
  -6   0   0 5796.02  101.99
  -6   0   0 5696.33  105.39
  -6   0   0 5706.63  100.79
  -6   0   0 5710.93  107.09
  -6   0   0 5702.83  104.79
  -6   0   0 5747.83  106.49
   6   0   0 5461.25  112.29
   6   0   0 5677.73  103.09
   6   0   0 5677.63   98.29
   6   0   0 5715.33  100.89
   6   0   0 5553.54  107.29
  -7   0   0    3.10    2.70
  -7   0   0    8.30    2.40
  -7   0   0    2.80    2.10
  -7   0   0    9.70    1.60
  -7   0   0    3.90    2.30
  -7   0   0    4.40    2.00
  -7   0   0    4.30    2.40
  -7   0   0    1.60    1.50
  -7   0   0    4.50    2.20
  -7   0   0    7.30    3.00
  -7   0   0    6.90    2.10
   7   0   0    4.10    1.50
   7   0   0    4.10    2.60
   7   0   0    5.30    2.40
   7   0   0    6.70    2.50
  -8   0   0    0.30    1.40
  -8   0   0    5.10    2.00
  -8   0   0    2.40    2.10
  -8   0   0    3.10    2.40
  -8   0   0    5.70    3.00
   8   0   0    5.60    2.90
   8   0   0    2.40    2.10
   8   0   0    7.10    2.10
   8   0   0    5.40    2.60
  -9   0   0   25.10    5.40
  -9   0   0   14.30    3.30
  -9   0   0   21.00    5.30
   9   0   0   12.00    4.10
   9   0   0   23.90    3.50
   9   0   0   15.80    4.50
 -10   0   0  131.29   10.60
 -10   0   0  131.69   11.90
  10   0   0  134.49   13.10
  10   0   0  117.59    6.90
  10   0   0  148.59   14.70
 -11   0   0   10.30    3.80
 -11   0   0    6.30    3.70
  11   0   0    8.30    4.10
  11  -1   0   95.19   12.50
  11  -1   0  118.99   12.20
 -11   1   0  114.59   12.50
 -11   1   0  109.09   10.70
  10  -1   0   16.90    4.90
  10  -1   0   10.20    4.60
  10  -1   0   16.50    3.60
 -10   1   0    8.00    3.00
 -10   1   0   16.60    4.90
   9  -1   0  458.65   15.70
   9  -1   0  461.25   23.00
   9  -1   0  468.05   22.20
   9  -1   0  454.85   20.40
  -9   1   0  460.65   22.40
  -9   1   0  469.15   20.50
   8  -1   0  139.39   10.20
   8  -1   0  146.79   11.30
   8  -1   0  126.79    7.70
   8  -1   0  163.78   12.70
  -8   1   0  141.79   11.20
  -8   1   0  151.28    9.90
  -8   1   0  149.09   10.70
  -8   1   0  133.79    9.90
   7  -1   0  560.44   20.50
   7  -1   0  583.24   22.10
   7  -1   0  602.24   23.10
   7  -1   0  561.74   19.90
   7  -1   0  561.14   17.00
  -7   1   0  625.74   35.00
  -7   1   0  580.44   21.90
  -7   1   0  546.65   21.80
  -7   1   0  586.24   26.80
  -7   1   0  563.74   19.00
  -7   1   0  551.04   21.30
  -7   1   0  563.94   20.40
   6  -1   0  194.98   11.60
   6  -1   0  202.78    8.80
   6  -1   0  197.18   10.70
   6  -1   0  185.88   11.90
   6  -1   0  194.88   10.30
  -6   1   0  210.28   10.80
  -6   1   0  209.68   10.90
  -6   1   0  202.18   11.60
  -6   1   0  203.18    5.90
  -6   1   0  189.18   11.20
  -6   1   0  181.98   10.50
  -6   1   0  194.38   11.50
  -6   1   0  203.58    8.00
  -6   1   0  194.98   11.00
   5  -1   0  913.01   20.00
   5  -1   0  902.31   25.50
   5  -1   0  916.41   26.20
   5  -1   0  899.91   24.00
   5  -1   0  907.41   24.40
   5  -1   0  902.11   21.60
  -5   1   0  942.61   25.20
  -5   1   0  885.51   24.00
  -5   1   0  913.01   20.00
  -5   1   0  913.51   25.80
  -5   1   0  932.11   24.40
  -5   1   0  923.11   17.90
  -5   1   0  925.31   26.00
  -5   1   0  925.81   24.90
   4  -1   0  252.97    7.40
   4  -1   0  248.48    6.50
   4  -1   0  244.38   10.10
   4  -1   0  256.97   10.70
   4  -1   0  259.47    8.80
   4  -1   0  244.48   10.80
   4  -1   0  240.28   10.00
  -4   1   0  250.17   10.70
  -4   1   0  249.97   10.70
  -4   1   0  257.37    7.50
  -4   1   0  250.87   10.10
  -4   1   0  255.87   10.50
  -4   1   0  245.88    6.50
  -4   1   0  250.27   10.10
  -4   1   0  255.17   10.20
   3  -1   0 1496.35   32.40
   3  -1   0 1535.45   31.70
   3  -1   0 1556.94   27.00
   3  -1   0 1538.45   27.20
   3  -1   0 1580.44   32.40
   3  -1   0 1476.55   29.60
   3  -1   0 1518.15   31.30
  -3   1   0 1508.35   32.20
  -3   1   0 1538.95   31.50
  -3   1   0 1454.55   31.10
  -3   1   0 1587.24   27.30
  -3   1   0 1555.14   31.80
  -3   1   0 1530.55   26.90
   2  -1   0 3188.78   57.29
   2  -1   0 3223.78   56.89
   2  -1   0 3330.57   53.69
   2  -1   0 3137.09   57.19
   2  -1   0 3096.49   56.79
  -2   1   0 3340.57   57.09
  -2   1   0 3314.87   52.59
  -3  -1   0 2361.56   44.50
  -3  -1   0 2471.75   45.30
  -3  -1   0 2431.86   45.20
  -3  -1   0 2377.26   44.70
  -3  -1   0 2355.86   46.10
  -3  -1   0 2429.26   43.70
  -3  -1   0 2455.05   42.00
  -3  -1   0 2451.05   44.80
  -3  -1   0 2440.06   46.20
  -3  -1   0 2358.06   43.20
  -3  -1   0 2421.56   43.20
   3   1   0 2370.76   43.90
   3   1   0 2313.57   45.80
   3   1   0 2446.66   41.80
   3   1   0 2374.86   45.40
   3   1   0 2375.16   45.10
   3   1   0 2239.78   44.80
   3   1   0 2303.77   45.70
  -4  -1   0 3098.29   58.99
  -4  -1   0 3166.48   61.19
  -4  -1   0 3152.18   55.49
  -4  -1   0 3227.78   57.69
  -4  -1   0 3143.49   61.19
  -4  -1   0 3176.28   59.39
  -4  -1   0 3309.57   57.89
  -4  -1   0 3229.78   55.39
  -4  -1   0 3036.10   59.39
  -4  -1   0 3171.58   59.39
  -4  -1   0 3172.88   59.09
  -4  -1   0 3139.59   57.39
   4   1   0 3134.59   58.99
   4   1   0 3123.19   60.89
   4   1   0 3120.39   54.89
   4   1   0 3084.29   60.59
  -5  -1   0  163.98    9.50
  -5  -1   0  166.18    6.50
  -5  -1   0  170.18    9.60
  -5  -1   0  174.38    9.10
  -5  -1   0  161.58    8.30
  -5  -1   0  165.18    7.80
  -5  -1   0  175.68    8.10
  -5  -1   0  178.18    9.00
  -5  -1   0  166.08    6.60
  -5  -1   0  186.68    9.30
  -5  -1   0  175.98    8.10
  -5  -1   0  168.48    8.90
   5   1   0  155.08    9.20
   5   1   0  177.28    6.60
   5   1   0  166.98    9.60
   5   1   0  167.88    8.50
  -6  -1   0 1033.40   30.30
  -6  -1   0 1069.99   23.20
  -6  -1   0 1072.69   26.50
  -6  -1   0 1095.59   24.00
  -6  -1   0 1065.29   33.20
  -6  -1   0 1047.80   29.40
  -6  -1   0 1098.09   29.10
  -6  -1   0 1062.59   27.00
  -6  -1   0 1040.20   30.50
  -6  -1   0 1101.09   27.90
  -6  -1   0 1072.09   27.00
  -6  -1   0 1074.79   28.60
   6   1   0 1096.99   30.40
   6   1   0 1106.49   31.00
   6   1   0 1087.39   27.80
   6   1   0 1041.80   23.20
  -7  -1   0  248.58   11.60
  -7  -1   0  256.97   13.30
  -7  -1   0  244.08   12.10
  -7  -1   0  251.77   14.40
  -7  -1   0  267.87   12.40
  -7  -1   0  290.47   12.70
  -7  -1   0  284.67   14.20
  -7  -1   0  276.87    9.30
  -7  -1   0  271.37   17.00
  -7  -1   0  261.37   14.50
   7   1   0  261.67    9.50
   7   1   0  278.97   15.20
   7   1   0  278.87   14.60
   7   1   0  269.67   12.80
  -8  -1   0  451.75   19.60
  -8  -1   0  425.16   17.20
  -8  -1   0  460.25   17.80
  -8  -1   0  425.36   12.20
  -8  -1   0  440.76   17.30
   8   1   0  447.56   21.00
   8   1   0  440.96   13.40
   8   1   0  467.55   20.80
  -9  -1   0  178.38   12.80
  -9  -1   0  162.68   10.90
  -9  -1   0  187.28   13.10
  -9  -1   0  158.18   10.90
  -9  -1   0  166.78   10.90
   9   1   0  179.48    7.90
   9   1   0  174.18   13.20
 -10  -1   0  183.48   12.30
 -10  -1   0  167.78   13.70
  10   1   0  179.68   14.20
 -11  -1   0   -0.60    2.10
 -11  -1   0   -0.60    2.40
 -11  -1   0    5.50    3.20
  11   1   0   -0.80    2.90
  11  -2   0  438.96   24.20
  11  -2   0  413.66   25.00
 -11   2   0  437.76   22.40
 -11   2   0  414.36   23.80
  10  -2   0   18.40    5.20
  10  -2   0    9.90    4.10
  10  -2   0   16.20    4.80
  10  -2   0   19.40    4.30
 -10   2   0    9.30    3.70
 -10   2   0   21.80    5.70
   9  -2   0  232.18   14.60
   9  -2   0  214.38   14.70
   9  -2   0  225.68   18.30
   9  -2   0  222.28   13.30
  -9   2   0  206.78   15.20
  -9   2   0  213.78   14.00
   8  -2   0 1124.89   36.40
   8  -2   0 1109.59   34.00
   8  -2   0 1099.79   35.10
   8  -2   0 1095.59   29.00
  -8   2   0 1063.29   30.80
  -8   2   0 1157.08   36.20
  -8   2   0 1130.59   33.80
   7  -2   0 2040.00   47.70
   7  -2   0 1922.01   48.90
   7  -2   0 2001.10   43.20
   7  -2   0 2006.20   48.50
   7  -2   0 1983.20   50.19
  -7   2   0 1954.30   47.30
  -7   2   0 2030.00   55.39
  -7   2   0 1895.71   46.80
  -7   2   0 2016.00   49.99
   6  -2   0 1005.30   28.90
   6  -2   0 1050.69   30.70
   6  -2   0  992.00   19.40
   6  -2   0  963.30   28.00
   6  -2   0  995.50   25.50
   6  -2   0  987.80   29.50
  -6   2   0 1014.70   28.70
  -6   2   0  961.50   27.90
  -6   2   0 1090.59   31.30
  -6   2   0  971.90   29.70
  -6   2   0 1020.40   32.70
  -6   2   0 1001.40   29.50
   5  -2   0  272.07   12.80
   5  -2   0  301.17   11.30
   5  -2   0  263.47   12.00
   5  -2   0  291.97   13.50
   5  -2   0  298.27   13.00
   5  -2   0  289.47    7.90
  -5   2   0  288.57   13.10
  -5   2   0  276.47   12.30
  -5   2   0  271.17   13.40
  -5   2   0  289.37   12.70
  -5   2   0  309.97   13.00
  -5   2   0  289.67   12.40
   4  -2   0  344.47   11.80
   4  -2   0  344.77    9.00
   4  -2   0  352.66   13.50
   4  -2   0  340.47   13.10
   4  -2   0  334.67   13.10
   4  -2   0  347.27   12.90
  -4   2   0  346.47   13.40
  -4   2   0  359.46   13.20
  -4   2   0  354.66   13.00
  -4   2   0  349.47   12.90
   3  -2   0  351.36    9.00
   3  -2   0  356.46   12.20
   3  -2   0  323.17   11.70
   3  -2   0  355.36   12.20
  -3   2   0  339.17   11.70
  -3   2   0  343.37   11.80
  -3   2   0  349.47   11.90
   2  -2   0    9.10    1.60
   2  -2   0    8.60    1.70
   2  -2   0   10.30    1.80
   2  -2   0    8.50    1.20
  -2   2   0   11.40    1.90
  -2   2   0    6.40    1.50
  -2   2   0   10.10    1.60
  -2   2   0    5.80    1.60
   1  -2   0 4030.40   64.99
  -1   2   0 3847.42   67.89
   0  -2   0 1502.95   29.20
   0  -2   0 1541.45   28.60
   0  -2   0 1568.24   28.40
   0  -2   0 1564.34   28.30
   0   2   0 1546.15   29.10
   0   2   0 1543.45   28.20
   0   2   0 1558.04   28.40
   0   2   0 1525.95   28.60
  -1  -2   0  979.00   17.60
  -1  -2   0  923.21   19.60
  -1  -2   0  941.11   19.80
  -1  -2   0  986.70   16.50
  -1  -2   0 1006.10   21.00
  -1  -2   0 1021.10   18.70
   1   2   0  994.30   19.70
   1   2   0  994.90   16.60
   1   2   0  986.40   18.90
   1   2   0  969.30   19.80
   1   2   0  958.60   19.80
   1   2   0  992.40   17.80
   1   2   0  985.30   21.10
  -2  -2   0 3843.02   65.89
  -2  -2   0 3835.22   67.29
  -2  -2   0 3816.22   62.79
   2   2   0 3721.83   65.59
   2   2   0 3614.14   64.99
   2   2   0 3719.43   65.39
   2   2   0 3774.92   67.39
   2   2   0 3691.23   63.99
  -3  -2   0 2743.53   50.89
  -3  -2   0 2691.93   52.39
  -3  -2   0 2765.52   48.40
  -3  -2   0 2752.12   48.10
  -3  -2   0 2787.62   49.90
  -3  -2   0 2655.53   51.49
  -3  -2   0 2732.43   49.80
  -3  -2   0 2791.82   49.10
  -3  -2   0 2802.42   50.79
  -3  -2   0 2749.62   52.89
   3   2   0 2728.63   51.19
   3   2   0 2695.63   50.19
   3   2   0 2722.03   50.09
   3   2   0 2714.43   52.49
   3   2   0 2665.93   50.99
   3   2   0 2620.44   52.19
  -4  -2   0  614.64   15.20
  -4  -2   0  624.94   16.50
  -4  -2   0  610.24   17.20
  -4  -2   0  596.84   15.30
  -4  -2   0  606.24   16.70
  -4  -2   0  622.94   18.40
  -4  -2   0  589.24   17.40
  -4  -2   0  623.94   14.80
  -4  -2   0  622.14   18.90
  -4  -2   0  584.84   18.10
  -4  -2   0  631.74   17.60
   4   2   0  642.14   18.20
   4   2   0  598.94   16.70
   4   2   0  576.64   17.90
   4   2   0  623.74   18.80
   4   2   0  616.44   17.80
  -5  -2   0 2253.77   49.00
  -5  -2   0 2256.37   48.00
  -5  -2   0 2251.37   47.40
  -5  -2   0 2271.37   46.50
  -5  -2   0 2282.97   47.50
  -5  -2   0 2225.78   43.70
  -5  -2   0 2302.17   46.20
  -5  -2   0 2251.27   42.20
  -5  -2   0 2179.78   44.50
  -5  -2   0 2214.88   46.60
  -5  -2   0 2247.98   49.60
  -5  -2   0 2251.07   44.10
   5   2   0 2255.17   49.10
   5   2   0 2165.08   47.40
   5   2   0 2235.98   41.70
   5   2   0 2237.58   45.80
   5   2   0 2221.48   47.80
  -6  -2   0  369.36   16.80
  -6  -2   0  390.46   12.60
  -6  -2   0  388.36   16.80
  -6  -2   0  404.56   15.30
  -6  -2   0  395.76   15.30
  -6  -2   0  375.46   13.30
  -6  -2   0  372.66   17.70
  -6  -2   0  406.96   15.90
  -6  -2   0  386.86   19.80
  -6  -2   0  394.16   13.70
  -6  -2   0  388.26   13.80
  -6  -2   0  390.16   11.90
   6   2   0  401.66   16.00
   6   2   0  401.06   16.90
   6   2   0  389.86   11.50
  -7  -2   0   62.29    7.20
  -7  -2   0   63.29    6.80
  -7  -2   0   65.79    6.60
  -7  -2   0   72.79    6.20
  -7  -2   0   65.39    4.60
  -7  -2   0   64.29    5.60
  -7  -2   0   69.69    7.70
  -7  -2   0   66.59    5.90
  -7  -2   0   68.49    5.10
  -7  -2   0   65.49    6.70
  -7  -2   0   77.99    7.50
   7   2   0   63.89    6.90
   7   2   0   71.39    7.70
  -8  -2   0  619.94   21.00
  -8  -2   0  625.64   23.10
  -8  -2   0  678.63   23.80
  -8  -2   0  650.23   21.20
  -8  -2   0  675.63   18.40
  -8  -2   0  691.03   21.90
  -8  -2   0  650.33   24.40
   8   2   0  673.93   26.10
   8   2   0  642.24   23.40
  -9  -2   0   87.09    7.80
  -9  -2   0   93.79    5.90
  -9  -2   0   97.29    9.30
  -9  -2   0   97.39    9.80
  -9  -2   0  100.99    8.50
   9   2   0   99.19   10.40
 -10  -2   0    3.30    2.60
 -10  -2   0    4.10    1.40
 -10  -2   0    0.20    2.50
 -10  -2   0    2.70    2.50
 -10  -2   0    0.10    1.30
  10   2   0    4.10    3.20
 -11  -2   0   32.50    6.60
 -11  -2   0   39.80    6.40
 -11  -2   0   27.30    6.80
  11   2   0   39.90    8.50
  11  -3   0   90.79   12.50
  11  -3   0   88.69   11.40
  11  -3   0  107.29   11.90
 -11   3   0  101.89   12.30
 -11   3   0  104.89   11.30
  10  -3   0  119.99   11.80
  10  -3   0  110.19   12.30
  10  -3   0  108.49    9.00
  10  -3   0  137.89   12.90
 -10   3   0  120.59   12.70
 -10   3   0  115.99   11.40
   9  -3   0   42.90    7.80
   9  -3   0   51.99    6.20
   9  -3   0   48.90    7.80
   9  -3   0   49.30    7.30
  -9   3   0   45.60    7.00
  -9   3   0   66.79    9.00
   8  -3   0    3.70    2.20
   8  -3   0    9.80    2.90
   8  -3   0    6.10    2.80
   8  -3   0    5.20    2.60
  -8   3   0   18.60    4.70
  -8   3   0   15.80    4.40
   7  -3   0 2551.74   59.49
   7  -3   0 2670.63   61.49
   7  -3   0 2553.34   60.19
   7  -3   0 2540.05   61.39
   7  -3   0 2664.03   55.89
  -7   3   0 2590.14   59.49
  -7   3   0 2756.12   62.49
   6  -3   0    5.70    1.30
   6  -3   0    3.30    1.80
   6  -3   0    2.20    1.50
   6  -3   0    4.60    2.30
   6  -3   0    3.60    1.80
   6  -3   0    6.40    2.00
  -6   3   0    4.10    2.00
  -6   3   0    2.60    1.60
  -6   3   0    6.00    2.60
  -6   3   0    5.30    1.80
  -6   3   0    6.00    2.30
  -6   3   0    5.00    2.70
  -6   3   0    3.60    1.70
   5  -3   0  742.93   23.10
   5  -3   0  757.62   17.10
   5  -3   0  707.73   27.20
   5  -3   0  783.72   22.10
   5  -3   0  744.93   24.40
   5  -3   0  755.72   23.80
  -5   3   0  724.53   23.00
  -5   3   0  761.22   24.80
  -5   3   0  717.63   22.70
  -5   3   0  742.63   22.70
  -5   3   0  758.32   23.40
  -5   3   0  737.03   23.70
   4  -3   0  456.65   16.20
   4  -3   0  459.35   16.50
   4  -3   0  456.05   16.10
   4  -3   0  467.65   12.30
  -4   3   0  446.06   16.90
  -4   3   0  456.35   15.70
  -4   3   0  442.16   16.00
  -4   3   0  465.45   16.10
   3  -3   0  149.19    7.80
   3  -3   0  157.28    6.40
   3  -3   0  153.98    8.30
   3  -3   0  148.49    7.90
  -3   3   0  138.39    7.30
  -3   3   0  156.48    8.00
  -3   3   0  153.88    8.50
   2  -3   0  365.76   13.20
   2  -3   0  384.96   12.50
   2  -3   0  368.96   11.00
   2  -3   0  378.86    8.20
   2  -3   0  377.86   11.70
  -2   3   0  381.06   13.10
  -2   3   0  374.76   12.40
  -2   3   0  365.96   12.20
   1  -3   0 5087.49   87.89
   1  -3   0 5110.19   84.99
   1  -3   0 4951.60   87.59
  -1   3   0 4933.81   88.39
  -1   3   0 5037.20   87.49
  -1   3   0 5103.49   84.89
  -1   3   0 5172.98   87.69
   0  -3   0   47.30    3.70
   0  -3   0   49.30    3.40
   0  -3   0   50.49    3.40
   0  -3   0   58.29    3.70
   0   3   0   43.90    3.10
   0   3   0   55.09    3.50
   0   3   0   44.40    3.50
   0   3   0   59.39    3.80
  -1  -3   0 1651.33   33.70
  -1  -3   0 1670.63   30.90
  -1  -3   0 1679.83   31.10
  -1  -3   0 1579.44   32.70
   1   3   0 1634.54   32.50
   1   3   0 1686.63   30.70
   1   3   0 1672.63   32.70
   1   3   0 1691.33   34.00
   1   3   0 1630.74   28.80
  -2  -3   0  267.47   10.60
  -2  -3   0  263.97    7.70
  -2  -3   0  266.47    8.40
  -2  -3   0  278.87    9.20
  -2  -3   0  255.17    9.20
  -2  -3   0  268.77    7.30
  -2  -3   0  264.47    6.10
  -2  -3   0  276.07   10.40
   2   3   0  246.08    9.00
   2   3   0  258.77    8.60
   2   3   0  262.57   10.40
   2   3   0  265.57    7.60
   2   3   0  258.07    9.20
  -3  -3   0 3081.19   59.79
  -3  -3   0 2980.00   54.39
  -3  -3   0 3106.69   56.49
  -3  -3   0 3055.89   55.19
  -3  -3   0 3212.38   58.09
  -3  -3   0 3055.29   59.69
  -3  -3   0 3049.09   52.99
  -3  -3   0 3057.19   57.09
  -3  -3   0 3019.60   56.49
   3   3   0 3081.99   56.89
   3   3   0 2972.60   57.19
   3   3   0 3033.90   59.59
   3   3   0 3045.00   54.99
   3   3   0 3005.50   56.89
  -4  -3   0  141.39    7.10
  -4  -3   0  128.79    8.20
  -4  -3   0  139.69    7.40
  -4  -3   0  134.69    6.20
  -4  -3   0  135.69    6.30
  -4  -3   0  143.59    7.60
  -4  -3   0  141.29    8.00
  -4  -3   0  130.09    7.10
  -4  -3   0  135.39    8.50
  -4  -3   0  132.39    6.80
  -4  -3   0  135.79    5.80
   4   3   0  127.59    7.50
   4   3   0  131.09    7.60
   4   3   0  130.39    8.20
   4   3   0  126.09    7.10
  -5  -3   0  564.54   17.90
  -5  -3   0  570.44   15.60
  -5  -3   0  549.65   17.80
  -5  -3   0  553.94   16.80
  -5  -3   0  581.44   16.50
  -5  -3   0  543.45   15.00
  -5  -3   0  551.04   19.80
  -5  -3   0  531.45   17.70
  -5  -3   0  561.84   19.20
  -5  -3   0  562.84   15.20
  -5  -3   0  542.55   16.80
  -5  -3   0  564.34   19.60
   5   3   0  541.85   19.80
   5   3   0  531.65   17.20
   5   3   0  539.85   19.80
   5   3   0  539.75   18.50
  -6  -3   0  970.40   23.70
  -6  -3   0  965.20   26.20
  -6  -3   0  972.70   22.80
  -6  -3   0 1008.20   24.40
  -6  -3   0  992.80   29.50
  -6  -3   0  964.10   25.60
  -6  -3   0  994.90   30.70
  -6  -3   0  968.60   27.40
  -6  -3   0  970.80   28.90
  -6  -3   0  949.21   26.90
  -6  -3   0  988.40   25.80
  -6  -3   0  956.00   34.40
   6   3   0  854.91   31.20
   6   3   0 1008.70   29.50
   6   3   0  956.40   28.90
   6   3   0  981.10   28.50
  -7  -3   0  393.76   15.40
  -7  -3   0  397.96   14.40
  -7  -3   0  388.16   17.80
  -7  -3   0  373.36   18.80
  -7  -3   0  390.16   13.90
  -7  -3   0  387.26   18.30
  -7  -3   0  397.06   17.00
  -7  -3   0  388.96   14.30
  -7  -3   0  384.76   16.20
  -7  -3   0  400.86   13.90
  -7  -3   0  392.26   15.80
   7   3   0  390.86   18.20
   7   3   0  383.46   17.60
  -8  -3   0   -0.40    1.10
  -8  -3   0    1.60    1.30
  -8  -3   0    2.50    1.70
  -8  -3   0   -0.10    1.40
  -8  -3   0   -0.70    1.50
  -8  -3   0    2.30    2.00
  -8  -3   0    0.80    1.40
   8   3   0    1.40    1.90
   8   3   0    2.00    2.40
  -9  -3   0  820.32   25.30
  -9  -3   0  868.31   30.40
  -9  -3   0  910.21   26.60
  -9  -3   0  911.81   29.40
  -9  -3   0  906.81   24.30
   9   3   0  902.71   32.50
 -10  -3   0   20.40    4.50
 -10  -3   0   24.70    5.60
 -10  -3   0   35.10    5.50
 -10  -3   0   18.30    3.70
 -10  -3   0   21.60    5.50
  10   3   0   32.30    7.20
 -11  -3   0    3.20    2.50
 -11  -3   0    2.40    2.50
 -11  -3   0    3.10    2.90
  10  -4   0   39.40    6.50
  10  -4   0   40.60    7.80
  10  -4   0   36.80    7.50
  10  -4   0   21.30    5.10
 -10   4   0   42.00    7.40
 -10   4   0   36.20    8.10
   9  -4   0  360.66   17.00
   9  -4   0  364.56   21.30
   9  -4   0  375.86   21.40
   9  -4   0  370.66   21.10
  -9   4   0  463.15   33.30
  -9   4   0  437.76   22.60
   8  -4   0    7.20    3.30
   8  -4   0    4.40    2.70
   8  -4   0    7.60    3.20
   8  -4   0    2.30    2.30
  -8   4   0    4.70    2.60
  -8   4   0   -0.20    1.90
   7  -4   0  512.55   22.20
   7  -4   0  503.45   19.50
   7  -4   0  480.45   12.80
   7  -4   0  479.75   21.40
   7  -4   0  505.05   22.10
  -7   4   0  474.75   20.90
  -7   4   0  505.35   22.10
   6  -4   0  264.77   14.70
   6  -4   0  286.57   15.20
   6  -4   0  261.37    9.30
   6  -4   0  267.27   13.30
   6  -4   0  266.57   14.80
   6  -4   0  252.27   14.00
  -6   4   0  301.67   15.70
  -6   4   0  262.27   14.20
  -6   4   0  257.87   13.20
  -6   4   0  261.97   14.00
  -6   4   0  260.37   14.10
  -6   4   0  260.37   15.20
  -6   4   0  267.57   13.70
   5  -4   0 2090.59   41.00
   5  -4   0 2121.59   48.40
   5  -4   0 2080.89   49.00
   5  -4   0 2084.69   47.00
   5  -4   0 2006.20   47.80
  -5   4   0 2081.89   47.60
  -5   4   0 2088.89   50.19
  -5   4   0 2053.09   51.99
  -5   4   0 2038.70   48.10
  -5   4   0 2126.19   48.90
  -5   4   0 2113.19   47.10
   4  -4   0  163.98    9.70
   4  -4   0  172.88    7.60
   4  -4   0  163.88    9.60
   4  -4   0  181.38   10.50
  -4   4   0  171.48   10.60
  -4   4   0  156.38    9.40
  -4   4   0  181.48   10.10
   3  -4   0 1248.38   30.90
   3  -4   0 1264.97   27.80
   3  -4   0 1276.57   29.90
  -3   4   0 1239.98   30.60
  -3   4   0 1268.17   32.30
  -3   4   0 1204.08   30.50
   2  -4   0  871.41   17.90
   2  -4   0  851.31   21.10
   2  -4   0  842.72   22.50
   2  -4   0  824.92   22.50
   2  -4   0  833.12   21.10
  -2   4   0  846.82   22.30
  -2   4   0  871.71   22.40
  -2   4   0  830.72   23.00
   1  -4   0 1123.09   25.80
   1  -4   0 1056.99   25.80
   1  -4   0 1062.69   23.20
   1  -4   0 1083.49   27.10
  -1   4   0 1099.29   25.40
  -1   4   0 1131.89   26.60
  -1   4   0 1081.39   23.30
  -1   4   0 1077.59   25.10
   0  -4   0   59.09    4.30
   0  -4   0   60.69    4.30
   0  -4   0   61.49    4.90
   0  -4   0   57.19    4.30
   0   4   0   58.69    4.70
   0   4   0   58.59    4.10
   0   4   0   49.90    4.00
   0   4   0   57.09    4.30
  -1  -4   0 2414.06   48.20
  -1  -4   0 2513.85   52.79
  -1  -4   0 2515.65   45.90
  -1  -4   0 2421.66   45.90
   1   4   0 2507.85   45.80
   1   4   0 2442.06   47.80
   1   4   0 2501.05   42.50
   1   4   0 2501.25   47.90
   1   4   0 2441.96   49.00
   1   4   0 2465.85   44.70
  -2  -4   0  676.63   19.80
  -2  -4   0  673.43   16.00
  -2  -4   0  650.73   18.10
  -2  -4   0  661.03   15.60
   2   4   0  664.03   17.70
   2   4   0  670.23   14.70
   2   4   0  651.73   16.60
   2   4   0  662.13   19.70
   2   4   0  693.33   18.30
  -3  -4   0   78.99    6.60
  -3  -4   0   76.79    3.20
  -3  -4   0   67.39    5.10
  -3  -4   0   68.29    4.10
  -3  -4   0   81.09    5.50
  -3  -4   0   82.49    6.50
  -3  -4   0   81.09    5.70
  -3  -4   0   77.69    4.10
  -3  -4   0   77.39    5.10
  -3  -4   0   75.19    4.90
   3   4   0   74.89    5.50
   3   4   0   78.09    4.50
   3   4   0   79.29    6.60
   3   4   0   73.99    5.20
   3   4   0   97.99    6.10
  -4  -4   0  137.19    9.10
  -4  -4   0  138.29    9.00
  -4  -4   0  133.49    7.90
  -4  -4   0  123.29    7.30
  -4  -4   0  124.79    7.10
  -4  -4   0  128.29    7.50
  -4  -4   0  138.49    7.70
  -4  -4   0  137.09    6.90
  -4  -4   0  151.38    8.30
  -4  -4   0  125.99    5.40
   4   4   0  131.69    7.80
   4   4   0  132.69    6.90
   4   4   0  128.99    7.70
   4   4   0  129.89    8.00
  -5  -4   0   99.89    7.00
  -5  -4   0   94.19    8.00
  -5  -4   0   95.39    7.50
  -5  -4   0  103.19    5.50
  -5  -4   0  111.29    7.10
  -5  -4   0   93.39    5.80
  -5  -4   0  101.49    8.40
  -5  -4   0  104.79    7.30
  -5  -4   0   93.29    6.10
  -5  -4   0  103.29    7.40
  -5  -4   0   97.89    5.60
   5   4   0  104.19    7.60
   5   4   0   97.09    7.60
   5   4   0   97.79    8.40
  -6  -4   0    0.80    1.00
  -6  -4   0    0.60    2.20
  -6  -4   0    2.40    1.50
  -6  -4   0    2.70    1.60
  -6  -4   0    3.30    1.80
  -6  -4   0    3.40    2.00
  -6  -4   0    1.40    1.00
  -6  -4   0   -0.60    1.50
  -6  -4   0    3.10    1.50
  -6  -4   0    0.70    0.90
  -6  -4   0    1.90    1.50
   6   4   0    2.00    1.90
   6   4   0   -0.30    1.50
   6   4   0    1.90    1.50
   6   4   0    1.60    1.50
  -7  -4   0  449.76   15.50
  -7  -4   0  465.45   17.60
  -7  -4   0  465.65   17.40
  -7  -4   0  477.45   15.20
  -7  -4   0  432.96   16.90
  -7  -4   0  469.55   19.00
  -7  -4   0  480.25   15.10
   7   4   0  492.35   21.20
   7   4   0  459.85   19.90
   7   4   0  490.75   18.80
  -8  -4   0  316.57   12.70
  -8  -4   0  353.36   17.10
  -8  -4   0  338.97   12.20
  -8  -4   0  328.47   13.50
  -8  -4   0  355.66   15.50
  -8  -4   0  341.07   14.80
   8   4   0  388.16   19.30
  -9  -4   0  116.59    9.40
  -9  -4   0  116.89    8.30
  -9  -4   0  106.09    7.60
  -9  -4   0  122.19   10.80
  -9  -4   0  112.99    8.50
   9   4   0  121.39   11.50
 -10  -4   0   34.60    7.70
 -10  -4   0   31.00    5.40
 -10  -4   0   28.50    5.90
 -10  -4   0   35.50    5.30
  10  -5   0   -0.20    3.00
  10  -5   0    2.60    3.10
  10  -5   0   -0.90    3.50
  10  -5   0    1.40    2.70
 -10   5   0   -1.80    2.20
 -10   5   0    5.40    3.60
   9  -5   0  121.09   12.20
   9  -5   0  131.19   12.70
   9  -5   0  119.69   12.50
   9  -5   0  138.59   11.10
  -9   5   0  123.29   12.10
  -9   5   0  122.89   12.90
   8  -5   0  516.25   24.40
   8  -5   0  525.55   24.50
   8  -5   0  521.55   21.70
   8  -5   0  508.45   13.10
   8  -5   0  525.85   24.50
  -8   5   0  511.05   30.40
  -8   5   0  527.95   23.80
   7  -5   0    1.00    1.60
   7  -5   0    0.80    1.60
   7  -5   0    1.70    1.90
   7  -5   0    7.20    3.50
  -7   5   0    0.30    1.80
  -7   5   0   -0.80    1.60
   6  -5   0   23.80    5.20
   6  -5   0   34.30    3.70
   6  -5   0   25.30    5.00
   6  -5   0   32.50    5.70
   6  -5   0   23.50    5.30
  -6   5   0   22.40    5.30
  -6   5   0   27.70    5.30
  -6   5   0   27.00    4.70
   5  -5   0 2921.21   64.09
   5  -5   0 2966.60   62.59
   5  -5   0 2708.53   62.39
   5  -5   0 2860.51   55.39
  -5   5   0 2785.02   59.99
  -5   5   0 2934.31   62.79
  -5   5   0 2811.52   64.59
  -5   5   0 2692.53   61.79
  -5   5   0 2868.71   62.79
   4  -5   0  565.64   20.80
   4  -5   0  603.84   17.80
   4  -5   0  602.54   20.30
   4  -5   0  604.04   21.60
  -4   5   0  576.44   20.80
  -4   5   0  600.04   22.10
  -4   5   0  600.24   20.40
   3  -5   0  217.68    9.90
   3  -5   0  240.78   12.10
   3  -5   0  246.08   12.00
   3  -5   0  232.18   10.80
  -3   5   0  219.88   11.30
  -3   5   0  224.88   11.30
  -3   5   0  231.78   12.00
   2  -5   0 1598.44   34.90
   2  -5   0 1643.84   39.50
   2  -5   0 1568.54   35.70
   2  -5   0 1610.54   37.40
   2  -5   0 1600.94   37.10
   2  -5   0 1602.54   31.70
  -2   5   0 1533.75   36.20
  -2   5   0 1526.15   37.50
  -2   5   0 1641.94   37.00
   1  -5   0 1666.63   39.30
   1  -5   0 1672.13   34.90
   1  -5   0 1684.93   37.40
   1  -5   0 1624.64   37.00
  -1   5   0 1705.53   35.00
  -1   5   0 1690.03   36.60
  -1   5   0 1690.63   38.30
  -1   5   0 1736.73   37.20
   0  -5   0   24.60    3.10
   0  -5   0   21.20    2.90
   0  -5   0   17.60    3.30
   0  -5   0   15.70    2.80
   0   5   0   14.80    2.80
   0   5   0   20.20    3.00
   0   5   0   21.30    3.10
  -1  -5   0 4018.50   76.09
  -1  -5   0 4182.58   72.99
  -1  -5   0 4026.00   76.29
   1   5   0 3997.50   76.19
   1   5   0 4059.09   70.79
   1   5   0 3951.60   67.69
   1   5   0 3932.01   74.89
   1   5   0 4072.59   75.09
   1   5   0 4059.39   72.59
  -2  -5   0 1291.07   30.70
  -2  -5   0 1248.08   26.80
  -2  -5   0 1244.08   27.30
  -2  -5   0 1274.47   32.20
   2   5   0 1269.47   30.00
   2   5   0 1249.97   27.40
   2   5   0 1272.57   29.50
   2   5   0 1239.58   31.90
   2   5   0 1277.97   24.60
   2   5   0 1221.58   29.60
  -3  -5   0    4.40    1.70
  -3  -5   0    3.20    2.00
  -3  -5   0    5.40    1.50
  -3  -5   0    4.10    1.30
  -3  -5   0    6.00    2.20
   3   5   0    3.60    1.40
   3   5   0    6.00    1.50
   3   5   0    4.50    1.80
   3   5   0    8.50    3.00
   3   5   0    5.70    2.00
   3   5   0    4.30    1.80
  -4  -5   0   21.20    1.90
  -4  -5   0   22.50    3.80
  -4  -5   0   20.50    3.40
  -4  -5   0   19.50    2.60
  -4  -5   0   25.40    4.40
  -4  -5   0   24.20    3.30
  -4  -5   0   22.50    3.50
  -4  -5   0   14.40    4.00
   4   5   0   18.60    4.50
   4   5   0   18.50    3.50
   4   5   0   21.20    3.60
   4   5   0   23.00    2.90
   4   5   0   17.90    3.60
   4   5   0   22.60    3.90
  -5  -5   0  126.99    7.00
  -5  -5   0  130.19    7.50
  -5  -5   0  126.59    8.20
  -5  -5   0  116.79    7.80
  -5  -5   0  134.69    6.40
  -5  -5   0  129.69    8.70
  -5  -5   0  121.39    7.80
  -5  -5   0  113.49    5.50
  -5  -5   0  124.09    9.80
  -5  -5   0  120.49    9.90
  -5  -5   0  121.69    8.70
   5   5   0  129.29   10.10
   5   5   0  134.69    8.90
   5   5   0  126.29    9.00
   5   5   0  118.29    8.40
  -6  -5   0   71.29    5.40
  -6  -5   0   69.29    6.90
  -6  -5   0   63.89    6.20
  -6  -5   0   62.59    6.30
  -6  -5   0   68.39    5.70
  -6  -5   0   55.89    6.70
  -6  -5   0   56.59    5.10
  -6  -5   0   72.29    5.10
   6   5   0   72.89    7.70
   6   5   0   63.79    6.80
   6   5   0   72.49    8.10
   6   5   0   62.19    7.00
  -7  -5   0  354.16   16.80
  -7  -5   0  360.76   13.20
  -7  -5   0  343.87   14.70
  -7  -5   0  348.37   16.50
  -7  -5   0  362.66   12.40
  -7  -5   0  362.76   13.40
  -7  -5   0  351.86   13.40
   7   5   0  348.57   17.70
   7   5   0  361.96   19.00
   7   5   0  355.46   16.60
  -8  -5   0   17.70    4.50
  -8  -5   0   24.40    3.90
  -8  -5   0   17.70    3.40
  -8  -5   0   15.50    3.10
  -8  -5   0   13.30    3.30
  -8  -5   0   20.50    4.60
   8   5   0    8.50    3.60
   8   5   0   16.50    4.20
  -9  -5   0    6.10    2.70
  -9  -5   0    8.50    3.30
  -9  -5   0    5.80    2.10
  -9  -5   0    5.50    2.70
  -9  -5   0    4.70    1.80
   9   5   0   10.20    3.70
 -10  -5   0    0.20    2.60
 -10  -5   0    2.10    2.80
 -10  -5   0   -2.30    1.90
 -10  -5   0   -2.80    1.80
  10  -6   0  136.29   14.10
  10  -6   0   93.49   11.70
  10  -6   0  103.69   10.50
  10  -6   0  103.49   13.00
 -10   6   0  128.19   13.80
 -10   6   0   99.89   12.40
   9  -6   0   31.90    7.30
   9  -6   0   19.20    5.20
   9  -6   0   18.50    5.00
   9  -6   0   10.80    4.30
  -9   6   0   19.40    6.00
  -9   6   0   13.80    5.10
   8  -6   0  344.27   12.30
   8  -6   0  362.46   21.20
   8  -6   0  375.76   19.30
   8  -6   0  377.46   21.60
   8  -6   0  446.36   33.30
  -8   6   0  399.66   21.30
  -8   6   0  392.46   21.30
   7  -6   0   27.00    3.80
   7  -6   0   23.20    5.70
   7  -6   0   26.50    5.90
   7  -6   0   37.00    6.40
   7  -6   0   29.50    6.20
  -7   6   0   24.30    5.80
  -7   6   0   36.90    6.40
   6  -6   0   23.90    4.00
   6  -6   0   17.40    4.50
   6  -6   0   29.70    5.80
   6  -6   0   28.70    5.80
  -6   6   0   23.20    5.30
  -6   6   0   34.40    6.20
   5  -6   0   11.10    2.60
   5  -6   0    8.80    2.90
   5  -6   0    7.80    3.00
  -5   6   0   15.80    3.70
  -5   6   0   11.00    3.00
  -5   6   0   11.50    3.60
   4  -6   0  544.95   21.30
   4  -6   0  529.65   18.00
   4  -6   0  525.45   19.60
   4  -6   0  537.85   21.30
  -4   6   0  523.65   21.40
  -4   6   0  520.95   20.40
  -4   6   0  530.35   19.60
  -4   6   0  568.34   21.20
   3  -6   0   21.60    4.30
   3  -6   0   30.20    4.20
   3  -6   0   27.40    4.00
   3  -6   0   26.90    4.60
  -3   6   0   24.50    4.40
  -3   6   0   33.40    4.90
  -3   6   0   16.10    3.40
   2  -6   0 1820.82   44.90
   2  -6   0 1826.02   39.40
   2  -6   0 1736.33   40.80
   2  -6   0 1724.73   36.20
   2  -6   0 1788.72   41.90
  -2   6   0 1740.03   42.50
  -2   6   0 1753.72   41.00
  -2   6   0 1800.02   41.50
  -2   6   0 1754.42   37.90
   1  -6   0  108.19   10.20
   1  -6   0  119.49    7.90
   1  -6   0  118.39    7.00
   1  -6   0  120.59    8.00
  -1   6   0  115.69    7.60
  -1   6   0  110.29    8.10
  -1   6   0  121.79    7.30
  -1   6   0  124.89    8.00
  -1   6   0  115.49    6.00
   0  -6   0    4.40    1.40
   0  -6   0    6.10    2.20
   0  -6   0    5.30    2.00
   0  -6   0    8.00    2.60
   0   6   0    4.40    1.80
   0   6   0    6.60    2.00
   0   6   0    5.50    2.00
   0   6   0    8.90    1.50
   0   6   0    3.90    1.60
  -1  -6   0  137.99    7.80
  -1  -6   0  128.69    8.60
  -1  -6   0  148.09    7.90
  -1  -6   0  149.39    9.40
   1   6   0  135.09    8.50
   1   6   0  140.99    6.70
   1   6   0  128.29    8.70
   1   6   0  141.49    8.60
   1   6   0  141.49    7.60
   1   6   0  133.29    4.90
  -2  -6   0 2626.14   57.19
  -2  -6   0 2612.74   51.19
  -2  -6   0 2620.84   55.49
  -2  -6   0 2674.93   50.99
   2   6   0 2589.44   56.89
   2   6   0 2538.85   57.89
   2   6   0 2633.74   50.59
   2   6   0 2584.74   46.30
   2   6   0 2581.14   54.29
   2   6   0 2688.23   54.89
  -3  -6   0    1.70    1.10
  -3  -6   0    1.30    1.90
  -3  -6   0    2.10    1.60
  -3  -6   0    2.80    1.30
   3   6   0    4.20    2.50
   3   6   0    1.90    1.50
   3   6   0    5.90    2.30
   3   6   0    1.10    1.00
   3   6   0    2.90    1.60
   3   6   0    2.30    1.70
  -4  -6   0  336.17   16.80
  -4  -6   0  341.17   14.40
  -4  -6   0  356.16   11.90
  -4  -6   0  357.66   14.20
  -4  -6   0  362.66   11.60
  -4  -6   0  345.17   17.00
  -4  -6   0  358.76   15.20
   4   6   0  346.37   15.10
   4   6   0  329.77   14.70
   4   6   0  351.56   17.10
   4   6   0  335.57   14.70
   4   6   0  360.56   11.80
   4   6   0  355.16   14.20
  -5  -6   0  319.77   13.50
  -5  -6   0  327.07   15.20
  -5  -6   0  325.97    8.60
  -5  -6   0  337.07   11.00
  -5  -6   0  332.67   11.70
  -5  -6   0  332.17   15.20
  -5  -6   0  328.77   11.50
   5   6   0  354.76   16.30
   5   6   0  329.07   17.50
   5   6   0  346.57   15.70
   5   6   0  326.57   14.70
  -6  -6   0  205.78   10.70
  -6  -6   0  214.98    7.90
  -6  -6   0  207.68   10.00
  -6  -6   0  205.08    8.90
  -6  -6   0  222.08   12.70
  -6  -6   0  219.38   13.20
   6   6   0  223.78   15.10
   6   6   0  204.08   13.10
   6   6   0  229.38   13.10
   6   6   0  211.88   12.60
  -7  -6   0   36.10    4.40
  -7  -6   0   31.30    4.40
  -7  -6   0   33.40    3.70
  -7  -6   0   35.70    3.90
  -7  -6   0   40.60    4.10
  -7  -6   0   32.50    4.80
  -7  -6   0   42.80    6.40
   7   6   0   32.30    6.10
   7   6   0   33.80    6.00
   7   6   0   52.89    8.30
  -8  -6   0  159.78    7.70
  -8  -6   0  166.68   12.20
  -8  -6   0  176.28    9.00
  -8  -6   0  155.28    8.00
  -8  -6   0  157.78    9.40
   8   6   0  176.68   13.90
   8   6   0  205.08   15.90
   8   6   0  171.28   12.40
  -9  -6   0   66.09    6.00
  -9  -6   0   73.59    6.80
  -9  -6   0   56.79    5.30
  -9  -6   0   60.49    4.80
  -9  -6   0   58.49    7.50
  -9  -6   0   56.79    6.30
  -9  -6   0   63.89    8.30
 -10  -6   0    5.80    2.50
 -10  -6   0    3.80    2.60
 -10  -6   0    7.10    2.80
 -10  -6   0   -2.90    2.40
   9  -7   0   19.80    5.20
   9  -7   0   21.90    6.70
   9  -7   0   24.70    6.40
   9  -7   0   18.00    5.20
  -9   7   0   34.00    7.80
  -9   7   0   23.00    6.70
   8  -7   0    8.00    4.00
   8  -7   0    6.50    3.60
   8  -7   0   14.60    4.70
   8  -7   0    9.30    2.70
   8  -7   0    6.30    3.80
  -8   7   0    2.60    3.20
  -8   7   0    9.20    4.30
   7  -7   0  110.09   10.80
   7  -7   0  125.49   12.30
   7  -7   0  109.89   10.70
   7  -7   0   91.79    7.60
   7  -7   0  100.09   10.80
  -7   7   0  103.89   10.60
  -7   7   0  124.69   11.80
   6  -7   0 1044.20   33.70
   6  -7   0  949.51   27.70
   6  -7   0 1017.10   35.70
   6  -7   0  989.80   34.10
  -6   7   0 1045.70   34.00
  -6   7   0  991.40   34.20
   5  -7   0   64.19    8.00
   5  -7   0   64.39    7.50
   5  -7   0   66.99    6.30
  -5   7   0   70.69    8.10
  -5   7   0   59.19    7.20
  -5   7   0   54.79    6.60
   4  -7   0  544.25   20.50
   4  -7   0  534.55   22.40
   4  -7   0  518.45   19.30
  -4   7   0  526.85   21.60
  -4   7   0  520.85   19.90
   3  -7   0   79.79    7.00
   3  -7   0   83.29    7.90
   3  -7   0   85.09    8.30
   3  -7   0   73.09    6.80
  -3   7   0   70.99    7.70
  -3   7   0   64.09    7.00
  -3   7   0   70.59    7.70
  -3   7   0   72.19    7.40
   2  -7   0  129.59    8.30
   2  -7   0  117.29    8.70
   2  -7   0  112.89   10.00
   2  -7   0  124.39    7.30
   2  -7   0  117.49    9.10
   2  -7   0  120.99    9.20
  -2   7   0  123.19    8.80
  -2   7   0  127.39    7.60
  -2   7   0  130.39    9.30
  -2   7   0  135.79   10.00
   1  -7   0   62.79    6.20
   1  -7   0   54.29    5.30
   1  -7   0   66.29    6.70
   1  -7   0   53.49    6.80
  -1   7   0   55.69    4.40
  -1   7   0   57.69    5.80
  -1   7   0   51.59    5.80
  -1   7   0   59.29    5.60
   0  -7   0 3079.99   66.09
   0  -7   0 3010.50   62.19
   0  -7   0 3079.49   62.09
   0  -7   0 2975.40   61.69
   0   7   0 2997.00   52.99
   0   7   0 3027.10   63.79
   0   7   0 3028.30   52.59
   0   7   0 3024.00   63.09
   0   7   0 2987.70   62.69
   0   7   0 2989.80   61.09
  -1  -7   0  129.79    9.30
  -1  -7   0  126.49    8.00
  -1  -7   0  130.59    8.30
  -1  -7   0  132.69    9.70
   1   7   0  136.59    7.00
   1   7   0  119.29    8.50
   1   7   0  116.09    9.00
   1   7   0  134.59    5.10
  -2  -7   0  612.74   22.20
  -2  -7   0  639.74   23.20
  -2  -7   0  669.33   19.50
  -2  -7   0  632.54   19.50
   2   7   0  664.33   18.70
   2   7   0  659.13   21.50
   2   7   0  646.64   21.80
   2   7   0  655.73   14.60
   2   7   0  695.53   22.60
   2   7   0  663.13   23.80
  -3  -7   0    7.30    1.90
  -3  -7   0   12.50    3.70
  -3  -7   0    6.40    1.90
  -3  -7   0    8.30    3.30
   3   7   0    6.30    2.50
   3   7   0    5.90    2.30
   3   7   0   11.40    4.00
   3   7   0    8.30    1.90
   3   7   0    5.40    2.50
   3   7   0    5.70    1.80
  -4  -7   0  565.84   19.80
  -4  -7   0  572.84   17.20
  -4  -7   0  544.35   20.90
  -4  -7   0  575.74   16.60
   4   7   0  547.95   20.80
   4   7   0  590.74   21.50
   4   7   0  572.24   19.40
   4   7   0  531.65   23.00
   4   7   0  569.94   20.90
  -5  -7   0   -0.40    1.60
  -5  -7   0   -0.20    1.70
  -5  -7   0    2.00    1.60
  -5  -7   0    0.90    1.90
  -5  -7   0    1.00    1.20
   5   7   0    2.20    2.00
   5   7   0    3.50    2.90
   5   7   0   -1.40    1.40
   5   7   0    2.20    2.20
  -6  -7   0  653.83   19.10
  -6  -7   0  697.53   17.70
  -6  -7   0  676.63   22.40
  -6  -7   0  635.54   18.40
  -6  -7   0  655.23   19.00
  -6  -7   0  690.93   25.00
   6   7   0  700.23   25.40
   6   7   0  670.83   24.20
   6   7   0  670.93   25.40
   6   7   0  680.43   28.40
  -7  -7   0    4.30    3.00
  -7  -7   0    3.50    1.20
  -7  -7   0    0.40    1.70
  -7  -7   0    1.20    1.30
  -7  -7   0    2.20    1.70
  -7  -7   0    3.00    3.30
  -7  -7   0    1.50    1.90
   7   7   0    5.70    3.00
   7   7   0    5.40    2.90
   7   7   0    7.40    4.00
   7   7   0    3.60    2.70
  -8  -7   0  130.39    5.90
  -8  -7   0  139.49    6.90
  -8  -7   0  130.59    9.50
  -8  -7   0  137.39    7.70
  -8  -7   0  126.69    7.30
  -8  -7   0  150.78   11.90
   8   7   0  141.49   15.80
   8   7   0  140.59   13.70
   8   7   0  148.89   13.00
  -9  -7   0    0.00    1.90
  -9  -7   0    9.60    5.20
  -9  -7   0    1.80    2.00
   9   7   0   -6.90    2.60
   9   7   0   -0.10    2.70
   8  -8   0    0.60    2.40
   8  -8   0    2.90    2.80
   8  -8   0   -1.70    2.60
   8  -8   0    1.50    3.30
  -8   8   0   -0.90    2.30
  -8   8   0    7.20    3.40
   7  -8   0    6.20    3.50
   7  -8   0    9.80    3.60
   7  -8   0    1.20    2.30
  -7   8   0   11.50    4.40
  -7   8   0   10.90    4.60
   6  -8   0  669.43   23.40
   6  -8   0  697.53   29.90
   6  -8   0  737.63   28.10
  -6   8   0  682.23   27.00
  -6   8   0  718.33   29.00
   5  -8   0  394.16   17.70
   5  -8   0  433.76   22.10
   5  -8   0  430.16   19.70
  -5   8   0  422.96   20.80
  -5   8   0  421.96   19.30
   4  -8   0   31.40    5.40
   4  -8   0   32.30    5.60
   4  -8   0   34.70    6.40
  -4   8   0   36.50    5.60
  -4   8   0   27.20    5.70
   3  -8   0 1255.87   35.70
   3  -8   0 1312.37   38.80
   3  -8   0 1261.07   34.20
  -3   8   0 1268.07   33.00
  -3   8   0 1289.47   37.20
   2  -8   0  684.83   21.10
   2  -8   0  755.22   26.30
   2  -8   0  736.63   26.80
   2  -8   0  733.73   28.40
   2  -8   0  720.73   23.40
  -2   8   0  754.02   25.50
  -2   8   0  737.33   21.10
   1  -8   0   19.80    3.90
   1  -8   0    7.70    3.10
   1  -8   0   16.10    4.20
   1  -8   0   16.00    3.80
  -1   8   0   13.00    2.70
  -1   8   0    6.40    3.60
  -1   8   0    8.40    2.80
   0  -8   0  281.67   14.20
   0  -8   0  311.27   14.60
   0  -8   0  312.07   16.90
   0   8   0  312.37   14.90
   0   8   0  288.77   15.00
   0   8   0  304.87    8.20
   0   8   0  304.87   15.10
   0   8   0  302.67    9.00
   0   8   0  299.67   14.10
   0   8   0  289.27    8.30
  -1  -8   0  577.54   20.30
  -1  -8   0  645.34   24.10
  -1  -8   0  586.14   22.40
   1   8   0  601.94   13.50
   1   8   0  634.94   22.80
   1   8   0  612.64   23.00
   1   8   0  606.04   22.30
   1   8   0  601.74   17.60
  -2  -8   0  374.66   14.70
  -2  -8   0  359.66   14.70
  -2  -8   0  361.86   17.60
   2   8   0  344.17   17.50
   2   8   0  380.36   16.40
   2   8   0  343.97   16.20
   2   8   0  370.66   16.90
   2   8   0  384.26   13.80
   2   8   0  355.86    9.20
  -3  -8   0   37.50    4.70
  -3  -8   0   36.80    6.00
  -3  -8   0   40.00    4.60
   3   8   0   36.70    5.80
   3   8   0   38.10    5.60
   3   8   0   43.80    6.80
   3   8   0   32.80    5.90
  -4  -8   0  561.94   22.60
  -4  -8   0  603.34   17.90
  -4  -8   0  536.15   17.90
  -4  -8   0  536.85   20.20
   4   8   0  595.24   20.10
   4   8   0  585.84   22.30
   4   8   0  607.34   25.60
   4   8   0  560.34   22.30
  -5  -8   0    0.50    2.10
  -5  -8   0    1.20    1.40
  -5  -8   0    2.10    1.40
  -5  -8   0    1.20    2.00
   5   8   0    0.90    1.70
   5   8   0   -0.30    2.60
   5   8   0    1.10    1.90
   5   8   0    1.00    2.20
  -6  -8   0   38.10    6.30
  -6  -8   0   24.90    3.30
  -6  -8   0   27.90    3.50
  -6  -8   0   17.60    3.70
   6   8   0   25.40    5.80
   6   8   0   33.20    6.10
   6   8   0   29.00    6.20
   6   8   0   32.80    6.60
  -7  -8   0   15.20    4.30
  -7  -8   0   13.30    2.90
  -7  -8   0   19.20    3.50
   7   8   0   25.70    5.80
   7   8   0   23.40    6.50
   7   8   0   18.30    5.20
  -8  -8   0  116.99    6.90
  -8  -8   0  123.99   12.10
   8   8   0  146.09   14.80
   8   8   0  121.29   12.40
   8   8   0  113.09   11.10
   7  -9   0  219.28   17.70
   7  -9   0  236.98   16.50
   7  -9   0  215.98   17.00
  -7   9   0  250.47   17.90
  -7   9   0  257.57   17.10
   6  -9   0    2.70    2.10
   6  -9   0    1.60    1.90
  -6   9   0   -1.10    2.30
  -6   9   0   -0.70    3.20
   5  -9   0  403.96   22.00
   5  -9   0  365.46   18.70
  -5   9   0  385.86   20.90
  -5   9   0  392.76   18.80
   4  -9   0  115.29   11.30
   4  -9   0  108.99    9.60
  -4   9   0   95.89    7.90
  -4   9   0  110.29   10.80
  -4   9   0  121.79    9.40
   3  -9   0  309.17   15.30
   3  -9   0  346.87   18.60
  -3   9   0  309.07   17.00
  -3   9   0  308.57   14.10
  -3   9   0  293.97   13.00
   2  -9   0  540.65   25.20
   2  -9   0  522.65   19.50
   2  -9   0  441.06   17.40
   2  -9   0  466.75   21.40
  -2   9   0  523.75   21.70
  -2   9   0  510.75   16.80
   1  -9   0  783.92   27.20
   1  -9   0  776.52   24.00
   1  -9   0  708.83   28.10
   1  -9   0  771.22   30.10
  -1   9   0  780.12   26.30
  -1   9   0  740.13   26.80
  -1   9   0  740.53   18.90
   0  -9   0   32.30    6.30
   0  -9   0   16.70    4.10
   0  -9   0   24.30    6.10
   0  -9   0   19.20    4.50
   0   9   0   22.60    3.50
   0   9   0   23.60    4.90
   0   9   0   22.50    2.30
   0   9   0   25.70    4.80
   0   9   0   27.10    5.20
  -1  -9   0  219.88   12.40
  -1  -9   0  215.48   14.60
  -1  -9   0  224.98   12.70
   1   9   0  240.08   14.60
   1   9   0  218.38   10.00
   1   9   0  224.58   13.80
  -2  -9   0   30.90    6.30
  -2  -9   0   29.20    5.00
  -2  -9   0   20.60    4.10
   2   9   0   21.20    5.70
   2   9   0   33.00    5.70
   2   9   0   26.20    4.60
   2   9   0   23.30    5.10
  -3  -9   0    8.30    3.00
  -3  -9   0    5.50    2.60
  -3  -9   0    9.10    2.90
   3   9   0   11.10    3.20
   3   9   0    9.00    4.00
   3   9   0    8.80    3.40
   3   9   0    4.20    2.00
  -4  -9   0   65.09    6.00
  -4  -9   0   56.39    6.70
  -4  -9   0   56.79    5.80
  -4  -9   0   54.79    7.30
   4   9   0   47.60    6.10
   4   9   0   60.39    8.90
   4   9   0   66.09    7.70
   4   9   0   50.19    7.30
  -5  -9   0  138.69    7.80
  -5  -9   0  142.69    8.60
  -5  -9   0  136.39   11.80
   5   9   0  121.49   12.40
   5   9   0  129.79   10.00
   5   9   0  148.29   15.60
  -6  -9   0    8.20    2.20
  -6  -9   0    4.70    2.10
  -6  -9   0    3.60    2.10
  -6  -9   0    0.30    1.50
   6   9   0    5.40    3.00
   6   9   0    3.20    3.40
   6   9   0    9.00    4.00
   6   9   0    1.90    3.10
  -7  -9   0    5.50    2.10
  -7  -9   0    3.10    2.90
   7   9   0    3.10    3.60
   7   9   0    0.30    3.30
   7   9   0    4.10    3.40
   6 -10   0   30.90    6.50
   6 -10   0   22.90    6.40
  -6  10   0   32.70    7.00
  -6  10   0   46.20    8.50
   5 -10   0   91.69    9.60
   5 -10   0   83.89   10.70
  -5  10   0   83.99    9.10
  -5  10   0  103.49   11.40
   4 -10   0  155.58   13.50
   4 -10   0  138.29   11.20
  -4  10   0  133.99    9.40
  -4  10   0  143.69   12.90
  -4  10   0  155.28   10.70
   3 -10   0  146.99   11.00
   3 -10   0  185.58   14.20
  -3  10   0  162.88   12.90
  -3  10   0  155.98   10.10
  -3  10   0  152.08    9.20
   2 -10   0   -1.40    2.50
   2 -10   0    3.30    2.20
   2 -10   0   -2.30    1.60
  -2  10   0    3.10    2.10
  -2  10   0    3.20    1.60
  -2  10   0    4.40    2.50
  -2  10   0    3.30    2.30
   1 -10   0  714.33   26.90
   1 -10   0  701.03   30.20
   1 -10   0  677.53   22.80
   1 -10   0  634.24   24.20
  -1  10   0  655.83   16.50
  -1  10   0  671.63   16.80
  -1  10   0  650.13   16.50
  -1  10   0  679.23   25.70
  -1  10   0  711.53   27.20
   0 -10   0  338.27   20.00
   0 -10   0  310.57   16.50
   0  10   0  306.87   12.80
   0  10   0  281.17   17.40
  -1 -10   0  225.88   13.40
  -1 -10   0  243.28   16.70
   1  10   0  243.38   15.70
   1  10   0  241.58   13.10
   1  10   0  218.88   14.00
  -2 -10   0  192.18   11.90
  -2 -10   0  213.78   15.10
   2  10   0  190.98   10.40
   2  10   0  210.08   13.70
   2  10   0  192.08   14.00
   2  10   0  199.68   14.70
  -3 -10   0  272.27   14.20
  -3 -10   0  283.57   17.70
  -3 -10   0  311.17   14.50
   3  10   0  327.37   18.20
   3  10   0  312.97   19.20
   3  10   0  316.37   14.20
  -4 -10   0    2.80    2.00
  -4 -10   0   -1.60    1.70
  -4 -10   0   -5.10    1.80
   4  10   0   -2.40    2.60
   4  10   0   -0.10    2.20
   4  10   0   -0.30    1.80
  -5 -10   0   53.09    5.40
  -5 -10   0   45.80    9.80
   5  10   0   48.20    8.00
   5  10   0   39.10    6.80
   5  10   0   52.99    8.80
   5  10   0   49.70    9.10
  -6 -10   0   56.09    8.40
   6  10   0   53.19    8.50
   6  10   0   54.49    9.10
   6  10   0   49.10    7.60
   5 -11   0   -0.80    2.60
   5 -11   0   -1.30    2.30
  -5  11   0   -4.40    2.00
   4 -11   0    3.70    2.80
   4 -11   0   -2.80    2.00
  -4  11   0    1.70    2.50
  -4  11   0   -2.70    2.40
   3 -11   0  356.16   21.20
   3 -11   0  359.76   17.60
  -3  11   0  355.26   15.10
  -3  11   0  343.07   14.20
  -3  11   0  347.77   20.20
  -3  11   0  344.07   19.80
   2 -11   0    3.70    2.60
   2 -11   0    2.00    2.50
  -2  11   0    4.10    2.20
  -2  11   0   -1.20    1.20
  -2  11   0    2.20    2.80
  -2  11   0    3.00    2.10
  -2  11   0    3.00    2.80
   1 -11   0    0.00    2.30
   1 -11   0    1.10    2.00
   1 -11   0    0.80    1.80
  -1  11   0   -1.00    2.30
  -1  11   0   -2.50    1.60
  -1  11   0   -3.20    1.80
   0 -11   0  110.29   12.10
   0 -11   0  119.39   10.50
   0 -11   0  108.49    9.00
   0  11   0  123.29   11.60
   0  11   0  104.19    7.50
  -1 -11   0  265.97   18.50
  -1 -11   0  262.87   15.30
   1  11   0  251.87   16.90
   1  11   0  303.67   17.20
   1  11   0  271.07   12.20
  -2 -11   0   -2.40    2.50
  -2 -11   0    2.10    2.40
   2  11   0    1.20    1.80
   2  11   0   -2.50    2.30
   2  11   0   -1.60    2.30
  -3 -11   0  276.17   18.40
  -3 -11   0  295.27   14.70
   3  11   0  284.17   13.70
   3  11   0  303.97   18.60
   3  11   0  260.67   16.50
  -4 -11   0   91.99    7.80
  -4 -11   0   84.89   10.50
   4  11   0   91.39   10.10
   4  11   0   93.79    8.40
   4  11   0   84.29   10.60
  -5 -11   0   30.60    4.90
  -5 -11   0   29.50    6.90
   5  11   0   13.20    5.10
   5  11   0   10.60    4.50
   5  11   0   17.60    4.20
   2 -12   0   92.59   10.30
   2 -12   0   66.89    7.50
  -2  12   0   71.79    9.70
  -2  12   0   77.49   10.60
   1 -12   0    9.00    4.20
   1 -12   0    2.60    2.80
   1 -12   0   12.00    3.10
  -1  12   0   10.50    4.10
   0 -12   0   -1.70    2.30
   0 -12   0   -5.30    2.10
   0 -12   0   -3.00    3.10
   0  12   0   -3.70    1.80
   0  12   0   -3.20    2.30
  -1 -12   0   49.40    7.50
  -1 -12   0   55.49    9.80
  -1 -12   0   51.39    7.00
   1  12   0   43.70    8.50
   1  12   0   59.09    8.50
  -2 -12   0    7.70    3.80
  -2 -12   0   14.50    4.10
   2  12   0    9.80    4.30
   2  12   0    6.80    4.20
   2  12  -1   -4.40    2.20
   2  12  -1   -8.10    2.50
  -2 -12   1   -1.40    1.90
  -2 -12   1    1.50    2.60
  -2 -12   1   -1.30    2.90
   1  12  -1   15.20    4.60
   1  12  -1    9.20    3.20
   1  12  -1   44.20    8.50
  -1 -12   1   24.40    5.10
  -1 -12   1   14.90    3.30
  -1 -12   1   32.20    7.30
   0  12  -1    1.30    1.90
   0  12  -1   -2.00    2.90
   0 -12   1    5.50    3.70
   0 -12   1    7.20    2.80
   0 -12   1    8.60    4.20
  -1  12  -1  119.39   12.70
   1 -12   1  128.69   11.80
   1 -12   1  142.69    9.50
  -2  12  -1   52.49   10.00
   2 -12   1   50.99    8.80
   2 -12   1   49.00    6.60
   5  11  -1    2.70    3.20
   5  11  -1   -2.90    2.50
  -5 -11   1   -1.00    2.60
   4  11  -1   93.59   11.20
   4  11  -1   93.49   10.90
   4  11  -1   89.79    9.10
  -4 -11   1  106.79   11.40
  -4 -11   1  107.69    7.20
   3  11  -1   90.79    8.30
   3  11  -1   73.39    9.70
   3  11  -1   94.29   11.10
  -3 -11   1   88.59    7.80
  -3 -11   1   74.59    9.50
   2  11  -1   10.60    4.40
   2  11  -1    5.20    3.30
   2  11  -1   10.60    3.40
  -2 -11   1    9.40    3.90
  -2 -11   1    8.70    2.80
  -2 -11   1   11.30    3.60
   1  11  -1   32.20    6.90
   1  11  -1   21.90    5.30
   1  11  -1   28.60    5.30
  -1 -11   1   32.00    4.90
  -1 -11   1   39.60    6.20
  -1 -11   1   28.60    6.40
   0  11  -1   70.29    9.40
   0  11  -1   61.79    7.00
   0 -11   1   58.49    7.90
   0 -11   1   67.29    9.80
   0 -11   1   67.29    6.40
  -1  11  -1    7.70    3.00
  -1  11  -1   13.00    4.60
   1 -11   1    6.70    2.70
   1 -11   1    6.60    2.40
   1 -11   1    4.90    3.70
  -2  11  -1   -2.10    1.30
  -2  11  -1    1.70    2.90
  -2  11  -1    5.00    2.30
  -2  11  -1    1.80    2.50
   2 -11   1    9.90    4.00
   2 -11   1    9.60    3.20
  -3  11  -1  314.07   19.00
  -3  11  -1  295.67   18.70
  -3  11  -1  292.87   18.30
   3 -11   1  279.77   14.60
   3 -11   1  294.17   19.10
  -4  11  -1   32.10    6.30
  -4  11  -1   49.50    8.70
  -4  11  -1   30.40    7.60
   4 -11   1   53.99    8.90
   4 -11   1   37.80    6.10
  -5  11  -1    9.00    4.70
  -5  11  -1    4.60    3.40
  -5  11  -1   12.50    5.20
   5 -11   1    4.20    3.80
   5 -11   1    9.20    3.30
   5 -11   1    9.10    4.70
   6  10  -1  108.29   10.80
   6  10  -1  102.09   11.40
   6  10  -1  105.29   11.90
  -6 -10   1  122.89   12.00
   5  10  -1    0.20    2.60
   5  10  -1    3.20    2.30
   5  10  -1    0.00    2.80
  -5 -10   1    0.30    2.10
   4  10  -1    0.60    2.30
   4  10  -1   -0.80    1.90
   4  10  -1    2.70    2.40
  -4 -10   1   -1.00    1.50
  -4 -10   1    0.70    2.00
  -4 -10   1   -0.40    3.00
   3  10  -1    3.00    2.70
   3  10  -1    2.30    1.90
   3  10  -1    2.50    1.90
   3  10  -1   -0.90    0.90
  -3 -10   1   -2.90    1.70
  -3 -10   1    2.50    2.60
   2  10  -1   74.29   11.30
   2  10  -1  103.09   10.50
   2  10  -1   83.19    7.50
  -2 -10   1  100.79    8.30
  -2 -10   1   79.79    9.40
   1  10  -1   -0.10    1.20
   1  10  -1   -1.40    1.90
   1  10  -1    0.70    2.40
   1  10  -1   -1.40    1.80
  -1 -10   1    1.50    1.90
  -1 -10   1    2.40    2.30
   0  10  -1  363.96   19.10
   0  10  -1  354.86   11.50
   0  10  -1  390.86   15.30
   0 -10   1  365.16   20.70
   0 -10   1  406.46   18.60
   0 -10   1  357.56   14.20
  -1  10  -1    8.40    3.30
  -1  10  -1    8.10    1.90
  -1  10  -1   10.10    2.10
  -1  10  -1    8.90    3.20
   1 -10   1   15.40    4.80
   1 -10   1   12.00    4.20
  -2  10  -1    0.00    2.70
  -2  10  -1    1.70    1.60
  -2  10  -1   -1.20    1.80
   2 -10   1    0.40    2.00
   2 -10   1    0.60    1.90
   2 -10   1    2.90    2.60
  -3  10  -1   69.39    6.60
  -3  10  -1   86.09    9.70
  -3  10  -1   65.49    8.40
   3 -10   1   73.29    7.60
   3 -10   1   77.29    9.40
   3 -10   1   61.59    6.20
  -4  10  -1  199.58   12.10
  -4  10  -1  226.68   15.90
   4 -10   1  208.58   13.00
   4 -10   1  200.68   15.50
  -5  10  -1    4.20    2.90
   5 -10   1    3.70    2.60
   5 -10   1    6.40    3.00
  -6  10  -1  302.17   19.80
  -6  10  -1  285.17   16.80
   6 -10   1  247.18   17.00
   6 -10   1  305.27   21.10
   6 -10   1  294.17   20.50
   7   9  -1    7.00    3.30
   7   9  -1    4.30    3.00
   7   9  -1    4.40    3.50
  -7  -9   1    7.00    3.30
   6   9  -1    3.50    3.00
   6   9  -1   10.60    3.70
   6   9  -1   12.60    4.60
  -6  -9   1   12.10    3.10
  -6  -9   1   15.30    4.70
   5   9  -1   78.09    8.30
   5   9  -1   69.79    9.00
   5   9  -1   65.99    8.70
  -5  -9   1   61.79    7.30
  -5  -9   1   74.09    7.30
  -5  -9   1   81.59    8.60
   4   9  -1  297.77   15.00
   4   9  -1  300.17   11.00
   4   9  -1  301.17   16.80
   4   9  -1  339.07   25.70
  -4  -9   1  313.87   11.50
  -4  -9   1  322.17   17.10
  -4  -9   1  312.37   14.20
  -4  -9   1  284.17   13.80
   3   9  -1    3.80    1.80
   3   9  -1   -1.50    1.90
   3   9  -1    1.60    1.30
   3   9  -1    0.30    1.70
  -3  -9   1    0.80    2.10
  -3  -9   1    2.90    1.80
  -3  -9   1    1.60    1.60
  -3  -9   1    3.10    2.30
   2   9  -1  290.57   15.50
   2   9  -1  275.77   15.80
   2   9  -1  279.07   12.90
   2   9  -1  276.27    9.60
  -2  -9   1  287.37   14.60
  -2  -9   1  286.07   16.30
  -2  -9   1  285.17   13.40
   1   9  -1    6.60    1.60
   1   9  -1    6.80    2.40
   1   9  -1    4.60    2.00
  -1  -9   1    6.10    2.40
  -1  -9   1    6.70    2.70
   0   9  -1  113.49   10.00
   0   9  -1  130.49    6.60
   0  -9   1  125.59    9.80
   0  -9   1  131.69   11.40
   0  -9   1  113.79    9.50
  -1   9  -1  187.38    7.30
  -1   9  -1  165.48   11.80
  -1   9  -1  176.38   12.40
   1  -9   1  200.08   12.60
   1  -9   1  171.38    9.30
   1  -9   1  184.78   13.90
   1  -9   1  158.98   10.70
  -2   9  -1  275.17   15.50
  -2   9  -1  281.27   15.80
  -2   9  -1  280.17   11.30
   2  -9   1  253.97   12.80
   2  -9   1  269.97   15.80
  -3   9  -1    5.10    2.60
  -3   9  -1    4.90    2.20
   3  -9   1    3.80    3.00
   3  -9   1    3.00    2.10
   3  -9   1    4.80    2.30
  -4   9  -1  349.07   23.40
  -4   9  -1  408.26   17.30
   4  -9   1  422.36   21.60
   4  -9   1  408.26   17.90
  -5   9  -1   13.80    4.10
  -5   9  -1   16.60    4.10
   5  -9   1   27.40    6.50
   5  -9   1   17.80    4.40
  -6   9  -1    3.30    2.60
  -6   9  -1   -2.10    2.00
   6  -9   1    4.00    3.20
   6  -9   1    2.40    2.30
   6  -9   1    1.50    1.90
  -7   9  -1   81.09    9.80
  -7   9  -1   68.19    9.90
   7  -9   1   77.09    9.40
   7  -9   1   84.09   11.40
   7  -9   1   70.29   10.40
   8   8  -1   75.19    9.70
   8   8  -1   90.39   10.90
  -8  -8   1   71.19    8.30
  -8  -8   1   73.09    7.20
  -8  -8   1   62.19    8.80
   7   8  -1  100.29   10.60
   7   8  -1  139.69   12.50
   7   8  -1  121.59   11.60
  -7  -8   1  118.59    9.30
  -7  -8   1  119.29   10.30
  -7  -8   1  100.89    7.80
   6   8  -1    6.50    5.30
   6   8  -1    4.60    2.50
   6   8  -1    4.40    3.30
  -6  -8   1   12.00    3.30
  -6  -8   1    5.70    2.70
  -6  -8   1    4.00    2.20
   5   8  -1    9.70    3.50
   5   8  -1   11.80    3.80
   5   8  -1   11.10    3.60
   5   8  -1   14.80    4.40
  -5  -8   1    7.80    3.20
  -5  -8   1   14.80    3.80
  -5  -8   1   14.90    2.20
  -5  -8   1   13.70    4.00
  -5  -8   1   11.80    2.80
   4   8  -1  730.53   25.50
   4   8  -1  742.23   26.70
   4   8  -1  754.42   29.60
   4   8  -1  799.62   27.80
   4   8  -1  768.72   20.40
   4   8  -1  816.22   25.30
  -4  -8   1  792.12   19.60
  -4  -8   1  801.92   26.90
  -4  -8   1  759.12   23.40
  -4  -8   1  775.82   23.70
   3   8  -1    3.40    2.00
   3   8  -1    3.10    1.50
   3   8  -1    5.50    2.60
   3   8  -1    3.30    2.20
   3   8  -1    9.00    3.30
   3   8  -1    2.00    2.00
  -3  -8   1    4.00    1.70
  -3  -8   1    7.50    2.90
  -3  -8   1    3.90    1.80
  -3  -8   1    2.90    1.60
   2   8  -1  732.23   24.70
   2   8  -1  770.72   27.70
   2   8  -1  772.22   22.60
   2   8  -1  764.72   18.60
   2   8  -1  759.62   25.40
   2   8  -1  822.82   27.10
  -2  -8   1  792.42   22.30
  -2  -8   1  761.92   26.30
  -2  -8   1  740.73   23.80
   1   8  -1 1401.76   33.00
   1   8  -1 1391.96   28.90
   1   8  -1 1434.26   38.00
   1   8  -1 1308.67   36.40
  -1  -8   1 1409.06   36.90
  -1  -8   1 1332.97   38.10
  -1  -8   1 1385.96   34.50
  -1  -8   1 1468.45   40.00
   0   8  -1  375.16   16.20
   0   8  -1  379.16   17.20
   0   8  -1  363.36   16.80
   0   8  -1  378.56   11.80
   0  -8   1  360.86   19.00
   0  -8   1  360.46   16.30
   0  -8   1  375.16   15.90
   0  -8   1  372.26   18.30
  -1   8  -1  132.69    9.70
  -1   8  -1  109.29    9.30
  -1   8  -1  126.79    6.10
  -1   8  -1  110.19    8.30
  -1   8  -1  128.39    9.80
   1  -8   1  117.89    9.50
   1  -8   1  112.99    8.30
   1  -8   1  130.39    9.60
   1  -8   1  109.39   10.20
   1  -8   1  116.59    7.40
  -2   8  -1 1598.74   35.10
  -2   8  -1 1552.54   41.40
   2  -8   1 1528.45   44.80
   2  -8   1 1472.45   44.30
   2  -8   1 1572.44   37.10
   2  -8   1 1641.74   42.50
   2  -8   1 1590.34   36.70
  -3   8  -1   42.30    6.20
  -3   8  -1   32.80    4.90
   3  -8   1   27.20    5.20
   3  -8   1   36.20    6.20
   3  -8   1   33.00    4.20
   3  -8   1   36.40    5.10
  -4   8  -1   28.90    6.00
  -4   8  -1   27.40    5.00
   4  -8   1   26.30    4.80
   4  -8   1   28.20    5.50
   4  -8   1   27.50    4.90
  -5   8  -1  240.88   13.90
  -5   8  -1  225.28   15.00
   5  -8   1  231.88   13.90
   5  -8   1  225.48   15.50
   5  -8   1  228.58   13.10
  -6   8  -1  356.46   19.60
  -6   8  -1  354.96   18.30
   6  -8   1  339.97   20.90
   6  -8   1  344.97   18.00
   6  -8   1  353.46   20.70
   6  -8   1  348.57   15.80
  -7   8  -1   36.20    7.30
  -7   8  -1   45.70    7.60
   7  -8   1   41.10    7.60
   7  -8   1   46.50    7.10
   7  -8   1   36.10    7.50
   7  -8   1   57.09    8.50
  -8   8  -1   98.69   11.00
  -8   8  -1   95.29   11.70
   8  -8   1   89.99   12.30
   8  -8   1  112.99   11.40
   8  -8   1  115.19   12.10
   8  -8   1  109.69   12.40
   9   7  -1   47.30    8.60
  -9  -7   1   44.50    7.60
  -9  -7   1   51.69    7.50
  -9  -7   1   45.40    4.40
  -9  -7   1   41.90    6.00
   8   7  -1   38.00    7.90
   8   7  -1   26.00    5.80
   8   7  -1   21.60    5.80
  -8  -7   1   34.20    6.10
  -8  -7   1   32.30    3.30
  -8  -7   1   25.20    4.60
  -8  -7   1   19.40    4.70
  -8  -7   1   31.50    5.20
  -8  -7   1   31.90    6.50
   7   7  -1  246.28   15.20
   7   7  -1  240.18   15.40
   7   7  -1  217.28   15.30
  -7  -7   1  249.38   12.00
  -7  -7   1  245.38   14.10
  -7  -7   1  234.78   12.00
  -7  -7   1  231.38   11.10
  -7  -7   1  269.37   12.70
   6   7  -1  144.29   11.00
   6   7  -1  132.29   11.10
   6   7  -1  122.79   10.80
   6   7  -1  144.09   12.80
  -6  -7   1  123.69    9.80
  -6  -7   1  133.19   10.20
  -6  -7   1  127.89    8.10
  -6  -7   1  129.89    8.70
   5   7  -1   58.99    7.80
   5   7  -1   65.79    7.60
   5   7  -1   53.59    6.70
   5   7  -1   62.49    5.80
   5   7  -1   62.29    7.70
  -5  -7   1   55.49    3.40
  -5  -7   1   61.99    3.50
  -5  -7   1   52.59    6.10
  -5  -7   1   47.70    5.70
  -5  -7   1   64.59    5.80
  -5  -7   1   62.59    6.90
   4   7  -1  184.98   11.10
   4   7  -1  186.88   11.80
   4   7  -1  205.18   12.50
   4   7  -1  215.68   11.50
   4   7  -1  208.48    9.30
   4   7  -1  215.38   14.30
  -4  -7   1  221.98   12.20
  -4  -7   1  206.88   10.20
  -4  -7   1  210.28    7.90
  -4  -7   1  186.18   10.30
   3   7  -1  309.17   13.20
   3   7  -1  292.77   10.50
   3   7  -1  305.27   14.50
   3   7  -1  313.87   15.10
   3   7  -1  317.77   16.60
   3   7  -1  288.77   13.40
  -3  -7   1  300.37   10.70
  -3  -7   1  309.77   14.40
  -3  -7   1  275.87   12.20
  -3  -7   1  310.67   18.60
  -3  -7   1  291.57   12.00
   2   7  -1   10.00    2.90
   2   7  -1    8.80    2.70
   2   7  -1   10.20    2.20
   2   7  -1    4.40    2.20
   2   7  -1    7.70    2.40
   2   7  -1    6.80    2.20
  -2  -7   1    8.10    2.20
  -2  -7   1    8.70    3.40
  -2  -7   1    7.30    2.20
  -2  -7   1    9.80    3.20
   1   7  -1  493.55   18.80
   1   7  -1  510.95   19.70
   1   7  -1  503.75   16.10
   1   7  -1  503.05   13.60
   1   7  -1  536.25   18.80
  -1  -7   1  517.55   19.80
  -1  -7   1  528.95   18.30
  -1  -7   1  513.85   16.90
  -1  -7   1  493.95   19.30
   0   7  -1 1493.25   27.10
   0   7  -1 1571.84   38.20
   0   7  -1 1507.85   36.50
   0   7  -1 1461.85   37.10
   0  -7   1 1409.56   38.60
   0  -7   1 1433.96   36.80
   0  -7   1 1540.15   36.20
   0  -7   1 1471.15   37.00
  -1   7  -1  194.78   11.20
  -1   7  -1  215.88   12.20
  -1   7  -1  209.78   11.70
  -1   7  -1  200.38    7.90
  -1   7  -1  201.58   10.80
   1  -7   1  192.38   10.30
   1  -7   1  198.78   13.30
   1  -7   1  203.98    9.10
   1  -7   1  200.08   12.70
   1  -7   1  197.88   13.30
  -2   7  -1  400.76   13.70
  -2   7  -1  375.16   16.10
  -2   7  -1  382.76   16.70
  -2   7  -1  393.56   17.50
   2  -7   1  412.76   19.20
   2  -7   1  396.36   14.20
   2  -7   1  382.46   14.10
   2  -7   1  389.46   16.90
   2  -7   1  394.36   17.30
  -3   7  -1  426.36   18.30
  -3   7  -1  414.16   19.20
  -3   7  -1  467.45   16.80
  -3   7  -1  446.86   19.00
   3  -7   1  451.25   19.50
   3  -7   1  439.76   17.60
   3  -7   1  458.85   13.90
   3  -7   1  460.55   16.80
   3  -7   1  482.25   26.00
  -4   7  -1   29.50    5.10
  -4   7  -1   32.20    5.50
   4  -7   1   35.50    5.20
   4  -7   1   34.50    4.70
   4  -7   1   34.10    6.10
  -5   7  -1    0.40    2.00
  -5   7  -1    0.20    2.10
   5  -7   1    1.60    1.90
   5  -7   1    1.40    2.60
   5  -7   1    1.00    1.70
  -6   7  -1  474.75   21.10
  -6   7  -1  455.65   21.80
   6  -7   1  396.56   15.90
   6  -7   1  450.05   21.80
   6  -7   1  428.36   20.00
   6  -7   1  428.96   22.00
  -7   7  -1   76.79    9.40
  -7   7  -1   74.39    9.10
   7  -7   1   66.79    9.10
   7  -7   1   85.59    9.50
   7  -7   1   80.79    9.10
   7  -7   1   65.39    6.20
  -8   7  -1    3.00    2.80
  -8   7  -1    5.80    3.40
   8  -7   1    4.40    2.30
   8  -7   1   -0.60    1.80
   8  -7   1   -0.20    2.10
   8  -7   1    0.00    2.50
   8  -7   1    2.10    2.50
  -9   7  -1   82.79   10.90
  -9   7  -1   81.19   11.00
   9  -7   1   79.09   10.80
   9  -7   1   93.19   11.10
   9  -7   1   89.59   11.80
   9  -7   1   85.29   12.20
   9   6  -1  354.86   21.10
  -9  -6   1  432.96   20.00
  -9  -6   1  404.16   19.50
  -9  -6   1  412.26   15.60
  -9  -6   1  386.96   16.30
   8   6  -1   -0.40    2.30
   8   6  -1   -3.90    1.40
  -8  -6   1   -0.90    1.90
  -8  -6   1    1.50    2.30
  -8  -6   1    1.00    1.60
  -8  -6   1    7.40    2.60
  -8  -6   1    0.70    1.70
   7   6  -1   26.10    5.70
   7   6  -1   18.40    4.70
   7   6  -1   16.80    4.10
  -7  -6   1    9.60    2.80
  -7  -6   1   16.20    3.90
  -7  -6   1   12.20    2.50
  -7  -6   1   22.80    4.70
  -7  -6   1   16.10    2.90
  -7  -6   1   17.60    4.00
   6   6  -1    1.70    2.90
   6   6  -1    4.40    2.70
   6   6  -1    3.20    2.50
   6   6  -1    7.20    3.00
  -6  -6   1    4.40    1.80
  -6  -6   1    3.00    2.00
  -6  -6   1    3.40    1.90
  -6  -6   1    3.10    1.20
  -6  -6   1    4.20    2.70
  -6  -6   1    3.80    1.90
   5   6  -1 1366.86   36.50
   5   6  -1 1318.77   39.10
   5   6  -1 1341.37   36.50
   5   6  -1 1285.47   31.40
   5   6  -1 1325.27   35.20
  -5  -6   1 1297.57   25.20
  -5  -6   1 1332.47   34.00
  -5  -6   1 1270.87   33.90
  -5  -6   1 1317.27   31.70
  -5  -6   1 1286.17   30.60
  -5  -6   1 1239.48   29.90
  -5  -6   1 1328.77   25.10
  -5  -6   1 1286.87   35.30
   4   6  -1    3.30    2.20
   4   6  -1    7.90    2.60
   4   6  -1    7.80    2.90
   4   6  -1    6.10    1.90
   4   6  -1    9.80    3.00
   4   6  -1    5.80    2.10
  -4  -6   1    7.50    1.70
  -4  -6   1    3.20    2.20
  -4  -6   1    3.80    2.10
  -4  -6   1    5.90    2.00
  -4  -6   1    7.20    2.40
  -4  -6   1    4.90    2.10
  -4  -6   1    6.00    2.20
   3   6  -1 1331.77   31.70
   3   6  -1 1289.67   36.20
   3   6  -1 1250.27   31.70
   3   6  -1 1292.47   33.80
   3   6  -1 1288.37   33.10
   3   6  -1 1287.17   28.20
  -3  -6   1 1286.17   26.90
  -3  -6   1 1286.97   36.40
  -3  -6   1 1256.67   30.00
  -3  -6   1 1276.37   30.40
  -3  -6   1 1387.36   38.60
  -3  -6   1 1323.77   32.70
   2   6  -1  418.96   12.10
   2   6  -1  415.66   15.80
   2   6  -1  433.06   15.50
   2   6  -1  441.46   14.70
   2   6  -1  431.56   16.50
   2   6  -1  428.06   17.60
  -2  -6   1  439.16   13.10
  -2  -6   1  392.36   16.90
  -2  -6   1  429.76   14.80
  -2  -6   1  442.46   16.20
   1   6  -1 1267.57   26.00
   1   6  -1 1295.77   33.10
   1   6  -1 1243.48   30.90
   1   6  -1 1240.98   31.70
  -1  -6   1 1291.67   29.10
  -1  -6   1 1243.78   30.60
  -1  -6   1 1258.97   32.70
  -1  -6   1 1255.17   32.10
   0   6  -1    3.20    0.80
   0   6  -1    3.10    1.50
   0   6  -1    2.70    1.30
   0   6  -1    1.40    1.50
   0   6  -1    8.40    2.40
   0  -6   1    3.50    1.60
   0  -6   1   14.30    3.20
   0  -6   1    2.60    1.60
   0  -6   1    2.90    1.60
  -1   6  -1 3945.81   70.19
  -1   6  -1 4154.08   79.69
  -1   6  -1 3983.40   77.79
  -1   6  -1 3985.40   75.59
   1  -6   1 3991.20   76.59
   1  -6   1 3983.90   71.99
   1  -6   1 3935.81   77.39
   1  -6   1 3854.51   85.69
   1  -6   1 3987.00   74.59
  -2   6  -1  392.16   16.50
  -2   6  -1  386.86   13.30
  -2   6  -1  371.16   15.10
  -2   6  -1  381.46   15.80
   2  -6   1  399.46   13.10
   2  -6   1  435.06   17.50
   2  -6   1  403.76   16.40
   2  -6   1  409.86   17.90
   2  -6   1  401.36   13.70
  -3   6  -1 1446.06   34.10
  -3   6  -1 1394.16   36.80
  -3   6  -1 1402.26   37.00
   3  -6   1 1431.36   29.30
   3  -6   1 1458.55   34.20
   3  -6   1 1499.75   38.30
   3  -6   1 1468.75   38.50
   3  -6   1 1368.76   34.30
  -4   6  -1  985.90   30.50
  -4   6  -1 1069.99   31.40
  -4   6  -1 1037.60   32.40
  -4   6  -1 1062.79   29.40
   4  -6   1 1077.89   36.70
   4  -6   1 1018.50   27.10
   4  -6   1 1047.80   32.10
  -5   6  -1  706.73   26.00
  -5   6  -1  790.02   25.90
   5  -6   1  788.52   25.70
   5  -6   1  753.12   27.20
   5  -6   1  747.63   21.60
   5  -6   1  772.52   27.80
  -6   6  -1   15.00    4.00
  -6   6  -1   30.00    5.50
   6  -6   1   22.70    5.30
   6  -6   1   27.50    5.70
   6  -6   1   29.40    5.40
   6  -6   1   21.90    3.50
  -7   6  -1 1162.28   37.30
  -7   6  -1 1105.19   36.40
   7  -6   1 1096.09   26.30
   7  -6   1 1141.89   36.40
   7  -6   1 1089.49   37.90
   7  -6   1 1198.28   40.00
   7  -6   1 1116.59   36.20
  -8   6  -1   15.20    4.70
  -8   6  -1    1.40    2.50
   8  -6   1    6.30    2.60
   8  -6   1    5.40    1.60
   8  -6   1    5.60    3.10
   8  -6   1    7.20    3.80
   8  -6   1    1.70    2.30
  -9   6  -1   -1.30    2.40
  -9   6  -1    1.20    2.60
   9  -6   1    3.80    4.00
   9  -6   1    3.20    2.80
   9  -6   1   -0.30    2.40
   9  -6   1    0.40    3.00
 -10   6  -1   69.09    9.70
 -10   6  -1   46.90    9.50
  10  -6   1   79.39   11.20
  10  -6   1   75.99   10.80
  10  -6   1   76.79    9.90
  10  -6   1   79.49   11.30
 -10  -5   1   36.60    5.90
 -10  -5   1   30.60    5.50
 -10  -5   1   28.20    5.80
 -10  -5   1   26.50    6.60
  -9  -5   1   11.70    3.60
  -9  -5   1   21.50    4.70
  -9  -5   1   13.70    3.50
  -9  -5   1   12.80    3.70
   8   5  -1   87.09    9.50
  -8  -5   1   93.49    8.70
  -8  -5   1   79.49    5.70
  -8  -5   1   87.29    8.40
  -8  -5   1  104.29    8.00
  -8  -5   1   88.69    7.20
   7   5  -1  124.49   10.60
   7   5  -1  122.79    9.80
   7   5  -1  136.19   11.10
   7   5  -1  112.59   10.60
  -7  -5   1  120.59    7.40
  -7  -5   1  127.29    6.80
  -7  -5   1  109.19    5.00
  -7  -5   1  123.99    9.30
  -7  -5   1  109.79    8.30
  -7  -5   1  116.99    8.50
  -7  -5   1  127.89    9.70
   6   5  -1   99.29    8.70
   6   5  -1   94.69    8.60
   6   5  -1   94.09    8.80
   6   5  -1   94.49    9.40
  -6  -5   1   93.39    6.10
  -6  -5   1   85.39   11.50
  -6  -5   1   91.29    7.70
  -6  -5   1   91.49    4.20
  -6  -5   1   92.79    5.70
  -6  -5   1  100.49    7.80
  -6  -5   1   88.39    6.70
   5   5  -1  609.64   23.60
   5   5  -1  636.94   22.10
   5   5  -1  621.34   21.40
   5   5  -1  607.24   21.50
   5   5  -1  650.63   19.70
  -5  -5   1  623.34   14.10
  -5  -5   1  650.93   13.90
  -5  -5   1  666.13   24.50
  -5  -5   1  640.94   21.20
  -5  -5   1  630.74   18.40
  -5  -5   1  642.84   20.30
  -5  -5   1  637.64   21.10
  -5  -5   1  622.94   17.90
  -5  -5   1  641.44   15.20
  -5  -5   1  633.64   23.50
   4   5  -1    7.70    1.90
   4   5  -1    8.20    2.40
   4   5  -1    4.10    1.80
   4   5  -1    3.20    1.80
   4   5  -1    3.20    2.70
  -4  -5   1    3.70    1.60
  -4  -5   1    4.80    1.60
  -4  -5   1    7.80    1.10
  -4  -5   1    7.90    2.00
  -4  -5   1    5.10    1.80
  -4  -5   1    7.20    1.90
  -4  -5   1    3.50    1.50
  -4  -5   1    6.70    3.10
  -4  -5   1    6.50    2.20
  -4  -5   1    6.70    1.30
   3   5  -1  208.98    9.80
   3   5  -1  208.58   10.70
   3   5  -1  204.78   11.60
   3   5  -1  209.08    8.50
   3   5  -1  210.18    9.70
  -3  -5   1  206.68    6.90
  -3  -5   1  217.08    9.90
  -3  -5   1  203.78   11.20
  -3  -5   1  205.28    8.90
  -3  -5   1  201.58   10.10
  -3  -5   1  209.78    9.40
  -3  -5   1  196.68   11.30
   2   5  -1 1288.07   31.10
   2   5  -1 1294.67   26.50
   2   5  -1 1309.17   29.80
   2   5  -1 1239.58   30.20
   2   5  -1 1312.47   33.10
   2   5  -1 1274.47   29.00
  -2  -5   1 1242.38   32.50
  -2  -5   1 1290.87   30.30
  -2  -5   1 1288.87   26.30
  -2  -5   1 1278.67   28.90
   1   5  -1 2484.65   49.40
   1   5  -1 2394.46   49.99
   1   5  -1 2419.76   44.80
   1   5  -1 2533.55   51.69
  -1  -5   1 2490.05   49.00
  -1  -5   1 2480.55   50.29
  -1  -5   1 2439.06   51.19
  -1  -5   1 2497.95   47.00
   0   5  -1   55.89    4.90
   0   5  -1   64.09    5.20
   0   5  -1   57.09    2.80
   0   5  -1   59.49    4.50
   0   5  -1   61.39    5.20
   0   5  -1   63.99    5.20
   0  -5   1   57.89    5.50
   0  -5   1   60.69    5.10
   0  -5   1   60.59    5.00
   0  -5   1   54.99    4.60
  -1   5  -1 3414.46   66.49
  -1   5  -1 3411.16   64.69
  -1   5  -1 3427.16   65.69
  -1   5  -1 3397.36   60.69
   1  -5   1 3360.86   67.69
   1  -5   1 3368.56   66.09
   1  -5   1 3469.15   63.59
   1  -5   1 3404.26   65.39
   1  -5   1 3448.46   61.49
  -2   5  -1 3776.92   72.59
  -2   5  -1 3760.22   68.79
  -2   5  -1 3668.03   73.19
  -2   5  -1 3711.23   71.79
   2  -5   1 3703.73   72.79
   2  -5   1 3740.53   72.59
   2  -5   1 3789.32   68.69
   2  -5   1 3801.72   66.99
  -3   5  -1  760.52   24.40
  -3   5  -1  774.42   21.90
  -3   5  -1  760.22   23.30
  -3   5  -1  769.62   23.50
   3  -5   1  735.63   23.60
   3  -5   1  785.02   24.00
   3  -5   1  790.42   21.70
   3  -5   1  779.72   17.00
   3  -5   1  788.02   21.20
  -4   5  -1  216.38   12.60
  -4   5  -1  208.38   11.10
  -4   5  -1  206.78   11.80
  -4   5  -1  200.68   11.50
   4  -5   1  204.88   12.00
   4  -5   1  203.18    9.20
   4  -5   1  182.98   11.40
   4  -5   1  194.58   10.50
  -5   5  -1 4875.61   99.19
  -5   5  -1 4879.61   96.39
  -5   5  -1 4791.22   96.29
  -5   5  -1 5003.70   95.99
   5  -5   1 4870.11   87.79
   5  -5   1 4972.90   96.99
   5  -5   1 4745.02   96.79
   5  -5   1 5078.99   95.79
   5  -5   1 4991.70   98.49
  -6   5  -1   33.50    5.70
  -6   5  -1   48.80    6.50
   6  -5   1   40.70    6.70
   6  -5   1   34.60    5.60
   6  -5   1   33.70    5.70
   6  -5   1   40.00    4.00
   6  -5   1   33.10    5.60
  -7   5  -1  256.27   15.30
  -7   5  -1  265.07   16.00
   7  -5   1  268.57   15.10
   7  -5   1  276.67   16.00
   7  -5   1  254.87    8.80
   7  -5   1  244.38   16.10
   7  -5   1  254.77   16.00
  -8   5  -1  434.66   29.50
  -8   5  -1  404.46   20.50
   8  -5   1  414.86   21.20
   8  -5   1  383.76   19.00
   8  -5   1  367.36   20.80
   8  -5   1  367.76   21.20
  -9   5  -1  283.67   17.90
  -9   5  -1  315.27   19.40
   9  -5   1  307.27   19.80
   9  -5   1  295.67   18.90
   9  -5   1  313.17   19.60
   9  -5   1  289.27   16.70
 -10   5  -1   64.19   10.20
 -10   5  -1   62.49    9.20
  10  -5   1   76.89   10.70
  10  -5   1   72.79    8.90
  10  -5   1   60.49   10.30
  10  -5   1   68.39   10.30
 -10  -4   1  125.59   11.00
 -10  -4   1  122.99    9.50
 -10  -4   1  134.59   10.80
 -10  -4   1  124.29   10.00
  -9  -4   1    3.40    2.40
  -9  -4   1    4.60    2.80
  -9  -4   1    6.20    2.00
  -9  -4   1    5.10    2.40
  -9  -4   1    8.60    3.10
  -8  -4   1  102.19    8.10
  -8  -4   1   91.59    4.60
  -8  -4   1   95.59    5.70
  -8  -4   1   90.79    8.50
  -8  -4   1  100.99    8.30
  -8  -4   1   98.29    7.90
   7   4  -1  204.38   13.40
   7   4  -1  190.08   12.00
   7   4  -1  196.98   12.90
   7   4  -1  175.28   12.30
  -7  -4   1  177.38   13.00
  -7  -4   1  195.68   10.70
  -7  -4   1  189.28    7.70
  -7  -4   1  181.28    7.40
  -7  -4   1  198.38   11.30
  -7  -4   1  204.08   11.40
  -7  -4   1  184.38   11.10
  -7  -4   1  215.68   11.80
  -7  -4   1  193.38   10.60
   6   4  -1  451.95   19.60
   6   4  -1  447.36   18.50
   6   4  -1  449.46   18.70
   6   4  -1  455.15   18.10
  -6  -4   1  461.35   15.90
  -6  -4   1  451.35   18.30
  -6  -4   1  452.75   19.60
  -6  -4   1  414.86   17.00
  -6  -4   1  459.35   15.00
  -6  -4   1  406.76   18.80
  -6  -4   1  460.45   13.20
  -6  -4   1  448.96   12.10
  -6  -4   1  446.16   16.20
  -6  -4   1  448.16   17.30
  -6  -4   1  445.06   17.10
   5   4  -1   28.70    5.00
   5   4  -1   32.00    4.70
   5   4  -1   34.30    4.20
   5   4  -1   37.00    4.90
   5   4  -1   33.30    4.70
  -5  -4   1   36.10    3.40
  -5  -4   1   31.70    4.90
  -5  -4   1   41.10    3.70
  -5  -4   1   30.40    3.70
  -5  -4   1   40.20    4.70
  -5  -4   1   39.20    4.50
  -5  -4   1   28.60    4.60
  -5  -4   1   34.40    4.40
  -5  -4   1   42.00    4.70
  -5  -4   1   37.70    4.60
  -5  -4   1   36.10    2.70
   4   4  -1  299.97   11.50
   4   4  -1  295.87   13.90
   4   4  -1  299.47   12.70
   4   4  -1  318.57   15.60
   4   4  -1  304.27   12.70
  -4  -4   1  327.27   12.60
  -4  -4   1  311.47   11.70
  -4  -4   1  313.27    9.10
  -4  -4   1  299.07   14.00
  -4  -4   1  292.87   10.20
  -4  -4   1  290.77   12.10
  -4  -4   1  316.37   12.10
  -4  -4   1  297.47   10.70
  -4  -4   1  303.47    8.00
  -4  -4   1  303.97   13.80
  -4  -4   1  307.27   12.40
   3   4  -1  435.96   14.70
   3   4  -1  422.16   12.60
   3   4  -1  420.46   14.60
   3   4  -1  414.76   15.90
   3   4  -1  395.66   13.40
   3   4  -1  426.66   14.10
  -3  -4   1  407.76   14.10
  -3  -4   1  430.76   15.80
  -3  -4   1  420.96    9.80
  -3  -4   1  417.16   12.00
  -3  -4   1  418.36   13.40
  -3  -4   1  396.06   13.00
  -3  -4   1  411.46    9.00
  -3  -4   1  407.46   15.80
   2   4  -1  570.74   16.70
   2   4  -1  533.95   15.10
   2   4  -1  562.94   17.90
   2   4  -1  513.95   15.70
   2   4  -1  551.04   13.80
   2   4  -1  557.24   15.50
  -2  -4   1  543.55   14.90
  -2  -4   1  559.44   15.60
  -2  -4   1  538.55   12.50
  -2  -4   1  535.75   17.60
  -2  -4   1  565.44   14.40
  -2  -4   1  546.85   16.20
   1   4  -1   44.50    4.30
   1   4  -1   48.10    4.20
   1   4  -1   39.30    2.80
   1   4  -1   43.30    3.70
  -1  -4   1   46.10    3.80
  -1  -4   1   41.80    3.80
  -1  -4   1   39.20    4.10
  -1  -4   1   42.10    3.10
   0   4  -1 2889.91   52.59
   0   4  -1 2907.01   54.39
   0   4  -1 2803.72   54.19
   0   4  -1 2849.71   54.09
   0   4  -1 2876.71   48.60
   0   4  -1 2941.41   54.69
   0  -4   1 2834.72   55.09
   0  -4   1 2830.22   54.19
   0  -4   1 2893.91   53.09
  -1   4  -1 1752.72   37.70
  -1   4  -1 1780.02   37.30
  -1   4  -1 1777.12   33.90
  -1   4  -1 1777.92   36.50
   1  -4   1 1795.72   33.80
   1  -4   1 1758.02   38.60
   1  -4   1 1791.82   35.10
   1  -4   1 1711.53   36.70
   1  -4   1 1787.42   37.50
  -2   4  -1  434.66   15.50
  -2   4  -1  411.96   14.30
  -2   4  -1  438.26   13.30
  -2   4  -1  400.86   14.00
   2  -4   1  429.76   11.30
   2  -4   1  398.96   14.30
   2  -4   1  433.66   12.80
   2  -4   1  424.66   14.70
  -3   4  -1 2415.56   51.69
  -3   4  -1 2534.85   52.29
  -3   4  -1 2548.65   53.89
  -3   4  -1 2588.84   51.19
   3  -4   1 2549.44   53.09
   3  -4   1 2475.85   52.29
   3  -4   1 2501.45   50.09
   3  -4   1 2519.05   48.30
   3  -4   1 2551.04   43.50
  -4   4  -1  151.08    8.60
  -4   4  -1  155.88    9.40
  -4   4  -1  144.99    9.20
  -4   4  -1  160.78    9.40
  -4   4  -1  147.99    9.80
   4  -4   1  158.08    7.10
   4  -4   1  155.08    9.60
   4  -4   1  162.88    9.70
   4  -4   1  162.98   12.00
   4  -4   1  161.28    9.10
  -5   4  -1  376.96   16.20
  -5   4  -1  382.36   16.20
  -5   4  -1  357.46   15.10
  -5   4  -1  355.96   16.00
   5  -4   1  387.76   17.00
   5  -4   1  373.26   15.90
   5  -4   1  374.96   11.30
   5  -4   1  376.76   18.80
   5  -4   1  377.26   16.20
  -6   4  -1 1080.79   31.80
  -6   4  -1 1019.50   30.70
  -6   4  -1 1011.00   36.90
  -6   4  -1 1088.79   32.30
   6  -4   1 1074.79   22.30
   6  -4   1 1067.29   31.90
   6  -4   1 1096.09   33.70
   6  -4   1 1041.40   30.60
   6  -4   1 1053.59   31.90
   6  -4   1 1089.19   33.10
  -7   4  -1    0.10    1.90
  -7   4  -1    1.20    1.40
   7  -4   1    8.30    3.20
   7  -4   1    2.80    2.00
   7  -4   1    7.10    2.90
   7  -4   1    1.10    1.60
  -8   4  -1   11.20    3.50
  -8   4  -1   23.80    5.10
   8  -4   1   24.90    5.80
   8  -4   1   19.30    5.40
   8  -4   1   13.60    3.70
   8  -4   1   10.40    3.50
  -9   4  -1  777.62   40.40
  -9   4  -1  681.63   29.00
   9  -4   1  678.53   33.30
   9  -4   1  664.63   29.00
   9  -4   1  637.64   24.60
 -10   4  -1    6.80    3.40
 -10   4  -1    8.30    4.00
  10  -4   1   12.70    5.60
  10  -4   1    7.20    3.80
  10  -4   1    0.70    2.40
  10  -4   1    3.50    3.40
 -11  -3   1    0.30    2.60
 -11  -3   1    6.90    2.90
 -11  -3   1    0.60    2.10
 -10  -3   1  251.37   15.60
 -10  -3   1  252.97   15.40
 -10  -3   1  227.18   11.40
 -10  -3   1  254.47   12.20
 -10  -3   1  231.68   13.50
  -9  -3   1  213.18   12.50
  -9  -3   1  196.08   13.00
  -9  -3   1  192.98    9.90
  -9  -3   1  195.18   12.70
  -9  -3   1  203.08   11.00
  -8  -3   1   93.39    6.30
  -8  -3   1  106.59    8.90
  -8  -3   1  106.99    7.50
  -8  -3   1  100.79    8.50
  -8  -3   1   89.69    7.80
   7   3  -1    5.00    2.60
   7   3  -1    3.20    2.30
  -7  -3   1    2.00    0.90
  -7  -3   1    2.80    1.60
  -7  -3   1    1.00    2.30
  -7  -3   1    1.60    1.30
  -7  -3   1    1.40    1.70
  -7  -3   1    0.60    1.70
  -7  -3   1    5.10    2.30
  -7  -3   1    0.10    2.00
  -7  -3   1    1.20    1.90
  -7  -3   1    2.10    1.70
  -7  -3   1    0.60    1.60
   6   3  -1 3216.88   68.39
   6   3  -1 3252.27   66.39
   6   3  -1 3244.58   67.99
   6   3  -1 3114.99   67.39
  -6  -3   1 3363.86   63.99
  -6  -3   1 3235.58   68.79
  -6  -3   1 3211.68   58.79
  -6  -3   1 3332.27   64.09
  -6  -3   1 3177.58   66.09
  -6  -3   1 3243.08   65.99
  -6  -3   1 3297.27   64.19
  -6  -3   1 3249.18   57.39
  -6  -3   1 3182.98   64.79
  -6  -3   1 3228.98   64.89
  -6  -3   1 3329.07   69.89
  -6  -3   1 3255.07   64.89
  -6  -3   1 3247.78   68.09
   5   3  -1  301.87   13.00
   5   3  -1  274.27   12.80
   5   3  -1  287.77   16.00
   5   3  -1  300.07   12.60
   5   3  -1  309.77   17.10
  -5  -3   1  295.47   12.60
  -5  -3   1  304.77   12.00
  -5  -3   1  294.87    9.00
  -5  -3   1  277.37   11.50
  -5  -3   1  307.27   12.70
  -5  -3   1  310.07   12.40
  -5  -3   1  288.67   13.70
  -5  -3   1  293.77    8.90
  -5  -3   1  305.07   11.20
  -5  -3   1  289.77   13.60
  -5  -3   1  278.77   12.80
   4   3  -1  169.78    9.00
   4   3  -1  167.18    8.90
   4   3  -1  172.28    9.70
   4   3  -1  179.58    8.50
   4   3  -1  164.38    8.70
  -4  -3   1  177.48    8.60
  -4  -3   1  192.58    8.40
  -4  -3   1  190.88    9.20
  -4  -3   1  182.98    7.40
  -4  -3   1  189.58    6.80
  -4  -3   1  175.88    5.70
  -4  -3   1  175.18    8.00
  -4  -3   1  184.68    8.80
  -4  -3   1  191.08    9.90
  -4  -3   1  159.58    9.40
   3   3  -1  760.22   20.60
   3   3  -1  787.12   19.40
   3   3  -1  809.02   21.00
   3   3  -1  827.42   20.90
   3   3  -1  811.12   22.50
  -3  -3   1  776.22   22.20
  -3  -3   1  816.62   20.50
  -3  -3   1  804.72   17.10
  -3  -3   1  818.82   19.00
  -3  -3   1  813.62   19.30
  -3  -3   1  858.91   20.80
  -3  -3   1  818.72   20.20
  -3  -3   1  811.12   15.50
  -3  -3   1  825.12   20.20
  -3  -3   1  810.62   22.10
   2   3  -1 1364.66   27.90
   2   3  -1 1403.36   27.60
   2   3  -1 1438.46   29.70
   2   3  -1 1403.66   31.40
   2   3  -1 1341.07   29.50
   2   3  -1 1390.16   28.90
  -2  -3   1 1404.66   24.70
  -2  -3   1 1362.26   24.00
  -2  -3   1 1400.16   31.70
  -2  -3   1 1394.26   28.10
  -2  -3   1 1409.96   27.20
  -2  -3   1 1389.16   27.80
   1   3  -1 2485.55   44.30
   1   3  -1 2528.35   45.80
   1   3  -1 2552.64   47.20
   1   3  -1 2427.46   48.20
  -1  -3   1 2542.85   48.40
  -1  -3   1 2563.34   46.40
  -1  -3   1 2552.94   43.90
  -1  -3   1 2509.95   47.10
  -1  -3   1 2517.85   46.20
  -1   3  -1  745.23   16.30
  -1   3  -1  726.03   18.50
  -1   3  -1  736.93   17.80
  -1   3  -1  751.02   18.40
   1  -3   1  715.43   18.00
   1  -3   1  756.12   19.20
   1  -3   1  702.53   18.10
   1  -3   1  729.43   16.40
   1  -3   1  737.43   15.80
  -2   3  -1  139.09    8.70
  -2   3  -1  129.59    6.40
  -2   3  -1  138.99    7.10
  -2   3  -1  130.29    5.90
  -2   3  -1  133.19    6.90
   2  -3   1  139.19    4.80
   2  -3   1  147.79    7.40
   2  -3   1  128.79    7.10
   2  -3   1  143.39    6.30
  -3   3  -1  125.99    6.70
  -3   3  -1  117.19    7.50
  -3   3  -1  111.89    6.70
  -3   3  -1  115.29    6.90
   3  -3   1  124.89    6.80
   3  -3   1  122.69    5.40
   3  -3   1  129.79    7.40
   3  -3   1  123.79    3.50
  -4   3  -1  983.10   26.60
  -4   3  -1  981.20   28.00
  -4   3  -1 1019.20   26.00
  -4   3  -1  983.90   26.50
  -4   3  -1  990.40   26.20
   4  -3   1  949.80   26.10
   4  -3   1 1003.20   26.20
   4  -3   1  973.80   25.90
   4  -3   1 1019.50   27.40
   4  -3   1  994.20   20.60
  -5   3  -1    7.40    2.50
  -5   3  -1    5.30    2.10
  -5   3  -1    8.60    2.80
  -5   3  -1    6.50    2.30
   5  -3   1    8.30    2.60
   5  -3   1    3.80    2.00
   5  -3   1   12.40    3.10
   5  -3   1    9.00    2.80
   5  -3   1    7.80    1.40
   5  -3   1    7.00    2.60
  -6   3  -1 1556.54   41.00
  -6   3  -1 1664.13   41.10
  -6   3  -1 1658.43   42.30
   6  -3   1 1718.83   42.90
   6  -3   1 1651.53   41.30
   6  -3   1 1678.03   42.40
   6  -3   1 1683.43   43.80
   6  -3   1 1671.83   39.80
  -7   3  -1  297.17   15.30
  -7   3  -1  307.57   16.30
   7  -3   1  333.77   17.10
   7  -3   1  292.97   14.10
   7  -3   1  292.27   16.50
   7  -3   1  312.97   16.60
   7  -3   1  310.07   15.60
  -8   3  -1  109.89    9.70
  -8   3  -1   91.09    9.50
   8  -3   1  115.39   10.30
   8  -3   1  107.99   10.30
   8  -3   1  103.49    8.70
   8  -3   1  114.49   11.00
  -9   3  -1   57.09    8.50
  -9   3  -1   66.39    7.90
   9  -3   1   67.59    8.50
   9  -3   1   73.39   11.20
   9  -3   1   67.39    7.30
   9  -3   1   72.69    9.40
 -10   3  -1  214.38   16.40
 -10   3  -1  189.68   13.90
  10  -3   1  217.28   13.30
  10  -3   1  195.88   15.90
  10  -3   1  193.38   16.00
  10  -3   1  195.88   15.20
 -11   3  -1   32.40    7.80
 -11   3  -1   21.10    5.60
  11  -3   1   34.90    8.20
  11  -3   1   27.80    6.80
  11  -3   1   17.90    4.70
  11  -3   1   35.70    7.50
  11   2  -1    8.10    4.50
 -11  -2   1    7.00    3.40
 -11  -2   1    6.40    3.50
 -11  -2   1    3.80    3.50
  10   2  -1   65.69    8.80
 -10  -2   1   80.89    7.60
 -10  -2   1   59.49    7.40
 -10  -2   1   66.29    8.40
 -10  -2   1   63.09    5.30
 -10  -2   1   64.79    8.20
   9   2  -1   83.19    9.30
  -9  -2   1   98.29    9.10
  -9  -2   1   86.19    8.30
  -9  -2   1   98.59    9.40
  -9  -2   1   87.79    6.60
  -9  -2   1   86.99    7.10
   8   2  -1  552.14   22.60
   8   2  -1  565.14   23.50
  -8  -2   1  538.95   17.80
  -8  -2   1  581.24   21.80
  -8  -2   1  548.35   20.30
  -8  -2   1  582.94   18.10
  -8  -2   1  560.94   20.30
  -8  -2   1  495.45   20.50
  -8  -2   1  511.85   20.80
   7   2  -1  282.07   14.70
   7   2  -1  279.97   15.10
  -7  -2   1  305.97   14.30
  -7  -2   1  281.47   14.30
  -7  -2   1  300.57   14.20
  -7  -2   1  295.47   15.40
  -7  -2   1  271.37   14.90
  -7  -2   1  356.96   19.10
  -7  -2   1  296.87   11.50
  -7  -2   1  301.27   14.40
  -7  -2   1  302.97   12.00
   6   2  -1  375.56   15.90
   6   2  -1  383.86   16.50
   6   2  -1  382.56   16.50
  -6  -2   1  391.26   15.20
  -6  -2   1  388.76   14.60
  -6  -2   1  375.56   14.90
  -6  -2   1  359.36   14.90
  -6  -2   1  385.46   16.70
  -6  -2   1  374.06    9.80
  -6  -2   1  379.96   16.40
  -6  -2   1  382.06   14.60
  -6  -2   1  374.26   15.70
  -6  -2   1  379.06   13.40
  -6  -2   1  372.26   15.40
  -6  -2   1  396.26   15.40
   5   2  -1  576.34   19.10
   5   2  -1  583.54   18.80
   5   2  -1  565.74   19.00
   5   2  -1  590.64   19.30
   5   2  -1  587.24   19.20
   5   2  -1  575.14   18.40
   5   2  -1  585.94   19.40
  -5  -2   1  606.54   18.00
  -5  -2   1  581.54   18.60
  -5  -2   1  575.14   17.70
  -5  -2   1  583.54   19.10
  -5  -2   1  592.84   18.40
  -5  -2   1  597.64   13.20
  -5  -2   1  581.14   16.90
  -5  -2   1  600.64   17.70
  -5  -2   1  593.84   15.00
  -5  -2   1  612.14   20.00
  -5  -2   1  622.24   19.80
  -5  -2   1  591.34   17.90
  -5  -2   1  596.64   18.30
   4   2  -1  715.53   19.60
   4   2  -1  670.03   20.20
   4   2  -1  715.73   20.00
   4   2  -1  726.83   19.80
   4   2  -1  831.32   21.10
   4   2  -1  711.53   20.20
  -4  -2   1  731.43   20.80
  -4  -2   1  759.62   20.50
  -4  -2   1  715.33   18.80
  -4  -2   1  714.63   19.10
  -4  -2   1  680.93   18.30
  -4  -2   1  727.83   15.00
  -4  -2   1  728.23   15.70
  -4  -2   1  710.03   18.40
  -4  -2   1  727.33   19.00
  -4  -2   1  688.73   19.30
  -4  -2   1  709.83   19.30
  -4  -2   1  677.63   20.20
   3   2  -1  166.98    8.10
   3   2  -1  164.28    7.20
   3   2  -1  167.58    7.40
   3   2  -1  159.48    7.40
   3   2  -1  150.68    7.20
  -3  -2   1  163.38    6.60
  -3  -2   1  184.78   10.70
  -3  -2   1  156.58    7.20
  -3  -2   1  165.28    7.30
  -3  -2   1  160.58    4.80
  -3  -2   1  161.38    5.20
  -3  -2   1  159.28    7.10
  -3  -2   1  165.88    7.20
  -3  -2   1  170.18    7.00
  -3  -2   1  163.38    7.70
   2   2  -1  128.99    5.80
   2   2  -1  119.09    6.30
   2   2  -1  127.89    5.40
   2   2  -1  131.99    6.00
   2   2  -1  127.99    5.00
  -2  -2   1  143.99    5.40
  -2  -2   1  133.89    5.70
  -2  -2   1  130.49    5.70
  -2  -2   1  138.19    5.50
  -2  -2   1  132.79    6.20
  -2  -2   1  131.09    5.80
  -2  -2   1  129.89    6.50
   0   2  -1 1405.36   24.10
   0   2  -1 1373.06   26.30
   0   2  -1 1405.26   25.70
   0   2  -1 1337.07   26.70
   0  -2   1 1416.96   26.90
   0  -2   1 1393.56   24.30
   0  -2   1 1421.86   25.90
   0  -2   1 1369.06   26.60
   0  -2   1 1397.86   26.90
  -1   2  -1  112.79    5.10
  -1   2  -1  106.89    4.40
  -1   2  -1  113.39    5.30
  -1   2  -1  106.79    3.90
  -1   2  -1  105.89    4.90
   1  -2   1  102.99    4.90
   1  -2   1  104.69    4.00
   1  -2   1  114.39    5.10
   1  -2   1  105.99    4.40
  -2   2  -1 1842.82   34.20
  -2   2  -1 1709.33   34.60
  -2   2  -1 1742.13   35.30
  -2   2  -1 1720.33   34.90
   2  -2   1 1808.72   35.90
   2  -2   1 1784.92   34.20
   2  -2   1 1821.22   35.40
  -3   2  -1  501.85   14.60
  -3   2  -1  516.95   15.40
  -3   2  -1  460.05   14.70
  -3   2  -1  492.65   14.70
   3  -2   1  495.55   14.70
   3  -2   1  488.25   15.00
   3  -2   1  502.15   10.00
   3  -2   1  516.05   15.60
   3  -2   1  513.05   15.00
   3  -2   1  502.45   11.00
  -4   2  -1 1653.43   36.80
  -4   2  -1 1619.74   35.60
  -4   2  -1 1586.24   36.00
  -4   2  -1 1577.04   36.10
   4  -2   1 1654.13   28.50
   4  -2   1 1624.64   36.40
   4  -2   1 1636.84   36.90
   4  -2   1 1608.04   28.30
   4  -2   1 1601.04   35.10
   4  -2   1 1558.64   35.40
   4  -2   1 1641.84   37.70
  -5   2  -1   87.69    6.60
  -5   2  -1   86.59    6.80
   5  -2   1   87.09    7.00
   5  -2   1   80.49    7.10
   5  -2   1   89.39    7.10
   5  -2   1   87.69    6.30
   5  -2   1   91.69    6.70
   5  -2   1   87.99    3.70
  -6   2  -1   48.20    5.60
  -6   2  -1   65.69    6.80
  -6   2  -1   57.89    6.20
  -6   2  -1   51.39    6.00
  -6   2  -1   56.49    5.80
   6  -2   1   57.59    6.70
   6  -2   1   64.59    6.00
   6  -2   1   53.09    3.20
   6  -2   1   52.49    5.20
   6  -2   1   68.49    7.00
   6  -2   1   54.69    6.30
  -7   2  -1   16.90    4.00
  -7   2  -1   26.30    5.50
  -7   2  -1   22.40    4.50
  -7   2  -1   18.20    4.40
   7  -2   1   22.70    5.30
   7  -2   1   28.60    5.10
   7  -2   1   31.10    4.70
   7  -2   1   34.60    5.80
   7  -2   1   19.40    4.70
  -8   2  -1 1649.13   45.20
  -8   2  -1 1560.84   41.80
  -8   2  -1 1594.94   38.90
   8  -2   1 1604.24   43.50
   8  -2   1 1643.24   39.40
   8  -2   1 1613.84   45.70
   8  -2   1 1519.05   47.00
   8  -2   1 1627.54   46.10
  -9   2  -1    6.60    3.10
  -9   2  -1   12.40    3.40
  -9   2  -1   14.20    4.20
   9  -2   1   17.90    4.20
   9  -2   1   13.80    4.40
   9  -2   1   10.20    3.30
 -10   2  -1  120.99   12.10
 -10   2  -1  128.79   11.20
  10  -2   1  112.89   12.10
  10  -2   1  110.69    8.90
  10  -2   1  112.59   11.90
 -11   2  -1  123.99   13.40
 -11   2  -1  127.29   11.90
  11  -2   1  124.79   13.40
  11  -2   1   94.09    8.80
  11  -2   1  130.69   14.20
  11   1  -1   -2.50    2.30
 -11  -1   1    0.80    2.10
 -11  -1   1    4.80    4.10
 -11  -1   1   -1.60    2.40
  10   1  -1   49.00   12.90
  10   1  -1   18.20    5.10
 -10  -1   1   48.80    6.80
 -10  -1   1   37.30    3.70
 -10  -1   1   38.30    7.20
   9   1  -1    1.90    2.40
   9   1  -1    2.30    2.40
  -9  -1   1    2.50    2.10
  -9  -1   1    5.50    2.80
  -9  -1   1    4.30    2.30
  -9  -1   1   -0.60    1.00
  -9  -1   1    2.50    2.40
   8   1  -1  538.95   21.90
   8   1  -1  492.15   22.20
  -8  -1   1  505.75   18.00
  -8  -1   1  517.35   19.50
  -8  -1   1  508.75   21.30
  -8  -1   1  507.65   19.40
  -8  -1   1  523.75   20.20
  -8  -1   1  520.95   15.60
   7   1  -1 1229.98   34.20
   7   1  -1 1250.27   35.80
   7   1  -1 1173.68   23.40
  -7  -1   1 1169.18   29.40
  -7  -1   1 1194.48   31.70
  -7  -1   1 1232.38   32.40
  -7  -1   1 1191.28   35.00
  -7  -1   1 1259.97   34.20
  -7  -1   1 1189.88   33.30
  -7  -1   1 1196.78   27.60
  -7  -1   1 1207.38   31.50
  -7  -1   1 1166.58   37.80
   6   1  -1   29.30    2.30
   6   1  -1   26.40    4.70
   6   1  -1   27.10    3.40
   6   1  -1   34.90    5.60
  -6  -1   1   27.50    4.40
  -6  -1   1   29.30    3.90
  -6  -1   1   31.50    4.10
  -6  -1   1   24.30    4.80
  -6  -1   1   27.80    3.50
  -6  -1   1   30.20    5.90
  -6  -1   1   25.60    3.00
  -6  -1   1   24.80    4.40
  -6  -1   1   25.90    5.40
  -6  -1   1   26.80    4.10
  -6  -1   1   29.90    4.00
   5   1  -1   13.10    2.90
   5   1  -1   11.90    2.70
   5   1  -1   21.70    2.70
   5   1  -1    9.60    1.30
   5   1  -1   12.60    3.00
   5   1  -1   13.00    3.10
  -5  -1   1   13.90    2.90
  -5  -1   1   13.50    2.80
  -5  -1   1   14.60    2.70
  -5  -1   1    9.00    2.50
  -5  -1   1    8.70    2.00
  -5  -1   1   13.20    2.50
  -5  -1   1   14.50    2.80
  -5  -1   1   12.70    2.90
  -5  -1   1   13.40    2.60
   4   1  -1 2908.91   57.69
   4   1  -1 2945.91   58.09
   4   1  -1 3056.89   53.59
   4   1  -1 3047.79   57.09
   4   1  -1 2922.91   49.99
   4   1  -1 3033.90   57.49
   4   1  -1 2896.61   57.29
   4   1  -1 2878.71   57.19
  -4  -1   1 3017.60   54.59
  -4  -1   1 3032.30   57.09
  -4  -1   1 3030.20   53.59
  -4  -1   1 3009.00   58.29
  -4  -1   1 2986.40   56.99
  -4  -1   1 3105.79   56.69
  -4  -1   1 2941.91   57.19
  -4  -1   1 3006.90   50.29
  -4  -1   1 2925.31   56.69
  -4  -1   1 3080.69   56.59
   3   1  -1 1027.90   24.00
   3   1  -1 1030.20   23.60
   3   1  -1 1045.60   23.80
   3   1  -1 1167.78   24.40
   3   1  -1 1018.20   20.60
   3   1  -1 1072.49   23.80
   3   1  -1 1038.00   23.70
   3   1  -1 1021.20   23.90
  -3  -1   1 1072.59   22.60
  -3  -1   1 1046.70   18.70
  -3  -1   1 1159.48   24.30
  -3  -1   1 1070.39   24.00
  -3  -1   1 1064.79   23.40
  -3  -1   1 1043.20   24.10
  -3  -1   1 1088.29   23.70
  -3  -1   1 1072.49   20.70
   1   1  -1 1318.87   25.00
   1   1  -1 1350.36   24.90
   1   1  -1 1392.56   23.90
   1   1  -1 1279.17   24.40
   1   1  -1 1331.57   22.90
   1   1  -1 1337.77   24.60
  -1  -1   1 1333.67   25.70
  -1  -1   1 1286.67   24.80
  -1  -1   1 1330.07   24.40
  -1  -1   1 1356.76   24.60
  -1  -1   1 1371.06   23.80
   0   1  -1  979.40   17.60
   0   1  -1  975.80   17.50
   0   1  -1  966.30   17.00
   0   1  -1  973.50   17.90
   0  -1   1  954.90   17.90
   0  -1   1  981.20   17.10
   0  -1   1  903.81   18.20
   0  -1   1  961.50   17.60
   0  -1   1  983.50   18.40
  -1   1  -1 1644.54   29.70
  -1   1  -1 1623.84   28.40
  -1   1  -1 1587.14   29.00
   1  -1   1 1568.54   28.30
   1  -1   1 1627.44   29.80
   1  -1   1 1603.24   29.30
   1  -1   1 1594.24   29.80
   1  -1   1 1553.34   29.00
  -3   1  -1   88.19    5.30
  -3   1  -1   96.09    5.60
  -3   1  -1   89.39    5.40
  -3   1  -1   99.49    5.20
   3  -1   1   99.39    3.90
   3  -1   1   95.19    5.60
   3  -1   1   91.49    5.50
   3  -1   1   92.79    5.80
   3  -1   1   92.49    5.10
   3  -1   1   89.09    5.00
  -4   1  -1 3470.75   64.39
  -4   1  -1 3334.07   65.89
  -4   1  -1 3555.44   66.79
  -4   1  -1 3673.53   66.39
   4  -1   1 3371.16   65.89
   4  -1   1 3395.86   66.39
   4  -1   1 3510.85   60.49
   4  -1   1 3448.65   67.29
   4  -1   1 3524.95   65.09
   4  -1   1 3595.94   64.19
  -5   1  -1   34.80    4.20
  -5   1  -1   34.60    4.20
  -5   1  -1   30.90    4.30
  -5   1  -1   33.20    4.40
  -5   1  -1   36.70    4.10
   5  -1   1   32.30    4.30
   5  -1   1   32.40    3.70
   5  -1   1   29.30    3.70
   5  -1   1   40.20    4.90
   5  -1   1   43.40    4.70
   5  -1   1   35.80    3.10
  -6   1  -1  924.01   27.40
  -6   1  -1  949.11   25.90
  -6   1  -1  948.01   27.20
  -6   1  -1  930.61   28.30
  -6   1  -1 1053.49   32.40
  -6   1  -1  914.31   26.60
  -6   1  -1  949.11   28.00
   6  -1   1  957.50   28.20
   6  -1   1  943.31   28.80
   6  -1   1  917.51   25.60
   6  -1   1  947.21   22.00
   6  -1   1  934.51   28.40
   6  -1   1  977.10   24.80
  -7   1  -1  269.77   14.70
  -7   1  -1  310.77   14.00
  -7   1  -1  297.77   14.40
  -7   1  -1  300.67   15.00
  -7   1  -1  273.57   15.00
  -7   1  -1  294.07   12.30
   7  -1   1  288.57   10.70
   7  -1   1  291.67   15.70
   7  -1   1  314.67   12.80
   7  -1   1  298.97   14.50
   7  -1   1  288.97   13.40
   7  -1   1  292.87   15.80
  -8   1  -1  589.44   21.50
  -8   1  -1  613.84   24.20
  -8   1  -1  594.14   19.70
   8  -1   1  555.34   20.90
   8  -1   1  601.74   23.00
   8  -1   1  579.14   24.20
   8  -1   1  601.14   24.90
   8  -1   1  587.94   19.40
  -9   1  -1    1.40    1.90
  -9   1  -1    1.60    2.20
  -9   1  -1    0.80    1.90
   9  -1   1    2.70    2.30
   9  -1   1    6.00    3.40
   9  -1   1    2.00    2.10
   9  -1   1    3.20    2.10
 -10   1  -1    4.00    3.90
 -10   1  -1    8.30    3.30
  10  -1   1    6.30    2.60
  10  -1   1    2.50    3.10
  10  -1   1    6.10    3.70
 -11   1  -1    7.90    4.00
 -11   1  -1    5.00    3.10
  11  -1   1   14.10    5.40
  11   0  -1    4.70    3.00
  11   0  -1    1.00    2.90
 -11   0   1    1.20    3.30
 -11   0   1    1.30    2.60
  10   0  -1    7.10    2.90
  10   0  -1   11.80    4.80
 -10   0   1   11.10    4.70
 -10   0   1   11.20    3.90
 -10   0   1   12.90    3.70
   9   0  -1    9.20    3.00
   9   0  -1    3.50    2.60
   9   0  -1    4.20    1.50
   9   0  -1    0.90    2.30
  -9   0   1    3.60    2.20
  -9   0   1    2.50    2.10
  -9   0   1    3.90    2.60
  -9   0   1    6.30    1.60
  -9   0   1    0.60    2.50
   8   0  -1  580.24   20.40
   8   0  -1  579.84   22.70
   8   0  -1  520.25   13.90
   8   0  -1  567.84   24.00
  -8   0   1  549.95   18.80
  -8   0   1  571.64   20.70
  -8   0   1  545.25   15.20
  -8   0   1  594.04   23.60
  -8   0   1  582.84   21.90
   7   0  -1 3483.55   62.09
   7   0  -1 3549.15   69.79
   7   0  -1 3526.05   73.29
   7   0  -1 3594.64   75.89
  -7   0   1 3545.15   74.29
  -7   0   1 3513.55   63.89
  -7   0   1 3488.65   71.99
  -7   0   1 3499.05   68.09
  -7   0   1 3414.36   74.89
  -7   0   1 3572.24   73.39
  -7   0   1 3594.54   70.89
  -7   0   1 3522.95   69.59
  -7   0   1 3531.95   74.39
   6   0  -1  152.48    5.90
   6   0  -1  166.78    8.80
   6   0  -1  137.69    9.70
   6   0  -1  154.08    9.60
  -6   0   1  160.28   11.00
  -6   0   1  163.48    9.50
  -6   0   1  153.58    8.80
  -6   0   1  153.88    8.20
  -6   0   1  135.49    9.50
  -6   0   1  152.88    9.60
  -6   0   1  152.18   10.10
  -6   0   1  154.58    6.80
  -6   0   1  154.78    9.60
  -6   0   1  160.98   10.10
  -6   0   1  148.09    8.20
   5   0  -1  458.55   15.80
   5   0  -1  438.86   16.70
   5   0  -1  464.25   11.20
   5   0  -1  441.06   14.30
  -5   0   1  450.45   16.70
  -5   0   1  450.65   15.10
  -5   0   1  473.85   16.10
  -5   0   1  462.95   12.70
  -5   0   1  468.25   14.10
  -5   0   1  479.35   15.90
  -5   0   1  459.65   14.30
  -5   0   1  460.65   15.80
  -5   0   1  472.85   15.80
  -5   0   1  433.56   15.70
   4   0  -1 1240.48   29.90
   4   0  -1 1236.48   23.20
   4   0  -1 1239.08   28.40
   4   0  -1 1231.98   29.10
   4   0  -1 1254.17   27.00
  -4   0   1 1266.27   26.90
  -4   0   1 1245.68   25.40
  -4   0   1 1285.57   26.90
  -4   0   1 1245.38   28.40
  -4   0   1 1282.57   29.90
  -4   0   1 1266.87   28.80
  -4   0   1 1290.27   28.80
  -4   0   1 1253.67   28.00
  -4   0   1 1242.58   28.70
  -4   0   1 1211.68   28.40
   3   0  -1 3412.06   58.89
   3   0  -1 3317.97   61.59
   3   0  -1 3386.06   59.69
   3   0  -1 3246.98   62.29
   3   0  -1 3217.78   59.29
   3   0  -1 3519.45   61.99
   3   0  -1 3363.86   60.79
  -3   0   1 3432.86   61.59
  -3   0   1 3513.25   61.29
  -3   0   1 3421.36   59.79
  -3   0   1 3305.57   62.19
  -3   0   1 3289.57   61.09
  -3   0   1 3468.55   59.59
  -3   0   1 3522.25   59.29
  -3   0   1 3439.86   61.19
  -3   0   1 3489.25   61.29
  -3   0   1 3454.45   61.69
   2   0  -1  370.16    9.40
   2   0  -1  361.36    8.80
   2   0  -1  356.66    9.90
   2   0  -1  360.66   10.30
   2   0  -1  361.46    6.90
   2   0  -1  371.36    9.10
   2   0  -1  365.56    9.90
  -2   0   1  363.96    8.80
  -2   0   1  373.56   10.00
  -2   0   1  358.76    9.70
  -2   0   1  365.16    9.40
  -2   0   1  361.66   10.00
  -2   0   1  359.86   10.20
  -2   0   1  356.06    9.40
  -2   0   1  351.26    9.90
  -2   0   1  380.56   10.00
  -2   0   1  371.96    9.20
   0   0   1    0.00    0.10
  -2   0  -1   11.30    1.60
  -2   0  -1    8.30    1.30
  -2   0  -1    9.70    1.60
  -2   0  -1   12.90    1.40
  -2   0  -1   10.10    1.50
   2   0   1    9.50    1.60
   2   0   1   11.60    1.40
   2   0   1   12.20    1.60
   2   0   1   12.40    1.30
   2   0   1   11.90    1.60
   2   0   1   10.20    1.50
   2   0   1   11.00    1.70
  -3   0  -1  556.74   14.70
  -3   0  -1  550.54   13.30
  -3   0  -1  562.04   12.50
  -3   0  -1  525.95   15.20
  -3   0  -1  539.05   14.80
  -3   0  -1  534.65   13.30
  -3   0  -1  554.94   13.80
  -3   0  -1  572.24   15.90
   3   0   1  541.35   15.00
   3   0   1  549.85   15.40
   3   0   1  552.74   13.80
   3   0   1  555.24   14.70
   3   0   1  541.85   15.70
   3   0   1  538.05   13.30
   3   0   1  547.65   13.50
  -4   0  -1 2348.86   42.40
  -4   0  -1 2332.27   45.50
  -4   0  -1 2296.07   43.00
  -4   0  -1 2297.67   43.70
  -4   0  -1 2185.98   46.90
  -4   0  -1 2266.57   43.50
  -4   0  -1 2412.76   46.60
  -4   0  -1 2267.27   45.10
  -4   0  -1 2264.67   45.90
  -4   0  -1 2338.77   47.30
   4   0   1 2202.88   46.60
   4   0   1 2231.28   47.20
   4   0   1 2241.08   43.30
   4   0   1 2342.47   43.40
   4   0   1 2253.07   43.40
   4   0   1 2198.78   45.00
  -5   0  -1   44.40    4.80
  -5   0  -1   54.69    4.30
  -5   0  -1   51.49    4.80
  -5   0  -1   56.49    5.70
  -5   0  -1   45.80    5.00
  -5   0  -1   51.79    5.10
  -5   0  -1   56.29    5.00
  -5   0  -1   53.59    4.00
  -5   0  -1   55.89    4.60
  -5   0  -1   55.69    5.20
   5   0   1   52.79    4.30
   5   0   1   64.79    6.10
   5   0   1   48.30    4.10
   5   0   1   53.39    5.40
   5   0   1   43.80    4.60
   5   0   1   50.49    4.30
  -6   0  -1  721.23   20.10
  -6   0  -1  703.43   24.20
  -6   0  -1  706.33   23.90
  -6   0  -1  720.73   23.00
  -6   0  -1  742.33   21.20
  -6   0  -1  768.12   23.70
  -6   0  -1  731.03   22.20
  -6   0  -1  707.53   22.20
  -6   0  -1  740.63   23.00
  -6   0  -1  741.53   19.70
   6   0   1  760.72   22.60
   6   0   1  746.13   20.00
   6   0   1  730.43   20.00
   6   0   1  772.92   24.80
   6   0   1  739.13   20.90
   6   0   1  748.03   24.50
  -7   0  -1  348.67   13.40
  -7   0  -1  370.16   14.70
  -7   0  -1  392.46   17.10
  -7   0  -1  357.26   15.60
  -7   0  -1  361.46   16.40
  -7   0  -1  379.56   18.00
  -7   0  -1  372.06   16.00
  -7   0  -1  393.66   21.50
   7   0   1  357.66   14.50
   7   0   1  369.76   17.70
   7   0   1  377.76   17.70
   7   0   1  365.96   13.80
   7   0   1  377.86   15.90
   7   0   1  366.86   13.40
  -8   0  -1   11.20    2.60
  -8   0  -1   11.20    3.10
  -8   0  -1   10.70    3.20
  -8   0  -1   10.40    3.40
   8   0   1   11.60    4.10
   8   0   1    7.50    2.80
   8   0   1   15.80    3.30
   8   0   1   12.00    3.00
  -9   0  -1  176.68   13.20
  -9   0  -1  189.58   10.80
  -9   0  -1  202.58   12.00
   9   0   1  203.18   14.80
   9   0   1  169.98   13.60
   9   0   1  182.08    9.90
 -10   0  -1  129.39   10.30
 -10   0  -1  122.89   11.60
  10   0   1  117.79    8.10
  10   0   1  112.09   12.00
 -11   0  -1   13.10    4.50
 -11   0  -1   20.60    4.80
  11   0   1   20.60    6.30
  11  -1  -1   99.79   11.60
  11  -1  -1   90.09   12.30
 -11   1   1  117.79   11.50
 -11   1   1  103.39   12.10
  10  -1  -1    3.40    3.10
  10  -1  -1   12.80    4.30
  10  -1  -1    8.50    4.00
 -10   1   1    6.70    3.50
 -10   1   1    9.50    3.90
   9  -1  -1  667.33   26.50
   9  -1  -1  659.43   24.30
   9  -1  -1  628.34   27.70
   9  -1  -1  653.23   17.50
  -9   1   1  662.53   27.50
  -9   1   1  634.44   25.20
   8  -1  -1  284.27   10.40
   8  -1  -1  257.67   14.80
   8  -1  -1  296.07   16.90
   8  -1  -1  257.47   13.90
  -8   1   1  278.37   16.00
  -8   1   1  276.87   14.10
  -8   1   1  270.17   11.00
  -8   1   1  279.67   14.00
  -8   1   1  277.07   15.10
  -8   1   1  270.57    8.90
   7  -1  -1  296.37   14.70
   7  -1  -1  286.17   10.30
   7  -1  -1  294.67   15.80
   7  -1  -1  308.37   14.40
  -7   1   1  291.97   13.70
  -7   1   1  313.67    9.90
  -7   1   1  297.47   15.70
  -7   1   1  309.87   14.90
  -7   1   1  289.87   13.50
   6  -1  -1   54.59    5.60
   6  -1  -1   58.19    6.00
   6  -1  -1   48.80    3.80
   6  -1  -1   52.39    5.50
   6  -1  -1   55.89    6.50
  -6   1   1   44.40    5.20
  -6   1   1   49.70    4.10
  -6   1   1   51.99    3.70
  -6   1   1   41.60    4.70
  -6   1   1   48.00    5.20
  -6   1   1   41.30    5.20
  -6   1   1   42.00    5.40
  -6   1   1   47.30    5.00
   5  -1  -1 3980.40   69.09
   5  -1  -1 4036.80   69.79
   5  -1  -1 3994.10   74.69
   5  -1  -1 4023.90   75.59
   5  -1  -1 3996.40   77.89
   5  -1  -1 3774.52   74.59
  -5   1   1 4070.19   76.19
  -5   1   1 4000.90   74.19
  -5   1   1 3769.82   76.59
  -5   1   1 4009.00   75.39
  -5   1   1 3938.11   69.19
  -5   1   1 3977.10   75.29
  -5   1   1 3933.81   75.79
  -5   1   1 4052.99   69.99
   4  -1  -1   55.29    5.10
   4  -1  -1   58.09    3.60
   4  -1  -1   54.19    4.60
   4  -1  -1   57.79    4.70
   4  -1  -1   54.99    4.60
   4  -1  -1   60.59    3.50
  -4   1   1   63.99    4.70
  -4   1   1   54.29    3.30
  -4   1   1   60.89    5.10
  -4   1   1   60.99    4.90
  -4   1   1   58.09    3.50
  -4   1   1   58.19    5.00
  -4   1   1   62.39    4.80
  -3   1   1 5860.61   99.49
  -3   1   1 5737.73   98.59
  -3   1   1 5662.83   98.69
   2  -1  -1  526.45   12.50
   2  -1  -1  524.55   13.80
   2  -1  -1  538.55   12.20
   2  -1  -1  546.25   13.70
   2  -1  -1  539.25   13.20
  -2   1   1  552.84   13.90
  -2   1   1  544.45   13.30
  -2   1   1  542.85   13.80
  -2   1   1  554.94   12.90
  -2   1   1  536.35   13.10
  -2   1   1  544.25   13.70
  -2   1   1  514.35   12.00
   0  -1  -1  493.85    9.90
   0  -1  -1  504.65   10.70
   0  -1  -1  504.95   10.20
   0  -1  -1  479.65   10.70
   0   1   1  503.85   10.00
   0   1   1  487.65   10.60
   0   1   1  496.45   10.10
   0   1   1  520.75    9.10
  -3  -1  -1 2586.94   47.80
  -3  -1  -1 2591.64   47.10
  -3  -1  -1 2565.04   48.50
  -3  -1  -1 2595.24   47.80
  -3  -1  -1 2629.84   50.49
  -3  -1  -1 2612.14   45.30
  -3  -1  -1 2581.44   48.00
  -3  -1  -1 2592.34   45.40
  -3  -1  -1 2666.03   48.70
  -3  -1  -1 2513.05   49.40
   3   1   1 2509.65   48.20
   3   1   1 2568.24   45.80
   3   1   1 2619.04   50.19
   3   1   1 2566.34   46.90
   3   1   1 2675.63   45.20
   3   1   1 2647.64   48.90
  -4  -1  -1 2451.65   50.49
  -4  -1  -1 2429.26   47.60
  -4  -1  -1 2421.06   48.40
  -4  -1  -1 2441.06   48.00
  -4  -1  -1 2514.35   45.10
  -4  -1  -1 2492.05   45.00
  -4  -1  -1 2483.85   48.20
  -4  -1  -1 2489.35   48.00
  -4  -1  -1 2454.45   49.99
  -4  -1  -1 2478.35   46.10
  -4  -1  -1 2456.55   47.90
   4   1   1 2504.35   46.00
   4   1   1 2315.37   49.70
   4   1   1 2457.95   45.00
   4   1   1 2418.26   47.80
  -5  -1  -1   46.80    4.40
  -5  -1  -1   43.70    3.70
  -5  -1  -1   52.29    5.50
  -5  -1  -1   44.20    4.60
  -5  -1  -1   39.30    4.30
  -5  -1  -1   38.90    3.70
  -5  -1  -1   42.20    2.70
  -5  -1  -1   43.90    5.00
  -5  -1  -1   41.40    4.40
  -5  -1  -1   41.60    4.10
  -5  -1  -1   38.80    3.60
  -5  -1  -1   44.10    4.60
   5   1   1   32.40    4.40
   5   1   1   47.60    3.80
   5   1   1   45.30    4.50
  -6  -1  -1  145.89    8.30
  -6  -1  -1  146.49    7.40
  -6  -1  -1  144.69   10.00
  -6  -1  -1  138.19    8.60
  -6  -1  -1  141.49    5.30
  -6  -1  -1  144.09    7.50
  -6  -1  -1  143.79    7.70
  -6  -1  -1  141.49   10.00
  -6  -1  -1  133.49    9.00
  -6  -1  -1  136.39    8.20
  -6  -1  -1  146.89    9.20
  -6  -1  -1  131.19    8.70
   6   1   1  137.79    8.30
   6   1   1  149.09   10.20
   6   1   1  145.09    7.40
   6   1   1  150.28   10.10
  -7  -1  -1 2159.98   53.49
  -7  -1  -1 2234.68   50.09
  -7  -1  -1 2185.88   46.40
  -7  -1  -1 2180.98   48.00
  -7  -1  -1 2174.28   50.29
  -7  -1  -1 2186.48   39.10
  -7  -1  -1 2272.37   51.09
  -7  -1  -1 2196.58   45.60
  -7  -1  -1 2159.48   48.70
  -7  -1  -1 2088.69   52.69
  -7  -1  -1 2264.37   45.80
   7   1   1 2184.58   44.70
   7   1   1 2214.58   48.50
   7   1   1 2218.38   53.19
  -8  -1  -1  173.48   11.70
  -8  -1  -1  168.68    9.40
  -8  -1  -1  160.38   10.50
  -8  -1  -1  169.48    9.90
   8   1   1  163.68   12.30
   8   1   1  153.38   10.00
   8   1   1  153.98    8.50
  -9  -1  -1   65.99    7.80
  -9  -1  -1   64.09    6.80
  -9  -1  -1   59.19    6.10
   9   1   1   66.89    8.60
   9   1   1   67.09    5.80
   9   1   1   61.59    6.90
 -10  -1  -1  371.96   19.80
 -10  -1  -1  361.96   16.80
  10   1   1  351.86   20.90
  10   1   1  364.06   13.80
 -11  -1  -1   99.19   11.60
 -11  -1  -1   82.29   10.40
 -11  -1  -1  105.99    9.20
  11   1   1  104.39   11.90
  11  -2  -1  231.98   16.00
  11  -2  -1  234.98   18.80
  11  -2  -1  219.58   16.90
 -11   2   1  197.78   15.00
 -11   2   1  216.18   17.60
  10  -2  -1    0.40    1.50
  10  -2  -1    3.50    2.50
  10  -2  -1   -0.30    2.70
  10  -2  -1    2.90    2.60
 -10   2   1    2.00    2.60
 -10   2   1    0.70    2.70
   9  -2  -1   46.10    4.90
   9  -2  -1   47.80    7.30
   9  -2  -1   36.90    6.60
  -9   2   1   54.29    6.70
  -9   2   1   37.50    7.50
   8  -2  -1  588.34   25.10
   8  -2  -1  559.04   17.60
   8  -2  -1  574.14   22.80
   8  -2  -1  583.44   23.20
  -8   2   1  600.94   23.50
  -8   2   1  607.14   25.20
  -8   2   1  572.94   14.20
  -8   2   1  559.14   25.00
   7  -2  -1  290.27   16.10
   7  -2  -1  305.37   14.80
   7  -2  -1  298.57   14.90
   7  -2  -1  295.17   15.10
   7  -2  -1  308.17   11.80
  -7   2   1  295.47   15.20
  -7   2   1  309.67   16.50
  -7   2   1  287.37   14.20
  -7   2   1  298.27    9.20
  -7   2   1  308.87   16.10
  -7   2   1  311.17    9.70
   6  -2  -1  580.24   20.40
   6  -2  -1  547.85   14.20
   6  -2  -1  526.25   20.90
   6  -2  -1  562.64   16.50
   6  -2  -1  527.55   19.50
  -6   2   1  587.74   20.60
  -6   2   1  577.84   21.30
  -6   2   1  525.95   18.80
  -6   2   1  559.34   14.50
  -6   2   1  556.54   13.20
  -6   2   1  547.25   19.40
   5  -2  -1 2074.29   45.70
   5  -2  -1 2016.30   45.80
   5  -2  -1 2056.09   42.00
   5  -2  -1 2151.28   40.10
   5  -2  -1 2099.89   46.10
  -5   2   1 2138.69   46.90
  -5   2   1 2081.39   40.00
  -5   2   1 2164.78   46.30
  -5   2   1 2074.69   47.10
  -5   2   1 2190.98   37.70
  -5   2   1 2114.39   45.40
  -5   2   1 2167.08   45.40
  -5   2   1 2163.68   47.90
   4  -2  -1  583.84   17.70
   4  -2  -1  581.14   14.40
   4  -2  -1  585.14   18.00
   4  -2  -1  586.64   17.40
   4  -2  -1  537.65   18.10
  -4   2   1  578.34   17.40
  -4   2   1  579.34   17.40
  -4   2   1  613.14   11.90
  -4   2   1  560.34   18.00
  -4   2   1  570.54   14.40
  -4   2   1  572.84   18.00
  -4   2   1  568.94   18.40
  -4   2   1  582.74   16.90
   3  -2  -1  267.87   10.70
   3  -2  -1  279.77   10.60
   3  -2  -1  274.87   10.90
   3  -2  -1  291.37    8.80
  -3   2   1  282.57   10.20
  -3   2   1  275.57   10.70
  -3   2   1  293.47    6.40
  -3   2   1  284.77   11.10
  -3   2   1  275.27   12.40
  -3   2   1  296.17   10.60
  -3   2   1  291.27    9.80
  -3   2   1  315.27    9.20
   2  -2  -1 2006.90   38.80
   2  -2  -1 2013.70   36.90
   2  -2  -1 2011.50   38.80
   2  -2  -1 1929.31   39.40
  -2   2   1 2013.70   36.50
  -2   2   1 1945.51   36.70
  -2   2   1 2004.30   38.50
  -2   2   1 1941.61   39.00
  -2   2   1 1960.70   38.80
  -2   2   1 2000.50   37.30
   0  -2  -1   42.30    3.00
   0  -2  -1   49.80    3.10
   0  -2  -1   44.40    2.80
   0  -2  -1   45.90    2.50
   0   2   1   45.80    2.40
   0   2   1   42.90    2.90
   0   2   1   46.60    1.50
   0   2   1   53.89    3.10
   0   2   1   47.60    2.60
  -2  -2  -1 5302.67   91.29
   2   2   1 5204.38   88.59
  -3  -2  -1  150.28    4.70
  -3  -2  -1  160.88    6.40
  -3  -2  -1  154.08    6.30
  -3  -2  -1  157.58    5.90
  -3  -2  -1  153.68    7.60
  -3  -2  -1  163.88    7.70
  -3  -2  -1  158.28    6.60
  -3  -2  -1  159.78    6.80
  -3  -2  -1  158.38    6.50
   3   2   1  144.69    6.20
   3   2   1  157.98    6.10
   3   2   1  152.98    6.80
   3   2   1  162.48    6.60
  -4  -2  -1 1164.48   27.40
  -4  -2  -1 1187.58   26.40
  -4  -2  -1 1186.68   27.00
  -4  -2  -1 1218.88   26.40
  -4  -2  -1 1157.18   28.50
  -4  -2  -1 1171.68   28.50
  -4  -2  -1 1199.88   30.00
  -4  -2  -1 1209.88   25.10
  -4  -2  -1 1210.38   23.60
  -4  -2  -1 1168.98   28.90
  -4  -2  -1 1182.88   25.80
   4   2   1 1169.38   29.40
   4   2   1 1164.48   27.60
   4   2   1 1202.48   28.90
   4   2   1 1174.58   25.50
   4   2   1 1187.28   25.60
  -5  -2  -1 3126.59   59.89
  -5  -2  -1 3155.38   57.29
  -5  -2  -1 3047.30   61.29
  -5  -2  -1 3083.39   60.99
  -5  -2  -1 3098.19   63.29
  -5  -2  -1 3103.69   60.19
  -5  -2  -1 3066.79   55.89
  -5  -2  -1 3054.59   62.19
  -5  -2  -1 3079.19   58.99
  -5  -2  -1 3110.59   59.99
  -5  -2  -1 3123.19   64.39
   5   2   1 3054.89   57.09
   5   2   1 3077.49   61.79
   5   2   1 3005.80   63.29
  -6  -2  -1   46.30    5.90
  -6  -2  -1   51.09    5.50
  -6  -2  -1   47.60    5.20
  -6  -2  -1   42.20    4.60
  -6  -2  -1   48.20    5.70
  -6  -2  -1   49.00    5.20
  -6  -2  -1   39.40    5.50
  -6  -2  -1   46.00    5.10
  -6  -2  -1   40.50    5.30
  -6  -2  -1   46.30    4.30
  -6  -2  -1   49.00    4.40
  -6  -2  -1   60.89    4.50
  -6  -2  -1   44.70    3.70
   6   2   1   39.30    5.00
   6   2   1   40.20    5.60
   6   2   1   44.80    4.00
  -7  -2  -1 1318.17   35.10
  -7  -2  -1 1333.67   31.70
  -7  -2  -1 1355.06   35.60
  -7  -2  -1 1350.06   31.40
  -7  -2  -1 1418.46   43.30
  -7  -2  -1 1371.76   35.50
  -7  -2  -1 1362.16   37.50
  -7  -2  -1 1366.66   39.40
  -7  -2  -1 1386.46   39.00
  -7  -2  -1 1365.66   28.70
  -7  -2  -1 1375.76   31.50
  -7  -2  -1 1342.07   33.80
   7   2   1 1384.76   38.80
   7   2   1 1352.46   35.80
   7   2   1 1337.77   30.70
  -8  -2  -1  110.59    9.80
  -8  -2  -1  107.89    5.60
  -8  -2  -1   96.99    5.30
  -8  -2  -1  101.39    7.40
  -8  -2  -1  111.29    7.30
  -8  -2  -1  101.99    8.80
  -8  -2  -1   92.89    8.40
  -8  -2  -1  102.29    9.80
  -8  -2  -1  106.19    7.40
   8   2   1   97.09    9.80
   8   2   1  100.79    6.60
   8   2   1   92.39    8.50
  -9  -2  -1   70.69    6.60
  -9  -2  -1   88.59    8.70
  -9  -2  -1   77.29    7.10
  -9  -2  -1   79.39    8.00
  -9  -2  -1   79.09    4.20
  -9  -2  -1   88.69    9.60
   9   2   1   97.39   10.30
   9   2   1   97.59    9.00
   9   2   1   81.49    6.20
 -10  -2  -1    4.70    2.90
 -10  -2  -1    0.30    2.90
  10   2   1    0.90    3.00
 -11  -2  -1  263.87   18.50
 -11  -2  -1  289.07   14.50
 -11  -2  -1  319.87   18.90
  11   2   1  320.97   20.70
  11  -3  -1   23.70    6.40
  11  -3  -1   17.20    5.40
  11  -3  -1   17.40    6.10
 -11   3   1   22.90    5.80
 -11   3   1   16.00    5.80
  10  -3  -1  217.68   15.60
  10  -3  -1  220.68   17.90
  10  -3  -1  215.48   11.40
  10  -3  -1  230.98   17.30
 -10   3   1  206.28   15.00
 -10   3   1  214.08   16.60
   9  -3  -1    0.30    2.20
   9  -3  -1    1.80    2.10
   9  -3  -1    2.00    1.70
   9  -3  -1    3.50    2.70
  -9   3   1    1.60    2.20
  -9   3   1    3.20    3.10
   8  -3  -1  376.46   18.60
   8  -3  -1  342.37   14.40
   8  -3  -1  353.66   18.00
   8  -3  -1  363.86   19.70
  -8   3   1  346.17   18.20
  -8   3   1  343.37   19.00
   7  -3  -1  601.04   19.40
   7  -3  -1  593.04   22.80
   7  -3  -1  586.84   22.70
   7  -3  -1  615.14   24.60
   7  -3  -1  595.14   15.50
  -7   3   1  608.64   23.60
  -7   3   1  584.44   24.00
  -7   3   1  649.64   25.10
   6  -3  -1    2.30    1.70
   6  -3  -1    3.90    1.70
   6  -3  -1    1.70    1.70
   6  -3  -1    6.80    2.80
   6  -3  -1    2.30    1.20
   6  -3  -1    4.40    1.90
  -6   3   1    4.60    1.50
  -6   3   1    4.70    2.00
  -6   3   1    7.40    3.30
  -6   3   1    2.00    1.40
  -6   3   1    5.30    2.90
  -6   3   1    5.10    2.20
   5  -3  -1    1.50    1.10
   5  -3  -1    0.00    1.00
   5  -3  -1    7.10    2.80
   5  -3  -1    3.20    2.00
   5  -3  -1    2.10    1.50
  -5   3   1    0.40    1.00
  -5   3   1    0.40    1.00
  -5   3   1    1.70    1.30
  -5   3   1    2.40    2.00
  -5   3   1    0.40    1.40
  -5   3   1    1.60    1.30
  -5   3   1    0.80    1.10
   4  -3  -1 3821.12   68.49
   4  -3  -1 3784.72   73.79
   4  -3  -1 3841.62   74.09
   4  -3  -1 3772.22   74.29
  -4   3   1 3885.21   72.39
  -4   3   1 3845.22   74.99
  -4   3   1 3848.21   74.09
  -4   3   1 3784.52   73.09
  -4   3   1 3847.11   68.79
  -4   3   1 3894.41   71.19
   3  -3  -1  493.65   16.10
   3  -3  -1  522.25   16.40
   3  -3  -1  532.95   14.20
  -3   3   1  532.55   14.30
  -3   3   1  489.35   17.00
  -3   3   1  507.05   16.30
  -3   3   1  505.45   15.90
  -3   3   1  503.15   16.70
   2  -3  -1  267.97   10.90
   2  -3  -1  260.97    9.10
   2  -3  -1  266.67   10.00
   2  -3  -1  239.48    9.80
   2  -3  -1  271.97   10.50
  -2   3   1  256.27   10.50
  -2   3   1  257.87   10.10
  -2   3   1  280.27   10.20
  -2   3   1  266.77    6.80
  -2   3   1  265.77    8.80
   1  -3  -1 7373.86  124.39
   0  -3  -1 2301.07   44.40
   0  -3  -1 2361.46   42.70
   0  -3  -1 2426.36   45.30
   0  -3  -1 2365.86   43.80
   0  -3  -1 2279.17   43.50
   0   3   1 2332.27   38.70
   0   3   1 2359.06   42.70
   0   3   1 2351.26   43.80
   0   3   1 2352.86   44.60
  -1  -3  -1  535.35   14.80
  -1  -3  -1  523.25   14.60
  -1  -3  -1  517.15   11.80
  -1  -3  -1  526.05   11.20
   1   3   1  534.15   14.90
   1   3   1  541.75   14.60
   1   3   1  531.85   11.10
   1   3   1  503.95   11.20
   1   3   1  549.65   11.80
  -3  -3  -1 6765.02  116.09
  -3  -3  -1 6480.65  115.79
  -3  -3  -1 6653.93  111.59
  -3  -3  -1 6570.84  109.69
   3   3   1 6406.66  111.89
   3   3   1 6548.84  110.09
   3   3   1 6364.06  112.39
   3   3   1 6606.84  116.09
  -4  -3  -1   16.50    3.00
  -4  -3  -1   26.00    2.80
  -4  -3  -1   13.80    3.10
  -4  -3  -1   15.50    2.30
  -4  -3  -1   13.60    3.00
  -4  -3  -1   16.20    3.00
  -4  -3  -1   15.60    2.70
  -4  -3  -1   16.50    1.80
  -4  -3  -1   20.50    3.30
  -4  -3  -1   14.90    2.60
  -4  -3  -1   18.10    2.80
   4   3   1   18.00    2.60
   4   3   1   14.00    2.70
   4   3   1   16.80    3.30
   4   3   1   14.50    3.10
  -5  -3  -1  125.59    7.80
  -5  -3  -1  149.69    9.80
  -5  -3  -1  132.59    5.80
  -5  -3  -1  147.49    8.10
  -5  -3  -1  144.99    7.40
  -5  -3  -1  148.19    9.00
  -5  -3  -1  124.09    8.50
  -5  -3  -1  137.69    7.60
  -5  -3  -1  140.39    7.40
  -5  -3  -1  135.39    6.90
  -5  -3  -1  127.89    7.00
  -5  -3  -1  117.49    8.40
   5   3   1  143.29    9.60
   5   3   1  119.69    8.00
   5   3   1  121.49    7.10
  -6  -3  -1  862.61   24.70
  -6  -3  -1  834.02   28.00
  -6  -3  -1  846.82   22.40
  -6  -3  -1  824.12   22.10
  -6  -3  -1  887.41   26.60
  -6  -3  -1  860.61   23.20
  -6  -3  -1  871.91   20.60
  -6  -3  -1  870.21   23.80
  -6  -3  -1  857.51   26.50
  -6  -3  -1  861.31   24.20
  -6  -3  -1  863.61   28.80
   6   3   1  856.31   27.50
   6   3   1  864.31   26.80
   6   3   1  839.32   23.20
   6   3   1  837.42   25.70
  -7  -3  -1   38.30    4.90
  -7  -3  -1   28.80    3.80
  -7  -3  -1   31.00    4.30
  -7  -3  -1   27.10    5.20
  -7  -3  -1   29.50    3.60
  -7  -3  -1   24.10    3.50
  -7  -3  -1   20.40    4.80
  -7  -3  -1   23.50    3.40
  -7  -3  -1   25.90    4.50
   7   3   1   24.10    5.00
   7   3   1   24.60    5.20
  -8  -3  -1   60.69    5.40
  -8  -3  -1   53.19    5.10
  -8  -3  -1   57.39    6.60
  -8  -3  -1   50.99    5.70
  -8  -3  -1   64.09    7.70
  -8  -3  -1   46.50    5.70
  -8  -3  -1   52.49    4.80
   8   3   1   57.49    7.90
   8   3   1   53.99    7.10
  -9  -3  -1  240.28   11.50
  -9  -3  -1  216.68   12.50
  -9  -3  -1  232.28   13.90
  -9  -3  -1  205.78   14.20
  -9  -3  -1  205.78   11.40
  -9  -3  -1  247.78   10.10
  -9  -3  -1  213.88   10.70
  -9  -3  -1  224.88    9.60
   9   3   1  220.88   14.40
   9   3   1  235.78   16.60
 -10  -3  -1    3.10    1.70
 -10  -3  -1    4.40    3.20
 -10  -3  -1    7.20    1.80
 -10  -3  -1    0.10    2.10
 -10  -3  -1    6.50    2.70
  10   3   1    6.10    3.40
  10   3   1    6.90    4.00
 -11  -3  -1    8.10    2.00
 -11  -3  -1    1.00    2.70
 -11  -3  -1    0.40    2.80
  11   3   1    3.50    3.50
  10  -4  -1  179.28   14.80
  10  -4  -1  155.58   13.60
  10  -4  -1  154.58   14.70
  10  -4  -1  187.98   11.60
 -10   4   1  165.38   14.00
 -10   4   1  170.98   15.40
   9  -4  -1  311.17   15.10
   9  -4  -1  332.97   18.90
   9  -4  -1  300.87   18.30
   9  -4  -1  310.47   19.70
  -9   4   1  294.17   18.00
  -9   4   1  345.17   20.40
   8  -4  -1  232.68   15.20
   8  -4  -1  234.98    8.70
   8  -4  -1  258.87   13.20
   8  -4  -1  222.28   15.50
   8  -4  -1  223.68   14.80
  -8   4   1  252.87   15.80
  -8   4   1  247.18   16.20
   7  -4  -1  166.78   12.60
   7  -4  -1  204.68   12.90
   7  -4  -1  169.68    9.80
   7  -4  -1  172.98   12.50
   7  -4  -1  179.78   10.80
  -7   4   1  182.08   12.70
  -7   4   1  185.18   13.20
   6  -4  -1 3714.93   79.29
   6  -4  -1 3918.71   80.99
   6  -4  -1 3827.32   79.99
   6  -4  -1 3887.61   75.99
   6  -4  -1 3846.92   70.29
   6  -4  -1 3815.02   78.99
  -6   4   1 3956.90   80.39
  -6   4   1 3748.82   78.39
  -6   4   1 3774.62   77.69
  -6   4   1 3753.82   80.99
  -6   4   1 3856.91   76.39
   5  -4  -1    9.30    2.80
   5  -4  -1    8.40    2.40
   5  -4  -1    6.60    2.20
   5  -4  -1   10.30    2.90
   5  -4  -1    9.10    2.10
  -5   4   1    7.20    2.20
  -5   4   1    7.90    2.40
  -5   4   1    9.70    2.80
  -5   4   1   14.30    3.70
   4  -4  -1   59.89    5.90
   4  -4  -1   53.69    5.70
   4  -4  -1   49.80    5.50
   4  -4  -1   64.69    4.90
  -4   4   1   56.09    5.70
  -4   4   1   59.09    5.80
  -4   4   1   56.09    6.00
  -4   4   1   56.19    5.10
   3  -4  -1 3777.22   72.99
   3  -4  -1 3790.82   73.59
   3  -4  -1 3815.82   69.69
   3  -4  -1 3866.41   72.79
  -3   4   1 3722.93   72.79
  -3   4   1 3818.02   69.89
  -3   4   1 3725.63   72.39
  -3   4   1 3845.32   73.99
   2  -4  -1 1436.86   33.50
   2  -4  -1 1418.06   32.90
   2  -4  -1 1452.85   32.60
   2  -4  -1 1503.95   32.10
   2  -4  -1 1397.56   34.50
  -2   4   1 1489.15   34.20
  -2   4   1 1488.05   33.10
  -2   4   1 1496.55   28.10
  -2   4   1 1450.55   32.90
  -2   4   1 1514.95   30.20
   1  -4  -1 1294.97   26.80
   1  -4  -1 1324.07   29.40
   1  -4  -1 1273.07   29.30
   1  -4  -1 1312.97   30.90
   1  -4  -1 1287.67   29.20
  -1   4   1 1274.27   28.90
  -1   4   1 1328.57   27.10
  -1   4   1 1259.67   28.50
  -1   4   1 1313.17   30.10
   0  -4  -1 5910.51   99.99
   0  -4  -1 5782.82  102.29
   0  -4  -1 5811.62  100.79
   0  -4  -1 5710.63  100.99
   0   4   1 5812.72  101.09
   0   4   1 5865.21   99.69
  -1  -4  -1    3.30    1.10
  -1  -4  -1    5.00    1.90
  -1  -4  -1    3.90    1.70
  -1  -4  -1    2.10    0.90
   1   4   1    2.90    0.80
   1   4   1    2.30    1.30
   1   4   1    1.20    1.00
   1   4   1    2.00    0.90
   1   4   1    3.10    0.80
  -2  -4  -1  545.25   16.80
  -2  -4  -1  547.15   17.30
  -2  -4  -1  568.24   13.10
  -2  -4  -1  560.74   12.00
  -2  -4  -1  568.44   17.70
  -2  -4  -1  574.44   11.30
   2   4   1  553.54   17.80
   2   4   1  544.15   16.60
   2   4   1  564.34   14.10
   2   4   1  545.65   12.10
   2   4   1  565.74   15.30
   2   4   1  574.64   15.80
  -3  -4  -1 1952.50   43.50
  -3  -4  -1 1979.50   35.30
  -3  -4  -1 1942.31   43.50
  -3  -4  -1 1979.90   40.50
  -3  -4  -1 1976.80   35.90
  -3  -4  -1 1956.60   35.70
  -3  -4  -1 1967.00   41.80
  -3  -4  -1 1934.31   38.30
   3   4   1 1936.91   43.80
   3   4   1 1961.70   39.20
   3   4   1 1961.00   36.40
   3   4   1 1957.60   40.30
   3   4   1 1945.01   39.90
   3   4   1 1939.31   41.90
  -4  -4  -1  971.90   24.10
  -4  -4  -1 1026.30   28.70
  -4  -4  -1 1013.20   21.90
  -4  -4  -1 1015.90   24.50
  -4  -4  -1  986.70   28.50
  -4  -4  -1 1008.60   20.10
  -4  -4  -1 1032.80   27.00
  -4  -4  -1  960.30   24.70
  -4  -4  -1 1036.50   25.10
  -4  -4  -1 1030.40   22.60
  -4  -4  -1 1026.50   27.20
   4   4   1  983.30   24.70
   4   4   1  972.30   25.50
   4   4   1  988.20   25.20
  -5  -4  -1   -1.40    1.20
  -5  -4  -1    0.40    1.40
  -5  -4  -1   -0.10    1.00
  -5  -4  -1    0.30    0.80
  -5  -4  -1    0.70    1.00
  -5  -4  -1    1.40    1.10
  -5  -4  -1   -0.20    1.10
  -5  -4  -1   -0.10    0.70
  -5  -4  -1    1.90    1.00
  -5  -4  -1    2.00    1.10
  -5  -4  -1    0.00    1.10
  -5  -4  -1    1.70    0.90
   5   4   1    1.40    1.30
   5   4   1    2.60    1.50
   5   4   1    0.10    1.50
  -6  -4  -1  851.21   23.10
  -6  -4  -1  861.31   19.90
  -6  -4  -1  830.52   22.80
  -6  -4  -1  840.82   27.50
  -6  -4  -1  851.21   25.10
  -6  -4  -1  838.72   24.70
  -6  -4  -1  850.71   23.30
  -6  -4  -1  799.42   28.30
  -6  -4  -1  854.91   26.50
  -6  -4  -1  810.12   27.40
  -6  -4  -1  871.21   23.70
  -6  -4  -1  862.81   22.70
   6   4   1  847.62   26.30
   6   4   1  868.81   28.30
  -7  -4  -1   -0.80    1.10
  -7  -4  -1    2.60    1.20
  -7  -4  -1    2.40    2.20
  -7  -4  -1    1.20    1.40
  -7  -4  -1    0.90    1.40
  -7  -4  -1    0.50    1.50
   7   4   1    3.10    2.70
   7   4   1    2.40    1.80
   7   4   1    2.00    1.80
   7   4   1    2.40    1.80
  -8  -4  -1    1.60    1.90
  -8  -4  -1    5.40    2.50
  -8  -4  -1    3.30    2.10
  -8  -4  -1    4.90    1.60
  -8  -4  -1    2.00    2.00
  -8  -4  -1    5.70    2.00
   8   4   1    3.70    2.70
   8   4   1    3.00    2.00
  -9  -4  -1    7.60    2.80
  -9  -4  -1    9.70    3.40
  -9  -4  -1    9.50    2.60
  -9  -4  -1    8.90    2.40
  -9  -4  -1    5.90    2.30
  -9  -4  -1   11.10    2.90
  -9  -4  -1    8.30    3.20
   9   4   1   10.20    3.80
 -10  -4  -1   73.29    6.60
 -10  -4  -1   49.10    8.20
 -10  -4  -1   70.09    6.40
 -10  -4  -1   70.89    6.60
 -10  -4  -1   76.19    8.30
  10   4   1   69.79    9.20
  10  -5  -1   -1.30    2.50
  10  -5  -1    1.10    2.80
  10  -5  -1    4.20    3.40
  10  -5  -1   -0.40    2.20
 -10   5   1   -0.70    3.10
 -10   5   1    4.00    2.50
   9  -5  -1  155.98   13.40
   9  -5  -1  148.79   13.40
   9  -5  -1  155.28   13.90
   9  -5  -1  154.58   11.30
  -9   5   1  159.68   13.70
  -9   5   1  150.28   14.10
   8  -5  -1  674.43   28.50
   8  -5  -1  678.13   24.40
   8  -5  -1  681.23   28.20
   8  -5  -1  636.34   17.90
   8  -5  -1  683.43   27.60
  -8   5   1  656.53   27.70
   7  -5  -1  244.38   15.10
   7  -5  -1  236.98   13.60
   7  -5  -1  244.08   15.40
   7  -5  -1  230.78   10.20
   7  -5  -1  251.57   15.80
  -7   5   1  222.58   14.60
  -7   5   1  241.88   15.60
   6  -5  -1  986.60   32.20
   6  -5  -1  976.00   31.80
   6  -5  -1 1008.60   31.80
   6  -5  -1  948.01   24.90
  -6   5   1 1012.10   31.90
  -6   5   1  959.50   29.30
  -6   5   1  950.30   28.00
  -6   5   1  973.30   31.80
   5  -5  -1  989.00   30.60
   5  -5  -1  964.60   30.40
   5  -5  -1 1020.40   26.10
   5  -5  -1 1045.60   31.60
  -5   5   1 1050.69   27.80
  -5   5   1 1026.20   30.50
  -5   5   1 1024.90   30.90
  -5   5   1 1039.40   31.90
  -5   5   1 1034.60   28.70
   4  -5  -1  385.46   16.80
   4  -5  -1  364.96   15.70
   4  -5  -1  402.06   14.30
  -4   5   1  398.26   14.60
  -4   5   1  397.46   16.70
  -4   5   1  376.06   18.90
  -4   5   1  399.86   17.10
   3  -5  -1   33.50    5.20
   3  -5  -1   41.00    4.70
   3  -5  -1   42.50    5.00
   3  -5  -1   42.60    5.70
   3  -5  -1   37.90    4.10
  -3   5   1   32.70    2.40
  -3   5   1   32.60    4.40
  -3   5   1   33.70    3.70
  -3   5   1   32.50    4.50
  -3   5   1   34.30    4.70
   2  -5  -1  969.20   25.40
   2  -5  -1  954.20   26.00
   2  -5  -1  969.90   25.30
   2  -5  -1  960.60   28.00
   2  -5  -1  991.00   26.80
  -2   5   1  999.00   26.20
  -2   5   1  997.10   22.50
  -2   5   1  997.40   26.20
  -2   5   1  998.40   21.80
  -2   5   1  968.70   27.00
   1  -5  -1   14.00    2.70
   1  -5  -1   11.40    2.20
   1  -5  -1   12.60    2.80
   1  -5  -1    5.90    1.70
  -1   5   1    8.00    2.20
  -1   5   1   10.80    2.50
  -1   5   1   11.20    2.00
  -1   5   1   13.20    2.60
   0  -5  -1 1039.60   24.90
   0  -5  -1 1016.10   25.40
   0  -5  -1 1014.60   27.30
   0  -5  -1  994.20   25.00
   0  -5  -1  966.80   26.00
   0   5   1 1064.49   26.70
   0   5   1 1019.30   25.30
   0   5   1 1019.90   21.00
   0   5   1 1075.29   24.50
  -1  -5  -1  122.69    7.80
  -1  -5  -1  133.89    7.10
  -1  -5  -1  124.69    7.80
  -1  -5  -1  122.59    6.20
   1   5   1  127.69    6.20
   1   5   1  110.19    7.10
   1   5   1  125.59    7.20
   1   5   1  123.19    4.40
   1   5   1  117.39    5.00
   1   5   1  119.59    7.80
  -2  -5  -1 1817.02   36.90
  -2  -5  -1 1811.42   40.30
  -2  -5  -1 1724.43   40.60
  -2  -5  -1 1789.32   41.00
  -2  -5  -1 1757.62   34.70
   2   5   1 1798.22   39.60
   2   5   1 1754.92   37.30
   2   5   1 1835.72   38.70
   2   5   1 1760.52   34.80
   2   5   1 1738.13   40.70
   2   5   1 1780.22   31.50
  -3  -5  -1   41.80    2.60
  -3  -5  -1   39.00    5.00
  -3  -5  -1   36.80    4.60
  -3  -5  -1   43.30    2.70
  -3  -5  -1   39.80    4.30
  -3  -5  -1   41.10    5.30
  -3  -5  -1   47.70    3.30
   3   5   1   34.70    4.10
   3   5   1   44.30    4.60
   3   5   1   40.80    2.70
   3   5   1   41.30    3.90
   3   5   1   28.00    4.80
  -4  -5  -1 1836.52   40.40
  -4  -5  -1 1860.61   35.40
  -4  -5  -1 1790.92   34.20
  -4  -5  -1 1828.82   34.40
  -4  -5  -1 1858.91   42.30
  -4  -5  -1 1784.82   44.60
  -4  -5  -1 1800.42   44.60
  -4  -5  -1 1857.21   38.70
   4   5   1 1758.92   44.50
   4   5   1 1822.92   39.70
   4   5   1 1835.22   40.30
   4   5   1 1826.22   42.70
  -5  -5  -1  259.27    9.30
  -5  -5  -1  262.57   13.40
  -5  -5  -1  262.47    8.20
  -5  -5  -1  265.87   11.70
  -5  -5  -1  250.27    8.40
  -5  -5  -1  252.07    9.90
  -5  -5  -1  266.77   12.30
  -5  -5  -1  258.87   11.60
  -5  -5  -1  259.57   13.10
  -5  -5  -1  268.37   14.60
  -5  -5  -1  265.17   11.80
  -5  -5  -1  267.07   14.80
   5   5   1  252.17   12.70
   5   5   1  286.37   12.70
   5   5   1  268.17   14.60
  -6  -5  -1  387.56   11.30
  -6  -5  -1  363.56   10.60
  -6  -5  -1  389.36   17.20
  -6  -5  -1  382.36   15.70
  -6  -5  -1  374.96   12.80
  -6  -5  -1  353.86   14.30
  -6  -5  -1  399.36   14.00
  -6  -5  -1  372.06   14.80
  -6  -5  -1  381.36   13.80
  -6  -5  -1  367.16   17.40
   6   5   1  373.96   16.70
   6   5   1  382.16   18.70
   6   5   1  386.46   15.90
  -7  -5  -1    0.40    1.40
  -7  -5  -1    2.20    1.50
  -7  -5  -1    1.90    1.90
  -7  -5  -1    0.30    1.60
  -7  -5  -1    2.00    1.30
  -7  -5  -1    0.70    1.40
  -7  -5  -1   -1.60    1.10
   7   5   1    0.30    2.00
   7   5   1   -0.40    1.70
   7   5   1    1.60    1.90
  -8  -5  -1  629.44   20.30
  -8  -5  -1  629.34   16.80
  -8  -5  -1  653.53   25.50
  -8  -5  -1  631.34   20.90
  -8  -5  -1  628.54   20.60
   8   5   1  627.14   26.80
  -9  -5  -1    3.80    2.30
  -9  -5  -1    2.70    2.50
  -9  -5  -1    2.50    2.00
  -9  -5  -1    0.90    2.10
  -9  -5  -1    1.90    2.50
  -9  -5  -1    5.90    1.90
  -9  -5  -1    4.80    2.70
   9   5   1    3.70    3.30
 -10  -5  -1  176.58   10.90
 -10  -5  -1  191.08   12.20
 -10  -5  -1  190.88    8.30
 -10  -5  -1  202.18   14.70
  10   5   1  200.88   16.00
  10  -6  -1   58.79    9.30
  10  -6  -1   58.69    8.50
  10  -6  -1   50.89    9.40
  10  -6  -1   69.09   10.90
 -10   6   1   73.79   10.70
 -10   6   1   43.10    9.40
   9  -6  -1   16.60    5.40
   9  -6  -1   16.10    4.80
   9  -6  -1   16.10    4.90
   9  -6  -1   16.40    5.20
   9  -6  -1   11.20    2.50
  -9   6   1   10.30    4.00
  -9   6   1   12.60    5.30
   8  -6  -1  272.27   17.90
   8  -6  -1  262.17   17.60
   8  -6  -1  238.68   11.00
   8  -6  -1  285.47   16.20
   8  -6  -1  258.47   17.10
  -8   6   1  279.67   18.30
  -8   6   1  259.67   17.50
   7  -6  -1  112.49   11.10
   7  -6  -1   96.29    9.90
   7  -6  -1   84.59    6.70
   7  -6  -1  111.19    9.90
   7  -6  -1  100.69   10.10
  -7   6   1   88.89    9.90
  -7   6   1  112.19   10.80
   6  -6  -1   -0.70    1.40
   6  -6  -1    4.00    1.80
   6  -6  -1    3.50    2.60
  -6   6   1    0.20    1.80
  -6   6   1    0.70    1.70
  -6   6   1    2.50    1.90
   5  -6  -1  152.78    9.20
   5  -6  -1  160.68   11.20
   5  -6  -1  151.18   11.50
  -5   6   1  147.09   11.00
  -5   6   1  163.28   12.90
  -5   6   1  144.59    9.10
   4  -6  -1  518.35   19.90
   4  -6  -1  515.15   18.00
   4  -6  -1  532.45   21.20
   4  -6  -1  507.45   20.40
  -4   6   1  526.95   21.30
  -4   6   1  541.25   17.90
  -4   6   1  535.25   20.70
  -4   6   1  518.65   20.10
   3  -6  -1   30.80    4.70
   3  -6  -1   27.10    4.50
   3  -6  -1   29.40    4.20
   3  -6  -1   23.30    4.70
  -3   6   1   16.50    3.90
  -3   6   1   23.30    4.20
  -3   6   1   22.70    3.30
  -3   6   1   25.50    2.60
   2  -6  -1  510.25   18.90
   2  -6  -1  493.35   17.70
   2  -6  -1  505.25   20.30
   2  -6  -1  530.35   18.60
   2  -6  -1  508.25   17.60
  -2   6   1  497.55   17.90
  -2   6   1  510.55   14.60
  -2   6   1  512.85   18.20
  -2   6   1  512.65   15.00
  -2   6   1  511.25   19.20
   1  -6  -1  569.24   19.90
   1  -6  -1  617.24   17.90
   1  -6  -1  603.44   19.90
   1  -6  -1  636.14   19.60
  -1   6   1  564.34   20.00
  -1   6   1  622.14   19.20
  -1   6   1  608.24   18.00
   0  -6  -1    4.50    1.90
   0  -6  -1    2.30    1.40
   0  -6  -1    1.70    1.30
   0  -6  -1    4.20    1.90
   0   6   1    2.80    1.40
   0   6   1    2.30    1.10
   0   6   1    1.90    1.20
   0   6   1    1.60    1.50
  -1  -6  -1   82.19    8.50
  -1  -6  -1   86.09    6.20
  -1  -6  -1   80.19    6.70
  -1  -6  -1   81.09    5.60
   1   6   1   81.19    7.00
   1   6   1   74.69    5.30
   1   6   1   72.09    6.40
   1   6   1   81.99    4.40
   1   6   1   79.89    6.60
   1   6   1   79.29    3.50
  -2  -6  -1 1857.91   38.60
  -2  -6  -1 1851.31   47.60
  -2  -6  -1 1860.71   44.50
  -2  -6  -1 1893.71   40.00
   2   6   1 1941.01   32.60
   2   6   1 1867.41   37.30
   2   6   1 1919.51   45.00
   2   6   1 1826.92   42.80
   2   6   1 1905.51   40.90
   2   6   1 1892.61   42.20
  -3  -6  -1  192.98    8.90
  -3  -6  -1  190.18   11.90
  -3  -6  -1  191.58   10.40
  -3  -6  -1  194.58   15.00
  -3  -6  -1  190.48    7.80
  -3  -6  -1  217.68   11.70
   3   6   1  181.88   10.10
   3   6   1  172.78   10.30
   3   6   1  192.18    8.80
   3   6   1  178.68    9.70
   3   6   1  182.28   11.70
  -4  -6  -1   24.10    4.40
  -4  -6  -1   24.40    2.10
  -4  -6  -1   28.10    4.30
  -4  -6  -1   24.60    2.70
  -4  -6  -1   22.10    4.60
  -4  -6  -1   18.50    3.50
  -4  -6  -1   19.90    4.60
  -4  -6  -1   19.10    2.30
   4   6   1   21.90    4.10
   4   6   1   25.80    3.80
   4   6   1   20.50    4.60
   4   6   1   23.00    4.10
   4   6   1   16.10    3.70
  -5  -6  -1  548.05   18.20
  -5  -6  -1  562.44   19.40
  -5  -6  -1  565.44   14.20
  -5  -6  -1  554.64   13.90
  -5  -6  -1  549.25   15.30
  -5  -6  -1  571.14   21.20
  -5  -6  -1  559.94   21.60
   5   6   1  530.45   19.40
   5   6   1  505.45   22.40
   5   6   1  587.44   20.80
   5   6   1  560.74   19.40
  -6  -6  -1  922.01   29.20
  -6  -6  -1  883.81   23.60
  -6  -6  -1  858.61   22.70
  -6  -6  -1  875.81   20.10
  -6  -6  -1  901.61   26.20
  -6  -6  -1  912.01   21.30
  -6  -6  -1  818.02   19.20
  -6  -6  -1  853.81   25.80
   6   6   1  892.81   28.60
   6   6   1  900.21   31.90
   6   6   1  910.21   27.60
  -7  -6  -1   92.69    6.90
  -7  -6  -1   91.19    5.00
  -7  -6  -1  100.09    9.50
  -7  -6  -1   89.39    9.20
  -7  -6  -1  100.59    7.20
  -7  -6  -1   97.39    6.30
  -7  -6  -1   98.09    4.90
   7   6   1   95.59    9.30
   7   6   1   94.89   10.70
   7   6   1   88.19    8.40
  -8  -6  -1  279.27   16.30
  -8  -6  -1  260.77   13.40
  -8  -6  -1  255.37    8.40
  -8  -6  -1  272.67   12.20
  -8  -6  -1  271.67   15.60
  -8  -6  -1  281.37   12.20
  -8  -6  -1  280.27    8.90
   8   6   1  308.47   19.20
   8   6   1  318.47   18.50
   8   6   1  271.07   15.00
  -9  -6  -1   -1.40    1.50
  -9  -6  -1   -3.80    1.90
  -9  -6  -1   -2.20    2.20
  -9  -6  -1   -1.10    1.90
  -9  -6  -1    1.30    1.90
   9   6   1   -4.10    2.30
 -10  -6  -1   10.30    3.90
 -10  -6  -1    9.00    3.20
 -10  -6  -1   13.70    3.50
  10   6   1   16.70    5.60
   9  -7  -1   97.99   12.20
   9  -7  -1   91.79   11.30
   9  -7  -1   90.99   11.80
   9  -7  -1  114.19   11.10
  -9   7   1   81.29   11.40
  -9   7   1   76.79   11.00
   8  -7  -1    7.10    4.10
   8  -7  -1   10.90    4.40
   8  -7  -1    3.80    2.90
   8  -7  -1   12.60    3.50
   8  -7  -1    5.20    2.90
  -8   7   1    3.10    3.30
  -8   7   1   12.30    4.40
   7  -7  -1  617.74   27.50
   7  -7  -1  618.94   21.10
   7  -7  -1  637.04   26.30
   7  -7  -1  644.54   27.50
   7  -7  -1  593.44   27.70
  -7   7   1  661.43   32.10
  -7   7   1  669.43   28.10
   6  -7  -1   91.19    9.40
   6  -7  -1   91.89    9.00
   6  -7  -1   96.89   10.20
  -6   7   1   84.69    9.40
  -6   7   1  109.79   10.40
  -6   7   1   95.29    9.60
   5  -7  -1  252.37   15.90
   5  -7  -1  256.77   15.00
   5  -7  -1  280.67   16.40
  -5   7   1  236.68   14.10
  -5   7   1  249.28   15.20
  -5   7   1  244.58   12.70
   4  -7  -1  126.89   10.00
   4  -7  -1  119.69   10.40
   4  -7  -1  105.79    9.80
  -4   7   1  115.29    9.90
  -4   7   1  119.09    8.10
   3  -7  -1 1265.77   33.90
   3  -7  -1 1185.88   34.90
   3  -7  -1 1301.47   39.20
   3  -7  -1 1319.07   38.80
   3  -7  -1 1252.57   36.20
  -3   7   1 1216.38   34.80
  -3   7   1 1218.68   29.50
   2  -7  -1   66.19    7.60
   2  -7  -1   79.49   10.10
   2  -7  -1   69.99    7.90
   2  -7  -1   60.79    6.80
  -2   7   1   61.99    6.30
  -2   7   1   64.39    7.10
  -2   7   1   68.69    5.40
  -2   7   1   69.69    4.90
  -2   7   1   60.69    6.30
   1  -7  -1  579.24   26.50
   1  -7  -1  555.04   20.30
   1  -7  -1  553.84   18.10
   1  -7  -1  543.05   19.40
   1  -7  -1  546.15   22.10
  -1   7   1  569.94   14.20
  -1   7   1  552.34   18.30
  -1   7   1  561.84   20.90
  -1   7   1  581.94   19.50
   0  -7  -1  287.47   13.30
   0  -7  -1  267.07   13.90
   0  -7  -1  299.47   15.20
   0  -7  -1  297.67   12.90
   0   7   1  289.07   13.50
   0   7   1  292.27    7.40
   0   7   1  299.47    7.20
   0   7   1  285.07   12.50
   0   7   1  296.47    9.20
   0   7   1  300.27    9.40
   0   7   1  331.87   17.30
  -1  -7  -1  916.91   24.70
  -1  -7  -1  932.31   29.00
  -1  -7  -1  890.91   25.50
  -1  -7  -1  882.81   27.20
   1   7   1  912.41   27.40
   1   7   1  912.81   27.70
   1   7   1  933.21   24.30
   1   7   1  928.51   26.90
   1   7   1  896.41   20.70
   1   7   1  927.81   18.00
  -2  -7  -1   77.39    6.20
  -2  -7  -1   79.29    5.70
  -2  -7  -1   71.79    7.30
  -2  -7  -1   56.99    6.60
   2   7   1   75.49    6.60
   2   7   1   71.19    5.00
   2   7   1   76.89    8.50
   2   7   1   72.29    6.90
   2   7   1   65.89    7.40
  -3  -7  -1  602.64   17.00
  -3  -7  -1  601.64   23.30
  -3  -7  -1  612.64   22.60
  -3  -7  -1  609.44   21.20
  -3  -7  -1  624.64   18.90
  -3  -7  -1  562.34   22.80
   3   7   1  592.34   20.90
   3   7   1  557.94   21.00
   3   7   1  605.24   17.90
   3   7   1  599.94   23.40
   3   7   1  635.04   20.60
  -4  -7  -1   24.90    4.70
  -4  -7  -1   29.20    4.10
  -4  -7  -1   33.20    5.50
   4   7   1   26.10    5.00
   4   7   1   30.60    4.80
   4   7   1   27.90    4.40
   4   7   1   22.10    4.50
   4   7   1   28.90    5.80
  -5  -7  -1    5.00    1.40
  -5  -7  -1    2.20    2.00
  -5  -7  -1    2.40    1.60
  -5  -7  -1    2.40    2.60
  -5  -7  -1    4.30    2.50
   5   7   1    5.40    3.20
   5   7   1    3.10    1.90
   5   7   1    0.50    1.90
   5   7   1    4.40    2.60
  -6  -7  -1  207.78   12.20
  -6  -7  -1  189.48    7.30
  -6  -7  -1  199.08    7.00
  -6  -7  -1  193.88    9.80
  -6  -7  -1  190.78    7.60
  -6  -7  -1  193.18    8.70
  -6  -7  -1  196.28   13.10
   6   7   1  197.98   12.60
   6   7   1  213.38   13.50
   6   7   1  202.98   14.90
  -7  -7  -1   91.29    9.40
  -7  -7  -1   81.99    7.80
  -7  -7  -1   86.19    5.40
  -7  -7  -1   84.89    6.60
  -7  -7  -1   83.59    6.50
  -7  -7  -1   84.49    4.30
   7   7   1   85.99    9.20
   7   7   1  101.39   11.20
   7   7   1   98.09    9.10
  -8  -7  -1   88.79    9.50
  -8  -7  -1   81.29    6.50
  -8  -7  -1   79.79    5.90
  -8  -7  -1   70.09    7.10
   8   7   1   89.69   10.00
   8   7   1   90.69    9.20
   8   7   1   94.39   11.30
  -9  -7  -1   72.69    8.70
  -9  -7  -1   66.89    6.30
  -9  -7  -1   75.69    9.40
   9   7   1   68.19   10.70
   8  -8  -1    5.40    2.90
   8  -8  -1    5.20    3.30
   8  -8  -1    2.30    3.80
   8  -8  -1    3.10    2.50
  -8   8   1    7.20    3.60
   7  -8  -1   56.29    8.80
   7  -8  -1   48.60    8.20
   7  -8  -1   47.10    8.30
  -7   8   1   44.80    8.30
  -7   8   1   51.29    7.90
   6  -8  -1  149.29   13.20
   6  -8  -1  153.68   12.70
  -6   8   1  152.28   12.70
  -6   8   1  129.39   12.20
   5  -8  -1  593.24   26.30
   5  -8  -1  585.94   24.30
  -5   8   1  601.64   25.50
  -5   8   1  637.14   24.80
  -5   8   1  608.94   21.80
   4  -8  -1   60.79    8.00
   4  -8  -1   63.39    7.30
  -4   8   1   57.19    7.50
  -4   8   1   43.00    5.10
  -4   8   1   60.59    6.90
   3  -8  -1 1136.29   36.00
   3  -8  -1 1151.68   33.40
   3  -8  -1 1224.38   39.70
  -3   8   1 1131.09   28.40
  -3   8   1 1172.98   31.70
  -3   8   1 1158.18   34.70
   2  -8  -1  317.47   15.90
   2  -8  -1  350.06   18.90
   2  -8  -1  320.77   15.10
   2  -8  -1  313.27   16.50
  -2   8   1  334.87   16.00
  -2   8   1  322.47   13.30
  -2   8   1  321.17   11.40
   1  -8  -1   93.29    8.10
   1  -8  -1  101.09    7.80
   1  -8  -1  112.19    9.30
  -1   8   1  112.89    8.80
  -1   8   1  105.09    5.10
   0  -8  -1  229.68   12.70
   0  -8  -1  228.68   12.20
   0  -8  -1  242.58   12.70
   0  -8  -1  224.08   14.30
   0   8   1  267.97   15.40
   0   8   1  243.98    8.90
   0   8   1  244.58   12.10
   0   8   1  263.17   13.40
   0   8   1  230.38    8.00
  -1  -8  -1  647.54   24.80
  -1  -8  -1  618.64   23.00
  -1  -8  -1  637.04   21.70
  -1  -8  -1  631.14   20.60
   1   8   1  632.54   22.70
   1   8   1  634.54   23.50
   1   8   1  619.54   23.00
   1   8   1  663.33   20.40
   1   8   1  660.53   17.00
  -2  -8  -1  197.18   10.20
  -2  -8  -1  209.08   16.70
  -2  -8  -1  216.98   11.80
  -2  -8  -1  193.28   12.80
   2   8   1  208.88    9.00
   2   8   1  203.88   12.80
   2   8   1  206.98   11.60
   2   8   1  203.88   12.30
   2   8   1  192.88   12.90
  -3  -8  -1  445.96   20.30
  -3  -8  -1  465.15   15.50
  -3  -8  -1  442.16   16.70
   3   8   1  471.35   15.80
   3   8   1  528.35   22.60
   3   8   1  484.25   19.60
   3   8   1  441.26   18.10
  -4  -8  -1   54.39    7.10
  -4  -8  -1   64.49    5.90
  -4  -8  -1   48.70    4.70
   4   8   1   59.69    5.90
   4   8   1   43.60    7.20
   4   8   1   55.49    7.00
   4   8   1   63.09    7.10
  -5  -8  -1    0.10    1.10
  -5  -8  -1    0.10    1.70
  -5  -8  -1    1.10    1.80
   5   8   1   -0.30    2.00
   5   8   1   -0.40    1.30
   5   8   1    3.00    2.40
   5   8   1   -1.40    1.90
  -6  -8  -1  127.39   11.10
  -6  -8  -1  138.09    6.20
  -6  -8  -1  139.89    8.20
   6   8   1  123.89   10.80
   6   8   1  131.49   12.50
   6   8   1  128.19   11.00
  -7  -8  -1   50.59    5.30
  -7  -8  -1   47.90    5.00
  -7  -8  -1   67.09    8.70
   7   8   1   58.49    9.40
   7   8   1   60.19    8.50
   7   8   1   57.49    7.80
  -8  -8  -1    4.80    3.30
  -8  -8  -1   -3.10    1.50
   8   8   1    4.00    4.90
   8   8   1    0.20    2.50
   8   8   1    0.80    2.30
   7  -9  -1  114.69   13.20
   7  -9  -1  129.09   13.10
   7  -9  -1  124.29   12.70
  -7   9   1  136.49   12.80
  -7   9   1  105.69   12.30
   6  -9  -1   72.89   10.00
  -6   9   1   84.99   10.30
  -6   9   1   82.09   13.10
   5  -9  -1  342.07   18.80
   5  -9  -1  384.06   21.80
  -5   9   1  388.66   19.10
  -5   9   1  400.46   21.20
  -5   9   1  351.36   15.70
   4  -9  -1   10.40    3.60
   4  -9  -1    9.10    3.50
  -4   9   1    6.70    3.20
  -4   9   1    7.00    3.10
   3  -9  -1  128.59   12.60
   3  -9  -1  123.79   10.10
   3  -9  -1  127.79   11.50
  -3   9   1  116.49    9.00
  -3   9   1  116.99    7.60
  -3   9   1  125.29   10.80
   2  -9  -1  492.55   24.30
   2  -9  -1  477.55   21.70
   2  -9  -1  492.65   19.80
  -2   9   1  515.45   19.70
  -2   9   1  502.55   21.20
  -2   9   1  476.25   14.50
   1  -9  -1  326.97   17.00
   1  -9  -1  301.57   14.90
   1  -9  -1  306.57   18.40
  -1   9   1  317.47    9.40
  -1   9   1  325.27   15.80
  -1   9   1  333.27   12.30
  -1   9   1  315.07   11.20
  -1   9   1  341.77   15.70
   0  -9  -1   30.60    5.70
   0  -9  -1   22.00    4.60
   0  -9  -1   15.60    4.30
   0  -9  -1   19.60    4.50
   0   9   1   25.90    3.40
   0   9   1   25.30    5.40
   0   9   1   33.50    5.30
   0   9   1   22.70    5.00
   0   9   1   30.40    3.00
   0   9   1   23.50    2.60
  -1  -9  -1  602.34   25.30
  -1  -9  -1  580.24   23.90
  -1  -9  -1  624.84   22.60
   1   9   1  602.84   16.90
   1   9   1  636.94   24.10
   1   9   1  618.64   24.40
  -2  -9  -1   35.90    5.40
  -2  -9  -1   39.10    5.10
  -2  -9  -1   31.80    6.20
   2   9   1   33.70    6.50
   2   9   1   39.00    6.50
   2   9   1   33.30    5.70
   2   9   1   35.90    4.30
  -3  -9  -1   15.20    4.40
  -3  -9  -1   17.30    3.60
  -3  -9  -1   13.20    3.60
   3   9   1   14.00    4.10
   3   9   1   17.60    3.60
   3   9   1   13.30    4.50
   3   9   1   11.90    3.50
  -4  -9  -1   52.09    5.30
  -4  -9  -1   72.49    6.70
  -4  -9  -1   60.79    8.00
   4   9   1   62.89    7.30
   4   9   1   53.49    7.40
   4   9   1   54.89    8.40
   4   9   1   67.39    6.60
  -5  -9  -1  228.08   10.00
  -5  -9  -1  271.57   13.70
  -5  -9  -1  242.08   15.80
   5   9   1  230.48   12.80
   5   9   1  260.47   17.90
   5   9   1  251.97   15.30
   5   9   1  252.77   15.40
  -6  -9  -1   26.10    4.40
  -6  -9  -1   20.80    3.90
  -6  -9  -1   47.90   11.00
   6   9   1   24.90    6.60
   6   9   1   15.90    4.80
   6   9   1   16.90    4.80
  -7  -9  -1    4.40    2.60
  -7  -9  -1    9.20    2.80
   7   9   1   10.00    3.50
   7   9   1    3.40    3.30
   7   9   1    7.10    3.60
  -8  -9  -1   -0.60    3.40
   8   9   1   -6.50    2.20
   8   9   1   -6.40    3.70
   8   9   1    0.10    3.20
   6 -10  -1    6.50    3.90
   6 -10  -1    8.80    4.00
  -6  10   1    9.10    3.50
  -6  10   1   21.80    6.30
   5 -10  -1   58.89    8.10
   5 -10  -1   57.19    9.30
  -5  10   1   68.29    9.70
  -5  10   1   51.69    7.60
   4 -10  -1  364.06   18.90
   4 -10  -1  370.56   21.40
  -4  10   1  373.86   17.70
  -4  10   1  341.47   14.90
  -4  10   1  397.66   21.10
   3 -10  -1   13.10    3.70
   3 -10  -1   13.70    5.30
  -3  10   1   11.50    3.40
  -3  10   1   12.90    3.10
  -3  10   1    9.30    3.90
   2 -10  -1   33.60    7.40
   2 -10  -1   19.00    5.00
   2 -10  -1   25.20    5.20
  -2  10   1   29.10    4.30
  -2  10   1   29.60    4.60
  -2  10   1   29.00    5.80
  -2  10   1   26.20    3.40
   1 -10  -1  322.67   20.40
   1 -10  -1  351.36   16.60
   1 -10  -1  340.47   18.30
  -1  10   1  323.57   11.30
  -1  10   1  343.27   16.50
  -1  10   1  333.87   11.50
  -1  10   1  322.47   16.70
  -1  10   1  326.67   17.90
  -1  10   1  327.27   11.90
   0 -10  -1  230.58   16.60
   0 -10  -1  202.28   13.60
   0  10   1  203.48   12.50
   0  10   1  210.08    8.80
   0  10   1  206.58   20.70
   0  10   1  227.78   14.30
  -1 -10  -1  156.88   13.40
  -1 -10  -1  161.78   11.70
   1  10   1  162.48   12.50
   1  10   1  148.09   11.20
   1  10   1  159.28    8.00
  -2 -10  -1  299.57   15.30
  -2 -10  -1  280.27   14.20
  -2 -10  -1  303.97   18.50
   2  10   1  297.77   17.90
   2  10   1  318.87   19.30
   2  10   1  294.27   11.80
   2  10   1  314.17   16.30
  -3 -10  -1  160.88   10.80
  -3 -10  -1  170.28   13.70
   3  10   1  151.78   11.50
   3  10   1  188.48   12.50
   3  10   1  160.38   12.60
   3  10   1  157.98   13.70
  -4 -10  -1   13.20    3.60
  -4 -10  -1    7.90    2.90
   4  10   1    3.00    2.60
   4  10   1   17.80    5.90
   4  10   1   11.30    4.20
   4  10   1   15.20    4.20
  -5 -10  -1   82.89   10.00
  -5 -10  -1   81.29    7.20
  -5 -10  -1   63.79    5.80
   5  10   1   63.49    7.70
   5  10   1   70.49    9.00
   5  10   1   84.69    9.40
   5  10   1   67.89   10.30
  -6 -10  -1   66.49    8.80
  -6 -10  -1   72.49    6.60
   6  10   1   73.79    9.30
   6  10   1   69.99    9.40
   6  10   1   77.19   11.30
   5 -11  -1   33.60    8.10
   5 -11  -1   27.70    6.40
  -5  11   1   42.30    8.40
  -5  11   1   51.19    7.80
   4 -11  -1  110.39   11.30
   4 -11  -1   93.89   11.70
  -4  11   1  103.39    9.70
  -4  11   1  108.39   11.00
   3 -11  -1  255.97   15.40
   3 -11  -1  245.58   17.40
  -3  11   1  241.48   10.50
  -3  11   1  259.27   13.20
  -3  11   1  243.48   16.60
   2 -11  -1   56.09    8.40
   2 -11  -1   53.29    7.20
   2 -11  -1   54.49    9.00
  -2  11   1   38.80    5.00
  -2  11   1   46.90    7.20
  -2  11   1   53.89    5.80
  -2  11   1   62.49    8.90
   1 -11  -1    4.40    3.60
   1 -11  -1    5.10    4.40
   1 -11  -1    3.30    2.50
  -1  11   1    7.70    3.60
  -1  11   1    1.00    2.20
  -1  11   1    4.40    3.20
   0 -11  -1  347.27   18.90
   0 -11  -1  343.37   21.60
   0  11   1  362.16   20.20
  -1 -11  -1   61.29    7.80
  -1 -11  -1   49.50    8.30
   1  11   1   59.79    8.90
   1  11   1   45.70    7.40
   1  11   1   47.70    8.40
  -2 -11  -1   37.40    8.20
  -2 -11  -1   48.60    6.90
   2  11   1   50.19    8.30
   2  11   1   43.50    8.00
   2  11   1   46.20    7.40
  -3 -11  -1   95.19    8.70
  -3 -11  -1   95.09   11.40
   3  11   1   78.99   10.00
   3  11   1   88.89    9.70
   3  11   1  103.19   11.60
  -4 -11  -1   61.59    9.60
  -4 -11  -1   70.99    7.70
   4  11   1   73.59    9.80
   4  11   1   83.69   11.80
   4  11   1   74.59    9.30
  -5 -11  -1    1.50    2.30
  -5 -11  -1   -2.70    1.70
   5  11   1   -5.70    3.50
   5  11   1   -0.70    2.40
   5  11   1   -2.40    2.40
   2 -12  -1  135.59   10.90
   2 -12  -1  140.99   15.10
   2 -12  -1  131.39   13.40
  -2  12   1  114.49   11.50
  -2  12   1  136.19   13.40
   1 -12  -1    1.20    3.20
   1 -12  -1    3.30    2.70
   1 -12  -1    0.30    2.10
  -1  12   1    1.40    1.80
  -1  12   1   -1.20    1.80
  -1  12   1   -1.00    2.20
   0 -12  -1  118.69   11.70
   0 -12  -1  118.09   13.20
   0 -12  -1   95.99    9.20
   0  12   1  128.59   12.90
  -1 -12  -1   56.39    9.80
   1  12   1   34.30    7.90
   1  12   1   57.79    8.60
  -2 -12  -1   59.09   10.10
  -2 -12  -1   65.29    8.50
   2  12   1   66.29    9.20
   2  12   1   53.19    9.10
  -3 -12  -1   15.20    5.80
  -3 -12  -1   26.40    5.80
   3  12   1   18.50    5.10
   3  12   1   21.30    5.70
   0  12  -2   35.50    7.30
   0  12  -2   36.20    7.70
   0  12  -2   36.40    6.20
   0 -12   2   29.70    6.30
  -1  12  -2   63.59   10.20
  -1  12  -2   38.10    6.50
   1 -12   2   42.10    6.90
   4  11  -2  121.59   12.90
   4  11  -2  146.29   13.90
  -4 -11   2  143.69   12.80
   3  11  -2   14.60    4.20
   3  11  -2   21.10    4.70
   3  11  -2   19.60    5.70
  -3 -11   2   20.90    6.80
  -3 -11   2   18.30    4.00
   2  11  -2   19.00    5.60
   2  11  -2   10.80    4.20
   2  11  -2   16.00    4.20
  -2 -11   2    9.80    2.40
  -2 -11   2   17.20    4.00
   1  11  -2   12.30    4.70
   1  11  -2   14.60    4.60
   1  11  -2   19.60    4.60
  -1 -11   2   18.80    5.70
  -1 -11   2   24.50    5.50
  -1 -11   2   24.50    3.40
   0  11  -2  309.27   18.90
   0  11  -2  326.07   15.60
   0 -11   2  324.37   17.00
   0 -11   2  317.37   20.20
   0 -11   2  305.27   11.00
  -1  11  -2    0.00    1.90
  -1  11  -2   -0.40    2.50
   1 -11   2    2.60    1.90
   1 -11   2   -2.60    2.10
  -2  11  -2  253.17   17.10
   2 -11   2  230.88   11.00
   2 -11   2  205.28   17.30
  -3  11  -2   57.79    9.40
  -3  11  -2   56.69    8.80
   3 -11   2   61.09    6.70
   3 -11   2   78.29   10.20
  -4  11  -2  126.99   13.00
  -4  11  -2  130.69   12.50
   4 -11   2  135.59   10.00
   4 -11   2  127.99   12.70
   4 -11   2  125.69   13.70
   6  10  -2   50.39    7.80
   6  10  -2   13.20    4.30
   6  10  -2   22.60    5.70
  -6 -10   2   20.40    5.10
   5  10  -2   -2.30    2.20
   5  10  -2    3.90    3.90
   5  10  -2    1.10    2.80
  -5 -10   2    2.70    2.70
   4  10  -2   -1.30    2.70
   4  10  -2    2.20    1.70
   4  10  -2    3.10    3.10
   4  10  -2    1.40    2.30
  -4 -10   2    1.50    2.70
  -4 -10   2    4.40    2.10
   3  10  -2   15.90    3.80
   3  10  -2   32.70    6.80
   3  10  -2   23.40    3.80
   3  10  -2   25.10    6.30
  -3 -10   2   20.10    3.90
  -3 -10   2   13.70    4.20
  -3 -10   2   30.40    4.10
   2  10  -2   -1.70    1.90
   2  10  -2    0.80    1.50
   2  10  -2   -1.90    1.90
   2  10  -2    0.90    2.00
  -2 -10   2    0.20    1.40
  -2 -10   2    3.10    2.30
  -2 -10   2    2.10    2.10
   1  10  -2   -0.40    1.30
   1  10  -2    1.80    2.50
   1  10  -2   -1.60    1.90
   1  10  -2   -3.10    1.80
  -1 -10   2    0.80    1.80
  -1 -10   2    2.10    2.90
  -1 -10   2   -1.40    1.00
   0  10  -2  199.98   11.50
   0  10  -2  219.18   14.30
   0  10  -2  185.88    9.70
   0 -10   2  200.98   15.10
   0 -10   2  179.18   12.00
   0 -10   2  190.38    8.50
  -1  10  -2   65.69    8.50
   1 -10   2   56.89    5.20
   1 -10   2   56.59    7.40
  -2  10  -2  105.69   10.60
  -2  10  -2  107.49   10.50
  -2  10  -2   93.09    6.00
   2 -10   2   97.39    7.00
   2 -10   2   72.79    8.50
   2 -10   2  101.59   10.30
  -3  10  -2  206.08   15.20
  -3  10  -2  227.68   11.20
  -3  10  -2  232.68   15.50
   3 -10   2  238.28   16.20
   3 -10   2  212.88   11.70
   3 -10   2  206.68   11.20
  -4  10  -2  172.08   14.40
  -4  10  -2  175.18   13.80
  -4  10  -2  164.78   10.80
   4 -10   2  186.18   14.70
   4 -10   2  166.08   10.90
  -5  10  -2   10.30    3.50
  -5  10  -2    6.00    3.30
  -5  10  -2   10.20    4.30
   5 -10   2    5.50    3.00
   5 -10   2    0.80    2.90
   5 -10   2    9.70    4.50
  -6  10  -2  211.38   14.80
  -6  10  -2  206.58   16.60
   6 -10   2  195.78   16.60
   6 -10   2  207.38   17.70
   6 -10   2  196.88   13.20
   7   9  -2   40.60    8.40
   7   9  -2   28.00    6.40
   7   9  -2   18.00    5.10
  -7  -9   2   46.50    6.70
   6   9  -2    4.00    3.00
   6   9  -2   -0.90    2.80
   6   9  -2    0.90    2.80
  -6  -9   2    2.90    2.60
  -6  -9   2    6.80    2.90
   5   9  -2  166.08   13.60
   5   9  -2  174.38   13.70
   5   9  -2  180.18   12.80
   5   9  -2  173.38    9.70
  -5  -9   2  161.18   11.80
  -5  -9   2  153.08   10.00
   4   9  -2   35.30    6.90
   4   9  -2   16.30    4.30
   4   9  -2   12.50    3.50
   4   9  -2   25.80    5.60
  -4  -9   2   16.70    3.80
  -4  -9   2   21.90    5.10
   3   9  -2  211.68   12.40
   3   9  -2  206.18   13.80
   3   9  -2  191.68   17.30
   3   9  -2  203.18    9.60
  -3  -9   2  213.48    9.30
  -3  -9   2  210.78    9.60
  -3  -9   2  193.28   13.00
   2   9  -2   99.89    9.70
   2   9  -2   98.79    8.20
   2   9  -2   91.69    9.30
   2   9  -2   90.29    6.10
  -2  -9   2  106.99    7.50
  -2  -9   2  100.29    6.60
  -2  -9   2   93.79    9.40
   1   9  -2   16.80    3.20
   1   9  -2   15.20    3.50
   1   9  -2    7.10    2.80
  -1  -9   2    7.80    3.00
  -1  -9   2   11.70    3.00
   0   9  -2    9.10    3.30
   0   9  -2   13.20    3.00
   0  -9   2   14.20    3.70
   0  -9   2   16.50    2.90
   0  -9   2   10.60    4.20
  -1   9  -2  107.79    9.90
  -1   9  -2  102.79    5.00
   1  -9   2   94.79    8.90
   1  -9   2  113.39    6.70
   1  -9   2   89.09    8.50
  -2   9  -2   32.90    5.90
  -2   9  -2   27.00    3.70
  -2   9  -2   29.70    5.90
   2  -9   2   26.40    5.30
   2  -9   2   24.40    4.00
   2  -9   2   29.90    5.00
  -3   9  -2   61.49    8.30
  -3   9  -2   62.19    6.30
  -3   9  -2   55.39    7.40
   3  -9   2   60.29    7.90
   3  -9   2   64.89    9.20
   3  -9   2   62.09    5.70
  -4   9  -2  448.66   21.90
  -4   9  -2  430.86   17.70
  -4   9  -2  445.36   21.20
   4  -9   2  450.35   22.50
   4  -9   2  448.06   17.90
   4  -9   2  411.56   13.70
  -5   9  -2   98.59    9.10
  -5   9  -2  104.29   10.90
   5  -9   2  112.29    9.70
   5  -9   2  111.89   12.00
   5  -9   2  106.49   11.00
  -6   9  -2   12.40    4.20
  -6   9  -2   28.60    8.90
   6  -9   2    7.50    3.60
   6  -9   2   18.20    5.80
   6  -9   2   16.00    4.20
  -7   9  -2   57.39    9.20
  -7   9  -2   65.39    9.00
   7  -9   2   64.59    9.90
   7  -9   2   59.79    9.10
   8   8  -2   41.40    8.50
   8   8  -2   43.20    8.80
   8   8  -2   46.80    8.90
  -8  -8   2   37.90    7.10
  -8  -8   2   36.70    6.20
  -8  -8   2   45.30    6.50
   7   8  -2  252.07   17.00
   7   8  -2  267.07   16.70
   7   8  -2  225.28   16.30
  -7  -8   2  254.17   14.30
  -7  -8   2  255.47   17.40
   6   8  -2   -1.20    2.30
   6   8  -2    6.00    2.60
   6   8  -2    2.90    2.40
   6   8  -2    9.30    4.10
  -6  -8   2   -2.80    1.70
  -6  -8   2    2.90    2.40
  -6  -8   2    4.40    2.50
  -6  -8   2    1.60    2.20
   5   8  -2  301.87   17.40
   5   8  -2  365.46   14.60
   5   8  -2  338.37   17.10
   5   8  -2  326.37   18.30
  -5  -8   2  329.97   15.00
  -5  -8   2  323.27   15.00
  -5  -8   2  333.77   16.10
  -5  -8   2  333.77   14.70
   4   8  -2   33.20    4.60
   4   8  -2   39.20    6.00
   4   8  -2   30.10    5.50
   4   8  -2   37.80    6.70
   4   8  -2   41.70    6.50
  -4  -8   2   41.00    6.00
  -4  -8   2   26.20    4.70
  -4  -8   2   30.20    4.50
   3   8  -2   22.10    4.60
   3   8  -2   28.70    5.70
   3   8  -2   16.70    5.30
   3   8  -2   22.90    4.90
   3   8  -2   29.00    3.70
  -3  -8   2   24.00    4.90
  -3  -8   2   22.30    3.30
  -3  -8   2   26.80    3.30
  -3  -8   2   12.10    3.10
   2   8  -2    0.70    1.70
   2   8  -2    1.00    1.70
   2   8  -2    1.60    1.60
   2   8  -2    0.10    1.10
  -2  -8   2    3.40    1.30
  -2  -8   2    0.00    1.50
  -2  -8   2    1.10    1.30
  -2  -8   2    0.70    1.60
   1   8  -2 1052.99   32.20
   1   8  -2 1026.20   30.40
   1   8  -2 1075.89   25.50
   1   8  -2 1140.79   29.20
  -1  -8   2 1084.09   32.80
  -1  -8   2 1077.19   28.30
  -1  -8   2 1043.70   31.10
  -1  -8   2 1074.79   33.10
   0   8  -2    0.40    1.80
   0   8  -2    0.00    1.00
   0   8  -2   -0.10    1.50
   0  -8   2    1.70    1.20
   0  -8   2    1.50    1.70
   0  -8   2    1.40    1.80
   0  -8   2   -2.30    1.40
   0  -8   2    0.60    1.50
  -1   8  -2   13.90    4.00
  -1   8  -2    9.50    3.20
  -1   8  -2   10.90    3.30
  -1   8  -2    8.70    2.90
  -1   8  -2    9.70    2.10
   1  -8   2    9.80    3.00
   1  -8   2    5.10    2.70
   1  -8   2   11.70    3.50
   1  -8   2   14.40    2.70
  -2   8  -2    4.00    1.80
  -2   8  -2   11.40    3.10
  -2   8  -2    6.00    2.70
   2  -8   2    7.40    2.20
   2  -8   2    7.90    3.10
   2  -8   2    5.00    2.70
  -3   8  -2    5.10    2.20
  -3   8  -2    3.60    2.40
  -3   8  -2    1.20    1.70
   3  -8   2    4.10    2.00
   3  -8   2    3.40    2.30
   3  -8   2    6.40    2.40
  -4   8  -2   43.70    5.80
  -4   8  -2   50.59    7.20
   4  -8   2   38.20    3.80
   4  -8   2   40.60    5.50
   4  -8   2   42.90    6.20
   4  -8   2   41.00    6.50
  -5   8  -2  372.16   17.40
   5  -8   2  336.07   16.10
   5  -8   2  367.66   16.90
   5  -8   2  360.06   20.50
   5  -8   2  357.96   19.90
  -6   8  -2  104.79   10.70
  -6   8  -2  100.59    9.80
   6  -8   2   98.09    9.30
   6  -8   2   96.89    8.60
   6  -8   2  106.69   11.60
   6  -8   2   83.29   10.10
  -7   8  -2    6.90    3.70
  -7   8  -2    7.50    3.80
   7  -8   2   11.50    3.00
   7  -8   2    8.60    3.90
   7  -8   2    2.20    3.60
   7  -8   2   10.40    3.90
  -8   8  -2   10.20    4.20
  -8   8  -2    3.80    3.90
   8  -8   2    3.90    4.20
   8  -8   2   -2.90    2.40
   8  -8   2    3.50    3.10
   8  -8   2   13.40    5.50
   9   7  -2    0.30    2.90
  -9  -7   2   -1.30    2.30
  -9  -7   2    1.00    2.50
  -9  -7   2    8.10    2.60
  -9  -7   2   -2.30    1.30
   8   7  -2    8.60    4.10
   8   7  -2   19.00    5.10
   8   7  -2   16.20    5.30
  -8  -7   2   21.50    3.30
  -8  -7   2   16.50    4.90
  -8  -7   2   17.30    4.20
  -8  -7   2   12.00    3.60
   7   7  -2  150.38   12.30
   7   7  -2  142.39   12.40
   7   7  -2  136.29   11.90
  -7  -7   2  123.29    7.90
  -7  -7   2  151.38   10.60
  -7  -7   2  130.09   11.80
  -7  -7   2  140.49    9.60
   6   7  -2   24.10    4.80
   6   7  -2   32.80    6.20
   6   7  -2   33.30    6.20
   6   7  -2   29.80    6.10
  -6  -7   2   36.80    5.50
  -6  -7   2   23.20    5.10
  -6  -7   2   22.40    4.40
  -6  -7   2   31.00    4.30
   5   7  -2  309.67   13.50
   5   7  -2  330.17   17.40
   5   7  -2  342.57   17.30
   5   7  -2  314.47   15.80
  -5  -7   2  318.87   13.70
  -5  -7   2  338.07   14.60
  -5  -7   2  323.07   14.70
  -5  -7   2  312.27   14.20
   4   7  -2  124.49    9.90
   4   7  -2  123.59    9.40
   4   7  -2  121.39    7.80
   4   7  -2  100.99    9.30
   4   7  -2  102.09    7.90
  -4  -7   2  111.89    8.40
  -4  -7   2  112.59    7.30
  -4  -7   2  122.19    8.40
   3   7  -2  967.40   29.00
   3   7  -2  911.81   23.80
   3   7  -2  966.60   27.30
   3   7  -2  976.30   29.90
   3   7  -2  875.91   25.70
  -3  -7   2  924.31   26.70
  -3  -7   2  939.41   31.70
  -3  -7   2  990.20   21.20
  -3  -7   2  938.61   23.40
   2   7  -2   97.79    7.30
   2   7  -2   95.99    7.30
   2   7  -2   91.39    6.00
   2   7  -2   86.89    7.90
   2   7  -2   86.29    7.70
  -2  -7   2   88.69    5.70
  -2  -7   2   93.69    8.70
  -2  -7   2   91.69    5.40
  -2  -7   2   96.49    7.60
   1   7  -2  581.84   20.90
   1   7  -2  545.85   19.00
   1   7  -2  568.44   16.20
  -1  -7   2  560.34   19.90
  -1  -7   2  564.94   17.50
  -1  -7   2  577.74   20.80
   0   7  -2  224.78    6.10
   0   7  -2  218.78   10.40
   0   7  -2  229.68   12.00
   0   7  -2  233.98   12.50
   0  -7   2  239.08   13.20
   0  -7   2  230.68   11.20
   0  -7   2  216.08   12.00
   0  -7   2  231.38    8.20
  -1   7  -2  336.97   10.40
  -1   7  -2  331.07   15.00
  -1   7  -2  306.57   13.50
  -1   7  -2  323.47   15.10
  -1   7  -2  337.67   15.30
   1  -7   2  325.17   10.80
   1  -7   2  333.47   16.40
   1  -7   2  332.87   14.10
   1  -7   2  315.07   15.10
  -2   7  -2    8.90    2.60
  -2   7  -2   16.60    3.00
  -2   7  -2   22.00    4.50
  -2   7  -2    9.20    2.90
  -2   7  -2    9.50    2.80
   2  -7   2   18.70    4.30
   2  -7   2   16.60    2.90
   2  -7   2   19.80    3.00
   2  -7   2   10.40    3.20
  -3   7  -2  675.33   24.10
  -3   7  -2  693.33   27.40
  -3   7  -2  667.53   24.40
  -3   7  -2  678.83   25.20
   3  -7   2  704.73   25.10
   3  -7   2  701.63   20.60
   3  -7   2  686.03   19.20
  -4   7  -2  587.14   20.70
  -4   7  -2  629.74   23.90
   4  -7   2  600.74   24.20
   4  -7   2  582.94   20.50
   4  -7   2  590.44   15.20
  -5   7  -2   22.20    4.80
  -5   7  -2   32.30    5.70
   5  -7   2   27.50    5.80
   5  -7   2   15.70    4.00
   5  -7   2   28.10    5.80
   5  -7   2   21.70    3.90
  -6   7  -2  259.47   15.20
  -6   7  -2  252.37   16.00
   6  -7   2  246.28   14.50
   6  -7   2  259.57   17.00
   6  -7   2  251.47   11.70
   6  -7   2  245.08   16.30
  -7   7  -2   67.39   11.40
  -7   7  -2   68.29    8.90
   7  -7   2   75.89    8.80
   7  -7   2   67.79    9.80
   7  -7   2   79.99    9.80
   7  -7   2   80.09   10.20
   7  -7   2   58.69    5.80
  -8   7  -2   45.70    8.10
  -8   7  -2   38.10    7.50
   8  -7   2   48.10    7.70
   8  -7   2   54.59    9.30
   8  -7   2   35.90    7.50
   8  -7   2   44.10    8.10
  -9   7  -2  304.37   19.90
  -9   7  -2  315.77   20.10
   9  -7   2  289.87   19.10
   9  -7   2  299.47   19.00
   9  -7   2  328.17   21.90
   9  -7   2  287.37   21.40
   9   6  -2   10.50    4.20
  -9  -6   2   14.90    3.40
  -9  -6   2   10.80    3.50
  -9  -6   2   14.90    4.90
  -9  -6   2   29.60    5.50
   8   6  -2   17.20    4.20
   8   6  -2   14.10    3.90
   8   6  -2   16.20    5.20
  -8  -6   2   24.80    5.30
  -8  -6   2   21.00    5.00
  -8  -6   2   22.40    3.70
  -8  -6   2   15.90    4.00
   7   6  -2  123.49   10.90
   7   6  -2  131.99   11.50
   7   6  -2  112.39   10.50
  -7  -6   2  133.89    9.50
  -7  -6   2  133.49   10.90
  -7  -6   2  128.39    6.80
  -7  -6   2  131.49    6.60
   6   6  -2   44.90    6.70
   6   6  -2   50.09    7.10
   6   6  -2   49.30    6.00
   6   6  -2   47.50    7.00
  -6  -6   2   50.69    3.30
  -6  -6   2   49.40    4.70
  -6  -6   2   53.89    5.80
  -6  -6   2   36.90    4.90
  -6  -6   2   42.00    3.10
   5   6  -2  155.38   11.10
   5   6  -2  149.99    9.30
   5   6  -2  148.39   10.90
   5   6  -2  159.58   10.90
  -5  -6   2  136.79    8.60
  -5  -6   2  149.09    9.40
  -5  -6   2  160.58    9.40
  -5  -6   2  154.68    8.40
   4   6  -2   26.50    5.00
   4   6  -2   25.80    4.80
   4   6  -2   19.40    3.30
   4   6  -2   24.50    4.50
   4   6  -2   20.20    3.70
  -4  -6   2   25.60    3.90
  -4  -6   2   30.10    4.20
  -4  -6   2   26.00    4.80
  -4  -6   2   18.50    4.10
  -4  -6   2   20.90    3.30
   3   6  -2 1142.69   28.80
   3   6  -2 1177.78   27.90
   3   6  -2 1173.88   30.40
   3   6  -2 1231.28   32.20
   3   6  -2 1197.18   32.50
  -3  -6   2 1167.98   27.30
  -3  -6   2 1227.38   30.10
  -3  -6   2 1155.98   29.60
  -3  -6   2 1197.68   23.30
  -3  -6   2 1118.09   33.80
   2   6  -2 1473.95   37.20
   2   6  -2 1531.75   35.20
   2   6  -2 1473.15   36.40
   2   6  -2 1489.55   34.40
   2   6  -2 1506.25   32.30
  -2  -6   2 1507.75   39.20
  -2  -6   2 1490.65   30.50
  -2  -6   2 1466.15   35.20
  -2  -6   2 1549.24   30.80
  -2  -6   2 1557.94   35.90
   1   6  -2  533.05   18.70
   1   6  -2  526.15   15.00
   1   6  -2  519.55   17.20
  -1  -6   2  531.25   18.40
  -1  -6   2  545.65   18.30
  -1  -6   2  542.05   19.50
  -1  -6   2  530.65   15.60
   0   6  -2 2182.88   47.00
   0   6  -2 2163.78   47.80
   0   6  -2 2127.79   38.20
   0   6  -2 2155.88   44.40
   0  -6   2 2167.08   47.90
   0  -6   2 2235.58   45.60
   0  -6   2 2169.68   40.00
   0  -6   2 2197.58   48.60
   0  -6   2 2179.78   47.90
  -1   6  -2 1334.37   27.80
  -1   6  -2 1360.96   34.10
  -1   6  -2 1342.87   34.20
  -1   6  -2 1347.97   33.50
  -1   6  -2 1356.96   32.60
   1  -6   2 1379.86   32.70
   1  -6   2 1333.67   33.10
   1  -6   2 1363.36   27.80
   1  -6   2 1315.67   34.40
   1  -6   2 1362.06   35.80
  -2   6  -2  325.67   14.90
  -2   6  -2  330.17   14.70
  -2   6  -2  339.37   14.30
  -2   6  -2  320.27   11.70
   2  -6   2  326.47   12.20
   2  -6   2  338.87   11.60
   2  -6   2  297.87   21.00
   2  -6   2  323.67   14.90
  -3   6  -2 2153.18   50.69
  -3   6  -2 2226.88   51.49
  -3   6  -2 2294.07   47.90
   3  -6   2 2281.57   44.20
   3  -6   2 2291.17   52.39
   3  -6   2 2246.38   46.50
   3  -6   2 2282.87   52.69
  -4   6  -2  770.52   26.00
  -4   6  -2  805.82   30.10
  -4   6  -2  786.42   24.20
  -4   6  -2  763.22   27.20
   4  -6   2  754.02   22.50
   4  -6   2  762.02   26.80
   4  -6   2  784.22   23.40
   4  -6   2  779.52   17.40
  -5   6  -2    2.90    2.10
  -5   6  -2    5.00    2.40
   5  -6   2    3.80    1.50
   5  -6   2    4.40    2.80
   5  -6   2    1.80    1.50
   5  -6   2    4.50    2.30
  -6   6  -2  156.88   11.50
  -6   6  -2  137.79   11.10
   6  -6   2  142.69    7.80
   6  -6   2  132.69   10.20
   6  -6   2  129.49   11.20
   6  -6   2  137.19   11.80
  -7   6  -2  421.66   20.90
  -7   6  -2  421.26   20.80
   7  -6   2  427.76   21.30
   7  -6   2  396.96   21.60
   7  -6   2  410.56   22.70
   7  -6   2  418.96   20.00
  -8   6  -2   -0.80    2.40
  -8   6  -2    0.70    2.30
   8  -6   2   -1.30    2.00
   8  -6   2   -0.50    2.30
   8  -6   2   -1.70    2.10
   8  -6   2    2.10    3.00
  -9   6  -2   49.60    8.20
  -9   6  -2   32.30    7.40
   9  -6   2   43.70    8.30
   9  -6   2   45.30    7.40
   9  -6   2   45.20    8.80
   9  -6   2   42.30    8.90
 -10  -5   2    9.00    3.30
 -10  -5   2    9.60    3.30
 -10  -5   2    7.80    3.20
 -10  -5   2    2.40    2.60
  -9  -5   2   15.50    4.30
  -9  -5   2   14.40    4.10
  -9  -5   2   32.80    5.30
  -9  -5   2   20.80    4.50
   8   5  -2  307.67   18.80
   8   5  -2  359.46   19.50
  -8  -5   2  345.07   16.30
  -8  -5   2  345.87   17.20
  -8  -5   2  336.67   14.10
  -8  -5   2  338.27   15.60
   7   5  -2  136.79   11.10
   7   5  -2  145.89   11.40
   7   5  -2  145.89   11.60
  -7  -5   2  139.09    6.00
  -7  -5   2  135.79    9.10
  -7  -5   2  137.39    8.00
  -7  -5   2  160.18   10.30
  -7  -5   2  157.38   11.40
   6   5  -2   65.09    6.70
   6   5  -2   56.09    7.20
   6   5  -2   68.59    7.60
   6   5  -2   63.69    7.30
  -6  -5   2   69.29    6.10
  -6  -5   2   63.69    4.80
  -6  -5   2   73.39    7.10
  -6  -5   2   66.99    7.30
  -6  -5   2   58.49    5.90
  -6  -5   2   65.59    4.50
   5   5  -2  117.99    8.20
   5   5  -2  102.59    8.70
   5   5  -2  109.29    8.70
   5   5  -2  110.09    9.00
  -5  -5   2  106.59    8.30
  -5  -5   2  114.79    9.90
  -5  -5   2  125.19    7.60
  -5  -5   2  109.39    5.20
  -5  -5   2  119.59    7.50
  -5  -5   2  134.99   10.40
  -5  -5   2  112.69    8.00
  -5  -5   2  117.09    6.40
   4   5  -2  143.39    9.20
   4   5  -2  124.39    9.10
   4   5  -2  151.48    8.40
   4   5  -2  145.09    9.50
  -4  -5   2  148.89    8.00
  -4  -5   2  137.29   10.20
  -4  -5   2  139.09    7.50
  -4  -5   2  129.29    7.70
  -4  -5   2  136.19    4.30
  -4  -5   2  143.19   11.90
  -4  -5   2  144.69   10.00
  -4  -5   2  137.49    4.50
   3   5  -2  347.87   12.40
   3   5  -2  369.86   14.10
   3   5  -2  352.86   14.80
   3   5  -2  366.86   12.60
   3   5  -2  369.26   14.60
  -3  -5   2  343.07   14.10
  -3  -5   2  353.66   12.60
  -3  -5   2  341.07   12.90
  -3  -5   2  358.76   11.90
  -3  -5   2  335.27   15.50
   2   5  -2 4104.69   77.79
   2   5  -2 4073.99   73.59
   2   5  -2 4126.79   74.89
   2   5  -2 4198.48   78.89
   2   5  -2 4125.09   76.49
  -2  -5   2 4180.38   71.59
  -2  -5   2 4241.98   75.99
  -2  -5   2 4196.98   78.29
  -2  -5   2 3944.21   75.89
  -2  -5   2 3932.81   70.39
  -2  -5   2 4111.19   80.49
   1   5  -2  137.89    6.50
   1   5  -2  134.59    7.20
   1   5  -2  123.99    7.80
   1   5  -2  133.29    6.00
  -1  -5   2  128.59    6.20
  -1  -5   2  129.09    7.50
  -1  -5   2  138.79    8.60
  -1  -5   2  129.99    7.60
   0   5  -2  817.52   16.70
   0   5  -2  833.32   22.20
   0   5  -2  832.12   20.60
   0   5  -2  847.22   23.00
   0  -5   2  843.62   23.10
   0  -5   2  841.42   21.20
   0  -5   2  837.52   23.10
   0  -5   2  827.82   23.00
   0  -5   2  805.12   16.90
  -1   5  -2 1277.67   26.50
  -1   5  -2 1265.67   31.30
  -1   5  -2 1267.07   29.90
  -1   5  -2 1263.07   31.20
  -1   5  -2 1311.37   30.80
   1  -5   2 1299.47   31.80
   1  -5   2 1285.97   32.40
   1  -5   2 1300.87   25.70
   1  -5   2 1264.77   30.40
   1  -5   2 1305.87   29.80
  -2   5  -2 5902.01  114.49
  -2   5  -2 5851.51  108.59
  -2   5  -2 6068.39  103.79
  -2   5  -2 5931.71  107.09
   2  -5   2 5910.91  102.09
   2  -5   2 5686.63  108.29
   2  -5   2 5970.00  108.19
   2  -5   2 6059.29  103.19
  -3   5  -2   24.10    3.90
  -3   5  -2   29.10    3.90
  -3   5  -2   24.70    4.20
  -3   5  -2   24.00    3.90
   3  -5   2   21.60    3.80
   3  -5   2   22.90    3.10
   3  -5   2   26.10    2.80
  -4   5  -2 2205.18   48.20
  -4   5  -2 2166.98   49.90
  -4   5  -2 2086.29   49.70
   4  -5   2 2236.88   51.69
   4  -5   2 2123.99   50.59
   4  -5   2 2213.58   47.20
   4  -5   2 2152.18   39.00
   4  -5   2 2208.08   51.19
   4  -5   2 2174.68   44.50
  -5   5  -2  665.23   22.80
  -5   5  -2  612.74   20.90
  -5   5  -2  629.84   24.70
  -5   5  -2  671.13   23.50
   5  -5   2  660.13   24.50
   5  -5   2  624.64   23.40
   5  -5   2  605.24   17.30
   5  -5   2  642.34   23.80
   5  -5   2  631.34   21.70
  -6   5  -2  204.98   12.30
  -6   5  -2  236.58   13.80
  -6   5  -2  226.68   13.60
   6  -5   2  235.68   15.40
   6  -5   2  208.48    8.30
   6  -5   2  226.78   14.30
   6  -5   2  202.58   12.50
   6  -5   2  223.88   13.70
  -7   5  -2   22.40    5.00
  -7   5  -2   30.30    6.00
   7  -5   2   19.50    4.70
   7  -5   2   23.90    6.10
   7  -5   2   23.70    5.20
   7  -5   2   27.10    5.80
  -8   5  -2  603.84   25.70
  -8   5  -2  648.84   29.90
   8  -5   2  678.93   32.70
   8  -5   2  680.83   33.50
   8  -5   2  635.24   26.00
   8  -5   2  697.23   27.70
  -9   5  -2    7.40    3.70
  -9   5  -2   -5.60    2.10
   9  -5   2    2.90    3.00
   9  -5   2    1.80    3.30
   9  -5   2    1.00    2.50
   9  -5   2    4.40    3.10
 -10   5  -2   11.20    4.10
 -10   5  -2   17.30    5.30
  10  -5   2   12.00    5.20
  10  -5   2    4.80    3.00
  10  -5   2    8.80    4.20
  10  -5   2    1.90    3.00
 -10  -4   2  239.88   13.90
 -10  -4   2  240.48   14.30
 -10  -4   2  233.18   14.40
 -10  -4   2  264.07   15.10
  -9  -4   2    2.80    2.30
  -9  -4   2    3.00    2.40
  -9  -4   2    3.50    2.40
  -9  -4   2    4.70    3.00
   8   4  -2  337.07   18.90
   8   4  -2  337.97   18.50
  -8  -4   2  336.77   15.50
  -8  -4   2  348.67   16.40
  -8  -4   2  357.76   15.50
  -8  -4   2  343.17   16.20
   7   4  -2  447.46   19.60
   7   4  -2  428.96   19.70
  -7  -4   2  446.66   19.40
  -7  -4   2  437.96   16.80
  -7  -4   2  433.86   18.00
  -7  -4   2  432.46   18.90
  -7  -4   2  443.46   17.70
   6   4  -2   82.99    7.80
   6   4  -2   64.69    7.40
   6   4  -2   81.99    8.00
   6   4  -2   84.79    7.40
  -6  -4   2   79.39    7.40
  -6  -4   2   72.09    6.00
  -6  -4   2   72.49    7.80
  -6  -4   2   85.39    7.40
  -6  -4   2   81.99    6.00
  -6  -4   2   77.99    7.70
  -6  -4   2   79.89    4.20
  -6  -4   2   82.49    7.40
   5   4  -2    3.10    1.60
   5   4  -2    4.50    2.30
   5   4  -2    4.00    1.90
   5   4  -2    3.00    1.90
  -5  -4   2    2.20    1.70
  -5  -4   2    3.40    1.40
  -5  -4   2    3.40    2.00
  -5  -4   2    4.20    1.80
  -5  -4   2    3.20    1.10
  -5  -4   2    5.40    2.10
  -5  -4   2    3.00    1.50
  -5  -4   2    4.40    1.80
  -5  -4   2    6.80    2.40
  -5  -4   2    2.90    1.50
   4   4  -2 1774.12   41.00
   4   4  -2 1763.02   45.10
   4   4  -2 1687.33   40.20
   4   4  -2 1784.72   38.70
  -4  -4   2 1742.23   34.80
  -4  -4   2 1780.92   38.30
  -4  -4   2 1790.62   41.90
  -4  -4   2 1739.83   36.40
  -4  -4   2 1777.52   39.80
  -4  -4   2 1762.62   43.00
  -4  -4   2 1791.52   34.10
  -4  -4   2 1778.52   37.50
   3   4  -2   15.40    2.70
   3   4  -2   12.00    2.70
   3   4  -2    9.10    1.90
   3   4  -2    7.00    2.10
  -3  -4   2   14.60    1.50
  -3  -4   2    8.40    2.10
  -3  -4   2   14.30    3.40
  -3  -4   2   10.80    2.70
  -3  -4   2   13.20    2.20
  -3  -4   2   14.80    2.30
   2   4  -2  450.85   14.70
   2   4  -2  462.35   15.30
   2   4  -2  453.35   13.20
   2   4  -2  461.95   14.50
   2   4  -2  449.56   12.80
  -2  -4   2  444.36   14.00
  -2  -4   2  472.75   11.90
  -2  -4   2  462.85   15.00
  -2  -4   2  431.76    9.90
  -2  -4   2  441.56   13.10
  -2  -4   2  455.45   16.30
   1   4  -2 1754.72   34.80
   1   4  -2 1792.22   33.20
   1   4  -2 1820.72   35.60
   1   4  -2 1744.63   37.60
  -1  -4   2 1781.82   36.00
  -1  -4   2 1801.72   31.50
  -1  -4   2 1732.73   36.90
  -1  -4   2 1798.02   33.60
  -1  -4   2 1735.23   37.40
  -1  -4   2 1803.62   39.10
   0   4  -2  520.65   13.90
   0   4  -2  500.75   14.60
   0   4  -2  486.45   15.10
   0   4  -2  533.75   11.50
   0  -4   2  501.75   15.80
   0  -4   2  492.85   13.90
   0  -4   2  504.05   10.40
   0  -4   2  488.85   15.40
   0  -4   2  510.95   15.30
  -1   4  -2   79.09    5.30
  -1   4  -2   74.99    5.40
  -1   4  -2   71.89    5.40
  -1   4  -2   59.89    4.60
  -1   4  -2   65.59    3.90
   1  -4   2   64.09    3.40
   1  -4   2   70.59    4.80
   1  -4   2   71.89    5.40
   1  -4   2   68.89    5.10
  -2   4  -2 5393.76   94.09
  -2   4  -2 5350.06   98.09
  -2   4  -2 5263.97   96.99
  -2   4  -2 5364.26   96.69
   2  -4   2 5337.77   97.59
   2  -4   2 5413.26   92.49
   2  -4   2 5474.95   92.79
   2  -4   2 5376.96   97.39
  -3   4  -2   86.69    6.20
  -3   4  -2   92.79    6.80
  -3   4  -2   76.09    6.60
  -3   4  -2   76.49    6.20
  -3   4  -2   71.79    6.10
   3  -4   2   80.69    5.50
   3  -4   2   85.19    6.80
   3  -4   2   74.49    6.20
   3  -4   2   86.19    7.00
   3  -4   2   90.19    4.40
  -4   4  -2 1454.05   38.00
  -4   4  -2 1421.76   36.30
  -4   4  -2 1492.75   36.30
  -4   4  -2 1383.36   34.70
  -4   4  -2 1433.16   33.70
   4  -4   2 1459.05   41.50
   4  -4   2 1493.95   27.10
   4  -4   2 1514.25   34.70
   4  -4   2 1461.55   37.20
   4  -4   2 1470.15   30.60
   4  -4   2 1462.95   36.50
  -5   4  -2 1114.99   31.20
  -5   4  -2 1111.09   29.90
  -5   4  -2 1082.69   31.60
  -5   4  -2 1146.79   31.30
  -5   4  -2 1078.99   33.30
   5  -4   2 1101.69   34.40
   5  -4   2 1144.39   32.80
   5  -4   2 1104.09   36.10
   5  -4   2 1102.09   31.70
   5  -4   2 1125.39   23.80
  -6   4  -2 2092.79   50.09
  -6   4  -2 2136.79   50.99
  -6   4  -2 2062.19   49.30
   6  -4   2 2112.49   52.69
   6  -4   2 2168.28   50.69
   6  -4   2 2106.99   38.00
   6  -4   2 2198.38   51.09
   6  -4   2 2142.99   53.89
   6  -4   2 2018.90   50.29
  -7   4  -2  193.48   13.20
  -7   4  -2  188.68   12.40
   7  -4   2  181.68   12.30
   7  -4   2  190.18   12.80
   7  -4   2  192.98   13.50
   7  -4   2  227.08   15.30
  -8   4  -2  607.04   25.80
  -8   4  -2  571.94   23.90
   8  -4   2  624.84   24.30
   8  -4   2  626.94   27.80
   8  -4   2  649.14   26.40
   8  -4   2  619.74   26.60
  -9   4  -2  139.99   14.90
  -9   4  -2  145.99   13.10
   9  -4   2  134.99   12.60
   9  -4   2  156.78   13.40
   9  -4   2  131.29   13.20
   9  -4   2  138.29   11.40
 -10   4  -2   38.70    7.60
 -10   4  -2   29.50    6.40
  10  -4   2   36.80    7.00
  10  -4   2   39.70    8.30
  10  -4   2   43.70    7.90
  10  -4   2   15.80    5.20
 -10  -3   2  129.59   11.00
 -10  -3   2  129.59   10.80
 -10  -3   2  117.79    8.90
 -10  -3   2  120.59    9.20
 -10  -3   2  144.89   11.40
  -9  -3   2  160.58    8.00
  -9  -3   2  189.88   12.10
  -9  -3   2  177.78   11.20
  -9  -3   2  202.78   12.80
  -9  -3   2  182.88   12.20
  -8  -3   2   42.20    5.90
  -8  -3   2   37.60    5.30
  -8  -3   2   34.40    5.50
  -8  -3   2   42.50    5.80
   7   3  -2  512.25   21.20
   7   3  -2  550.04   22.10
  -7  -3   2  520.15   13.50
  -7  -3   2  528.65   19.00
  -7  -3   2  505.85   20.90
  -7  -3   2  502.55   21.20
  -7  -3   2  576.44   19.80
  -7  -3   2  535.65   22.10
  -7  -3   2  525.25   19.70
  -7  -3   2  510.35   22.30
  -7  -3   2  504.05   22.00
   6   3  -2 1077.79   29.80
   6   3  -2 1050.19   30.60
   6   3  -2 1063.29   30.80
   6   3  -2 1054.79   30.10
  -6  -3   2 1007.80   28.50
  -6  -3   2  949.31   28.20
  -6  -3   2 1038.70   28.90
  -6  -3   2  998.30   29.50
  -6  -3   2 1013.70   30.40
  -6  -3   2  995.40   20.50
  -6  -3   2  980.70   28.40
  -6  -3   2 1043.90   26.60
  -6  -3   2 1059.59   27.50
  -6  -3   2 1058.19   29.50
   5   3  -2  190.98   10.80
   5   3  -2  197.28   11.00
   5   3  -2  200.18   11.00
   5   3  -2  191.18   10.10
  -5  -3   2  189.88   11.10
  -5  -3   2  199.68    9.10
  -5  -3   2  180.78    8.50
  -5  -3   2  184.08   10.60
  -5  -3   2  196.08   10.30
  -5  -3   2  191.48    5.80
  -5  -3   2  197.28    9.70
  -5  -3   2  190.08   10.20
  -5  -3   2  192.48   10.10
  -5  -3   2  185.38   10.00
   4   3  -2    4.20    1.70
   4   3  -2    4.90    1.90
   4   3  -2    0.70    1.10
   4   3  -2    2.30    1.10
  -4  -3   2    1.20    1.30
  -4  -3   2    1.40    1.00
  -4  -3   2    6.60    2.00
  -4  -3   2    1.50    1.10
  -4  -3   2    3.70    1.30
  -4  -3   2    0.80    1.00
  -4  -3   2    6.50    2.10
  -4  -3   2    3.70    1.50
  -4  -3   2    3.90    1.80
  -4  -3   2    5.60    1.20
   3   3  -2  652.03   18.90
   3   3  -2  655.53   18.60
   3   3  -2  661.13   17.80
   3   3  -2  637.94   18.50
  -3  -3   2  642.64   18.90
  -3  -3   2  654.13   15.60
  -3  -3   2  636.44   16.90
  -3  -3   2  652.73   18.00
  -3  -3   2  624.24   19.70
  -3  -3   2  656.03   16.90
   2   3  -2   12.90    1.70
   2   3  -2   13.40    2.40
   2   3  -2    7.30    1.80
   2   3  -2   11.50    2.00
  -2  -3   2   12.30    1.70
  -2  -3   2   12.10    1.20
  -2  -3   2   13.80    2.30
  -2  -3   2   13.00    1.70
  -2  -3   2   11.60    2.40
   1   3  -2  285.67    9.20
   1   3  -2  295.37    8.70
   1   3  -2  300.17    7.60
  -1  -3   2  308.47   10.30
  -1  -3   2  286.37    8.80
  -1  -3   2  303.67    6.90
  -1  -3   2  330.27   11.80
  -1  -3   2  282.17    7.60
  -1  -3   2  306.67    6.90
   0   3  -2  119.59    5.90
   0   3  -2  118.99    4.30
   0   3  -2  109.89    5.30
   0   3  -2  117.49    5.20
   0  -3   2  126.09    6.40
   0  -3   2  121.59    6.20
   0  -3   2  120.99    5.80
   0  -3   2  123.69    4.50
   0  -3   2  110.49    5.10
  -1   3  -2 2794.62   51.49
  -1   3  -2 2700.53   52.19
  -1   3  -2 2716.53   51.99
  -1   3  -2 2770.92   49.30
  -1   3  -2 2771.22   50.79
   1  -3   2 2663.53   51.29
   1  -3   2 2818.32   49.90
   1  -3   2 2791.22   47.30
  -2   3  -2  241.38    9.80
  -2   3  -2  248.18    8.10
  -2   3  -2  260.37   11.50
  -2   3  -2  236.88    9.80
  -2   3  -2  240.88    9.10
   2  -3   2  233.78   10.40
   2  -3   2  245.78    9.30
   2  -3   2  221.88    9.70
   2  -3   2  237.38   10.00
   2  -3   2  245.48    8.30
  -3   3  -2  422.46   14.10
  -3   3  -2  432.46   13.30
  -3   3  -2  417.96   14.80
  -3   3  -2  421.06   14.50
   3  -3   2  403.36   14.90
   3  -3   2  424.46   15.30
   3  -3   2  433.16   13.60
   3  -3   2  427.16   14.80
  -4   3  -2 1715.13   40.00
  -4   3  -2 1736.63   38.20
  -4   3  -2 1753.52   39.30
  -4   3  -2 1736.03   39.30
   4  -3   2 1750.52   38.60
   4  -3   2 1732.23   40.00
   4  -3   2 1743.93   32.60
   4  -3   2 1704.93   39.30
   4  -3   2 1730.93   40.60
  -5   3  -2    2.50    1.60
  -5   3  -2   -0.20    0.90
  -5   3  -2   -0.40    1.20
  -5   3  -2    2.70    1.50
   5  -3   2    3.30    1.70
   5  -3   2   -0.20    1.20
   5  -3   2    0.30    0.90
   5  -3   2    1.10    1.20
   5  -3   2    2.10    0.70
   5  -3   2    0.90    0.60
   5  -3   2    0.00    1.20
  -6   3  -2 2057.29   53.29
  -6   3  -2 2126.69   49.70
  -6   3  -2 2064.79   47.70
  -6   3  -2 2026.40   49.40
   6  -3   2 2038.00   49.90
   6  -3   2 2124.29   48.20
   6  -3   2 2081.39   49.00
   6  -3   2 2107.49   52.09
   6  -3   2 1964.30   48.70
  -7   3  -2 1261.87   37.00
  -7   3  -2 1284.27   35.30
   7  -3   2 1222.98   35.40
   7  -3   2 1262.27   37.50
   7  -3   2 1258.37   34.80
   7  -3   2 1265.87   39.00
   7  -3   2 1261.67   37.00
  -8   3  -2  211.48   13.20
  -8   3  -2  215.18   14.40
   8  -3   2  208.98   14.20
   8  -3   2  203.78   14.90
   8  -3   2  179.58   13.20
   8  -3   2  211.48   12.80
  -9   3  -2  120.19   10.50
  -9   3  -2  107.59    8.50
  -9   3  -2   98.99   10.40
   9  -3   2   98.39   12.50
   9  -3   2  112.69   17.90
   9  -3   2  117.09    9.80
   9  -3   2  108.99   11.10
 -10   3  -2  500.75   23.00
 -10   3  -2  485.95   25.00
  10  -3   2  502.35   26.80
  10  -3   2  485.45   24.60
  10  -3   2  495.95   25.60
  10  -3   2  488.95   21.40
 -11   3  -2   10.50    4.90
 -11   3  -2    7.60    3.80
  11  -3   2   11.90    4.50
  11  -3   2    7.10    4.70
 -11  -2   2   91.69    7.20
 -11  -2   2   88.59    9.70
 -11  -2   2   93.89   10.60
 -11  -2   2   83.29    9.50
 -10  -2   2    3.10    3.00
 -10  -2   2    3.80    2.50
 -10  -2   2    5.50    3.20
 -10  -2   2   -1.00    2.80
 -10  -2   2   -1.30    2.30
   9   2  -2  453.95   21.20
   9   2  -2  488.55   23.40
  -9  -2   2  499.65   21.70
  -9  -2   2  487.45   20.50
  -9  -2   2  478.75   17.60
  -9  -2   2  460.85   16.20
  -9  -2   2  479.95   20.80
   8   2  -2   13.80    4.10
   8   2  -2    6.50    3.00
  -8  -2   2    9.20    3.10
  -8  -2   2   14.20    3.80
  -8  -2   2   11.30    2.50
  -8  -2   2    8.10    2.90
  -8  -2   2   18.80    4.50
  -8  -2   2    7.10    2.80
   7   2  -2  130.29    9.70
   7   2  -2  143.89   10.70
   7   2  -2  130.99   10.60
  -7  -2   2  125.49    9.40
  -7  -2   2  133.19    6.80
  -7  -2   2  137.19    8.60
  -7  -2   2  146.89   10.60
  -7  -2   2  155.28   12.80
  -7  -2   2  155.88   10.10
  -7  -2   2  145.69    9.90
  -7  -2   2  137.99    9.50
   6   2  -2   95.39    8.00
   6   2  -2   84.89    7.60
   6   2  -2   94.59    7.50
   6   2  -2   82.99    7.70
   6   2  -2   87.29    7.80
  -6  -2   2   73.89    6.20
  -6  -2   2   85.89    4.90
  -6  -2   2   81.99    6.80
  -6  -2   2   89.09    7.60
  -6  -2   2   86.39    7.40
  -6  -2   2   79.09    6.70
  -6  -2   2   93.39    7.80
  -6  -2   2   85.29    6.50
  -6  -2   2   89.29    7.10
  -6  -2   2   97.09    7.70
   5   2  -2 2926.71   59.29
   5   2  -2 2796.82   59.99
   5   2  -2 2861.11   60.09
   5   2  -2 2770.52   60.29
  -5  -2   2 2912.81   50.99
  -5  -2   2 2880.81   58.09
  -5  -2   2 2987.60   55.79
  -5  -2   2 2929.21   59.29
  -5  -2   2 2921.41   59.39
  -5  -2   2 2881.61   59.79
  -5  -2   2 2873.31   57.69
  -5  -2   2 2848.42   57.99
  -5  -2   2 2883.91   58.69
  -5  -2   2 3012.00   58.69
  -5  -2   2 2896.81   57.09
   4   2  -2  183.68    9.40
   4   2  -2  202.88    9.50
   4   2  -2  219.58   10.20
   4   2  -2  200.98    9.40
   4   2  -2  187.28    9.30
  -4  -2   2  206.88    7.90
  -4  -2   2  202.38    9.10
  -4  -2   2  193.18    9.20
  -4  -2   2  195.88    9.00
  -4  -2   2  190.68    9.90
  -4  -2   2  210.28    9.50
  -4  -2   2  218.48    9.70
  -4  -2   2  192.28    5.50
  -4  -2   2  199.38    9.50
   3   2  -2 2634.94   51.39
   3   2  -2 2638.74   52.09
   3   2  -2 2685.33   52.49
   3   2  -2 2648.83   50.39
   3   2  -2 2565.94   51.49
  -3  -2   2 2757.32   51.59
  -3  -2   2 2819.52   50.99
  -3  -2   2 2659.23   47.60
  -3  -2   2 2650.03   50.79
  -3  -2   2 2721.43   53.49
  -3  -2   2 2719.93   51.69
  -3  -2   2 2747.93   50.89
  -3  -2   2 2694.13   51.69
  -3  -2   2 2802.62   52.29
   2   2  -2 4196.68   74.79
   2   2  -2 4207.28   75.19
   2   2  -2 4336.57   73.09
   2   2  -2 4232.88   75.99
  -2  -2   2 4381.36   77.49
  -2  -2   2 4272.97   75.69
  -2  -2   2 4301.97   73.19
  -2  -2   2 4303.27   77.39
   1   2  -2  383.86    8.10
   1   2  -2  391.36    8.70
   1   2  -2  363.76   10.30
   1   2  -2  379.96   10.60
   1   2  -2  379.56    8.00
  -1  -2   2  387.86    8.10
  -1  -2   2  381.46    8.70
  -1  -2   2  389.76    8.80
  -1  -2   2  383.76   11.00
   0   2  -2 1557.84   30.90
   0   2  -2 1639.74   29.20
   0   2  -2 1682.03   30.30
   0   2  -2 1612.74   30.00
   0  -2   2 1620.34   30.00
   0  -2   2 1607.14   31.00
   0  -2   2 1624.14   29.30
   0  -2   2 1618.34   31.90
  -2   2  -2    4.10    0.90
  -2   2  -2    3.10    1.10
  -2   2  -2    1.90    0.90
   2  -2   2    0.80    0.80
   2  -2   2    1.70    0.90
   2  -2   2    2.50    1.00
   2  -2   2    9.00    1.70
   2  -2   2    2.70    0.80
  -3   2  -2  688.53   18.30
  -3   2  -2  681.63   18.60
  -3   2  -2  663.23   18.90
  -3   2  -2  699.93   18.10
   3  -2   2  662.43   18.40
   3  -2   2  670.93   17.80
   3  -2   2  682.93   18.90
   3  -2   2  673.43   19.40
  -4   2  -2 7146.19  123.99
  -4   2  -2 7018.80  125.79
  -4   2  -2 7135.39  125.29
  -4   2  -2 7248.57  124.99
   4  -2   2 7068.39  117.99
   4  -2   2 7023.00  124.79
   4  -2   2 7135.09  124.69
   4  -2   2 6832.72  125.79
   4  -2   2 7239.28  128.09
   4  -2   2 7212.08  124.39
  -5   2  -2  388.56   15.50
  -5   2  -2  358.06   13.90
  -5   2  -2  354.26   14.70
  -5   2  -2  359.96   15.00
   5  -2   2  383.96   15.30
   5  -2   2  378.66   14.50
   5  -2   2  368.56   16.30
   5  -2   2  359.56   14.30
   5  -2   2  386.46   10.50
   5  -2   2  357.76   15.30
  -6   2  -2  588.24   21.40
  -6   2  -2  595.84   21.50
  -6   2  -2  599.04   21.60
  -6   2  -2  610.74   20.10
   6  -2   2  604.34   21.90
   6  -2   2  584.84   20.10
   6  -2   2  590.34   21.70
   6  -2   2  611.34   23.10
   6  -2   2  610.64   20.30
   6  -2   2  607.84   15.00
  -7   2  -2  817.32   28.60
  -7   2  -2  845.52   26.00
  -7   2  -2  807.52   27.80
   7  -2   2  847.62   19.50
   7  -2   2  882.01   26.20
   7  -2   2  857.51   28.20
   7  -2   2  840.02   28.60
   7  -2   2  807.42   29.40
  -8   2  -2  408.46   17.80
  -8   2  -2  394.86   19.60
  -8   2  -2  403.46   15.30
   8  -2   2  398.36   19.30
   8  -2   2  384.46   19.60
   8  -2   2  403.16   20.70
   8  -2   2  406.96   18.20
   8  -2   2  388.96   11.80
   8  -2   2  399.66   17.20
  -9   2  -2   10.00    3.40
  -9   2  -2    8.70    5.60
  -9   2  -2    3.70    2.70
   9  -2   2    7.40    3.10
   9  -2   2    7.30    3.20
   9  -2   2    4.40    3.10
   9  -2   2    9.50    3.70
 -10   2  -2  241.08   17.00
 -10   2  -2  245.68   15.00
  10  -2   2  270.47   14.70
  10  -2   2  265.97   18.30
 -11   2  -2   53.49    9.50
 -11   2  -2   57.59    7.90
  11  -2   2   64.29    7.60
  11  -2   2   41.40    8.90
  11   1  -2   78.79   10.20
 -11  -1   2   81.39    5.90
 -11  -1   2   97.89   10.40
 -11  -1   2   80.89    9.70
 -11  -1   2   78.49   10.10
  10   1  -2   -0.60    2.40
  10   1  -2    1.40    2.90
 -10  -1   2   -1.30    1.80
 -10  -1   2   -2.10    1.60
 -10  -1   2   -0.20    2.00
 -10  -1   2   -1.50    2.50
   9   1  -2  133.39   10.90
   9   1  -2  163.08   13.40
  -9  -1   2  150.28    8.80
  -9  -1   2  153.58   11.50
  -9  -1   2  126.39    8.90
  -9  -1   2  140.89   11.70
  -9  -1   2  139.79   10.50
   8   1  -2  111.79    9.60
   8   1  -2  108.89   10.40
  -8  -1   2  119.79   10.30
  -8  -1   2  108.49    9.00
  -8  -1   2  118.09    7.70
  -8  -1   2  106.79    9.70
  -8  -1   2  125.09    7.80
  -8  -1   2  134.49   10.30
   7   1  -2 1323.87   37.80
   7   1  -2 1335.17   35.80
   7   1  -2 1341.47   31.40
  -7  -1   2 1347.37   32.00
  -7  -1   2 1368.96   31.30
  -7  -1   2 1364.76   37.10
  -7  -1   2 1338.57   35.10
  -7  -1   2 1304.67   37.40
  -7  -1   2 1368.56   35.10
  -7  -1   2 1342.77   37.00
  -7  -1   2 1448.96   37.50
  -7  -1   2 1329.67   35.80
   6   1  -2   82.29    7.50
   6   1  -2   77.59    7.30
   6   1  -2   90.29    5.70
   6   1  -2   88.09    7.70
   6   1  -2   95.59    7.40
  -6  -1   2   78.69    5.90
  -6  -1   2   88.69    6.90
  -6  -1   2   79.19    6.90
  -6  -1   2   76.49    6.70
  -6  -1   2   85.19    6.80
  -6  -1   2   81.29    6.70
  -6  -1   2   83.49    5.40
  -6  -1   2   82.79    6.90
  -6  -1   2   84.39    7.40
   5   1  -2 2993.00   61.09
   5   1  -2 3036.10   61.39
   5   1  -2 2976.30   54.69
   5   1  -2 3012.80   59.09
   5   1  -2 2948.70   60.59
  -5  -1   2 2981.60   54.49
  -5  -1   2 3107.39   61.29
  -5  -1   2 3043.30   59.79
  -5  -1   2 2966.10   59.69
  -5  -1   2 2970.10   59.49
  -5  -1   2 3016.80   59.99
  -5  -1   2 3003.00   57.59
  -5  -1   2 2982.30   59.39
  -5  -1   2 2984.00   59.99
  -5  -1   2 2921.41   59.19
   4   1  -2  326.07   12.40
   4   1  -2  332.07   12.70
   4   1  -2  332.97   12.80
   4   1  -2  345.87   12.80
   4   1  -2  334.07    9.40
   4   1  -2  341.97   11.70
  -4  -1   2  337.27   11.50
  -4  -1   2  339.67   12.20
  -4  -1   2  336.17    9.30
  -4  -1   2  328.37   11.90
  -4  -1   2  350.66   12.20
  -4  -1   2  326.87   12.40
  -4  -1   2  330.47   12.10
  -4  -1   2  334.37   12.30
  -4  -1   2  335.67   12.50
  -4  -1   2  342.17   12.50
   3   1  -2 4000.80   71.39
   3   1  -2 3940.61   71.79
   3   1  -2 3962.90   72.09
   3   1  -2 3966.10   71.39
   3   1  -2 3916.81   71.69
   3   1  -2 4017.10   66.49
   3   1  -2 3897.71   69.79
  -3  -1   2 4024.70   72.09
  -3  -1   2 3999.30   71.29
  -3  -1   2 3951.20   70.89
  -3  -1   2 4014.20   72.99
  -3  -1   2 3833.12   70.39
  -3  -1   2 4003.50   70.39
  -3  -1   2 3978.90   66.19
  -3  -1   2 3961.70   71.19
   2   1  -2 1066.49   22.60
   2   1  -2 1070.39   23.00
   2   1  -2 1035.50   22.00
   2   1  -2 1037.60   23.30
   2   1  -2 1044.30   18.70
   2   1  -2 1048.90   22.80
  -2  -1   2 1073.99   22.00
  -2  -1   2 1063.59   23.10
  -2  -1   2 1072.49   22.10
  -2  -1   2 1076.89   23.10
  -2  -1   2 1069.39   21.80
  -2  -1   2 1022.60   22.40
  -2  -1   2 1112.69   18.50
  -2  -1   2 1063.69   22.60
   0   1  -2  173.98    5.30
   0   1  -2  166.98    5.20
   0   1  -2  169.38    5.40
   0   1  -2  164.78    5.80
   0  -1   2  165.08    5.90
   0  -1   2  158.68    5.70
   0  -1   2  172.08    5.40
   0  -1   2  167.98    5.20
  -2   1  -2  932.91   19.90
  -2   1  -2  918.21   20.60
  -2   1  -2  891.21   19.70
  -2   1  -2  867.31   20.80
  -2   1  -2  938.01   21.20
   2  -1   2  906.61   19.90
   2  -1   2  924.41   19.90
   2  -1   2  911.31   21.00
   2  -1   2  894.21   20.50
   2  -1   2  907.81   17.20
   2  -1   2  918.31   21.00
  -3   1  -2  437.16   14.00
  -3   1  -2  484.05   15.10
  -3   1  -2  463.25   13.00
  -3   1  -2  437.86   13.60
   3  -1   2  448.26   13.70
   3  -1   2  439.56   13.70
   3  -1   2  473.05   14.40
   3  -1   2  448.66   13.00
   3  -1   2  466.05   15.10
  -4   1  -2   47.40    4.60
  -4   1  -2   53.49    4.60
  -4   1  -2   48.00    4.70
  -4   1  -2   44.90    3.90
  -4   1  -2   49.30    4.70
   4  -1   2   47.20    4.70
   4  -1   2   53.19    5.10
   4  -1   2   52.49    4.90
   4  -1   2   40.40    4.10
   4  -1   2   45.30    4.60
   4  -1   2   59.19    3.90
  -5   1  -2 3728.53   73.69
  -5   1  -2 3838.02   73.79
  -5   1  -2 3627.24   73.29
  -5   1  -2 3826.92   70.79
  -5   1  -2 3682.03   71.59
   5  -1   2 3861.31   74.29
   5  -1   2 3797.62   73.69
   5  -1   2 3726.63   71.39
   5  -1   2 3664.93   70.49
   5  -1   2 3905.51   67.89
  -6   1  -2   18.60    3.60
  -6   1  -2   21.50    3.50
  -6   1  -2   21.40    4.00
  -6   1  -2   17.80    4.10
   6  -1   2   20.30    4.10
   6  -1   2   17.60    3.20
   6  -1   2   14.40    2.70
   6  -1   2   23.00    3.70
   6  -1   2   11.80    3.20
   6  -1   2   19.90    4.40
  -7   1  -2  232.18   13.40
  -7   1  -2  229.68   13.90
  -7   1  -2  259.57   14.20
  -7   1  -2  242.08   13.90
  -7   1  -2  234.98   11.80
  -7   1  -2  254.57   10.50
   7  -1   2  249.28   14.30
   7  -1   2  250.67   10.30
   7  -1   2  253.87   15.10
   7  -1   2  247.58   13.70
   7  -1   2  259.47   12.40
   7  -1   2  238.98   12.10
  -8   1  -2   68.49    6.90
  -8   1  -2   71.29    6.00
  -8   1  -2   68.79    8.00
   8  -1   2   75.49    5.80
   8  -1   2   70.69    8.80
   8  -1   2   62.09    6.50
   8  -1   2   76.59    7.10
   8  -1   2   62.09    8.10
  -9   1  -2   36.50    5.90
  -9   1  -2   32.50    4.60
  -9   1  -2   23.70    5.60
   9  -1   2   25.40    6.20
   9  -1   2   23.80    3.90
   9  -1   2   27.20    4.80
 -10   1  -2   43.50    7.10
 -10   1  -2   41.90    5.80
 -10   1  -2   40.30    6.20
  10  -1   2   39.20    8.10
  10  -1   2   47.10    6.20
 -11   1  -2  200.48   16.40
 -11   1  -2  205.08   14.10
  11  -1   2  215.08   17.70
  11  -1   2  194.68   12.20
  11   0  -2   45.50    7.90
  11   0  -2   31.70    7.60
 -11   0   2   38.50    7.70
 -11   0   2   20.40    6.00
  10   0  -2  115.09   12.50
  10   0  -2  116.79   11.10
 -10   0   2  111.59    9.30
 -10   0   2  128.29   11.50
 -10   0   2  100.89   11.10
 -10   0   2  120.79    6.90
   9   0  -2   58.29    6.60
   9   0  -2   73.39    9.40
   9   0  -2   63.59    7.70
  -9   0   2   64.99    5.50
  -9   0   2   59.59    8.20
  -9   0   2   55.39    6.60
  -9   0   2   49.50    7.00
  -9   0   2   52.69    6.20
   8   0  -2   51.89    7.30
   8   0  -2   36.90    5.90
   8   0  -2   37.70    5.00
  -8   0   2   38.50    5.10
  -8   0   2   36.80    6.10
  -8   0   2   45.20    4.70
  -8   0   2   37.90    4.90
  -8   0   2   29.70    5.80
   7   0  -2  995.80   26.70
   7   0  -2  989.80   28.70
   7   0  -2 1015.20   31.80
  -7   0   2  889.31   29.90
  -7   0   2  982.90   24.60
  -7   0   2  971.00   26.60
  -7   0   2  993.10   26.30
  -7   0   2 1005.10   28.90
  -7   0   2  964.10   29.30
  -7   0   2 1012.20   30.10
   6   0  -2  140.19    7.90
   6   0  -2  145.59   10.20
   6   0  -2  125.19    8.40
  -6   0   2  131.29    8.70
  -6   0   2  139.09    7.70
  -6   0   2  154.28    9.70
  -6   0   2  142.29    8.90
  -6   0   2  143.19    9.20
  -6   0   2  134.39    9.30
  -6   0   2  155.58    9.60
  -6   0   2  143.39    8.20
  -6   0   2  132.29    7.20
   5   0  -2   32.00    4.30
   5   0  -2   30.20    3.80
   5   0  -2   38.50    3.80
   5   0  -2   29.00    4.30
  -5   0   2   29.00    4.20
  -5   0   2   35.20    4.10
  -5   0   2   29.60    4.00
  -5   0   2   30.30    3.80
  -5   0   2   35.60    4.40
  -5   0   2   30.30    3.60
  -5   0   2   32.60    3.90
  -5   0   2   34.50    3.60
  -5   0   2   34.40    3.40
  -5   0   2   37.00    4.30
   4   0  -2   14.90    2.80
   4   0  -2   14.40    2.90
   4   0  -2   20.60    2.70
   4   0  -2   18.90    2.50
   4   0  -2   15.90    2.20
   4   0  -2   18.60    3.10
  -4   0   2   20.40    3.00
  -4   0   2   19.00    3.00
  -4   0   2   14.70    2.80
  -4   0   2   13.10    2.00
  -4   0   2   17.30    2.80
  -4   0   2   15.90    2.80
  -4   0   2   16.20    2.40
  -4   0   2   20.10    2.70
  -4   0   2   17.40    2.90
  -4   0   2   15.80    2.40
   1   0  -2   36.90    2.10
   1   0  -2   33.40    2.40
   1   0  -2   35.40    1.90
   1   0  -2   35.10    2.60
  -1   0   2   32.10    2.50
  -1   0   2   33.80    1.50
  -1   0   2   33.30    2.30
  -1   0   2   36.10    1.50
  -1   0   2   35.40    1.90
  -1   0   2   37.90    2.60
  -1   0   2   36.80    2.10
   0   0  -2   24.80    1.50
   0   0  -2   22.80    1.80
   0   0   2   24.60    1.90
   0   0   2   26.00    1.90
   0   0   2   24.50    1.60
  -2   0  -2 1910.41   36.00
  -2   0  -2 1889.61   35.60
  -2   0  -2 1836.12   33.10
  -2   0  -2 1787.82   35.40
  -2   0  -2 1764.22   36.10
  -2   0  -2 1880.91   31.90
  -2   0  -2 1836.12   35.20
   2   0   2 1836.62   35.60
   2   0   2 1861.91   31.90
   2   0   2 1844.62   35.50
   2   0   2 1834.42   33.30
  -4   0  -2 1301.47   30.20
  -4   0  -2 1292.47   29.90
  -4   0  -2 1269.47   30.70
  -4   0  -2 1306.07   24.90
  -4   0  -2 1271.47   28.90
  -4   0  -2 1287.57   27.00
   4   0   2 1287.57   28.00
   4   0   2 1332.97   32.00
   4   0   2 1297.57   29.00
   4   0   2 1254.67   27.10
   4   0   2 1282.47   30.40
  -5   0  -2  182.08    8.10
  -5   0  -2  179.18    9.50
  -5   0  -2  209.08    9.50
  -5   0  -2  173.28    9.00
  -5   0  -2  192.88    7.10
  -5   0  -2  190.48   10.40
  -5   0  -2  182.98   10.60
   5   0   2  166.28    8.60
   5   0   2  179.48    8.50
   5   0   2  182.38    8.40
   5   0   2  187.28   10.80
   5   0   2  175.08   10.00
  -6   0  -2   90.09    5.30
  -6   0  -2   81.39    7.90
  -6   0  -2   83.29    6.80
  -6   0  -2   73.59    6.70
  -6   0  -2   97.89    7.70
  -6   0  -2   82.29    6.40
  -6   0  -2   85.59    7.60
  -6   0  -2   92.29    6.20
   6   0   2   89.19    6.20
   6   0   2  100.29    8.50
   6   0   2   94.59    6.60
   6   0   2   75.99    7.20
   6   0   2   91.49    6.30
  -7   0  -2  751.82   21.70
  -7   0  -2  694.33   25.50
  -7   0  -2  703.33   19.20
  -7   0  -2  696.63   24.10
  -7   0  -2  706.83   23.30
  -7   0  -2  744.63   24.90
  -7   0  -2  717.83   24.00
  -7   0  -2  706.13   22.00
   7   0   2  711.23   21.30
   7   0   2  713.53   21.60
   7   0   2  720.43   26.10
   7   0   2  704.93   21.20
  -8   0  -2    5.20    1.80
  -8   0  -2   -0.20    1.60
  -8   0  -2    2.00    1.60
   8   0   2    0.80    1.60
   8   0   2    4.00    2.80
   8   0   2    1.90    1.60
   8   0   2    1.00    1.40
  -9   0  -2  586.44   19.20
  -9   0  -2  644.54   22.30
  -9   0  -2  660.53   26.10
   9   0   2  619.74   21.00
   9   0   2  632.54   27.50
   9   0   2  630.64   21.40
 -10   0  -2    4.80    3.40
 -10   0  -2    5.20    2.80
 -10   0  -2    2.80    2.50
  10   0   2    9.10    4.30
  10   0   2   12.00    3.60
 -11   0  -2    8.20    3.90
 -11   0  -2   15.90    4.40
  11   0   2    5.10    4.30
  11   0   2    6.50    3.00
  11  -1  -2    0.20    3.00
  11  -1  -2    2.20    3.00
 -11   1   2    1.10    2.90
  10  -1  -2   59.09    7.50
  10  -1  -2   66.99    8.60
  10  -1  -2   61.29    9.70
 -10   1   2   67.89   10.60
 -10   1   2   59.69    4.60
 -10   1   2   65.99    6.20
 -10   1   2   58.89    9.50
   9  -1  -2  269.07   15.60
   9  -1  -2  285.17   15.10
   9  -1  -2  318.47   27.10
  -9   1   2  287.67   17.90
  -9   1   2  304.77   17.10
  -9   1   2  252.77   11.80
  -9   1   2  294.07   10.90
   8  -1  -2  322.97   16.10
   8  -1  -2  329.17   15.50
   8  -1  -2  335.07   18.30
   8  -1  -2  335.37    9.50
  -8   1   2  330.17   17.20
  -8   1   2  309.37   17.30
  -8   1   2  322.47   12.80
  -8   1   2  336.27   12.10
  -8   1   2  326.77   15.00
  -8   1   2  335.87   17.10
   7  -1  -2   22.70    4.90
   7  -1  -2   19.20    2.40
   7  -1  -2   25.70    4.60
   7  -1  -2   22.90    4.40
  -7   1   2   21.40    4.50
  -7   1   2   21.70    3.30
  -7   1   2   17.90    3.70
  -7   1   2   23.00    3.30
  -7   1   2   22.60    4.00
   6  -1  -2 2298.27   53.59
   6  -1  -2 2366.86   49.99
   6  -1  -2 2225.58   48.00
   6  -1  -2 2327.57   49.60
   6  -1  -2 2315.17   42.30
  -6   1   2 2371.16   46.10
  -6   1   2 2273.57   50.79
  -6   1   2 2371.76   46.20
  -6   1   2 2274.57   58.09
  -6   1   2 2283.47   50.49
  -6   1   2 2420.46   52.79
  -6   1   2 2292.77   48.60
   5  -1  -2   93.59    9.10
   5  -1  -2  101.19    5.70
   5  -1  -2  109.69    4.70
   5  -1  -2  113.29    7.10
   5  -1  -2  100.99    6.70
  -5   1   2  122.69    7.60
  -5   1   2  109.19    7.20
  -5   1   2  114.79    8.00
  -5   1   2  106.79    6.00
  -5   1   2  106.49    6.60
  -5   1   2  107.99    5.90
  -5   1   2  100.19    7.20
   4  -1  -2   26.70    3.00
   4  -1  -2   25.30    3.10
   4  -1  -2   26.30    3.40
   4  -1  -2   40.70    3.40
   4  -1  -2   25.50    3.70
   4  -1  -2   30.50    3.80
  -4   1   2   32.90    4.00
  -4   1   2   26.80    2.80
  -4   1   2   27.70    3.30
  -4   1   2   25.80    2.80
  -4   1   2   25.70    3.00
  -4   1   2   27.40    3.30
  -4   1   2   26.50    3.40
  -4   1   2   27.30    3.40
   3  -1  -2 5063.29   85.89
   3  -1  -2 4833.02   86.99
   3  -1  -2 4935.91   85.09
   3  -1  -2 4788.02   87.89
   3  -1  -2 4877.51   86.09
   3  -1  -2 4845.42   84.09
  -3   1   2 4964.00   85.29
  -3   1   2 4855.01   87.89
  -3   1   2 4881.41   85.19
  -3   1   2 5043.70   86.49
  -3   1   2 4945.21   86.19
  -3   1   2 5015.90   85.79
   2  -1  -2    9.30    1.70
   2  -1  -2    6.90    1.50
   2  -1  -2   11.50    1.80
   2  -1  -2    9.70    1.20
   2  -1  -2    7.90    1.40
   2  -1  -2    7.60    1.50
  -2   1   2    7.80    1.50
  -2   1   2   10.10    1.60
  -2   1   2    7.70    1.40
  -2   1   2    9.80    1.60
  -2   1   2    8.90    1.50
   1  -1  -2   18.40    1.80
   1  -1  -2   15.00    1.80
   1  -1  -2   18.30    1.60
   1  -1  -2   16.50    1.40
   1  -1  -2   18.00    1.80
  -1   1   2   17.70    2.00
  -1   1   2   17.30    1.70
  -1   1   2   18.00    1.40
   0  -1  -2 1384.16   24.90
   0  -1  -2 1427.46   24.60
   0  -1  -2 1384.06   26.30
   0  -1  -2 1366.06   26.60
   0  -1  -2 1420.66   26.40
   0  -1  -2 1374.76   26.00
   0   1   2 1445.16   26.10
   0   1   2 1292.37   26.50
   0   1   2 1405.36   26.40
   0   1   2 1397.86   26.20
   0   1   2 1406.36   24.50
  -1  -1  -2 3148.78   54.89
   1   1   2 3120.19   54.79
   1   1   2 3067.49   53.69
  -2  -1  -2 1520.45   30.80
  -2  -1  -2 1630.94   31.90
  -2  -1  -2 1626.64   29.60
  -2  -1  -2 1670.13   29.80
  -2  -1  -2 1653.43   33.00
  -2  -1  -2 1603.24   32.70
   2   1   2 1638.14   32.40
   2   1   2 1632.64   27.60
   2   1   2 1543.35   31.20
   2   1   2 1554.84   31.70
   2   1   2 1571.74   29.60
   2   1   2 1666.93   32.90
   2   1   2 1679.73   27.60
  -4  -1  -2 1706.63   36.70
  -4  -1  -2 1737.03   31.10
  -4  -1  -2 1723.53   32.50
  -4  -1  -2 1745.23   37.20
  -4  -1  -2 1731.73   36.10
  -4  -1  -2 1694.83   39.00
  -4  -1  -2 1737.63   38.50
  -4  -1  -2 1756.62   35.80
  -4  -1  -2 1735.63   31.70
  -4  -1  -2 1707.33   36.90
   4   1   2 1731.03   36.00
   4   1   2 1679.63   38.90
   4   1   2 1749.43   37.00
   4   1   2 1817.82   32.90
   4   1   2 1700.43   37.20
  -5  -1  -2   73.59    4.20
  -5  -1  -2   78.29    6.70
  -5  -1  -2   76.49    6.80
  -5  -1  -2   77.19    5.60
  -5  -1  -2   76.69    3.30
  -5  -1  -2   69.79    5.70
  -5  -1  -2   73.59    5.90
  -5  -1  -2   70.79    4.40
  -5  -1  -2   75.49    6.00
  -5  -1  -2   68.89    5.40
   5   1   2   74.89    5.90
   5   1   2   84.19    5.80
   5   1   2   80.69    4.70
  -6  -1  -2  101.59    7.50
  -6  -1  -2  108.69    7.50
  -6  -1  -2  114.69    7.30
  -6  -1  -2   90.19    8.10
  -6  -1  -2  110.49    6.20
  -6  -1  -2   98.49    7.60
  -6  -1  -2  109.49    7.90
  -6  -1  -2  102.69    5.60
  -6  -1  -2  105.69    8.20
  -6  -1  -2   98.99    8.50
   6   1   2  101.29    6.80
   6   1   2  112.59    9.10
   6   1   2  106.19    7.50
  -7  -1  -2  608.84   19.80
  -7  -1  -2  663.03   25.80
  -7  -1  -2  621.14   22.00
  -7  -1  -2  602.64   17.20
  -7  -1  -2  607.44   21.30
  -7  -1  -2  624.44   22.10
  -7  -1  -2  632.84   24.60
  -7  -1  -2  627.14   18.50
   7   1   2  622.94   21.50
   7   1   2  626.14   24.40
   7   1   2  636.94   19.80
  -8  -1  -2   63.89    5.20
  -8  -1  -2   58.09    6.20
  -8  -1  -2   65.19    6.00
  -8  -1  -2   60.49    7.20
  -8  -1  -2   67.49    7.30
   8   1   2   76.39    8.80
   8   1   2   59.99    6.00
   8   1   2   61.99    6.50
  -9  -1  -2   79.99    6.90
  -9  -1  -2   74.19    8.20
  -9  -1  -2   68.19    5.90
   9   1   2   73.59    9.40
   9   1   2   66.09    7.10
   9   1   2   71.49    6.80
 -10  -1  -2  232.18   11.90
 -10  -1  -2  246.58   16.30
 -10  -1  -2  281.67   13.80
  10   1   2  259.47   12.90
  10   1   2  247.18   14.10
  10   1   2  262.67   18.40
 -11  -1  -2   68.69    9.70
 -11  -1  -2   75.59   10.80
 -11  -1  -2   71.29    7.30
  11   1   2   74.09   10.10
  11  -2  -2    8.90    3.60
  11  -2  -2   11.70    3.90
  11  -2  -2   15.10    4.50
 -11   2   2   18.30    5.50
 -11   2   2   17.30    7.00
  10  -2  -2   -1.60    2.40
  10  -2  -2   -0.40    2.50
  10  -2  -2    2.40    2.50
  10  -2  -2   -2.10    1.00
 -10   2   2   -0.20    2.40
 -10   2   2    2.50    2.80
   9  -2  -2   64.69    8.20
   9  -2  -2   76.09    5.40
   9  -2  -2   77.39    9.50
   9  -2  -2   62.29    7.60
  -9   2   2   76.89    9.00
  -9   2   2   74.59    5.20
   8  -2  -2  783.72   26.50
   8  -2  -2  728.33   25.90
   8  -2  -2  717.93   19.30
   8  -2  -2  735.83   29.00
  -8   2   2  747.53   27.50
  -8   2   2  761.52   28.90
  -8   2   2  733.33   18.70
  -8   2   2  750.12   19.90
   7  -2  -2  120.09    6.70
   7  -2  -2  114.29   10.00
   7  -2  -2  113.09    8.80
   7  -2  -2  111.89    6.40
   7  -2  -2  131.09    9.50
  -7   2   2  128.19    9.10
  -7   2   2  127.89    7.00
  -7   2   2  116.09    6.00
  -7   2   2  115.89    9.70
  -7   2   2  128.69   10.20
   6  -2  -2 2307.07   45.30
   6  -2  -2 2263.17   49.70
   6  -2  -2 2142.59   52.19
   6  -2  -2 2410.16   54.59
   6  -2  -2 2311.37   44.70
   6  -2  -2 2287.07   56.19
  -6   2   2 2400.66   55.29
  -6   2   2 2301.27   43.10
  -6   2   2 2147.79   52.09
  -6   2   2 2278.67   49.80
  -6   2   2 2330.17   50.99
  -6   2   2 2306.47   51.49
  -6   2   2 2299.47   52.19
  -6   2   2 2283.07   52.59
  -6   2   2 2282.07   45.40
   5  -2  -2  224.98   11.20
   5  -2  -2  213.68   10.70
   5  -2  -2  213.08   11.80
   5  -2  -2  240.58   10.70
   5  -2  -2  211.78    8.80
   5  -2  -2  225.98    8.70
  -5   2   2  224.68   10.60
  -5   2   2  216.58    7.60
  -5   2   2  207.18   11.30
  -5   2   2  198.88   13.10
  -5   2   2  223.18    9.10
  -5   2   2  222.48   11.30
  -5   2   2  225.08   11.00
  -5   2   2  228.48   10.50
   4  -2  -2  808.42   19.60
   4  -2  -2  750.82   21.40
   4  -2  -2  780.22   22.30
   4  -2  -2  796.22   23.20
   4  -2  -2  775.22   20.30
  -4   2   2  796.52   21.20
  -4   2   2  785.02   22.70
  -4   2   2  786.32   21.50
  -4   2   2  802.92   22.80
  -4   2   2  803.42   20.70
  -4   2   2  791.82   17.20
  -4   2   2  787.12   22.10
  -4   2   2  804.72   19.80
   3  -2  -2   15.10    2.20
   3  -2  -2   12.30    2.50
   3  -2  -2   15.40    2.10
   3  -2  -2   10.50    2.30
   3  -2  -2   13.60    2.40
   3  -2  -2   13.30    2.40
  -3   2   2   25.60    3.00
  -3   2   2   15.30    2.70
  -3   2   2   11.00    2.20
  -3   2   2   13.50    2.10
  -3   2   2   14.00    2.20
  -3   2   2   15.60    2.70
   2  -2  -2 1742.03   33.90
   2  -2  -2 1710.93   35.30
   2  -2  -2 1785.82   36.00
   2  -2  -2 1653.83   34.60
   2  -2  -2 1745.53   35.30
   2  -2  -2 1739.33   34.20
  -2   2   2 1686.73   34.60
  -2   2   2 1738.03   35.50
  -2   2   2 1770.42   33.70
  -2   2   2 1712.03   34.50
  -2   2   2 1759.62   34.40
  -2   2   2 1710.53   32.10
   1  -2  -2   46.70    2.80
   1  -2  -2   53.09    3.60
   1  -2  -2   51.89    2.30
   1  -2  -2   51.79    3.70
  -1   2   2   51.39    2.20
  -1   2   2   49.50    3.50
  -1   2   2   53.79    3.60
  -1   2   2   50.99    3.50
  -1   2   2   46.30    2.70
  -1  -2  -2  308.47    9.80
  -1  -2  -2  310.87    8.60
  -1  -2  -2  312.67    9.50
  -1  -2  -2  296.97    9.30
  -1  -2  -2  304.97    9.60
   1   2   2  300.17    9.40
   1   2   2  306.67    7.30
   1   2   2  312.97    9.80
   1   2   2  306.37    6.70
   1   2   2  302.07    8.40
   1   2   2  296.27    9.30
   1   2   2  312.77   10.10
  -2  -2  -2  567.84   14.00
  -2  -2  -2  588.24   13.40
  -2  -2  -2  560.44   14.90
  -2  -2  -2  578.94   12.90
  -2  -2  -2  554.84   13.60
  -2  -2  -2  571.94   15.50
  -2  -2  -2  563.54   15.60
   2   2   2  538.75   15.70
   2   2   2  568.34   12.30
   2   2   2  576.44   15.70
   2   2   2  568.14   13.80
   2   2   2  554.64   13.00
   2   2   2  558.24   15.60
   2   2   2  551.04   14.80
  -3  -2  -2  339.27   13.70
  -3  -2  -2  306.67   10.60
  -3  -2  -2  286.47    9.80
  -3  -2  -2  307.17   11.90
  -3  -2  -2  303.57    9.40
  -3  -2  -2  323.97    8.40
  -3  -2  -2  318.47   10.30
  -3  -2  -2  316.17    9.70
   3   2   2  283.97   11.30
   3   2   2  310.37   11.90
   3   2   2  300.87    8.40
   3   2   2  309.77   10.70
   3   2   2  329.77   10.20
   3   2   2  287.17   10.00
  -4  -2  -2  691.03   15.60
  -4  -2  -2  689.43   18.20
  -4  -2  -2  685.73   20.70
  -4  -2  -2  724.03   21.60
  -4  -2  -2  684.43   16.40
  -4  -2  -2  696.13   18.80
  -4  -2  -2  690.23   14.00
  -4  -2  -2  725.63   19.30
  -4  -2  -2  667.73   18.80
  -4  -2  -2  682.33   19.90
  -4  -2  -2  682.33   18.30
  -4  -2  -2  677.53   20.50
   4   2   2  692.63   19.10
   4   2   2  692.93   16.10
   4   2   2  684.43   21.00
   4   2   2  716.53   18.80
   4   2   2  672.83   20.20
  -5  -2  -2  456.85   15.80
  -5  -2  -2  462.15   15.10
  -5  -2  -2  456.85   15.50
  -5  -2  -2  444.36   11.50
  -5  -2  -2  434.36   17.60
  -5  -2  -2  444.96   15.10
  -5  -2  -2  457.15   12.50
  -5  -2  -2  440.76   15.20
  -5  -2  -2  463.35   17.30
  -5  -2  -2  458.85   15.20
  -5  -2  -2  450.55   16.20
  -5  -2  -2  455.25   17.30
  -5  -2  -2  450.95   12.30
   5   2   2  443.96   18.70
   5   2   2  457.85   14.80
   5   2   2  460.45   15.90
   5   2   2  431.06   16.20
  -6  -2  -2  771.72   17.80
  -6  -2  -2  783.12   18.50
  -6  -2  -2  763.12   21.90
  -6  -2  -2  787.42   24.40
  -6  -2  -2  800.72   23.30
  -6  -2  -2  712.13   22.40
  -6  -2  -2  767.52   22.70
  -6  -2  -2  781.52   25.40
  -6  -2  -2  766.42   23.60
  -6  -2  -2  774.92   23.20
  -6  -2  -2  782.12   19.30
   6   2   2  794.72   21.80
   6   2   2  769.12   25.90
  -7  -2  -2   12.70    3.20
  -7  -2  -2   10.40    3.00
  -7  -2  -2    5.60    2.40
  -7  -2  -2    8.00    2.20
  -7  -2  -2   13.30    3.30
  -7  -2  -2   13.40    2.00
  -7  -2  -2    7.20    3.00
  -7  -2  -2   14.20    2.10
  -7  -2  -2   16.60    2.70
  -7  -2  -2   15.30    2.50
   7   2   2   13.40    3.70
   7   2   2   11.10    2.80
   7   2   2   14.60    4.40
  -8  -2  -2  786.52   28.50
  -8  -2  -2  782.42   21.10
  -8  -2  -2  727.43   24.90
  -8  -2  -2  714.93   16.00
  -8  -2  -2  733.83   22.90
  -8  -2  -2  746.43   21.00
  -8  -2  -2  791.72   26.40
   8   2   2  752.42   25.90
   8   2   2  761.62   29.10
   8   2   2  745.63   22.40
  -9  -2  -2   13.40    4.00
  -9  -2  -2   14.30    3.40
  -9  -2  -2   14.20    3.20
  -9  -2  -2    6.00    2.80
  -9  -2  -2    8.90    2.60
   9   2   2    8.50    3.60
   9   2   2   21.50    4.80
   9   2   2   12.00    2.90
 -10  -2  -2  159.48    9.50
 -10  -2  -2  143.59    9.10
 -10  -2  -2  158.88   13.80
 -10  -2  -2  160.38   12.40
  10   2   2  157.08   12.00
  10   2   2  163.38   14.40
  10   2   2  159.18    9.90
 -11  -2  -2  160.58   13.50
 -11  -2  -2  148.69   14.10
 -11  -2  -2  147.89    9.70
  11   2   2  164.88   15.70
  11  -3  -2   18.10    6.00
  11  -3  -2   21.00    5.50
  11  -3  -2   17.90    6.20
 -11   3   2   27.50    7.00
 -11   3   2   30.80    8.00
  10  -3  -2  152.58   16.90
  10  -3  -2  193.18   14.10
  10  -3  -2  163.78   15.00
 -10   3   2  169.28   14.20
 -10   3   2  173.58   15.50
   9  -3  -2   73.69    8.50
   9  -3  -2   42.20    7.90
   9  -3  -2   67.19    8.10
   9  -3  -2   72.89    6.20
  -9   3   2   66.69    9.70
  -9   3   2   63.49    9.20
   8  -3  -2  359.96   17.60
   8  -3  -2  355.96   17.90
   8  -3  -2  378.96   14.20
   8  -3  -2  347.67   12.40
   8  -3  -2  372.36   20.10
  -8   3   2  359.86   12.80
  -8   3   2  368.96   19.90
  -8   3   2  390.76   19.50
   7  -3  -2  135.09    8.00
   7  -3  -2  137.49   10.60
   7  -3  -2  142.69   10.30
   7  -3  -2  143.59    7.50
   7  -3  -2  135.59   11.30
  -7   3   2  134.99    7.50
  -7   3   2  133.79   10.80
  -7   3   2  138.19   11.00
  -7   3   2  144.59   11.60
   6  -3  -2   32.10    5.20
   6  -3  -2   32.90    4.00
   6  -3  -2   32.20    5.10
   6  -3  -2   31.10    3.60
   6  -3  -2   38.90    5.00
   6  -3  -2   38.10    5.90
  -6   3   2   35.10    5.40
  -6   3   2   30.10    3.60
  -6   3   2   35.20    5.70
  -6   3   2   30.30    4.50
  -6   3   2   33.20    4.90
  -6   3   2   42.00    5.60
   5  -3  -2  630.44   19.80
   5  -3  -2  633.84   21.50
   5  -3  -2  627.94   22.10
   5  -3  -2  598.14   20.90
   5  -3  -2  612.54   17.50
  -5   3   2  606.34   21.10
  -5   3   2  599.24   19.80
  -5   3   2  625.84   21.60
  -5   3   2  609.44   19.00
  -5   3   2  623.64   17.60
  -5   3   2  644.44   20.60
   4  -3  -2 8891.91  151.88
   4  -3  -2 8712.63  150.38
   4  -3  -2 8961.60  154.48
   4  -3  -2 8528.65  154.28
  -4   3   2 8524.15  154.68
  -4   3   2 9020.80  150.68
  -4   3   2 8945.30  153.48
  -4   3   2 8872.71  152.28
  -4   3   2 8980.20  150.28
  -4   3   2 9027.10  155.38
   3  -3  -2  820.32   22.60
   3  -3  -2  793.02   22.10
   3  -3  -2  802.52   23.00
   3  -3  -2  787.22   20.20
   3  -3  -2  810.02   22.30
  -3   3   2  830.72   22.70
  -3   3   2  814.12   22.20
  -3   3   2  824.82   19.30
  -3   3   2  810.32   20.50
  -3   3   2  830.12   20.60
  -3   3   2  818.02   21.70
   2  -3  -2  151.58    7.20
   2  -3  -2  153.38    7.80
   2  -3  -2  152.28    8.10
   2  -3  -2  142.69    7.50
  -2   3   2  150.28    7.20
  -2   3   2  171.58    5.90
  -2   3   2  155.78    7.60
  -2   3   2  161.78    7.90
  -2   3   2  161.08    6.60
   1  -3  -2 5331.47   94.29
   1  -3  -2 5449.75   93.79
   1  -3  -2 5415.26   94.79
  -1   3   2 5545.35   90.29
  -1   3   2 5310.57   93.69
  -1   3   2 5332.27   94.89
  -1   3   2 5282.37   94.49
  -1   3   2 5489.65   88.19
  -1   3   2 5607.74   92.49
   0  -3  -2 4320.27   73.09
   0  -3  -2 4191.78   69.29
   0  -3  -2 3983.40   75.19
   0   3   2 4357.06   75.29
   0   3   2 4210.78   72.89
   0   3   2 4305.87   75.89
   0   3   2 4341.07   75.79
  -1  -3  -2    0.70    0.80
  -1  -3  -2    1.60    1.00
  -1  -3  -2    1.30    0.90
  -1  -3  -2    2.00    0.70
  -1  -3  -2    1.00    0.60
  -1  -3  -2    2.40    0.90
   1   3   2    1.80    0.70
   1   3   2    3.60    0.90
   1   3   2    1.30    0.90
   1   3   2    2.70    0.80
   1   3   2    3.70    1.20
  -2  -3  -2 2168.38   37.30
  -2  -3  -2 2099.59   42.40
  -2  -3  -2 2122.89   43.30
  -2  -3  -2 2122.19   43.60
  -2  -3  -2 2087.39   38.60
  -2  -3  -2 2120.49   39.40
  -2  -3  -2 2194.68   42.30
   2   3   2 2093.29   43.20
   2   3   2 2200.98   39.90
   2   3   2 2184.28   39.90
   2   3   2 2195.28   39.60
  -3  -3  -2  101.39    6.00
  -3  -3  -2   93.89    6.30
  -3  -3  -2   85.59    5.40
  -3  -3  -2   86.19    5.00
  -3  -3  -2   82.49    6.10
  -3  -3  -2   84.59    4.70
  -3  -3  -2   87.59    5.70
  -3  -3  -2   87.99    4.40
  -3  -3  -2   84.69    6.30
   3   3   2   91.29    6.50
   3   3   2   85.99    4.90
   3   3   2   84.09    5.10
   3   3   2   98.29    4.90
   3   3   2   91.29    6.40
  -4  -3  -2  450.55   16.80
  -4  -3  -2  441.36   13.70
  -4  -3  -2  461.05   13.40
  -4  -3  -2  477.75   15.00
  -4  -3  -2  433.06   13.30
  -4  -3  -2  455.75   16.30
  -4  -3  -2  453.25   13.90
  -4  -3  -2  465.15   12.70
  -4  -3  -2  452.15   16.30
  -4  -3  -2  449.76   16.40
  -4  -3  -2  430.96   14.10
   4   3   2  449.16   14.50
   4   3   2  445.66   16.50
   4   3   2  440.16   14.30
   4   3   2  456.25   14.70
   4   3   2  464.05   13.10
  -5  -3  -2    9.50    1.30
  -5  -3  -2    6.80    2.30
  -5  -3  -2   17.20    2.80
  -5  -3  -2    6.70    1.90
  -5  -3  -2    7.50    2.10
  -5  -3  -2   10.90    2.30
  -5  -3  -2    4.30    2.10
  -5  -3  -2    5.60    2.30
  -5  -3  -2    7.60    2.20
  -5  -3  -2    5.80    1.90
  -5  -3  -2   10.30    2.50
  -5  -3  -2    9.30    2.40
   5   3   2    6.20    1.80
   5   3   2    5.10    2.30
   5   3   2    6.40    2.10
   5   3   2    5.00    1.70
   5   3   2    4.90    1.70
  -6  -3  -2  883.81   27.70
  -6  -3  -2  902.61   19.20
  -6  -3  -2  920.61   25.40
  -6  -3  -2  891.61   25.20
  -6  -3  -2  865.21   27.10
  -6  -3  -2  899.51   24.80
  -6  -3  -2  914.21   29.70
  -6  -3  -2  901.31   24.60
  -6  -3  -2  885.11   22.00
  -6  -3  -2  877.91   28.40
  -6  -3  -2  922.51   22.50
   6   3   2  927.11   28.30
   6   3   2  853.71   28.60
   6   3   2  870.61   24.00
  -7  -3  -2  450.75   19.30
  -7  -3  -2  480.25   15.30
  -7  -3  -2  499.25   20.80
  -7  -3  -2  465.35   17.70
  -7  -3  -2  477.35   14.60
  -7  -3  -2  507.05   13.50
  -7  -3  -2  473.35   17.10
  -7  -3  -2  503.65   18.50
   7   3   2  466.65   20.00
   7   3   2  469.95   16.70
   7   3   2  479.65   21.50
  -8  -3  -2  164.58   12.30
  -8  -3  -2  156.48   10.50
  -8  -3  -2  162.58    7.70
  -8  -3  -2  149.49    8.40
  -8  -3  -2  170.18    8.40
  -8  -3  -2  161.78    7.70
  -8  -3  -2  150.88    9.60
  -8  -3  -2  155.98   10.60
   8   3   2  164.08   12.00
   8   3   2  141.79   12.10
  -9  -3  -2   15.90    2.60
  -9  -3  -2   18.10    3.40
  -9  -3  -2   15.00    4.70
  -9  -3  -2   16.40    2.70
  -9  -3  -2   23.60    5.40
  -9  -3  -2   17.10    4.40
   9   3   2   13.40    4.90
   9   3   2   12.10    4.00
 -10  -3  -2    2.10    2.30
 -10  -3  -2    0.10    1.60
 -10  -3  -2   -0.20    2.50
 -10  -3  -2   -2.80    1.90
 -10  -3  -2    5.00    4.40
  10   3   2    4.40    3.00
  10   3   2    0.10    3.40
 -11  -3  -2   -3.80    2.70
 -11  -3  -2    2.00    3.00
 -11  -3  -2   -1.70    1.90
  11   3   2   -4.00    2.70
  11   3   2   -1.40    3.80
  10  -4  -2   99.79   11.10
  10  -4  -2   98.59   12.20
  10  -4  -2  107.79   12.20
 -10   4   2  108.69   12.00
 -10   4   2  106.99   12.60
   9  -4  -2  102.39    8.30
   9  -4  -2  103.79   10.00
   9  -4  -2   87.79   10.80
   9  -4  -2   89.49   10.30
  -9   4   2   90.39   11.00
  -9   4   2  104.49   10.90
   8  -4  -2   -1.30    1.70
   8  -4  -2    0.00    1.80
   8  -4  -2   -1.70    1.30
   8  -4  -2    0.40    1.50
   8  -4  -2    2.20    1.60
  -8   4   2    1.30    2.30
  -8   4   2   -2.60    1.70
   7  -4  -2  371.66   18.30
   7  -4  -2  316.77   17.80
   7  -4  -2  345.97   13.00
   7  -4  -2  345.47   15.30
   7  -4  -2  375.36   17.50
  -7   4   2  361.06   18.60
   6  -4  -2  164.18   11.30
   6  -4  -2  163.98   14.20
   6  -4  -2  166.38    8.60
   6  -4  -2  172.48   12.00
   6  -4  -2  178.18   11.00
  -6   4   2  160.78    8.70
  -6   4   2  158.18   11.40
  -6   4   2  154.68   10.30
  -6   4   2  151.58   10.50
  -6   4   2  150.48   11.20
  -6   4   2  198.98   14.00
   5  -4  -2    3.60    1.90
   5  -4  -2    5.40    2.50
   5  -4  -2    1.30    1.10
   5  -4  -2    1.80    1.50
   5  -4  -2    2.20    2.00
  -5   4   2    6.90    2.00
  -5   4   2    8.00    2.80
  -5   4   2    1.60    1.40
  -5   4   2    5.40    2.30
  -5   4   2    2.20    1.70
  -5   4   2    0.50    1.20
   4  -4  -2 1206.88   32.40
   4  -4  -2 1235.08   32.90
   4  -4  -2 1252.87   37.50
   4  -4  -2 1263.97   29.50
  -4   4   2 1255.97   29.70
  -4   4   2 1247.68   32.00
  -4   4   2 1240.18   32.80
  -4   4   2 1253.27   30.10
  -4   4   2 1253.07   28.60
  -4   4   2 1220.68   32.60
   3  -4  -2 2277.47   51.49
   3  -4  -2 2405.36   50.59
   3  -4  -2 2327.87   50.19
   3  -4  -2 2367.36   47.90
   3  -4  -2 2314.37   49.90
  -3   4   2 2412.86   42.30
  -3   4   2 2349.76   50.39
  -3   4   2 2389.86   46.60
  -3   4   2 2365.16   49.50
  -3   4   2 2447.76   45.10
  -3   4   2 2366.46   48.20
  -3   4   2 2351.26   50.09
   2  -4  -2 1218.48   31.10
   2  -4  -2 1288.37   29.70
   2  -4  -2 1224.28   30.00
   2  -4  -2 1234.68   28.80
  -2   4   2 1260.07   25.60
  -2   4   2 1202.58   29.30
  -2   4   2 1274.77   26.20
  -2   4   2 1218.38   29.00
  -2   4   2 1262.87   30.40
  -2   4   2 1219.48   29.40
  -2   4   2 1227.08   24.30
   1  -4  -2 3543.95   67.69
   1  -4  -2 3576.84   68.99
   1  -4  -2 3607.24   70.09
   1  -4  -2 3650.73   67.59
  -1   4   2 3662.83   65.09
  -1   4   2 3427.16   67.59
  -1   4   2 3735.33   61.69
  -1   4   2 3622.44   66.39
   0  -4  -2 2270.37   47.30
   0  -4  -2 2322.17   46.00
   0  -4  -2 2297.97   43.70
   0  -4  -2 2361.56   46.70
   0   4   2 2328.17   43.70
   0   4   2 2306.97   42.60
   0   4   2 2350.26   45.80
   0   4   2 2243.58   46.50
  -1  -4  -2 2456.35   49.90
  -1  -4  -2 2480.25   49.30
  -1  -4  -2 2396.66   49.00
  -1  -4  -2 2521.35   44.60
   1   4   2 2464.75   49.30
   1   4   2 2489.95   44.40
   1   4   2 2418.66   44.20
   1   4   2 2461.25   42.00
   1   4   2 2504.95   49.90
  -2  -4  -2 2772.62   54.89
  -2  -4  -2 2820.62   48.00
  -2  -4  -2 2787.12   49.20
  -2  -4  -2 2810.32   54.79
  -2  -4  -2 2784.02   57.19
  -2  -4  -2 2778.92   55.99
  -2  -4  -2 2826.82   49.99
   2   4   2 2764.92   55.29
   2   4   2 2903.41   50.29
   2   4   2 2830.92   51.69
   2   4   2 2716.33   56.39
   2   4   2 2819.12   52.49
  -3  -4  -2 4160.78   70.79
  -3  -4  -2 4205.18   73.39
  -3  -4  -2 4151.68   79.89
  -3  -4  -2 4226.28   77.39
  -3  -4  -2 4138.99   72.59
  -3  -4  -2 4142.69   78.79
  -3  -4  -2 4116.29   79.69
  -3  -4  -2 4202.38   77.29
   3   4   2 4075.29   74.59
   3   4   2 4169.18   75.19
   3   4   2 3987.00   78.49
   3   4   2 4376.26   73.49
   3   4   2 4219.28   80.49
  -4  -4  -2   24.30    4.00
  -4  -4  -2   20.20    2.50
  -4  -4  -2   26.80    3.30
  -4  -4  -2   23.70    3.80
  -4  -4  -2   27.90    3.60
  -4  -4  -2   19.90    2.80
  -4  -4  -2   22.10    4.00
  -4  -4  -2   20.60    3.30
  -4  -4  -2   20.90    2.70
   4   4   2   22.50    4.10
   4   4   2   24.20    3.60
   4   4   2   26.80    3.20
   4   4   2   23.00    3.20
  -5  -4  -2  120.09    8.90
  -5  -4  -2  132.99    9.40
  -5  -4  -2  117.69    7.40
  -5  -4  -2  123.49    7.70
  -5  -4  -2  128.09    9.00
  -5  -4  -2  115.59    7.50
  -5  -4  -2  121.09   11.80
  -5  -4  -2  124.29    6.90
  -5  -4  -2  124.89    7.50
  -5  -4  -2  127.59    7.00
   5   4   2  125.09    7.20
   5   4   2  131.39    9.60
   5   4   2  111.79    9.30
   5   4   2  118.39    7.10
   5   4   2  125.99    9.70
  -6  -4  -2 1201.08   35.10
  -6  -4  -2 1244.78   53.09
  -6  -4  -2 1229.08   30.00
  -6  -4  -2 1138.29   34.10
  -6  -4  -2 1235.68   34.40
  -6  -4  -2 1244.78   30.20
  -6  -4  -2 1198.18   28.60
  -6  -4  -2 1239.98   29.90
  -6  -4  -2 1211.28   30.70
  -6  -4  -2 1197.28   31.00
  -6  -4  -2 1172.68   32.00
  -6  -4  -2 1228.98   31.30
   6   4   2 1156.58   29.30
   6   4   2 1226.38   32.70
   6   4   2 1267.17   35.90
   6   4   2 1220.08   35.60
  -7  -4  -2   79.59    6.90
  -7  -4  -2   81.09    6.20
  -7  -4  -2   82.59    6.40
  -7  -4  -2   84.69    8.50
  -7  -4  -2   71.19    6.60
  -7  -4  -2   80.59    4.00
  -7  -4  -2   86.29    7.20
  -7  -4  -2   78.49    7.00
   7   4   2   73.09    8.30
   7   4   2   84.89    8.90
  -8  -4  -2   11.20    2.80
  -8  -4  -2   11.70    3.90
  -8  -4  -2   17.50    2.30
  -8  -4  -2   13.80    3.20
  -8  -4  -2   15.60    3.30
  -8  -4  -2   18.40    4.00
  -8  -4  -2   18.40    4.10
   8   4   2   14.80    4.60
   8   4   2   14.20    4.20
  -9  -4  -2   29.10    3.30
  -9  -4  -2   43.80    7.10
  -9  -4  -2   26.10    4.10
  -9  -4  -2   24.10    4.90
  -9  -4  -2   39.30    5.90
  -9  -4  -2   31.50    4.20
  -9  -4  -2   29.80    4.60
   9   4   2   38.50    7.10
   9   4   2   42.70    7.90
 -10  -4  -2   61.19    7.80
 -10  -4  -2   70.69    9.70
 -10  -4  -2   51.39    4.40
 -10  -4  -2   62.59    5.40
 -10  -4  -2   63.89    5.10
  10   4   2   63.09   10.00
  10   4   2   68.29    8.80
  10  -5  -2   17.90    4.20
  10  -5  -2   20.80    6.30
  10  -5  -2   15.00    4.80
  10  -5  -2   15.50    5.60
 -10   5   2   15.20    4.90
 -10   5   2    7.00    4.70
   9  -5  -2  228.58   13.40
   9  -5  -2  224.18   15.60
   9  -5  -2  219.78    9.90
   9  -5  -2  222.48   17.20
   9  -5  -2  202.88   15.40
  -9   5   2  226.38   16.50
  -9   5   2  231.18   17.50
   8  -5  -2   94.39    6.90
   8  -5  -2  103.79   10.90
   8  -5  -2  107.49   10.30
   8  -5  -2   67.09   11.80
   8  -5  -2   94.89    8.50
  -8   5   2   85.69   10.70
  -8   5   2   90.89   11.10
   7  -5  -2    0.10    2.30
   7  -5  -2    2.90    2.10
   7  -5  -2    2.90    2.50
   7  -5  -2    0.00    1.50
   7  -5  -2    6.70    2.70
  -7   5   2    0.70    1.70
   6  -5  -2    9.30    3.00
   6  -5  -2   16.40    3.30
   6  -5  -2   14.10    3.70
   6  -5  -2   12.40    3.80
  -6   5   2   11.90    3.40
  -6   5   2   12.80    3.60
  -6   5   2   11.60    2.90
   5  -5  -2  411.76   15.10
   5  -5  -2  390.86   18.00
   5  -5  -2  389.06   18.00
  -5   5   2  405.26   14.90
  -5   5   2  397.16   15.80
  -5   5   2  382.76   17.10
  -5   5   2  411.16   18.30
  -5   5   2  390.76   17.90
   4  -5  -2  372.06   14.20
   4  -5  -2  377.96   16.80
   4  -5  -2  370.76   16.20
   4  -5  -2  330.77   16.00
  -4   5   2  363.36   16.20
  -4   5   2  364.96   13.90
  -4   5   2  370.16   16.50
  -4   5   2  368.66   12.90
  -4   5   2  363.96   15.60
   3  -5  -2  233.68   12.70
   3  -5  -2  235.18   12.90
   3  -5  -2  217.08   11.40
   3  -5  -2  227.48   12.00
   3  -5  -2  228.98   10.80
  -3   5   2  228.18    8.60
  -3   5   2  238.48   12.20
  -3   5   2  226.38    7.60
  -3   5   2  222.58   11.40
  -3   5   2  217.78    9.40
  -3   5   2  230.48   11.80
   2  -5  -2 1578.04   37.10
   2  -5  -2 1622.74   38.60
   2  -5  -2 1680.23   37.50
   2  -5  -2 1674.43   40.40
  -2   5   2 1656.93   33.40
  -2   5   2 1616.74   32.60
  -2   5   2 1614.34   37.30
  -2   5   2 1613.84   38.50
  -2   5   2 1597.74   37.40
   1  -5  -2  242.28   10.30
   1  -5  -2  223.18   11.40
   1  -5  -2  203.38   10.30
   1  -5  -2  218.28   10.50
  -1   5   2  223.88    9.90
  -1   5   2  231.78   11.10
  -1   5   2  221.18    9.40
  -1   5   2  218.08    6.80
   0  -5  -2   21.90    3.40
   0  -5  -2   23.00    3.30
   0  -5  -2   22.30    3.40
   0  -5  -2   16.70    3.40
   0  -5  -2   20.90    2.90
   0   5   2   22.70    2.90
   0   5   2   25.20    1.60
   0   5   2   24.30    3.30
   0   5   2   22.20    2.50
   0   5   2   21.00    3.40
  -1  -5  -2 3325.57   63.29
  -1  -5  -2 3334.37   59.89
  -1  -5  -2 3235.48   65.89
  -1  -5  -2 3179.68   64.89
  -1  -5  -2 3351.86   65.09
   1   5   2 3331.47   56.09
   1   5   2 3297.67   65.19
   1   5   2 3386.56   59.59
   1   5   2 3304.97   58.19
   1   5   2 3346.97   65.09
  -2  -5  -2  200.08   10.50
  -2  -5  -2  184.08    9.60
  -2  -5  -2  179.38   10.00
  -2  -5  -2  178.08   10.00
  -2  -5  -2  190.18    6.70
  -2  -5  -2  167.38    9.40
   2   5   2  181.98    8.70
   2   5   2  181.78    6.60
   2   5   2  185.38    6.70
   2   5   2  171.88    9.60
   2   5   2  167.38    9.90
   2   5   2  182.58    8.20
  -3  -5  -2 3312.87   55.69
  -3  -5  -2 3806.92   77.29
  -3  -5  -2 3161.68   56.19
  -3  -5  -2 3195.48   67.29
  -3  -5  -2 3328.87   58.69
  -3  -5  -2 3259.17   67.69
  -3  -5  -2 3344.67   65.79
  -3  -5  -2 3307.37   65.09
   3   5   2 3353.26   62.89
   3   5   2 3204.58   67.99
   3   5   2 3204.98   62.49
   3   5   2 3146.99   65.99
   3   5   2 3369.26   59.09
  -4  -5  -2 3536.15   68.79
  -4  -5  -2 3518.45   62.69
  -4  -5  -2 3459.85   64.89
  -4  -5  -2 3561.14   61.29
  -4  -5  -2 3472.05   70.69
  -4  -5  -2 3509.05   72.49
  -4  -5  -2 3516.45   69.09
  -4  -5  -2 3386.56   72.49
   4   5   2 3454.25   63.49
   4   5   2 3495.55   66.59
   4   5   2 3412.96   72.89
   4   5   2 3320.17   70.69
   4   5   2 3568.34   67.69
  -5  -5  -2  461.35   13.90
  -5  -5  -2  456.85   18.50
  -5  -5  -2  444.76   19.20
  -5  -5  -2  439.66   19.50
  -5  -5  -2  445.26   18.30
  -5  -5  -2  426.86   16.40
  -5  -5  -2  425.66   13.30
  -5  -5  -2  434.36   15.30
  -5  -5  -2  451.95   21.60
  -5  -5  -2  433.36   16.50
   5   5   2  447.16   15.80
   5   5   2  462.55   19.80
   5   5   2  447.26   16.80
  -6  -5  -2    0.40    1.70
  -6  -5  -2    1.10    1.30
  -6  -5  -2   -1.50    1.00
  -6  -5  -2    0.00    1.60
  -6  -5  -2    1.30    1.40
  -6  -5  -2   -1.00    1.30
  -6  -5  -2    2.40    2.20
  -6  -5  -2    3.90    1.70
  -6  -5  -2    3.10    1.70
   6   5   2    3.80    2.20
   6   5   2    6.00    2.80
   6   5   2   -0.50    1.80
  -7  -5  -2  320.87   17.30
  -7  -5  -2  321.37   14.30
  -7  -5  -2  331.17   13.60
  -7  -5  -2  307.77   14.20
  -7  -5  -2  328.07   13.90
  -7  -5  -2  316.87   16.80
   7   5   2  332.77   18.20
   7   5   2  352.66   16.90
   7   5   2  312.47   14.10
  -8  -5  -2   60.59    6.70
  -8  -5  -2   60.19    6.40
  -8  -5  -2   66.29    6.90
  -8  -5  -2   70.39    7.10
  -8  -5  -2   73.89    8.60
  -8  -5  -2   69.59    6.70
   8   5   2   74.79    9.30
  -9  -5  -2   82.19    8.00
  -9  -5  -2   76.59    9.50
  -9  -5  -2   79.39    9.80
  -9  -5  -2   89.29    7.90
  -9  -5  -2   72.19    7.00
   9   5   2   88.29   10.50
 -10  -5  -2  124.19   10.10
 -10  -5  -2  127.29    8.90
 -10  -5  -2  132.19   12.70
  10   5   2  135.89   13.10
   9  -6  -2   46.80    7.30
   9  -6  -2   37.70    5.70
   9  -6  -2   48.50    8.40
   9  -6  -2   37.40    7.90
  -9   6   2   40.10    8.30
  -9   6   2   53.39    9.00
   8  -6  -2  385.86   21.40
   8  -6  -2  362.46   19.70
   8  -6  -2  374.46   18.20
   8  -6  -2  351.16   21.10
   8  -6  -2  339.67   14.30
  -8   6   2  351.76   20.60
  -8   6   2  370.06   21.50
   7  -6  -2  509.75   24.00
   7  -6  -2  500.15   23.90
   7  -6  -2  436.46   17.40
   7  -6  -2  508.25   21.40
   7  -6  -2  522.45   22.70
  -7   6   2  515.85   23.90
   6  -6  -2   25.40    5.80
   6  -6  -2   21.90    5.20
   6  -6  -2   24.00    4.50
   6  -6  -2   13.60    3.70
  -6   6   2   26.00    4.10
  -6   6   2   30.20    5.70
   5  -6  -2 2381.36   52.19
   5  -6  -2 2433.86   57.39
   5  -6  -2 2428.96   57.99
  -5   6   2 2276.67   56.19
  -5   6   2 2353.16   49.99
   4  -6  -2   40.70    4.90
   4  -6  -2   32.70    5.10
   4  -6  -2   35.30    5.60
   4  -6  -2   34.40    5.50
  -4   6   2   33.20    5.40
  -4   6   2   31.70    3.70
  -4   6   2   39.90    5.90
  -4   6   2   31.60    4.10
   3  -6  -2  304.47   14.40
   3  -6  -2  328.47   15.60
   3  -6  -2  303.67   13.60
   3  -6  -2  305.67   14.50
   3  -6  -2  315.47   16.40
  -3   6   2  298.57   14.40
  -3   6   2  305.67   15.00
  -3   6   2  275.47   13.70
  -3   6   2  324.37   10.30
  -3   6   2  330.07   12.60
  -3   6   2  324.07   11.90
   2  -6  -2  481.15   17.80
   2  -6  -2  507.05   19.10
   2  -6  -2  505.55   20.40
   2  -6  -2  490.55   17.90
  -2   6   2  462.55   17.40
  -2   6   2  493.55   13.80
  -2   6   2  509.25   15.30
  -2   6   2  524.95   19.60
   1  -6  -2 4950.00   91.59
   1  -6  -2 4939.41   93.59
   1  -6  -2 4970.30   95.09
   1  -6  -2 4842.02   95.99
  -1   6   2 4980.70   83.19
  -1   6   2 5112.29   90.59
  -1   6   2 4840.12   93.99
  -1   6   2 4918.21   91.09
   0  -6  -2  446.06   18.00
   0  -6  -2  426.96   16.60
   0  -6  -2  453.35   16.50
   0  -6  -2  425.56   15.60
   0  -6  -2  445.66   15.00
   0   6   2  461.75   14.90
   0   6   2  446.86   16.20
   0   6   2  442.56    9.70
   0   6   2  442.76   17.00
   0   6   2  440.96   12.60
  -1  -6  -2 2525.85   54.69
  -1  -6  -2 2561.34   56.49
  -1  -6  -2 2560.24   55.79
  -1  -6  -2 2663.43   53.59
  -1  -6  -2 2721.43   53.89
   1   6   2 2615.44   55.49
   1   6   2 2576.74   47.00
   1   6   2 2563.14   49.60
   1   6   2 2496.05   54.69
   1   6   2 2600.24   45.40
  -2  -6  -2   90.09    6.50
  -2  -6  -2   74.69    7.00
  -2  -6  -2   75.29    4.80
  -2  -6  -2   79.09    6.70
  -2  -6  -2   80.69    7.10
  -2  -6  -2   85.09    7.20
  -2  -6  -2   87.49    7.70
   2   6   2   84.39    6.10
   2   6   2   86.49    7.60
   2   6   2   88.09    7.30
   2   6   2   79.09    4.20
   2   6   2   80.19    4.50
  -3  -6  -2  395.16   16.70
  -3  -6  -2  372.16   10.50
  -3  -6  -2  375.16   15.40
  -3  -6  -2  356.66   15.50
   3   6   2  394.76   17.50
   3   6   2  351.36   15.60
   3   6   2  359.66   13.90
   3   6   2  345.97   14.30
   3   6   2  378.16   12.30
   3   6   2  361.26   10.50
  -4  -6  -2  116.69    4.50
  -4  -6  -2  144.59    6.20
  -4  -6  -2  117.59    9.30
  -4  -6  -2  122.69    4.80
  -4  -6  -2  131.89   10.30
  -4  -6  -2  131.79    9.40
  -4  -6  -2  122.19    8.60
  -4  -6  -2  115.39    9.60
  -4  -6  -2  125.89    7.00
   4   6   2  119.69    9.20
   4   6   2  119.89    6.10
   4   6   2  121.79    8.30
   4   6   2  126.39    8.40
   4   6   2  131.39   10.40
  -5  -6  -2 3415.66   71.99
  -5  -6  -2 3436.36   73.99
  -5  -6  -2 3534.25   63.19
  -5  -6  -2 3347.87   67.29
  -5  -6  -2 3569.04   74.79
  -5  -6  -2 3523.15   77.39
  -5  -6  -2 3491.35   63.59
   5   6   2 3571.74   70.09
   5   6   2 3512.65   71.29
   5   6   2 3597.14   78.09
  -6  -6  -2  132.49    8.80
  -6  -6  -2  123.59   10.20
  -6  -6  -2  125.09    9.40
  -6  -6  -2  132.89    7.20
  -6  -6  -2  135.39    7.30
  -6  -6  -2  131.59    9.50
  -6  -6  -2  137.29    8.90
   6   6   2  123.09    9.00
   6   6   2  146.29   10.50
   6   6   2  133.39   11.80
  -7  -6  -2  203.78   13.60
  -7  -6  -2  185.98   10.70
  -7  -6  -2  195.98   10.00
  -7  -6  -2  191.18   14.10
  -7  -6  -2  186.38   11.80
  -7  -6  -2  198.28   11.80
   7   6   2  191.98   14.60
   7   6   2  190.68   12.80
   7   6   2  182.58   11.30
  -8  -6  -2    0.70    2.50
  -8  -6  -2   -2.00    1.80
  -8  -6  -2   -0.50    2.00
  -8  -6  -2    0.50    1.70
   8   6   2   -0.10    2.60
   8   6   2    3.30    2.40
  -9  -6  -2   58.99    8.50
  -9  -6  -2   61.59    6.60
  -9  -6  -2   49.70    7.30
   9   6   2   62.89    9.20
 -10  -6  -2    2.90    1.90
 -10  -6  -2   -1.00    2.10
 -10  -6  -2    4.70    2.40
  10   6   2   -0.20    3.50
   9  -7  -2   74.79   11.30
   9  -7  -2   90.39   11.40
   9  -7  -2   76.19   11.10
   9  -7  -2   86.09   10.60
  -9   7   2   72.29   10.60
  -9   7   2   66.79   10.50
   8  -7  -2    8.20    3.50
   8  -7  -2   11.50    4.30
   8  -7  -2    9.20    4.10
   8  -7  -2    7.30    4.20
   8  -7  -2    7.60    3.40
  -8   7   2   10.70    4.10
  -8   7   2   13.10    5.10
   7  -7  -2  605.34   26.10
   7  -7  -2  574.34   21.00
   7  -7  -2  598.44   27.50
   7  -7  -2  576.04   37.00
  -7   7   2  597.04   28.00
  -7   7   2  640.14   27.60
   6  -7  -2  301.07   17.40
   6  -7  -2  335.47   19.00
   6  -7  -2  248.78   13.10
  -6   7   2  270.67   13.50
  -6   7   2  286.27   17.30
   5  -7  -2  485.45   21.60
   5  -7  -2  488.75   22.40
   5  -7  -2  456.15   18.60
  -5   7   2  493.05   18.40
  -5   7   2  472.75   21.60
  -5   7   2  464.35   16.70
   4  -7  -2 1266.27   37.50
   4  -7  -2 1170.28   33.20
   4  -7  -2 1181.28   35.20
  -4   7   2 1197.88   30.40
  -4   7   2 1189.38   28.50
  -4   7   2 1230.48   36.10
   3  -7  -2  645.94   26.20
   3  -7  -2  667.33   24.80
   3  -7  -2  698.43   24.00
   3  -7  -2  647.34   22.80
   3  -7  -2  653.53   23.70
  -3   7   2  674.73   24.00
  -3   7   2  696.13   19.20
  -3   7   2  669.43   17.90
   2  -7  -2  471.05   19.40
   2  -7  -2  442.86   18.20
   2  -7  -2  427.86   20.10
   2  -7  -2  432.26   18.40
  -2   7   2  448.16   13.00
  -2   7   2  427.96   17.30
  -2   7   2  480.85   15.60
  -2   7   2  431.66   18.80
   1  -7  -2  308.77   13.80
   1  -7  -2  288.87   14.50
   1  -7  -2  298.47   16.00
   1  -7  -2  321.47   15.20
  -1   7   2  311.17   11.40
  -1   7   2  301.47    8.40
  -1   7   2  310.07   13.20
  -1   7   2  299.37   14.80
  -1   7   2  326.77   13.90
   0  -7  -2   59.09    7.10
   0  -7  -2   76.39    7.20
   0  -7  -2   70.99    6.40
   0  -7  -2   70.49    6.80
   0  -7  -2   61.99    5.70
   0   7   2   72.79    6.10
   0   7   2   68.19    4.60
   0   7   2   66.19    3.30
   0   7   2   58.99    6.50
  -1  -7  -2  981.80   29.30
  -1  -7  -2 1021.60   25.90
  -1  -7  -2 1060.09   31.70
  -1  -7  -2 1026.00   30.70
  -1  -7  -2 1034.50   32.80
   1   7   2 1009.80   29.80
   1   7   2 1013.20   28.60
   1   7   2 1029.70   21.90
   1   7   2 1034.60   21.00
   1   7   2 1027.60   25.40
   1   7   2 1019.70   29.90
  -2  -7  -2  108.69    7.80
  -2  -7  -2   98.29    6.00
  -2  -7  -2  101.79    9.00
  -2  -7  -2   95.89    8.50
  -2  -7  -2   89.99    7.90
  -2  -7  -2   94.69    8.30
  -2  -7  -2  101.49    8.50
   2   7   2  102.29    5.30
   2   7   2   98.19    4.50
   2   7   2  100.29    7.80
   2   7   2   88.99    8.00
   2   7   2  111.09    7.60
   2   7   2  102.39    9.10
  -3  -7  -2  524.45   20.00
  -3  -7  -2  517.95   21.50
  -3  -7  -2  507.55   20.50
  -3  -7  -2  487.85   20.80
  -3  -7  -2  531.35   21.30
  -3  -7  -2  526.95   18.10
  -3  -7  -2  543.35   14.70
   3   7   2  527.05   12.70
   3   7   2  520.15   20.60
   3   7   2  526.35   21.90
   3   7   2  529.35   19.00
   3   7   2  522.35   15.40
   3   7   2  514.75   18.10
  -4  -7  -2  371.06   16.60
  -4  -7  -2  364.46   17.60
  -4  -7  -2  349.47   17.40
  -4  -7  -2  372.96   10.50
   4   7   2  382.96   19.10
   4   7   2  357.96   20.20
   4   7   2  351.26   15.40
   4   7   2  378.96   15.90
  -5  -7  -2  458.75   20.40
  -5  -7  -2  437.06   12.40
  -5  -7  -2  437.06   18.90
   5   7   2  458.05   18.70
   5   7   2  474.15   22.20
   5   7   2  476.25   18.50
  -6  -7  -2  158.28    7.30
  -6  -7  -2  143.59    7.00
  -6  -7  -2  148.79   11.80
   6   7   2  141.99   10.70
   6   7   2  165.08   11.20
   6   7   2  168.58   13.70
  -7  -7  -2  267.77   16.30
  -7  -7  -2  267.87   11.20
  -7  -7  -2  258.67   10.60
  -7  -7  -2  295.17   16.20
   7   7   2  271.47   15.80
   7   7   2  301.17   15.50
   7   7   2  268.57   18.10
  -8  -7  -2    4.70    2.50
  -8  -7  -2   -1.80    2.60
  -8  -7  -2    8.80    2.60
  -8  -7  -2    4.40    2.60
   8   7   2   10.10    3.70
   8   7   2   12.20    3.50
   8   7   2    3.30    3.00
  -9  -7  -2  234.68   16.80
  -9  -7  -2  219.18   11.20
   9   7   2  229.38   18.10
   8  -8  -2  217.68   17.60
   8  -8  -2  217.38   15.60
   8  -8  -2  207.98   16.20
   8  -8  -2  214.98   16.80
  -8   8   2  189.78   15.70
  -8   8   2  221.38   17.20
   7  -8  -2   -1.00    2.20
   7  -8  -2    0.10    2.10
   7  -8  -2    1.00    2.80
  -7   8   2   -0.90    1.60
  -7   8   2    1.60    2.40
   6  -8  -2  860.31   33.80
   6  -8  -2  883.91   33.00
  -6   8   2  900.81   32.60
  -6   8   2  874.81   33.10
  -6   8   2  839.62   26.10
   5  -8  -2   29.30    5.90
   5  -8  -2   43.20    7.20
  -5   8   2   33.00    6.90
  -5   8   2   30.30    5.40
  -5   8   2   27.30    4.40
   4  -8  -2  282.37   15.80
   4  -8  -2  312.77   17.80
  -4   8   2  280.97   16.20
  -4   8   2  278.77   11.40
  -4   8   2  274.77   12.40
   3  -8  -2 1092.79   33.40
   3  -8  -2 1086.09   37.60
   3  -8  -2 1126.39   35.70
  -3   8   2 1090.19   26.70
  -3   8   2 1127.69   33.90
  -3   8   2 1090.79   26.60
   2  -8  -2  999.60   31.00
   2  -8  -2 1037.50   35.30
   2  -8  -2 1034.50   32.70
  -2   8   2 1029.00   27.40
  -2   8   2 1026.40   30.80
  -2   8   2 1017.40   23.10
   1  -8  -2   82.59    8.20
   1  -8  -2   80.39    9.00
   1  -8  -2  104.89    8.90
  -1   8   2   82.39    7.20
  -1   8   2   90.49    3.80
  -1   8   2   89.89    7.70
  -1   8   2   88.19    5.90
   0  -8  -2   34.40    5.10
   0  -8  -2   30.70    5.90
   0  -8  -2   28.80    4.60
   0  -8  -2   39.10    5.70
   0   8   2   36.70    3.50
   0   8   2   33.80    4.70
   0   8   2   28.90    5.10
   0   8   2   34.10    2.60
  -1  -8  -2   -0.30    1.30
  -1  -8  -2    3.10    2.10
  -1  -8  -2    3.00    2.00
  -1  -8  -2    1.90    1.80
   1   8   2    1.90    1.10
   1   8   2    3.90    2.80
   1   8   2    5.40    1.30
   1   8   2    3.50    1.90
   1   8   2   -0.60    1.50
  -2  -8  -2    1.00    1.20
  -2  -8  -2    1.60    1.70
  -2  -8  -2    2.50    1.80
   2   8   2    3.00    0.90
   2   8   2    0.20    1.70
   2   8   2    2.80    2.40
   2   8   2    2.80    1.90
  -3  -8  -2   92.09    7.50
  -3  -8  -2   85.79    5.70
  -3  -8  -2   77.09    8.50
   3   8   2   88.29    5.90
   3   8   2   88.79    7.70
   3   8   2   96.89    8.20
   3   8   2   91.69    9.40
  -4  -8  -2   54.39    5.90
  -4  -8  -2   43.50    3.70
  -4  -8  -2   49.20    6.90
   4   8   2   50.49    7.60
   4   8   2   42.50    5.80
   4   8   2   47.70    6.20
  -5  -8  -2   50.69    7.50
  -5  -8  -2   53.69    6.00
   5   8   2   61.99    9.00
   5   8   2   57.29    7.10
   5   8   2   55.29    6.90
  -6  -8  -2    9.00    3.90
  -6  -8  -2    6.90    2.60
   6   8   2   10.80    3.10
   6   8   2   12.70    4.90
   6   8   2    8.20    3.40
  -7  -8  -2   55.79    6.60
  -7  -8  -2   68.99    8.90
  -7  -8  -2   59.29    4.20
   7   8   2   68.99   10.20
   7   8   2   62.29   10.20
   7   8   2   56.69    7.40
  -8  -8  -2    2.60    1.50
  -8  -8  -2    1.90    3.00
   8   8   2   -0.30    2.50
   8   8   2    3.10    3.20
   8   8   2    2.40    4.10
   7  -9  -2    9.90    4.60
   7  -9  -2    6.80    4.00
  -7   9   2   10.00    4.30
  -7   9   2    9.80    4.70
   6  -9  -2  437.16   24.20
   6  -9  -2  400.36   22.10
  -6   9   2  403.16   22.50
  -6   9   2  440.96   22.30
   5  -9  -2   53.29    7.70
   5  -9  -2   46.30    8.30
  -5   9   2   57.09    8.40
  -5   9   2   44.00    7.30
  -5   9   2   45.60    6.10
   4  -9  -2   53.59    7.40
   4  -9  -2   55.49    8.20
  -4   9   2   65.89    8.60
  -4   9   2   50.29    5.00
  -4   9   2   56.09    5.70
   3  -9  -2   11.10    3.80
   3  -9  -2   20.60    6.10
   3  -9  -2    6.50    2.70
  -3   9   2   14.20    3.20
  -3   9   2   14.40    2.80
  -3   9   2    9.00    3.30
  -3   9   2   15.90    3.00
   2  -9  -2 1520.45   43.80
   2  -9  -2 1536.45   41.70
   2  -9  -2 1592.54   48.00
  -2   9   2 1519.55   37.60
  -2   9   2 1471.55   30.70
  -2   9   2 1502.35   41.20
   1  -9  -2  111.19   10.00
   1  -9  -2   91.79   10.30
  -1   9   2  116.49    9.10
  -1   9   2  113.89    9.30
  -1   9   2  103.39    6.60
  -1   9   2  101.29    4.60
   0  -9  -2  284.77   15.60
   0  -9  -2  281.17   17.40
   0  -9  -2  270.47   14.00
   0   9   2  301.67   15.50
   0   9   2  281.47   15.40
   0   9   2  258.97    8.00
   0   9   2  277.97   13.60
   0   9   2  271.27    9.80
  -1  -9  -2  209.98   14.80
  -1  -9  -2  237.18   12.30
  -1  -9  -2  221.28   13.20
   1   9   2  227.38   11.60
   1   9   2  244.68   14.80
   1   9   2  215.38    7.50
   1   9   2  199.08    7.00
   1   9   2  220.58   13.60
  -2  -9  -2  307.17   15.20
  -2  -9  -2  277.97   17.00
  -2  -9  -2  283.47   12.70
   2   9   2  296.57   14.50
   2   9   2  278.87   15.60
   2   9   2  292.87   17.00
   2   9   2  270.37    9.80
  -3  -9  -2   62.29    7.20
  -3  -9  -2   55.89    5.20
  -3  -9  -2   53.49    7.70
   3   9   2   50.69    6.50
   3   9   2   52.19    7.10
   3   9   2   57.99    8.30
   3   9   2   57.99    5.10
  -4  -9  -2  340.37   15.60
  -4  -9  -2  307.67   18.10
  -4  -9  -2  312.87   11.40
   4   9   2  353.36   20.50
   4   9   2  348.57   16.80
   4   9   2  337.37   17.00
  -5  -9  -2   65.09    8.40
  -5  -9  -2   73.19    7.10
   5   9   2   76.19    9.90
   5   9   2   72.19    8.40
   5   9   2   91.99    9.10
  -6  -9  -2   -3.50    2.00
  -6  -9  -2    4.20    2.40
   6   9   2    1.20    2.20
   6   9   2    4.40    3.40
   6   9   2    3.20    2.50
  -7  -9  -2    0.40    2.60
  -7  -9  -2    1.70    2.10
   7   9   2    2.40    2.50
   7   9   2   -1.90    2.40
   7   9   2   -0.80    2.40
   6 -10  -2   13.50    4.60
   6 -10  -2    4.30    3.50
  -6  10   2    2.80    3.30
  -6  10   2    7.60    3.40
   5 -10  -2   13.40    4.20
   5 -10  -2   12.00    4.80
  -5  10   2   17.80    5.10
  -5  10   2    5.30    3.40
   4 -10  -2  365.36   21.10
   4 -10  -2  318.47   18.30
  -4  10   2  335.27   19.30
  -4  10   2  318.37   17.00
  -4  10   2  338.97   13.70
  -4  10   2  321.47   12.30
   3 -10  -2    0.00    2.30
   3 -10  -2    0.80    2.20
   3 -10  -2    1.70    2.20
  -3  10   2    2.30    2.20
  -3  10   2    0.60    1.60
  -3  10   2   -1.70    1.50
   2 -10  -2   24.60    6.90
   2 -10  -2   23.20    5.40
   2 -10  -2   17.20    5.20
  -2  10   2   21.70    4.80
  -2  10   2   10.80    2.20
  -2  10   2   18.90    4.20
  -2  10   2   26.40    4.60
  -2  10   2   13.90    4.20
  -2  10   2   21.40    2.50
   1 -10  -2  237.28   15.50
   1 -10  -2  246.88   22.70
  -1  10   2  236.88   13.50
  -1  10   2  231.88   10.90
  -1  10   2  238.18   13.90
  -1  10   2  214.88    9.80
   0 -10  -2  236.78   18.00
   0 -10  -2  259.77   15.70
   0  10   2  270.87   14.10
   0  10   2  270.07   10.00
   0  10   2  279.27   15.90
  -1 -10  -2    1.50    2.80
  -1 -10  -2    1.60    1.60
  -1 -10  -2    4.40    2.50
   1  10   2    2.30    2.40
   1  10   2    4.10    1.30
   1  10   2    1.00    1.60
   1  10   2    1.40    2.50
  -2 -10  -2  253.17   17.80
  -2 -10  -2  237.88   14.10
   2  10   2  229.78   13.50
   2  10   2  216.48   15.30
   2  10   2  227.38    8.80
   2  10   2  256.27   19.80
  -3 -10  -2   24.50    4.40
  -3 -10  -2   22.80    6.90
  -3 -10  -2   22.70    5.10
   3  10   2   14.00    4.50
   3  10   2   15.40    4.70
   3  10   2   23.30    5.30
  -4 -10  -2   53.59    5.20
  -4 -10  -2   61.79    8.90
  -4 -10  -2   53.19    6.90
   4  10   2   45.90    7.20
   4  10   2   62.49    8.20
   4  10   2   53.99    8.90
  -5 -10  -2   61.59    9.10
  -5 -10  -2   61.29    6.90
   5  10   2   42.60    8.60
   5  10   2   69.09    8.50
   5  10   2   47.90    7.60
  -6 -10  -2   20.60    4.80
  -6 -10  -2   15.50    5.20
   6  10   2   16.70    5.00
   6  10   2   13.00    5.10
   6  10   2   19.00    5.20
   5 -11  -2    1.70    2.50
   5 -11  -2   -4.70    2.90
  -5  11   2   -1.30    3.50
  -5  11   2   -1.10    2.80
   4 -11  -2   55.99    9.90
   4 -11  -2   60.29    8.30
  -4  11   2   60.99    8.00
  -4  11   2   59.29    8.80
   3 -11  -2  172.38   13.70
   3 -11  -2  182.08   15.30
   3 -11  -2  226.88   18.50
  -3  11   2  173.98   11.80
  -3  11   2  201.28   14.70
   2 -11  -2    7.10    3.70
   2 -11  -2    8.50    3.80
   2 -11  -2    4.20    3.70
  -2  11   2   11.00    2.60
  -2  11   2    5.50    3.10
   1 -11  -2    5.00    3.20
   1 -11  -2    3.10    2.60
   1 -11  -2    8.00    3.30
  -1  11   2    2.50    1.90
  -1  11   2    4.10    2.80
  -1  11   2    0.80    1.70
  -1  11   2    3.90    2.00
  -1  11   2    1.60    3.00
   0 -11  -2  202.28   14.60
   0 -11  -2  218.08   17.30
   0  11   2  214.88   13.40
   0  11   2  206.08   15.10
   0  11   2  231.28   15.00
  -1 -11  -2   41.60    6.70
  -1 -11  -2   44.70    8.00
   1  11   2   69.79    9.30
   1  11   2   51.49    9.30
   1  11   2   55.99   10.20
  -2 -11  -2   24.90    5.60
  -2 -11  -2   15.20    5.30
   2  11   2   21.40    5.30
   2  11   2   13.70    4.20
   2  11   2   22.20    4.90
  -3 -11  -2   46.10    6.60
  -3 -11  -2   39.80    7.80
  -3 -11  -2   28.00    6.60
   3  11   2   31.50    7.10
   3  11   2   42.60    7.50
   3  11   2   38.20    6.10
  -4 -11  -2    1.60    3.00
  -4 -11  -2    0.90    2.20
   4  11   2    2.30    3.10
   4  11   2    5.10    4.60
   4  11   2    5.80    2.90
  -5 -11  -2   -2.30    2.20
  -5 -11  -2   -2.30    3.10
   5  11   2    0.30    3.60
   5  11   2   -4.90    2.70
   5  11   2    0.40    2.30
   2 -12  -2   13.90    4.90
   2 -12  -2    9.70    3.70
   2 -12  -2   14.80    5.60
  -2  12   2    4.00    3.90
  -2  12   2    4.10    3.50
   1 -12  -2    1.80    3.10
   1 -12  -2    1.20    3.90
  -1  12   2   -0.10    2.20
  -1  12   2   -1.90    2.50
  -1  12   2    0.00    1.70
   0 -12  -2    8.80    4.10
   0 -12  -2    4.60    3.20
   0  12   2    3.40    2.70
   0  12   2    5.90    3.90
   0  12   2   10.00    4.30
  -1 -12  -2   61.59    8.60
  -1 -12  -2   63.69   10.60
   1  12   2   44.70    8.50
   1  12   2   38.80    7.30
   1  12   2   52.39    8.80
  -2 -12  -2   -3.30    2.70
  -2 -12  -2   -5.40    2.10
   2  12   2   -2.50    3.50
   2  12   2   -1.00    3.10
   2  12   2   -5.60    2.10
   3  11  -3   15.90    4.40
   3  11  -3   10.00    4.20
   3  11  -3    6.70    4.00
  -3 -11   3   14.20    5.10
   2  11  -3   -0.80    1.80
   2  11  -3    1.60    3.60
   2  11  -3   -1.40    3.00
   2  11  -3    0.90    2.30
  -2 -11   3    1.90    2.30
  -2 -11   3    2.20    2.50
   1  11  -3  232.58   16.90
   1  11  -3  254.97   17.00
   1  11  -3  250.67   14.50
  -1 -11   3  251.97   13.70
   0  11  -3  107.79    9.60
   0  11  -3   79.89    6.80
   0  11  -3   98.29   11.50
   0 -11   3   94.19    9.20
  -1  11  -3   74.09    7.10
  -1  11  -3   87.69   11.00
   1 -11   3   93.89    9.70
  -2  11  -3   27.60    6.70
   2 -11   3   40.70    7.60
  -3  11  -3   59.79    9.20
   3 -11   3   64.39   10.90
   3 -11   3   55.69    5.10
   3 -11   3   55.69    8.40
  -4  11  -3   90.89   11.10
  -4  11  -3   65.09    9.90
   4 -11   3   65.39   10.90
   4 -11   3   77.39   10.30
   4 -11   3   58.59    6.10
   5  10  -3   90.69   11.10
   5  10  -3   81.09    9.10
   5  10  -3   83.49   10.70
  -5 -10   3   92.39    9.20
   4  10  -3   17.50    4.80
   4  10  -3   13.50    3.80
   4  10  -3   16.30    3.90
  -4 -10   3   12.00    2.90
  -4 -10   3   13.70    4.20
   3  10  -3  215.88   11.00
   3  10  -3  199.88   13.20
   3  10  -3  218.48   15.20
   3  10  -3  197.68   15.10
  -3 -10   3  206.38   13.90
  -3 -10   3  211.78    8.40
   2  10  -3   74.79    6.50
   2  10  -3   92.99   10.50
   2  10  -3  101.79   10.40
   2  10  -3   75.39    8.10
  -2 -10   3   84.39    9.50
  -2 -10   3   88.29    7.00
   1  10  -3   16.00    3.40
   1  10  -3   11.80    3.60
   1  10  -3   23.30    5.40
   1  10  -3   19.10    4.40
  -1 -10   3   17.50    4.80
  -1 -10   3   27.00    4.70
   0  10  -3  218.28   11.10
   0  10  -3  239.98   15.50
   0 -10   3  229.68   13.40
  -1  10  -3  330.07   14.20
  -1  10  -3  354.76   19.00
   1 -10   3  348.57   17.60
  -2  10  -3    3.90    2.70
  -2  10  -3    8.20    2.20
   2 -10   3    3.70    1.60
   2 -10   3   10.40    3.90
  -3  10  -3  551.34   25.20
  -3  10  -3  536.55   17.80
  -3  10  -3  555.94   24.40
   3 -10   3  542.75   27.70
   3 -10   3  510.25   19.90
   3 -10   3  518.85   16.40
   3 -10   3  492.35   25.80
  -4  10  -3   -1.30    2.40
  -4  10  -3   -0.20    1.90
  -4  10  -3    0.10    2.20
   4 -10   3    4.90    3.00
   4 -10   3    0.10    1.90
   4 -10   3    2.70    3.70
   4 -10   3   -0.70    2.00
  -5  10  -3   -0.10    2.80
  -5  10  -3   -3.40    1.90
  -5  10  -3    0.80    2.40
   5 -10   3   -2.60    1.70
   5 -10   3   -0.30    2.10
   5 -10   3   -2.00    2.00
   7   9  -3    6.50    3.50
   7   9  -3    8.20    3.70
   7   9  -3    8.20    3.90
  -7  -9   3    4.70    3.10
  -7  -9   3    8.40    3.80
   6   9  -3    2.40    2.30
   6   9  -3    1.30    2.50
   6   9  -3    5.00    3.50
   6   9  -3    3.20    3.20
  -6  -9   3    5.70    3.30
   5   9  -3   44.00    6.20
   5   9  -3   55.29    7.90
   5   9  -3   34.40    7.20
   5   9  -3   54.69    8.60
  -5  -9   3   53.19    5.60
  -5  -9   3   51.29    6.80
   4   9  -3    7.50    2.90
   4   9  -3    6.80    3.20
   4   9  -3    0.00    2.00
   4   9  -3    6.90    3.30
   4   9  -3    1.70    2.60
  -4  -9   3   13.20    2.80
  -4  -9   3    5.90    2.80
   3   9  -3  469.75   19.80
   3   9  -3  423.06   18.20
   3   9  -3  446.56   16.40
   3   9  -3  483.85   23.60
   3   9  -3  454.65   21.90
  -3  -9   3  442.46   12.20
  -3  -9   3  490.25   20.40
  -3  -9   3  462.05   12.70
   2   9  -3  319.07   17.30
   2   9  -3  298.47   15.20
   2   9  -3  324.67   13.20
   2   9  -3  332.97   16.00
  -2  -9   3  310.37   12.40
  -2  -9   3  324.17   16.80
   1   9  -3    0.30    2.30
   1   9  -3   -1.20    1.40
   1   9  -3    0.50    1.90
   1   9  -3    1.90    1.70
  -1  -9   3    4.00    2.70
   0   9  -3    8.00    2.40
   0   9  -3    7.60    3.20
   0  -9   3   20.10    4.10
  -1   9  -3  329.37    9.70
  -1   9  -3  330.57   17.20
   1  -9   3  343.57   16.70
   1  -9   3  299.47   18.30
  -2   9  -3   27.30    3.80
  -2   9  -3   14.70    4.30
   2  -9   3   24.40    4.90
   2  -9   3   26.90    3.10
   2  -9   3   22.50    4.90
  -3   9  -3  289.37   16.10
  -3   9  -3  282.97   12.50
  -3   9  -3  270.87   16.70
   3  -9   3  274.07   11.40
   3  -9   3  253.87   12.80
   3  -9   3  266.07   16.40
  -4   9  -3  347.47   15.60
  -4   9  -3  382.96   20.40
   4  -9   3  361.46   20.00
   4  -9   3  348.47   14.60
   4  -9   3  332.37   13.30
   4  -9   3  354.86   21.20
  -5   9  -3   36.30    7.00
  -5   9  -3   29.90    6.10
  -5   9  -3   41.00    6.40
   5  -9   3   41.80    7.30
   5  -9   3   49.60    8.90
   5  -9   3   38.60    5.90
  -6   9  -3    9.50    3.80
  -6   9  -3   10.70    3.80
  -6   9  -3   10.00    3.90
   6  -9   3    4.20    3.30
   6  -9   3    5.00    2.70
   6  -9   3    8.60    4.20
  -7   9  -3  296.27   18.20
  -7   9  -3  307.27   20.30
   7  -9   3  319.57   21.80
   7  -9   3  273.27   16.40
   7  -9   3  277.27   20.30
   8   8  -3  160.28   14.70
   8   8  -3  167.48   15.20
   8   8  -3  145.59   13.80
  -8  -8   3  158.08   10.60
  -8  -8   3  158.48   12.10
  -8  -8   3  157.38   14.60
   7   8  -3  115.59   10.00
   7   8  -3  104.49   11.70
   7   8  -3  121.09   11.80
   7   8  -3  122.29   12.60
  -7  -8   3  107.09    9.00
  -7  -8   3  113.59   12.00
   6   8  -3   13.90    3.90
   6   8  -3   14.90    4.30
   6   8  -3   24.30    6.00
  -6  -8   3   14.30    3.90
  -6  -8   3    6.60    5.10
  -6  -8   3   17.00    5.20
   5   8  -3   45.80    6.20
   5   8  -3   50.69    7.70
   5   8  -3   54.99    8.20
   5   8  -3   41.70    6.60
  -5  -8   3   55.09    5.60
  -5  -8   3   44.50    5.70
  -5  -8   3   65.79    6.90
   4   8  -3   56.59    7.00
   4   8  -3   55.69    8.00
   4   8  -3   57.89    6.10
   4   8  -3   59.69    6.40
   4   8  -3   64.99    7.80
  -4  -8   3   59.39    6.60
  -4  -8   3   63.29    5.10
   3   8  -3   48.00    5.40
   3   8  -3   47.10    5.90
   3   8  -3   50.89    6.50
   3   8  -3   45.60    6.70
   3   8  -3   50.69    6.60
  -3  -8   3   49.70    3.90
  -3  -8   3   53.69    6.20
  -3  -8   3   52.89    3.40
   2   8  -3   57.09    6.30
   2   8  -3   60.39    6.80
   2   8  -3   68.09    7.90
   2   8  -3   72.89    6.10
   2   8  -3   76.29    8.00
  -2  -8   3   73.99    5.50
  -2  -8   3   68.99    7.20
   1   8  -3  727.33   26.10
   1   8  -3  703.63   26.40
   1   8  -3  740.93   21.70
  -1  -8   3  721.63   21.40
  -1  -8   3  767.82   26.00
   0   8  -3   28.90    4.00
   0   8  -3   24.20    5.10
   0   8  -3   28.80    5.10
   0   8  -3   25.30    4.20
   0  -8   3   31.80    5.60
   0  -8   3   29.60    5.50
   0  -8   3   21.40    5.10
  -1   8  -3    9.50    2.60
  -1   8  -3   11.00    3.30
  -1   8  -3    7.10    2.60
  -1   8  -3   12.10    2.20
   1  -8   3    5.50    2.40
   1  -8   3   11.80    1.90
   1  -8   3    8.50    3.20
  -2   8  -3   76.99    8.20
  -2   8  -3   73.09    5.50
  -2   8  -3   78.29    8.00
   2  -8   3   70.29    6.80
   2  -8   3   67.39    7.30
   2  -8   3   69.09    4.80
  -3   8  -3   44.70    6.20
  -3   8  -3   51.39    7.20
  -3   8  -3   50.79    5.50
   3  -8   3   42.60    5.20
   3  -8   3   51.69    4.90
   3  -8   3   52.39    7.50
   3  -8   3   42.30    6.40
  -4   8  -3   52.19    6.00
  -4   8  -3   45.50    6.30
  -4   8  -3   34.90    6.60
   4  -8   3   42.00    5.40
   4  -8   3   47.90    7.30
   4  -8   3   47.10    4.50
   4  -8   3   39.20    6.70
   4  -8   3   44.80    7.40
  -5   8  -3  378.56   18.00
  -5   8  -3  352.66   19.30
  -5   8  -3  382.56   17.80
   5  -8   3  334.57   15.90
   5  -8   3  359.26   16.00
   5  -8   3  368.56   20.40
  -6   8  -3   15.20    4.00
  -6   8  -3   22.60    5.70
   6  -8   3   26.20    5.20
   6  -8   3   26.80    6.70
   6  -8   3   15.80    4.80
   6  -8   3   19.40    4.20
  -7   8  -3    1.60    2.90
  -7   8  -3   -0.70    2.20
   7  -8   3   -3.00    2.00
   7  -8   3    2.50    2.30
   7  -8   3   -0.20    2.80
   7  -8   3    0.70    3.00
   7  -8   3    0.00    2.50
  -8   8  -3  136.89   12.70
  -8   8  -3  141.69   13.70
   8  -8   3  159.98   14.60
   8  -8   3  155.18   15.00
   8  -8   3  142.59   15.60
   8  -8   3  155.78   13.00
   8   7  -3    7.70    4.10
   8   7  -3    9.90    4.30
   8   7  -3   21.60    5.90
  -8  -7   3   11.40    3.80
  -8  -7   3   13.30    4.20
  -8  -7   3    7.80    3.80
   7   7  -3   41.20    7.00
   7   7  -3   61.39    9.10
   7   7  -3   38.10    7.20
   7   7  -3   46.40    6.70
  -7  -7   3   49.60    6.00
  -7  -7   3   41.10    7.40
  -7  -7   3   37.70    4.10
   6   7  -3  312.47   26.80
   6   7  -3  270.57   15.90
   6   7  -3  274.17   14.40
  -6  -7   3  300.27   17.80
  -6  -7   3  238.58   12.90
  -6  -7   3  259.27   11.60
  -6  -7   3  278.37   13.20
   5   7  -3   26.00    4.40
   5   7  -3   20.90    5.00
   5   7  -3   14.30    3.80
   5   7  -3   25.20    5.40
  -5  -7   3   21.10    3.80
  -5  -7   3   22.90    4.80
  -5  -7   3   14.70    3.50
   4   7  -3  951.70   31.20
   4   7  -3  926.01   29.10
   4   7  -3  937.91   26.30
   4   7  -3  914.71   29.80
   4   7  -3  893.81   25.40
  -4  -7   3  893.11   27.50
  -4  -7   3  938.11   23.50
  -4  -7   3  948.41   26.30
   3   7  -3   19.60    4.30
   3   7  -3   22.70    4.90
   3   7  -3   20.00    3.70
   3   7  -3   17.70    3.20
   3   7  -3   23.70    4.60
  -3  -7   3   14.90    2.50
  -3  -7   3   17.70    3.90
  -3  -7   3   11.30    3.40
   2   7  -3   34.60    5.60
   2   7  -3   33.20    5.50
   2   7  -3   26.40    4.10
   2   7  -3   31.60    5.10
   2   7  -3   27.30    4.20
  -2  -7   3   32.00    4.70
  -2  -7   3   29.40    2.40
  -2  -7   3   35.10    3.40
  -2  -7   3   32.10    4.90
   1   7  -3  374.46   13.60
   1   7  -3  366.86   14.70
   1   7  -3  367.86   16.70
  -1  -7   3  383.56   13.50
  -1  -7   3  381.96   16.60
  -1  -7   3  381.26   16.50
  -1  -7   3  341.87   16.70
   0   7  -3  858.71   17.40
   0   7  -3  835.02   23.10
   0   7  -3  918.31   27.30
   0   7  -3  800.22   24.80
   0  -7   3  840.32   27.00
   0  -7   3  877.31   24.30
   0  -7   3  871.81   27.40
   0  -7   3  831.12   26.60
  -1   7  -3    2.10    1.10
  -1   7  -3    2.20    1.60
  -1   7  -3    0.20    1.10
  -1   7  -3    1.90    2.00
   1  -7   3    1.40    1.80
   1  -7   3    2.60    1.80
   1  -7   3    2.00    0.70
   1  -7   3   -0.60    1.60
  -2   7  -3  688.33   24.40
  -2   7  -3  691.23   23.10
  -2   7  -3  682.33   24.10
  -2   7  -3  718.23   19.40
  -2   7  -3  665.03   22.70
   2  -7   3  701.33   23.90
   2  -7   3  684.83   17.40
   2  -7   3  679.13   21.50
  -3   7  -3  254.07   17.40
  -3   7  -3  306.57   14.50
  -3   7  -3  287.67   15.40
  -3   7  -3  266.27   12.10
   3  -7   3  278.07   11.20
   3  -7   3  260.87   14.70
   3  -7   3  289.77   12.00
   3  -7   3  292.17   16.70
  -4   7  -3   54.09    6.80
  -4   7  -3   44.30    5.80
  -4   7  -3   37.30    5.70
   4  -7   3   45.90    6.70
   4  -7   3   57.59    5.60
   4  -7   3   52.59    7.50
  -5   7  -3   70.99    8.40
  -5   7  -3   72.89    7.70
   5  -7   3   75.79    7.00
   5  -7   3   59.49    6.30
   5  -7   3   74.89    9.00
   5  -7   3   76.09    8.90
  -6   7  -3  896.81   30.40
  -6   7  -3  898.11   40.40
   6  -7   3  955.70   34.70
   6  -7   3  907.41   34.20
   6  -7   3  903.51   28.90
   6  -7   3  846.92   24.80
  -7   7  -3    1.30    2.20
  -7   7  -3    0.70    2.70
   7  -7   3   -1.00    1.40
   7  -7   3   -4.60    1.90
   7  -7   3    2.80    2.30
   7  -7   3   -0.60    1.90
   7  -7   3   -0.10    2.00
   7  -7   3   -2.90    1.50
  -8   7  -3    0.30    2.10
  -8   7  -3    0.10    1.90
   8  -7   3    0.90    2.50
   8  -7   3   -1.20    3.80
   8  -7   3    1.00    2.60
   8  -7   3   -1.50    1.70
  -9   7  -3  110.69   12.40
  -9   7  -3  129.49   13.10
   9  -7   3  112.79   12.20
   9  -7   3  129.69   13.50
   9  -7   3   94.89   13.00
   9  -7   3  109.39   11.80
   9   6  -3    4.30    3.40
   9   6  -3    2.70    2.70
  -9  -6   3    2.90    2.90
  -9  -6   3    1.70    2.70
  -9  -6   3    4.60    2.50
  -9  -6   3    4.60    3.00
   8   6  -3   30.60    6.80
   8   6  -3   21.70    5.40
   8   6  -3   14.20    3.90
  -8  -6   3   26.80    3.80
  -8  -6   3   20.30    3.90
  -8  -6   3   17.20    4.60
  -8  -6   3   37.10    5.50
  -8  -6   3   28.70    5.90
   7   6  -3   12.20    5.10
   7   6  -3   34.00    6.70
   7   6  -3   13.50    4.00
   7   6  -3   13.80    4.30
  -7  -6   3   14.70    2.90
  -7  -6   3   17.10    2.30
  -7  -6   3   20.50    3.10
  -7  -6   3   21.40    4.20
  -7  -6   3   14.80    4.20
   6   6  -3  233.48   14.90
   6   6  -3  228.18   14.40
   6   6  -3  243.78   14.80
   6   6  -3  235.88   13.20
  -6  -6   3  216.78    9.20
  -6  -6   3  237.88    7.70
  -6  -6   3  252.97   11.60
  -6  -6   3  231.28    7.30
  -6  -6   3  245.78   12.80
  -6  -6   3  257.07   15.40
   5   6  -3    1.30    2.10
   5   6  -3    1.40    2.10
   5   6  -3   -1.60    1.60
   5   6  -3    0.80    2.10
  -5  -6   3   -0.10    1.60
  -5  -6   3    0.40    1.40
  -5  -6   3    1.60    1.50
  -5  -6   3    0.20    1.20
   4   6  -3  765.72   22.90
   4   6  -3  772.62   26.30
   4   6  -3  713.73   24.30
   4   6  -3  748.53   25.20
  -4  -6   3  736.93   23.50
  -4  -6   3  759.72   21.30
  -4  -6   3  752.12   20.30
  -4  -6   3  712.13   25.90
   3   6  -3   96.19    6.30
   3   6  -3  101.09    7.00
   3   6  -3   97.29    7.80
   3   6  -3  103.49    8.70
   3   6  -3   98.29    8.10
  -3  -6   3  106.89    5.60
  -3  -6   3   93.09    6.70
  -3  -6   3  100.69    7.60
  -3  -6   3   84.29    8.60
   2   6  -3  688.93   19.70
   2   6  -3  709.13   21.70
   2   6  -3  660.23   19.20
   2   6  -3  693.23   22.40
   2   6  -3  738.93   23.60
  -2  -6   3  655.83   21.60
  -2  -6   3  708.13   16.50
  -2  -6   3  657.83   23.90
  -2  -6   3  667.83   14.90
  -2  -6   3  713.33   20.80
   1   6  -3    1.30    1.20
   1   6  -3    1.10    1.00
   1   6  -3    1.00    1.10
   1   6  -3    1.70    1.80
  -1  -6   3    0.70    1.10
  -1  -6   3    3.60    2.20
  -1  -6   3    2.60    1.30
  -1  -6   3    3.90    1.90
   0   6  -3 1104.79   21.90
   0   6  -3 1135.19   26.80
   0   6  -3 1098.09   29.50
   0   6  -3 1065.79   28.10
   0  -6   3 1090.79   29.70
   0  -6   3 1064.59   29.90
   0  -6   3 1121.09   27.30
   0  -6   3 1055.99   29.70
  -1   6  -3  192.78   10.60
  -1   6  -3  194.78   10.00
  -1   6  -3  200.18   10.70
  -1   6  -3  197.18    7.90
   1  -6   3  207.48   10.60
   1  -6   3  200.18    6.20
   1  -6   3  184.18   10.10
  -2   6  -3  744.13   19.90
  -2   6  -3  736.33   23.80
  -2   6  -3  711.43   22.60
  -2   6  -3  723.13   22.40
  -2   6  -3  739.63   24.30
   2  -6   3  735.13   23.60
   2  -6   3  724.53   21.10
   2  -6   3  735.13   17.70
   2  -6   3  707.03   24.20
  -3   6  -3    2.90    1.50
  -3   6  -3    8.50    2.50
  -3   6  -3    5.20    2.10
  -3   6  -3    7.50    2.80
  -3   6  -3    3.90    1.80
   3  -6   3    5.80    1.90
   3  -6   3    4.20    2.20
   3  -6   3    1.80    1.70
   3  -6   3    8.20    2.00
  -4   6  -3 1093.59   30.00
  -4   6  -3 1085.49   32.80
  -4   6  -3 1114.39   34.60
   4  -6   3 1074.69   24.80
   4  -6   3 1116.69   28.50
   4  -6   3 1076.29   34.30
   4  -6   3 1141.29   34.10
  -5   6  -3   74.09    7.50
  -5   6  -3   81.49    8.10
   5  -6   3   80.69    8.90
   5  -6   3   79.19    3.90
   5  -6   3   70.59    6.80
   5  -6   3   83.29    8.90
   5  -6   3   75.59    6.20
  -6   6  -3  465.75   21.40
  -6   6  -3  505.55   21.10
   6  -6   3  463.85   19.50
   6  -6   3  508.75   23.10
   6  -6   3  460.75   22.50
   6  -6   3  466.65   15.20
  -7   6  -3  240.38   18.10
  -7   6  -3  297.07   16.80
   7  -6   3  288.97   16.10
   7  -6   3  263.67    9.30
   7  -6   3  267.07    9.20
   7  -6   3  286.07   17.40
   7  -6   3  273.17   21.10
   7  -6   3  248.98   23.30
  -8   6  -3   84.49    9.60
  -8   6  -3   82.89   10.00
   8  -6   3   77.49    9.80
   8  -6   3   71.89    9.10
   8  -6   3   58.09    8.70
   8  -6   3   81.79   10.90
  -9   6  -3   21.30    5.50
  -9   6  -3   27.00    6.20
   9  -6   3   24.20    6.40
   9  -6   3   36.50    7.40
   9  -6   3   30.50    7.20
   9  -6   3   34.10    7.70
 -10  -5   3   -2.00    3.20
 -10  -5   3   -1.00    2.10
 -10  -5   3    2.50    2.50
 -10  -5   3    6.10    3.10
   9   5  -3   46.20    8.90
  -9  -5   3   61.99    7.90
  -9  -5   3   44.60    6.20
  -9  -5   3   39.20    5.80
  -9  -5   3   39.10    7.00
   8   5  -3   80.89    9.30
   8   5  -3  102.09   10.70
  -8  -5   3   96.69    9.10
  -8  -5   3   91.19    7.30
  -8  -5   3   82.19    8.90
  -8  -5   3   99.29    7.70
   7   5  -3    2.90    2.40
   7   5  -3    2.40    2.40
   7   5  -3    2.20    2.70
   7   5  -3    3.40    2.30
  -7  -5   3    4.30    2.40
  -7  -5   3    1.60    1.60
  -7  -5   3    9.50    3.70
  -7  -5   3    3.00    1.70
   6   5  -3   15.10    4.10
   6   5  -3   16.70    4.00
   6   5  -3   11.10    3.40
   6   5  -3   11.10    3.40
  -6  -5   3   19.30    3.50
  -6  -5   3   11.20    2.90
  -6  -5   3   16.30    4.50
  -6  -5   3   19.20    3.20
  -6  -5   3   15.00    2.20
  -6  -5   3    9.40    2.70
   5   5  -3  621.24   23.20
   5   5  -3  635.24   23.10
   5   5  -3  613.34   22.50
   5   5  -3  617.24   21.00
  -5  -5   3  601.74   17.80
  -5  -5   3  641.04   16.00
  -5  -5   3  625.84   16.70
  -5  -5   3  638.84   23.60
  -5  -5   3  621.14   19.90
  -5  -5   3  619.34   19.80
  -5  -5   3  627.74   15.20
  -5  -5   3  606.44   23.20
   4   5  -3  116.29    8.00
   4   5  -3  118.89    8.90
   4   5  -3  129.79    9.20
  -4  -5   3  112.99    9.50
  -4  -5   3  109.39    8.40
  -4  -5   3  123.39    7.00
  -4  -5   3  132.79    7.00
  -4  -5   3  124.39    9.20
  -4  -5   3  134.89    5.20
  -4  -5   3  121.49    4.50
   3   5  -3   36.10    4.30
   3   5  -3   45.50    4.00
   3   5  -3   35.20    4.70
   3   5  -3   49.70    5.90
   3   5  -3   42.70    5.20
  -3  -5   3   36.10    3.40
  -3  -5   3   48.10    4.20
  -3  -5   3   38.30    4.50
   2   5  -3 1375.66   32.80
   2   5  -3 1380.16   31.00
   2   5  -3 1365.66   33.90
   2   5  -3 1369.76   29.40
   2   5  -3 1319.87   32.80
  -2  -5   3 1338.57   30.10
  -2  -5   3 1287.67   32.90
  -2  -5   3 1358.26   35.60
  -2  -5   3 1375.76   25.80
  -2  -5   3 1355.26   25.60
  -2  -5   3 1374.16   32.90
   1   5  -3  597.14   18.90
   1   5  -3  599.74   19.40
   1   5  -3  606.24   15.20
   1   5  -3  594.24   17.10
  -1  -5   3  611.64   20.40
  -1  -5   3  610.14   12.90
  -1  -5   3  584.54   17.50
  -1  -5   3  615.64   19.40
  -1  -5   3  611.04   15.60
   0   5  -3  718.53   21.90
   0   5  -3  743.03   19.30
   0   5  -3  741.33   20.30
   0   5  -3  764.72   16.50
   0  -5   3  737.73   17.00
   0  -5   3  776.72   20.10
   0  -5   3  731.23   22.10
   0  -5   3  757.52   22.40
  -1   5  -3  474.95   16.90
  -1   5  -3  468.75   15.50
  -1   5  -3  457.95   13.00
  -1   5  -3  481.45   16.40
  -1   5  -3  479.35   16.20
   1  -5   3  478.55   17.30
   1  -5   3  448.56   15.70
   1  -5   3  466.05   10.40
   1  -5   3  457.95   15.80
  -2   5  -3 1275.17   31.00
  -2   5  -3 1309.07   29.40
  -2   5  -3 1273.67   33.10
  -2   5  -3 1313.37   33.40
  -2   5  -3 1299.37   32.20
   2  -5   3 1298.77   33.60
   2  -5   3 1300.17   26.80
   2  -5   3 1354.26   33.40
   2  -5   3 1298.77   35.00
   2  -5   3 1312.47   30.20
  -3   5  -3   50.89    5.50
  -3   5  -3   63.29    6.50
  -3   5  -3   55.49    5.30
  -3   5  -3   62.39    6.30
   3  -5   3   64.29    6.50
   3  -5   3   55.89    4.50
   3  -5   3   62.49    4.70
   3  -5   3   60.19    6.10
  -4   5  -3  281.57   14.10
  -4   5  -3  279.77   15.00
  -4   5  -3  269.27   11.60
  -4   5  -3  275.07   14.00
  -4   5  -3  289.17   13.20
   4  -5   3  275.57   14.50
   4  -5   3  270.27   14.20
   4  -5   3  292.87   12.20
   4  -5   3  278.67    9.60
   4  -5   3  279.57   14.90
  -5   5  -3   19.00    3.90
  -5   5  -3   31.80    5.40
  -5   5  -3   22.50    4.60
   5  -5   3   21.60    4.90
   5  -5   3   22.70    4.20
   5  -5   3   24.10    2.30
   5  -5   3   30.60    3.50
   5  -5   3   15.30    4.30
  -6   5  -3   19.00    4.50
  -6   5  -3   17.70    4.20
  -6   5  -3   10.50    3.40
   6  -5   3   18.80    2.60
   6  -5   3    6.10    2.50
   6  -5   3   14.90    2.50
   6  -5   3   11.10    3.50
   6  -5   3   14.70    4.50
   6  -5   3   21.90    5.00
  -7   5  -3   25.70    5.60
  -7   5  -3   30.80    5.90
   7  -5   3   32.10    6.40
   7  -5   3   28.60    6.60
   7  -5   3   24.30    5.40
   7  -5   3   28.70    6.10
  -8   5  -3  403.36   22.30
  -8   5  -3  426.16   21.50
   8  -5   3  437.36   24.10
   8  -5   3  430.36   21.40
   8  -5   3  421.16   21.00
   8  -5   3  437.36   22.80
  -9   5  -3    5.70    3.50
  -9   5  -3    1.70    2.80
   9  -5   3    3.60    2.50
   9  -5   3    2.20    2.50
   9  -5   3    2.90    2.90
   9  -5   3    4.70    3.60
 -10   5  -3  133.79   12.80
 -10   5  -3  155.78   14.50
  10  -5   3  103.09   13.30
  10  -5   3  116.49   12.10
  10  -5   3  140.59   13.70
  10  -5   3  119.49   13.60
 -10  -4   3    0.10    1.80
 -10  -4   3   -1.00    1.90
 -10  -4   3    1.10    2.30
 -10  -4   3   -4.60    2.00
   9   4  -3   40.60    7.70
  -9  -4   3   37.70    6.10
  -9  -4   3   28.90    5.10
  -9  -4   3   25.40    4.90
  -9  -4   3   34.10    5.90
   8   4  -3   -0.80    2.70
   8   4  -3    8.80    3.20
  -8  -4   3    2.60    2.40
  -8  -4   3    6.10    2.40
  -8  -4   3    8.90    3.30
  -8  -4   3    6.90    3.00
   7   4  -3  431.96   19.20
   7   4  -3  434.56   20.40
   7   4  -3  446.66   20.70
  -7  -4   3  441.06   19.00
  -7  -4   3  441.16   16.80
  -7  -4   3  435.86   15.60
  -7  -4   3  472.05   19.40
  -7  -4   3  415.86   18.50
   6   4  -3  153.68   11.10
   6   4  -3  151.28   10.40
   6   4  -3  127.49   10.10
   6   4  -3  133.39   10.50
  -6  -4   3  137.39    9.40
  -6  -4   3  142.39   10.20
  -6  -4   3  138.39    7.70
  -6  -4   3  124.09    9.00
  -6  -4   3  152.98   10.90
  -6  -4   3  149.88    8.50
   5   4  -3  419.76   17.40
   5   4  -3  406.56   17.30
   5   4  -3  423.96   17.90
   5   4  -3  401.86   16.30
  -5  -4   3  419.16   13.10
  -5  -4   3  422.26   16.50
  -5  -4   3  411.06   17.30
  -5  -4   3  426.06   17.60
  -5  -4   3  398.26   16.60
  -5  -4   3  430.16   10.80
  -5  -4   3  403.86   15.30
  -5  -4   3  409.56   15.50
  -5  -4   3  421.86   18.60
   4   4  -3    2.40    1.50
   4   4  -3    1.80    1.80
   4   4  -3    5.70    2.20
   4   4  -3    4.60    1.90
  -4  -4   3    9.30    2.40
  -4  -4   3    3.30    1.20
  -4  -4   3   -0.20    1.40
  -4  -4   3    1.50    1.20
  -4  -4   3    0.80    1.40
  -4  -4   3   -0.70    1.60
  -4  -4   3    2.50    1.00
  -4  -4   3   -0.30    1.00
   3   4  -3  476.25   22.40
   3   4  -3  434.06   16.30
   3   4  -3  427.96   15.60
   3   4  -3  439.56   14.80
  -3  -4   3  446.46   12.80
  -3  -4   3  421.26   10.60
  -3  -4   3  437.76   17.40
  -3  -4   3  429.16   12.20
  -3  -4   3  436.76   15.70
   2   4  -3   30.20    3.90
   2   4  -3   25.30    3.50
   2   4  -3   28.20    3.40
   2   4  -3   25.40    2.50
   2   4  -3   21.00    3.50
  -2  -4   3   22.70    2.00
  -2  -4   3   27.70    2.70
  -2  -4   3   22.90    3.40
  -2  -4   3   23.90    1.90
  -2  -4   3   28.40    4.20
   1   4  -3 6507.95  112.39
   1   4  -3 6572.14  107.59
   1   4  -3 6315.47  108.59
   1   4  -3 6524.05  110.39
  -1  -4   3 6497.35  114.79
  -1  -4   3 6600.54  109.09
  -1  -4   3 6579.14  107.59
  -1  -4   3 6596.54  114.59
  -1  -4   3 6524.95  116.89
  -1  -4   3 6402.96  111.29
   0   4  -3  174.28    8.50
   0   4  -3  176.68    7.40
   0   4  -3  183.98    6.40
   0   4  -3  183.98    7.90
   0  -4   3  176.18    9.00
   0  -4   3  172.98    6.50
   0  -4   3  178.48    9.00
   0  -4   3  175.58    7.60
  -1   4  -3 1919.71   40.10
  -1   4  -3 1953.90   37.70
  -1   4  -3 1924.61   40.90
  -1   4  -3 1993.70   40.50
   1  -4   3 2003.10   33.80
   1  -4   3 1953.30   40.80
   1  -4   3 1884.91   43.00
   1  -4   3 1970.70   40.80
   1  -4   3 1927.71   38.50
   1  -4   3 1991.50   42.60
  -2   4  -3   34.00    4.10
  -2   4  -3   36.80    3.80
  -2   4  -3   26.40    3.70
  -2   4  -3   27.20    3.90
  -2   4  -3   32.30    3.50
   2  -4   3   30.70    3.50
   2  -4   3   28.70    4.20
   2  -4   3   31.40    4.10
   2  -4   3   32.50    2.80
   2  -4   3   30.50    3.90
  -3   4  -3  508.55   14.80
  -3   4  -3  497.45   16.40
  -3   4  -3  523.55   18.60
  -3   4  -3  496.85   18.50
  -3   4  -3  489.75   17.60
   3  -4   3  519.25   15.00
   3  -4   3  485.25   19.00
   3  -4   3  510.85   18.10
   3  -4   3  524.55   18.60
  -4   4  -3    2.90    1.90
  -4   4  -3    0.90    1.40
  -4   4  -3    0.40    1.00
  -4   4  -3    4.20    1.60
  -4   4  -3    3.60    1.80
   4  -4   3    2.40    1.50
   4  -4   3    2.40    1.60
   4  -4   3    1.10    1.30
  -5   4  -3 2321.87   52.89
  -5   4  -3 2302.77   56.29
  -5   4  -3 2331.97   52.69
  -5   4  -3 2389.66   51.29
  -5   4  -3 2362.66   54.69
   5  -4   3 2361.46   55.19
   5  -4   3 2380.36   44.00
   5  -4   3 2453.75   55.19
   5  -4   3 2318.37   53.59
   5  -4   3 2334.87   44.10
  -6   4  -3   30.00    5.20
  -6   4  -3   29.80    5.40
  -6   4  -3   29.60    4.80
   6  -4   3   43.40    6.20
   6  -4   3   26.50    5.30
   6  -4   3   35.60    6.30
   6  -4   3   35.60    5.60
   6  -4   3   28.00    5.10
  -7   4  -3    0.50    1.60
  -7   4  -3    2.60    2.00
   7  -4   3    1.00    2.10
   7  -4   3    4.80    2.80
   7  -4   3    0.50    1.60
   7  -4   3    1.40    1.60
  -8   4  -3  161.38   12.10
  -8   4  -3  178.48   13.70
   8  -4   3  178.18   14.80
   8  -4   3  166.38   12.50
   8  -4   3  190.58   13.80
   8  -4   3  173.48   13.80
  -9   4  -3  321.97   19.20
   9  -4   3  327.37   21.30
   9  -4   3  349.17   20.00
   9  -4   3  326.77   18.20
   9  -4   3  318.07   19.80
 -10   4  -3   -0.50    2.70
 -10   4  -3    3.70    3.70
  10  -4   3   -3.90    2.40
  10  -4   3    0.00    2.00
  10  -4   3    1.40    2.50
 -10  -3   3    0.10    2.60
 -10  -3   3   -1.40    2.20
 -10  -3   3   -3.30    1.80
 -10  -3   3    0.00    2.00
  -9  -3   3  158.28   12.20
  -9  -3   3  148.09   10.10
  -9  -3   3  143.69   10.70
  -9  -3   3  153.18   11.50
   8   3  -3  149.49   12.20
  -8  -3   3  145.69   11.20
  -8  -3   3  137.89   10.40
  -8  -3   3  160.78    9.70
  -8  -3   3  159.88   10.90
   7   3  -3   48.90    7.00
   7   3  -3   48.80    6.80
   7   3  -3   51.69    6.80
   7   3  -3   56.19    6.90
  -7  -3   3   59.89    7.00
  -7  -3   3   72.09    7.30
  -7  -3   3   53.29    6.20
  -7  -3   3   55.49    6.90
  -7  -3   3   56.79    5.40
  -7  -3   3   50.69    6.70
   6   3  -3  200.68   12.20
   6   3  -3  193.88   12.20
   6   3  -3  230.78   12.40
   6   3  -3  194.18   11.80
  -6  -3   3  199.78    9.10
  -6  -3   3  208.88   11.80
  -6  -3   3  213.28   12.30
  -6  -3   3  197.88   11.10
  -6  -3   3  197.18   12.50
  -6  -3   3  231.18   12.60
  -6  -3   3  235.38   12.30
  -6  -3   3  207.08   11.70
   5   3  -3  224.78   11.70
   5   3  -3  195.78   10.10
   5   3  -3  192.08   11.20
   5   3  -3  202.08   11.00
   5   3  -3  184.68   11.10
  -5  -3   3  178.98    9.70
  -5  -3   3  189.98   10.50
  -5  -3   3  184.58   10.50
  -5  -3   3  197.88    8.10
  -5  -3   3  199.58   10.90
  -5  -3   3  190.98   10.10
  -5  -3   3  176.78   12.30
  -5  -3   3  181.28   10.00
  -5  -3   3  176.08   11.10
   4   3  -3  106.39    7.40
   4   3  -3   98.49    6.40
   4   3  -3   91.49    7.30
  -4  -3   3   92.19    6.60
  -4  -3   3  102.39    7.90
  -4  -3   3   99.79    6.30
  -4  -3   3   89.99    6.80
  -4  -3   3   90.89    6.40
  -4  -3   3   96.89    4.10
  -4  -3   3   97.09    7.40
  -4  -3   3  102.09    5.00
  -4  -3   3  108.69    7.40
   3   3  -3 1571.74   34.80
   3   3  -3 1596.14   35.50
   3   3  -3 1533.55   36.10
   3   3  -3 1578.64   35.60
   3   3  -3 1588.44   32.20
  -3  -3   3 1572.94   30.70
  -3  -3   3 1585.74   34.00
  -3  -3   3 1561.14   36.40
  -3  -3   3 1588.74   35.60
  -3  -3   3 1589.64   29.60
  -3  -3   3 1566.64   35.00
  -3  -3   3 1578.44   32.20
   2   3  -3  749.82   19.70
   2   3  -3  729.73   15.30
   2   3  -3  741.63   19.30
   2   3  -3  722.03   19.80
   2   3  -3  758.42   20.70
  -2  -3   3  732.73   21.20
  -2  -3   3  757.72   21.80
  -2  -3   3  747.23   15.60
  -2  -3   3  727.53   15.90
  -2  -3   3  752.12   16.00
   1   3  -3 1277.57   24.80
   1   3  -3 1322.67   28.00
   1   3  -3 1295.57   25.00
   1   3  -3 1304.57   28.90
   1   3  -3 1231.78   24.30
  -1  -3   3 1242.28   25.30
  -1  -3   3 1324.87   28.50
  -1  -3   3 1328.77   28.80
  -1  -3   3 1281.57   30.30
  -1  -3   3 1303.87   24.80
   0   3  -3 1556.44   30.70
   0   3  -3 1554.54   29.70
   0   3  -3 1540.45   32.40
   0   3  -3 1559.84   30.80
   0  -3   3 1561.84   30.80
   0  -3   3 1529.25   33.40
   0  -3   3 1593.54   33.80
   0  -3   3 1546.65   29.90
   0  -3   3 1534.05   32.60
  -1   3  -3 3532.35   64.09
  -1   3  -3 3420.46   57.49
  -1   3  -3 3472.95   61.59
  -1   3  -3 3444.66   63.69
  -1   3  -3 3416.76   62.29
   1  -3   3 3334.27   64.59
   1  -3   3 3532.75   62.19
   1  -3   3 3495.25   65.99
   1  -3   3 3446.66   63.49
  -2   3  -3  394.06   13.60
  -2   3  -3  383.36   12.40
  -2   3  -3  360.66   10.40
  -2   3  -3  387.26   13.90
  -2   3  -3  392.26   11.70
  -2   3  -3  370.76   13.30
   2  -3   3  396.56   14.50
   2  -3   3  381.86   13.60
   2  -3   3  376.26   13.50
   2  -3   3  385.96   10.70
   2  -3   3  388.76   13.10
  -3   3  -3 4746.02   82.29
  -3   3  -3 4583.94   84.19
  -3   3  -3 4700.73   85.29
  -3   3  -3 4494.45   85.69
   3  -3   3 4504.85   84.89
   3  -3   3 4566.44   85.49
   3  -3   3 4546.45   86.19
   3  -3   3 4675.73   82.19
   3  -3   3 4634.34   86.99
  -4   3  -3  451.15   15.30
  -4   3  -3  418.96   16.50
  -4   3  -3  431.76   16.00
  -4   3  -3  464.65   16.30
   4  -3   3  442.76   16.30
   4  -3   3  443.86   17.10
   4  -3   3  443.46   11.70
   4  -3   3  446.26   15.30
  -5   3  -3  642.94   20.90
  -5   3  -3  627.24   20.60
  -5   3  -3  604.54   21.90
  -5   3  -3  644.44   21.50
   5  -3   3  657.53   24.00
   5  -3   3  627.14   20.80
   5  -3   3  619.34   13.20
   5  -3   3  620.44   15.50
   5  -3   3  640.44   13.40
   5  -3   3  621.14   22.30
   5  -3   3  629.54   21.90
   5  -3   3  613.64   21.00
  -6   3  -3  382.86   17.00
  -6   3  -3  373.46   20.20
  -6   3  -3  312.87   14.80
   6  -3   3  381.06   17.60
   6  -3   3  366.86   16.40
   6  -3   3  328.87   15.80
   6  -3   3  323.87   17.40
   6  -3   3  330.37   18.00
   6  -3   3  354.56   10.50
  -7   3  -3  358.76   16.70
  -7   3  -3  343.47   17.50
   7  -3   3  393.66   19.00
   7  -3   3  375.46   10.40
   7  -3   3  386.16   18.20
   7  -3   3  377.16   17.50
   7  -3   3  376.76   20.00
   7  -3   3  336.97   16.60
  -8   3  -3   21.90    4.70
  -8   3  -3   32.50    5.90
   8  -3   3   35.70    6.30
   8  -3   3   30.50    5.80
   8  -3   3   33.10    6.30
   8  -3   3   37.10    7.00
  -9   3  -3  481.15   23.20
  -9   3  -3  468.05   21.00
   9  -3   3  411.36   23.90
   9  -3   3  458.25   21.00
   9  -3   3  478.25   25.20
 -10   3  -3    2.30    2.90
 -10   3  -3    0.50    2.30
  10  -3   3   -2.20    1.90
  10  -3   3    0.30    2.50
  10   2  -3    0.30    2.80
 -10  -2   3   -2.00    2.00
 -10  -2   3   -2.70    2.00
 -10  -2   3   -0.80    1.90
   9   2  -3  396.16   21.20
  -9  -2   3  369.96   13.00
  -9  -2   3  381.16   16.70
  -9  -2   3  402.56   19.80
  -9  -2   3  404.86   19.80
  -9  -2   3  412.26   17.70
   8   2  -3  161.08   12.50
   8   2  -3  157.88   12.00
  -8  -2   3  147.99   11.20
  -8  -2   3  150.28    9.70
  -8  -2   3  146.09   11.20
  -8  -2   3  147.99   11.60
  -8  -2   3  135.09    7.00
  -8  -2   3  160.28   10.30
   7   2  -3   29.70    5.30
   7   2  -3   20.10    4.40
   7   2  -3   25.00    5.00
  -7  -2   3   12.90    3.20
  -7  -2   3   23.90    3.90
  -7  -2   3   19.30    3.90
  -7  -2   3   18.50    2.60
  -7  -2   3   18.00    4.50
  -7  -2   3   22.30    4.80
  -7  -2   3   19.90    4.50
   6   2  -3 1087.79   30.70
   6   2  -3 1085.49   31.60
   6   2  -3 1074.69   31.10
   6   2  -3 1088.59   31.30
  -6  -2   3 1058.89   29.60
  -6  -2   3 1058.09   30.70
  -6  -2   3 1035.60   29.30
  -6  -2   3 1069.59   30.40
  -6  -2   3 1140.09   31.30
  -6  -2   3 1089.69   31.00
  -6  -2   3 1072.99   26.20
  -6  -2   3 1070.49   30.20
  -6  -2   3 1089.49   30.20
  -6  -2   3 1057.49   30.00
   5   2  -3  367.36   15.50
   5   2  -3  381.56   15.00
   5   2  -3  386.96   15.60
   5   2  -3  364.86   15.30
  -5  -2   3  383.26   14.70
  -5  -2   3  368.26   15.50
  -5  -2   3  387.26   14.60
  -5  -2   3  396.66   12.10
  -5  -2   3  374.36   15.00
  -5  -2   3  379.16   14.80
  -5  -2   3  393.16   14.90
  -5  -2   3  378.56   14.90
   4   2  -3  128.29    8.00
   4   2  -3  124.39    8.00
   4   2  -3  136.09    8.10
   4   2  -3  132.49    8.40
   4   2  -3  130.69    7.50
  -4  -2   3  132.69    7.40
  -4  -2   3  135.39    7.50
  -4  -2   3  136.89    5.60
  -4  -2   3  132.59    8.00
  -4  -2   3  127.69    7.40
  -4  -2   3  139.89    8.20
  -4  -2   3  143.29    7.80
  -4  -2   3  133.09    8.40
  -4  -2   3  123.39    7.50
   3   2  -3 9408.56  157.78
   2   2  -3 4252.67   76.29
   2   2  -3 4176.98   75.89
   2   2  -3 4165.28   77.29
   2   2  -3 4323.57   76.99
   2   2  -3 4292.17   73.29
  -2  -2   3 4322.87   72.89
  -2  -2   3 4278.57   77.99
  -2  -2   3 4284.87   76.89
  -2  -2   3 4363.66   73.59
  -2  -2   3 4314.97   73.09
  -2  -2   3 4214.28   75.79
   1   2  -3    8.20    1.70
   1   2  -3    5.60    1.30
   1   2  -3    3.90    1.10
   1   2  -3   11.00    1.00
   1   2  -3    8.40    1.70
   1   2  -3    9.60    0.90
   1   2  -3    7.00    1.10
  -1  -2   3    8.10    1.90
  -1  -2   3    8.40    1.40
  -1  -2   3    4.60    1.20
  -1  -2   3   13.70    1.90
   0   2  -3 2922.31   53.09
   0   2  -3 2861.11   51.29
   0   2  -3 2986.30   52.29
   0   2  -3 2989.10   52.09
   0  -2   3 2919.71   54.29
   0  -2   3 2962.50   51.99
   0  -2   3 2936.91   54.69
   0  -2   3 2927.61   52.89
  -2   2  -3   96.89    4.50
  -2   2  -3   95.29    5.90
  -2   2  -3   91.29    5.40
  -2   2  -3   96.19    5.80
  -2   2  -3   95.69    4.80
   2  -2   3   98.89    4.90
   2  -2   3   94.09    6.80
   2  -2   3  101.89    5.80
   2  -2   3   99.59    6.30
  -3   2  -3 6826.52  118.09
  -3   2  -3 6616.54  119.19
  -3   2  -3 6717.23  116.39
   3  -2   3 6839.62  112.49
   3  -2   3 6651.33  119.59
   3  -2   3 6906.31  118.89
   3  -2   3 6780.92  117.89
  -4   2  -3 2260.17   49.60
  -4   2  -3 2294.67   47.30
  -4   2  -3 2318.17   48.70
  -4   2  -3 2294.97   47.70
   4  -2   3 2306.97   47.80
   4  -2   3 2394.46   49.70
   4  -2   3 2291.07   49.70
   4  -2   3 2331.27   49.60
   4  -2   3 2293.17   40.10
   4  -2   3 2368.56   48.10
   4  -2   3 2292.67   51.29
  -5   2  -3 1613.44   40.10
  -5   2  -3 1706.13   39.70
  -5   2  -3 1663.13   39.20
  -5   2  -3 1648.54   37.60
   5  -2   3 1625.04   39.20
   5  -2   3 1660.83   42.30
   5  -2   3 1565.94   39.80
   5  -2   3 1614.94   33.40
   5  -2   3 1649.33   39.10
   5  -2   3 1648.54   38.00
  -6   2  -3    4.00    1.90
  -6   2  -3    4.00    2.20
  -6   2  -3    6.10    2.60
  -6   2  -3    4.70    1.90
   6  -2   3    8.40    2.00
   6  -2   3    6.20    3.20
   6  -2   3    5.20    2.30
   6  -2   3    8.10    3.00
   6  -2   3    1.40    1.60
   6  -2   3    3.10    2.10
  -7   2  -3  550.54   19.90
  -7   2  -3  541.95   21.80
   7  -2   3  572.54   24.30
   7  -2   3  575.44   22.70
   7  -2   3  560.34   21.20
   7  -2   3  510.05   21.80
   7  -2   3  562.14   16.00
  -8   2  -3    2.70    2.20
  -8   2  -3    1.40    2.00
  -8   2  -3    0.80    1.40
   8  -2   3    0.20    1.80
   8  -2   3    5.20    2.50
   8  -2   3    2.40    1.40
   8  -2   3    4.60    2.50
   8  -2   3   -0.70    1.40
  -9   2  -3   20.70    4.80
  -9   2  -3   13.00    3.90
  -9   2  -3    8.80    2.70
   9  -2   3    5.40    3.20
   9  -2   3   13.20    2.90
   9  -2   3    7.00    3.30
 -10   2  -3    7.50    3.90
 -10   2  -3    4.00    2.90
 -10   2  -3    8.00    3.90
  10  -2   3   11.80    5.10
  10  -2   3    5.10    2.90
 -11   2  -3  118.29   10.80
 -11   2  -3  123.19   13.80
  11  -2   3  120.09   14.00
  11  -2   3  138.39   11.60
  11   1  -3   25.10    6.80
 -11  -1   3   29.80    5.50
 -11  -1   3   42.00    7.80
 -11  -1   3   40.80    7.20
  10   1  -3   22.60    5.90
 -10  -1   3   23.00    9.30
 -10  -1   3   12.10    3.70
 -10  -1   3   29.80    5.90
 -10  -1   3   20.60    5.30
 -10  -1   3   17.50    4.00
   9   1  -3    7.60    3.30
   9   1  -3    4.80    3.00
  -9  -1   3    4.00    2.70
  -9  -1   3    8.20    2.70
  -9  -1   3    4.10    2.20
  -9  -1   3   12.60    4.00
   8   1  -3  730.73   20.90
   8   1  -3  716.83   27.40
   8   1  -3  715.83   24.30
  -8  -1   3  717.93   22.60
  -8  -1   3  692.83   24.40
  -8  -1   3  715.13   26.40
  -8  -1   3  682.93   25.70
  -8  -1   3  680.83   20.00
  -8  -1   3  695.63   25.40
   7   1  -3   21.50    4.20
   7   1  -3   24.90    3.60
   7   1  -3   18.70    4.50
   7   1  -3   15.70    3.90
   7   1  -3   24.30    4.70
  -7  -1   3   28.10    4.70
  -7  -1   3   18.00    3.00
  -7  -1   3   18.20    4.30
  -7  -1   3   21.30    6.40
  -7  -1   3   13.40    3.70
  -7  -1   3   20.10    4.60
   6   1  -3  752.12   22.10
   6   1  -3  775.52   25.10
   6   1  -3  769.72   25.10
   6   1  -3  785.62   19.30
   6   1  -3  746.73   24.80
  -6  -1   3  757.02   23.70
  -6  -1   3  762.32   24.00
  -6  -1   3  739.23   23.50
  -6  -1   3  762.42   23.40
  -6  -1   3  732.63   23.90
  -6  -1   3  782.12   22.60
  -6  -1   3  753.82   23.00
  -6  -1   3  771.92   24.80
  -6  -1   3  740.83   24.50
  -6  -1   3  702.03   20.30
   5   1  -3  654.53   21.40
   5   1  -3  683.53   19.40
   5   1  -3  682.53   21.90
   5   1  -3  659.13   21.60
   5   1  -3  679.53   16.70
  -5  -1   3  694.73   20.50
  -5  -1   3  688.13   21.50
  -5  -1   3  692.73   21.30
  -5  -1   3  697.83   21.40
  -5  -1   3  678.23   20.90
  -5  -1   3  684.93   20.40
  -5  -1   3  691.23   20.20
  -5  -1   3  715.83   21.20
  -5  -1   3  677.93   16.30
  -5  -1   3  675.73   21.70
   4   1  -3   27.60    3.70
   4   1  -3   18.30    3.20
   4   1  -3   26.40    2.30
   4   1  -3   23.20    3.50
   4   1  -3   21.60    3.30
  -4  -1   3   21.10    3.20
  -4  -1   3   23.40    3.40
  -4  -1   3   23.30    3.40
  -4  -1   3   23.90    3.50
  -4  -1   3   22.90    3.40
  -4  -1   3   22.00    3.10
  -4  -1   3   22.30    3.10
  -4  -1   3   23.30    3.30
   3   1  -3   18.80    1.70
   3   1  -3   12.40    2.50
   3   1  -3   17.20    2.60
   3   1  -3   14.00    2.40
  -3  -1   3   12.50    2.30
  -3  -1   3   15.10    2.50
  -3  -1   3   19.30    2.90
  -3  -1   3   17.50    2.20
  -3  -1   3   17.50    2.60
  -3  -1   3   12.60    2.40
  -3  -1   3   14.10    2.30
   2   1  -3 1146.79   26.40
   2   1  -3 1189.48   26.10
   2   1  -3 1122.09   26.20
   2   1  -3 1171.38   24.90
   2   1  -3 1171.98   24.50
   2   1  -3 1167.28   21.60
  -2  -1   3 1232.58   26.90
  -2  -1   3 1158.08   25.70
  -2  -1   3 1175.78   21.80
  -2  -1   3 1210.18   23.50
  -2  -1   3 1183.08   24.50
  -2  -1   3 1203.38   24.50
  -2  -1   3 1131.29   26.20
   1   1  -3 3986.30   71.19
   1   1  -3 4157.08   69.69
   1   1  -3 4011.00   68.49
   1   1  -3 4129.29   69.49
   1   1  -3 3909.81   71.89
  -1  -1   3 4081.89   69.39
  -1  -1   3 4137.49   71.19
  -1  -1   3 4054.89   72.39
   0   1  -3  943.01   20.40
   0   1  -3  959.10   21.40
   0   1  -3  967.20   20.20
   0   1  -3  948.71   21.00
   0  -1   3  997.20   21.30
   0  -1   3  994.70   20.10
   0  -1   3 1000.50   21.80
   0  -1   3  965.50   20.40
  -1   1  -3 3274.07   59.79
  -1   1  -3 3240.58   58.29
  -1   1  -3 3309.37   57.99
  -1   1  -3 3325.57   59.09
  -1   1  -3 3302.97   55.89
   1  -1   3 3206.28   57.99
   1  -1   3 3272.47   59.89
   1  -1   3 3343.97   55.89
   1  -1   3 3311.57   58.59
   1  -1   3 3267.97   58.69
  -2   1  -3  505.85   15.40
  -2   1  -3  470.05   10.00
  -2   1  -3  458.85   12.80
  -2   1  -3  459.05   13.40
  -2   1  -3  475.05   12.80
   2  -1   3  457.05   14.50
   2  -1   3  445.26   12.80
   2  -1   3  424.16   13.80
   2  -1   3  487.75   11.70
  -3   1  -3  778.92   20.00
  -3   1  -3  790.32   20.50
  -3   1  -3  801.92   21.40
  -3   1  -3  770.82   19.10
  -3   1  -3  747.83   20.80
   3  -1   3  777.92   20.80
   3  -1   3  776.52   15.90
   3  -1   3  774.22   21.90
   3  -1   3  776.32   21.00
   3  -1   3  821.42   19.60
  -4   1  -3  534.75   17.70
  -4   1  -3  527.85   17.10
  -4   1  -3  522.05   15.40
  -4   1  -3  501.65   16.80
  -4   1  -3  528.85   17.30
   4  -1   3  535.95   17.80
   4  -1   3  538.15   17.30
   4  -1   3  508.45   17.30
   4  -1   3  531.15   15.80
  -5   1  -3 5121.09   95.49
  -5   1  -3 5057.99   91.09
  -5   1  -3 5301.27   95.29
  -5   1  -3 5059.89   94.29
  -5   1  -3 4975.20   95.39
   5  -1   3 4734.63   94.89
   5  -1   3 4933.71   91.39
   5  -1   3 5099.99   96.99
   5  -1   3 5084.69   97.89
   5  -1   3 5069.99   94.19
   5  -1   3 5135.99   89.99
  -6   1  -3  236.68   12.10
  -6   1  -3  237.08   12.70
  -6   1  -3  226.28   10.60
  -6   1  -3  221.78   12.40
  -6   1  -3  209.58   12.10
  -6   1  -3  231.28    8.50
   6  -1   3  216.48   13.30
   6  -1   3  227.68   10.00
   6  -1   3  227.58   10.90
  -7   1  -3  294.67   15.50
  -7   1  -3  313.07   11.00
  -7   1  -3  304.27   13.40
   7  -1   3  337.37   15.20
   7  -1   3  316.07   12.40
   7  -1   3  326.57   17.50
   7  -1   3  294.97   13.60
  -8   1  -3 1084.59   34.20
  -8   1  -3 1049.40   25.70
  -8   1  -3 1077.79   30.20
   8  -1   3 1069.19   36.60
   8  -1   3 1108.79   31.80
   8  -1   3 1052.69   27.50
   8  -1   3 1035.40   34.30
  -9   1  -3    3.90    3.80
  -9   1  -3    8.80    2.40
  -9   1  -3   14.20    3.70
   9  -1   3   11.50    3.10
   9  -1   3   10.10    4.40
   9  -1   3   13.50    3.10
 -10   1  -3   47.50    7.90
 -10   1  -3   31.10    4.80
 -10   1  -3   39.40    6.10
  10  -1   3   41.10    6.50
  10  -1   3   41.70    8.10
  10  -1   3   41.90    6.40
 -11   1  -3  348.07   17.60
 -11   1  -3  333.07   21.00
  11  -1   3  308.07   21.90
  11  -1   3  293.27   16.20
  11   0  -3    9.40    3.90
  11   0  -3   14.70    5.20
 -11   0   3   10.90    5.00
 -11   0   3    3.80    3.10
  10   0  -3  984.90   33.20
  10   0  -3 1050.49   38.90
 -10   0   3 1018.60   27.40
 -10   0   3  986.60   35.40
 -10   0   3 1049.79   37.70
 -10   0   3  907.31   29.80
   9   0  -3   24.30    4.90
   9   0  -3   10.50    3.30
  -9   0   3   12.90    3.90
  -9   0   3   16.80    4.00
  -9   0   3   12.20    3.80
  -9   0   3   15.50    4.80
  -9   0   3   19.30    4.10
   8   0  -3  152.28   12.30
   8   0  -3  138.19   10.00
  -8   0   3  144.79   11.50
  -8   0   3  145.19    9.60
  -8   0   3  138.89    8.80
  -8   0   3  142.79   12.10
   7   0  -3  127.89   10.60
   7   0  -3  125.19    8.00
   7   0  -3  116.89    8.40
  -7   0   3  133.39    8.30
  -7   0   3  124.49    9.00
  -7   0   3  126.29    9.50
  -7   0   3  127.29    7.80
  -7   0   3  141.29   10.50
  -7   0   3  135.99    8.80
   6   0  -3 1259.77   30.60
   6   0  -3 1237.58   34.60
   6   0  -3 1182.58   33.70
   6   0  -3 1252.57   29.40
   6   0  -3 1223.28   33.50
  -6   0   3 1232.98   31.10
  -6   0   3 1268.07   30.60
  -6   0   3 1240.38   33.90
  -6   0   3 1236.08   32.90
  -6   0   3 1205.68   32.10
  -6   0   3 1235.98   28.60
  -6   0   3 1208.68   30.90
  -6   0   3 1292.47   32.50
  -6   0   3 1222.88   38.30
   5   0  -3  325.87   14.90
   5   0  -3  326.47   11.80
   5   0  -3  318.37   12.20
   5   0  -3  310.07   14.00
   5   0  -3  308.17   13.80
   5   0  -3  318.37   11.30
  -5   0   3  327.47   17.00
  -5   0   3  310.47   13.70
  -5   0   3  314.87   12.80
  -5   0   3  318.77   12.30
  -5   0   3  322.57   13.40
  -5   0   3  317.37   12.90
  -5   0   3  327.27   12.70
  -5   0   3  316.77   13.40
  -5   0   3  319.67   12.40
  -5   0   3  324.57   11.10
   4   0  -3 6547.54  112.19
   4   0  -3 6644.34  116.59
   4   0  -3 6432.86  112.19
   4   0  -3 6412.66  116.99
   4   0  -3 6559.04  117.49
   4   0  -3 6647.44  114.89
  -4   0   3 6726.33  114.99
  -4   0   3 6596.94  115.39
  -4   0   3 6551.44  115.19
  -4   0   3 6665.93  111.79
  -4   0   3 6490.55  115.39
  -4   0   3 6568.14  117.79
  -4   0   3 6656.43  112.99
  -4   0   3 6838.12  117.39
  -4   0   3 6567.74  115.99
  -4   0   3 6597.34  112.99
   3   0  -3   96.09    4.70
   3   0  -3   86.79    8.00
   3   0  -3   93.49    4.30
   3   0  -3   83.79    5.70
   3   0  -3   85.99    5.60
   3   0  -3   97.39    5.70
  -3   0   3   97.59    6.10
  -3   0   3   91.69    5.40
  -3   0   3  101.29    5.50
  -3   0   3   96.99    5.80
  -3   0   3  105.79    6.10
  -3   0   3   96.39    4.50
  -3   0   3   90.19    4.40
   2   0  -3  136.39    6.20
   2   0  -3  139.19    5.40
   2   0  -3  143.49    4.60
   2   0  -3  149.49    6.90
   2   0  -3  150.58    6.60
   2   0  -3  153.58    6.90
   2   0  -3  142.29    5.90
  -2   0   3  145.69    4.60
  -2   0   3  143.99    5.70
  -2   0   3  141.69    4.50
  -2   0   3  143.19    6.70
  -2   0   3  145.29    4.40
   1   0  -3  936.61   20.30
   1   0  -3  957.50   21.20
   1   0  -3  960.60   17.20
   1   0  -3  915.11   18.80
   1   0  -3  916.91   18.30
  -1   0   3  939.91   17.00
  -1   0   3  905.81   20.20
  -1   0   3  941.11   20.30
  -1   0   3  952.80   18.10
  -1   0   3  901.61   18.80
  -1   0   3  882.11   19.80
  -1   0   3  925.11   21.20
   0   0  -3 3682.13   66.09
   0   0  -3 3833.02   64.19
   0   0  -3 3807.52   66.79
   0   0   3 3869.81   66.39
   0   0   3 3844.32   67.09
   0   0   3 3823.12   64.79
  -1   0  -3  216.68    7.20
  -1   0  -3  209.28    7.50
   1   0   3  205.98    8.00
   1   0   3  215.38    7.50
   1   0   3  219.28    7.70
   1   0   3  220.88    5.40
   1   0   3  216.88    7.30
  -2   0  -3 3637.94   66.39
  -2   0  -3 3578.94   65.39
  -2   0  -3 3638.04   66.39
  -2   0  -3 3725.23   62.69
   2   0   3 3609.34   66.39
   2   0   3 3723.63   66.79
   2   0   3 3637.34   62.69
   2   0   3 3666.53   63.29
  -3   0  -3 1650.13   35.40
  -3   0  -3 1724.43   37.40
  -3   0  -3 1629.84   36.00
  -3   0  -3 1740.23   36.30
  -3   0  -3 1717.93   32.60
  -3   0  -3 1745.23   30.70
   3   0   3 1716.43   30.60
   3   0   3 1712.93   36.10
   3   0   3 1706.83   36.20
   3   0   3 1645.44   32.80
   3   0   3 1676.83   37.30
  -4   0  -3   13.30    3.10
  -4   0  -3   25.70    3.60
  -4   0  -3   19.10    1.30
  -4   0  -3   15.80    2.90
  -4   0  -3   17.50    3.10
  -4   0  -3   17.70    2.30
  -4   0  -3   14.20    2.90
  -4   0  -3   19.10    1.50
   4   0   3   16.40    2.60
   4   0   3   20.50    2.50
   4   0   3   20.40    3.50
   4   0   3   22.30    3.30
   4   0   3   21.10    3.20
  -5   0  -3  265.77   10.00
  -5   0  -3  267.37   12.00
  -5   0  -3  284.27    7.80
  -5   0  -3  278.57   12.80
  -5   0  -3  287.47   13.90
  -5   0  -3  277.47   11.60
  -5   0  -3  269.37   12.90
   5   0   3  282.07   13.80
   5   0   3  266.77   11.90
   5   0   3  286.87   12.20
   5   0   3  270.07   11.30
  -6   0  -3 2442.86   49.00
  -6   0  -3 2401.36   52.69
  -6   0  -3 2408.96   52.29
  -6   0  -3 2582.54   62.09
  -6   0  -3 2501.55   54.59
  -6   0  -3 2457.25   54.79
  -6   0  -3 2408.16   44.90
   6   0   3 2390.86   49.40
   6   0   3 2527.95   51.39
   6   0   3 2468.15   52.59
   6   0   3 2522.15   57.69
  -7   0  -3    7.30    2.00
  -7   0  -3    5.50    2.80
  -7   0  -3    2.80    2.10
  -7   0  -3    5.90    2.40
  -7   0  -3    6.30    2.30
  -7   0  -3    8.00    1.80
   7   0   3    8.50    3.00
   7   0   3    3.70    2.20
   7   0   3    9.50    2.70
   7   0   3    7.70    2.40
  -8   0  -3  797.32   28.10
  -8   0  -3  758.62   19.80
  -8   0  -3  780.62   25.90
  -8   0  -3  790.92   23.40
   8   0   3  788.02   27.10
   8   0   3  812.22   25.50
   8   0   3  771.72   30.00
   8   0   3  783.32   23.70
  -9   0  -3  500.85   22.60
  -9   0  -3  472.35   15.10
  -9   0  -3  476.05   18.20
   9   0   3  499.05   24.90
   9   0   3  466.85   19.20
   9   0   3  450.75   18.30
   9   0   3  488.65   18.60
 -10   0  -3   49.90    6.50
 -10   0  -3   46.30    5.00
 -10   0  -3   37.80    7.20
  10   0   3   43.70    6.20
  10   0   3   45.90    8.50
  10   0   3   42.50    6.10
 -11   0  -3    2.50    2.30
 -11   0  -3    3.20    2.60
  11   0   3    0.50    2.10
  11   0   3    2.80    2.60
  11  -1  -3   30.20    6.80
  11  -1  -3   19.80    5.40
  11  -1  -3   21.60    7.10
 -11   1   3   23.50    3.90
 -11   1   3   21.80    6.40
 -11   1   3   32.60    7.70
  10  -1  -3  281.47   16.30
  10  -1  -3  298.97   15.70
  10  -1  -3  303.47   20.10
 -10   1   3  249.68   12.70
 -10   1   3  267.17   18.70
 -10   1   3  275.37   12.50
 -10   1   3  264.07   17.40
   9  -1  -3  192.08   15.10
   9  -1  -3  187.38   12.00
   9  -1  -3  196.18   12.90
  -9   1   3  170.78   10.20
  -9   1   3  195.88   10.90
  -9   1   3  197.48   15.40
  -9   1   3  192.58   14.10
   8  -1  -3  423.16   21.10
   8  -1  -3  384.16   17.00
   8  -1  -3  400.06   17.00
  -8   1   3  434.36   15.80
  -8   1   3  391.96   16.50
  -8   1   3  408.86   18.80
  -8   1   3  404.66   15.40
  -8   1   3  411.46   19.80
   7  -1  -3  107.09    9.90
  -7   1   3  113.69    7.60
  -7   1   3  109.59    7.30
  -7   1   3  106.79    7.80
  -7   1   3  118.89    9.00
  -7   1   3   98.19   10.10
  -7   1   3  106.79    9.40
   6  -1  -3 1279.07   30.20
   6  -1  -3 1303.47   31.80
   6  -1  -3 1247.18   23.30
   6  -1  -3 1275.57   35.90
   6  -1  -3 1323.57   31.30
  -6   1   3 1275.87   32.90
  -6   1   3 1247.88   32.60
  -6   1   3 1199.08   32.30
  -6   1   3 1260.37   35.10
  -6   1   3 1284.27   30.80
  -6   1   3 1271.77   30.00
  -6   1   3 1270.37   30.90
  -6   1   3 1253.27   33.50
  -6   1   3 1310.17   41.50
  -6   1   3 1219.28   34.70
   5  -1  -3  426.26   16.50
   5  -1  -3  419.86   15.80
   5  -1  -3  420.96   14.20
   5  -1  -3  446.76   17.50
   5  -1  -3  429.86   13.90
   5  -1  -3  437.66   15.00
   5  -1  -3  432.86   10.10
  -5   1   3  445.76   15.50
  -5   1   3  432.96   17.10
  -5   1   3  430.46   16.80
  -5   1   3  414.46   15.70
  -5   1   3  429.36   15.40
  -5   1   3  429.46   14.60
  -5   1   3  414.66   15.00
  -5   1   3  414.76   16.00
  -5   1   3  432.16   14.30
   4  -1  -3 3256.87   63.19
   4  -1  -3 3361.26   64.79
   4  -1  -3 3327.27   59.69
   4  -1  -3 3308.27   61.99
   4  -1  -3 3248.48   56.19
   4  -1  -3 3318.17   62.09
   4  -1  -3 3333.37   65.79
  -4   1   3 3316.97   65.69
  -4   1   3 3307.27   62.09
  -4   1   3 3348.36   61.49
  -4   1   3 3292.97   62.39
  -4   1   3 3280.77   63.59
  -4   1   3 3302.57   62.59
  -4   1   3 3316.77   62.59
   3  -1  -3 1041.70   26.30
   3  -1  -3 1093.69   21.10
   3  -1  -3 1124.19   21.70
   3  -1  -3 1097.49   25.00
   3  -1  -3 1087.09   25.50
   3  -1  -3 1079.19   25.80
   3  -1  -3 1094.59   24.50
  -3   1   3 1096.19   25.50
  -3   1   3 1104.19   23.90
  -3   1   3 1076.29   26.80
  -3   1   3 1093.49   26.90
  -3   1   3 1095.79   25.30
  -3   1   3 1094.59   24.40
   1  -1  -3 1478.25   30.00
   1  -1  -3 1457.05   27.30
   1  -1  -3 1427.96   27.90
   1  -1  -3 1387.66   27.60
   1  -1  -3 1459.05   28.50
  -1   1   3 1425.26   27.30
  -1   1   3 1451.55   28.20
  -1   1   3 1471.05   30.10
  -1   1   3 1463.15   28.10
  -1   1   3 1424.86   29.20
  -1   1   3 1482.75   26.00
  -1  -1  -3  598.64   14.50
  -1  -1  -3  602.14   10.80
  -1  -1  -3  584.34   15.20
  -1  -1  -3  575.94   14.80
  -1  -1  -3  586.04   14.30
   1   1   3  595.24   14.70
   1   1   3  599.64   15.50
   1   1   3  590.04   14.60
   1   1   3  580.54   14.20
  -2  -1  -3    1.90    1.00
  -2  -1  -3    4.10    1.20
  -2  -1  -3    3.40    1.00
  -2  -1  -3    4.30    0.90
  -2  -1  -3    4.80    1.50
   2   1   3    3.20    1.00
   2   1   3    9.40    1.80
   2   1   3    4.70    1.50
   2   1   3    2.60    1.10
  -3  -1  -3 1244.18   28.00
  -3  -1  -3 1195.18   23.80
  -3  -1  -3 1239.78   27.10
  -3  -1  -3 1171.38   28.60
  -3  -1  -3 1239.58   25.10
   3   1   3 1184.88   22.90
   3   1   3 1187.48   27.70
   3   1   3 1174.68   23.80
   3   1   3 1217.58   27.50
   3   1   3 1155.98   27.50
   3   1   3 1189.78   28.70
  -4  -1  -3 6874.11  118.09
  -4  -1  -3 7014.30  123.99
  -4  -1  -3 6731.53  120.19
  -4  -1  -3 7045.80  120.99
  -4  -1  -3 6992.90  113.89
  -4  -1  -3 6879.21  121.39
  -4  -1  -3 6949.40  122.69
   4   1   3 6760.22  121.09
   4   1   3 6874.41  114.69
   4   1   3 6830.02  123.19
   4   1   3 6801.32  120.59
  -5  -1  -3  678.43   14.40
  -5  -1  -3  670.63   16.20
  -5  -1  -3  689.53   14.10
  -5  -1  -3  714.53   19.70
  -5  -1  -3  669.83   20.50
  -5  -1  -3  670.43   21.10
  -5  -1  -3  669.23   22.70
  -5  -1  -3  661.23   21.90
  -5  -1  -3  682.43   20.50
   5   1   3  649.93   22.30
   5   1   3  667.73   20.40
   5   1   3  669.73   20.20
   5   1   3  651.23   16.40
   5   1   3  653.43   21.00
  -6  -1  -3 1343.97   38.80
  -6  -1  -3 1491.75   28.70
  -6  -1  -3 1429.86   35.40
  -6  -1  -3 1516.45   36.80
  -6  -1  -3 1405.06   39.20
  -6  -1  -3 1532.35   31.10
  -6  -1  -3 1474.65   37.20
  -6  -1  -3 1376.56   37.10
  -6  -1  -3 1489.35   35.20
   6   1   3 1479.15   39.70
   6   1   3 1478.85   35.30
   6   1   3 1422.66   37.20
   6   1   3 1453.15   31.00
   6   1   3 1507.95   36.20
  -7  -1  -3  729.83   23.60
  -7  -1  -3  767.52   18.10
  -7  -1  -3  778.52   25.30
  -7  -1  -3  719.33   23.40
  -7  -1  -3  750.72   20.00
  -7  -1  -3  692.53   24.30
  -7  -1  -3  715.43   24.80
   7   1   3  750.52   23.90
   7   1   3  728.03   23.10
   7   1   3  752.42   20.10
   7   1   3  784.82   28.00
  -8  -1  -3  243.08    9.40
  -8  -1  -3  221.08   12.60
  -8  -1  -3  243.68   10.90
  -8  -1  -3  243.88   14.10
   8   1   3  250.37   16.10
   8   1   3  247.08   12.80
   8   1   3  230.98   12.80
  -9  -1  -3    9.80    3.40
  -9  -1  -3   14.70    3.00
  -9  -1  -3   11.50    3.00
  -9  -1  -3    9.00    3.00
   9   1   3   14.30    5.40
   9   1   3   13.80    3.80
   9   1   3   19.50    4.40
 -10  -1  -3  751.22   23.30
 -10  -1  -3  698.83   20.30
 -10  -1  -3  778.42   29.80
  10   1   3  730.73   26.20
  10   1   3  746.53   25.20
  10   1   3  736.43   32.30
 -11  -1  -3    5.40    3.70
 -11  -1  -3    6.30    4.10
 -11  -1  -3    1.10    2.70
  11   1   3    6.40    3.70
  11   1   3    3.50    2.90
  11   1   3    0.60    3.20
  11  -2  -3  120.79   11.70
  11  -2  -3   91.89   10.50
  11  -2  -3  121.99   14.00
 -11   2   3  117.19   13.80
 -11   2   3  131.69   14.10
  10  -2  -3    4.20    3.00
  10  -2  -3   -3.30    2.50
  10  -2  -3    2.40    2.60
 -10   2   3    1.40    2.80
 -10   2   3    4.40    3.20
 -10   2   3    3.20    2.10
   9  -2  -3   45.60    6.60
   9  -2  -3   44.90    6.50
   9  -2  -3   46.30    8.00
  -9   2   3   39.70    4.90
  -9   2   3   28.00    4.20
  -9   2   3   48.30    7.90
  -9   2   3   36.10    7.00
   8  -2  -3  448.36   22.20
   8  -2  -3  430.56   18.90
   8  -2  -3  451.25   18.70
   8  -2  -3  434.76   12.10
  -8   2   3  450.65   14.60
  -8   2   3  463.35   21.70
  -8   2   3  436.96   15.80
   7  -2  -3  662.73   23.00
   7  -2  -3  674.13   16.60
   7  -2  -3  639.74   25.70
   7  -2  -3  684.43   25.70
   7  -2  -3  631.34   19.40
  -7   2   3  670.43   25.30
  -7   2   3  634.04   21.90
  -7   2   3  673.13   20.20
   6  -2  -3  201.18    9.60
   6  -2  -3  197.98   10.20
   6  -2  -3  199.38   12.70
   6  -2  -3  202.18    7.90
  -6   2   3  201.78   11.50
  -6   2   3  202.28   11.50
  -6   2   3  204.28   10.70
  -6   2   3  195.68   12.30
  -6   2   3  202.08   11.20
  -6   2   3  210.48    8.70
  -6   2   3  203.88   11.00
  -6   2   3  206.58    9.90
   5  -2  -3 2116.39   44.30
   5  -2  -3 2142.29   44.00
   5  -2  -3 2111.39   46.40
   5  -2  -3 2121.19   49.70
   5  -2  -3 2154.48   48.30
  -5   2   3 2110.99   41.80
  -5   2   3 2151.18   45.80
  -5   2   3 2182.68   47.20
  -5   2   3 2141.29   46.40
  -5   2   3 2190.98   45.10
  -5   2   3 2200.78   49.40
  -5   2   3 2147.29   47.10
  -5   2   3 2153.48   45.70
   4  -2  -3  290.17   11.20
   4  -2  -3  300.67   13.30
   4  -2  -3  290.07   11.50
   4  -2  -3  278.27    9.90
   4  -2  -3  272.07   11.80
   4  -2  -3  285.37   11.80
  -4   2   3  279.37   11.30
  -4   2   3  287.27   11.40
  -4   2   3  282.27   11.60
  -4   2   3  293.07   13.00
  -4   2   3  305.57   11.60
  -4   2   3  303.37   11.20
  -4   2   3  292.57   11.80
   3  -2  -3    3.40    1.40
   3  -2  -3    2.80    1.30
   3  -2  -3    0.80    0.90
   3  -2  -3    6.00    1.40
   3  -2  -3    4.40    1.60
   3  -2  -3    3.60    1.20
  -3   2   3    3.50    1.20
  -3   2   3    2.10    1.40
  -3   2   3    1.80    0.90
  -3   2   3    5.20    1.70
   1  -2  -3 2070.09   35.90
   1  -2  -3 2074.09   37.90
   1  -2  -3 2041.50   38.90
   1  -2  -3 1985.20   39.40
   1  -2  -3 2073.49   40.40
  -1   2   3 2035.00   39.90
  -1   2   3 2130.49   40.90
  -1   2   3 2051.19   39.10
  -1   2   3 1923.11   39.20
  -1   2   3 2040.30   37.50
   0  -2  -3 1135.39   24.80
   0  -2  -3 1140.09   25.10
   0  -2  -3 1144.39   25.10
   0  -2  -3 1203.58   25.90
   0  -2  -3 1187.08   22.50
   0  -2  -3 1172.08   22.80
   0   2   3 1169.98   23.80
   0   2   3 1218.18   26.00
   0   2   3 1184.28   25.00
   0   2   3 1148.99   24.60
  -1  -2  -3 3895.71   72.49
  -1  -2  -3 4129.89   71.59
  -1  -2  -3 4092.99   72.29
   1   2   3 4005.00   72.89
   1   2   3 4176.88   68.49
   1   2   3 4129.89   71.39
   1   2   3 4149.98   71.49
   1   2   3 4060.39   72.39
  -2  -2  -3    7.00    1.80
  -2  -2  -3   10.60    1.80
  -2  -2  -3    7.20    1.10
  -2  -2  -3    8.60    1.90
  -2  -2  -3   10.10    2.00
   2   2   3    9.30    1.90
   2   2   3    8.90    0.80
   2   2   3    8.10    2.00
   2   2   3    7.00    1.30
   2   2   3    8.30    1.70
   2   2   3    9.70    2.10
   2   2   3    9.70    2.10
  -3  -2  -3   87.79    4.60
  -3  -2  -3   97.59    6.20
  -3  -2  -3  104.79    6.80
  -3  -2  -3   97.59    6.60
  -3  -2  -3   90.09    4.90
  -3  -2  -3  110.89    6.00
   3   2   3   98.79    6.60
   3   2   3   92.69    3.60
   3   2   3   91.69    6.00
   3   2   3  106.09    6.00
  -4  -2  -3 1265.77   31.90
  -4  -2  -3 1266.67   26.50
  -4  -2  -3 1328.77   28.20
  -4  -2  -3 1310.77   29.80
  -4  -2  -3 1262.97   29.20
  -4  -2  -3 1280.57   32.00
  -4  -2  -3 1267.37   30.30
   4   2   3 1214.88   31.10
   4   2   3 1266.37   30.10
   4   2   3 1311.97   32.70
   4   2   3 1247.98   24.30
   4   2   3 1267.37   29.90
  -5  -2  -3    5.50    2.20
  -5  -2  -3    4.60    1.90
  -5  -2  -3    8.40    2.30
  -5  -2  -3    6.00    1.80
  -5  -2  -3    7.70    2.10
  -5  -2  -3    8.60    1.40
  -5  -2  -3    5.60    2.20
  -5  -2  -3   10.10    1.60
  -5  -2  -3    6.50    1.60
  -5  -2  -3    8.30    2.50
  -5  -2  -3    6.50    1.70
   5   2   3    6.20    2.30
   5   2   3    6.30    2.10
   5   2   3    6.30    2.60
   5   2   3    4.20    1.60
  -6  -2  -3  138.29    8.90
  -6  -2  -3  159.18   11.20
  -6  -2  -3  132.99   10.00
  -6  -2  -3  126.09    8.10
  -6  -2  -3  141.29    6.00
  -6  -2  -3  133.39    5.80
  -6  -2  -3  136.29    8.80
  -6  -2  -3  139.39    8.70
  -6  -2  -3  136.99    9.20
  -6  -2  -3  137.69    5.70
  -6  -2  -3  134.19   10.00
   6   2   3  135.59    9.30
   6   2   3  142.09   10.50
   6   2   3  138.59    9.40
   6   2   3  125.89    8.30
  -7  -2  -3  178.88   12.60
  -7  -2  -3  175.68   10.90
  -7  -2  -3  186.78   10.80
  -7  -2  -3  188.38   11.70
  -7  -2  -3  196.38    7.80
  -7  -2  -3  187.58    6.40
  -7  -2  -3  190.68   11.40
  -7  -2  -3  190.18   10.90
   7   2   3  189.38   11.70
   7   2   3  196.28   13.10
   7   2   3  187.68   10.60
  -8  -2  -3  101.49    9.00
  -8  -2  -3   99.39   10.00
  -8  -2  -3   87.59    5.70
  -8  -2  -3   93.49    5.80
  -8  -2  -3   95.09    8.20
   8   2   3  102.59    8.10
   8   2   3   89.59    8.60
   8   2   3  111.79   10.70
  -9  -2  -3   51.39    6.90
  -9  -2  -3   46.50    4.60
  -9  -2  -3   50.89    8.10
  -9  -2  -3   36.10    6.00
  -9  -2  -3   47.40    4.30
   9   2   3   37.40    5.40
   9   2   3   41.00    8.20
   9   2   3   48.80    6.90
 -10  -2  -3  247.88   17.50
 -10  -2  -3  256.27   16.10
 -10  -2  -3  228.78   10.60
  10   2   3  253.77   18.40
  10   2   3  217.38   12.80
  10   2   3  247.28   15.00
 -11  -2  -3   19.90    5.70
 -11  -2  -3   39.10    5.20
 -11  -2  -3   20.10    6.10
  11   2   3   38.00    7.70
  11   2   3   25.40    5.80
  11   2   3   24.90    6.80
  10  -3  -3   35.20    6.80
  10  -3  -3   10.60    7.10
  10  -3  -3   20.90    6.50
 -10   3   3   24.30    6.70
 -10   3   3   31.20    7.10
   9  -3  -3    3.40    2.20
   9  -3  -3    1.60    1.90
   9  -3  -3    0.00    1.90
   9  -3  -3    1.30    1.50
  -9   3   3    3.60    2.10
  -9   3   3    1.00    2.40
  -9   3   3    3.70    3.30
   8  -3  -3  117.69    7.90
   8  -3  -3  132.89    7.50
   8  -3  -3  120.69   11.70
   8  -3  -3  131.39   10.90
   8  -3  -3  130.79    9.80
  -8   3   3  127.49    5.30
  -8   3   3  131.59    8.40
  -8   3   3  135.69   11.60
   7  -3  -3 1917.41   42.10
   7  -3  -3 1930.41   45.40
   7  -3  -3 1898.61   40.60
   7  -3  -3 1966.70   51.49
   7  -3  -3 1936.21   48.10
  -7   3   3 1871.51   48.50
  -7   3   3 1849.91   36.40
  -7   3   3 1933.41   50.29
  -7   3   3 1971.60   42.90
   6  -3  -3   60.89    5.50
   6  -3  -3   72.69    6.30
   6  -3  -3   72.39    7.80
   6  -3  -3   68.09    7.20
  -6   3   3   64.29    4.10
  -6   3   3   76.59    8.00
  -6   3   3   64.49    6.70
  -6   3   3   67.39    7.00
  -6   3   3   80.29    7.30
  -6   3   3   66.39    5.80
  -6   3   3   73.79    6.80
   5  -3  -3 2617.24   52.79
   5  -3  -3 2524.35   58.19
   5  -3  -3 2665.83   53.09
   5  -3  -3 2624.74   57.69
  -5   3   3 2611.64   55.29
  -5   3   3 2651.33   58.19
  -5   3   3 2656.83   48.10
  -5   3   3 2561.94   54.99
  -5   3   3 2627.94   53.39
  -5   3   3 2679.03   56.59
  -5   3   3 2645.84   53.29
   4  -3  -3 2440.76   52.09
   4  -3  -3 2487.45   48.40
   4  -3  -3 2439.46   52.69
   4  -3  -3 2475.95   49.99
  -4   3   3 2452.35   51.79
  -4   3   3 2487.35   51.49
  -4   3   3 2469.25   50.59
  -4   3   3 2501.75   57.69
  -4   3   3 2537.65   50.59
  -4   3   3 2467.95   48.60
   3  -3  -3  364.26   12.90
   3  -3  -3  371.56   14.50
   3  -3  -3  359.06   14.20
   3  -3  -3  381.16   14.20
   3  -3  -3  368.36   13.90
   3  -3  -3  361.46   13.00
  -3   3   3  372.76   14.40
  -3   3   3  386.66   13.50
  -3   3   3  379.46   11.30
  -3   3   3  362.16   13.60
  -3   3   3  379.06   12.60
   2  -3  -3   92.49    5.90
   2  -3  -3   86.19    5.80
   2  -3  -3   76.99    5.70
   2  -3  -3   80.89    6.00
   2  -3  -3   96.09    5.30
  -2   3   3   77.69    5.70
  -2   3   3   90.99    6.10
  -2   3   3   90.99    5.90
  -2   3   3   89.89    4.90
  -2   3   3   88.99    4.00
   0  -3  -3  156.68    6.30
   0  -3  -3  148.39    7.50
   0  -3  -3  155.18    7.80
   0  -3  -3  155.68    6.40
   0  -3  -3  155.18    7.40
   0  -3  -3  154.58    5.00
   0   3   3  143.99    7.40
   0   3   3  158.18    7.60
   0   3   3  155.98    6.40
   0   3   3  154.78    6.60
  -1  -3  -3 1026.60   24.80
  -1  -3  -3 1067.39   23.20
  -1  -3  -3 1047.60   19.10
  -1  -3  -3 1034.00   23.90
   1   3   3 1058.19   25.10
   1   3   3 1012.00   24.80
   1   3   3 1034.90   20.00
   1   3   3 1049.99   20.60
   1   3   3 1049.40   22.80
   1   3   3 1107.09   25.90
  -2  -3  -3  617.14   15.30
  -2  -3  -3  547.85   18.10
  -2  -3  -3  527.35   16.50
  -2  -3  -3  535.45   16.40
  -2  -3  -3  571.74   13.20
   2   3   3  545.35   16.50
   2   3   3  566.74   13.30
   2   3   3  563.54   14.80
   2   3   3  546.35   17.30
   2   3   3  553.14   16.60
   2   3   3  537.15   16.90
  -3  -3  -3  585.84   15.90
  -3  -3  -3  608.24   15.50
  -3  -3  -3  577.64   17.50
  -3  -3  -3  577.14   18.40
  -3  -3  -3  557.64   14.40
  -3  -3  -3  580.24   18.50
   3   3   3  585.34   18.40
   3   3   3  555.74   18.60
   3   3   3  572.04   17.50
   3   3   3  570.84   18.40
   3   3   3  580.64   13.90
   3   3   3  579.84   15.10
  -4  -3  -3  159.68    7.90
  -4  -3  -3  183.28   10.40
  -4  -3  -3  161.38    9.60
  -4  -3  -3  169.08    8.10
  -4  -3  -3  159.88    8.80
  -4  -3  -3  163.88    7.50
   4   3   3  163.38    6.50
   4   3   3  145.89    7.90
   4   3   3  171.78    9.00
   4   3   3  161.58    9.90
   4   3   3  157.58    9.70
   4   3   3  165.08    7.90
  -5  -3  -3  967.50   24.70
  -5  -3  -3  964.50   28.50
  -5  -3  -3  976.80   24.50
  -5  -3  -3  928.21   26.10
  -5  -3  -3  936.41   29.20
  -5  -3  -3  980.00   25.10
  -5  -3  -3  971.00   25.00
  -5  -3  -3  996.00   26.00
  -5  -3  -3  936.91   28.50
  -5  -3  -3 1000.30   26.90
   5   3   3  968.50   26.10
   5   3   3  963.70   26.10
   5   3   3  926.21   28.20
   5   3   3  989.50   21.90
   5   3   3  962.40   29.00
  -6  -3  -3   10.60    3.50
  -6  -3  -3    8.40    3.00
  -6  -3  -3   10.60    2.90
  -6  -3  -3   20.30    3.80
  -6  -3  -3   14.90    3.40
  -6  -3  -3    7.30    2.50
  -6  -3  -3   23.40    4.10
  -6  -3  -3   12.30    2.90
  -6  -3  -3   17.00    2.70
  -6  -3  -3    9.70    2.40
   6   3   3   19.30    4.40
   6   3   3   20.00    4.40
   6   3   3   16.80    3.60
   6   3   3   17.60    3.80
  -7  -3  -3   17.00    1.90
  -7  -3  -3   19.00    4.80
  -7  -3  -3    9.90    2.80
  -7  -3  -3   18.10    4.40
  -7  -3  -3   13.40    3.70
  -7  -3  -3   17.30    3.70
  -7  -3  -3   16.60    2.80
  -7  -3  -3   13.70    3.20
   7   3   3   17.20    3.90
   7   3   3   20.20    5.10
   7   3   3    7.90    2.80
  -8  -3  -3   49.10    3.40
  -8  -3  -3   53.09    7.50
  -8  -3  -3   43.30    4.10
  -8  -3  -3   46.30    5.90
  -8  -3  -3   44.20    5.90
  -8  -3  -3   48.90    3.90
  -8  -3  -3   43.70    3.80
   8   3   3   45.60    7.60
   8   3   3   50.89    7.30
   8   3   3   46.80    5.80
  -9  -3  -3   44.50    4.80
  -9  -3  -3   53.09   11.40
  -9  -3  -3   48.50    3.90
  -9  -3  -3   51.39    6.90
  -9  -3  -3   45.20    7.40
   9   3   3   59.19    7.50
   9   3   3   50.69    8.70
   9   3   3   54.89    6.40
 -10  -3  -3    3.90    2.70
 -10  -3  -3    6.10    3.70
 -10  -3  -3    9.30    2.20
 -10  -3  -3    3.40    2.10
  10   3   3    8.20    4.20
  10   3   3    2.60    3.70
 -11  -3  -3   24.20    7.00
 -11  -3  -3   25.10    5.40
 -11  -3  -3   15.80    5.20
  11   3   3   25.30    6.40
  11   3   3   24.80    6.70
  10  -4  -3   18.40    4.90
  10  -4  -3   36.60    6.60
  10  -4  -3   24.80    6.90
 -10   4   3   30.50    7.40
 -10   4   3   38.10    8.60
   9  -4  -3   83.19   10.70
   9  -4  -3   61.39    8.70
   9  -4  -3   69.89    6.30
   9  -4  -3   75.39    8.60
  -9   4   3  100.49   11.00
  -9   4   3   67.09   10.00
   8  -4  -3  184.68   12.30
   8  -4  -3  165.48   12.80
   8  -4  -3  183.58   10.30
   8  -4  -3  171.78    9.80
   8  -4  -3  174.08   15.70
  -8   4   3  181.48   14.10
  -8   4   3  174.48   10.10
   7  -4  -3  108.59    9.80
   7  -4  -3  130.69    9.40
   7  -4  -3  120.19    8.20
   7  -4  -3  114.29    7.70
   7  -4  -3  114.69   10.90
  -7   4   3  122.19   10.80
   6  -4  -3   14.40    3.20
   6  -4  -3   12.30    3.80
   6  -4  -3   16.70    3.90
   6  -4  -3   17.20    4.50
  -6   4   3   12.70    3.50
  -6   4   3   15.30    3.30
  -6   4   3   23.00    4.90
  -6   4   3   12.50    3.50
  -6   4   3   10.90    3.20
   5  -4  -3  319.87   13.20
   5  -4  -3  343.97   16.50
   5  -4  -3  341.87   13.80
   5  -4  -3  321.17   15.50
   5  -4  -3  311.17   15.20
  -5   4   3  327.97   14.90
  -5   4   3  323.47   15.30
  -5   4   3  326.37   16.00
  -5   4   3  355.36   14.00
  -5   4   3  336.07   13.00
  -5   4   3  323.57   14.10
   4  -4  -3  786.42   24.20
   4  -4  -3  711.93   24.10
   4  -4  -3  743.83   21.70
   4  -4  -3  688.23   23.10
  -4   4   3  760.22   22.00
  -4   4   3  750.52   19.60
  -4   4   3  754.92   23.20
  -4   4   3  761.62   23.60
  -4   4   3  748.23   24.20
  -4   4   3  784.62   21.90
   3  -4  -3  704.23   21.70
   3  -4  -3  729.03   22.40
   3  -4  -3  741.23   23.30
   3  -4  -3  708.03   20.80
   3  -4  -3  710.73   22.60
  -3   4   3  724.93   21.10
  -3   4   3  729.23   22.00
  -3   4   3  724.03   19.30
  -3   4   3  712.63   22.20
  -3   4   3  733.53   17.40
   2  -4  -3  354.36   14.50
   2  -4  -3  348.67   13.30
   2  -4  -3  347.27   13.30
   2  -4  -3  346.07   13.80
  -2   4   3  355.46   10.90
  -2   4   3  358.96   13.60
  -2   4   3  345.47   13.30
  -2   4   3  359.16    9.10
  -2   4   3  366.16   13.90
  -2   4   3  368.46   11.60
   1  -4  -3 1037.10   26.40
   1  -4  -3 1055.49   25.10
   1  -4  -3 1034.90   21.50
   1  -4  -3 1029.50   27.10
   1  -4  -3 1048.90   26.30
  -1   4   3 1042.40   26.70
  -1   4   3 1044.00   25.10
  -1   4   3 1037.10   26.10
  -1   4   3 1049.59   20.90
  -1   4   3 1031.80   24.30
  -1   4   3 1034.80   24.50
   0  -4  -3 1241.48   26.80
   0  -4  -3 1257.07   29.80
   0  -4  -3 1266.77   29.60
   0  -4  -3 1218.18   30.20
   0  -4  -3 1219.78   22.60
   0   4   3 1262.07   26.90
   0   4   3 1258.17   29.70
   0   4   3 1222.98   26.60
   0   4   3 1262.87   29.40
   0   4   3 1265.87   30.10
  -1  -4  -3 1710.33   37.10
  -1  -4  -3 1647.44   31.80
  -1  -4  -3 1638.94   37.40
  -1  -4  -3 1670.53   33.80
  -1  -4  -3 1722.13   36.30
  -1  -4  -3 1737.63   37.20
   1   4   3 1692.83   31.90
   1   4   3 1604.14   31.50
   1   4   3 1726.43   37.90
   1   4   3 1578.44   36.60
   1   4   3 1722.33   33.60
  -2  -4  -3  319.57   10.40
  -2  -4  -3  320.17   12.60
  -2  -4  -3  309.27   12.90
  -2  -4  -3  309.37   12.10
  -2  -4  -3  310.67   12.60
  -2  -4  -3  315.57    8.50
   2   4   3  309.77    7.20
   2   4   3  326.97    9.90
   2   4   3  314.17   12.80
   2   4   3  318.17   10.40
   2   4   3  305.87   13.10
  -3  -4  -3 2897.51   60.29
  -3  -4  -3 2852.91   58.19
  -3  -4  -3 2898.81   57.39
  -3  -4  -3 2946.31   53.39
  -3  -4  -3 3071.59   51.59
  -3  -4  -3 3029.70   54.79
  -3  -4  -3 2900.81   59.89
   3   4   3 2913.01   54.49
   3   4   3 2860.41   60.89
   3   4   3 2950.90   53.99
   3   4   3 2795.72   59.79
  -4  -4  -3  516.35   18.90
  -4  -4  -3  506.85   15.30
  -4  -4  -3  530.45   15.50
  -4  -4  -3  502.95   14.00
  -4  -4  -3  507.95   17.50
  -4  -4  -3  520.55   16.60
  -4  -4  -3  519.15   15.30
   4   4   3  516.35   15.90
   4   4   3  533.15   16.20
   4   4   3  501.45   14.50
   4   4   3  489.65   18.80
  -5  -4  -3  234.58   10.60
  -5  -4  -3  225.78   10.40
  -5  -4  -3  239.18   10.30
  -5  -4  -3  226.38    9.60
  -5  -4  -3  232.18   10.30
  -5  -4  -3  173.88   16.70
  -5  -4  -3  225.68   11.50
  -5  -4  -3  218.78   13.10
  -5  -4  -3  225.48   12.70
   5   4   3  224.78    9.20
   5   4   3  230.38   10.90
   5   4   3  228.68   13.20
   5   4   3  225.68   10.90
   5   4   3  233.28   13.00
  -6  -4  -3  297.17   12.10
  -6  -4  -3  297.97   15.60
  -6  -4  -3  291.97   15.30
  -6  -4  -3  296.57   13.90
  -6  -4  -3  308.27   12.90
  -6  -4  -3  291.77   13.80
  -6  -4  -3  282.77   12.20
  -6  -4  -3  287.27   12.70
  -6  -4  -3  302.37   16.30
   6   4   3  299.97   13.50
   6   4   3  288.57   15.90
   6   4   3  296.17   15.90
   6   4   3  289.57   11.40
  -7  -4  -3  887.11   27.50
  -7  -4  -3  861.01   25.80
  -7  -4  -3  889.51   30.30
  -7  -4  -3  853.51   23.50
  -7  -4  -3  855.21   25.60
  -7  -4  -3  879.21   27.20
   7   4   3  923.11   31.90
   7   4   3  913.71   31.10
  -8  -4  -3   87.29    8.10
  -8  -4  -3  100.09   10.10
  -8  -4  -3   94.49    8.20
  -8  -4  -3   86.09    6.30
   8   4   3   91.39    9.60
   8   4   3  100.39   10.60
  -9  -4  -3  317.87   16.10
  -9  -4  -3  310.97   11.80
  -9  -4  -3  358.86   19.90
  -9  -4  -3  338.27   12.40
   9   4   3  339.37   19.40
   9   4   3  335.47   20.30
 -10  -4  -3    0.10    2.70
 -10  -4  -3    5.30    3.80
  10   4   3    2.70    2.90
  10   4   3    3.70    3.30
  10  -5  -3   22.60    5.90
  10  -5  -3   18.30    5.20
  10  -5  -3   20.30    5.80
 -10   5   3   14.00    5.30
 -10   5   3   17.10    5.90
   9  -5  -3  301.17   19.00
   9  -5  -3  275.37   19.30
   9  -5  -3  253.97   13.50
   9  -5  -3  260.07   16.10
   9  -5  -3  262.17   12.00
  -9   5   3  272.27   19.30
  -9   5   3  273.87   18.50
   8  -5  -3   31.90    6.00
   8  -5  -3   28.30    5.20
   8  -5  -3   30.00    6.40
   8  -5  -3   38.00    5.70
   8  -5  -3   36.00    7.00
  -8   5   3   33.10    6.90
   7  -5  -3   67.39    6.30
   7  -5  -3   66.19    8.50
   7  -5  -3   60.09    8.20
   7  -5  -3   53.99    6.70
  -7   5   3   80.69    9.20
   6  -5  -3   10.70    3.30
   6  -5  -3   17.90    4.20
   6  -5  -3    9.00    3.30
   6  -5  -3   17.30    4.00
  -6   5   3   12.30    3.70
  -6   5   3   26.30    5.30
  -6   5   3   12.30    3.20
  -6   5   3   11.60    2.90
   5  -5  -3    2.60    2.00
   5  -5  -3    3.20    2.10
   5  -5  -3    0.60    1.60
  -5   5   3    6.30    1.90
  -5   5   3    4.20    2.10
  -5   5   3    2.50    1.90
  -5   5   3    6.50    2.50
  -5   5   3    4.40    1.90
   4  -5  -3   17.30    4.00
   4  -5  -3   22.30    4.20
   4  -5  -3   16.50    3.40
   4  -5  -3   21.60    4.40
  -4   5   3   22.70    4.30
  -4   5   3   18.50    4.30
  -4   5   3   19.10    3.40
  -4   5   3   23.10    3.10
  -4   5   3   22.40    2.30
  -4   5   3   18.70    4.30
   3  -5  -3 2387.76   52.09
   3  -5  -3 2314.77   50.49
   3  -5  -3 2393.76   52.99
   3  -5  -3 2378.26   53.09
   3  -5  -3 2270.27   53.89
  -3   5   3 2389.66   44.30
  -3   5   3 2338.87   51.99
  -3   5   3 2417.16   47.20
  -3   5   3 2432.86   45.50
  -3   5   3 2368.56   52.49
  -3   5   3 2304.57   51.59
   2  -5  -3  852.71   24.80
   2  -5  -3  919.81   26.50
   2  -5  -3  853.41   24.50
  -2   5   3  857.41   24.60
  -2   5   3  894.31   20.40
  -2   5   3  910.81   22.40
  -2   5   3  927.41   25.70
  -2   5   3  895.41   17.90
  -2   5   3  888.21   25.70
   1  -5  -3   55.99    5.90
   1  -5  -3   58.99    5.00
   1  -5  -3   59.79    5.70
   1  -5  -3   65.59    5.80
  -1   5   3   60.69    4.80
  -1   5   3   51.39    5.30
  -1   5   3   57.19    5.10
  -1   5   3   63.79    5.10
  -1   5   3   63.29    3.30
   0  -5  -3   33.90    4.30
   0  -5  -3   35.70    4.20
   0  -5  -3   36.80    4.40
   0   5   3   32.10    3.20
   0   5   3   34.90    4.20
   0   5   3   35.20    3.60
  -1  -5  -3  848.62   24.10
  -1  -5  -3  867.71   24.30
  -1  -5  -3  848.32   19.60
  -1  -5  -3  903.61   25.60
  -1  -5  -3  812.32   23.00
   1   5   3  827.72   24.10
   1   5   3  841.62   19.40
   1   5   3  857.91   24.70
   1   5   3  824.72   19.90
  -2  -5  -3  297.67   12.80
  -2  -5  -3  291.87   10.20
  -2  -5  -3  276.37   12.50
  -2  -5  -3  268.87   12.70
  -2  -5  -3  300.77    8.40
   2   5   3  298.97   10.30
   2   5   3  272.47   13.40
   2   5   3  305.17   10.10
   2   5   3  294.77    8.00
   2   5   3  299.37   11.40
  -3  -5  -3 2023.60   45.80
  -3  -5  -3 1914.91   45.40
  -3  -5  -3 1889.51   43.70
  -3  -5  -3 1930.91   43.50
  -3  -5  -3 1999.20   37.60
  -3  -5  -3 1911.31   45.40
  -3  -5  -3 1986.90   34.10
  -3  -5  -3 1984.20   39.10
   3   5   3 1895.11   45.20
   3   5   3 1984.50   40.70
   3   5   3 1995.40   40.40
   3   5   3 1912.21   46.30
  -4  -5  -3  215.08   11.50
  -4  -5  -3  216.98   12.20
  -4  -5  -3  198.48   14.00
  -4  -5  -3  231.18    9.40
  -4  -5  -3  229.48    7.80
  -4  -5  -3  235.78   11.40
  -4  -5  -3  255.97   17.40
  -4  -5  -3  225.68    9.30
   4   5   3  231.38    9.70
   4   5   3  233.88   10.10
   4   5   3  227.78   10.50
  -5  -5  -3  384.66   17.20
  -5  -5  -3  368.76   13.00
  -5  -5  -3  339.87   16.80
  -5  -5  -3  349.27   13.70
  -5  -5  -3  343.87   14.40
  -5  -5  -3  342.57   16.60
  -5  -5  -3  345.97   17.20
  -5  -5  -3  348.87   13.50
  -5  -5  -3  368.66   12.00
  -5  -5  -3  368.46   15.80
   5   5   3  370.26   17.80
   5   5   3  356.86   14.50
   5   5   3  341.17   13.40
   5   5   3  358.56   13.20
  -6  -5  -3   75.59    6.70
  -6  -5  -3   75.49    6.50
  -6  -5  -3   78.49    6.80
  -6  -5  -3   80.59    7.20
  -6  -5  -3   85.19    8.50
  -6  -5  -3   81.99    6.10
  -6  -5  -3   80.19    7.50
   6   5   3   80.79    8.90
   6   5   3   84.99    7.60
   6   5   3   82.99    6.80
   6   5   3   87.89    6.50
  -7  -5  -3  425.96   16.40
  -7  -5  -3  421.56   16.10
  -7  -5  -3  408.06   20.00
  -7  -5  -3  402.36   17.40
  -7  -5  -3  409.86   15.70
  -7  -5  -3  409.06   17.80
   7   5   3  420.26   20.90
   7   5   3  411.56   15.50
  -8  -5  -3    6.60    3.00
  -8  -5  -3    8.00    2.60
  -8  -5  -3   10.70    4.10
  -8  -5  -3    7.20    2.70
   8   5   3    8.90    3.60
  -9  -5  -3   55.09    6.80
  -9  -5  -3   61.89    6.20
  -9  -5  -3   62.89    8.60
   9   5   3   50.29    8.70
 -10  -5  -3   14.30    7.00
 -10  -5  -3   10.60    4.90
  10   5   3   19.00    5.20
   9  -6  -3    1.50    2.80
   9  -6  -3    0.60    2.40
   9  -6  -3   -0.70    2.30
   9  -6  -3   -1.20    2.60
  -9   6   3   -0.40    2.70
  -9   6   3    0.30    2.40
   8  -6  -3  530.95   23.20
   8  -6  -3  532.95   26.40
   8  -6  -3  497.65   19.30
   8  -6  -3  497.65   21.30
   8  -6  -3  542.95   26.00
  -8   6   3  534.95   25.90
   7  -6  -3    0.10    1.80
   7  -6  -3    1.70    2.10
   7  -6  -3    2.30    2.10
   7  -6  -3   -0.10    2.30
  -7   6   3    4.40    5.30
   6  -6  -3  261.37   14.50
   6  -6  -3  254.57   13.20
   6  -6  -3  266.17   16.30
   6  -6  -3  274.87   16.70
  -6   6   3  286.67   16.60
  -6   6   3  253.27   12.40
   5  -6  -3  191.78   13.30
   5  -6  -3  201.28   13.40
  -5   6   3  198.78   11.30
  -5   6   3  200.28   13.30
  -5   6   3  189.58    9.50
   4  -6  -3   29.60    5.80
   4  -6  -3   35.70    5.60
   4  -6  -3   23.10    4.00
   4  -6  -3   25.70    5.00
  -4   6   3   31.90    2.90
  -4   6   3   27.20    3.70
  -4   6   3   35.30    5.60
  -4   6   3   27.90    5.10
  -4   6   3   27.90    3.20
   3  -6  -3  146.29   10.40
   3  -6  -3  137.79   10.80
   3  -6  -3  150.58   10.50
   3  -6  -3  135.49    9.20
  -3   6   3  158.48   10.40
  -3   6   3  132.59    6.90
  -3   6   3  140.09   10.10
  -3   6   3  149.49    6.40
  -3   6   3  141.29    7.50
   2  -6  -3 2077.69   48.50
   2  -6  -3 2049.99   46.40
   2  -6  -3 2072.39   50.49
   2  -6  -3 2001.70   46.90
  -2   6   3 2090.69   39.70
  -2   6   3 2075.19   43.10
  -2   6   3 2002.40   45.90
  -2   6   3 2074.59   36.50
  -2   6   3 2057.29   48.50
   1  -6  -3 2434.76   52.09
   1  -6  -3 2546.75   57.19
   1  -6  -3 2515.45   54.69
   1  -6  -3 2518.65   54.99
  -1   6   3 2537.85   50.19
  -1   6   3 2525.45   55.29
  -1   6   3 2534.35   52.09
  -1   6   3 2502.45   44.00
  -1   6   3 2508.45   52.19
   0  -6  -3  492.75   19.50
   0  -6  -3  508.45   18.90
   0  -6  -3  537.35   16.60
   0   6   3  521.15   15.20
   0   6   3  537.55   19.30
   0   6   3  529.85   18.50
   0   6   3  541.75   16.40
  -1  -6  -3  149.99    7.30
  -1  -6  -3  162.88    9.70
  -1  -6  -3  159.68    9.80
  -1  -6  -3  169.08   10.80
  -1  -6  -3  165.68   10.10
  -1  -6  -3  177.78   10.20
   1   6   3  163.58   10.00
   1   6   3  136.89   11.10
   1   6   3  167.48    7.50
  -2  -6  -3 1367.66   28.30
  -2  -6  -3 1387.66   36.10
  -2  -6  -3 1354.16   35.80
  -2  -6  -3 1438.46   37.30
  -2  -6  -3 1357.26   35.40
   2   6   3 1415.06   31.10
   2   6   3 1408.16   27.90
   2   6   3 1403.26   37.00
   2   6   3 1338.87   29.10
   2   6   3 1342.67   35.80
   2   6   3 1442.46   33.50
  -3  -6  -3  139.59    9.70
  -3  -6  -3  137.79   10.10
  -3  -6  -3  159.38    5.10
  -3  -6  -3  163.38   10.10
  -3  -6  -3  150.78    7.10
  -3  -6  -3  147.59   10.40
  -3  -6  -3  173.48   17.00
   3   6   3  150.98    9.00
   3   6   3  139.99    8.00
   3   6   3  164.48   11.30
   3   6   3  133.69    9.70
  -4  -6  -3  144.09    7.10
  -4  -6  -3  128.19   13.30
  -4  -6  -3  135.59   10.70
  -4  -6  -3  146.69    4.90
  -4  -6  -3  140.69    7.20
  -4  -6  -3  145.39   10.70
  -4  -6  -3  146.39    9.90
   4   6   3  133.19    9.90
   4   6   3  140.59   11.00
   4   6   3  135.59   10.20
   4   6   3  149.69    9.10
   4   6   3  143.19    7.40
  -5  -6  -3  989.00   29.60
  -5  -6  -3 1053.59   30.90
  -5  -6  -3 1059.09   22.70
  -5  -6  -3 1000.10   24.90
  -5  -6  -3 1042.60   26.50
  -5  -6  -3 1086.29   33.10
   5   6   3  994.40   25.90
   5   6   3 1066.39   27.90
   5   6   3 1051.99   28.90
   5   6   3 1021.70   33.90
  -6  -6  -3   20.70    4.20
  -6  -6  -3   18.90    3.00
  -6  -6  -3   21.40    3.60
  -6  -6  -3    9.20    2.70
  -6  -6  -3    9.10    3.40
   6   6   3   18.40    4.30
   6   6   3   21.70    5.90
   6   6   3   17.50    3.70
  -7  -6  -3   64.89    7.10
  -7  -6  -3   56.99    7.50
  -7  -6  -3   48.00    4.90
  -7  -6  -3   63.89    5.90
  -7  -6  -3   53.29    6.40
   7   6   3   68.89    6.60
   7   6   3   66.29    7.30
   7   6   3   70.79    9.20
  -8  -6  -3  125.79    8.80
  -8  -6  -3  116.59    9.70
  -8  -6  -3  136.69   12.30
  -8  -6  -3  121.09    8.70
   8   6   3  107.79    8.70
   8   6   3  128.79   12.70
  -9  -6  -3    5.60    3.30
  -9  -6  -3   -0.10    2.00
   9   6   3    6.40    3.70
 -10  -6  -3    0.60    3.30
 -10  -6  -3   -0.30    2.40
 -10  -6  -3   -2.80    2.00
  10   6   3    3.10    4.30
   9  -7  -3    2.50    3.30
   9  -7  -3    4.10    3.50
   9  -7  -3   -3.70    2.60
   9  -7  -3    1.60    3.70
  -9   7   3    4.10    4.20
  -9   7   3   -4.50    3.20
   8  -7  -3   68.29    8.90
   8  -7  -3   65.19    9.70
   8  -7  -3   58.99    9.70
   8  -7  -3   65.29    8.30
  -8   7   3   58.89    9.70
  -8   7   3   59.49    9.40
   7  -7  -3   79.79    9.10
   7  -7  -3   87.49   10.70
   7  -7  -3   86.49   10.40
  -7   7   3   80.49    9.80
   6  -7  -3  393.16   21.00
   6  -7  -3  456.25   22.70
  -6   7   3  412.16   16.10
  -6   7   3  395.06   20.80
   5  -7  -3    1.00    2.20
   5  -7  -3    2.10    2.30
   5  -7  -3    3.70    2.10
  -5   7   3    0.50    1.50
  -5   7   3    3.40    1.80
  -5   7   3    3.60    2.10
   4  -7  -3 1289.67   38.20
   4  -7  -3 1281.67   36.10
   4  -7  -3 1335.37   39.60
   4  -7  -3 1353.26   42.00
  -4   7   3 1359.76   38.70
  -4   7   3 1327.77   27.60
  -4   7   3 1305.17   29.30
  -4   7   3 1306.37   32.20
   3  -7  -3  166.98   10.90
   3  -7  -3  177.28   12.10
   3  -7  -3  151.58   10.80
   3  -7  -3  176.28   12.30
   3  -7  -3  186.78   13.50
  -3   7   3  174.78    8.50
  -3   7   3  167.98    6.80
  -3   7   3  183.08    8.60
  -3   7   3  171.38   11.40
   2  -7  -3  103.89    9.10
   2  -7  -3  101.29    8.30
   2  -7  -3   99.39    9.70
   2  -7  -3   98.69    9.60
  -2   7   3  100.09    5.30
  -2   7   3  114.99    4.10
  -2   7   3  113.29    7.50
  -2   7   3  111.69   12.80
  -2   7   3  110.59    8.70
   1  -7  -3    5.90    2.20
   1  -7  -3    3.00    2.10
   1  -7  -3    5.80    2.30
   1  -7  -3    9.10    2.60
  -1   7   3    7.00    2.20
  -1   7   3    7.70    2.60
  -1   7   3    9.50    2.80
  -1   7   3    8.20    1.20
  -1   7   3    7.90    3.00
   0  -7  -3  813.02   27.80
   0  -7  -3  782.12   22.70
   0  -7  -3  795.92   25.60
   0  -7  -3  778.82   26.00
   0   7   3  788.02   24.80
   0   7   3  787.82   26.00
   0   7   3  811.82   22.60
   0   7   3  792.12   20.50
  -1  -7  -3   93.09    8.80
  -1  -7  -3  104.09    8.50
  -1  -7  -3   93.99    8.40
  -1  -7  -3  104.29    6.60
  -1  -7  -3   98.29    8.00
   1   7   3   94.79    8.40
   1   7   3  107.29    5.80
   1   7   3  100.39    6.40
   1   7   3  104.39    8.40
  -2  -7  -3 1610.34   43.00
  -2  -7  -3 1635.74   39.60
  -2  -7  -3 1599.14   41.60
  -2  -7  -3 1531.25   40.50
  -2  -7  -3 1635.04   33.70
  -2  -7  -3 1530.15   41.00
   2   7   3 1628.14   42.60
   2   7   3 1576.34   32.80
   2   7   3 1663.03   33.20
   2   7   3 1652.93   39.00
   2   7   3 1612.64   37.00
   2   7   3 1575.84   41.50
  -3  -7  -3   -2.50    1.40
  -3  -7  -3    0.10    1.30
  -3  -7  -3    3.20    2.30
  -3  -7  -3    2.10    1.00
  -3  -7  -3    4.40    2.50
   3   7   3    2.50    1.80
   3   7   3    2.20    1.10
   3   7   3    0.10    1.60
   3   7   3    0.90    1.00
   3   7   3    0.70    1.40
  -4  -7  -3   25.30    3.10
  -4  -7  -3   23.70    5.30
   4   7   3   31.20    6.00
   4   7   3   24.30    4.10
   4   7   3   30.90    4.80
   4   7   3   19.80    3.20
  -5  -7  -3  155.88    7.70
  -5  -7  -3  173.48   12.60
  -5  -7  -3  155.28    5.30
   5   7   3  144.69   10.10
   5   7   3  158.38    8.10
   5   7   3  148.49    9.70
   5   7   3  172.08   13.10
  -6  -7  -3  262.67   10.70
  -6  -7  -3  246.68   15.60
  -6  -7  -3  244.18   12.00
  -6  -7  -3  266.57   10.70
   6   7   3  250.67   16.90
   6   7   3  243.98   13.00
   6   7   3  262.17   14.30
  -7  -7  -3   80.99    6.30
  -7  -7  -3   74.79   10.00
  -7  -7  -3   67.09    9.60
  -7  -7  -3   80.39    5.80
   7   7   3   61.19    9.20
   7   7   3   80.59    7.80
   7   7   3   75.39    8.40
  -8  -7  -3  128.59   12.50
  -8  -7  -3  113.79    8.10
   8   7   3  111.19   12.40
   8   7   3  118.69    9.80
  -9  -7  -3   71.39    9.80
  -9  -7  -3   73.49    7.10
   9   7   3   67.39   10.40
   8  -8  -3   65.29   10.10
   8  -8  -3   69.19    9.90
   8  -8  -3   86.69   11.90
   8  -8  -3   61.69    9.10
  -8   8   3   72.19    9.70
  -8   8   3   57.79   10.40
   7  -8  -3   30.10    6.60
   7  -8  -3   34.20    7.90
   7  -8  -3   23.10    6.00
  -7   8   3   42.20    7.90
   6  -8  -3  454.35   23.40
   6  -8  -3  456.25   24.20
  -6   8   3  499.95   24.30
  -6   8   3  476.35   17.50
   5  -8  -3    4.40    2.60
   5  -8  -3    2.30    2.40
  -5   8   3    6.90    2.20
  -5   8   3   -1.70    1.80
  -5   8   3    4.20    2.50
   4  -8  -3  420.36   20.40
   4  -8  -3  389.76   22.00
   4  -8  -3  464.55   22.40
  -4   8   3  438.16   20.60
  -4   8   3  410.46   15.40
  -4   8   3  417.86   13.30
  -4   8   3  431.56   12.90
   3  -8  -3  346.27   18.40
   3  -8  -3  360.46   20.20
   3  -8  -3  354.46   17.90
  -3   8   3  337.07   17.10
  -3   8   3  354.66   13.30
  -3   8   3  321.07   11.90
  -3   8   3  335.77   10.10
   2  -8  -3  272.77   14.80
   2  -8  -3  282.67   16.00
   2  -8  -3  279.87   17.20
  -2   8   3  281.77   12.90
  -2   8   3  276.17   12.30
  -2   8   3  289.97    9.30
  -2   8   3  298.67   15.00
   1  -8  -3    7.70    3.10
   1  -8  -3   12.60    3.50
  -1   8   3   10.10    3.10
  -1   8   3   15.60    3.10
  -1   8   3   12.70    3.70
   0  -8  -3 1192.18   32.20
   0  -8  -3 1308.47   36.40
   0  -8  -3 1277.97   38.90
   0   8   3 1297.47   35.60
   0   8   3 1242.28   28.80
   0   8   3 1270.57   32.20
  -1  -8  -3   -0.10    1.40
  -1  -8  -3   -1.40    1.00
  -1  -8  -3    1.10    1.70
   1   8   3    0.90    2.20
   1   8   3    0.10    1.10
   1   8   3    0.80    1.20
  -2  -8  -3  179.78    8.90
  -2  -8  -3  211.08   12.20
  -2  -8  -3  191.88   13.40
   2   8   3  195.08   11.80
   2   8   3  199.28   13.40
   2   8   3  181.38    7.70
   2   8   3  196.48   10.50
  -3  -8  -3   93.19    8.30
  -3  -8  -3   86.59    8.80
  -3  -8  -3   86.49    5.20
   3   8   3   81.29    4.90
   3   8   3   80.39    7.10
   3   8   3   93.19    9.40
   3   8   3   91.49    8.20
  -4  -8  -3  431.66   20.90
  -4  -8  -3  435.86   17.80
   4   8   3  401.16   12.30
   4   8   3  442.56   18.20
   4   8   3  403.36   17.10
   4   8   3  399.86   21.00
  -5  -8  -3    3.40    2.30
   5   8   3   -0.80    2.10
   5   8   3    0.60    2.20
   5   8   3    4.30    2.30
  -6  -8  -3  415.06   24.90
  -6  -8  -3  413.36   13.00
   6   8   3  381.36   17.70
   6   8   3  394.96   18.60
   6   8   3  414.96   22.60
  -7  -8  -3   10.10    2.00
  -7  -8  -3   20.40    3.40
  -7  -8  -3   14.20    5.00
   7   8   3    9.80    3.20
   7   8   3   12.10    4.30
   7   8   3    8.60    4.40
  -8  -8  -3   10.60    2.80
  -8  -8  -3    6.60    3.80
   8   8   3   10.30    3.40
   8   8   3   11.00    3.80
   8   8   3   14.80    4.80
   7  -9  -3   12.00    4.90
   7  -9  -3    9.60    3.70
   7  -9  -3    7.70    3.90
  -7   9   3   10.00    4.40
  -7   9   3   13.90    4.60
   6  -9  -3  162.88   15.10
   6  -9  -3  166.68   14.40
  -6   9   3  156.88   14.10
  -6   9   3  166.78    9.70
   5  -9  -3  481.65   24.80
   5  -9  -3  463.65   27.20
  -5   9   3  522.05   24.40
  -5   9   3  450.25   15.20
  -5   9   3  438.06   18.30
   4  -9  -3   11.30    3.30
   4  -9  -3    7.80    3.50
  -4   9   3    8.60    2.30
  -4   9   3    4.40    3.10
  -4   9   3   10.60    3.00
   3  -9  -3  367.76   19.90
   3  -9  -3  328.67   17.90
   3  -9  -3  315.77   20.20
  -3   9   3  335.97   13.60
  -3   9   3  373.36   18.50
  -3   9   3  322.47   11.60
  -3   9   3  329.77    9.40
   2  -9  -3  826.92   30.40
   2  -9  -3  823.72   32.90
  -2   9   3  779.12   27.20
  -2   9   3  765.62   17.20
  -2   9   3  780.52   24.70
   1  -9  -3    3.70    2.80
   1  -9  -3   -1.30    1.20
   1  -9  -3   -1.60    1.60
  -1   9   3    1.10    1.90
  -1   9   3   -0.30    1.30
  -1   9   3    1.70    1.80
   0  -9  -3   24.60    6.10
   0  -9  -3   10.00    3.20
   0  -9  -3   15.20    3.90
   0   9   3   25.30    5.40
   0   9   3   24.30    4.40
   0   9   3   17.70    3.30
  -1  -9  -3 1024.60   35.80
  -1  -9  -3 1038.80   28.60
  -1  -9  -3  980.30   31.80
   1   9   3 1048.20   33.70
   1   9   3 1023.90   32.00
   1   9   3  978.10   23.20
   1   9   3 1045.60   27.70
   1   9   3 1010.20   28.90
  -2  -9  -3  204.88   10.30
  -2  -9  -3  222.98   13.40
  -2  -9  -3  207.08   14.90
   2   9   3  212.98   13.30
   2   9   3  228.68   15.10
   2   9   3  230.98   12.40
   2   9   3  208.38    7.80
  -3  -9  -3   48.10    7.40
  -3  -9  -3   29.10    3.80
  -3  -9  -3   40.70    6.30
   3   9   3   39.90    5.60
   3   9   3   30.70    2.80
   3   9   3   36.00    6.70
   3   9   3   36.10    6.00
  -4  -9  -3  237.08    7.80
  -4  -9  -3  250.47   13.80
  -4  -9  -3  229.48   16.00
   4   9   3  246.68   14.40
   4   9   3  236.28   13.50
  -5  -9  -3   76.19    9.50
  -5  -9  -3   77.79    8.00
   5   9   3   82.39    8.50
   5   9   3   88.09   10.70
   5   9   3   78.39    8.00
  -6  -9  -3   42.90    6.20
  -6  -9  -3   40.60    7.50
   6   9   3   44.60    7.00
   6   9   3   31.90    7.40
   6   9   3   50.19    7.30
  -7  -9  -3  143.59   10.30
  -7  -9  -3  139.29   13.40
   7   9   3  131.59   11.70
   7   9   3  150.48   14.80
   7   9   3  141.59   19.00
   6 -10  -3    7.60    4.50
   6 -10  -3    1.70    2.80
  -6  10   3    1.80    3.10
  -6  10   3    2.10    3.50
   5 -10  -3  289.87   18.30
   5 -10  -3  269.27   19.10
  -5  10   3  272.17   17.00
  -5  10   3  267.17   18.00
  -5  10   3  224.68   11.80
   4 -10  -3  151.88   14.10
   4 -10  -3  138.79   12.30
  -4  10   3  157.58   13.10
  -4  10   3  142.49    8.70
   3 -10  -3   95.99   10.40
   3 -10  -3  105.59   11.30
   3 -10  -3  109.59   12.90
  -3  10   3  118.99    8.70
  -3  10   3  103.09    5.90
   2 -10  -3  130.19   11.20
   2 -10  -3  127.49   13.20
   2 -10  -3  125.49   12.50
  -2  10   3  132.29   11.00
  -2  10   3  117.59    8.40
  -2  10   3  123.39    9.60
   1 -10  -3  425.36   23.90
   1 -10  -3  437.16   21.90
  -1  10   3  441.16   19.40
  -1  10   3  437.66   15.50
  -1  10   3  419.36   19.20
   0 -10  -3   -1.50    2.10
   0 -10  -3    0.40    1.30
   0  10   3    0.30    1.60
   0  10   3   -0.60    1.70
   0  10   3    3.20    2.40
  -1 -10  -3   47.50    7.10
  -1 -10  -3   46.30    8.50
  -1 -10  -3   42.80    6.00
   1  10   3   40.80    5.60
   1  10   3   52.09    8.20
   1  10   3   33.10    5.50
   1  10   3   39.50    6.90
  -2 -10  -3   30.20    5.80
  -2 -10  -3   19.40    5.50
  -2 -10  -3   21.50    4.40
   2  10   3   20.90    4.50
   2  10   3   15.10    4.60
   2  10   3   12.50    3.60
  -3 -10  -3   50.09    5.00
  -3 -10  -3   60.09    7.50
  -3 -10  -3   77.09    9.70
   3  10   3   55.29    6.90
   3  10   3   60.99    8.90
   3  10   3   67.39   12.00
  -4 -10  -3    5.80    1.80
  -4 -10  -3    5.80    3.40
  -4 -10  -3    5.40    3.00
   4  10   3    7.60    3.80
   4  10   3    9.30    3.30
   4  10   3    5.70    3.40
  -5 -10  -3   89.69    8.70
  -5 -10  -3   96.29   11.20
   5  10   3  111.09   11.70
   5  10   3   96.19   12.30
   5  10   3   89.59    9.40
  -6 -10  -3    6.90    3.90
  -6 -10  -3    8.60    3.10
   6  10   3    8.50    4.10
   6  10   3    8.10    5.10
   6  10   3   11.60    4.30
   4 -11  -3   40.90    7.50
   4 -11  -3   57.49    9.70
  -4  11   3   37.20    7.30
  -4  11   3   42.80    8.10
   3 -11  -3  189.48   14.30
   3 -11  -3  186.18   15.80
   3 -11  -3  205.28   17.90
  -3  11   3  190.78   12.90
  -3  11   3  172.18   13.80
   2 -11  -3    2.90    3.60
   2 -11  -3    2.90    2.50
   2 -11  -3    1.10    4.60
  -2  11   3   -3.20    2.50
  -2  11   3    1.10    2.10
  -2  11   3    2.10    2.50
   1 -11  -3  140.99   14.60
   1 -11  -3  172.08   13.70
  -1  11   3  151.38   11.70
  -1  11   3  137.59   11.10
  -1  11   3  149.19    8.40
   0 -11  -3  152.28   13.60
   0 -11  -3  137.19   14.10
   0  11   3  162.88   13.30
   0  11   3  134.19    7.20
   0  11   3  131.99   11.60
   0  11   3  160.48   11.20
  -1 -11  -3   30.20    6.30
  -1 -11  -3   31.90    7.20
   1  11   3   32.10    6.60
   1  11   3   19.00    6.30
   1  11   3   21.40    4.80
  -2 -11  -3   -1.70    2.40
  -2 -11  -3   -1.90    2.50
  -2 -11  -3   -1.60    1.60
   2  11   3   -4.00    1.40
   2  11   3   -1.90    2.10
   2  11   3    2.40    2.80
  -3 -11  -3  122.39   13.00
  -3 -11  -3  109.39   10.30
   3  11   3   98.99   10.70
   3  11   3   99.29   11.30
   3  11   3   99.59    9.70
  -4 -11  -3   -0.70    2.00
  -4 -11  -3    1.40    2.20
   4  11   3    2.20    3.80
   4  11   3   -1.80    2.50
   4  11   3    1.60    2.80
  -5 -11  -3   21.10    4.90
  -5 -11  -3   14.40    5.00
   5  11   3   18.00    5.00
   5  11   3   18.10    5.10
   5  11   3   14.20    5.90
   2 -12  -3   14.50    4.30
   2 -12  -3    5.00    5.00
   2 -12  -3    5.60    4.10
  -2  12   3    6.50    3.30
  -2  12   3   -1.50    2.20
   1 -12  -3   -4.50    2.70
   1 -12  -3   -1.60    2.10
   1 -12  -3    5.60    3.40
  -1  12   3    5.20    3.20
  -1  12   3   -2.10    3.00
  -1  12   3    2.00    3.60
  -1  12   3    2.80    1.80
   0 -12  -3   42.00    8.90
   0 -12  -3   43.50    7.70
   0  12   3   40.20    7.60
   0  12   3   27.70    6.40
   0  12   3   41.60    7.20
   0  12   3   41.90    8.00
  -1 -12  -3   47.50    8.20
  -1 -12  -3   46.10    9.30
   1  12   3   56.19    9.10
   1  12   3   68.69    9.90
   1  12   3   53.59    7.90
  -2 -12  -3   13.60    4.00
  -2 -12  -3   13.10    5.30
   2  12   3   10.30    4.20
   2  12   3   10.90    5.00
   2  12   3   10.30    4.00
   2  11  -4   11.50    3.80
   2  11  -4   -1.10    3.20
   2  11  -4   12.40    5.10
   2  11  -4    0.90    2.10
  -2 -11   4    7.90    2.60
   1  11  -4  212.68   15.20
   1  11  -4  202.38   13.80
   1  11  -4  176.18   10.70
   1  11  -4  207.38   16.20
  -1 -11   4  196.38   11.60
   0  11  -4   14.70    3.90
   0  11  -4   36.00    8.30
   0  11  -4   16.80    4.40
   0 -11   4   19.10    5.60
   0 -11   4   27.90    5.60
  -1  11  -4   78.79   10.70
  -1  11  -4   68.29    7.30
   1 -11   4   57.99    9.90
   1 -11   4   61.89    8.10
  -2  11  -4   11.90    4.60
   2 -11   4   23.40    7.00
   2 -11   4   10.20    3.90
  -3  11  -4   52.29    9.00
   3 -11   4   40.20    7.70
   3 -11   4   46.30   10.10
   5  10  -4   -2.80    3.10
   5  10  -4    3.50    3.00
   5  10  -4    5.10    3.20
   5  10  -4   -2.40    2.00
  -5 -10   4   -0.50    3.30
  -5 -10   4    3.30    2.70
  -5 -10   4   -1.20    2.10
   4  10  -4  127.39   11.90
   4  10  -4  153.88   14.20
   4  10  -4  136.79   10.00
   4  10  -4  125.09   12.40
  -4 -10   4  144.89   11.10
   3  10  -4    3.20    2.50
   3  10  -4    2.30    2.50
   3  10  -4    6.20    3.70
   3  10  -4    4.30    3.30
  -3 -10   4    9.40    3.50
   2  10  -4    4.80    2.60
   2  10  -4   10.80    3.80
   2  10  -4    2.20    3.80
   2  10  -4   16.90    5.20
  -2 -10   4   11.00    2.70
   1  10  -4    1.50    2.20
   1  10  -4    5.80    3.00
   1  10  -4    3.20    3.10
   1  10  -4    2.90    3.10
  -1 -10   4    6.90    2.90
   0  10  -4  335.57   15.10
   0  10  -4  345.97   19.40
   0 -10   4  348.17   16.40
  -1  10  -4   35.20    7.00
  -1  10  -4   25.10    5.10
   1 -10   4   17.40    5.40
   1 -10   4   24.10    5.50
  -2  10  -4   53.59    8.30
   2 -10   4   61.59    8.10
   2 -10   4   64.29    9.00
  -3  10  -4  156.58   12.60
  -3  10  -4  150.68    9.00
   3 -10   4  169.88   16.50
   3 -10   4  148.79   14.70
   3 -10   4  161.08   12.60
  -4  10  -4   54.69    6.80
  -4  10  -4   58.69    8.30
   4 -10   4   48.10    9.90
   4 -10   4   62.69    9.20
  -5  10  -4   12.90    4.50
  -5  10  -4   12.80    4.70
  -5  10  -4   13.00    4.10
   5 -10   4   10.40    3.80
   5 -10   4    5.50    3.20
   6   9  -4   32.80    6.80
   6   9  -4   47.80    8.60
   6   9  -4   29.70    6.40
   6   9  -4   55.69    9.40
  -6  -9   4   45.00    8.60
  -6  -9   4   36.80    6.00
  -6  -9   4   38.50    6.20
   5   9  -4    5.00    3.70
   5   9  -4    5.10    2.70
   5   9  -4    5.40    3.50
   5   9  -4    4.70    3.40
  -5  -9   4    2.20    2.90
  -5  -9   4    2.90    2.20
   4   9  -4   53.39    6.90
   4   9  -4   55.69    8.40
   4   9  -4   41.30    7.50
   4   9  -4   70.39   10.30
   4   9  -4   38.60    6.50
  -4  -9   4   59.99    6.80
   3   9  -4   35.50    5.80
   3   9  -4   47.40    6.00
   3   9  -4   59.39    7.50
   3   9  -4   51.39    7.40
   3   9  -4   36.00    7.20
  -3  -9   4   48.00    6.60
   2   9  -4  162.68   12.40
   2   9  -4  161.98   11.60
   2   9  -4  158.88   10.00
   2   9  -4  163.88   12.70
   2   9  -4  148.89   10.10
  -2  -9   4  142.39   11.00
  -2  -9   4  163.28    8.00
   1   9  -4   62.49    8.30
   1   9  -4   60.99    6.30
   1   9  -4   56.99    7.20
   1   9  -4   61.49    7.40
  -1  -9   4   62.49    6.20
   0   9  -4  101.09   12.90
   0   9  -4   63.09    6.50
   0   9  -4   90.69    7.50
   0  -9   4   83.19    7.60
  -1   9  -4   66.59    4.30
  -1   9  -4   61.49    8.40
   1  -9   4   71.09    7.80
   1  -9   4   55.19    8.30
  -2   9  -4   42.10    6.80
  -2   9  -4   35.40    4.30
   2  -9   4   37.40    6.00
   2  -9   4   54.39    7.40
  -3   9  -4    9.00    3.20
  -3   9  -4   11.50    5.00
   3  -9   4    8.40    3.40
   3  -9   4   10.10    4.60
   3  -9   4    9.30    3.50
  -4   9  -4  376.46   16.20
  -4   9  -4  357.26   18.60
  -4   9  -4  350.06   19.60
   4  -9   4  387.16   22.60
   4  -9   4  356.66   13.20
   4  -9   4  342.57   30.20
   4  -9   4  339.77   14.30
  -5   9  -4    1.10    2.70
  -5   9  -4   -0.20    2.80
  -5   9  -4    0.90    2.20
   5  -9   4   -2.60    2.60
   5  -9   4   -3.20    1.80
   5  -9   4    1.50    2.00
  -6   9  -4  131.29   11.30
  -6   9  -4  132.79   11.40
  -6   9  -4  144.29   13.90
   6  -9   4  143.79   10.50
   6  -9   4  139.79   14.10
   6  -9   4  170.18   15.70
   7   8  -4   20.30    5.70
   7   8  -4   22.40    5.90
   7   8  -4   25.40    6.30
   7   8  -4   23.00    6.40
  -7  -8   4   14.70    3.00
  -7  -8   4   21.40    5.90
  -7  -8   4   18.30    4.40
   6   8  -4   14.20    5.20
   6   8  -4   12.10    3.80
   6   8  -4    8.40    3.70
   6   8  -4   11.00    4.00
  -6  -8   4    6.50    2.70
  -6  -8   4   21.60    4.20
  -6  -8   4   11.30    4.80
  -6  -8   4    9.40    2.70
  -6  -8   4   14.40    3.40
   5   8  -4   15.20    4.00
   5   8  -4   24.80    6.10
   5   8  -4   13.60    4.30
   5   8  -4   31.30    5.50
  -5  -8   4   21.50    5.60
  -5  -8   4   29.60    4.00
   4   8  -4  244.98   13.00
   4   8  -4  229.68   14.30
   4   8  -4  247.48   16.10
  -4  -8   4  224.08    7.80
   3   8  -4   -2.30    1.40
   3   8  -4   -1.10    1.80
   3   8  -4    0.70    1.60
   3   8  -4   -0.80    1.70
   3   8  -4    0.30    2.00
  -3  -8   4    0.40    1.80
   2   8  -4  294.27   15.90
   2   8  -4  300.07   15.30
   2   8  -4  321.37   13.90
   2   8  -4  292.47   13.30
   2   8  -4  313.87   16.90
  -2  -8   4  308.37   10.60
  -2  -8   4  295.37   14.60
   1   8  -4  164.58   10.10
   1   8  -4  177.88   10.10
   1   8  -4  172.28   12.00
   1   8  -4  171.18   12.20
  -1  -8   4  173.58    9.20
   0   8  -4   36.10    4.90
   0   8  -4   43.50    5.30
   0   8  -4   41.60    5.60
   0   8  -4   51.49    6.70
   0  -8   4   53.89    7.10
  -1   8  -4  173.08   11.40
  -1   8  -4  167.88   11.70
  -1   8  -4  171.28    7.50
  -1   8  -4  174.88   10.60
   1  -8   4  149.79   11.00
   1  -8   4  189.58   11.60
   1  -8   4  181.58   13.50
  -2   8  -4  600.84   22.60
  -2   8  -4  592.94   17.60
   2  -8   4  566.44   24.50
   2  -8   4  558.64   22.50
   2  -8   4  570.64   25.40
  -3   8  -4    1.80    2.00
  -3   8  -4    3.40    2.10
  -3   8  -4   -0.50    1.80
   3  -8   4    1.50    2.00
   3  -8   4    1.70    2.40
   3  -8   4    3.20    2.20
   3  -8   4    2.10    1.00
  -4   8  -4  323.47   19.00
  -4   8  -4  318.77   14.70
  -4   8  -4  304.47   15.80
   4  -8   4  347.37   18.80
   4  -8   4  313.97   12.40
   4  -8   4  322.37   19.80
   4  -8   4  293.77   12.70
  -5   8  -4  115.79    9.60
  -5   8  -4  128.49   11.90
  -5   8  -4  117.29    9.80
   5  -8   4  113.09   10.80
   5  -8   4  105.09    8.20
   5  -8   4   81.29   15.00
   5  -8   4  113.19   11.80
  -6   8  -4   10.40    4.20
  -6   8  -4    9.60    3.20
  -6   8  -4   12.60    3.30
   6  -8   4   11.90    3.90
   6  -8   4   13.70    3.60
   6  -8   4   13.30    5.30
   6  -8   4   14.20    3.60
   6  -8   4   11.90    4.60
  -7   8  -4  119.99   12.60
  -7   8  -4  127.79   11.50
  -7   8  -4  111.69   10.80
   7  -8   4  128.59   10.60
   7  -8   4  122.79   12.90
   7  -8   4  110.49   12.30
   7  -8   4  128.19   14.80
   8   7  -4    3.70    3.70
   8   7  -4   -0.90    2.90
   8   7  -4    4.40    2.80
   8   7  -4   -0.30    2.50
  -8  -7   4    1.10    2.90
  -8  -7   4    0.00    2.60
  -8  -7   4    0.70    2.30
   7   7  -4   96.09   10.50
   7   7  -4  105.19   11.80
   7   7  -4  107.19    9.80
   7   7  -4   94.29   10.70
  -7  -7   4   84.09    7.00
  -7  -7   4   98.29   11.10
  -7  -7   4   87.49    8.40
   6   7  -4   19.50    7.30
   6   7  -4   22.30    5.40
   6   7  -4   28.00    5.60
   6   7  -4   13.60    4.00
  -6  -7   4   22.70    5.90
  -6  -7   4   26.20    3.50
  -6  -7   4   23.30    3.90
  -6  -7   4   15.30    3.60
  -6  -7   4   22.50    4.40
   5   7  -4    9.50    3.50
   5   7  -4   18.10    4.80
   5   7  -4   14.30    3.80
   5   7  -4   11.10    4.40
  -5  -7   4   12.20    2.70
  -5  -7   4   16.80    3.60
  -5  -7   4   10.30    3.40
  -5  -7   4    9.60    3.00
   4   7  -4  405.16   19.00
   4   7  -4  382.76   18.30
   4   7  -4  417.36   19.70
   4   7  -4  395.46   16.70
  -4  -7   4  398.36   12.20
  -4  -7   4  413.86   15.10
   3   7  -4  116.59    8.40
   3   7  -4  120.29    9.80
   3   7  -4  117.89    7.40
   3   7  -4  102.79    9.10
   3   7  -4  122.59   10.30
  -3  -7   4  126.89    8.20
   2   7  -4  225.68   11.40
   2   7  -4  217.38   12.40
   2   7  -4  225.78   10.60
   2   7  -4  247.58   13.50
   2   7  -4  201.38   12.80
  -2  -7   4  235.88   11.70
   1   7  -4 1311.87   32.50
   1   7  -4 1339.77   29.90
   1   7  -4 1347.67   37.20
   1   7  -4 1349.07   33.10
  -1  -7   4 1326.97   39.20
  -1  -7   4 1344.37   30.70
   0   7  -4  559.54   18.10
   0   7  -4  574.34   19.70
   0   7  -4  575.54   14.00
   0   7  -4  584.24   21.70
   0  -7   4  584.04   19.00
   0  -7   4  587.54   22.30
  -1   7  -4    1.70    1.60
  -1   7  -4    1.20    1.70
  -1   7  -4    1.10    1.70
  -1   7  -4    3.50    1.40
   1  -7   4    4.80    2.10
   1  -7   4    3.30    2.40
   1  -7   4    6.10    2.40
  -2   7  -4 1122.49   33.40
  -2   7  -4 1182.28   32.50
  -2   7  -4 1161.38   32.60
  -2   7  -4 1140.99   27.80
   2  -7   4 1142.89   33.30
   2  -7   4 1190.98   36.80
   2  -7   4 1169.78   31.60
  -3   7  -4 1235.48   31.00
  -3   7  -4 1217.28   36.00
  -3   7  -4 1219.08   33.50
   3  -7   4 1189.58   26.30
   3  -7   4 1140.09   30.30
   3  -7   4 1140.49   37.40
   3  -7   4 1149.58   35.30
  -4   7  -4  106.19    9.70
  -4   7  -4  111.39    8.60
  -4   7  -4  108.89    8.70
   4  -7   4  106.29    9.90
   4  -7   4  110.49   10.80
   4  -7   4  100.39    7.10
   4  -7   4   97.69    6.80
  -5   7  -4  289.67   14.90
  -5   7  -4  290.07   14.40
  -5   7  -4  263.17   16.20
   5  -7   4  268.77   13.20
   5  -7   4  262.37   10.10
   5  -7   4  277.77   17.20
   5  -7   4  274.47   13.10
   5  -7   4  280.57   17.60
  -6   7  -4  592.84   25.60
  -6   7  -4  590.64   21.90
  -6   7  -4  614.64   24.20
   6  -7   4  607.14   28.30
   6  -7   4  591.94   34.20
   6  -7   4  596.44   19.30
   6  -7   4  569.84   19.20
   6  -7   4  587.74   21.90
  -7   7  -4    6.10    3.70
  -7   7  -4    2.30    2.60
   7  -7   4    4.80    2.40
   7  -7   4    0.30    1.30
   7  -7   4    2.60    3.20
   7  -7   4    3.10    3.40
   7  -7   4    3.70    2.50
   7  -7   4    0.40    3.00
  -8   7  -4   84.99   11.10
  -8   7  -4   93.79   10.30
   8  -7   4  101.59   12.20
   8  -7   4   99.89   11.80
   8  -7   4   90.59   12.60
   9   6  -4  137.99   13.60
   9   6  -4  113.89   12.90
  -9  -6   4  119.29    8.20
  -9  -6   4  102.69   11.40
  -9  -6   4  119.19   11.40
  -9  -6   4  131.29    8.70
   8   6  -4    1.00    2.30
   8   6  -4   -3.70    2.60
   8   6  -4   -1.40    2.30
  -8  -6   4   -1.70    1.50
  -8  -6   4   -2.30    2.00
  -8  -6   4   -1.20    2.70
  -8  -6   4   -2.50    1.80
   7   6  -4  111.39   10.80
   7   6  -4  101.09    9.80
   7   6  -4   84.09    9.50
   7   6  -4   97.09   11.00
  -7  -6   4  100.19    5.60
  -7  -6   4  101.69    7.00
  -7  -6   4  108.59    6.20
  -7  -6   4  102.49    9.00
  -7  -6   4  100.89   10.80
   6   6  -4  130.49   11.60
   6   6  -4  137.19   11.60
   6   6  -4  109.79    9.70
   6   6  -4  124.19   11.00
  -6  -6   4  124.89    5.70
  -6  -6   4  114.59    5.30
  -6  -6   4  110.99    8.20
  -6  -6   4  125.79    6.10
  -6  -6   4  127.79    6.40
  -6  -6   4  122.59   11.00
  -6  -6   4  133.29    7.60
   5   6  -4  173.48   12.40
   5   6  -4  180.68   11.50
   5   6  -4  188.18   12.70
   5   6  -4  191.38   13.30
  -5  -6   4  155.78    8.60
  -5  -6   4  190.58    8.90
  -5  -6   4  196.18   13.60
  -5  -6   4  190.68    9.20
   4   6  -4    6.70    3.30
   4   6  -4   10.60    3.20
   4   6  -4    7.10    2.40
   4   6  -4    8.40    2.80
  -4  -6   4    7.60    1.90
  -4  -6   4   11.50    2.70
  -4  -6   4    7.20    3.30
  -4  -6   4    9.80    3.50
  -4  -6   4    1.50    2.10
   3   6  -4  635.44   19.90
   3   6  -4  621.74   23.30
   3   6  -4  612.24   22.10
   3   6  -4  647.44   22.50
   3   6  -4  659.33   20.90
  -3  -6   4  603.74   21.60
  -3  -6   4  646.64   18.40
  -3  -6   4  632.54   14.30
   2   6  -4   37.50    4.00
   2   6  -4   39.90    5.70
   2   6  -4   40.50    5.60
   2   6  -4   46.40    5.70
   2   6  -4   43.90    5.00
  -2  -6   4   31.20    5.10
  -2  -6   4   35.80    5.80
  -2  -6   4   48.00    5.70
  -2  -6   4   44.20    4.50
   1   6  -4  177.28    8.80
   1   6  -4  174.38   10.70
   1   6  -4  162.38    9.40
   1   6  -4  183.18    9.60
  -1  -6   4  176.28    7.90
  -1  -6   4  183.88   11.60
  -1  -6   4  174.08   10.70
   0   6  -4 1044.10   22.20
   0   6  -4 1008.50   25.50
   0   6  -4 1032.80   29.10
   0   6  -4 1020.90   26.80
   0  -6   4 1050.39   30.90
   0  -6   4 1052.09   26.30
   0  -6   4 1005.10   29.80
   0  -6   4  988.60   29.60
  -1   6  -4  679.03   21.70
  -1   6  -4  672.33   21.30
  -1   6  -4  629.74   20.00
  -1   6  -4  671.03   17.40
   1  -6   4  630.34   21.40
   1  -6   4  589.04   22.10
   1  -6   4  659.03   23.90
   1  -6   4  653.83   20.80
  -2   6  -4  186.38    8.90
  -2   6  -4  169.68   10.50
  -2   6  -4  181.58   10.30
  -2   6  -4  161.38   10.00
   2  -6   4  179.48   12.10
   2  -6   4  172.18    9.80
   2  -6   4  197.88   11.50
  -3   6  -4 1174.58   34.20
  -3   6  -4 1185.88   31.20
  -3   6  -4 1215.48   30.40
  -3   6  -4 1189.58   34.50
  -3   6  -4 1144.99   33.00
   3  -6   4 1174.28   26.30
   3  -6   4 1183.78   34.10
   3  -6   4 1168.28   35.90
   3  -6   4 1198.98   29.70
  -4   6  -4  150.28   11.00
  -4   6  -4  136.59    9.10
  -4   6  -4  158.28   10.00
   4  -6   4  166.88    8.80
   4  -6   4  158.28   12.00
   4  -6   4  156.78   11.60
   4  -6   4  144.89    7.90
  -5   6  -4   86.29    7.40
  -5   6  -4   86.29    8.00
  -5   6  -4   96.09    9.10
   5  -6   4   92.19    7.60
   5  -6   4   82.59    5.30
   5  -6   4   85.69    9.50
   5  -6   4   87.19    6.60
   5  -6   4   72.69    8.10
  -6   6  -4  411.96   19.10
  -6   6  -4  396.26   19.80
   6  -6   4  385.66   20.60
   6  -6   4  415.16   14.10
   6  -6   4  372.46   17.10
   6  -6   4  428.46   21.50
   6  -6   4  401.06   13.70
  -7   6  -4  368.96   27.00
  -7   6  -4  280.87   17.10
   7  -6   4  305.37   16.20
   7  -6   4  266.27   17.80
   7  -6   4  300.87    9.60
   7  -6   4  297.17   22.30
   7  -6   4  268.07    9.10
   7  -6   4  301.27   20.00
  -8   6  -4   28.50    6.40
  -8   6  -4   19.60    5.50
   8  -6   4   25.20    5.40
   8  -6   4   34.10    7.10
   8  -6   4   38.60    8.40
   8  -6   4   20.80    5.00
  -9   6  -4  141.99   13.50
  -9   6  -4  170.78   14.90
   9  -6   4  152.08   15.60
   9  -6   4  163.18   15.20
   9  -6   4  154.28   14.20
   9   5  -4  271.67   18.90
  -9  -5   4  284.17   14.30
  -9  -5   4  289.07   17.50
  -9  -5   4  275.47   12.80
  -9  -5   4  268.57   20.10
   8   5  -4  135.89   12.70
   8   5  -4  131.09   12.50
   8   5  -4  126.49   15.00
  -8  -5   4  130.69    8.30
  -8  -5   4  140.29    9.30
  -8  -5   4  133.29    8.50
  -8  -5   4  144.99   12.00
  -8  -5   4  139.39   11.60
   7   5  -4   26.90    6.20
   7   5  -4   24.00    5.80
   7   5  -4   27.60    6.30
   7   5  -4   31.30    5.80
  -7  -5   4   21.70    3.70
  -7  -5   4   23.50    5.10
  -7  -5   4   25.90    4.40
  -7  -5   4   29.30    4.00
  -7  -5   4   37.40    6.50
   6   5  -4   31.70    5.80
   6   5  -4   37.80    6.00
   6   5  -4   30.70    5.90
   6   5  -4   37.70    6.40
  -6  -5   4   38.40    6.30
  -6  -5   4   35.90    3.90
  -6  -5   4   45.40    5.60
  -6  -5   4   36.60    4.20
  -6  -5   4   32.70    3.70
   5   5  -4 1604.84   43.10
   5   5  -4 1687.93   41.80
   5   5  -4 1674.33   43.40
   5   5  -4 1703.93   44.70
  -5  -5   4 1602.64   33.20
  -5  -5   4 1687.13   33.80
  -5  -5   4 1652.23   33.20
  -5  -5   4 1682.43   37.80
  -5  -5   4 1608.94   43.10
  -5  -5   4 1636.64   34.00
  -5  -5   4 1741.63   45.10
   4   5  -4    8.10    2.40
   4   5  -4   12.90    3.50
   4   5  -4   19.20    4.30
   4   5  -4   12.30    3.30
  -4  -5   4   12.80    1.90
  -4  -5   4   14.80    3.90
  -4  -5   4    8.40    3.10
  -4  -5   4   12.20    2.70
  -4  -5   4   13.40    2.30
   3   5  -4  686.63   22.30
   3   5  -4  659.43   16.50
   3   5  -4  679.53   21.00
   3   5  -4  689.93   22.50
   3   5  -4  644.04   22.70
  -3  -5   4  639.94   21.90
  -3  -5   4  681.93   15.80
  -3  -5   4  680.73   17.20
  -3  -5   4  670.13   14.70
  -3  -5   4  665.23   24.40
  -3  -5   4  657.33   23.90
  -3  -5   4  694.53   20.00
   2   5  -4   84.99    7.30
   2   5  -4   93.39    7.40
   2   5  -4   88.79    7.10
   2   5  -4   95.09    5.20
  -2  -5   4   88.19    7.10
  -2  -5   4   94.19    9.40
  -2  -5   4   93.29    7.00
  -2  -5   4   94.79    5.60
  -2  -5   4   94.99    4.20
   1   5  -4  278.87   12.90
   1   5  -4  293.57   12.00
   1   5  -4  292.27    9.60
   1   5  -4  286.97   10.30
  -1  -5   4  290.37    9.90
  -1  -5   4  292.77   13.20
  -1  -5   4  291.87   13.00
  -1  -5   4  306.37   13.40
  -1  -5   4  282.57   13.90
  -1  -5   4  306.47    9.00
   0   5  -4  473.25   12.70
   0   5  -4  446.66   14.70
   0   5  -4  449.16   14.30
   0   5  -4  477.05   16.70
   0  -5   4  440.66   17.00
   0  -5   4  451.85   13.00
   0  -5   4  435.56   14.30
   0  -5   4  477.75   17.80
   0  -5   4  458.65   17.40
  -1   5  -4 1855.21   45.40
  -1   5  -4 1857.91   40.10
  -1   5  -4 1820.22   40.50
  -1   5  -4 1841.92   37.00
   1  -5   4 1727.73   42.50
   1  -5   4 1772.52   41.30
   1  -5   4 1788.12   37.90
   1  -5   4 1899.91   40.80
   1  -5   4 1827.92   43.90
  -2   5  -4    2.60    1.40
  -2   5  -4    0.80    1.20
  -2   5  -4    2.00    1.20
  -2   5  -4    2.10    1.70
   2  -5   4    3.30    1.70
   2  -5   4    2.20    1.60
   2  -5   4    5.10    2.50
   2  -5   4    1.60    1.60
  -3   5  -4  758.52   25.30
  -3   5  -4  773.82   24.80
  -3   5  -4  734.43   24.40
  -3   5  -4  729.43   24.60
   3  -5   4  752.62   26.00
   3  -5   4  723.73   24.70
   3  -5   4  769.12   24.80
   3  -5   4  752.42   19.00
  -4   5  -4    2.70    1.80
  -4   5  -4    2.10    2.10
  -4   5  -4    5.10    2.00
  -4   5  -4    3.30    2.10
  -4   5  -4    1.80    1.40
  -4   5  -4    8.20    2.90
   4  -5   4    6.80    2.40
   4  -5   4    6.90    2.80
   4  -5   4    3.60    2.10
   4  -5   4    7.10    3.00
  -5   5  -4 1215.18   34.10
  -5   5  -4 1225.18   31.80
  -5   5  -4 1209.78   35.30
   5  -5   4 1263.47   28.70
   5  -5   4 1232.98   32.90
   5  -5   4 1271.67   37.60
   5  -5   4 1222.68   27.30
   5  -5   4 1282.17   38.00
  -6   5  -4    3.00    2.20
  -6   5  -4   -2.50    1.50
  -6   5  -4    0.70    1.40
   6  -5   4    1.90    0.90
   6  -5   4    1.20    1.60
   6  -5   4    5.90    2.80
   6  -5   4   -0.10    1.60
   6  -5   4    1.80    1.10
   6  -5   4    1.30    1.00
   6  -5   4    0.40    1.40
   6  -5   4    1.90    1.10
  -7   5  -4  689.83   26.90
  -7   5  -4  723.93   27.00
   7  -5   4  705.63   30.80
   7  -5   4  700.03   28.80
   7  -5   4  695.93   28.00
   7  -5   4  691.23   25.70
  -8   5  -4   72.49    9.40
  -8   5  -4   78.69    9.20
   8  -5   4   75.89    9.10
   8  -5   4   83.59   11.20
   8  -5   4   79.29   10.00
  -9   5  -4   56.59    8.90
  -9   5  -4   59.99    8.60
   9  -5   4   68.59    9.90
   9  -5   4   59.79   10.50
   9  -5   4   63.09    9.20
 -10  -4   4    1.70    2.40
 -10  -4   4   -1.50    2.30
 -10  -4   4   -2.70    2.30
 -10  -4   4   -2.20    2.10
   9   4  -4    1.40    2.80
  -9  -4   4   -0.80    1.50
  -9  -4   4    0.60    2.70
  -9  -4   4    4.10    3.00
  -9  -4   4   -0.10    2.20
   8   4  -4  202.48   14.60
   8   4  -4  203.38   14.40
   8   4  -4  188.38   14.60
  -8  -4   4  193.38   13.30
  -8  -4   4  200.98   12.10
  -8  -4   4  211.48   14.10
  -8  -4   4  192.08    9.90
   7   4  -4  140.49   11.00
   7   4  -4  137.69   11.40
   7   4  -4  145.49   11.80
  -7  -4   4  112.49    9.50
  -7  -4   4  147.39    7.80
  -7  -4   4  152.98   11.40
  -7  -4   4  137.99    9.30
  -7  -4   4  137.39   10.90
   6   4  -4   52.89    7.20
   6   4  -4   43.10    6.60
   6   4  -4   47.90    6.50
   6   4  -4   43.20    6.40
  -6  -4   4   44.50    5.80
  -6  -4   4   44.30    5.50
  -6  -4   4   52.89    7.00
  -6  -4   4   45.50    4.00
   5   4  -4  191.88   12.40
   5   4  -4  208.28   12.50
   5   4  -4  205.28   11.90
   5   4  -4  208.48   12.30
  -5  -4   4  232.98   11.70
  -5  -4   4  194.08   19.30
  -5  -4   4  246.68   13.50
  -5  -4   4  203.38   10.20
  -5  -4   4  195.78   11.60
  -5  -4   4  209.18    8.90
  -5  -4   4  216.98    7.80
   4   4  -4  393.26   16.60
   4   4  -4  371.26   15.90
   4   4  -4  418.76   16.20
   4   4  -4  397.76   17.10
  -4  -4   4  379.06   17.50
  -4  -4   4  386.06   11.60
  -4  -4   4  409.56   13.40
  -4  -4   4  407.86   10.70
  -4  -4   4  386.56   16.20
  -4  -4   4  374.26   11.60
  -4  -4   4  395.16   16.10
  -4  -4   4  423.56   17.70
   3   4  -4   76.19    6.60
   3   4  -4   70.09    7.10
   3   4  -4   68.29    6.50
   3   4  -4   67.49    6.30
  -3  -4   4   69.79    4.10
  -3  -4   4   55.69    5.60
  -3  -4   4   72.59    5.10
  -3  -4   4   74.99    7.20
  -3  -4   4   65.39    6.60
  -3  -4   4   68.99    4.20
  -3  -4   4   72.09    3.80
   2   4  -4  520.85   17.20
   2   4  -4  541.35   12.70
   2   4  -4  592.94   25.20
   2   4  -4  536.45   17.00
   2   4  -4  549.05   18.60
  -2  -4   4  527.65   16.30
  -2  -4   4  547.65   19.70
  -2  -4   4  535.05   17.80
  -2  -4   4  515.05   13.10
  -2  -4   4  515.55   18.90
   1   4  -4  965.90   21.10
   1   4  -4  959.10   25.90
   1   4  -4 1011.00   25.00
   1   4  -4  984.30   21.40
   1   4  -4 1002.80   21.50
  -1  -4   4  987.90   27.70
  -1  -4   4 1005.80   26.50
  -1  -4   4  986.60   25.60
  -1  -4   4  990.70   21.30
  -1  -4   4  965.90   25.50
  -1  -4   4 1015.30   31.70
   0   4  -4    3.70    1.30
   0   4  -4    4.60    1.80
   0   4  -4    4.30    1.40
   0   4  -4    7.60    1.80
   0  -4   4    1.40    1.00
   0  -4   4    1.90    1.40
   0  -4   4    7.30    1.60
   0  -4   4    2.40    1.30
  -1   4  -4   29.70    3.20
  -1   4  -4   38.40    4.10
  -1   4  -4   32.20    3.70
  -1   4  -4   35.40    3.90
   1  -4   4   28.40    3.50
   1  -4   4   30.50    4.00
   1  -4   4   31.60    4.40
   1  -4   4   33.70    3.50
  -2   4  -4  540.35   16.10
  -2   4  -4  528.65   12.90
  -2   4  -4  535.15   18.00
  -2   4  -4  573.24   18.70
  -2   4  -4  520.55   16.10
   2  -4   4  540.65   16.90
   2  -4   4  558.14   20.30
   2  -4   4  553.24   18.90
   2  -4   4  531.35   17.90
  -3   4  -4  256.27   12.50
  -3   4  -4  277.87   11.80
  -3   4  -4  241.88   12.70
  -3   4  -4  260.97   10.50
  -3   4  -4  261.57    9.70
  -3   4  -4  254.87   12.50
   3  -4   4  257.77   13.40
   3  -4   4  255.17   12.00
   3  -4   4  294.37   13.50
   3  -4   4  277.67   11.00
  -4   4  -4  769.12   20.50
  -4   4  -4  793.12   21.70
  -4   4  -4  745.53   25.00
  -4   4  -4  763.12   23.40
  -4   4  -4  795.52   24.50
  -4   4  -4  770.52   26.10
   4  -4   4  767.52   19.90
   4  -4   4  768.52   25.40
   4  -4   4  756.82   25.70
   4  -4   4  761.52   21.40
   4  -4   4  856.71   32.20
   4  -4   4  758.42   24.20
  -5   4  -4 1683.43   39.80
  -5   4  -4 1732.23   42.10
  -5   4  -4 1684.03   42.10
   5  -4   4 1666.23   43.90
   5  -4   4 1734.23   34.00
   5  -4   4 1741.23   44.80
   5  -4   4 1605.34   42.40
   5  -4   4 1658.13   46.20
  -6   4  -4  154.88   11.10
  -6   4  -4  138.09    9.90
  -6   4  -4  162.48   11.10
   6  -4   4  148.09   12.40
   6  -4   4  155.38    7.00
   6  -4   4  143.69   10.10
   6  -4   4  155.68   11.80
   6  -4   4  169.98   12.10
  -7   4  -4   38.10    6.00
  -7   4  -4   32.60    6.00
   7  -4   4   33.60    6.80
   7  -4   4   33.30    6.30
   7  -4   4   36.20    3.10
   7  -4   4   49.20    7.10
  -8   4  -4  312.67   16.80
  -8   4  -4  297.47   17.80
   8  -4   4  259.57   18.40
   8  -4   4  284.17   17.00
  -9   4  -4  379.36   19.60
  -9   4  -4  430.66   22.80
   9  -4   4  379.76   23.60
   9  -4   4  444.46   23.90
 -10   4  -4  116.09   12.60
 -10   4  -4  136.99   11.90
  10  -4   4  125.59   12.30
  10  -4   4  103.99   13.20
 -10  -3   4  153.88   11.90
 -10  -3   4  180.28   13.80
 -10  -3   4  165.08   13.70
 -10  -3   4  131.89    9.90
   9   3  -4    6.30    3.70
  -9  -3   4    6.30    2.70
  -9  -3   4    6.70    2.80
  -9  -3   4    3.40    2.30
  -9  -3   4    5.10    3.20
   8   3  -4    9.10    3.90
   8   3  -4   12.40    3.90
   8   3  -4   15.10    4.10
  -8  -3   4   12.00    2.90
  -8  -3   4    9.20    3.60
  -8  -3   4   16.20    4.50
  -8  -3   4   15.70    4.40
   7   3  -4    1.70    1.50
   7   3  -4    2.40    2.30
   7   3  -4    3.40    2.30
   7   3  -4    0.10    1.90
  -7  -3   4    1.40    2.10
  -7  -3   4    1.70    1.60
  -7  -3   4    1.30    2.00
  -7  -3   4   -1.00    1.80
  -7  -3   4    6.50    3.00
   6   3  -4  882.31   26.60
   6   3  -4  897.41   29.00
   6   3  -4  838.82   27.60
   6   3  -4  864.91   28.10
  -6  -3   4  847.22   29.70
  -6  -3   4  838.02   20.40
  -6  -3   4  831.12   26.40
  -6  -3   4  849.22   27.20
  -6  -3   4  809.22   25.50
   5   3  -4   18.60    4.10
   5   3  -4   19.50    3.70
   5   3  -4   10.60    3.20
   5   3  -4   15.10    3.80
   5   3  -4   20.20    4.30
  -5  -3   4   17.30    3.80
  -5  -3   4   12.40    3.20
  -5  -3   4   10.50    2.60
  -5  -3   4   17.20    2.10
  -5  -3   4   15.50    3.50
  -5  -3   4    8.80    2.50
  -5  -3   4   12.30    3.40
  -5  -3   4   17.30    3.10
   4   3  -4 3000.00   62.39
   4   3  -4 2990.90   57.89
   4   3  -4 2965.50   62.99
   4   3  -4 3015.70   61.59
   4   3  -4 2907.21   60.99
  -4  -3   4 3028.30   60.29
  -4  -3   4 2960.60   59.59
  -4  -3   4 2994.60   57.79
  -4  -3   4 2966.90   59.89
  -4  -3   4 3050.49   61.99
  -4  -3   4 3021.10   51.69
  -4  -3   4 2992.80   56.29
  -4  -3   4 3029.90   62.89
  -4  -3   4 2918.21   63.79
  -4  -3   4 3074.49   51.49
   3   3  -4  299.37   12.50
   3   3  -4  312.47   13.60
   3   3  -4  314.87   12.70
   3   3  -4  299.57   10.10
  -3  -3   4  302.07   12.70
  -3  -3   4  314.07    9.60
  -3  -3   4  290.97   15.70
  -3  -3   4  312.67   10.20
  -3  -3   4  312.87   14.20
  -3  -3   4  296.97   12.00
  -3  -3   4  315.27   10.10
   2   3  -4 2413.16   48.70
   2   3  -4 2394.06   49.90
   2   3  -4 2403.76   49.50
   2   3  -4 2418.76   42.80
   2   3  -4 2397.16   48.30
  -2  -3   4 2430.06   51.19
  -2  -3   4 2440.46   46.30
  -2  -3   4 2369.86   51.59
  -2  -3   4 2423.16   44.70
  -2  -3   4 2398.46   49.20
   1   3  -4  255.57    7.20
   1   3  -4  247.78   10.60
   1   3  -4  266.77   10.50
   1   3  -4  258.97    8.00
   1   3  -4  255.47    8.70
   1   3  -4  252.77   10.00
  -1  -3   4  257.47   10.30
  -1  -3   4  251.07   11.30
  -1  -3   4  250.67   10.10
  -1  -3   4  255.17    8.50
   0   3  -4 3111.79   55.29
   0   3  -4 3134.69   54.99
   0   3  -4 2966.40   56.99
   0   3  -4 3058.39   55.69
   0  -3   4 2972.00   56.89
   0  -3   4 3027.10   55.19
   0  -3   4 2996.80   58.69
   0  -3   4 2970.00   59.09
   0  -3   4 2976.10   58.99
  -1   3  -4    8.40    2.00
  -1   3  -4    8.30    1.80
  -1   3  -4    9.00    2.00
  -1   3  -4    7.80    1.80
  -1   3  -4    8.50    1.10
   1  -3   4   10.60    2.50
   1  -3   4   11.00    2.50
   1  -3   4    9.40    2.30
   1  -3   4    6.70    2.00
  -2   3  -4 1081.09   22.50
  -2   3  -4 1055.89   26.90
  -2   3  -4 1097.49   25.70
  -2   3  -4 1076.49   23.90
   2  -3   4 1067.79   25.30
   2  -3   4 1078.69   26.10
   2  -3   4 1041.80   27.00
   2  -3   4 1048.30   27.30
   2  -3   4 1049.00   28.20
  -3   3  -4  771.42   23.00
  -3   3  -4  740.23   21.90
  -3   3  -4  768.62   19.50
  -3   3  -4  768.12   21.50
  -3   3  -4  771.92   18.60
   3  -3   4  769.32   23.70
   3  -3   4  762.92   22.40
   3  -3   4  731.43   21.80
   3  -3   4  759.82   23.00
   3  -3   4  744.23   19.00
  -4   3  -4   34.90    3.40
  -4   3  -4   35.80    4.10
  -4   3  -4   40.60    4.80
  -4   3  -4   38.70    4.80
  -4   3  -4   31.40    4.70
   4  -3   4   37.50    4.70
   4  -3   4   43.90    5.40
   4  -3   4   34.70    4.60
   4  -3   4   38.40    3.30
   4  -3   4   47.00    5.60
  -5   3  -4  210.98   11.20
  -5   3  -4  211.28   11.80
  -5   3  -4  201.58   12.10
  -5   3  -4  206.48   11.30
   5  -3   4  224.38   13.10
   5  -3   4  222.68    7.10
   5  -3   4  203.78   12.00
   5  -3   4  209.88   12.40
   5  -3   4  230.68   12.20
   5  -3   4  236.68   14.10
  -6   3  -4   66.19    6.80
  -6   3  -4   57.29    7.80
  -6   3  -4   66.09    7.20
   6  -3   4   53.39    6.40
   6  -3   4   51.89    4.50
   6  -3   4   66.49    7.70
   6  -3   4   66.19    7.90
   6  -3   4   55.39    6.80
  -7   3  -4   22.30    4.70
  -7   3  -4   30.50    5.50
   7  -3   4   29.90    3.40
   7  -3   4   29.90    6.20
   7  -3   4   24.70    5.30
   7  -3   4   26.80    5.20
  -8   3  -4    3.30    2.40
   8  -3   4    2.00    2.50
   8  -3   4    3.40    1.60
   8  -3   4    4.10    2.90
  -9   3  -4  263.87   15.60
  -9   3  -4  277.67   17.60
  -9   3  -4  277.17   11.90
   9  -3   4  291.57   19.90
   9  -3   4  322.17   17.90
 -10   3  -4    0.20    1.80
 -10   3  -4    4.20    3.80
  10  -3   4   -0.20    3.00
  10  -3   4    2.70    2.80
  10   2  -4   43.30    8.60
 -10  -2   4   41.90    6.40
 -10  -2   4   24.10    5.50
 -10  -2   4   43.10    6.20
 -10  -2   4   45.80    7.90
  -9  -2   4   12.70    4.30
  -9  -2   4   11.50    3.80
  -9  -2   4   19.60    4.60
  -9  -2   4   15.00    3.80
   8   2  -4   73.19    8.90
   8   2  -4   82.89    9.50
   8   2  -4   78.69    8.80
  -8  -2   4   76.39    6.70
  -8  -2   4   90.99    8.40
  -8  -2   4   79.19    8.70
  -8  -2   4   75.39    8.10
   7   2  -4   69.69    7.70
   7   2  -4   73.49    8.30
   7   2  -4   70.19    8.20
  -7  -2   4   73.59    7.50
  -7  -2   4   42.50    6.90
  -7  -2   4   67.59    7.80
  -7  -2   4   62.49    7.60
  -7  -2   4   62.39    6.70
  -7  -2   4   63.59    5.40
   6   2  -4  673.73   23.00
   6   2  -4  689.23   23.80
   6   2  -4  680.23   24.10
   6   2  -4  696.73   24.60
  -6  -2   4  695.03   27.40
  -6  -2   4  683.73   22.70
  -6  -2   4  650.23   23.50
  -6  -2   4  648.94   17.50
  -6  -2   4  657.03   23.60
  -6  -2   4  673.43   21.90
  -6  -2   4  664.63   22.80
  -6  -2   4  653.63   22.50
   5   2  -4   65.19    6.70
   5   2  -4   51.59    6.10
   5   2  -4   53.49    5.90
   5   2  -4   50.29    5.50
  -5  -2   4   51.79    5.20
  -5  -2   4   58.49    5.40
  -5  -2   4   46.50    5.00
  -5  -2   4   63.99    6.30
  -5  -2   4   61.29    6.20
  -5  -2   4   57.09    3.70
  -5  -2   4   52.99    6.10
   4   2  -4  493.45   17.10
   4   2  -4  475.85   17.50
   4   2  -4  508.45   18.30
   4   2  -4  474.95   17.40
   4   2  -4  489.05   16.10
  -4  -2   4  514.95   16.00
  -4  -2   4  484.15   15.80
  -4  -2   4  519.65   19.30
  -4  -2   4  487.85   18.30
  -4  -2   4  497.55   16.70
  -4  -2   4  508.25   17.60
  -4  -2   4  508.85   16.30
  -4  -2   4  503.85   11.00
   3   2  -4  357.16   13.70
   3   2  -4  385.26   14.20
   3   2  -4  388.76   12.40
   3   2  -4  375.16   14.60
   3   2  -4  387.06   13.60
  -3  -2   4  381.76   15.10
  -3  -2   4  374.46   13.40
  -3  -2   4  393.96   12.60
  -3  -2   4  390.36   12.90
  -3  -2   4  383.36   13.90
  -3  -2   4  375.56   14.60
  -3  -2   4  381.36    9.60
   2   2  -4 9940.81  169.78
   2   2  -4 9999.00  161.68
   1   2  -4  242.18    8.90
   1   2  -4  244.68    9.80
   1   2  -4  246.18    8.90
   1   2  -4  241.88    9.80
   1   2  -4  257.67    7.90
   1   2  -4  249.68    6.90
  -1  -2   4  256.57    8.70
  -1  -2   4  253.57    9.20
  -1  -2   4  251.27   10.70
  -1  -2   4  252.87    9.70
   0   2  -4 2760.62   49.50
   0   2  -4 2641.34   49.90
   0   2  -4 2657.03   49.40
   0  -2   4 2657.33   49.40
   0  -2   4 2576.94   51.69
   0  -2   4 2655.13   51.39
   0  -2   4 2689.13   49.40
  -1   2  -4 3217.08   63.89
  -1   2  -4 3138.49   59.09
  -1   2  -4 3235.08   57.69
  -1   2  -4 3275.37   61.99
  -1   2  -4 3278.07   55.69
   1  -2   4 3205.38   60.19
   1  -2   4 3282.37   60.19
   1  -2   4 3255.57   57.79
   1  -2   4 3277.37   61.09
   1  -2   4 3137.69   61.69
  -2   2  -4  971.90   20.90
  -2   2  -4  960.10   25.60
  -2   2  -4 1015.60   21.90
  -2   2  -4  971.90   24.90
  -2   2  -4 1017.80   24.20
   2  -2   4  996.40   22.80
   2  -2   4  980.30   25.80
   2  -2   4  982.80   24.50
   2  -2   4 1002.90   24.40
  -3   2  -4   44.30    4.80
  -3   2  -4   38.60    3.70
  -3   2  -4   41.20    2.90
  -3   2  -4   29.10    4.00
  -3   2  -4   36.30    4.10
  -3   2  -4   36.20    4.10
   3  -2   4   36.60    3.20
   3  -2   4   39.00    4.20
   3  -2   4   35.70    4.20
   3  -2   4   36.00    4.50
  -4   2  -4 4381.26   80.59
  -4   2  -4 4178.38   82.99
  -4   2  -4 4441.86   80.19
  -4   2  -4 4246.18   83.29
  -4   2  -4 4159.28   86.39
  -4   2  -4 4454.65   73.69
   4  -2   4 4299.77   85.09
   4  -2   4 4204.68   89.19
   4  -2   4 4078.49   82.09
   4  -2   4 4282.37   73.49
   4  -2   4 4378.26   83.49
   4  -2   4 4313.67   80.79
  -5   2  -4   91.99    7.90
  -5   2  -4   93.19    7.30
  -5   2  -4   85.69    7.30
  -5   2  -4   97.69    7.10
   5  -2   4   94.89    8.20
   5  -2   4  104.09    8.30
   5  -2   4   96.29    8.20
   5  -2   4   86.59    6.90
   5  -2   4   94.79    8.70
  -6   2  -4   36.80    5.40
  -6   2  -4   40.70    5.10
   6  -2   4   31.90    4.40
   6  -2   4   48.70    4.60
   6  -2   4   40.60    6.20
   6  -2   4   38.00    5.60
  -7   2  -4    2.00    1.60
   7  -2   4    3.70    1.90
   7  -2   4    0.20    1.70
   7  -2   4    2.90    2.70
   7  -2   4    7.00    2.90
  -8   2  -4    4.80    1.70
  -8   2  -4   -0.50    1.80
  -8   2  -4    5.40    2.70
   8  -2   4    4.30    2.20
   8  -2   4   10.90    5.20
   8  -2   4   -1.70    1.60
   8  -2   4    9.70    2.70
  -9   2  -4   39.00    5.90
  -9   2  -4   47.70    7.50
  -9   2  -4   33.50    4.00
   9  -2   4   47.20    4.80
   9  -2   4   47.80    6.80
   9  -2   4   32.90    7.60
 -10   2  -4  322.77   14.40
 -10   2  -4  341.67   17.40
 -10   2  -4  351.66   20.80
  10  -2   4  322.17   21.70
  10  -2   4  323.27   18.10
  10   1  -4    7.00    3.90
 -10  -1   4    9.70    5.10
 -10  -1   4    0.80    2.50
 -10  -1   4    4.40    2.50
 -10  -1   4    3.90    3.20
   9   1  -4   54.89    9.40
  -9  -1   4   43.10    7.30
  -9  -1   4   33.60    6.10
  -9  -1   4   47.20    6.40
  -9  -1   4   20.50    5.20
   8   1  -4  183.78   13.30
   8   1  -4  177.08   13.20
   8   1  -4  195.18    9.30
  -8  -1   4  169.28   12.70
  -8  -1   4  178.08   11.80
  -8  -1   4  162.08   10.30
  -8  -1   4  172.48   11.90
  -8  -1   4  181.48   11.40
   7   1  -4    9.70    3.50
   7   1  -4    5.70    2.70
   7   1  -4    4.10    2.10
   7   1  -4    7.80    2.00
  -7  -1   4    2.90    2.40
  -7  -1   4   13.20    2.70
  -7  -1   4    5.90    2.70
  -7  -1   4    7.90    2.80
  -7  -1   4    7.30    3.10
   6   1  -4    4.70    2.20
   6   1  -4    8.10    2.90
   6   1  -4    9.50    3.20
   6   1  -4    5.30    1.40
  -6  -1   4    9.60    2.60
  -6  -1   4    6.00    2.40
  -6  -1   4    5.80    2.10
  -6  -1   4    5.40    2.70
  -6  -1   4    8.40    3.00
  -6  -1   4    8.20    3.00
  -6  -1   4   11.40    2.90
  -6  -1   4   12.00    2.40
  -6  -1   4    5.90    2.50
   5   1  -4   26.10    2.70
   5   1  -4   26.00    4.40
   5   1  -4   22.40    4.10
   5   1  -4   25.60    4.10
   5   1  -4   23.60    4.30
  -5  -1   4   24.40    3.40
  -5  -1   4   22.70    4.20
  -5  -1   4   18.70    4.00
  -5  -1   4   26.20    4.90
  -5  -1   4   20.20    3.60
  -5  -1   4   26.70    4.20
  -5  -1   4   11.30    2.90
  -5  -1   4   25.10    2.90
  -5  -1   4   22.90    3.60
  -5  -1   4   17.60    3.90
   4   1  -4   82.69    6.60
   4   1  -4   78.59    4.10
   4   1  -4   81.69    6.20
   4   1  -4   79.09    7.70
   4   1  -4   72.49    6.00
  -4  -1   4   74.89    5.60
  -4  -1   4   81.69    6.50
  -4  -1   4   79.59    6.50
  -4  -1   4   71.49    5.80
  -4  -1   4   76.99    6.40
  -4  -1   4   80.79    4.10
  -4  -1   4   80.49    5.10
   3   1  -4 4039.40   69.89
   3   1  -4 4149.28   75.19
   3   1  -4 4016.40   76.09
   3   1  -4 4106.19   74.99
   3   1  -4 4273.27   77.59
   3   1  -4 4082.49   76.69
  -3  -1   4 4189.38   76.99
  -3  -1   4 3999.30   75.39
  -3  -1   4 3997.40   77.19
  -3  -1   4 4238.48   72.09
  -3  -1   4 4145.29   68.29
  -3  -1   4 4114.69   73.79
   2   1  -4 1897.21   37.20
   2   1  -4 1906.91   39.10
   2   1  -4 1851.01   39.90
   2   1  -4 1919.51   40.00
   2   1  -4 1884.21   35.20
   2   1  -4 1915.51   37.50
   2   1  -4 1975.80   39.70
  -2  -1   4 1965.20   39.50
  -2  -1   4 1880.91   38.70
  -2  -1   4 1913.51   37.80
  -2  -1   4 1790.62   40.10
  -2  -1   4 1908.61   35.20
   1   1  -4  328.27   10.20
   1   1  -4  336.47   11.90
   1   1  -4  339.07   11.40
   1   1  -4  349.87    9.90
   1   1  -4  339.07   11.30
   1   1  -4  325.27   10.70
  -1  -1   4  330.67   10.50
  -1  -1   4  330.17   10.20
  -1  -1   4  347.77   11.10
   0   1  -4  689.93   17.90
   0   1  -4  702.33   17.60
   0   1  -4  727.33   17.10
   0   1  -4  721.53   18.50
   0  -1   4  709.23   17.40
   0  -1   4  713.03   18.10
   0  -1   4  687.23   18.50
   0  -1   4  711.93   16.70
  -1   1  -4 5981.60  100.09
  -1   1  -4 5781.72   96.99
  -1   1  -4 5609.44  101.49
  -1   1  -4 5762.72  101.09
   1  -1   4 5789.12  101.79
   1  -1   4 5821.72  100.19
  -2   1  -4 2308.07   48.80
  -2   1  -4 2471.25   45.50
  -2   1  -4 2454.15   42.40
  -2   1  -4 2377.96   48.40
  -2   1  -4 2461.25   46.20
  -2   1  -4 2384.86   47.50
   2  -1   4 2454.35   49.40
   2  -1   4 2437.86   49.30
   2  -1   4 2516.15   47.20
   2  -1   4 2459.65   48.10
   2  -1   4 2476.55   45.70
  -3   1  -4  693.43   19.40
  -3   1  -4  693.03   19.60
  -3   1  -4  729.53   21.10
  -3   1  -4  695.73   13.80
  -3   1  -4  706.43   18.30
  -3   1  -4  675.03   20.50
   3  -1   4  697.23   21.30
   3  -1   4  699.43   16.30
   3  -1   4  692.63   18.60
   3  -1   4  719.93   21.00
   3  -1   4  739.73   20.70
  -4   1  -4 3539.35   60.39
  -4   1  -4 3682.53   70.09
  -4   1  -4 3667.93   67.39
  -4   1  -4 3698.93   71.69
  -4   1  -4 3572.74   70.19
   4  -1   4 3601.24   67.79
   4  -1   4 3708.73   61.99
   4  -1   4 3688.13   73.59
   4  -1   4 3448.05   70.79
   4  -1   4 3633.84   71.39
  -5   1  -4  386.76   16.10
  -5   1  -4  431.96   17.40
  -5   1  -4  418.46   16.40
  -5   1  -4  417.46   16.80
  -5   1  -4  422.66   14.50
   5  -1   4  443.26   18.30
   5  -1   4  420.76   14.60
   5  -1   4  416.56   17.10
   5  -1   4  420.36   18.20
   5  -1   4  429.36   14.90
  -6   1  -4  167.68   11.20
  -6   1  -4  163.38   11.30
  -6   1  -4  182.48    6.30
  -6   1  -4  183.48    9.50
  -6   1  -4  176.38   11.00
  -6   1  -4  159.28   10.50
   6  -1   4  171.28    9.50
   6  -1   4  177.58   11.00
   6  -1   4  173.58    9.30
   6  -1   4  160.48   11.80
   6  -1   4  166.78   11.20
  -7   1  -4  372.66   14.90
  -7   1  -4  339.07   16.70
  -7   1  -4  344.97   16.70
  -7   1  -4  358.36   10.50
   7  -1   4  348.87   14.80
   7  -1   4  348.87   14.20
   7  -1   4  350.16   16.60
   7  -1   4  372.26   19.20
  -8   1  -4  614.34   15.70
  -8   1  -4  620.44   21.00
  -8   1  -4  603.34   24.40
   8  -1   4  542.15   25.60
   8  -1   4  607.34   23.30
   8  -1   4  599.64   19.80
   8  -1   4  583.44   21.50
  -9   1  -4  164.68   13.10
  -9   1  -4  153.28   10.40
  -9   1  -4  152.08    7.20
   9  -1   4  143.09   13.70
   9  -1   4  155.88   12.90
   9  -1   4  160.28   11.80
   9  -1   4  156.58    9.80
 -10   1  -4   32.40    3.80
 -10   1  -4   49.00    8.00
 -10   1  -4   28.90    5.20
  10  -1   4   32.20    5.10
  10  -1   4   33.40    8.10
  10  -1   4   29.60    6.30
 -11   1  -4   42.20    8.40
 -11   1  -4   22.70    5.10
  11  -1   4   35.50    7.00
  11  -1   4   53.89   10.40
  10   0  -4  284.07   14.40
  10   0  -4  293.17   19.60
 -10   0   4  299.57   14.80
 -10   0   4  278.77   18.90
 -10   0   4  312.67   19.60
   9   0  -4   17.20    4.30
   9   0  -4   13.40    3.20
   9   0  -4   15.30    4.80
  -9   0   4   13.90    3.70
  -9   0   4   20.20    4.90
  -9   0   4   19.40    4.80
  -9   0   4   14.10    4.60
   8   0  -4    1.50    1.80
   8   0  -4    1.10    1.80
   8   0  -4    5.00    2.80
  -8   0   4   -3.50    1.70
  -8   0   4   -0.20    1.90
  -8   0   4    5.20    2.50
  -8   0   4    1.10    1.90
   7   0  -4  435.36   19.60
   7   0  -4  449.16   16.40
   7   0  -4  466.05   20.60
   7   0  -4  446.26   15.80
   7   0  -4  448.56   20.40
  -7   0   4  443.06   17.40
  -7   0   4  476.35   17.30
  -7   0   4  416.06   17.40
  -7   0   4  462.45   20.50
   6   0  -4    5.50    2.10
   6   0  -4    1.60    1.30
   6   0  -4    0.20    1.20
   6   0  -4    5.60    1.90
   6   0  -4    4.40    2.60
  -6   0   4    3.80    2.10
  -6   0   4    4.20    1.80
  -6   0   4    2.70    1.80
  -6   0   4    3.90    2.30
  -6   0   4    4.30    2.30
  -6   0   4   -0.20    1.50
  -6   0   4    2.60    1.80
  -6   0   4    2.00    2.40
  -6   0   4    2.10    1.50
  -6   0   4    0.90    1.40
   5   0  -4    2.50    1.50
   5   0  -4    5.60    1.70
   5   0  -4    8.00    2.70
   5   0  -4    4.90    1.70
   5   0  -4    4.20    1.90
   5   0  -4    4.20    1.80
  -5   0   4    5.40    2.10
  -5   0   4    6.00    2.40
  -5   0   4    5.30    1.60
  -5   0   4    2.90    1.40
  -5   0   4   -0.20    1.10
  -5   0   4    3.30    1.60
  -5   0   4    4.10    1.70
  -5   0   4    2.60    1.40
  -5   0   4    1.70    1.40
   4   0  -4 1286.27   36.60
   4   0  -4 1333.77   31.80
   4   0  -4 1308.77   32.70
   4   0  -4 1370.76   32.50
   4   0  -4 1356.86   28.60
  -4   0   4 1365.36   27.90
  -4   0   4 1341.17   30.50
  -4   0   4 1344.17   32.00
  -4   0   4 1319.17   31.10
  -4   0   4 1336.47   32.30
  -4   0   4 1356.96   27.70
  -4   0   4 1343.57   32.90
  -4   0   4 1335.07   34.00
   3   0  -4  234.28   10.30
   3   0  -4  237.78   10.30
   3   0  -4  217.48   10.10
   3   0  -4  236.98    6.50
   3   0  -4  240.08   10.10
   3   0  -4  242.98    9.50
   3   0  -4  256.87    8.70
  -3   0   4  242.48    7.20
  -3   0   4  236.28    8.90
  -3   0   4  248.38   10.80
  -3   0   4  233.98   10.40
  -3   0   4  218.58    9.60
  -3   0   4  237.38    7.10
   2   0  -4  619.74   17.30
   2   0  -4  615.84   15.30
   2   0  -4  628.24   16.70
   2   0  -4  609.34   14.20
   2   0  -4  622.74   16.80
  -2   0   4  623.34   16.80
  -2   0   4  647.04   17.10
  -2   0   4  618.44   14.80
  -2   0   4  603.04   14.20
  -2   0   4  614.94   12.50
  -2   0   4  619.04   18.10
  -2   0   4  625.74   12.20
   1   0  -4   33.70    2.40
   1   0  -4   35.20    2.10
   1   0  -4   39.00    4.30
   1   0  -4   33.70    3.30
   1   0  -4   32.10    2.80
  -1   0   4   35.80    2.10
  -1   0   4   28.40    2.90
  -1   0   4   32.20    3.00
  -1   0   4   33.20    2.90
  -1   0   4   23.80    3.00
   0   0  -4   18.50    1.90
   0   0  -4   17.80    1.40
   0   0  -4   13.30    2.20
   0   0  -4   18.30    2.30
   0   0   4   15.90    2.30
   0   0   4   14.80    1.80
   0   0   4   17.70    2.30
   0   0   4   16.00    1.80
   0   0   4   14.10    2.10
  -1   0  -4  689.53   17.00
  -1   0  -4  699.93   18.80
  -1   0  -4  674.83   17.60
  -1   0  -4  699.43   17.40
   1   0   4  721.73   14.50
   1   0   4  691.93   17.50
   1   0   4  678.03   17.90
   1   0   4  688.13   17.20
   1   0   4  683.53   18.30
  -2   0  -4 7729.23  133.39
  -3   0  -4 1360.16   32.60
  -3   0  -4 1445.06   32.00
  -3   0  -4 1380.26   32.50
  -3   0  -4 1397.26   31.80
  -3   0  -4 1420.56   27.70
   3   0   4 1371.16   33.10
   3   0   4 1380.36   28.90
   3   0   4 1406.26   27.90
   3   0   4 1410.66   32.80
   3   0   4 1392.66   32.00
  -4   0  -4 2723.23   56.39
  -4   0  -4 2757.82   55.69
  -4   0  -4 2764.32   48.10
  -4   0  -4 2799.32   56.99
  -4   0  -4 2769.82   56.19
  -4   0  -4 2696.93   50.99
   4   0   4 2603.94   55.59
   4   0   4 2797.32   58.39
   4   0   4 2750.02   56.19
   4   0   4 2727.53   48.00
   4   0   4 2719.03   51.49
  -5   0  -4 1129.69   31.30
  -5   0  -4 1111.79   29.90
  -5   0  -4 1148.59   31.10
  -5   0  -4 1140.39   30.50
  -5   0  -4 1153.38   25.90
   5   0   4 1085.89   26.00
   5   0   4 1131.49   28.70
   5   0   4 1102.89   30.00
   5   0   4 1129.19   32.40
  -6   0  -4 1006.90   29.40
  -6   0  -4 1023.10   30.50
  -6   0  -4  979.90   29.10
  -6   0  -4 1051.69   31.20
  -6   0  -4 1029.40   27.70
  -6   0  -4 1034.80   25.00
  -6   0  -4 1004.00   19.10
   6   0   4 1020.10   27.70
   6   0   4  999.10   30.60
   6   0   4 1017.40   32.20
   6   0   4 1017.30   29.20
   6   0   4  999.40   25.40
  -7   0  -4  290.67   14.10
  -7   0  -4  304.27   12.30
  -7   0  -4  276.27   14.60
  -7   0  -4  308.67   15.60
  -7   0  -4  295.37    8.30
   7   0   4  296.37   14.60
   7   0   4  276.97   16.30
   7   0   4  287.17   12.30
  -8   0  -4  559.14   18.70
  -8   0  -4  581.84   14.30
  -8   0  -4  584.24   23.60
   8   0   4  595.04   22.40
   8   0   4  577.64   20.70
   8   0   4  572.44   19.50
   8   0   4  568.64   25.30
  -9   0  -4  199.48   18.20
  -9   0  -4  195.38   11.00
   9   0   4  232.18   16.80
   9   0   4  205.28   13.10
   9   0   4  216.58   12.60
 -10   0  -4   10.50    2.00
 -10   0  -4    5.90    3.00
 -10   0  -4   12.60    3.40
  10   0   4   13.90    5.10
  10   0   4    9.90    3.50
  10   0   4   13.70    4.10
 -11   0  -4    2.50    2.80
 -11   0  -4   -1.70    1.70
  11   0   4    2.70    2.60
  11   0   4    2.30    4.10
  11   0   4    3.00    2.90
  10  -1  -4   11.00    5.00
  10  -1  -4   11.30    3.80
  10  -1  -4   16.60    4.60
 -10   1   4   14.20    3.60
 -10   1   4    9.30    4.70
 -10   1   4    7.60    4.00
   9  -1  -4  672.13   24.30
   9  -1  -4  732.03   24.80
   9  -1  -4  697.83   30.10
  -9   1   4  714.63   23.40
  -9   1   4  689.93   23.10
   8  -1  -4   22.10    5.90
   8  -1  -4   30.90    4.90
   8  -1  -4   34.80    5.40
  -8   1   4   29.00    5.40
  -8   1   4   24.40    4.30
  -8   1   4   32.40    4.80
  -8   1   4   19.80    4.40
  -8   1   4   25.50    5.80
   7  -1  -4 1210.58   30.50
   7  -1  -4 1172.58   31.30
   7  -1  -4 1203.78   37.20
  -7   1   4 1209.98   31.90
  -7   1   4 1192.68   32.50
  -7   1   4 1209.98   30.80
  -7   1   4 1160.58   30.80
  -7   1   4 1183.78   36.50
   6  -1  -4  330.87   15.30
   6  -1  -4  296.27   15.10
   6  -1  -4  342.47   12.50
   6  -1  -4  307.67   13.30
   6  -1  -4  334.57   16.40
   6  -1  -4  317.57   13.30
  -6   1   4  314.37   15.30
  -6   1   4  320.07   14.10
  -6   1   4  302.37   13.90
  -6   1   4  327.97   13.40
  -6   1   4  317.17   16.10
  -6   1   4  327.97   14.80
  -6   1   4  307.17   13.30
   5  -1  -4  139.49    9.40
   5  -1  -4  123.79    9.20
   5  -1  -4  127.79    7.90
   5  -1  -4  126.29    7.60
   5  -1  -4  110.79   10.50
   5  -1  -4  125.49    4.10
   5  -1  -4  131.49    6.60
  -5   1   4  118.29    7.30
  -5   1   4  137.99    8.50
  -5   1   4  123.99    7.90
  -5   1   4  139.59    9.80
  -5   1   4  144.99    8.30
  -5   1   4  121.39    8.20
  -5   1   4  121.89    8.60
  -5   1   4  135.59    7.90
   4  -1  -4   34.90    2.40
   4  -1  -4   28.90    4.10
   4  -1  -4   34.00    3.80
   4  -1  -4   33.30    4.10
   4  -1  -4   34.30    2.70
   4  -1  -4   34.30    4.10
   4  -1  -4   37.40    4.70
  -4   1   4   32.10    3.70
  -4   1   4   36.30    3.90
  -4   1   4   33.70    4.20
  -4   1   4   32.90    3.30
  -4   1   4   27.50    4.10
  -4   1   4   32.30    4.00
  -4   1   4   28.20    5.10
   3  -1  -4 5043.40   83.29
   3  -1  -4 4853.11   89.39
   3  -1  -4 4801.12   89.09
   3  -1  -4 4853.91   87.49
   3  -1  -4 4874.91   86.99
   3  -1  -4 4906.41   90.09
  -3   1   4 5045.40   86.99
  -3   1   4 4915.81   89.69
  -3   1   4 4947.80   85.19
  -3   1   4 4992.50   86.09
  -3   1   4 4979.20   91.19
  -3   1   4 4825.92   88.09
   2  -1  -4  795.92   20.10
   2  -1  -4  780.42   20.80
   2  -1  -4  765.92   17.60
   2  -1  -4  797.22   18.80
   2  -1  -4  774.72   18.00
   2  -1  -4  792.52   19.30
  -2   1   4  758.82   17.20
  -2   1   4  750.02   20.70
  -2   1   4  795.62   17.40
  -2   1   4  784.22   20.20
  -2   1   4  771.92   19.30
   1  -1  -4  209.78    7.30
   1  -1  -4  207.88    7.80
   1  -1  -4  213.28    8.20
   1  -1  -4  207.38    7.20
   1  -1  -4  199.58    8.80
  -1   1   4  207.48    7.80
  -1   1   4  202.28    8.50
  -1   1   4  217.08    7.10
  -1   1   4  208.78    9.10
  -1   1   4  219.08    5.90
   0  -1  -4 3528.85   65.79
   0  -1  -4 3612.94   65.49
   0  -1  -4 3696.03   64.29
   0  -1  -4 3588.54   63.79
   0   1   4 3683.23   61.59
   0   1   4 3680.83   63.99
   0   1   4 3605.44   65.59
  -1  -1  -4  302.07   10.50
  -1  -1  -4  321.37   10.60
  -1  -1  -4  296.87   10.10
  -1  -1  -4  317.77    9.80
   1   1   4  310.47   11.10
   1   1   4  286.27    9.50
   1   1   4  289.07   10.30
  -2  -1  -4  893.71   23.70
  -2  -1  -4 1010.90   23.90
  -2  -1  -4  986.20   24.00
  -2  -1  -4  971.90   23.30
  -2  -1  -4  996.40   22.10
  -2  -1  -4  982.00   19.10
   2   1   4  944.31   23.40
   2   1   4  997.70   22.30
   2   1   4  972.90   23.60
   2   1   4 1003.00   20.30
   2   1   4  996.20   24.50
  -3  -1  -4 4137.89   75.19
  -3  -1  -4 4087.49   69.29
  -3  -1  -4 3902.01   74.89
  -3  -1  -4 3967.70   73.29
  -3  -1  -4 3921.01   74.99
  -3  -1  -4 4056.69   69.79
   3   1   4 3970.20   69.89
   3   1   4 3890.11   74.79
   3   1   4 3829.92   73.49
   3   1   4 3959.20   68.19
   3   1   4 3892.01   74.59
  -4  -1  -4  790.22   22.00
  -4  -1  -4  802.82   24.10
  -4  -1  -4  766.92   17.70
  -4  -1  -4  794.12   19.80
  -4  -1  -4  798.72   22.90
  -4  -1  -4  774.32   23.10
  -4  -1  -4  811.52   23.40
   4   1   4  779.02   17.80
   4   1   4  788.62   22.80
   4   1   4  782.52   22.60
   4   1   4  793.22   24.00
   4   1   4  776.12   17.80
   4   1   4  792.92   23.00
  -5  -1  -4  518.05   12.40
  -5  -1  -4  499.55   19.60
  -5  -1  -4  530.75   18.40
  -5  -1  -4  510.15   18.30
  -5  -1  -4  521.05   16.20
  -5  -1  -4  492.25   18.90
  -5  -1  -4  517.85   18.90
  -5  -1  -4  516.15   13.50
   5   1   4  514.75   19.70
   5   1   4  510.65   18.30
   5   1   4  520.55   14.00
   5   1   4  503.15   18.40
   5   1   4  547.95   18.70
  -6  -1  -4  406.66   16.70
  -6  -1  -4  382.16   17.60
  -6  -1  -4  391.36   18.40
  -6  -1  -4  397.66   12.20
  -6  -1  -4  387.66   17.10
  -6  -1  -4  413.26   15.30
  -6  -1  -4  399.16   16.50
   6   1   4  378.06   16.90
   6   1   4  389.16   16.10
   6   1   4  385.36   18.30
   6   1   4  391.06   12.50
   6   1   4  418.16   17.70
  -7  -1  -4 1453.15   27.50
  -7  -1  -4 1489.05   39.20
  -7  -1  -4 1470.75   31.90
  -7  -1  -4 1483.75   39.40
  -7  -1  -4 1455.45   37.00
   7   1   4 1440.06   32.40
   7   1   4 1550.44   39.00
   7   1   4 1484.55   38.40
   7   1   4 1469.25   42.70
  -8  -1  -4    1.50    1.00
  -8  -1  -4    1.20    1.60
  -8  -1  -4   -0.20    1.20
   8   1   4    6.50    3.00
   8   1   4    0.50    1.40
   8   1   4    4.20    2.90
   8   1   4    4.30    2.00
  -9  -1  -4  405.66   16.90
  -9  -1  -4  411.86   20.40
  -9  -1  -4  389.36   11.40
   9   1   4  404.16   18.30
   9   1   4  423.56   22.90
   9   1   4  410.56   18.70
 -10  -1  -4  145.19    7.70
 -10  -1  -4  169.58    9.70
 -10  -1  -4  175.38   15.10
 -10  -1  -4  166.38   13.50
  10   1   4  155.08   11.50
  10   1   4  188.28   16.20
  10   1   4  153.48   11.80
 -11  -1  -4   -1.00    3.20
 -11  -1  -4    5.80    3.40
 -11  -1  -4    2.40    2.00
  11   1   4    0.40    2.60
  11   1   4    2.00    2.80
  10  -2  -4   34.60    6.80
  10  -2  -4   34.80    8.20
  10  -2  -4   34.70    6.70
 -10   2   4   36.40    6.00
 -10   2   4   32.50    6.80
 -10   2   4   22.10    5.90
   9  -2  -4  850.31   27.40
   9  -2  -4  847.12   34.00
   9  -2  -4  843.22   29.00
  -9   2   4  830.82   25.60
  -9   2   4  812.02   32.40
  -9   2   4  818.62   23.30
   8  -2  -4  170.38   11.50
   8  -2  -4  175.08   10.50
   8  -2  -4  194.18   11.00
   8  -2  -4  184.78   14.20
  -8   2   4  182.18    9.60
  -8   2   4  174.48   12.30
  -8   2   4  193.08   13.80
  -8   2   4  185.88   10.90
   7  -2  -4  378.56   19.30
   7  -2  -4  356.26   16.10
   7  -2  -4  353.66    9.40
   7  -2  -4  333.87   14.40
   7  -2  -4  349.17   14.20
   7  -2  -4  354.66    9.70
  -7   2   4  374.86   18.80
  -7   2   4  347.47   16.30
  -7   2   4  333.37   15.00
  -7   2   4  360.56   13.60
  -7   2   4  326.37   14.60
   6  -2  -4  946.01   30.70
   6  -2  -4  925.01   20.60
   6  -2  -4  972.80   27.50
   6  -2  -4  907.51   19.90
   6  -2  -4  917.21   25.70
   6  -2  -4  936.01   24.10
   6  -2  -4  931.01   29.30
  -6   2   4  922.31   26.50
  -6   2   4  921.61   24.00
  -6   2   4  914.01   30.00
  -6   2   4  919.41   27.80
  -6   2   4  922.51   26.10
  -6   2   4  949.40   27.20
  -6   2   4  918.21   26.80
   5  -2  -4 2997.90   61.09
   5  -2  -4 2969.60   53.79
   5  -2  -4 3035.30   60.39
   5  -2  -4 3038.00   56.09
   5  -2  -4 2957.50   62.79
   5  -2  -4 2986.10   64.89
   5  -2  -4 3033.30   61.29
  -5   2   4 3014.80   59.59
  -5   2   4 3029.10   65.09
  -5   2   4 2906.01   59.79
  -5   2   4 2981.80   61.49
  -5   2   4 3055.79   60.99
  -5   2   4 2958.30   60.09
   4  -2  -4   12.90    1.90
   4  -2  -4   13.30    2.00
   4  -2  -4   14.00    3.00
   4  -2  -4   15.90    3.00
   4  -2  -4    9.80    2.40
   4  -2  -4   14.80    3.30
   4  -2  -4   16.30    4.60
  -4   2   4    6.70    2.30
  -4   2   4   10.10    2.40
  -4   2   4   13.70    2.90
  -4   2   4   13.40    2.60
  -4   2   4   17.70    3.00
  -4   2   4   10.30    2.40
   3  -2  -4 7015.90  121.19
   3  -2  -4 7055.59  125.79
   3  -2  -4 6878.91  123.29
   3  -2  -4 7176.78  123.29
   3  -2  -4 7019.20  123.49
   3  -2  -4 7027.20  119.29
   3  -2  -4 7269.37  115.89
   3  -2  -4 7055.49  123.99
  -3   2   4 7142.99  122.49
  -3   2   4 7109.59  120.29
  -3   2   4 7016.10  121.59
  -3   2   4 6922.61  125.89
  -3   2   4 7087.29  120.69
  -3   2   4 7178.48  124.69
   2  -2  -4  708.13   20.20
   2  -2  -4  716.03   19.30
   2  -2  -4  696.53   18.60
   2  -2  -4  717.53   17.60
   2  -2  -4  692.53   16.70
   2  -2  -4  740.63   18.90
  -2   2   4  686.63   19.80
  -2   2   4  690.13   19.90
  -2   2   4  709.93   16.40
  -2   2   4  717.93   18.00
  -2   2   4  694.33   17.80
   1  -2  -4  585.34   15.80
   1  -2  -4  589.24   15.20
   1  -2  -4  589.94   13.50
   1  -2  -4  584.04   17.10
   1  -2  -4  589.24   16.00
   1  -2  -4  587.04   11.70
  -1   2   4  601.34   12.50
  -1   2   4  598.64   16.60
  -1   2   4  597.74   15.50
  -1   2   4  583.14   14.80
  -1   2   4  560.94   16.20
   0  -2  -4  110.59    6.20
   0  -2  -4  111.89    4.70
   0  -2  -4  111.89    5.10
   0  -2  -4  100.69    6.10
   0  -2  -4  108.59    5.90
   0  -2  -4   98.49    5.80
   0   2   4  108.59    6.10
   0   2   4  110.59    6.00
   0   2   4  117.29    6.00
   0   2   4  111.39    5.70
   0   2   4  108.79    6.40
  -1  -2  -4 1676.83   35.60
  -1  -2  -4 1694.73   35.90
  -1  -2  -4 1699.23   35.00
  -1  -2  -4 1648.73   35.10
  -1  -2  -4 1708.03   33.80
   1   2   4 1670.33   35.30
   1   2   4 1640.84   35.20
   1   2   4 1624.94   35.70
   1   2   4 1702.93   33.60
   1   2   4 1758.32   34.90
  -2  -2  -4  780.12   19.40
  -2  -2  -4  736.73   20.50
  -2  -2  -4  767.42   19.70
  -2  -2  -4  782.32   15.10
  -2  -2  -4  741.43   20.70
  -2  -2  -4  757.92   20.30
   2   2   4  770.32   20.10
   2   2   4  762.72   19.70
   2   2   4  743.33   19.30
  -3  -2  -4  903.21   24.70
  -3  -2  -4  867.91   24.50
  -3  -2  -4  934.21   24.60
  -3  -2  -4  894.81   21.50
  -3  -2  -4  956.40   19.80
  -3  -2  -4  916.81   23.00
   3   2   4  915.11   16.70
   3   2   4  923.41   17.30
   3   2   4  911.41   23.30
   3   2   4  917.21   24.70
   3   2   4  893.41   21.80
   3   2   4  901.41   24.90
   3   2   4  921.61   24.50
  -4  -2  -4    2.40    1.10
  -4  -2  -4    2.00    1.00
  -4  -2  -4    1.30    1.00
  -4  -2  -4    4.00    1.60
  -4  -2  -4   13.30    3.40
   4   2   4    3.90    1.50
   4   2   4   11.50    2.60
   4   2   4    0.40    1.10
   4   2   4    3.50    0.80
   4   2   4    1.90    1.40
  -5  -2  -4  535.55   16.30
  -5  -2  -4  548.85   20.40
  -5  -2  -4  535.55   14.30
  -5  -2  -4  503.85   19.60
  -5  -2  -4  507.05   18.50
  -5  -2  -4  533.75   19.20
  -5  -2  -4  512.05   17.70
  -5  -2  -4  528.65   20.60
   5   2   4  526.05   20.30
   5   2   4  535.95   18.60
   5   2   4  527.05   18.70
   5   2   4  547.25   12.00
   5   2   4  531.95   19.80
  -6  -2  -4  492.05   21.40
  -6  -2  -4  516.95   12.40
  -6  -2  -4  495.85   19.60
  -6  -2  -4  549.25   21.70
  -6  -2  -4  533.05   19.50
  -6  -2  -4  520.15   19.10
  -6  -2  -4  521.65   21.20
  -6  -2  -4  515.75   13.50
  -6  -2  -4  529.25   19.00
  -6  -2  -4  503.35   17.20
   6   2   4  521.75   19.20
   6   2   4  544.55   20.50
   6   2   4  504.95   21.30
   6   2   4  508.15   22.90
  -7  -2  -4 1266.97   33.20
  -7  -2  -4 1298.07   38.60
  -7  -2  -4 1268.97   26.00
  -7  -2  -4 1265.27   35.10
  -7  -2  -4 1265.57   24.50
  -7  -2  -4 1223.58   34.50
  -7  -2  -4 1215.48   34.60
   7   2   4 1267.07   35.90
   7   2   4 1273.07   34.50
   7   2   4 1241.78   38.50
   7   2   4 1304.57   44.50
  -8  -2  -4    3.90    2.20
  -8  -2  -4    4.40    2.50
  -8  -2  -4    5.90    1.80
   8   2   4    6.50    3.50
   8   2   4    0.60    1.50
   8   2   4    6.40    2.60
  -9  -2  -4   35.20    6.20
  -9  -2  -4   42.30    7.70
  -9  -2  -4   34.60    3.80
   9   2   4   39.40    6.40
   9   2   4   29.40    5.50
   9   2   4   16.60    4.60
 -10  -2  -4   59.49    8.60
 -10  -2  -4   72.79   10.30
 -10  -2  -4   65.99    5.30
  10   2   4   65.29    8.50
  10   2   4   56.99    7.20
  10   2   4   62.89    9.80
 -11  -2  -4  242.98   19.20
 -11  -2  -4  259.27   10.60
 -11  -2  -4  253.17   17.40
  11   2   4  262.47   17.00
  11   2   4  276.27   15.30
  11   2   4  275.47   20.60
  10  -3  -4    5.40    3.40
  10  -3  -4    3.60    2.80
  10  -3  -4    8.50    3.90
 -10   3   4    1.10    3.50
 -10   3   4   13.90    5.40
 -10   3   4   18.20    4.10
   9  -3  -4    2.60    2.40
   9  -3  -4    2.40    2.70
   9  -3  -4    4.00    2.80
  -9   3   4    2.60    2.40
  -9   3   4    7.00    2.00
  -9   3   4   -1.00    1.80
   8  -3  -4  477.75   24.20
   8  -3  -4  521.85   22.00
   8  -3  -4  478.85   14.30
   8  -3  -4  499.55   19.00
   8  -3  -4  483.55   14.30
   8  -3  -4  435.26   17.80
  -8   3   4  489.85   17.10
  -8   3   4  494.95   23.60
  -8   3   4  509.75   18.80
   7  -3  -4  569.54   16.50
   7  -3  -4  533.85   18.60
   7  -3  -4  574.04   22.30
   7  -3  -4  552.54   19.30
   7  -3  -4  600.24   25.30
  -7   3   4  521.35   21.20
  -7   3   4  541.75   23.80
  -7   3   4  573.84   20.00
   6  -3  -4  172.88    9.10
   6  -3  -4  176.18   12.50
   6  -3  -4  182.58   11.40
   6  -3  -4  176.28   10.00
  -6   3   4  171.78   10.60
  -6   3   4  167.58   10.60
  -6   3   4  170.18    8.30
  -6   3   4  162.58    9.80
  -6   3   4  159.28   11.70
  -6   3   4  185.48   10.40
  -6   3   4  176.48   11.00
  -6   3   4  173.18   10.50
   5  -3  -4  323.37   14.60
   5  -3  -4  315.87   14.60
   5  -3  -4  330.97   11.90
   5  -3  -4  314.17   15.80
   5  -3  -4  315.77   13.50
  -5   3   4  314.57   13.90
  -5   3   4  301.47   14.00
  -5   3   4  304.17   13.20
  -5   3   4  305.37   15.50
  -5   3   4  324.27   14.00
  -5   3   4  345.37   13.10
   4  -3  -4 2029.40   45.00
   4  -3  -4 2000.90   45.60
   4  -3  -4 2129.19   46.60
   4  -3  -4 2128.59   40.60
   4  -3  -4 2104.59   48.70
  -4   3   4 2115.69   45.90
  -4   3   4 2046.40   44.30
  -4   3   4 2092.99   48.20
  -4   3   4 2057.89   45.20
  -4   3   4 2108.79   42.20
   3  -3  -4  558.44   18.60
   3  -3  -4  575.24   18.30
   3  -3  -4  604.74   17.80
   3  -3  -4  583.74   15.80
   3  -3  -4  561.44   19.50
   3  -3  -4  569.64   16.20
   3  -3  -4  568.84   18.50
  -3   3   4  558.44   19.10
  -3   3   4  558.54   17.50
  -3   3   4  575.54   16.90
  -3   3   4  580.64   18.60
   2  -3  -4 1413.56   32.90
   2  -3  -4 1390.66   32.80
   2  -3  -4 1418.66   32.70
   2  -3  -4 1468.55   30.80
   2  -3  -4 1432.26   27.90
   2  -3  -4 1407.36   30.80
  -2   3   4 1394.66   32.30
  -2   3   4 1359.66   31.50
  -2   3   4 1412.66   33.20
  -2   3   4 1387.46   33.00
   1  -3  -4 4744.53   81.99
   1  -3  -4 4665.13   85.89
   1  -3  -4 4840.42   85.09
   1  -3  -4 4871.91   86.89
   1  -3  -4 4748.33   78.69
   1  -3  -4 4740.93   80.09
  -1   3   4 4629.44   86.69
  -1   3   4 4659.43   84.69
  -1   3   4 4593.54   84.59
  -1   3   4 4725.03   81.19
  -1   3   4 4823.52   85.29
   0  -3  -4 2815.62   49.40
   0  -3  -4 2816.62   50.69
   0  -3  -4 2646.34   54.79
   0  -3  -4 2854.21   54.89
   0  -3  -4 2713.73   54.29
   0  -3  -4 2837.22   46.50
   0   3   4 2731.43   53.69
   0   3   4 2793.52   55.09
   0   3   4 2870.31   51.89
   0   3   4 2685.53   52.59
  -1  -3  -4   19.60    2.90
  -1  -3  -4   24.00    3.20
  -1  -3  -4   24.60    3.40
  -1  -3  -4   20.70    2.60
   1   3   4   18.80    1.50
   1   3   4   21.20    2.20
   1   3   4   20.30    3.20
   1   3   4   17.10    2.90
   1   3   4   20.10    3.00
   1   3   4   16.80    2.60
  -2  -3  -4 3018.50   59.89
  -2  -3  -4 3008.70   57.99
  -2  -3  -4 3023.40   57.19
  -2  -3  -4 3084.09   59.79
  -2  -3  -4 3004.70   58.59
   2   3   4 3086.39   51.19
   2   3   4 3055.19   59.69
   2   3   4 3032.60   60.99
   2   3   4 3012.10   52.39
   2   3   4 3005.10   57.09
   2   3   4 3023.70   59.89
   2   3   4 2963.80   58.49
   2   3   4 3026.80   58.59
  -3  -3  -4  336.27   13.40
  -3  -3  -4  328.87    9.60
  -3  -3  -4  356.26   14.30
  -3  -3  -4  321.27   11.90
  -3  -3  -4  345.37   13.90
  -3  -3  -4  336.67   12.20
   3   3   4  344.17   12.40
   3   3   4  320.47   13.20
   3   3   4  314.17    8.90
   3   3   4  331.27   13.70
   3   3   4  326.37   14.20
  -4  -3  -4    7.90    2.10
  -4  -3  -4   11.50    2.40
  -4  -3  -4   12.60    2.90
  -4  -3  -4    7.60    1.80
  -4  -3  -4    9.60    2.20
  -4  -3  -4   10.10    2.90
  -4  -3  -4    8.70    2.50
   4   3   4   23.20    3.50
   4   3   4   11.00    1.70
   4   3   4   15.90    3.40
   4   3   4    7.00    2.80
   4   3   4   10.10    3.00
  -5  -3  -4 2259.27   45.10
  -5  -3  -4 2272.77   52.19
  -5  -3  -4 2201.78   49.80
  -5  -3  -4 2043.30   53.09
  -5  -3  -4 2228.68   47.80
  -5  -3  -4 2473.35   64.19
  -5  -3  -4 2290.97   45.60
  -5  -3  -4 2192.68   47.70
   5   3   4 2323.37   52.99
   5   3   4 2213.48   49.40
   5   3   4 2189.18   48.80
   5   3   4 2257.87   41.10
   5   3   4 2274.77   52.39
  -6  -3  -4   18.30    4.70
  -6  -3  -4   13.70    3.30
  -6  -3  -4   20.30    4.80
  -6  -3  -4   19.40    4.40
  -6  -3  -4   19.30    3.90
  -6  -3  -4   25.40    3.90
  -6  -3  -4   23.30    4.20
  -6  -3  -4   20.80    3.70
  -6  -3  -4   21.20    3.00
   6   3   4   12.50    3.60
   6   3   4   21.80    4.20
   6   3   4   24.60    4.40
   6   3   4   13.60    3.70
  -7  -3  -4  125.39   10.80
  -7  -3  -4  127.79    8.70
  -7  -3  -4  107.99    9.00
  -7  -3  -4  116.49    9.00
  -7  -3  -4  126.69    8.90
   7   3   4  138.19   11.10
   7   3   4  117.39   10.70
   7   3   4  128.99    9.50
   7   3   4  124.69    9.80
  -8  -3  -4  213.18   14.90
  -8  -3  -4  208.08   12.70
  -8  -3  -4  192.28    7.60
   8   3   4  224.08   14.60
   8   3   4  204.98   14.90
   8   3   4  202.48   12.40
  -9  -3  -4  142.79   13.00
  -9  -3  -4  133.39   10.70
   9   3   4  118.59   12.40
   9   3   4  144.39   12.50
   9   3   4  152.58   11.00
 -10  -3  -4   10.90    3.80
 -10  -3  -4   13.90    4.90
  10   3   4   19.50    5.90
  10   3   4   19.00    4.80
  10   3   4   12.10    5.40
  10  -4  -4  252.47   17.60
  10  -4  -4  295.47   16.60
  10  -4  -4  322.27   21.80
 -10   4   4  322.97   22.00
 -10   4   4  315.37   21.20
   9  -4  -4    1.10    2.70
   9  -4  -4    0.80    1.60
   9  -4  -4    2.70    2.40
   9  -4  -4    0.90    3.00
   9  -4  -4    1.80    2.60
  -9   4   4    7.20    3.20
  -9   4   4    2.90    2.50
   8  -4  -4    3.70    2.90
   8  -4  -4    0.00    2.30
   8  -4  -4    0.30    1.80
   8  -4  -4   -0.20    1.60
   8  -4  -4    0.00    1.50
  -8   4   4    4.40    2.60
   7  -4  -4   58.89    7.60
   7  -4  -4   53.19    5.90
   7  -4  -4   62.69    8.40
   7  -4  -4   58.19    7.50
  -7   4   4   60.19    6.40
  -7   4   4   58.59    3.80
  -7   4   4   68.29    8.50
   6  -4  -4  504.05   18.70
   6  -4  -4  504.95   21.10
   6  -4  -4  524.65   17.90
   6  -4  -4  527.65   22.90
  -6   4   4  512.75   18.10
  -6   4   4  527.15   22.50
  -6   4   4  505.85   20.70
  -6   4   4  523.65   19.10
  -6   4   4  507.35   13.90
   5  -4  -4   65.49    7.40
   5  -4  -4   76.89    7.60
   5  -4  -4   71.79    5.80
   5  -4  -4   66.09    6.20
  -5   4   4   66.79    6.50
  -5   4   4   70.69    5.60
  -5   4   4   55.29    6.30
  -5   4   4   72.89    7.70
   4  -4  -4 2598.44   55.49
   4  -4  -4 2465.95   56.29
   4  -4  -4 2297.67   58.19
   4  -4  -4 2478.35   52.89
  -4   4   4 2482.85   51.19
  -4   4   4 2496.65   53.99
  -4   4   4 2531.95   48.40
  -4   4   4 2499.85   54.49
  -4   4   4 2438.46   55.49
   3  -4  -4   33.70    4.80
   3  -4  -4   32.10    4.00
   3  -4  -4   25.70    3.90
   3  -4  -4   35.70    5.80
   3  -4  -4   24.50    4.30
   3  -4  -4   17.00    3.30
  -3   4   4   30.70    3.60
  -3   4   4   28.00    4.40
  -3   4   4   28.40    2.90
  -3   4   4   30.40    4.60
  -3   4   4   21.70    3.60
   2  -4  -4   16.10    3.30
   2  -4  -4   19.70    2.70
   2  -4  -4   17.10    3.00
   2  -4  -4   14.60    3.20
   2  -4  -4   15.90    3.00
   2  -4  -4   17.50    2.90
  -2   4   4   14.90    3.10
  -2   4   4   16.10    3.10
  -2   4   4   16.30    3.10
   1  -4  -4  728.13   21.90
   1  -4  -4  786.82   21.00
   1  -4  -4  778.92   22.50
   1  -4  -4  782.22   21.60
   1  -4  -4  777.12   18.00
   1  -4  -4  757.42   22.60
  -1   4   4  758.02   20.60
  -1   4   4  802.52   21.30
  -1   4   4  780.92   17.40
  -1   4   4  765.12   21.80
  -1   4   4  769.62   22.50
   0  -4  -4 6790.32  112.19
   0  -4  -4 6927.81  120.59
   0  -4  -4 6944.10  116.59
   0  -4  -4 6467.45  120.59
   0  -4  -4 6885.31  119.99
   0   4   4 6902.91  120.99
   0   4   4 6731.83  117.19
   0   4   4 6456.25  119.19
   0   4   4 6890.91  116.49
   0   4   4 6720.33  119.89
  -1  -4  -4  732.63   22.00
  -1  -4  -4  726.63   21.50
  -1  -4  -4  773.62   20.50
  -1  -4  -4  765.22   20.00
  -1  -4  -4  725.53   21.30
  -1  -4  -4  743.53   15.10
   1   4   4  743.93   15.90
   1   4   4  777.82   22.20
   1   4   4  763.32   17.30
   1   4   4  715.53   21.40
   1   4   4  724.13   21.90
   1   4   4  738.13   19.30
  -2  -4  -4 3971.00   75.69
  -2  -4  -4 4015.30   67.79
  -2  -4  -4 4044.50   75.39
  -2  -4  -4 3985.60   76.19
  -2  -4  -4 3890.21   76.89
  -2  -4  -4 3947.60   72.69
   2   4   4 4012.90   72.59
   2   4   4 3938.01   77.59
   2   4   4 3970.80   68.89
   2   4   4 4011.20   66.39
   2   4   4 3918.01   76.79
  -3  -4  -4 2313.37   50.49
  -3  -4  -4 2290.87   48.00
  -3  -4  -4 2233.18   50.49
  -3  -4  -4 2297.27   49.80
  -3  -4  -4 2302.97   46.30
  -3  -4  -4 2309.57   43.70
   3   4   4 2360.46   43.90
   3   4   4 2257.87   51.69
   3   4   4 2287.17   46.40
   3   4   4 2338.97   44.00
  -4  -4  -4   45.80    4.20
  -4  -4  -4   45.30    5.30
  -4  -4  -4   44.00    3.90
  -4  -4  -4   42.70    4.30
  -4  -4  -4   45.00    4.70
  -4  -4  -4   43.90    5.80
  -4  -4  -4   37.40    5.30
   4   4   4   43.10    4.40
   4   4   4   48.90    5.60
   4   4   4   42.70    4.20
   4   4   4   44.70    5.50
   4   4   4   48.90    3.80
   4   4   4   44.30    5.90
  -5  -4  -4    4.20    1.60
  -5  -4  -4    2.80    1.70
  -5  -4  -4    1.40    1.60
  -5  -4  -4    5.10    2.00
  -5  -4  -4    3.90    1.40
  -5  -4  -4   -0.70    1.50
   5   4   4    1.70    1.10
   5   4   4    3.30    1.60
   5   4   4    4.60    2.40
   5   4   4    2.50    1.60
   5   4   4    1.00    1.50
  -6  -4  -4  931.11   28.60
  -6  -4  -4  914.51   27.00
  -6  -4  -4  950.40   30.80
  -6  -4  -4  920.91   24.70
  -6  -4  -4  953.50   26.50
  -6  -4  -4  925.01   28.60
  -6  -4  -4  894.51   25.00
  -6  -4  -4  929.51   26.80
   6   4   4  913.61   27.60
   6   4   4  939.01   28.20
   6   4   4  903.91   30.60
   6   4   4  953.20   22.30
   6   4   4  974.60   31.70
  -7  -4  -4    2.80    1.90
  -7  -4  -4   -0.70    2.40
  -7  -4  -4    5.30    2.90
  -7  -4  -4    2.90    1.80
   7   4   4   -0.30    1.50
   7   4   4    1.40    2.40
   7   4   4    5.30    2.50
   7   4   4    5.10    2.30
  -8  -4  -4   22.70    4.50
  -8  -4  -4   21.90    3.40
  -8  -4  -4   15.70    4.50
   8   4   4   19.80    5.40
   8   4   4   23.30    7.40
  -9  -4  -4  236.18   14.20
  -9  -4  -4  231.88   16.70
  -9  -4  -4  220.48    9.20
  -9  -4  -4  222.58    9.30
   9   4   4  208.68   16.30
   9   4   4  215.88   22.60
 -10  -4  -4    6.00    2.80
 -10  -4  -4    2.70    3.30
  10   4   4   12.30    5.50
  10   4   4    7.00    3.00
  10  -5  -4   83.49   11.80
 -10   5   4   77.79   10.80
   9  -5  -4  206.98   17.00
   9  -5  -4  190.88   11.30
   9  -5  -4  194.78   15.30
   9  -5  -4  194.18   13.10
   9  -5  -4  174.68   11.50
  -9   5   4  192.58   16.30
   8  -5  -4  237.28   12.60
   8  -5  -4  217.18   12.60
   8  -5  -4  248.58   16.50
   8  -5  -4  227.38   17.00
   8  -5  -4  222.98   13.30
  -8   5   4  222.78   12.70
  -8   5   4  231.18   16.80
   7  -5  -4   -0.80    1.20
   7  -5  -4   -0.80    2.30
   7  -5  -4    2.80    2.50
   7  -5  -4   -1.40    1.50
  -7   5   4    0.50    1.70
  -7   5   4    1.90    2.30
   6  -5  -4  777.42   24.70
   6  -5  -4  772.52   29.40
   6  -5  -4  759.62   27.80
   6  -5  -4  707.93   23.80
  -6   5   4  791.22   29.00
  -6   5   4  700.73   22.70
  -6   5   4  737.43   24.70
   5  -5  -4   29.90    5.70
   5  -5  -4   33.50    4.90
   5  -5  -4   37.20    6.00
   5  -5  -4   29.80    4.30
  -5   5   4   25.50    5.00
  -5   5   4   32.20    4.10
  -5   5   4   32.40    3.00
  -5   5   4   29.90    4.50
  -5   5   4   44.00    5.30
  -5   5   4   36.60    6.00
   4  -5  -4  398.46   17.50
   4  -5  -4  411.76   18.10
   4  -5  -4  418.66   18.80
   4  -5  -4  433.06   17.00
   4  -5  -4  417.76   19.00
  -4   5   4  405.06   13.00
  -4   5   4  427.26   17.20
  -4   5   4  418.96   15.20
  -4   5   4  411.56   13.00
  -4   5   4  423.96   18.40
   3  -5  -4  614.24   20.90
   3  -5  -4  631.84   23.10
   3  -5  -4  617.54   21.40
   3  -5  -4  639.14   22.40
  -3   5   4  638.14   18.00
  -3   5   4  619.94   17.80
  -3   5   4  663.73   22.30
  -3   5   4  637.14   21.60
  -3   5   4  619.64   21.60
  -3   5   4  631.34   15.20
   2  -5  -4 2453.15   52.89
   2  -5  -4 2543.15   56.19
   2  -5  -4 2518.35   54.19
   2  -5  -4 2556.04   55.29
  -2   5   4 2502.85   53.49
  -2   5   4 2454.35   53.89
  -2   5   4 2522.95   50.69
  -2   5   4 2549.44   50.49
  -2   5   4 2619.84   55.59
   1  -5  -4  107.59   10.80
   1  -5  -4   85.99    6.80
   1  -5  -4   86.19    6.30
   1  -5  -4   82.09    6.80
  -1   5   4   98.19    6.60
  -1   5   4   91.69    7.20
  -1   5   4   83.59    6.40
  -1   5   4   88.39    4.30
  -1   5   4   83.69    7.10
  -1   5   4   87.29    6.50
   0  -5  -4 2748.02   52.79
   0  -5  -4 2733.23   56.79
   0  -5  -4 2760.42   54.29
   0  -5  -4 2703.93   57.19
   0   5   4 2714.63   56.89
   0   5   4 2793.72   53.09
   0   5   4 2760.12   56.69
   0   5   4 2730.23   53.29
   0   5   4 2713.73   57.79
  -1  -5  -4  150.38    9.10
  -1  -5  -4  144.39    9.40
  -1  -5  -4  159.38    8.90
  -1  -5  -4  138.99    8.90
   1   5   4  140.09    6.30
   1   5   4  143.09    6.20
   1   5   4  146.29    9.40
   1   5   4  146.39    7.50
  -2  -5  -4  386.26   15.70
  -2  -5  -4  391.06    9.20
  -2  -5  -4  373.86   16.10
  -2  -5  -4  379.66   15.30
  -2  -5  -4  388.76   13.30
  -2  -5  -4  385.46   15.30
   2   5   4  404.56   16.80
   2   5   4  412.46   11.90
   2   5   4  393.76    9.70
   2   5   4  382.16   12.90
  -3  -5  -4   63.29    4.00
  -3  -5  -4   62.49    6.60
  -3  -5  -4   55.29    3.10
  -3  -5  -4   50.59    5.30
  -3  -5  -4   62.29    6.40
  -3  -5  -4   57.69    4.90
  -3  -5  -4   61.39    6.30
   3   5   4   57.29    4.70
   3   5   4   55.29    4.80
   3   5   4   58.49    6.60
   3   5   4   55.49    4.50
   3   5   4   60.89    6.40
  -4  -5  -4 1527.25   41.30
  -4  -5  -4 1570.54   38.30
  -4  -5  -4 1627.44   35.90
  -4  -5  -4 1631.14   41.60
  -4  -5  -4 1644.84   34.40
  -4  -5  -4 1642.74   32.00
  -4  -5  -4 1653.43   40.50
   4   5   4 1681.03   34.90
   4   5   4 1603.84   36.20
   4   5   4 1596.24   35.50
   4   5   4 1556.04   42.40
  -5  -5  -4    3.40    2.00
  -5  -5  -4    3.20    1.40
  -5  -5  -4    6.20    2.40
  -5  -5  -4    6.90    2.30
  -5  -5  -4    5.80    2.50
  -5  -5  -4    0.80    2.30
  -5  -5  -4    2.80    1.60
   5   5   4    6.60    2.10
   5   5   4    5.70    2.60
   5   5   4    5.20    2.70
   5   5   4    3.00    1.40
  -6  -5  -4  493.05   18.10
  -6  -5  -4  478.65   23.10
  -6  -5  -4  531.95   22.60
  -6  -5  -4  541.65   18.40
  -6  -5  -4  508.95   18.40
  -6  -5  -4  532.25   16.80
  -6  -5  -4  508.75   17.80
   6   5   4  535.75   16.40
   6   5   4  487.65   18.60
   6   5   4  538.05   23.30
  -7  -5  -4   12.00    4.10
  -7  -5  -4   10.80    3.10
  -7  -5  -4    6.90    2.30
  -7  -5  -4   18.70    4.10
   7   5   4    4.30    2.80
   7   5   4    6.10    3.00
   7   5   4    8.90    2.20
  -8  -5  -4    1.00    2.30
  -8  -5  -4    1.60    2.10
  -8  -5  -4    2.50    2.10
  -8  -5  -4    1.50    1.60
   8   5   4    0.40    1.90
   8   5   4   -0.50    2.50
  -9  -5  -4    0.00    2.20
  -9  -5  -4    5.00    2.40
  -9  -5  -4   -0.40    2.40
   9   5   4    0.30    2.80
 -10  -5  -4  107.49   10.00
 -10  -5  -4  106.19   12.40
 -10  -5  -4   95.19    6.80
  10   5   4  104.99   12.50
   9  -6  -4    2.70    2.60
   9  -6  -4   10.70    4.70
   9  -6  -4    2.70    2.60
   9  -6  -4   -1.10    2.60
  -9   6   4    1.70    3.60
   8  -6  -4  630.74   24.00
   8  -6  -4  672.33   25.30
   8  -6  -4  629.94   29.80
   8  -6  -4  660.93   29.10
  -8   6   4  644.64   29.50
   7  -6  -4    4.30    2.80
   7  -6  -4    3.60    3.20
   7  -6  -4   16.30    5.60
  -7   6   4    8.80    3.90
   6  -6  -4   53.79    6.30
   6  -6  -4   49.40    7.70
   6  -6  -4   49.00    6.10
   6  -6  -4   47.30    7.60
  -6   6   4   40.70    6.10
  -6   6   4   40.20    7.20
   5  -6  -4  925.71   29.10
   5  -6  -4  927.81   32.50
   5  -6  -4  978.90   32.60
  -5   6   4  961.30   24.60
  -5   6   4  969.60   21.00
  -5   6   4  955.10   32.30
  -5   6   4  982.30   27.70
  -5   6   4  982.50   29.90
   4  -6  -4  430.26   18.10
   4  -6  -4  455.15   20.30
   4  -6  -4  464.95   21.50
   4  -6  -4  456.85   20.40
  -4   6   4  448.06   15.90
  -4   6   4  427.66   19.30
  -4   6   4  435.86   18.50
  -4   6   4  454.05   13.90
  -4   6   4  445.56   19.80
  -4   6   4  444.16   13.40
   3  -6  -4  301.77   14.60
   3  -6  -4  302.57   15.60
   3  -6  -4  293.17   15.30
   3  -6  -4  300.87   14.70
   3  -6  -4  303.47   16.40
  -3   6   4  308.07   15.00
  -3   6   4  310.67   15.10
  -3   6   4  306.67    8.90
  -3   6   4  302.67   11.80
  -3   6   4  292.37   11.20
  -3   6   4  290.47   15.00
   2  -6  -4 1685.33   44.30
   2  -6  -4 1749.62   43.30
   2  -6  -4 1658.43   40.30
   2  -6  -4 1618.84   43.60
  -2   6   4 1726.43   38.40
  -2   6   4 1632.44   38.60
  -2   6   4 1713.43   40.90
  -2   6   4 1687.83   33.80
  -2   6   4 1708.73   42.10
   1  -6  -4   23.10    4.40
   1  -6  -4   19.90    5.40
   1  -6  -4   27.20    3.90
   1  -6  -4   27.50    4.70
  -1   6   4   23.80    4.70
  -1   6   4   24.20    3.50
  -1   6   4   24.70    4.00
  -1   6   4   24.40    4.10
  -1   6   4   27.30    2.30
   0  -6  -4  136.19   10.00
   0  -6  -4  160.48   10.20
   0  -6  -4  152.38    9.80
   0  -6  -4  159.48   10.60
   0  -6  -4  154.38    8.20
   0   6   4  151.68    8.00
   0   6   4  141.49    9.70
   0   6   4  159.78   11.50
   0   6   4  158.28    8.30
  -1  -6  -4  121.49    8.90
  -1  -6  -4  142.39    8.90
  -1  -6  -4  135.59    6.80
  -1  -6  -4  125.59    9.50
  -1  -6  -4  120.69    9.40
   1   6   4  135.09    6.70
   1   6   4  135.99    6.70
   1   6   4  128.19    7.10
   1   6   4  126.59    9.30
  -2  -6  -4 1171.28   32.20
  -2  -6  -4 1120.79   32.00
  -2  -6  -4 1187.28   39.80
  -2  -6  -4 1175.08   33.70
   2   6   4 1190.88   33.90
   2   6   4 1195.38   27.30
   2   6   4 1172.08   26.60
   2   6   4 1148.19   23.60
   2   6   4 1074.39   31.80
  -3  -6  -4  400.86   20.20
  -3  -6  -4  374.46   17.20
  -3  -6  -4  410.06   11.00
  -3  -6  -4  402.86   17.30
  -3  -6  -4  407.26   18.20
  -3  -6  -4  393.16   13.60
   3   6   4  417.36   18.90
   3   6   4  404.56   13.80
   3   6   4  396.06   17.80
   3   6   4  413.26   13.90
   3   6   4  416.86   14.90
  -4  -6  -4  212.68    8.80
  -4  -6  -4  202.98   13.10
  -4  -6  -4  233.68   10.20
  -4  -6  -4  207.28   12.50
  -4  -6  -4  209.08   13.10
  -4  -6  -4  217.38    6.30
  -4  -6  -4  227.18   12.50
   4   6   4  209.58    9.90
   4   6   4  214.28   10.30
   4   6   4  226.78   10.70
   4   6   4  208.58   13.70
  -5  -6  -4   13.20    3.10
  -5  -6  -4    9.90    2.00
  -5  -6  -4   11.90    3.90
  -5  -6  -4    9.20    2.30
  -5  -6  -4    8.40    2.60
   5   6   4    7.90    2.30
   5   6   4    9.30    2.60
   5   6   4   10.50    3.00
   5   6   4    8.00    2.70
  -6  -6  -4  158.58    9.50
  -6  -6  -4  182.78   13.10
  -6  -6  -4  180.68    9.90
  -6  -6  -4  160.18   10.70
  -6  -6  -4  161.08    7.90
   6   6   4  168.78   13.60
   6   6   4  180.18    9.60
   6   6   4  159.48   10.10
   6   6   4  179.48   11.00
  -7  -6  -4   30.60    4.70
  -7  -6  -4   19.80    3.80
  -7  -6  -4   26.80    6.00
  -7  -6  -4   23.40    4.80
   7   6   4   23.80    4.30
   7   6   4   20.20    6.10
  -8  -6  -4  264.57   13.50
  -8  -6  -4  277.17   14.30
  -8  -6  -4  268.37   17.70
  -8  -6  -4  243.48   12.50
   8   6   4  293.97   19.50
  -9  -6  -4    9.70    4.10
  -9  -6  -4    7.80    3.20
   9   6   4    9.70    5.00
   8  -7  -4   30.40    6.00
   8  -7  -4   30.00    6.70
   8  -7  -4   24.90    6.70
   8  -7  -4   28.30    7.20
   7  -7  -4  257.67   18.00
   7  -7  -4  282.97   15.80
   7  -7  -4  230.48   17.20
  -7   7   4  250.37   17.50
   6  -7  -4    8.50    3.40
   6  -7  -4    4.30    2.90
   6  -7  -4   12.00    4.80
  -6   7   4    7.80    3.00
  -6   7   4    8.80    4.80
   5  -7  -4  224.78   15.40
   5  -7  -4  237.18   15.70
  -5   7   4  222.88   10.00
  -5   7   4  224.18   12.00
  -5   7   4  237.18    7.70
  -5   7   4  263.57   16.20
   4  -7  -4  321.97   17.50
   4  -7  -4  309.87   17.30
   4  -7  -4  298.57   18.20
  -4   7   4  314.17   10.40
  -4   7   4  276.37   12.20
  -4   7   4  291.27   11.00
  -4   7   4  299.77   16.50
   3  -7  -4  132.89   11.80
   3  -7  -4  149.59   10.80
   3  -7  -4  164.38   12.10
   3  -7  -4  143.19   11.20
  -3   7   4  148.09    5.40
  -3   7   4  156.18    7.80
  -3   7   4  144.99    8.40
  -3   7   4  153.88   11.00
   2  -7  -4  481.65   22.10
   2  -7  -4  452.45   19.70
   2  -7  -4  486.75   19.40
   2  -7  -4  469.25   20.50
  -2   7   4  476.95   13.10
  -2   7   4  460.25   17.20
  -2   7   4  484.35   17.30
  -2   7   4  475.85   18.80
   1  -7  -4  283.77   16.00
   1  -7  -4  287.97   15.10
   1  -7  -4  319.67   15.80
   1  -7  -4  303.07   13.80
  -1   7   4  308.17   14.40
  -1   7   4  283.87   12.20
  -1   7   4  294.17   15.10
  -1   7   4  315.97   13.90
   0  -7  -4   25.90    3.80
   0  -7  -4   20.70    4.80
   0  -7  -4   25.10    5.20
   0   7   4   27.60    4.00
   0   7   4   23.60    3.50
   0   7   4   29.60    5.00
  -1  -7  -4   27.60    4.90
  -1  -7  -4   21.60    4.70
  -1  -7  -4   25.70    4.70
  -1  -7  -4   25.40    4.80
  -1  -7  -4   20.60    3.00
   1   7   4   21.40    3.20
   1   7   4   19.20    3.30
   1   7   4   24.50    4.90
   1   7   4   25.10    3.40
  -2  -7  -4  673.33   25.30
  -2  -7  -4  660.63   17.00
  -2  -7  -4  682.43   24.10
  -2  -7  -4  669.43   24.70
   2   7   4  650.03   19.00
   2   7   4  646.44   16.40
   2   7   4  621.44   21.00
   2   7   4  675.73   25.10
   2   7   4  655.33   18.40
  -3  -7  -4   55.59    8.80
  -3  -7  -4   69.19    8.00
   3   7   4   54.09    6.40
   3   7   4   55.29    7.60
   3   7   4   58.99    5.00
   3   7   4   54.79    5.80
  -4  -7  -4    1.80    1.40
  -4  -7  -4    3.10    2.20
   4   7   4    0.60    1.40
   4   7   4    0.70    1.90
   4   7   4    1.40    1.60
   4   7   4    0.70    1.20
  -5  -7  -4   -0.50    1.20
  -5  -7  -4   -0.70    1.10
  -5  -7  -4    0.30    2.00
   5   7   4   -0.50    1.60
   5   7   4   -0.10    1.30
   5   7   4    2.90    2.30
   5   7   4    3.30    1.80
  -6  -7  -4   26.00    2.80
  -6  -7  -4   16.20    3.40
  -6  -7  -4   25.80    4.10
  -6  -7  -4   15.90    4.70
   6   7   4   20.70    5.40
   6   7   4   18.90    4.30
   6   7   4   26.90    4.90
   6   7   4   20.20    4.10
  -7  -7  -4   88.29    5.60
  -7  -7  -4   88.59    7.30
  -7  -7  -4   97.79   10.60
   7   7   4   84.49    7.80
   7   7   4   85.79   10.90
   7   7   4   83.49    8.50
  -8  -7  -4   31.90    7.20
  -8  -7  -4   37.90    5.50
  -8  -7  -4   38.20    5.30
   8   7   4   28.90    5.80
   8   7   4   39.50    8.70
  -9  -7  -4   79.29   10.80
  -9  -7  -4   80.99    7.80
   9   7   4   80.39   11.70
   8  -8  -4   40.60    8.10
   8  -8  -4   23.40    6.00
   8  -8  -4   39.80    8.10
  -8   8   4   19.50    5.70
   7  -8  -4  181.98   15.20
   7  -8  -4  186.18   16.10
   7  -8  -4  174.48   13.20
  -7   8   4  181.38   15.50
   6  -8  -4    4.80    3.20
   6  -8  -4    8.40    3.60
  -6   8   4    8.00    3.00
   5  -8  -4   71.89    9.30
  -5   8   4   74.29    5.40
  -5   8   4   78.19    7.10
  -5   8   4   78.59   14.00
   4  -8  -4   38.60    7.50
   4  -8  -4   22.60    5.50
   4  -8  -4   39.50    7.20
  -4   8   4   40.20    4.50
  -4   8   4   26.00    4.00
  -4   8   4   31.70    6.20
  -4   8   4   31.20    4.00
   3  -8  -4  623.44   25.30
   3  -8  -4  585.04   25.00
   3  -8  -4  610.74   27.30
  -3   8   4  586.64   19.20
  -3   8   4  588.74   23.50
  -3   8   4  572.14   16.80
   2  -8  -4   21.80    5.50
   2  -8  -4   23.10    5.30
   2  -8  -4   20.90    4.70
  -2   8   4   18.40    4.00
  -2   8   4   19.50    2.50
  -2   8   4   23.30    4.50
  -2   8   4   20.60    4.40
   1  -8  -4 1183.48   35.60
   1  -8  -4 1132.69   37.30
   1  -8  -4 1090.89   35.40
  -1   8   4 1139.89   32.30
  -1   8   4 1119.99   31.30
  -1   8   4 1140.79   29.40
   0  -8  -4  693.13   25.60
   0  -8  -4  699.63   22.20
   0  -8  -4  685.03   27.50
   0   8   4  696.53   20.20
   0   8   4  718.83   25.10
   0   8   4  682.23   21.60
  -1  -8  -4  616.24   24.70
  -1  -8  -4  547.55   24.00
  -1  -8  -4  585.04   22.60
  -1  -8  -4  538.35   17.90
   1   8   4  588.04   18.00
   1   8   4  564.34   22.90
   1   8   4  539.05   16.80
   1   8   4  581.14   18.40
  -2  -8  -4    5.30    3.20
  -2  -8  -4    1.00    2.20
  -2  -8  -4    1.90    1.50
   2   8   4    3.40    1.70
   2   8   4    0.70    1.60
   2   8   4    3.80    1.60
   2   8   4    3.00    2.20
   2   8   4    1.60    2.20
  -3  -8  -4  633.74   23.20
  -3  -8  -4  641.24   26.30
   3   8   4  619.64   22.10
   3   8   4  645.84   26.50
   3   8   4  618.84   17.90
   3   8   4  613.44   20.20
  -4  -8  -4  194.88   14.30
   4   8   4  204.98   11.60
   4   8   4  192.28    9.20
   4   8   4  216.58   15.50
   4   8   4  208.68   12.10
  -5  -8  -4  222.58   15.40
   5   8   4  210.88   10.20
   5   8   4  222.08   12.50
   5   8   4  225.48   12.80
  -6  -8  -4   77.49    6.80
  -6  -8  -4   71.19    9.40
   6   8   4   76.49    9.90
   6   8   4   77.09    7.70
   6   8   4   57.19    7.10
  -7  -8  -4   38.70    4.90
  -7  -8  -4   34.10    7.40
   7   8   4   47.00    8.70
   7   8   4   38.20    6.90
   7   8   4   42.60    6.70
  -8  -8  -4   20.50    6.90
  -8  -8  -4   29.00    4.80
   8   8   4   20.00    4.30
   8   8   4   14.50    5.90
   7  -9  -4    6.00    3.90
   7  -9  -4   16.30    5.70
  -7   9   4   13.10    5.50
   6  -9  -4   77.09   10.40
   6  -9  -4   83.99   10.80
  -6   9   4   65.79    9.90
  -6   9   4   81.69    7.90
   5  -9  -4  300.97   19.90
   5  -9  -4  290.47   18.80
  -5   9   4  306.47   19.00
  -5   9   4  274.47   10.30
  -5   9   4  296.27   13.90
   4  -9  -4   73.89   10.20
   4  -9  -4   79.59   10.90
   4  -9  -4   92.29   10.50
  -4   9   4  110.39   15.90
  -4   9   4   71.59    6.30
  -4   9   4   74.19    5.90
   3  -9  -4  135.49   12.20
   3  -9  -4  155.68   12.60
   3  -9  -4  141.09   20.10
  -3   9   4  120.39    6.60
  -3   9   4  113.09   10.20
  -3   9   4  141.59   11.90
   2  -9  -4   30.30    6.90
   2  -9  -4   30.90    6.20
  -2   9   4   32.20    5.20
  -2   9   4   18.30    3.90
  -2   9   4   29.20    5.80
   1  -9  -4   30.00    5.60
   1  -9  -4   22.90    5.80
   1  -9  -4   28.90    6.00
  -1   9   4   21.90    5.20
  -1   9   4   25.60    4.90
  -1   9   4   32.80    4.50
   0  -9  -4   19.90    5.50
   0  -9  -4   20.90    5.30
   0  -9  -4   15.30    3.90
   0   9   4   23.30    5.60
   0   9   4   27.00    4.40
   0   9   4   25.70    3.80
  -1  -9  -4 1093.29   38.20
  -1  -9  -4 1085.69   29.40
  -1  -9  -4 1080.49   34.60
   1   9   4 1085.79   26.80
   1   9   4 1143.39   30.30
   1   9   4 1163.28   29.20
   1   9   4 1140.99   36.10
  -2  -9  -4   55.19    7.10
  -2  -9  -4   54.69    5.20
  -2  -9  -4   53.19    8.10
   2   9   4   61.59    8.40
   2   9   4   54.19    4.80
   2   9   4   50.39    6.10
   2   9   4   63.49    7.60
  -3  -9  -4   77.39    8.20
  -3  -9  -4   65.69    4.50
  -3  -9  -4   76.79    9.30
   3   9   4   73.49    5.20
   3   9   4   76.99    7.20
   3   9   4   64.99    7.30
   3   9   4   80.69    9.70
  -4  -9  -4   70.49    9.10
  -4  -9  -4   66.59    7.80
   4   9   4   68.09    7.00
   4   9   4   57.09    6.80
   4   9   4   61.49    8.90
   4   9   4   52.79    4.90
  -5  -9  -4  166.28   11.80
  -5  -9  -4  168.08   14.40
   5   9   4  179.58   15.00
   5   9   4  177.88   12.00
   5   9   4  183.98   12.00
  -6  -9  -4   -2.80    2.30
  -6  -9  -4    1.80    2.00
   6   9   4    1.60    2.00
   6   9   4    0.00    2.10
   6   9   4    2.00    2.80
  -7  -9  -4  152.98   14.00
   7   9   4  149.99   15.40
   7   9   4  139.49   11.70
   7   9   4  148.59   11.70
   6 -10  -4    5.60    4.10
   6 -10  -4    0.90    3.00
  -6  10   4    3.60    3.30
   5 -10  -4   67.49   10.70
   5 -10  -4   59.09    9.20
  -5  10   4   66.19    9.00
   4 -10  -4  144.99   13.70
   4 -10  -4  150.98   15.30
   4 -10  -4  138.49   13.00
  -4  10   4  128.49   12.20
  -4  10   4  131.39    7.90
  -4  10   4  139.49    8.10
   3 -10  -4   33.00    7.40
   3 -10  -4   39.30    7.90
   3 -10  -4   26.30    6.20
  -3  10   4   31.10    8.10
  -3  10   4   25.60    4.70
   2 -10  -4   85.09    9.90
   2 -10  -4   90.09   11.10
  -2  10   4   68.29    7.60
  -2  10   4   75.29    8.50
   1 -10  -4   18.70    5.20
   1 -10  -4    7.60    3.50
  -1  10   4   12.40    3.40
  -1  10   4    6.90    2.80
  -1  10   4   13.60    4.40
   0 -10  -4   -2.40    2.20
   0 -10  -4    2.40    1.70
   0  10   4    0.20    1.80
   0  10   4    1.60    2.00
   0  10   4   -2.90    1.80
  -1 -10  -4  129.79   12.70
  -1 -10  -4  104.79    9.70
  -1 -10  -4  140.89   11.70
   1  10   4  133.09   16.00
   1  10   4  111.89   11.20
   1  10   4  114.29    7.10
   1  10   4  132.19    9.60
   1  10   4  113.09    8.40
  -2 -10  -4  209.88   14.50
  -2 -10  -4  203.28   10.30
  -2 -10  -4  232.88   17.20
   2  10   4  197.28   11.80
   2  10   4  190.68   16.60
   2  10   4  217.38   15.40
   2  10   4  184.48    8.40
  -3 -10  -4   -1.50    1.90
  -3 -10  -4    0.80    2.20
  -3 -10  -4   -2.00    1.40
   3  10   4   -1.50    1.90
   3  10   4   -0.40    2.00
   3  10   4    0.00    2.10
   3  10   4    0.80    1.50
  -4 -10  -4   47.30    8.50
  -4 -10  -4   35.00    6.10
   4  10   4   38.80    8.10
   4  10   4   46.10    6.50
  -5 -10  -4   96.39    9.60
  -5 -10  -4  116.49   12.70
   5  10   4  110.99   10.50
   5  10   4  127.59   14.00
   5  10   4  114.39   10.00
  -6 -10  -4    2.20    2.50
  -6 -10  -4    2.20    3.20
   6  10   4    4.10    2.90
   6  10   4    3.10    3.10
   6  10   4    9.40    5.70
   4 -11  -4  152.68   15.40
   4 -11  -4  151.48   14.10
  -4  11   4  159.38   13.80
   3 -11  -4   17.90    5.40
   3 -11  -4    9.30    4.20
   3 -11  -4   28.60    7.00
  -3  11   4   12.80    4.70
  -3  11   4   14.60    3.90
   2 -11  -4   11.50    3.90
   2 -11  -4   15.80    6.30
   2 -11  -4   12.60    4.20
  -2  11   4   12.00    3.90
  -2  11   4   12.80    4.00
   1 -11  -4   36.20    7.50
   1 -11  -4   21.00    6.20
  -1  11   4   32.70    5.10
  -1  11   4   25.00    5.40
  -1  11   4   26.70    6.10
   0 -11  -4    4.00    2.90
   0 -11  -4   13.20    4.50
   0  11   4   10.20    2.70
   0  11   4   10.80    3.60
   0  11   4   10.80    4.20
   0  11   4   12.50    4.30
   0  11   4    7.90    3.40
  -1 -11  -4   62.39   10.00
  -1 -11  -4   63.39    8.70
   1  11   4   50.99    5.00
   1  11   4   55.79    6.80
   1  11   4   54.39    7.10
   1  11   4   56.59    8.40
   1  11   4   50.99    7.90
  -2 -11  -4  123.99   11.40
  -2 -11  -4  119.69   11.40
  -2 -11  -4  115.19   12.40
   2  11   4  125.39   11.70
   2  11   4  107.99    9.40
   2  11   4  120.09   12.50
  -3 -11  -4   67.59    9.70
  -3 -11  -4   60.09   10.50
   3  11   4   51.09    8.20
   3  11   4   63.39    7.70
   3  11   4   49.00    9.00
  -4 -11  -4   44.10    8.40
  -4 -11  -4   31.80    7.40
   4  11   4   27.90    6.00
   4  11   4   30.40    8.50
   4  11   4   15.40    4.70
   1 -12  -4    6.30    4.20
   1 -12  -4    9.80    4.40
  -1  12   4    5.40    3.10
  -1  12   4    5.00    4.00
  -1  12   4    4.70    4.30
   0 -12  -4  182.98   15.40
   0 -12  -4  200.18   18.60
   0  12   4  178.28   14.50
   0  12   4  183.48   12.70
   0  12   4  196.28   13.20
   0  12   4  239.88   17.00
  -1 -12  -4   -3.70    2.50
  -1 -12  -4    4.50    2.30
   1  12   4   -4.10    2.30
   1  12   4   -1.20    2.90
   1  12   4    4.30    3.60
   0  11  -5   39.00    8.50
   0  11  -5   32.80    5.80
   0  11  -5   41.20    8.70
   0  11  -5   34.50    6.90
   0 -11   5   36.60    8.60
   0 -11   5   30.60    5.70
  -1  11  -5    3.90    3.60
   1 -11   5    4.40    2.90
   1 -11   5    0.90    3.20
   4  10  -5  123.69   13.10
   4  10  -5  114.59    9.70
   4  10  -5  126.99   13.10
   4  10  -5   93.19   10.40
  -4 -10   5  115.49   11.30
  -4 -10   5  110.09   13.10
   3  10  -5   67.09    8.90
   3  10  -5   63.59    7.80
   3  10  -5   62.79    9.90
   3  10  -5   55.29    8.90
  -3 -10   5   35.70    8.10
   2  10  -5   15.10    4.90
   2  10  -5   17.60    4.10
   2  10  -5   16.80    5.20
   2  10  -5   19.90    4.90
  -2 -10   5   27.10    6.40
   1  10  -5    3.10    3.00
   1  10  -5   -1.30    2.10
   1  10  -5    9.70    3.50
   1  10  -5    2.00    3.00
  -1 -10   5   -4.50    2.30
   0  10  -5  183.08   14.50
   0  10  -5  165.58   11.20
   0 -10   5  186.38   15.40
   0 -10   5  169.98   11.00
  -1  10  -5    2.30    2.30
  -1  10  -5    4.30    3.40
   1 -10   5    3.20    2.40
   1 -10   5    0.60    3.10
  -2  10  -5   43.70    7.60
   2 -10   5   23.30    6.30
   2 -10   5   32.80    6.20
  -3  10  -5  115.39   11.10
   3 -10   5   86.59    9.90
   3 -10   5  108.19   13.20
  -4  10  -5   47.30    6.70
  -4  10  -5   59.89    8.80
   4 -10   5   67.29   10.90
   4 -10   5   49.60    7.70
   5   9  -5    2.80    3.30
   5   9  -5   -5.70    2.30
   5   9  -5   -2.40    3.20
   5   9  -5    1.20    2.70
  -5  -9   5   15.80    5.00
  -5  -9   5    4.30    3.20
   4   9  -5   25.60    5.20
   4   9  -5   29.20    6.50
   4   9  -5   15.00    4.80
   4   9  -5   13.10    4.60
  -4  -9   5   26.70    5.80
  -4  -9   5   21.70    6.80
   3   9  -5   62.99    8.50
   3   9  -5   56.69    8.70
   3   9  -5   45.80    6.40
   3   9  -5   53.09    6.60
   3   9  -5   82.29    9.60
  -3  -9   5   60.19    9.40
  -3  -9   5   62.99    7.90
   2   9  -5   47.70    7.40
   2   9  -5   58.69    8.40
   2   9  -5   45.90    7.90
   2   9  -5   42.50    6.10
  -2  -9   5   45.20    7.50
   1   9  -5   56.09    6.50
   1   9  -5   39.70    6.70
   1   9  -5   41.30    6.50
   1   9  -5   44.70    7.60
   1   9  -5   48.00    7.60
  -1  -9   5   59.09    8.40
   0   9  -5  184.08   13.40
   0   9  -5  180.28   10.90
   0   9  -5  194.28   11.80
   0  -9   5  175.48   10.90
   0  -9   5  220.08   15.60
  -1   9  -5  115.09    6.00
  -1   9  -5   87.59    9.40
   1  -9   5   88.39    8.50
  -2   9  -5   17.10    4.60
   2  -9   5   11.30    3.50
   2  -9   5   11.90    4.10
  -3   9  -5   88.59    9.50
  -3   9  -5   95.49    7.60
   3  -9   5   86.79   10.70
   3  -9   5   64.89    8.60
   3  -9   5   76.29   10.40
  -4   9  -5  123.99   11.00
  -4   9  -5  149.09   10.30
   4  -9   5  150.98   14.90
   4  -9   5  150.98   13.00
   4  -9   5  137.49   14.00
  -5   9  -5   14.30    4.00
  -5   9  -5   10.10    3.90
   5  -9   5    7.10    3.40
   5  -9   5    8.50    5.00
   5  -9   5    3.70    3.00
  -6   9  -5   21.20    4.80
  -6   9  -5   11.70    4.90
  -6   9  -5   13.20    4.10
   6  -9   5   12.80    4.70
   6  -9   5   19.80    5.70
   6  -9   5   23.10    5.40
   7   8  -5   -1.80    2.80
   7   8  -5   -2.80    3.20
   7   8  -5   -0.20    2.70
   7   8  -5    3.30    4.00
  -7  -8   5    0.20    3.20
   6   8  -5    0.30    1.90
   6   8  -5   -1.60    2.70
   6   8  -5    5.70    4.00
   6   8  -5    0.30    3.00
  -6  -8   5    0.30    2.20
  -6  -8   5    4.60    1.90
  -6  -8   5   -0.90    3.50
   5   8  -5  191.58   15.00
   5   8  -5  203.78   14.70
   5   8  -5  197.38   13.00
   5   8  -5  214.98   15.50
  -5  -8   5  252.47   17.60
  -5  -8   5  214.98   12.00
  -5  -8   5  185.78    9.30
   4   8  -5   15.20    4.10
   4   8  -5   10.10    4.10
   4   8  -5   20.30    5.70
   4   8  -5   12.40    3.90
  -4  -8   5    8.20    4.00
  -4  -8   5   23.30    5.20
   3   8  -5   65.19    5.90
   3   8  -5   76.29    8.60
   3   8  -5   64.89   12.40
   3   8  -5   85.09    9.50
   3   8  -5   61.79    6.80
  -3  -8   5   65.39    8.80
  -3  -8   5   83.09    8.30
   2   8  -5   16.10    4.10
   2   8  -5   17.10    4.40
   2   8  -5    7.50    2.50
   2   8  -5    5.60    2.60
   2   8  -5   15.60    4.50
  -2  -8   5    8.60    3.60
   1   8  -5  104.19    9.50
   1   8  -5   86.79    9.00
   1   8  -5   89.49    7.90
   1   8  -5   88.59    7.50
  -1  -8   5   98.29    9.80
   0   8  -5  164.88   12.00
   0   8  -5  154.58    6.20
   0   8  -5  151.38   10.20
   0   8  -5  164.38    9.70
   0  -8   5  172.08   13.10
   0  -8   5  169.58   10.00
  -1   8  -5  967.50   31.10
  -1   8  -5  977.30   23.20
  -1   8  -5  926.81   29.50
  -1   8  -5  908.51   28.20
   1  -8   5  971.10   29.20
   1  -8   5  994.20   34.60
  -2   8  -5  159.78   11.50
  -2   8  -5  177.58   10.80
   2  -8   5  173.28   14.00
   2  -8   5  165.78   11.70
   2  -8   5  138.19   10.90
  -3   8  -5  153.28    9.50
  -3   8  -5  148.69   11.00
   3  -8   5  155.48   13.50
   3  -8   5  141.29   10.10
   3  -8   5  162.08   12.10
  -4   8  -5   81.19    8.20
  -4   8  -5   83.29    7.70
   4  -8   5   78.49    8.90
   4  -8   5   72.99    7.40
   4  -8   5   69.39    9.50
   4  -8   5   79.29    8.20
  -5   8  -5  280.47   17.60
  -5   8  -5  276.07   15.00
  -5   8  -5  299.17   15.40
   5  -8   5  261.27   11.70
   5  -8   5  270.47   14.50
   5  -8   5  292.17   19.40
   5  -8   5  278.47   17.70
  -6   8  -5   16.80    5.70
  -6   8  -5   16.30    4.40
  -6   8  -5   25.20    5.40
   6  -8   5   31.60    7.20
   6  -8   5   15.00    3.80
   6  -8   5   18.60    4.60
   6  -8   5   33.60    6.60
  -7   8  -5  121.89   10.80
  -7   8  -5  115.29   11.10
  -7   8  -5  115.89   12.30
   7  -8   5  108.09   12.90
   7  -8   5  118.99   13.60
   7  -8   5  109.09   13.90
   8   7  -5    8.20    4.10
   8   7  -5    5.70    3.40
   8   7  -5    4.10    3.90
   8   7  -5    4.20    3.20
  -8  -7   5    1.80    3.50
   7   7  -5   62.79    9.10
   7   7  -5   51.89    9.70
   7   7  -5   54.29    7.90
   7   7  -5   68.59    9.60
  -7  -7   5   54.09    8.90
   6   7  -5   82.19   10.50
   6   7  -5   78.39    9.60
   6   7  -5   67.59    8.30
   6   7  -5   72.19    9.20
  -6  -7   5   61.39    5.10
  -6  -7   5   66.89    5.30
  -6  -7   5   70.79    4.70
  -6  -7   5   64.69    9.00
   5   7  -5   25.50    5.80
   5   7  -5   27.10    5.50
   5   7  -5   27.70    6.20
   5   7  -5   19.80    4.90
  -5  -7   5   28.90    3.50
  -5  -7   5   26.20    4.30
   4   7  -5  105.19   10.60
   4   7  -5   97.39    9.60
   4   7  -5   81.79    8.10
   4   7  -5  102.89    9.70
  -4  -7   5   89.99   10.00
  -4  -7   5   94.99    7.90
   3   7  -5  103.09    9.40
   3   7  -5   98.99    6.20
   3   7  -5  107.49    9.70
   3   7  -5   93.79    8.30
   3   7  -5  100.49    9.90
  -3  -7   5  115.89    9.00
  -3  -7   5  106.69   10.60
   2   7  -5   -0.20    2.10
   2   7  -5    0.10    1.70
   2   7  -5    1.80    1.90
   2   7  -5    3.20    2.20
   2   7  -5    0.50    1.20
  -2  -7   5    1.10    1.90
  -2  -7   5    0.20    2.20
   1   7  -5  441.76   19.00
   1   7  -5  456.75   19.50
   1   7  -5  449.06   14.10
   1   7  -5  431.56   15.50
   1   7  -5  453.55   17.60
  -1  -7   5  476.45   20.20
   0   7  -5   -0.40    1.10
   0   7  -5    1.10    1.80
   0   7  -5    0.90    1.70
   0   7  -5   -0.70    0.80
   0   7  -5    0.60    1.30
   0  -7   5   -0.40    1.10
   0  -7   5   -1.00    1.40
  -1   7  -5   38.10    5.60
  -1   7  -5   47.40    5.50
  -1   7  -5   36.70    4.00
  -1   7  -5   39.80    5.40
   1  -7   5   46.30    5.50
   1  -7   5   48.90    7.10
   1  -7   5   47.70    6.30
  -2   7  -5  476.55   19.50
  -2   7  -5  469.25   19.10
  -2   7  -5  500.35   20.30
   2  -7   5  505.35   19.90
   2  -7   5  529.35   20.60
   2  -7   5  558.04   23.80
  -3   7  -5 1027.80   29.80
  -3   7  -5 1022.60   27.80
   3  -7   5  945.01   28.40
   3  -7   5 1025.50   32.30
   3  -7   5 1003.30   35.10
  -4   7  -5    8.60    3.40
  -4   7  -5   10.70    3.00
  -4   7  -5    8.70    2.70
   4  -7   5   12.20    4.40
   4  -7   5   10.70    3.70
   4  -7   5   14.40    3.60
   4  -7   5   11.90    3.70
  -5   7  -5  357.56   19.20
  -5   7  -5  368.26   16.40
  -5   7  -5  369.06   17.30
   5  -7   5  338.27   19.30
   5  -7   5  352.56   15.40
   5  -7   5  347.17   13.40
  -6   7  -5  176.18   12.40
  -6   7  -5  166.08   13.40
  -6   7  -5  160.68   10.70
   6  -7   5  169.28    9.60
   6  -7   5  151.08    7.20
   6  -7   5  190.38   15.30
   6  -7   5  159.68    9.80
   6  -7   5  163.68   13.90
  -7   7  -5  147.59   12.30
  -7   7  -5  152.88   13.30
  -7   7  -5  144.09   10.20
   7  -7   5  138.89   13.50
   7  -7   5  142.29   15.00
   7  -7   5  139.09    8.00
   7  -7   5  136.39   13.40
  -8   7  -5   65.39    9.30
  -8   7  -5   63.39    9.20
  -8   7  -5   62.79    7.10
   8  -7   5   69.49   10.30
   8  -7   5   42.60   10.30
   8  -7   5   66.99   10.50
   8   6  -5    3.10    3.20
   8   6  -5   10.70    4.00
   8   6  -5    5.70    2.80
  -8  -6   5    4.90    3.30
  -8  -6   5    3.70    3.70
   7   6  -5  150.38   13.60
   7   6  -5  145.29   12.80
   7   6  -5  159.08   13.30
   7   6  -5  136.69   17.10
  -7  -6   5  137.89    7.50
  -7  -6   5  165.08   13.50
  -7  -6   5  123.39    9.90
  -7  -6   5  133.49    6.90
   6   6  -5   89.89   10.60
   6   6  -5   89.29    9.00
   6   6  -5   80.59   10.70
  -6  -6   5   75.59    6.70
  -6  -6   5   88.19   14.10
  -6  -6   5   81.89    6.20
  -6  -6   5   78.49    4.20
  -6  -6   5   89.39    5.50
   5   6  -5    0.40    1.70
   5   6  -5    2.10    2.10
   5   6  -5    5.10    3.00
   5   6  -5    1.00    1.60
  -5  -6   5    1.90    1.00
  -5  -6   5    1.90    1.40
  -5  -6   5    1.20    1.00
  -5  -6   5    0.60    1.00
  -5  -6   5    1.50    2.40
   4   6  -5   15.30    3.80
   4   6  -5   29.90    5.50
   4   6  -5   25.30    5.40
   4   6  -5   24.50    4.70
  -4  -6   5   28.30    2.30
  -4  -6   5   23.40    5.50
  -4  -6   5   24.30    4.00
   3   6  -5  248.38    8.80
   3   6  -5  264.87   14.20
   3   6  -5  252.87   13.00
   3   6  -5  244.58   13.60
   3   6  -5  238.78   14.20
  -3  -6   5  253.07   12.30
  -3  -6   5  238.18   14.80
  -3  -6   5  248.78    7.40
   2   6  -5   -0.20    1.40
   2   6  -5   -0.80    1.30
   2   6  -5    1.70    2.10
   2   6  -5    0.00    1.30
   2   6  -5   -0.90    0.90
  -2  -6   5    2.20    1.80
  -2  -6   5   -0.40    0.90
  -2  -6   5   -1.10    0.80
   1   6  -5  170.48   10.00
   1   6  -5  185.78    8.60
   1   6  -5  181.98   11.50
   1   6  -5  181.98   11.00
   1   6  -5  165.78    7.70
  -1  -6   5  171.08   11.10
  -1  -6   5  179.78    7.30
  -1  -6   5  189.98   12.60
  -1  -6   5  165.98   11.60
   0   6  -5  129.19    7.70
   0   6  -5  128.39    9.20
   0   6  -5  132.19    6.60
   0   6  -5  123.49    7.70
   0  -6   5  130.59    7.90
   0  -6   5  135.19    7.30
   0  -6   5  124.49    9.70
   0  -6   5  117.09    9.40
   0  -6   5  135.39   10.40
  -1   6  -5    2.10    1.50
  -1   6  -5    1.70    1.50
  -1   6  -5    2.00    1.40
  -1   6  -5    1.40    1.40
   1  -6   5    2.90    1.30
   1  -6   5    0.90    1.60
   1  -6   5    1.10    1.30
   1  -6   5    7.50    2.70
  -2   6  -5    3.10    1.80
  -2   6  -5    1.90    1.40
  -2   6  -5   -1.10    1.20
  -2   6  -5    1.40    1.70
   2  -6   5    1.80    1.90
   2  -6   5    1.00    1.70
   2  -6   5    2.90    1.60
   2  -6   5    3.50    1.70
   2  -6   5    3.80    2.30
  -3   6  -5 1302.27   33.50
  -3   6  -5 1317.77   33.20
  -3   6  -5 1264.47   36.90
   3  -6   5 1337.47   39.70
   3  -6   5 1284.47   33.60
   3  -6   5 1339.17   37.10
   3  -6   5 1353.96   35.10
  -4   6  -5   43.30    5.40
  -4   6  -5   57.19    6.50
  -4   6  -5   52.39    6.80
   4  -6   5   41.80    6.20
   4  -6   5   47.40    5.30
   4  -6   5   48.30    7.10
   4  -6   5   50.19    5.60
  -5   6  -5  114.49   10.40
  -5   6  -5  114.69    8.50
  -5   6  -5  131.49   10.00
   5  -6   5  107.89    7.30
   5  -6   5  124.29   11.00
   5  -6   5  105.19   10.60
  -6   6  -5  209.38   11.30
  -6   6  -5  191.08   14.00
  -6   6  -5  188.58   13.00
   6  -6   5  197.18    9.70
   6  -6   5  172.38   13.80
   6  -6   5  188.48   14.80
   6  -6   5  183.48   15.30
   6  -6   5  203.48    9.60
  -7   6  -5  239.98   12.40
  -7   6  -5  260.07   16.30
  -7   6  -5  240.58   15.30
   7  -6   5  240.58    8.60
   7  -6   5  241.58   17.20
   7  -6   5  237.48   16.90
   7  -6   5  252.47   18.80
  -8   6  -5    3.80    2.30
  -8   6  -5    9.70    4.00
  -8   6  -5   16.00    4.90
   8  -6   5   13.60    6.20
   8  -6   5    7.80    4.50
   8  -6   5    3.80    3.30
  -9   6  -5  618.24   28.40
  -9   6  -5  603.14   27.90
  -9   6  -5  566.44   20.50
   9  -6   5  630.34   33.20
   9  -6   5  592.64   29.10
   9   5  -5   10.40    3.80
   9   5  -5   17.30    5.40
  -9  -5   5   16.60    4.90
  -9  -5   5   13.60    2.70
  -9  -5   5   12.10    3.20
  -9  -5   5   15.80    5.50
   8   5  -5  146.99   13.20
   8   5  -5  162.28   13.40
   8   5  -5  150.88   13.50
  -8  -5   5  154.08   13.00
  -8  -5   5  156.08    9.50
  -8  -5   5  149.19   10.20
  -8  -5   5  161.08    7.00
   7   5  -5    6.10    3.80
   7   5  -5    2.90    2.20
   7   5  -5    7.10    3.40
  -7  -5   5    4.80    2.00
  -7  -5   5    8.20    3.50
  -7  -5   5    5.80    2.90
  -7  -5   5    7.90    2.70
   6   5  -5  252.07   15.40
   6   5  -5  280.77   15.50
   6   5  -5  273.47   16.60
   6   5  -5  245.48   15.60
  -6  -5   5  265.47   15.90
  -6  -5   5  247.88   12.50
  -6  -5   5  255.87   10.40
   5   5  -5   96.29    9.50
   5   5  -5  113.09    9.50
   5   5  -5   93.49    9.30
   5   5  -5   97.19    9.00
  -5  -5   5   92.99    5.60
  -5  -5   5  100.59    9.60
  -5  -5   5  103.39    5.50
  -5  -5   5  101.79    6.80
  -5  -5   5  104.59    9.00
   4   5  -5  163.68   11.30
   4   5  -5  152.78   10.30
   4   5  -5  149.79   11.30
   4   5  -5  171.38   11.40
  -4  -5   5  155.18    8.00
  -4  -5   5  159.48    6.90
  -4  -5   5  162.68   11.10
  -4  -5   5  173.58   12.40
   3   5  -5   82.19    7.40
   3   5  -5   72.39    7.00
   3   5  -5   80.89    7.60
   3   5  -5   73.19    7.80
  -3  -5   5   86.69    8.60
  -3  -5   5   87.19    6.40
  -3  -5   5   81.69    4.70
   2   5  -5 1460.35   37.40
   2   5  -5 1424.16   35.50
   2   5  -5 1416.66   34.80
   2   5  -5 1393.46   26.10
   2   5  -5 1433.36   36.60
   2   5  -5 1374.76   27.70
  -2  -5   5 1416.26   28.80
  -2  -5   5 1371.76   38.10
  -2  -5   5 1379.36   38.70
  -2  -5   5 1411.06   36.60
  -2  -5   5 1372.06   35.80
  -2  -5   5 1405.86   34.50
   1   5  -5   70.39    6.20
   1   5  -5   84.79    5.00
   1   5  -5   73.79    4.70
   1   5  -5   78.09    4.90
   1   5  -5   70.59    6.70
   1   5  -5   87.09    7.40
  -1  -5   5   66.39    7.20
  -1  -5   5   78.39    4.90
  -1  -5   5   80.49    7.70
  -1  -5   5   80.79    7.80
  -1  -5   5   70.79    6.80
  -1  -5   5   73.09    6.90
   0   5  -5  556.04   16.60
   0   5  -5  556.74   19.20
   0   5  -5  571.44   15.80
   0   5  -5  573.44   17.00
   0  -5   5  559.64   20.40
   0  -5   5  535.65   20.30
   0  -5   5  543.45   20.30
   0  -5   5  558.54   16.10
   0  -5   5  544.45   20.10
  -1   5  -5  211.98   10.80
  -1   5  -5  216.58   10.40
  -1   5  -5  220.48    9.50
  -1   5  -5  191.68   10.00
   1  -5   5  205.88    9.60
   1  -5   5  216.68   12.50
   1  -5   5  207.68   11.60
   1  -5   5  208.28   10.60
  -2   5  -5   45.00    5.40
  -2   5  -5   48.20    4.80
  -2   5  -5   40.60    5.20
  -2   5  -5   40.60    4.90
   2  -5   5   39.20    5.80
   2  -5   5   46.30    5.40
   2  -5   5   36.50    5.10
   2  -5   5   41.40    5.40
   2  -5   5   43.40    4.90
  -3   5  -5    3.10    1.70
  -3   5  -5    6.90    2.40
  -3   5  -5    2.70    1.70
  -3   5  -5    6.20    2.90
   3  -5   5    2.30    1.50
   3  -5   5    4.90    2.40
   3  -5   5    7.60    2.90
   3  -5   5    3.10    1.80
  -4   5  -5 2094.09   48.00
  -4   5  -5 2127.89   44.80
  -4   5  -5 2043.90   51.59
  -4   5  -5 2027.00   43.00
  -4   5  -5 2029.50   49.80
   4  -5   5 2107.99   51.49
   4  -5   5 2077.49   44.70
   4  -5   5 2080.79   52.59
  -5   5  -5  343.17   14.40
  -5   5  -5  353.76   13.80
  -5   5  -5  358.96   17.30
  -5   5  -5  343.87   16.20
   5  -5   5  347.57   18.10
   5  -5   5  345.77   18.50
   5  -5   5  346.27   12.80
  -6   5  -5  174.18    9.40
  -6   5  -5  180.38   12.50
  -6   5  -5  184.78   12.50
  -6   5  -5  170.18   10.90
   6  -5   5  172.88   14.40
   6  -5   5  166.08   13.20
   6  -5   5  182.08   13.60
   6  -5   5  174.78    7.80
  -7   5  -5  537.05   23.30
  -7   5  -5  560.54   26.00
  -7   5  -5  542.65   18.00
   7  -5   5  521.95   14.40
   7  -5   5  459.25   29.80
   7  -5   5  517.85   26.50
   7  -5   5  563.34   25.50
  -8   5  -5   45.30    7.70
  -8   5  -5   37.20    4.90
  -8   5  -5   57.19    7.70
   8  -5   5   50.99    8.10
   8  -5   5   51.79    8.30
   8  -5   5   41.10    7.70
  -9   5  -5   53.69    8.80
  -9   5  -5   42.40    7.30
  -9   5  -5   44.50    5.60
   9  -5   5   33.50    7.70
   9  -5   5   50.69   10.10
   9   4  -5    8.20    4.20
   9   4  -5    4.80    4.00
  -9  -4   5    7.60    3.60
  -9  -4   5   11.30    2.60
  -9  -4   5   10.40    3.80
  -9  -4   5    3.00    3.30
   8   4  -5  306.47   18.10
   8   4  -5  304.07   18.90
   8   4  -5  292.27   18.10
  -8  -4   5  331.77   18.90
  -8  -4   5  292.77   17.30
  -8  -4   5  313.67   10.70
  -8  -4   5  303.87   15.50
   7   4  -5   21.20    5.20
   7   4  -5   16.10    4.60
   7   4  -5   11.10    3.90
  -7  -4   5   14.30    4.10
  -7  -4   5   16.20    2.20
  -7  -4   5   18.50    4.80
  -7  -4   5   11.60    3.70
   6   4  -5  251.97   14.70
   6   4  -5  234.28   14.90
   6   4  -5  240.38   14.40
   6   4  -5  248.88   15.10
  -6  -4   5  222.58   13.10
  -6  -4   5  244.28   12.50
  -6  -4   5  248.28   14.80
  -6  -4   5  229.38   10.70
   5   4  -5  290.27   15.00
   5   4  -5  290.57   15.60
   5   4  -5  279.87   15.00
   5   4  -5  298.97   16.10
  -5  -4   5  299.67   11.40
  -5  -4   5  302.57   16.00
  -5  -4   5  290.27   14.20
  -5  -4   5  288.67   12.50
   4   4  -5 1848.52   45.00
   4   4  -5 1875.81   46.20
   4   4  -5 1753.62   43.50
   4   4  -5 1804.82   43.70
  -4  -4   5 1848.42   46.30
  -4  -4   5 1856.31   36.20
  -4  -4   5 1782.32   37.20
  -4  -4   5 1834.52   43.10
  -4  -4   5 1813.02   52.09
   3   4  -5  926.21   28.00
   3   4  -5  941.71   26.80
   3   4  -5  905.71   26.20
   3   4  -5  860.31   26.60
  -3  -4   5  864.61   26.20
  -3  -4   5  929.51   22.80
  -3  -4   5  911.51   22.80
  -3  -4   5  950.20   28.90
  -3  -4   5  904.71   29.10
   2   4  -5 2115.19   47.00
   2   4  -5 2122.99   45.80
   2   4  -5 2023.10   47.00
   2   4  -5 2067.59   45.30
   2   4  -5 2144.19   37.10
  -2  -4   5 2074.19   43.90
  -2  -4   5 2066.19   46.00
  -2  -4   5 2096.79   40.50
  -2  -4   5 2131.59   49.10
  -2  -4   5 2003.90   52.49
   1   4  -5  138.59    6.90
   1   4  -5  142.19    6.40
   1   4  -5  149.79    9.10
   1   4  -5  137.89    5.70
   1   4  -5  156.98    8.90
   1   4  -5  135.49    8.20
  -1  -4   5  141.59    8.50
  -1  -4   5  148.39    9.70
  -1  -4   5  142.09    8.60
  -1  -4   5  140.59    9.00
  -1  -4   5  142.39    8.00
   0   4  -5  495.65   15.20
   0   4  -5  511.75   14.90
   0   4  -5  499.45   14.50
   0   4  -5  515.75   17.20
   0  -4   5  505.75   16.70
   0  -4   5  487.15   18.00
   0  -4   5  516.55   15.20
   0  -4   5  529.25   18.50
   0  -4   5  502.65   18.30
  -1   4  -5  457.75   15.30
  -1   4  -5  441.96   15.20
  -1   4  -5  438.26   15.40
  -1   4  -5  457.75   14.60
   1  -4   5  463.05   16.80
   1  -4   5  451.65   14.90
   1  -4   5  454.15   17.20
  -2   4  -5 4665.43   89.09
  -2   4  -5 4787.52   85.89
  -2   4  -5 4697.83   89.09
  -2   4  -5 4817.72   80.09
  -2   4  -5 4782.32   86.59
   2  -4   5 4741.03   89.49
   2  -4   5 4820.92   88.39
   2  -4   5 4689.43   90.89
   2  -4   5 4611.94   87.29
   2  -4   5 4560.54   91.59
  -3   4  -5 1941.91   38.80
  -3   4  -5 1878.01   45.80
  -3   4  -5 1931.61   46.20
  -3   4  -5 2022.50   43.70
  -3   4  -5 1944.61   40.30
   3  -4   5 1937.31   41.80
   3  -4   5 1874.91   44.20
   3  -4   5 1976.20   54.49
   3  -4   5 1942.71   46.00
   3  -4   5 1974.40   47.90
  -4   4  -5  234.28   12.30
  -4   4  -5  214.08    9.50
  -4   4  -5  222.08   12.30
  -4   4  -5  208.28   12.50
  -4   4  -5  221.38   10.10
   4  -4   5  223.78    9.80
   4  -4   5  231.68   13.50
   4  -4   5  244.88   14.10
   4  -4   5  220.78   13.10
   4  -4   5  201.78   12.10
  -5   4  -5  414.36   13.60
  -5   4  -5  405.36   17.40
  -5   4  -5  379.96   15.50
  -5   4  -5  404.66   17.60
   5  -4   5  420.36   23.50
   5  -4   5  403.06   12.80
   5  -4   5  414.96   19.30
   5  -4   5  393.06   20.20
   5  -4   5  376.56   18.10
   5  -4   5  396.36   19.20
  -6   4  -5  481.25   15.30
  -6   4  -5  524.05   21.30
  -6   4  -5  487.45   19.30
  -6   4  -5  500.15   20.50
   6  -4   5  493.65   22.30
   6  -4   5  500.95   12.70
   6  -4   5  502.85   12.60
   6  -4   5  525.05   24.50
   6  -4   5  504.25   22.80
  -7   4  -5    5.80    2.70
  -7   4  -5   10.60    3.40
  -7   4  -5    4.10    1.80
   7  -4   5    4.80    3.20
   7  -4   5    6.40    2.30
   7  -4   5    5.20    2.70
  -8   4  -5  503.95   21.80
  -8   4  -5  531.15   24.00
   8  -4   5  497.05   26.40
   8  -4   5  481.25   23.70
   8  -4   5  459.95   13.40
  -9   4  -5   11.20    4.40
  -9   4  -5    4.70    2.70
   9  -4   5    9.60    4.10
   9  -4   5   11.50    4.70
 -10   4  -5    1.60    2.20
 -10   4  -5    8.30    3.60
 -10   4  -5   12.00    4.80
  10  -4   5    5.20    4.40
  10  -4   5    4.00    3.80
 -10  -3   5  112.59    8.00
 -10  -3   5  109.79   10.60
 -10  -3   5   99.69   10.60
 -10  -3   5  111.89   12.20
   9   3  -5   71.29   10.00
   9   3  -5   73.79    9.50
   9   3  -5   59.69    9.20
  -9  -3   5   87.59   10.40
  -9  -3   5   72.99    6.40
  -9  -3   5   74.19    8.80
  -9  -3   5   79.39    9.00
  -9  -3   5   67.49    5.80
   8   3  -5   74.19    9.20
   8   3  -5   62.89    7.90
   8   3  -5   70.59    9.00
  -8  -3   5   85.59    9.40
  -8  -3   5   70.99    5.60
  -8  -3   5   58.99    7.90
  -8  -3   5   73.79    5.30
   7   3  -5  274.27   15.80
   7   3  -5  266.77   14.70
   7   3  -5  291.27   17.00
   7   3  -5  303.97   16.80
  -7  -3   5  270.37   18.80
  -7  -3   5  259.57    9.60
  -7  -3   5  261.97   15.30
  -7  -3   5  281.87   16.20
  -7  -3   5  249.28   14.10
  -7  -3   5  287.37    9.50
   6   3  -5  174.68   11.90
   6   3  -5  195.88   13.00
   6   3  -5  186.08   12.90
   6   3  -5  196.88   11.50
  -6  -3   5  189.18   11.30
  -6  -3   5  206.48    6.50
  -6  -3   5  184.68   11.00
  -6  -3   5  210.98   10.70
  -6  -3   5  201.38   12.90
   5   3  -5  296.87   12.80
   5   3  -5  269.07   14.50
   5   3  -5  274.67   14.50
   5   3  -5  275.37   14.90
   5   3  -5  272.27   13.90
  -5  -3   5  281.97   13.00
  -5  -3   5  254.07   12.90
  -5  -3   5  263.97   11.40
  -5  -3   5  270.67   14.40
  -5  -3   5  281.17   15.20
   4   3  -5 3410.26   69.49
   4   3  -5 3502.65   65.49
   4   3  -5 3529.95   72.39
   4   3  -5 3474.25   71.19
   4   3  -5 3401.36   70.39
  -4  -3   5 3506.55   72.39
  -4  -3   5 3488.75   59.69
  -4  -3   5 3344.17   70.19
  -4  -3   5 3374.96   72.99
  -4  -3   5 3470.15   64.89
  -4  -3   5 3454.65   67.49
   3   3  -5 1554.24   37.50
   3   3  -5 1565.14   37.90
   3   3  -5 1564.24   32.20
   3   3  -5 1582.64   38.80
  -3  -3   5 1554.84   39.20
  -3  -3   5 1518.25   39.80
  -3  -3   5 1594.74   33.30
  -3  -3   5 1540.75   37.50
  -3  -3   5 1585.24   32.00
   2   3  -5 1196.48   30.60
   2   3  -5 1178.68   28.80
   2   3  -5 1201.48   30.90
   2   3  -5 1199.78   23.80
   2   3  -5 1213.08   23.30
   2   3  -5 1222.88   30.20
  -2  -3   5 1176.28   29.90
  -2  -3   5 1205.98   26.70
  -2  -3   5 1199.28   27.50
  -2  -3   5 1214.38   32.10
   1   3  -5  447.26   13.80
   1   3  -5  451.35   15.80
   1   3  -5  442.16   14.60
   1   3  -5  456.25   12.60
   1   3  -5  462.85   15.70
   1   3  -5  477.15   10.30
  -1  -3   5  467.55   15.30
  -1  -3   5  446.96   13.40
  -1  -3   5  467.75   15.30
  -1  -3   5  383.36   21.30
   0   3  -5 1032.80   24.10
   0   3  -5 1004.30   23.90
   0   3  -5 1028.60   22.50
   0   3  -5  977.70   25.00
   0  -3   5 1003.10   24.90
   0  -3   5 1024.10   26.60
   0  -3   5 1006.90   24.10
   0  -3   5 1009.50   27.10
   0  -3   5 1019.10   26.90
  -1   3  -5    1.10    1.10
  -1   3  -5    2.00    1.20
  -1   3  -5    2.40    0.70
  -1   3  -5    1.50    1.10
  -1   3  -5    1.80    0.90
   1  -3   5    0.40    0.90
   1  -3   5    0.50    0.80
   1  -3   5    2.30    1.60
   1  -3   5    2.40    1.40
  -2   3  -5 4438.86   78.19
  -2   3  -5 4382.66   75.89
  -2   3  -5 4355.46   82.69
  -2   3  -5 4267.77   80.39
   2  -3   5 4354.86   84.89
   2  -3   5 4295.07   81.39
   2  -3   5 4439.16   83.49
   2  -3   5 4427.46   80.79
  -3   3  -5 1103.29   24.20
  -3   3  -5 1067.79   29.60
  -3   3  -5 1115.89   25.40
  -3   3  -5 1023.20   30.30
   3  -3   5 1063.49   28.70
   3  -3   5 1070.79   29.10
   3  -3   5 1039.50   30.40
   3  -3   5 1078.49   25.80
  -4   3  -5  159.18   10.60
  -4   3  -5  166.28    7.20
  -4   3  -5  179.18   10.40
  -4   3  -5  167.78    9.90
  -4   3  -5  168.78    9.00
   4  -3   5  188.08   12.30
   4  -3   5  175.98    7.90
   4  -3   5  179.88   11.40
   4  -3   5  162.78   10.10
  -5   3  -5  133.49    9.10
  -5   3  -5  119.69    9.10
  -5   3  -5  127.09    6.20
  -5   3  -5  127.89    8.70
   5  -3   5  125.79    9.80
   5  -3   5  125.69    5.90
   5  -3   5  125.69    9.80
   5  -3   5  140.79   10.70
   5  -3   5  126.79   10.70
  -6   3  -5  544.75   21.50
  -6   3  -5  536.65   14.70
  -6   3  -5  506.55   20.30
  -6   3  -5  528.55   20.10
   6  -3   5  521.25   20.60
   6  -3   5  571.44   24.90
   6  -3   5  543.75   22.60
   6  -3   5  535.25   17.30
  -7   3  -5   27.00    4.60
  -7   3  -5   26.40    5.60
   7  -3   5   31.50    5.80
   7  -3   5   23.30    3.90
   7  -3   5   25.30    6.00
  -8   3  -5  191.48   13.90
  -8   3  -5  199.98   12.70
   8  -3   5  174.28    9.00
   8  -3   5  186.68   13.90
   8  -3   5  173.08   14.90
  -9   3  -5  161.98   13.50
  -9   3  -5  143.29    7.50
  -9   3  -5  155.18   11.40
   9  -3   5  158.48   15.90
   9  -3   5  165.48   15.50
 -10   3  -5   12.80    4.30
 -10   3  -5    4.30    2.80
  10  -3   5    8.10    3.70
  10  -3   5    0.70    3.60
  10   2  -5   27.30    6.50
 -10  -2   5   35.60    6.80
 -10  -2   5   24.60    6.20
 -10  -2   5   19.20    5.00
 -10  -2   5   23.70    4.80
   9   2  -5  348.37   19.60
   9   2  -5  362.46   21.30
  -9  -2   5  376.56   20.90
  -9  -2   5  313.27   14.20
  -9  -2   5  342.07   17.70
  -9  -2   5  382.76   20.70
   8   2  -5    2.10    2.20
   8   2  -5    1.30    2.90
  -8  -2   5   -0.10    1.90
  -8  -2   5    0.10    1.70
  -8  -2   5    0.80    2.00
  -8  -2   5   -0.10    1.30
  -8  -2   5    4.40    2.50
   7   2  -5  149.99   12.00
   7   2  -5  158.48   11.60
   7   2  -5  148.79   11.70
  -7  -2   5  148.19    7.80
  -7  -2   5  161.48   11.40
  -7  -2   5  142.29    7.00
  -7  -2   5  146.79   10.00
  -7  -2   5  136.19   11.50
   6   2  -5  473.95   20.40
   6   2  -5  479.95   20.50
   6   2  -5  508.15   19.60
   6   2  -5  478.05   19.70
  -6  -2   5  472.55   21.00
  -6  -2   5  481.85   20.50
  -6  -2   5  476.05   12.40
  -6  -2   5  446.06   17.10
  -6  -2   5  485.55   20.10
  -6  -2   5  489.45   13.00
   5   2  -5  144.49   10.20
   5   2  -5  166.38   10.80
   5   2  -5  140.79    9.50
   5   2  -5  137.89    9.50
  -5  -2   5  143.99    8.20
  -5  -2   5  145.89    8.90
  -5  -2   5  150.98   10.50
  -5  -2   5  152.48   10.40
  -5  -2   5  147.09    9.50
   4   2  -5  528.85   18.10
   4   2  -5  526.75   19.10
   4   2  -5  536.95   17.20
  -4  -2   5  532.15   19.70
  -4  -2   5  501.75   16.80
  -4  -2   5  488.85   15.70
  -4  -2   5  494.75   17.90
  -4  -2   5  512.85   16.40
  -4  -2   5  532.85   20.10
   3   2  -5 2792.42   55.59
   3   2  -5 2745.33   53.09
   3   2  -5 2678.53   57.29
   3   2  -5 2889.41   57.69
   3   2  -5 2742.63   47.90
   3   2  -5 2822.52   58.49
  -3  -2   5 2765.62   57.09
  -3  -2   5 2819.52   53.09
  -3  -2   5 2726.03   53.69
  -3  -2   5 2779.22   49.99
  -3  -2   5 2836.42   59.09
   2   2  -5 2419.36   50.79
   2   2  -5 2499.05   48.20
   2   2  -5 2396.76   50.19
   2   2  -5 2469.85   50.59
   2   2  -5 2392.06   45.40
  -2  -2   5 2452.75   46.50
  -2  -2   5 2411.16   47.40
  -2  -2   5 2446.56   52.09
  -2  -2   5 2474.85   49.99
   1   2  -5  558.64   15.50
   1   2  -5  556.64   16.30
   1   2  -5  580.04   14.80
   1   2  -5  574.34   13.30
   1   2  -5  577.24   17.60
   1   2  -5  566.44   17.30
  -1  -2   5  574.84   16.50
  -1  -2   5  555.74   18.30
  -1  -2   5  570.04   16.80
  -1  -2   5  567.64   15.90
   0   2  -5  683.93   18.20
   0   2  -5  657.03   19.10
   0   2  -5  663.53   18.10
   0  -2   5  664.33   17.60
   0  -2   5  672.63   18.00
   0  -2   5  675.73   19.30
  -1   2  -5  356.86   13.70
  -1   2  -5  367.46   12.60
  -1   2  -5  350.56   11.20
  -1   2  -5  354.26   12.80
   1  -2   5  360.66   13.80
   1  -2   5  356.66   13.30
   1  -2   5  357.26   11.10
   1  -2   5  352.36   13.00
   1  -2   5  337.57   12.30
  -2   2  -5  123.89    7.30
  -2   2  -5  136.39    8.20
  -2   2  -5  125.89    5.80
  -2   2  -5  132.89    6.20
  -2   2  -5  127.39    8.30
   2  -2   5  125.09    8.30
   2  -2   5  132.79    7.80
   2  -2   5  113.29    7.20
   2  -2   5  125.19    7.00
  -3   2  -5  621.24   14.90
  -3   2  -5  651.63   20.00
  -3   2  -5  622.64   20.70
  -3   2  -5  643.74   21.40
  -3   2  -5  632.54   18.00
   3  -2   5  653.33   22.00
   3  -2   5  663.63   17.60
   3  -2   5  645.24   19.70
   3  -2   5  642.04   20.40
   3  -2   5  660.93   25.10
  -4   2  -5 1517.05   47.80
  -4   2  -5 1800.52   33.10
  -4   2  -5 1805.62   41.40
  -4   2  -5 1869.11   45.60
  -4   2  -5 1802.82   39.80
  -4   2  -5 1805.72   40.10
   4  -2   5 1775.92   43.30
   4  -2   5 1782.02   40.60
   4  -2   5 1795.22   44.50
   4  -2   5 1731.53   42.30
   4  -2   5 1823.92   35.50
  -5   2  -5   95.59    7.70
  -5   2  -5   91.19    7.90
  -5   2  -5  104.09    8.80
  -5   2  -5  101.19    8.50
  -5   2  -5   97.19    4.30
  -5   2  -5  101.99    7.50
   5  -2   5  102.09    7.70
   5  -2   5  105.19    8.90
   5  -2   5  100.59    9.20
   5  -2   5   95.49    8.30
   5  -2   5   97.49    4.50
  -6   2  -5   62.19    6.90
  -6   2  -5   73.59    3.80
  -6   2  -5   67.39    7.30
  -6   2  -5   72.89    6.60
   6  -2   5   65.29    8.10
   6  -2   5   64.69    5.90
   6  -2   5   64.49    6.50
   6  -2   5   58.89    7.10
  -7   2  -5  246.38    8.20
  -7   2  -5  267.47   13.30
  -7   2  -5  266.47   15.10
   7  -2   5  236.48   13.20
   7  -2   5  259.97   12.20
   7  -2   5  252.87   15.00
  -8   2  -5    1.90    2.00
  -8   2  -5    1.50    1.10
  -8   2  -5    3.70    2.30
   8  -2   5    5.20    2.90
   8  -2   5    4.00    2.30
   8  -2   5    1.80    2.70
  -9   2  -5   47.70    6.30
  -9   2  -5   34.60    6.70
  -9   2  -5   44.10    3.50
   9  -2   5   56.39    7.70
   9  -2   5   36.70    6.40
   9  -2   5   39.50    7.90
 -10   2  -5  273.47   15.20
 -10   2  -5  262.97   18.30
  10  -2   5  274.77   17.40
  10  -2   5  298.77   21.20
  10   1  -5  100.99   12.20
 -10  -1   5  115.29   11.60
 -10  -1   5   85.79    8.20
 -10  -1   5  106.69    9.70
 -10  -1   5   86.99   11.00
   9   1  -5  110.59   11.50
  -9  -1   5  114.59    8.40
  -9  -1   5   91.59    8.00
  -9  -1   5  101.69    9.60
  -9  -1   5  121.29   12.00
   8   1  -5    4.60    1.70
   8   1  -5    5.20    2.60
   8   1  -5    0.50    2.40
  -8  -1   5    3.40    2.40
  -8  -1   5    4.40    2.20
  -8  -1   5    1.40    1.80
  -8  -1   5    4.70    2.30
  -8  -1   5    9.20    3.60
   7   1  -5   23.40    5.30
   7   1  -5   24.50    5.40
   7   1  -5   18.20    4.60
   7   1  -5   28.80    3.40
  -7  -1   5   18.00    3.90
  -7  -1   5    8.20    3.00
  -7  -1   5   17.80    3.10
  -7  -1   5    9.50    3.60
  -7  -1   5   19.90    4.50
   6   1  -5   77.09    7.80
   6   1  -5   83.99    8.20
   6   1  -5   80.29    8.10
   6   1  -5   66.09    4.60
  -6  -1   5   77.09    7.70
  -6  -1   5   70.49    6.00
  -6  -1   5   67.49    4.70
  -6  -1   5   85.79    8.10
  -6  -1   5   76.39    8.20
   5   1  -5 1537.25   38.30
   5   1  -5 1475.15   37.40
   5   1  -5 1549.05   30.90
   5   1  -5 1531.85   39.50
   5   1  -5 1508.15   38.80
  -5  -1   5 1614.84   29.80
  -5  -1   5 1485.75   38.50
  -5  -1   5 1560.74   37.70
  -5  -1   5 1556.64   39.00
  -5  -1   5 1534.45   39.40
  -5  -1   5 1463.05   37.40
   4   1  -5  195.28    7.30
   4   1  -5  189.78   10.60
   4   1  -5  207.18   10.30
   4   1  -5  183.38    9.90
  -4  -1   5  197.28    8.00
  -4  -1   5  197.88   10.70
  -4  -1   5  202.68   10.40
  -4  -1   5  203.08    9.90
  -4  -1   5  190.38    9.20
  -4  -1   5  197.38   11.10
   3   1  -5  529.65   16.20
   3   1  -5  538.35   21.00
   3   1  -5  520.15   17.90
   3   1  -5  533.35   16.40
   3   1  -5  534.15   17.40
   3   1  -5  533.05   13.40
  -3  -1   5  532.45   12.70
  -3  -1   5  516.95   18.60
  -3  -1   5  518.45   13.40
  -3  -1   5  492.75   17.10
  -3  -1   5  517.75   16.20
  -3  -1   5  519.45   17.00
  -3  -1   5  524.85   15.40
   2   1  -5  104.89    5.30
   2   1  -5  104.99    5.90
   2   1  -5  108.19    7.00
   2   1  -5  104.99    5.90
   2   1  -5   92.49    6.40
   2   1  -5  101.19    7.10
  -2  -1   5  105.49    6.80
  -2  -1   5   93.59    5.10
  -2  -1   5  105.69    6.30
  -2  -1   5  104.59    7.40
   1   1  -5  747.93   20.30
   1   1  -5  738.63   21.00
   1   1  -5  729.83   19.70
   1   1  -5  760.52   17.70
   1   1  -5  761.72   19.10
   1   1  -5  753.12   20.10
  -1  -1   5  731.43   19.20
  -1  -1   5  713.23   19.10
  -1  -1   5  725.63   21.30
  -1  -1   5  762.42   19.10
   0   1  -5 1453.85   30.50
   0   1  -5 1442.56   27.80
   0   1  -5 1444.96   32.00
   0   1  -5 1384.76   31.20
   0   1  -5 1405.26   32.30
   0  -1   5 1437.96   33.00
   0  -1   5 1410.56   31.00
   0  -1   5 1468.65   29.90
   0  -1   5 1443.86   31.90
  -1   1  -5 3119.09   60.39
  -1   1  -5 3173.68   60.19
  -1   1  -5 3216.28   60.09
  -1   1  -5 3115.89   61.29
  -1   1  -5 3185.08   56.79
   1  -1   5 3141.39   59.89
   1  -1   5 3119.99   60.19
   1  -1   5 3207.28   61.69
   1  -1   5 3184.58   56.09
  -2   1  -5  424.96   14.30
  -2   1  -5  399.06   10.40
  -2   1  -5  387.76   14.90
  -2   1  -5  407.46   14.60
   2  -1   5  418.06   13.80
   2  -1   5  413.56   14.30
   2  -1   5  408.66   13.20
   2  -1   5  425.06   15.00
  -3   1  -5   56.79    5.50
  -3   1  -5   53.19    4.70
  -3   1  -5   55.59    5.30
  -3   1  -5   56.19    2.70
  -3   1  -5   55.69    5.60
  -3   1  -5   61.09    4.40
   3  -1   5   59.09    4.30
   3  -1   5   58.59    5.70
   3  -1   5   60.79    5.80
   3  -1   5   50.39    5.10
   3  -1   5   58.19    4.80
  -4   1  -5  229.38   12.20
  -4   1  -5  211.98   11.80
  -4   1  -5  235.58   11.30
  -4   1  -5  222.08   11.30
   4  -1   5  241.68   12.90
   4  -1   5  218.18   11.60
   4  -1   5  239.08   10.50
   4  -1   5  249.58    8.50
   4  -1   5  241.68   12.40
  -5   1  -5 2326.37   47.70
  -5   1  -5 2326.27   51.69
  -5   1  -5 2244.28   53.09
  -5   1  -5 2262.27   52.59
  -5   1  -5 2312.97   51.79
   5  -1   5 2299.07   52.79
   5  -1   5 2359.66   55.09
   5  -1   5 2280.27   40.90
   5  -1   5 2291.87   48.40
  -6   1  -5   75.99    6.50
  -6   1  -5   65.79    7.10
  -6   1  -5   67.39    7.30
  -6   1  -5   82.79    7.80
   6  -1   5   75.49    7.80
   6  -1   5   80.69    6.90
   6  -1   5   75.49    8.60
   6  -1   5   71.49    6.30
  -7   1  -5  230.58   13.90
  -7   1  -5  227.08   11.30
   7  -1   5  199.58   11.20
   7  -1   5  215.58   15.10
   7  -1   5  222.68   13.60
   7  -1   5  225.68   12.00
  -8   1  -5  304.17   13.90
  -8   1  -5  310.77   17.30
   8  -1   5  311.97   19.30
   8  -1   5  290.97   14.40
   8  -1   5  289.07   14.10
   8  -1   5  314.47   16.90
  -9   1  -5    0.70    1.70
  -9   1  -5    6.90    3.10
   9  -1   5    4.30    2.70
   9  -1   5    2.30    2.60
   9  -1   5    6.40    2.90
 -10   1  -5   -1.00    1.60
 -10   1  -5    1.30    2.60
  10  -1   5   -2.30    2.80
  10  -1   5   -2.70    2.20
  10  -1   5    3.20    4.00
  10   0  -5   13.80    5.30
 -10   0   5   14.30    3.60
 -10   0   5   24.90    6.50
 -10   0   5   40.30    7.90
   9   0  -5   68.49    9.30
   9   0  -5   78.59    7.10
  -9   0   5   72.49    7.70
  -9   0   5   69.79    7.40
  -9   0   5   80.49   10.00
   8   0  -5   24.70    7.20
   8   0  -5   17.20    4.70
   8   0  -5   30.10    4.40
   8   0  -5   22.50    5.30
  -8   0   5   26.80    4.60
  -8   0   5   28.90    5.20
  -8   0   5   18.50    5.40
  -8   0   5   19.80    4.60
   7   0  -5  219.08   14.10
   7   0  -5  196.78    9.90
   7   0  -5  188.58   12.70
   7   0  -5  173.78   12.80
  -7   0   5  187.48   11.70
  -7   0   5  197.18   12.10
  -7   0   5  203.08   13.90
  -7   0   5  198.58   10.00
   6   0  -5   56.79    5.20
   6   0  -5   74.99    7.70
   6   0  -5   69.89    7.60
   6   0  -5   67.39    7.30
  -6   0   5   55.99    6.00
  -6   0   5   60.69    5.00
  -6   0   5   73.49    8.00
  -6   0   5   60.19    6.60
  -6   0   5   64.69    6.80
   5   0  -5  294.97   14.30
   5   0  -5  289.07   13.40
   5   0  -5  291.97   13.90
   5   0  -5  303.47   14.70
   5   0  -5  308.17   11.30
  -5   0   5  277.27   13.80
  -5   0   5  284.57   13.50
  -5   0   5  276.37   10.00
  -5   0   5  287.67   14.90
  -5   0   5  275.17    9.80
  -5   0   5  289.17   13.80
  -5   0   5  277.57   12.20
  -5   0   5  290.77   13.40
   4   0  -5  104.59    7.70
   4   0  -5  102.09    7.40
   4   0  -5  103.69    6.00
   4   0  -5  104.79    8.00
   4   0  -5   97.69    3.60
   4   0  -5  104.89    7.70
  -4   0   5  101.39    4.70
  -4   0   5   97.49    7.60
  -4   0   5   91.09    6.90
  -4   0   5  110.49    7.90
  -4   0   5  101.49    4.80
  -4   0   5   99.09    6.30
   3   0  -5 2539.85   48.40
   3   0  -5 2561.04   51.99
   3   0  -5 2591.84   46.00
   3   0  -5 2662.53   50.29
   3   0  -5 2576.84   51.79
   3   0  -5 2484.75   52.59
   3   0  -5 2468.95   52.69
  -3   0   5 2583.84   48.80
  -3   0   5 2588.74   53.89
  -3   0   5 2566.94   44.30
  -3   0   5 2497.55   52.69
  -3   0   5 2595.04   44.00
  -3   0   5 2509.85   51.79
  -3   0   5 2595.44   51.89
   2   0  -5   76.79    4.70
   2   0  -5   78.59    3.50
   2   0  -5   80.19    5.60
   2   0  -5   89.99    5.80
   2   0  -5   68.99    5.50
   2   0  -5   78.29    4.60
   2   0  -5   69.89    5.70
  -2   0   5   86.29    5.70
  -2   0   5   78.99    4.60
  -2   0   5   69.39    5.90
  -2   0   5   79.39    3.20
  -2   0   5   82.39    4.40
  -2   0   5   74.39    5.60
   1   0  -5 2691.63   47.90
   1   0  -5 2790.72   53.39
   1   0  -5 2803.82   54.79
   1   0  -5 2695.03   48.60
   1   0  -5 2776.92   51.79
  -1   0   5 2776.92   55.19
  -1   0   5 2780.42   53.09
  -1   0   5 2699.83   52.29
  -1   0   5 2751.32   47.20
  -1   0   5 2734.03   51.79
   0   0  -5  966.50   21.00
   0   0  -5 1002.80   24.10
   0   0  -5 1021.90   24.80
   0   0  -5  995.90   19.30
   0   0  -5  997.70   24.30
   0   0   5 1023.80   22.20
   0   0   5  983.30   21.10
   0   0   5  987.90   23.90
   0   0   5  954.80   24.80
   0   0   5 1001.90   24.20
  -1   0  -5  600.74   16.20
  -1   0  -5  572.14   17.20
  -1   0  -5  628.94   18.20
  -1   0  -5  610.04   17.20
   1   0   5  614.74   14.00
   1   0   5  608.64   16.40
   1   0   5  582.64   17.80
   1   0   5  602.74   17.30
   1   0   5  599.74   17.30
  -2   0  -5 2518.35   47.90
  -2   0  -5 2439.06   50.89
  -2   0  -5 2395.76   49.50
   2   0   5 2470.85   49.90
   2   0   5 2425.26   47.30
   2   0   5 2525.15   42.30
   2   0   5 2504.25   48.30
   2   0   5 2486.65   51.29
   2   0   5 2538.15   50.19
  -3   0  -5 2166.08   45.70
  -3   0  -5 2151.58   47.10
  -3   0  -5 2069.69   46.70
  -3   0  -5 2143.39   41.80
   3   0   5 2151.68   47.00
   3   0   5 2196.78   43.10
   3   0   5 2183.38   46.50
   3   0   5 2236.18   42.40
   3   0   5 2121.19   47.00
  -4   0  -5  290.37   13.50
  -4   0  -5  283.87    9.20
  -4   0  -5  266.67   13.00
  -4   0  -5  290.67   12.80
  -4   0  -5  268.47   12.50
   4   0   5  278.37   10.50
   4   0   5  241.38   12.20
   4   0   5  277.37    9.20
  -5   0  -5 2164.48   48.50
  -5   0  -5 2079.59   49.00
  -5   0  -5 2140.09   39.00
  -5   0  -5 2146.59   50.49
   5   0   5 2151.48   39.20
   5   0   5 2149.69   44.00
   5   0   5 2163.38   55.69
   5   0   5 2205.48   51.89
   5   0   5 2103.89   47.60
   5   0   5 2170.88   49.70
  -6   0  -5  139.69    7.70
  -6   0  -5  125.49    8.30
  -6   0  -5  108.29    9.30
  -6   0  -5  116.19    9.20
   6   0   5  139.09   10.00
   6   0   5  127.69    7.60
   6   0   5  142.59   11.20
   6   0   5  120.39    9.80
   6   0   5  130.99    9.20
  -7   0  -5   50.19    6.10
  -7   0  -5   56.09    7.00
  -7   0  -5   50.09    5.10
   7   0   5   45.50    6.90
   7   0   5   44.50    5.00
   7   0   5   61.99    7.10
   7   0   5   43.10    5.60
  -8   0  -5   48.40    7.10
  -8   0  -5   47.50    5.30
   8   0   5   48.30    6.90
   8   0   5   50.69    6.50
   8   0   5   51.79    5.90
   8   0   5   56.69    8.40
  -9   0  -5  231.88   11.70
  -9   0  -5  227.68   15.40
   9   0   5  234.38   17.20
   9   0   5  218.58   14.10
   9   0   5  215.98   13.00
 -10   0  -5  116.29    8.80
 -10   0  -5  132.99   12.50
  10   0   5  112.39   13.40
  10   0   5  109.59    9.70
  10   0   5   85.29    9.60
  10   0   5  113.79   10.80
  10  -1  -5  174.38   12.00
  10  -1  -5  193.28   16.70
 -10   1   5  158.78   14.80
 -10   1   5  174.88   11.70
   9  -1  -5   92.29    8.40
   9  -1  -5   82.69   10.50
  -9   1   5   87.09   10.30
  -9   1   5   93.79    8.80
  -9   1   5   96.19    8.60
   8  -1  -5    2.90    3.30
   8  -1  -5    9.80    3.30
   8  -1  -5    3.10    2.40
  -8   1   5    6.90    3.40
  -8   1   5    6.20    2.20
  -8   1   5    2.40    2.40
   7  -1  -5  477.25   20.60
   7  -1  -5  447.76   18.30
   7  -1  -5  487.65   21.80
   7  -1  -5  473.35   21.90
   7  -1  -5  482.15   15.70
   7  -1  -5  449.06   17.40
  -7   1   5  487.15   22.40
  -7   1   5  461.65   18.10
  -7   1   5  465.65   17.40
  -7   1   5  489.05   19.40
   6  -1  -5  300.27   10.70
   6  -1  -5  294.27   14.70
   6  -1  -5  268.87   14.90
   6  -1  -5  278.77   13.60
   6  -1  -5  317.27   16.40
   6  -1  -5  301.37   13.00
  -6   1   5  298.27   13.60
  -6   1   5  304.37   14.40
  -6   1   5  308.77   12.60
  -6   1   5  312.87   14.30
  -6   1   5  286.07   13.50
  -6   1   5  277.57   15.80
   5  -1  -5   92.09    8.10
   5  -1  -5  101.29    7.60
   5  -1  -5  104.79    8.70
   5  -1  -5  101.79    7.00
   5  -1  -5   85.89    7.30
  -5   1   5   91.99    6.10
  -5   1   5  104.49    8.10
  -5   1   5  100.19    7.80
  -5   1   5   88.69    7.80
  -5   1   5   98.99    7.10
  -5   1   5   93.69    8.40
  -5   1   5   93.39    7.20
   4  -1  -5   41.50    4.80
   4  -1  -5   37.90    4.60
   4  -1  -5   41.70    5.20
   4  -1  -5   51.29    6.90
   4  -1  -5   49.30    4.70
   4  -1  -5   44.60    3.10
  -4   1   5   45.70    3.80
  -4   1   5   42.70    5.10
  -4   1   5   42.30    6.20
  -4   1   5   47.80    4.30
  -4   1   5   44.70    4.90
  -4   1   5   52.19    6.00
   3  -1  -5 2596.74   53.69
   3  -1  -5 2664.33   54.19
   3  -1  -5 2560.44   51.39
   3  -1  -5 2580.44   50.79
   3  -1  -5 2559.54   47.50
   3  -1  -5 2595.84   53.39
  -3   1   5 2655.93   55.59
  -3   1   5 2590.64   54.29
  -3   1   5 2586.94   53.59
  -3   1   5 2578.04   47.60
  -3   1   5 2520.35   51.69
  -3   1   5 2601.94   48.90
  -3   1   5 2558.44   52.79
   2  -1  -5  417.06   13.00
   2  -1  -5  412.96   11.80
   2  -1  -5  399.86   12.10
   2  -1  -5  403.66   13.90
  -2   1   5  403.16   13.40
  -2   1   5  407.86   14.10
  -2   1   5  415.26   11.10
  -2   1   5  410.06   12.30
  -2   1   5  400.46   10.90
  -2   1   5  391.76   14.80
  -2   1   5  402.06   14.00
   1  -1  -5   19.30    2.80
   1  -1  -5   22.00    3.30
   1  -1  -5   23.10    3.30
   1  -1  -5   24.40    2.60
  -1   1   5   25.70    3.00
  -1   1   5   21.70    2.90
  -1   1   5   18.20    3.10
  -1   1   5   35.10    3.70
  -1   1   5   22.80    2.40
  -1   1   5   24.00    1.80
   0  -1  -5 1430.46   31.90
   0  -1  -5 1474.75   30.10
   0  -1  -5 1388.66   32.20
   0  -1  -5 1474.85   32.80
   0  -1  -5 1482.95   31.10
   0   1   5 1429.66   32.90
   0   1   5 1462.65   30.20
   0   1   5 1457.25   29.80
   0   1   5 1435.36   27.60
   0   1   5 1462.65   32.10
   0   1   5 1475.45   32.20
  -1  -1  -5  118.09    6.90
  -1  -1  -5  115.89    7.00
  -1  -1  -5  113.69    6.40
  -1  -1  -5  109.19    6.50
   1   1   5  115.99    4.90
   1   1   5  122.79    7.00
   1   1   5  114.99    5.90
   1   1   5  122.79    7.30
   1   1   5  110.49    6.60
  -2  -1  -5    3.20    1.30
  -2  -1  -5    2.90    1.50
  -2  -1  -5    1.90    1.10
  -2  -1  -5    4.10    1.70
   2   1   5    4.60    1.60
   2   1   5    4.10    0.80
   2   1   5    2.60    1.30
   2   1   5   12.60    2.50
   2   1   5    3.70    1.40
  -3  -1  -5 1697.43   32.30
  -3  -1  -5 1689.13   38.90
  -3  -1  -5 1675.43   38.50
  -3  -1  -5 1713.23   34.70
  -3  -1  -5 1638.04   38.30
  -3  -1  -5 1593.54   37.00
   3   1   5 1647.24   34.60
   3   1   5 1701.43   33.00
   3   1   5 1726.53   38.10
   3   1   5 1628.84   38.50
   3   1   5 1629.64   38.20
  -4  -1  -5   -0.10    1.10
  -4  -1  -5    3.40    1.30
  -4  -1  -5    2.50    1.60
  -4  -1  -5    1.20    1.50
  -4  -1  -5    2.20    1.60
  -4  -1  -5    2.90    1.20
  -4  -1  -5   -0.10    1.20
  -4  -1  -5    1.10    1.30
   4   1   5    1.50    1.20
   4   1   5    3.00    1.10
   4   1   5    3.90    2.00
   4   1   5    3.80    2.90
   4   1   5    6.20    2.20
  -5  -1  -5    2.90    1.60
  -5  -1  -5    2.80    1.20
  -5  -1  -5    2.30    3.00
  -5  -1  -5    3.90    2.30
  -5  -1  -5    4.10    2.30
  -5  -1  -5    3.70    2.10
   5   1   5    3.50    1.80
   5   1   5    3.50    2.10
   5   1   5    7.20    1.80
   5   1   5    4.80    2.20
  -6  -1  -5   48.00    6.00
  -6  -1  -5   39.40    6.10
  -6  -1  -5   34.40    5.30
  -6  -1  -5   40.60    6.20
  -6  -1  -5   32.70    4.40
  -6  -1  -5   49.90    6.50
  -6  -1  -5   37.20    2.60
   6   1   5   41.30    6.30
   6   1   5   43.60    4.00
   6   1   5   44.50    5.70
   6   1   5   36.90    5.60
   6   1   5   35.80    5.40
  -7  -1  -5  152.88    7.50
  -7  -1  -5  156.68   10.00
  -7  -1  -5  170.78   11.40
   7   1   5  164.68   11.30
   7   1   5  156.08    8.00
   7   1   5  167.88   11.30
   7   1   5  168.98   12.90
  -8  -1  -5   19.10    4.60
  -8  -1  -5   28.90    6.30
  -8  -1  -5   17.60    3.20
   8   1   5    9.30    3.30
   8   1   5   27.30    5.40
   8   1   5   18.80    3.60
   8   1   5   13.30    3.90
  -9  -1  -5  154.28   13.90
  -9  -1  -5  156.68    8.50
  -9  -1  -5  171.28   13.10
   9   1   5  128.59   11.00
   9   1   5  152.08   13.90
   9   1   5  151.58   11.40
 -10  -1  -5    8.90    2.80
 -10  -1  -5    0.30    3.00
 -10  -1  -5    6.80    3.60
  10   1   5    8.70    4.80
  10   1   5    5.90    2.90
  10   1   5    6.60    3.70
  10  -2  -5   90.59   12.00
  10  -2  -5   84.09    9.50
  10  -2  -5   92.99    8.60
 -10   2   5   96.39   12.00
 -10   2   5  116.69    9.40
   9  -2  -5   85.49    8.50
   9  -2  -5   67.39    7.10
   9  -2  -5   74.09   10.10
  -9   2   5   82.59    8.00
  -9   2   5   90.79   10.90
  -9   2   5   67.39    6.90
   8  -2  -5  310.17   20.80
   8  -2  -5  384.76   17.50
   8  -2  -5  370.76   21.60
   8  -2  -5  353.46   16.50
  -8   2   5  375.66   15.20
  -8   2   5  351.16   16.80
  -8   2   5  378.86   17.00
  -8   2   5  384.46   21.70
   7  -2  -5    5.10    3.00
   7  -2  -5    3.90    1.80
   7  -2  -5    4.40    2.40
  -7   2   5    4.40    2.90
  -7   2   5    4.10    2.30
  -7   2   5    8.20    2.70
  -7   2   5    4.30    2.00
   6  -2  -5  923.81   27.20
   6  -2  -5  917.21   29.50
   6  -2  -5  910.81   28.10
   6  -2  -5  934.51   31.30
   6  -2  -5  865.81   27.40
   6  -2  -5  894.71   19.20
   6  -2  -5  917.31   21.90
  -6   2   5  933.31   27.00
  -6   2   5  889.51   25.80
  -6   2   5  900.71   26.60
  -6   2   5  903.71   25.30
  -6   2   5  903.61   30.80
  -6   2   5  910.81   27.60
   5  -2  -5   86.49    7.80
   5  -2  -5   79.39    6.80
   5  -2  -5  105.79    9.00
   5  -2  -5   80.29    4.40
   5  -2  -5   93.09    4.90
   5  -2  -5   73.79    6.70
   5  -2  -5   92.09    7.30
  -5   2   5   84.19    7.40
  -5   2   5   81.89    6.30
  -5   2   5   80.59    6.50
  -5   2   5   92.19    7.60
  -5   2   5   81.69    6.50
  -5   2   5   85.89    8.10
   4  -2  -5  342.17   15.60
   4  -2  -5  335.67   14.60
   4  -2  -5  396.86   11.50
   4  -2  -5  355.26   13.60
   4  -2  -5  365.06   14.30
   4  -2  -5  318.17   14.00
  -4   2   5  380.26   16.60
  -4   2   5  368.06   14.30
  -4   2   5  359.86   12.90
  -4   2   5  352.86   12.80
  -4   2   5  361.66   15.20
  -4   2   5  363.06   13.00
   3  -2  -5   35.10    4.30
   3  -2  -5   39.70    4.40
   3  -2  -5   41.20    5.10
   3  -2  -5   42.10    4.20
   3  -2  -5   33.40    3.90
   3  -2  -5   40.00    4.00
   3  -2  -5   36.60    4.40
  -3   2   5   31.70    3.70
  -3   2   5   32.20    4.50
  -3   2   5   35.70    4.20
  -3   2   5   38.40    3.50
   2  -2  -5 2218.28   46.20
   2  -2  -5 2257.07   47.70
   2  -2  -5 2287.57   43.30
   2  -2  -5 2261.77   45.60
   2  -2  -5 2241.48   44.80
   2  -2  -5 2235.28   44.20
  -2   2   5 2181.08   46.40
  -2   2   5 2170.48   47.80
  -2   2   5 2316.77   41.20
  -2   2   5 2231.08   44.60
  -2   2   5 2238.18   43.60
  -2   2   5 2255.07   47.90
   1  -2  -5  319.57    9.70
   1  -2  -5  310.17   11.00
   1  -2  -5  332.37   11.50
   1  -2  -5  324.47   11.60
  -1   2   5  332.17   12.60
  -1   2   5  344.57   12.10
  -1   2   5  314.07   10.80
  -1   2   5  314.47    7.50
  -1   2   5  319.17   12.00
   0  -2  -5 1840.12   38.00
   0  -2  -5 1798.82   36.30
   0  -2  -5 1839.22   39.60
   0  -2  -5 1811.52   39.30
   0  -2  -5 1836.52   38.80
   0  -2  -5 1843.02   34.20
   0   2   5 1820.62   38.50
   0   2   5 1761.82   39.70
   0   2   5 1820.82   40.70
   0   2   5 1881.31   39.30
  -1  -2  -5    1.60    1.00
  -1  -2  -5    1.10    0.70
  -1  -2  -5    3.90    1.30
  -1  -2  -5    1.90    1.10
  -1  -2  -5    2.40    1.30
   1   2   5    2.90    1.40
   1   2   5    3.90    1.30
   1   2   5    1.90    1.10
   1   2   5    2.20    1.20
   1   2   5    1.10    0.70
  -2  -2  -5  219.88    9.50
  -2  -2  -5  209.68    9.60
  -2  -2  -5  219.78    5.40
  -2  -2  -5  224.58   10.60
  -2  -2  -5  202.48    9.90
  -2  -2  -5  215.78    9.90
   2   2   5  212.58    9.60
   2   2   5  220.18    9.70
   2   2   5  235.48   11.00
   2   2   5  215.48    9.80
  -3  -2  -5  186.78   10.30
  -3  -2  -5  206.48    8.90
  -3  -2  -5  181.68   10.00
  -3  -2  -5  206.78    6.70
  -3  -2  -5  182.28   10.00
  -3  -2  -5  193.28    9.70
   3   2   5  188.68   10.30
   3   2   5  184.58    9.50
   3   2   5  181.98    8.60
   3   2   5  189.48    6.40
   3   2   5  200.78   10.30
  -4  -2  -5 4173.68   75.09
  -4  -2  -5 4177.98   80.89
  -4  -2  -5 4077.89   81.29
  -4  -2  -5 4237.98   73.39
  -4  -2  -5 4013.40   81.29
  -4  -2  -5 4092.79   78.29
   4   2   5 4227.88   81.79
   4   2   5 4021.60   80.99
   4   2   5 4217.98   69.89
   4   2   5 3992.40   78.99
   4   2   5 3974.50   85.59
   4   2   5 4147.88   75.09
  -5  -2  -5   36.10    4.90
  -5  -2  -5   28.70    4.90
  -5  -2  -5   34.10    3.50
  -5  -2  -5   36.60    5.90
  -5  -2  -5   25.00    3.40
  -5  -2  -5   31.40    5.10
  -5  -2  -5   35.10    5.00
   5   2   5   30.10    5.40
   5   2   5   33.00    5.00
   5   2   5   39.30    5.50
   5   2   5   34.40    4.70
   5   2   5   31.70    2.50
  -6  -2  -5  203.28   13.20
  -6  -2  -5  186.78   12.20
  -6  -2  -5  177.98   11.50
  -6  -2  -5  198.68   11.50
  -6  -2  -5  176.08    7.50
  -6  -2  -5  175.58    9.50
   6   2   5  193.98   13.00
   6   2   5  205.78   12.50
   6   2   5  193.48    6.60
   6   2   5  170.68   11.40
   6   2   5  191.78   11.70
  -7  -2  -5  258.77    8.10
  -7  -2  -5  273.37   16.30
  -7  -2  -5  254.87   12.50
  -7  -2  -5  244.28   13.80
   7   2   5  275.07   14.70
   7   2   5  268.97   16.40
   7   2   5  278.37   15.30
  -8  -2  -5   66.69    7.40
  -8  -2  -5   43.90    7.30
   8   2   5   57.49    7.40
   8   2   5   55.69    7.00
   8   2   5   63.99    9.20
  -9  -2  -5    1.90    2.50
  -9  -2  -5    0.40    2.30
   9   2   5    2.70    3.00
   9   2   5    3.60    3.20
   9   2   5    1.50    2.30
 -10  -2  -5  114.59   13.20
 -10  -2  -5   96.29   10.40
  10   2   5  104.89   11.10
  10   2   5  124.89   14.00
  10   2   5  114.59   10.40
  10  -3  -5   18.10    5.60
  10  -3  -5   44.60    9.10
 -10   3   5   38.00    6.30
 -10   3   5   23.80    6.60
   9  -3  -5  163.98   10.50
   9  -3  -5  160.58   12.50
   9  -3  -5  160.08   14.50
  -9   3   5  142.49    8.20
  -9   3   5  164.08   14.30
  -9   3   5  155.08   10.90
   8  -3  -5  594.84   24.00
   8  -3  -5  625.04   28.80
   8  -3  -5  594.74   14.50
   8  -3  -5  545.45   24.60
   8  -3  -5  608.84   27.70
  -8   3   5  592.74   27.10
  -8   3   5  555.44   17.90
  -8   3   5  579.34   21.90
   7  -3  -5   22.10    5.10
   7  -3  -5   20.10    3.00
   7  -3  -5   29.10    4.90
   7  -3  -5   14.40    3.30
   7  -3  -5   14.50    4.50
   7  -3  -5   15.10    3.50
  -7   3   5   27.60    4.90
  -7   3   5   14.70    4.40
  -7   3   5   19.40    4.50
  -7   3   5   21.50    3.70
   6  -3  -5   22.80    4.50
   6  -3  -5    9.80    3.30
   6  -3  -5   29.90    5.30
   6  -3  -5   15.60    3.70
   6  -3  -5   25.10    3.10
   6  -3  -5   19.20    2.60
  -6   3   5   14.10    3.30
  -6   3   5   25.80    5.40
  -6   3   5   15.30    3.50
  -6   3   5   21.70    4.50
  -6   3   5   18.80    3.40
  -6   3   5   15.00    3.10
   5  -3  -5  176.38   10.90
   5  -3  -5  177.68    8.10
   5  -3  -5  161.48   10.10
   5  -3  -5  171.58    7.10
   5  -3  -5  165.48   11.90
   5  -3  -5  174.68   10.80
  -5   3   5  185.78   10.60
  -5   3   5  176.28   10.10
  -5   3   5  156.88    8.80
  -5   3   5  179.28   12.00
  -5   3   5  179.38   10.90
  -5   3   5  174.58    9.50
   4  -3  -5  935.11   31.30
   4  -3  -5  921.91   23.20
   4  -3  -5  963.20   19.90
   4  -3  -5  975.90   27.20
   4  -3  -5  951.20   27.10
   4  -3  -5  952.90   29.20
   4  -3  -5  954.20   24.70
  -4   3   5  955.00   29.30
  -4   3   5  997.40   28.20
  -4   3   5  945.91   23.60
  -4   3   5  962.50   24.60
  -4   3   5  933.81   25.60
  -4   3   5  921.01   25.50
   3  -3  -5  966.80   25.60
   3  -3  -5  961.70   26.90
   3  -3  -5  995.40   28.70
   3  -3  -5  987.50   23.30
   3  -3  -5  998.20   27.20
   3  -3  -5  970.90   24.10
   3  -3  -5  969.90   26.50
   3  -3  -5  969.10   18.60
  -3   3   5  987.40   23.20
  -3   3   5  972.30   25.20
  -3   3   5  958.60   24.40
  -3   3   5  915.91   27.60
  -3   3   5  967.50   27.90
   2  -3  -5 2152.38   37.40
   2  -3  -5 2162.78   45.90
   2  -3  -5 2178.68   44.50
   2  -3  -5 2175.58   46.90
   2  -3  -5 2166.28   47.30
   2  -3  -5 2175.88   41.00
   2  -3  -5 2162.28   44.30
  -2   3   5 2205.38   47.40
  -2   3   5 2223.58   40.70
  -2   3   5 2205.18   43.30
  -2   3   5 2112.69   44.50
  -2   3   5 2098.19   45.90
  -2   3   5 2198.78   47.80
   1  -3  -5   50.09    4.90
   1  -3  -5   52.29    4.10
   1  -3  -5   59.29    5.20
   1  -3  -5   52.19    4.70
   1  -3  -5   49.50    3.00
   1  -3  -5   57.99    3.30
  -1   3   5   47.10    4.70
  -1   3   5   54.79    4.70
  -1   3   5   50.99    4.80
  -1   3   5   56.99    2.90
   0  -3  -5 1334.47   31.70
   0  -3  -5 1353.66   32.50
   0  -3  -5 1344.97   27.60
   0  -3  -5 1368.36   28.10
   0  -3  -5 1340.97   31.80
   0   3   5 1323.67   32.60
   0   3   5 1352.06   29.90
   0   3   5 1347.57   31.20
   0   3   5 1367.96   31.10
  -1  -3  -5  560.04   16.00
  -1  -3  -5  547.45   17.70
  -1  -3  -5  602.74   17.90
  -1  -3  -5  581.24   14.50
  -1  -3  -5  537.55   17.60
  -1  -3  -5  525.65   17.60
   1   3   5  549.45   17.70
   1   3   5  570.24   14.90
   1   3   5  550.34   18.20
   1   3   5  558.74   16.90
   1   3   5  553.44   18.00
  -2  -3  -5 2636.14   53.89
  -2  -3  -5 2598.24   55.39
  -2  -3  -5 2707.23   54.19
  -2  -3  -5 2754.32   55.99
  -2  -3  -5 2728.03   53.99
   2   3   5 2803.52   56.49
   2   3   5 2709.33   53.69
   2   3   5 2690.03   48.00
   2   3   5 2703.63   53.79
   2   3   5 2625.84   55.69
   2   3   5 2747.33   54.69
  -3  -3  -5  429.56   15.20
  -3  -3  -5  416.26   16.20
  -3  -3  -5  435.86   10.90
  -3  -3  -5  423.66   16.60
  -3  -3  -5  434.26   16.60
  -3  -3  -5  418.06   14.70
   3   3   5  439.96   17.50
   3   3   5  418.36   15.10
   3   3   5  417.76   14.90
   3   3   5  418.06   16.00
   3   3   5  414.46   18.30
   3   3   5  428.76   10.50
  -4  -3  -5 3251.77   65.19
  -4  -3  -5 3287.67   69.09
  -4  -3  -5 3293.97   59.79
  -4  -3  -5 3247.38   63.49
  -4  -3  -5 3347.17   69.09
  -4  -3  -5 3341.07   68.49
   4   3   5 3243.18   65.99
   4   3   5 3331.47   68.69
   4   3   5 3346.87   68.19
   4   3   5 3412.36   70.29
   4   3   5 3295.87   55.99
  -5  -3  -5  150.98    9.20
  -5  -3  -5  156.98   11.10
  -5  -3  -5  152.48    7.60
  -5  -3  -5  143.49    7.80
  -5  -3  -5  152.38    9.00
  -5  -3  -5  148.89   10.70
  -5  -3  -5  156.28   10.90
  -5  -3  -5  151.58   10.10
   5   3   5  142.89   10.60
   5   3   5  155.18   11.10
   5   3   5  163.38   10.60
   5   3   5  137.99    9.20
  -6  -3  -5 1385.86   39.30
  -6  -3  -5 1305.17   34.60
  -6  -3  -5 1320.37   31.80
  -6  -3  -5 1334.17   30.20
  -6  -3  -5 1260.47   36.30
  -6  -3  -5 1383.36   35.40
   6   3   5 1368.16   36.80
   6   3   5 1335.17   39.30
   6   3   5 1313.27   38.20
   6   3   5 1285.57   35.90
  -7  -3  -5   84.59    8.10
  -7  -3  -5   86.89    7.20
  -7  -3  -5   84.89    5.40
  -7  -3  -5   90.29    9.80
   7   3   5   74.39    8.80
   7   3   5  101.59    9.80
   7   3   5   92.09    8.50
  -8  -3  -5  802.72   31.80
  -8  -3  -5  747.23   18.00
  -8  -3  -5  746.93   26.60
   8   3   5  723.43   35.00
   8   3   5  794.02   29.60
   8   3   5  773.52   27.20
  -9  -3  -5    1.40    4.20
  -9  -3  -5   -2.20    2.40
   9   3   5    4.40    2.40
   9   3   5    3.10    2.40
   9   3   5   -1.80    2.00
 -10  -3  -5   56.39   10.10
 -10  -3  -5   56.09    8.00
  10   3   5   56.29    7.90
  10   3   5   76.39   10.90
  10   3   5   72.89    9.20
  10  -4  -5  166.18   16.50
  10  -4  -5  169.98   14.40
 -10   4   5  152.38   15.20
 -10   4   5  157.38   10.90
   9  -4  -5    4.70    3.20
   9  -4  -5    2.40    2.90
   9  -4  -5   -0.40    3.70
   9  -4  -5   -1.40    1.90
  -9   4   5    5.10    3.80
  -9   4   5    3.80    2.80
   8  -4  -5   90.89    6.50
   8  -4  -5   93.19   11.20
   8  -4  -5   93.19    9.80
   8  -4  -5   98.19    6.70
   8  -4  -5   92.59    7.70
  -8   4   5   87.09    5.40
  -8   4   5   85.49   10.40
  -8   4   5   95.99    8.90
   7  -4  -5  528.35   22.60
   7  -4  -5  483.55   16.10
   7  -4  -5  490.45   24.30
   7  -4  -5  521.05   17.40
   7  -4  -5  522.85   20.30
  -7   4   5  511.25   15.50
  -7   4   5  522.55   20.80
  -7   4   5  530.65   24.50
   6  -4  -5    9.00    2.30
   6  -4  -5   14.00    3.10
   6  -4  -5   12.60    3.90
   6  -4  -5    8.80    3.00
   6  -4  -5    5.50    2.50
  -6   4   5    7.10    2.80
  -6   4   5    7.50    2.50
  -6   4   5    9.00    3.70
  -6   4   5    9.70    3.10
   5  -4  -5  273.37   13.70
   5  -4  -5  280.57   15.80
   5  -4  -5  257.57   11.40
   5  -4  -5  281.77   10.60
   5  -4  -5  316.97   15.70
  -5   4   5  304.47   12.10
  -5   4   5  301.27   15.40
  -5   4   5  282.47   13.40
  -5   4   5  299.67   14.50
  -5   4   5  282.97   14.00
  -5   4   5  281.37   15.70
   4  -4  -5 2339.17   48.70
   4  -4  -5 2371.66   51.39
   4  -4  -5 2316.37   53.89
   4  -4  -5 2401.56   55.89
   4  -4  -5 2336.07   44.80
   4  -4  -5 2314.67   52.49
   4  -4  -5 2353.36   53.69
  -4   4   5 2384.76   55.09
  -4   4   5 2336.07   46.30
  -4   4   5 2353.76   49.70
  -4   4   5 2407.76   52.09
  -4   4   5 2324.37   52.69
   3  -4  -5  227.38   11.90
   3  -4  -5  235.28   12.40
   3  -4  -5  228.58   10.50
   3  -4  -5  226.78   12.20
   3  -4  -5  219.18   10.50
  -3   4   5  213.28   11.00
  -3   4   5  223.58   12.20
  -3   4   5  220.98    9.90
  -3   4   5  230.18   12.20
   2  -4  -5  171.98   11.70
   2  -4  -5  195.58   10.80
   2  -4  -5  185.48    9.60
   2  -4  -5  186.78   10.50
   2  -4  -5  184.28    8.70
  -2   4   5  201.88   10.20
  -2   4   5  188.38   10.90
  -2   4   5  203.08    8.50
  -2   4   5  197.28   10.60
  -2   4   5  177.58    9.70
   1  -4  -5  871.91   24.10
   1  -4  -5  872.91   16.80
   1  -4  -5  844.12   25.00
   1  -4  -5  872.61   20.80
   1  -4  -5  847.22   24.90
   1  -4  -5  884.71   20.10
  -1   4   5  873.61   25.70
  -1   4   5  887.61   24.20
  -1   4   5  854.81   23.50
  -1   4   5  835.62   23.20
   0  -4  -5  387.56   15.40
   0  -4  -5  404.66   12.70
   0  -4  -5  389.56   14.90
   0  -4  -5  374.46   15.10
   0  -4  -5  405.56   11.30
   0   4   5  410.86   18.50
   0   4   5  402.46   15.00
   0   4   5  404.46   14.10
   0   4   5  403.96   13.40
  -1  -4  -5   25.40    2.40
  -1  -4  -5   29.30    4.30
  -1  -4  -5   32.90    3.70
  -1  -4  -5   39.50    4.60
  -1  -4  -5   29.80    4.10
   1   4   5   26.50    4.20
   1   4   5   24.60    3.40
   1   4   5   24.70    2.80
   1   4   5   28.30    2.00
   1   4   5   29.60    4.10
   1   4   5   24.60    4.10
  -2  -4  -5 1787.42   39.30
  -2  -4  -5 1801.42   33.80
  -2  -4  -5 1731.53   41.90
  -2  -4  -5 1777.92   40.80
  -2  -4  -5 1771.12   40.00
  -2  -4  -5 1760.52   41.70
   2   4   5 1793.92   33.10
   2   4   5 1802.92   42.20
   2   4   5 1818.42   41.40
   2   4   5 1804.42   32.90
   2   4   5 1742.73   38.80
   2   4   5 1897.71   43.70
  -3  -4  -5  748.63   19.40
  -3  -4  -5  782.62   24.20
  -3  -4  -5  748.83   24.30
  -3  -4  -5  717.33   23.20
  -3  -4  -5  740.23   21.40
  -3  -4  -5  777.92   22.60
   3   4   5  740.63   23.70
   3   4   5  765.72   25.20
   3   4   5  733.53   17.70
   3   4   5  704.03   25.30
   3   4   5  748.33   17.60
   3   4   5  728.53   21.30
  -4  -4  -5  538.55   14.60
  -4  -4  -5  527.55   17.70
  -4  -4  -5  509.05   20.10
  -4  -4  -5  520.55   19.80
  -4  -4  -5  518.85   20.40
  -4  -4  -5  511.85   17.60
  -4  -4  -5  526.75   16.20
   4   4   5  519.55   13.50
   4   4   5  486.15   20.70
   4   4   5  532.95   20.20
   4   4   5  525.65   18.10
   4   4   5  541.75   20.10
  -5  -4  -5   55.89    4.70
  -5  -4  -5   57.49    6.60
  -5  -4  -5   52.19    7.00
  -5  -4  -5   60.29    5.60
  -5  -4  -5   67.59    6.40
  -5  -4  -5   54.19    5.40
  -5  -4  -5   64.09    7.40
   5   4   5   60.69    3.90
   5   4   5   57.89    6.70
   5   4   5   71.59    7.60
   5   4   5   64.49    7.60
   5   4   5   52.99    5.90
  -6  -4  -5  968.70   28.00
  -6  -4  -5  947.21   25.50
  -6  -4  -5  983.80   26.90
  -6  -4  -5  996.70   28.60
  -6  -4  -5  985.00   26.20
  -6  -4  -5  982.30   32.60
   6   4   5  977.80   32.80
   6   4   5  942.51   29.20
   6   4   5 1038.10   31.00
   6   4   5 1013.00   33.30
  -7  -4  -5   -1.30    1.20
  -7  -4  -5    3.80    2.30
  -7  -4  -5    3.10    2.40
  -7  -4  -5    2.20    1.40
  -7  -4  -5    0.00    1.70
   7   4   5    5.30    3.10
   7   4   5    1.90    1.70
   7   4   5    9.20    3.80
  -8  -4  -5  154.38   13.40
  -8  -4  -5  160.08    8.40
  -8  -4  -5  167.08   11.50
   8   4   5  128.79   12.60
   8   4   5  152.38   13.00
   8   4   5  168.38   12.10
  -9  -4  -5  137.59   15.90
  -9  -4  -5  110.79   11.90
   9   4   5  118.19   12.00
   9   4   5  120.69   10.60
   9   4   5  104.69   12.10
 -10  -4  -5   89.99   12.00
 -10  -4  -5   84.79    9.50
  10   4   5   78.19   11.90
  10   4   5   88.49   11.30
   9  -5  -5  311.87   15.40
   9  -5  -5  343.47   20.40
   9  -5  -5  317.57   21.80
  -9   5   5  349.57   22.20
  -9   5   5  331.37   16.50
   8  -5  -5   15.60    7.80
   8  -5  -5    9.50    3.50
   8  -5  -5    5.50    3.40
   8  -5  -5    7.00    2.60
  -8   5   5   14.70    4.20
  -8   5   5   11.60    4.20
   7  -5  -5  537.85   24.00
   7  -5  -5  523.95   26.00
  -7   5   5  529.85   13.50
  -7   5   5  520.55   25.00
  -7   5   5  551.44   21.70
   6  -5  -5  579.64   25.50
   6  -5  -5  575.74   18.70
   6  -5  -5  535.75   18.90
   6  -5  -5  582.94   24.30
  -6   5   5  550.54   18.90
  -6   5   5  590.34   22.30
  -6   5   5  539.45   24.30
   5  -5  -5  337.77   12.90
   5  -5  -5  330.87   17.80
   5  -5  -5  331.67   15.90
   5  -5  -5  304.77   13.60
   5  -5  -5  329.87   17.00
  -5   5   5  328.37   15.90
  -5   5   5  288.47   15.20
  -5   5   5  319.67   14.40
  -5   5   5  325.27   12.50
  -5   5   5  322.47   17.30
   4  -5  -5    1.40    1.90
   4  -5  -5    2.20    2.20
   4  -5  -5    2.40    2.20
   4  -5  -5    2.70    1.70
   4  -5  -5    2.80    1.80
  -4   5   5    3.20    2.50
  -4   5   5    0.70    1.70
  -4   5   5    5.80    2.70
  -4   5   5    1.80    1.50
  -4   5   5    3.60    1.40
   3  -5  -5 2152.88   50.59
   3  -5  -5 2110.69   47.20
   3  -5  -5 2045.50   50.49
   3  -5  -5 2050.59   49.00
   3  -5  -5 2206.78   45.70
  -3   5   5 2185.88   50.29
  -3   5   5 2119.39   43.90
  -3   5   5 2142.19   49.80
  -3   5   5 2045.90   48.30
   2  -5  -5  660.23   22.60
   2  -5  -5  621.44   21.80
   2  -5  -5  643.24   17.80
   2  -5  -5  653.33   22.90
   2  -5  -5  598.44   20.10
  -2   5   5  639.64   16.90
  -2   5   5  595.94   20.70
  -2   5   5  624.74   21.10
  -2   5   5  621.44   20.20
  -2   5   5  609.34   21.70
   1  -5  -5 1235.18   26.80
   1  -5  -5 1305.97   34.90
   1  -5  -5 1218.78   29.90
   1  -5  -5 1242.88   32.60
   1  -5  -5 1294.67   34.10
   1  -5  -5 1205.18   33.10
  -1   5   5 1216.78   32.40
  -1   5   5 1217.28   30.80
  -1   5   5 1319.17   34.50
  -1   5   5 1343.37   31.90
  -1   5   5 1307.27   32.60
   0  -5  -5 1151.18   23.70
   0  -5  -5 1137.79   28.10
   0  -5  -5 1167.08   32.30
   0  -5  -5 1132.29   31.00
   0  -5  -5 1120.29   31.40
   0   5   5 1186.78   32.60
   0   5   5 1181.18   28.90
   0   5   5 1187.78   28.10
   0   5   5 1369.96   45.00
   0   5   5 1134.89   31.00
  -1  -5  -5  253.17   12.50
  -1  -5  -5  248.78   11.30
  -1  -5  -5  291.47   14.00
  -1  -5  -5  244.78   12.50
  -1  -5  -5  246.98    7.10
   1   5   5  254.47   12.90
   1   5   5  251.07    9.30
   1   5   5  237.58   12.30
   1   5   5  234.98   10.60
   1   5   5  240.18    7.70
   1   5   5  239.08   12.80
  -2  -5  -5   58.79    5.90
  -2  -5  -5   50.69    5.60
  -2  -5  -5   52.69    5.90
  -2  -5  -5   46.30    5.80
  -2  -5  -5   51.99    2.90
  -2  -5  -5   58.49    2.90
  -2  -5  -5   54.19    5.20
   2   5   5   49.60    6.10
   2   5   5   61.99    5.30
   2   5   5   60.19    3.40
   2   5   5   61.79    6.90
   2   5   5   54.39    3.70
  -3  -5  -5  476.75   18.20
  -3  -5  -5  512.45   17.10
  -3  -5  -5  493.35   20.00
  -3  -5  -5  509.95   13.40
  -3  -5  -5  506.85   19.50
  -3  -5  -5  500.75   19.50
   3   5   5  527.85   15.40
   3   5   5  516.75   21.00
   3   5   5  510.65   14.30
   3   5   5  524.65   17.20
   3   5   5  504.35   20.10
  -4  -5  -5  535.15   19.10
  -4  -5  -5  535.45   21.30
  -4  -5  -5  528.75   15.60
  -4  -5  -5  528.15   17.90
  -4  -5  -5  501.05   20.10
  -4  -5  -5  521.05   21.00
   4   5   5  529.75   18.20
   4   5   5  544.75   16.20
   4   5   5  533.85   15.40
   4   5   5  532.95   22.20
  -5  -5  -5    2.30    2.60
  -5  -5  -5    2.70    1.30
  -5  -5  -5    3.30    1.60
  -5  -5  -5    1.60    1.60
  -5  -5  -5    1.00    1.40
   5   5   5    1.90    1.30
   5   5   5    1.10    1.40
   5   5   5    3.00    2.20
  -6  -5  -5  556.24   18.10
  -6  -5  -5  635.04   25.50
  -6  -5  -5  600.24   19.20
  -6  -5  -5  571.54   19.70
  -6  -5  -5  589.14   20.50
  -6  -5  -5  562.84   19.90
   6   5   5  603.14   25.10
   6   5   5  568.24   21.10
   6   5   5  604.94   16.60
   6   5   5  572.04   25.10
  -7  -5  -5  188.08   14.10
  -7  -5  -5  168.38   10.80
  -7  -5  -5  162.88    9.90
  -7  -5  -5  151.58    9.50
   7   5   5  168.88   13.80
   7   5   5  197.98   14.70
  -8  -5  -5    9.20    2.80
  -8  -5  -5    7.70    3.20
  -8  -5  -5    3.50    3.40
   8   5   5    8.80    4.10
  -9  -5  -5   28.60    5.90
  -9  -5  -5   33.60    6.20
  -9  -5  -5   34.80    7.70
   9   5   5   44.80    8.60
   9   5   5   42.40    8.20
 -10  -5  -5  211.78   14.10
 -10  -5  -5  210.08   12.90
 -10  -5  -5  223.58   17.90
  10   5   5  218.88   16.90
   8  -6  -5   97.99   12.20
   8  -6  -5  116.39    9.50
   8  -6  -5  107.89   11.70
  -8   6   5   96.89   11.70
   7  -6  -5   53.99    8.30
   7  -6  -5   36.10    5.70
  -7   6   5   42.10    8.10
  -7   6   5   42.10    6.70
   6  -6  -5   83.99    9.90
   6  -6  -5   87.39    9.80
   6  -6  -5   82.89    9.80
  -6   6   5   82.59    4.70
  -6   6   5   94.29    8.90
  -6   6   5   81.69    7.80
  -6   6   5   86.09   10.00
   5  -6  -5 2225.38   48.10
   5  -6  -5 2157.48   56.89
   5  -6  -5 2235.58   56.19
  -5   6   5 2173.38   43.70
  -5   6   5 2109.39   44.30
  -5   6   5 2125.99   48.90
  -5   6   5 2149.98   55.49
  -5   6   5 2189.98   53.29
   4  -6  -5   10.20    3.40
   4  -6  -5   10.90    3.80
   4  -6  -5    9.60    3.60
  -4   6   5   11.90    3.20
  -4   6   5   10.10    2.50
  -4   6   5   12.60    3.00
  -4   6   5   11.50    2.30
  -4   6   5   13.50    3.90
   3  -6  -5  179.88   11.60
   3  -6  -5  189.08   11.30
   3  -6  -5  217.08   13.40
   3  -6  -5  222.28   14.10
   3  -6  -5  204.38   12.40
  -3   6   5  217.38   13.10
  -3   6   5  208.88   12.60
  -3   6   5  200.48   12.30
  -3   6   5  222.98   10.80
  -3   6   5  211.58    9.50
   2  -6  -5   11.10    2.90
   2  -6  -5   16.80    3.90
   2  -6  -5   21.90    4.50
   2  -6  -5   20.60    4.50
   2  -6  -5   25.40    5.50
  -2   6   5   26.80    4.80
  -2   6   5   30.80    5.00
  -2   6   5   22.90    2.90
  -2   6   5   19.70    4.00
  -2   6   5   25.30    4.40
   1  -6  -5  503.65   20.60
   1  -6  -5  444.66   18.60
   1  -6  -5  425.16   18.30
   1  -6  -5  465.95   18.30
   1  -6  -5  468.45   17.00
  -1   6   5  440.16   18.90
  -1   6   5  442.56   16.30
  -1   6   5  453.45   17.90
  -1   6   5  448.26   18.20
  -1   6   5  449.95   17.20
   0  -6  -5    2.90    1.50
   0  -6  -5    4.40    2.40
   0  -6  -5    2.90    2.10
   0  -6  -5    3.70    2.10
   0  -6  -5    2.00    2.00
   0   6   5    0.90    1.30
   0   6   5    1.80    1.40
   0   6   5    2.90    1.80
   0   6   5    2.40    1.30
  -1  -6  -5 1741.23   44.20
  -1  -6  -5 1644.24   42.00
  -1  -6  -5 1664.63   39.90
  -1  -6  -5 1673.43   42.30
   1   6   5 1730.53   43.40
   1   6   5 1548.05   41.30
   1   6   5 1693.13   37.60
   1   6   5 1669.73   33.40
   1   6   5 1706.63   35.20
  -2  -6  -5   11.40    2.80
  -2  -6  -5   19.10    4.20
  -2  -6  -5   23.40    4.60
  -2  -6  -5   19.70    4.40
   2   6   5   20.70    2.80
   2   6   5   34.50    4.10
   2   6   5   18.90    4.00
   2   6   5   20.50    4.60
   2   6   5   20.90    2.30
  -3  -6  -5    6.60    3.10
  -3  -6  -5    6.10    2.10
  -3  -6  -5    7.90    1.60
  -3  -6  -5    2.70    2.40
  -3  -6  -5    3.60    2.30
   3   6   5    3.10    1.70
   3   6   5    6.30    1.90
   3   6   5    6.60    2.00
   3   6   5    3.70    2.10
  -4  -6  -5   12.20    1.70
  -4  -6  -5    7.40    3.00
  -4  -6  -5    9.10    2.50
  -4  -6  -5    5.90    2.30
  -4  -6  -5   10.30    2.10
   4   6   5   14.00    3.00
   4   6   5   15.90    3.30
   4   6   5   10.00    2.40
   4   6   5   11.50    3.30
  -5  -6  -5   83.99    6.10
  -5  -6  -5   79.89    8.90
  -5  -6  -5   84.79    6.90
  -5  -6  -5   75.79    4.60
  -5  -6  -5   77.89    7.30
   5   6   5   72.69    6.50
   5   6   5   74.49    5.80
   5   6   5   77.79    6.80
   5   6   5   70.29    8.80
  -6  -6  -5   27.00    4.40
  -6  -6  -5   22.20    5.60
  -6  -6  -5   19.60    4.20
  -6  -6  -5   18.80    3.30
  -6  -6  -5   27.50    5.30
   6   6   5   15.80    3.60
   6   6   5   18.20    3.60
   6   6   5   18.30    6.00
  -7  -6  -5  248.88   11.30
  -7  -6  -5  251.77   13.30
  -7  -6  -5  267.97   17.40
  -7  -6  -5  246.18   13.60
   7   6   5  242.58   11.10
   7   6   5  264.57   18.00
  -8  -6  -5   45.00    6.00
  -8  -6  -5   50.39    8.50
  -8  -6  -5   52.49    6.60
  -8  -6  -5   50.09    8.10
   8   6   5   55.49    9.70
  -9  -6  -5    2.80    2.10
  -9  -6  -5    1.30    2.60
   9   6   5    0.80    3.50
   8  -7  -5   88.09   12.10
   8  -7  -5   79.49    8.60
   8  -7  -5   83.69   11.20
  -8   7   5   89.79   11.40
   7  -7  -5  218.78   16.60
   7  -7  -5  195.48   12.80
   7  -7  -5  211.88   16.60
  -7   7   5  237.68   17.30
   6  -7  -5   37.90    7.30
   6  -7  -5   32.60    5.70
   6  -7  -5   36.00    7.70
  -6   7   5   27.20    5.10
  -6   7   5   36.50    7.30
   5  -7  -5  524.85   24.50
   5  -7  -5  544.75   25.20
  -5   7   5  540.35   24.20
  -5   7   5  529.55   15.60
  -5   7   5  487.65   15.30
  -5   7   5  521.05   19.30
   4  -7  -5  622.74   27.00
   4  -7  -5  599.44   25.30
   4  -7  -5  598.64   25.50
  -4   7   5  567.94   14.60
  -4   7   5  605.24   24.60
  -4   7   5  587.34   18.90
  -4   7   5  596.74   18.60
   3  -7  -5  652.43   27.30
   3  -7  -5  681.03   26.60
  -3   7   5  679.43   25.00
  -3   7   5  668.83   18.70
  -3   7   5  706.73   21.70
   2  -7  -5  155.78   11.60
   2  -7  -5  139.99    9.80
   2  -7  -5  137.79   11.70
  -2   7   5  139.19    9.20
  -2   7   5  143.59   10.20
  -2   7   5  127.49    8.90
  -2   7   5  141.49    7.50
   1  -7  -5 2013.20   47.30
   1  -7  -5 2300.87   53.49
   1  -7  -5 2112.99   54.19
  -1   7   5 2058.49   46.70
  -1   7   5 2176.88   49.90
  -1   7   5 2171.98   48.40
   0  -7  -5  171.78   11.70
   0  -7  -5  171.48   12.50
   0  -7  -5  184.58   10.80
   0  -7  -5  164.78    9.20
   0   7   5  169.08    9.40
   0   7   5  170.28    9.50
   0   7   5  184.78   11.70
  -1  -7  -5  350.16   16.20
  -1  -7  -5  365.76   18.30
  -1  -7  -5  361.26   17.00
   1   7   5  355.36   12.10
   1   7   5  347.67   13.60
   1   7   5  366.36   17.70
   1   7   5  357.96   12.70
  -2  -7  -5 1104.19   33.50
  -2  -7  -5 1215.48   36.90
   2   7   5 1187.68   27.70
   2   7   5 1174.88   29.30
   2   7   5 1186.38   25.10
   2   7   5 1221.98   36.70
  -3  -7  -5  546.25   23.20
   3   7   5  514.55   18.10
   3   7   5  503.95   22.90
   3   7   5  511.45   16.50
   3   7   5  495.85   17.00
  -4  -7  -5   57.89    7.90
  -4  -7  -5   47.80    5.30
   4   7   5   38.90    4.80
   4   7   5   46.00    5.10
   4   7   5   38.90    4.90
   4   7   5   43.20    7.30
  -5  -7  -5  519.45   16.10
  -5  -7  -5  530.95   24.20
  -5  -7  -5  511.75   18.00
   5   7   5  547.55   19.10
   5   7   5  526.55   24.90
   5   7   5  537.35   18.40
   5   7   5  529.55   18.80
  -6  -7  -5    0.20    1.50
  -6  -7  -5   -1.10    0.90
  -6  -7  -5   -3.40    1.60
  -6  -7  -5   -0.30    1.70
   6   7   5    3.90    2.10
   6   7   5   -0.10    2.60
   6   7   5   -0.50    1.70
   6   7   5   -1.20    1.70
  -7  -7  -5   -2.60    1.90
  -7  -7  -5    1.50    1.50
  -7  -7  -5    2.30    2.30
   7   7   5   -0.80    2.30
   7   7   5   -0.30    1.60
  -8  -7  -5    7.60    3.50
  -8  -7  -5   12.70    3.50
   8   7   5   16.50    5.10
   8   7   5    2.90    2.30
  -9  -7  -5   48.80    6.30
  -9  -7  -5   44.20    9.30
   9   7   5   51.09    9.80
   7  -8  -5  185.48   12.90
   7  -8  -5  188.58   16.50
   7  -8  -5  175.68   16.10
  -7   8   5  203.98   16.40
   6  -8  -5  158.88   12.00
   6  -8  -5  174.18   15.10
   6  -8  -5  168.38   14.90
  -6   8   5  184.78   14.70
  -6   8   5  155.68    8.70
   5  -8  -5   39.70    7.60
   5  -8  -5   29.80    6.40
  -5   8   5   31.60    6.40
  -5   8   5   36.30    4.00
  -5   8   5   42.40    4.10
  -5   8   5   50.19    8.10
   4  -8  -5  107.69   11.00
   4  -8  -5  107.99   12.20
   4  -8  -5  120.69   11.60
  -4   8   5  116.59   10.90
  -4   8   5   97.09    6.80
  -4   8   5  107.29    7.40
   3  -8  -5  615.84   26.10
   3  -8  -5  586.84   25.60
   3  -8  -5  553.54   26.50
  -3   8   5  602.34   20.50
  -3   8   5  602.84   23.90
  -3   8   5  585.34   16.90
   2  -8  -5   57.59    8.20
   2  -8  -5   41.40    6.90
  -2   8   5   43.80    5.70
  -2   8   5   55.19    6.30
  -2   8   5   60.99    7.10
   1  -8  -5  691.43   27.80
   1  -8  -5  604.14   25.10
   1  -8  -5  611.74   21.90
  -1   8   5  637.04   21.10
  -1   8   5  636.24   22.30
  -1   8   5  638.74   23.50
   0  -8  -5  592.14   22.30
   0  -8  -5  591.34   20.20
   0  -8  -5  620.44   24.60
   0  -8  -5  659.43   27.10
   0   8   5  660.13   24.50
   0   8   5  601.24   19.80
   0   8   5  655.23   20.70
  -1  -8  -5   82.19    8.70
  -1  -8  -5   75.39    8.30
  -1  -8  -5   94.29   10.00
  -1  -8  -5   78.59    6.30
   1   8   5   86.19    6.50
   1   8   5   93.69    6.50
   1   8   5   73.69    8.30
   1   8   5   68.79    6.00
  -2  -8  -5  124.49   11.30
  -2  -8  -5  144.29   11.00
   2   8   5  135.09   11.30
   2   8   5  118.59    8.90
   2   8   5  123.19    9.40
   2   8   5  112.69    6.10
   2   8   5  110.69    7.50
  -3  -8  -5  565.84   25.20
   3   8   5  515.85   17.50
   3   8   5  554.64   24.80
   3   8   5  563.64   20.60
   3   8   5  565.04   18.40
  -4  -8  -5   37.30    6.80
   4   8   5   41.40    5.00
   4   8   5   47.80    7.70
   4   8   5   45.10    5.70
   4   8   5   56.39    6.50
  -5  -8  -5   87.99    7.00
  -5  -8  -5   93.49   10.60
   5   8   5   98.09   11.20
   5   8   5   85.99    7.30
   5   8   5   89.29    7.90
   5   8   5   96.09    8.00
  -6  -8  -5   70.29    9.10
  -6  -8  -5   68.99    6.50
   6   8   5   63.99    7.40
   6   8   5   54.69    7.50
   6   8   5   68.79   10.00
   6   8   5   59.09    6.70
  -7  -8  -5    2.20    2.10
  -7  -8  -5   -2.60    2.30
   7   8   5   -2.40    2.70
   7   8   5    1.50    2.30
  -8  -8  -5   -0.40    3.00
  -8  -8  -5    0.50    1.80
   8   8   5   -1.40    3.30
   8   8   5    1.90    2.30
   6  -9  -5  426.16   24.50
   6  -9  -5  403.56   24.00
  -6   9   5  402.16   23.40
   5  -9  -5   56.39    8.40
   5  -9  -5   57.89    9.00
  -5   9   5   55.49    9.00
  -5   9   5   65.29    4.60
   4  -9  -5    3.70    2.60
   4  -9  -5    4.40    3.30
   4  -9  -5   -0.50    1.90
  -4   9   5    2.50    2.30
  -4   9   5    3.70    2.30
  -4   9   5    1.50    1.40
   3  -9  -5    1.50    3.20
   3  -9  -5    4.10    3.10
   3  -9  -5    3.00    2.20
  -3   9   5    1.90    2.60
  -3   9   5    0.50    1.30
  -3   9   5    2.20    2.50
   2  -9  -5  470.65   23.40
  -2   9   5  490.15   19.90
  -2   9   5  514.05   21.30
   1  -9  -5    3.20    2.90
   1  -9  -5    0.80    2.00
  -1   9   5   -0.50    2.10
  -1   9   5    3.30    2.80
  -1   9   5   -2.20    1.40
   0  -9  -5  235.78   16.70
   0  -9  -5  239.48   12.80
   0  -9  -5  244.98   15.70
   0   9   5  235.48   14.70
   0   9   5  253.47   12.60
   0   9   5  238.58   12.00
  -1  -9  -5   68.39    9.30
  -1  -9  -5   59.39    5.70
  -1  -9  -5   66.39    7.90
   1   9   5   53.99    6.40
   1   9   5   65.69    6.20
   1   9   5   61.49    6.10
   1   9   5   78.19    8.80
  -2  -9  -5   31.10    6.20
  -2  -9  -5   28.50    8.30
   2   9   5   21.80    4.20
   2   9   5   31.40    6.30
   2   9   5   24.60    5.30
   2   9   5   27.80    4.30
   2   9   5   26.90    3.60
  -3  -9  -5   -1.30    1.90
  -3  -9  -5    0.70    2.00
   3   9   5    1.60    2.00
   3   9   5    0.50    3.40
   3   9   5    1.90    1.60
   3   9   5    1.00    1.90
  -4  -9  -5  255.57   17.80
  -4  -9  -5  227.78   14.60
   4   9   5  273.67   14.60
   4   9   5  236.68   11.00
   4   9   5  252.57   18.10
   4   9   5  248.78   13.00
  -5  -9  -5   -1.50    1.70
   5   9   5    7.40    2.00
   5   9   5   -0.40    3.20
   5   9   5    1.30    2.00
   5   9   5   -1.20    1.60
  -6  -9  -5   18.20    5.60
   6   9   5   28.60    5.60
   6   9   5   17.10    4.10
   6   9   5   13.30    5.40
  -7  -9  -5    3.50    2.90
   7   9   5   -2.40    3.90
   7   9   5    2.20    2.80
   7   9   5   -3.50    2.40
   5 -10  -5   43.50    8.60
   5 -10  -5   51.39    9.40
  -5  10   5   52.19    8.10
   4 -10  -5   49.60    9.70
   4 -10  -5   49.90    8.40
   4 -10  -5   37.00    8.70
  -4  10   5   50.59    8.30
  -4  10   5   37.60    4.90
   3 -10  -5   20.90    5.70
   3 -10  -5   31.70    7.30
   3 -10  -5   32.30    7.90
  -3  10   5   16.20    4.40
  -3  10   5   29.90    5.60
   2 -10  -5   84.39   10.70
   2 -10  -5   78.59   10.00
  -2  10   5   90.59    9.10
  -2  10   5   85.79    8.60
   1 -10  -5    1.30    2.20
   1 -10  -5    2.40    1.80
  -1  10   5    4.70    2.30
  -1  10   5    4.90    3.00
   0 -10  -5   56.49    8.40
   0 -10  -5   75.29   10.80
   0 -10  -5   72.59   10.90
   0  10   5   79.89    9.40
   0  10   5   83.59    7.70
   0  10   5   80.49    7.30
   0  10   5   83.59    7.60
  -1 -10  -5  148.89   14.00
  -1 -10  -5  146.69    9.70
  -1 -10  -5  157.88   14.70
   1  10   5  155.68   10.10
   1  10   5  154.38    9.30
   1  10   5  146.49   12.90
   1  10   5  176.18   16.60
   1  10   5  166.78    9.00
  -2 -10  -5  215.88   16.90
  -2 -10  -5  214.98   15.10
   2  10   5  226.48   17.40
   2  10   5  227.38   12.30
   2  10   5  194.48   15.40
   2  10   5  204.38   10.00
  -3 -10  -5   54.39    9.10
  -3 -10  -5   56.39    8.00
   3  10   5   82.39   10.40
   3  10   5   79.19    7.50
   3  10   5   58.79    5.30
   3  10   5   52.49    8.80
  -4 -10  -5   93.39   11.10
  -4 -10  -5   87.99    9.90
   4  10   5   82.59    8.40
   4  10   5   81.89    6.70
   4  10   5   84.99   11.30
   4  10   5  114.29   14.30
  -5 -10  -5   59.39    9.80
  -5 -10  -5   54.39    9.70
   5  10   5   49.30    8.30
   5  10   5   56.09   10.20
   5  10   5   66.49    7.90
  -6 -10  -5  105.39   10.40
  -6 -10  -5   82.39   11.40
   6  10   5   78.29    9.00
   6  10   5  104.69   13.70
   6  10   5   87.59    9.20
   4 -11  -5  115.59   14.10
   4 -11  -5   71.59   10.90
   4 -11  -5   91.19   13.60
  -4  11   5   84.89    7.50
  -4  11   5   84.69   10.10
   3 -11  -5   26.20    7.70
   3 -11  -5   14.60    5.80
   3 -11  -5   14.20    5.30
  -3  11   5   16.00    4.90
  -3  11   5   19.90    5.00
   2 -11  -5   -4.30    2.40
   2 -11  -5    0.70    3.20
  -2  11   5    2.20    2.50
  -2  11   5    3.50    2.80
   1 -11  -5   -2.50    2.20
   1 -11  -5   -0.30    2.10
  -1  11   5    3.10    2.20
  -1  11   5    1.70    2.50
   0 -11  -5   -0.70    3.20
   0 -11  -5   -0.40    1.90
   0  11   5   -2.80    1.80
   0  11   5   -0.60    2.30
   0  11   5    0.00    3.20
  -1 -11  -5   -1.10    2.70
  -1 -11  -5    1.90    2.60
   1  11   5    0.70    1.80
   1  11   5    3.00    2.60
   1  11   5    1.20    2.00
   1  11   5   -2.60    2.40
   1  11   5    1.10    2.80
  -2 -11  -5  107.69   11.40
  -2 -11  -5   94.99   12.50
   2  11   5   99.49   11.70
   2  11   5   75.99    9.40
   2  11   5  118.19    9.40
  -3 -11  -5   92.09   12.00
  -3 -11  -5   67.19    8.40
   3  11   5   75.89    8.20
   3  11   5   68.79   10.70
   3  11   5   74.69    9.20
  -4 -11  -5    5.80    3.80
  -4 -11  -5    0.50    3.90
   4  11   5    6.30    3.50
   4  11   5    2.10    3.80
   3  10  -6  195.48   16.10
   3  10  -6  209.78   13.70
   3  10  -6  193.38   14.70
   3  10  -6  226.98   17.80
  -3 -10   6  199.28   17.40
  -3 -10   6  199.48   14.70
   2  10  -6    1.00    3.20
   2  10  -6    0.30    2.20
   2  10  -6    0.90    3.50
   2  10  -6    3.60    3.60
  -2 -10   6   -3.50    1.90
  -2 -10   6   -4.90    1.80
   1  10  -6   33.60    7.10
   1  10  -6   38.90    7.90
   1  10  -6   30.00    6.70
  -1 -10   6   20.90    5.80
  -1 -10   6   21.30    6.00
   0  10  -6   -3.40    2.40
   0  10  -6    1.10    2.50
   0  10  -6   -1.50    3.00
   0 -10   6   -1.60    2.50
   0 -10   6   -5.70    2.20
  -1  10  -6    3.10    2.60
  -1  10  -6    0.90    2.80
   1 -10   6    3.80    3.80
   1 -10   6   -3.00    3.10
  -2  10  -6    7.20    4.00
   2 -10   6    5.50    3.40
   2 -10   6    4.90    3.40
   2 -10   6    6.70    3.50
  -3  10  -6  143.49   12.70
   3 -10   6  156.78   13.50
   3 -10   6  193.98   14.30
   3 -10   6  165.18   15.70
   5   9  -6   34.10    7.60
   5   9  -6   40.10    8.70
   5   9  -6   21.50    5.10
   5   9  -6   21.20    5.80
  -5  -9   6   17.30    4.10
  -5  -9   6   25.20    6.90
   4   9  -6    0.70    2.30
   4   9  -6   -0.20    2.50
   4   9  -6   -4.30    2.40
   4   9  -6   -2.00    2.40
  -4  -9   6    3.20    2.30
  -4  -9   6   -0.90    3.50
   3   9  -6  234.48   11.40
   3   9  -6  280.57   17.70
   3   9  -6  257.07   14.90
   3   9  -6  260.87   16.80
   3   9  -6  291.27   18.90
  -3  -9   6  249.68   15.50
  -3  -9   6  244.78   18.20
   2   9  -6  113.19   11.30
   2   9  -6  124.99   10.40
   2   9  -6  112.79   11.00
   2   9  -6  108.99    7.60
   2   9  -6  139.59   12.80
  -2  -9   6  113.49   11.00
  -2  -9   6  106.89   12.00
   1   9  -6  209.38   15.10
   1   9  -6  205.08   12.80
   1   9  -6  210.18   14.70
   1   9  -6  190.48   13.90
   1   9  -6  176.78   11.10
  -1  -9   6  188.18   14.40
  -1  -9   6  222.88   16.50
   0   9  -6  150.08   10.30
   0   9  -6  173.28   13.20
   0   9  -6  158.48   11.40
   0   9  -6  137.99   15.70
   0  -9   6  173.98   14.20
   0  -9   6  186.18   14.90
  -1   9  -6  114.69   10.70
  -1   9  -6  106.09    9.40
   1  -9   6   90.29   10.80
   1  -9   6  114.19   11.20
  -2   9  -6   19.70    5.00
  -2   9  -6   23.60    4.40
   2  -9   6   38.70    7.00
   2  -9   6   33.00    6.00
   2  -9   6   25.40    6.60
  -3   9  -6  192.18   11.30
  -3   9  -6  222.78   14.60
   3  -9   6  201.28   16.60
   3  -9   6  193.58   14.30
   3  -9   6  203.38   14.50
  -4   9  -6   55.69    7.30
  -4   9  -6   72.39    8.40
   4  -9   6   64.69    8.90
   4  -9   6   70.49   10.80
  -5   9  -6   -3.60    2.20
  -5   9  -6   -2.30    2.30
   5  -9   6    0.30    2.60
   5  -9   6    0.00    2.60
   5  -9   6    0.90    3.00
   6   8  -6   11.40    4.70
   6   8  -6   23.00    6.30
   6   8  -6   35.40    6.90
   6   8  -6   34.70    7.10
  -6  -8   6   17.70    3.40
  -6  -8   6   21.10    5.50
   5   8  -6  118.29   11.60
   5   8  -6   92.29   10.60
   5   8  -6   92.89   11.40
   5   8  -6   73.49    9.00
  -5  -8   6   90.19    8.00
  -5  -8   6   97.19   12.20
   4   8  -6   63.89    9.10
   4   8  -6   72.69    8.40
   4   8  -6   65.79    9.00
   4   8  -6   71.89    9.30
  -4  -8   6   81.09   10.40
  -4  -8   6   76.19    8.10
   3   8  -6   38.50    6.00
   3   8  -6   38.00    6.90
   3   8  -6   40.40    7.30
  -3  -8   6   38.00    6.20
  -3  -8   6   28.80    6.90
   2   8  -6  319.67   18.30
   2   8  -6  326.37   17.80
   2   8  -6  304.57   15.60
   2   8  -6  305.17   17.60
   2   8  -6  280.97   11.70
  -2  -8   6  335.17   19.70
  -2  -8   6  293.67   16.50
   1   8  -6  209.48   14.40
   1   8  -6  216.38   12.90
   1   8  -6  209.38    9.60
   1   8  -6  205.08   10.80
  -1  -8   6  228.48   14.90
  -1  -8   6  248.48   16.60
   0   8  -6  265.17   15.50
   0   8  -6  243.88   12.10
   0   8  -6  258.97   14.00
   0   8  -6  236.48   12.70
   0  -8   6  233.48   15.10
   0  -8   6  273.27   17.00
  -1   8  -6  586.24   21.90
  -1   8  -6  573.34   17.20
  -1   8  -6  520.05   20.40
  -1   8  -6  595.64   23.70
   1  -8   6  588.94   25.00
   1  -8   6  577.64   25.80
  -2   8  -6  181.98    9.80
  -2   8  -6  173.38   12.30
   2  -8   6  180.58   12.30
   2  -8   6  190.58   13.60
   2  -8   6  167.38   16.20
  -3   8  -6    0.50    1.90
  -3   8  -6    1.30    1.90
   3  -8   6   -0.60    2.10
   3  -8   6    0.90    2.00
   3  -8   6    1.70    2.70
  -4   8  -6  262.37   13.80
  -4   8  -6  263.97   14.70
   4  -8   6  266.27   18.70
   4  -8   6  264.97   15.20
   4  -8   6  263.87   17.30
   4  -8   6  242.48   13.20
  -5   8  -6  173.58   12.10
  -5   8  -6  178.38   12.20
   5  -8   6  174.28   15.40
   5  -8   6  190.28   12.20
   5  -8   6  180.68   10.50
   5  -8   6  163.58   14.10
  -6   8  -6   10.40    3.10
  -6   8  -6   12.50    3.90
   6  -8   6   10.20    5.20
   6  -8   6   10.00    3.50
   6  -8   6   15.40    4.50
   7   7  -6   -5.00    2.10
   7   7  -6    3.90    3.60
   7   7  -6    1.20    2.90
   7   7  -6    0.20    2.50
  -7  -7   6    2.40    3.30
   6   7  -6    1.00    3.00
   6   7  -6    8.60    3.70
   6   7  -6    3.10    2.80
   6   7  -6    3.30    3.20
  -6  -7   6    3.50    1.70
  -6  -7   6    6.20    3.90
   5   7  -6   -2.20    1.80
   5   7  -6   -3.50    2.00
   5   7  -6    1.30    2.60
   5   7  -6   -1.80    1.80
  -5  -7   6   -0.70    1.60
  -5  -7   6   -2.60    2.00
   4   7  -6  280.97   15.40
   4   7  -6  298.07   17.70
   4   7  -6  360.46   28.50
  -4  -7   6  309.27   19.00
  -4  -7   6  278.47   13.60
   3   7  -6   62.39    7.20
   3   7  -6   61.59    8.00
   3   7  -6   54.59    8.00
   3   7  -6   56.89    7.70
  -3  -7   6   68.09    7.40
   2   7  -6    1.40    2.10
   2   7  -6    2.80    2.20
   2   7  -6    0.90    1.70
   2   7  -6    3.10    2.10
   2   7  -6   -0.20    1.90
  -2  -7   6    1.90    2.10
  -2  -7   6    4.50    2.40
   1   7  -6  199.68   12.50
   1   7  -6  164.08    8.20
   1   7  -6  175.28   11.30
   1   7  -6  182.88   12.60
   1   7  -6  144.09    8.30
  -1  -7   6  157.38    7.20
  -1  -7   6  178.68   13.30
  -1  -7   6  165.58   11.90
   0   7  -6  203.88   10.40
   0   7  -6  232.78    9.50
   0   7  -6  210.08   13.10
   0   7  -6  213.48   10.80
   0   7  -6  230.88   12.90
   0  -7   6  245.38   15.20
   0  -7   6  218.18    9.70
   0  -7   6  230.18   14.50
  -1   7  -6   22.10    4.70
  -1   7  -6   29.30    5.20
  -1   7  -6   31.80    4.20
  -1   7  -6   25.10    4.50
   1  -7   6   25.20    5.10
   1  -7   6   24.90    5.50
  -2   7  -6  696.53   21.20
  -2   7  -6  675.93   24.40
  -2   7  -6  697.53   24.40
   2  -7   6  651.73   24.30
   2  -7   6  687.53   25.70
   2  -7   6  699.93   28.50
   2  -7   6  702.03   28.30
  -3   7  -6   30.40    4.80
  -3   7  -6   21.20    4.50
   3  -7   6   33.40    5.90
   3  -7   6   27.70    5.40
   3  -7   6   23.60    5.90
   3  -7   6   30.10    5.80
  -4   7  -6   15.50    3.90
  -4   7  -6   14.80    3.60
   4  -7   6   16.60    4.20
   4  -7   6   12.60    3.30
  -5   7  -6   83.59    7.80
  -5   7  -6   81.59    8.50
   5  -7   6   81.99    7.70
   5  -7   6   65.29    6.30
   5  -7   6   71.19    9.40
  -6   7  -6  211.28   12.00
  -6   7  -6  206.28   13.90
   6  -7   6  226.88   16.50
   6  -7   6  199.88    9.70
   6  -7   6  207.58   17.50
   6  -7   6  180.48   11.20
   6  -7   6  208.28   16.70
   6  -7   6  202.28   10.60
  -7   7  -6   16.50    5.20
  -7   7  -6    1.80    2.80
  -7   7  -6    8.30    2.50
   7  -7   6    9.10    4.20
   7  -7   6    6.90    4.00
   7  -7   6   10.70    5.10
   8   6  -6   38.80    7.90
   8   6  -6   18.90    5.60
   8   6  -6   32.20    7.00
  -8  -6   6   22.60    4.60
  -8  -6   6   46.60    9.00
  -8  -6   6   35.10    7.80
   7   6  -6    4.50    3.40
   7   6  -6    9.20    3.80
   7   6  -6    1.60    2.40
   7   6  -6    2.50    4.10
  -7  -6   6    6.70    2.50
  -7  -6   6    8.90    4.60
   6   6  -6   35.00    6.80
   6   6  -6   32.00    6.90
   6   6  -6   37.50   10.20
   6   6  -6   29.60    6.60
  -6  -6   6   24.40    6.10
  -6  -6   6   31.60    4.10
  -6  -6   6   38.60    3.80
   5   6  -6  106.29   10.60
   5   6  -6  104.89   10.10
   5   6  -6   94.19   10.40
   5   6  -6   84.69    8.90
  -5  -6   6  108.19    6.70
  -5  -6   6  107.49   11.60
   4   6  -6  201.18   14.10
   4   6  -6  188.78   13.30
   4   6  -6  190.28   12.40
   4   6  -6  215.38   13.60
  -4  -6   6  221.58   10.90
  -4  -6   6  212.08   14.80
  -4  -6   6  205.58    7.90
   3   6  -6   41.20    6.40
   3   6  -6   26.30    5.10
   3   6  -6   34.10    5.30
   3   6  -6   30.40    5.70
  -3  -6   6   33.10    6.20
  -3  -6   6   28.40    3.00
  -3  -6   6   37.10    5.20
   2   6  -6   27.20    4.80
   2   6  -6   30.10    4.90
   2   6  -6   28.60    2.80
   2   6  -6   33.40    5.40
   2   6  -6   31.80    5.60
  -2  -6   6   26.80    5.50
  -2  -6   6   28.20    3.00
  -2  -6   6   25.00    4.80
   1   6  -6   96.09    8.70
   1   6  -6   84.29    7.80
   1   6  -6   95.39    8.20
   1   6  -6   88.09    5.70
  -1  -6   6   90.19    5.70
  -1  -6   6   90.59    9.20
  -1  -6   6   92.29    8.50
   0   6  -6  257.97   13.60
   0   6  -6  264.47   10.50
   0   6  -6  246.48   10.90
   0   6  -6  256.77   11.40
   0  -6   6  239.78   10.60
   0  -6   6  240.28   14.40
   0  -6   6  243.48   14.30
  -1   6  -6    8.70    2.90
  -1   6  -6   16.70    3.40
  -1   6  -6   13.10    3.20
  -1   6  -6   21.20    4.40
   1  -6   6    8.50    2.40
   1  -6   6   15.30    3.90
   1  -6   6   11.00    3.30
   1  -6   6    9.90    3.40
  -2   6  -6  916.31   27.30
  -2   6  -6  921.31   28.00
  -2   6  -6  879.21   27.90
  -2   6  -6  962.30   25.80
   2  -6   6  953.00   32.10
   2  -6   6  937.91   29.20
   2  -6   6  874.81   26.40
   2  -6   6  921.91   29.00
  -3   6  -6  500.05   18.60
  -3   6  -6  510.65   18.60
  -3   6  -6  473.75   20.70
   3  -6   6  517.25   21.40
   3  -6   6  502.15   23.00
   3  -6   6  515.25   19.90
   3  -6   6  510.85   19.80
  -4   6  -6  384.06   15.80
  -4   6  -6  386.46   16.90
   4  -6   6  369.16   15.90
   4  -6   6  380.76   19.20
   4  -6   6  369.56   20.10
   4  -6   6  407.56   16.50
  -5   6  -6   11.30    3.10
  -5   6  -6   13.00    3.90
   5  -6   6    7.70    3.00
   5  -6   6    8.70    3.90
   5  -6   6    9.60    3.30
   5  -6   6   10.50    3.10
  -6   6  -6  594.34   24.10
  -6   6  -6  590.14   24.90
  -6   6  -6  557.74   19.30
  -6   6  -6  578.64   21.00
   6  -6   6  574.64   28.70
   6  -6   6  531.95   17.90
   6  -6   6  557.94   17.90
   6  -6   6  577.24   27.10
   6  -6   6  554.94   26.00
  -7   6  -6   77.89    9.40
  -7   6  -6   87.39    7.40
  -7   6  -6   80.29    9.60
   7  -6   6   94.79    6.40
   7  -6   6   82.89   10.80
   7  -6   6   66.59    4.50
   7  -6   6   86.59   11.60
  -8   6  -6   46.60    8.20
  -8   6  -6   68.49    6.90
  -8   6  -6   61.49    9.20
   8  -6   6   61.69   11.00
   8  -6   6   63.09   10.10
   8   5  -6   67.19    9.70
   8   5  -6   63.09    9.30
   8   5  -6   85.59   10.70
  -8  -5   6   70.49    7.70
  -8  -5   6   73.99    9.80
  -8  -5   6   77.29    9.80
   7   5  -6    6.20    3.00
   7   5  -6   -0.30    2.50
   7   5  -6    1.10    2.60
  -7  -5   6    6.70    2.80
  -7  -5   6   -0.90    1.50
   6   5  -6  124.39   14.80
   6   5  -6  127.99   11.40
   6   5  -6  127.79   11.90
   6   5  -6  119.49   10.60
  -6  -5   6  142.49   13.20
  -6  -5   6  127.29    7.60
   5   5  -6   -1.70    1.40
   5   5  -6   13.20    4.60
   5   5  -6   -0.70    1.80
   5   5  -6    0.40    1.50
  -5  -5   6    1.10    0.90
  -5  -5   6   -2.40    1.60
  -5  -5   6    2.30    2.40
  -5  -5   6    0.00    1.10
   4   5  -6   25.70    5.20
   4   5  -6   24.50    5.10
   4   5  -6   28.00    5.50
   4   5  -6   23.90    4.80
  -4  -5   6   20.60    3.30
  -4  -5   6   23.10    3.10
  -4  -5   6   24.50    4.80
  -4  -5   6   18.80    4.80
   3   5  -6   23.50    4.80
   3   5  -6   22.00    4.80
   3   5  -6   20.60    4.70
   3   5  -6   13.50    3.60
  -3  -5   6   10.40    3.20
  -3  -5   6   22.10    3.60
  -3  -5   6   14.70    2.50
   2   5  -6  518.25   12.60
   2   5  -6  562.44   20.00
   2   5  -6  580.64   21.50
   2   5  -6  529.35   20.90
   2   5  -6  541.05   19.90
  -2  -5   6  547.25   15.70
  -2  -5   6  536.35   18.90
  -2  -5   6  538.85   22.10
   1   5  -6    0.80    1.00
   1   5  -6    1.60    1.30
   1   5  -6    2.00    1.00
   1   5  -6   -1.50    0.90
   1   5  -6    3.80    2.30
  -1  -5   6   -0.70    1.80
  -1  -5   6    0.90    1.30
  -1  -5   6    3.70    1.60
  -1  -5   6    1.00    1.90
  -1  -5   6    3.30    2.30
   0   5  -6  412.96   16.60
   0   5  -6  380.46   13.10
   0   5  -6  378.26   14.00
   0   5  -6  419.26   14.00
   0  -5   6  395.46   14.00
   0  -5   6  412.56   17.50
   0  -5   6  405.36   17.90
  -1   5  -6  178.98    9.20
  -1   5  -6  173.78    9.70
  -1   5  -6  172.18   10.00
  -1   5  -6  163.28    9.10
   1  -5   6  156.48    8.90
   1  -5   6  165.68   10.80
   1  -5   6  169.68   11.40
  -2   5  -6   26.70    5.50
  -2   5  -6   30.30    4.30
  -2   5  -6   37.00    5.10
  -2   5  -6   27.30    4.30
   2  -5   6   33.20    5.00
   2  -5   6   33.70    4.80
   2  -5   6   35.70    5.60
  -3   5  -6  103.19    8.80
  -3   5  -6  102.49    7.40
  -3   5  -6  106.99    8.00
   3  -5   6  102.89    8.20
   3  -5   6  101.89    8.40
   3  -5   6   97.29    9.60
  -4   5  -6 1466.05   37.90
  -4   5  -6 1493.15   34.50
  -4   5  -6 1430.76   44.60
  -4   5  -6 1415.86   32.40
   4  -5   6 1522.35   43.40
   4  -5   6 1465.75   35.50
   4  -5   6 1369.66   43.70
  -5   5  -6   15.40    4.00
  -5   5  -6   14.00    3.10
  -5   5  -6   15.50    3.40
   5  -5   6   13.50    4.30
   5  -5   6   15.80    3.10
   5  -5   6   20.80    5.40
  -6   5  -6  318.27   16.80
  -6   5  -6  279.27   14.10
  -6   5  -6  294.17   12.30
  -6   5  -6  297.07   16.50
   6  -5   6  348.07   30.80
   6  -5   6  319.27   18.90
   6  -5   6  299.77   11.20
  -7   5  -6   89.69    9.80
  -7   5  -6   85.19   10.20
  -7   5  -6   74.99    6.20
   7  -5   6   86.19   11.40
   7  -5   6   89.49   10.60
   7  -5   6   69.29    5.70
  -8   5  -6  133.39    8.10
  -8   5  -6  141.09   12.80
  -8   5  -6  161.38   13.10
   8  -5   6  125.09   13.00
   8  -5   6  158.08   15.60
  -9   5  -6    1.00    2.70
  -9   5  -6    0.70    3.40
  -9   5  -6    2.00    2.00
   9  -5   6    2.30    3.20
   9  -5   6    4.00    2.90
   9   4  -6   11.20    4.20
   9   4  -6   18.10    5.40
  -9  -4   6   36.80    6.90
  -9  -4   6   29.90    5.80
  -9  -4   6   19.00    5.90
   8   4  -6    7.70    4.40
   8   4  -6    9.00    3.80
   8   4  -6   11.80    4.10
  -8  -4   6   12.60    4.80
  -8  -4   6    9.70    3.80
   7   4  -6  107.29   10.50
   7   4  -6  114.19   11.10
   7   4  -6   77.99   13.70
  -7  -4   6   93.49    9.90
  -7  -4   6   90.79    7.60
   6   4  -6  120.79   10.60
   6   4  -6  123.89   11.00
   6   4  -6  112.09   10.20
   6   4  -6  119.59    8.70
  -6  -4   6  113.19   10.50
  -6  -4   6  110.89    7.70
  -6  -4   6  123.99    9.50
   5   4  -6 1615.64   36.70
   5   4  -6 1603.44   43.20
   5   4  -6 1612.14   42.50
   5   4  -6 1605.44   43.90
   5   4  -6 1654.73   45.10
  -5  -4   6 1621.54   44.70
  -5  -4   6 1567.24   40.00
  -5  -4   6 1504.45   35.60
   4   4  -6   -0.70    1.30
   4   4  -6    2.20    1.50
   4   4  -6   -1.90    1.20
   4   4  -6    0.60    1.80
   4   4  -6    1.30    2.00
  -4  -4   6   -0.40    1.10
  -4  -4   6    1.00    1.70
  -4  -4   6    4.10    2.30
  -4  -4   6    0.30    1.10
   3   4  -6   99.19    8.00
   3   4  -6   74.39    7.50
   3   4  -6   83.49    7.70
   3   4  -6   90.79    8.40
  -3  -4   6   96.39   10.50
  -3  -4   6   94.69    8.80
  -3  -4   6   77.89    5.40
  -3  -4   6   87.79    6.10
   2   4  -6  120.89    5.10
   2   4  -6  108.79    7.90
   2   4  -6  124.89    8.90
   2   4  -6  106.09    8.70
  -2  -4   6  117.39    7.60
  -2  -4   6  107.19    9.30
  -2  -4   6  116.89    8.40
  -2  -4   6  114.89    6.60
   1   4  -6  991.70   20.10
   1   4  -6 1001.40   28.30
   1   4  -6 1035.70   25.10
   1   4  -6  981.50   27.90
   1   4  -6 1011.60   26.90
  -1  -4   6 1030.30   27.90
  -1  -4   6  978.00   27.40
  -1  -4   6  974.70   28.80
  -1  -4   6  984.20   24.40
  -1  -4   6  994.90   30.00
   0   4  -6  155.88    7.20
   0   4  -6  161.38    8.40
   0   4  -6  156.08    8.20
   0   4  -6  161.18    9.40
   0  -4   6  150.18    8.10
   0  -4   6  151.68   10.00
   0  -4   6  171.48   10.70
   0  -4   6  147.79    9.80
   0  -4   6  141.39    8.60
  -1   4  -6  505.85   17.70
  -1   4  -6  527.15   17.00
  -1   4  -6  512.55   17.70
  -1   4  -6  529.35   16.90
   1  -4   6  539.75   19.50
   1  -4   6  546.35   20.40
   1  -4   6  530.35   17.40
   1  -4   6  524.45   19.70
  -2   4  -6  259.87    7.80
  -2   4  -6  272.27   12.10
  -2   4  -6  244.28   12.50
  -2   4  -6  266.67   12.60
  -2   4  -6  268.47   11.20
   2  -4   6  253.17   13.40
   2  -4   6  261.87   12.50
   2  -4   6  260.97   14.20
   2  -4   6  249.18   12.00
  -3   4  -6   24.60    4.30
  -3   4  -6   23.30    4.30
  -3   4  -6   26.90    3.60
  -3   4  -6   20.40    4.00
  -3   4  -6   25.10    3.00
   3  -4   6   29.70    4.80
   3  -4   6   20.20    4.30
   3  -4   6   22.10    5.00
   3  -4   6   22.10    3.90
  -4   4  -6    0.60    1.90
  -4   4  -6    3.60    1.90
  -4   4  -6    3.30    1.70
   4  -4   6    1.10    3.30
   4  -4   6    3.20    1.60
   4  -4   6   -0.90    1.50
   4  -4   6    3.80    2.60
  -5   4  -6  502.25   20.10
  -5   4  -6  463.05   17.50
  -5   4  -6  499.75   15.20
   5  -4   6  472.35   23.00
   5  -4   6  479.85   22.00
   5  -4   6  488.25   15.50
  -6   4  -6   85.79    8.10
  -6   4  -6   84.59    8.50
  -6   4  -6   94.79    5.90
  -6   4  -6   97.99    8.80
   6  -4   6   73.99    8.80
   6  -4   6   91.09   10.40
   6  -4   6   87.49    5.10
  -7   4  -6    2.20    2.00
  -7   4  -6   -0.90    2.80
  -7   4  -6   -1.50    1.20
   7  -4   6    2.00    3.00
   7  -4   6   -1.50    1.70
   7  -4   6    2.10    2.70
  -8   4  -6  227.28   20.60
  -8   4  -6  198.88    8.50
  -8   4  -6  189.28   14.70
   8  -4   6  203.98   17.00
   8  -4   6  189.38   15.30
  -9   4  -6    9.90    4.00
  -9   4  -6    8.90    2.10
  -9   4  -6    5.70    3.90
   9  -4   6    9.10    4.00
   9  -4   6    4.70    3.60
   9   3  -6  161.58   13.20
   9   3  -6  156.28   14.50
   9   3  -6  127.49   13.50
  -9  -3   6  151.98   12.60
  -9  -3   6  130.99   13.30
   8   3  -6    4.90    3.20
   8   3  -6    0.50    2.70
   8   3  -6    7.20    3.30
  -8  -3   6    7.30    3.90
  -8  -3   6    8.90    4.10
  -8  -3   6    6.00    3.10
   7   3  -6  225.38   14.90
   7   3  -6  243.88   20.00
   7   3  -6  237.58   13.90
   7   3  -6  227.78   17.30
  -7  -3   6  225.48   14.60
  -7  -3   6  209.68   15.10
   6   3  -6   87.99    9.30
   6   3  -6   88.99    8.70
   6   3  -6  105.79    8.20
   6   3  -6  104.59    9.90
  -6  -3   6  102.89    8.10
  -6  -3   6   82.79    9.00
  -6  -3   6   93.89    7.60
   5   3  -6  685.03   24.00
   5   3  -6  696.73   21.50
   5   3  -6  697.93   25.40
   5   3  -6  679.73   25.20
  -5  -3   6  684.23   25.70
  -5  -3   6  667.63   21.50
  -5  -3   6  664.43   20.60
   4   3  -6  337.27   14.90
   4   3  -6  285.27   14.80
   4   3  -6  339.67   16.00
   4   3  -6  328.17   16.40
   4   3  -6  343.87   12.70
  -4  -3   6  332.37   16.70
  -4  -3   6  336.97   12.90
  -4  -3   6  318.57    9.60
  -4  -3   6  337.47   13.40
   3   3  -6 2206.28   49.90
   3   3  -6 2202.18   47.80
   3   3  -6 2217.68   42.80
   3   3  -6 2205.18   49.90
   3   3  -6 2200.88   50.79
  -3  -3   6 2186.98   51.59
  -3  -3   6 2109.39   44.60
  -3  -3   6 2165.58   43.10
  -3  -3   6 2087.49   48.70
   2   3  -6  276.27   13.00
   2   3  -6  265.97   11.70
   2   3  -6  271.37    8.50
   2   3  -6  269.47   13.10
   2   3  -6  278.17    8.90
  -2  -3   6  275.67   10.90
  -2  -3   6  275.17   11.30
  -2  -3   6  249.18   13.50
  -2  -3   6  263.77   12.40
   1   3  -6 2173.68   44.10
   1   3  -6 2024.40   46.10
   1   3  -6 2117.79   44.80
   1   3  -6 2121.39   44.00
   1   3  -6 2114.99   46.20
  -1  -3   6 2117.99   45.20
  -1  -3   6 2096.79   48.40
  -1  -3   6 2090.89   43.10
  -1  -3   6 2041.40   44.70
   0   3  -6   39.40    4.10
   0   3  -6   40.70    3.40
   0   3  -6   40.10    4.40
   0   3  -6   33.30    4.00
   0  -3   6   35.60    4.00
   0  -3   6   35.60    4.10
   0  -3   6   39.90    4.80
   0  -3   6   34.90    4.50
   0  -3   6   38.20    5.00
  -1   3  -6  704.73   20.90
  -1   3  -6  706.63   20.50
  -1   3  -6  693.03   19.60
  -1   3  -6  698.93   15.10
   1  -3   6  704.43   22.20
   1  -3   6  684.23   19.20
   1  -3   6  673.23   20.20
  -2   3  -6  803.02   24.10
  -2   3  -6  787.42   18.70
  -2   3  -6  806.52   20.60
  -2   3  -6  795.72   22.90
   2  -3   6  753.62   24.00
   2  -3   6  798.82   25.60
   2  -3   6  791.42   23.30
   2  -3   6  798.12   23.20
  -3   3  -6 1428.26   32.00
  -3   3  -6 1383.36   30.00
  -3   3  -6 1419.46   42.30
  -3   3  -6 1446.56   35.30
   3  -3   6 1392.76   35.90
   3  -3   6 1341.87   35.80
   3  -3   6 1454.95   38.60
   3  -3   6 1460.85   33.50
  -4   3  -6  383.06   11.80
  -4   3  -6  384.06   14.40
  -4   3  -6  398.96   16.50
  -4   3  -6  372.86   17.30
   4  -3   6  392.06   18.30
   4  -3   6  361.66   16.50
   4  -3   6  377.96   16.50
   4  -3   6  405.56   13.80
   4  -3   6  362.16   18.20
  -5   3  -6 1239.48   26.00
  -5   3  -6 1256.87   32.80
  -5   3  -6 1244.78   34.70
   5  -3   6 1121.99   33.60
   5  -3   6 1266.87   27.60
   5  -3   6 1251.27   37.30
   5  -3   6 1196.38   38.10
  -6   3  -6  212.78   12.40
  -6   3  -6  211.78    7.70
  -6   3  -6  201.78   12.30
  -6   3  -6  231.98   13.80
   6  -3   6  222.58   14.70
   6  -3   6  221.78   15.60
   6  -3   6  219.08    7.10
  -7   3  -6    0.40    0.90
  -7   3  -6    4.20    2.20
  -7   3  -6   -1.70    1.70
   7  -3   6    0.10    1.80
   7  -3   6    1.80    1.90
  -8   3  -6   66.49    7.90
  -8   3  -6   59.19    8.40
   8  -3   6   74.29   10.40
  -9   3  -6  480.05   24.50
  -9   3  -6  443.76   21.10
   9  -3   6  495.75   27.50
   9  -3   6  471.65   24.20
 -10   3  -6    2.40    2.90
 -10   3  -6    2.80    3.60
  10  -3   6   -4.90    2.10
  10  -3   6    1.60    4.00
  10  -3   6    0.40    2.60
   9   2  -6  202.48   16.10
   9   2  -6  191.78   14.80
   9   2  -6  198.98   16.00
  -9  -2   6  208.48    8.60
  -9  -2   6  202.28   16.10
   8   2  -6    0.40    2.30
   8   2  -6   -0.10    2.20
   8   2  -6   -2.20    1.70
  -8  -2   6   -0.20    2.10
  -8  -2   6    2.80    2.40
  -8  -2   6   -0.70    1.00
  -8  -2   6   -1.30    1.10
  -8  -2   6   -1.40    2.80
   7   2  -6  154.48   12.50
   7   2  -6  147.29   11.20
   7   2  -6  148.19   12.40
  -7  -2   6  174.18   13.60
  -7  -2   6  134.79    9.00
  -7  -2   6  147.99   11.50
   6   2  -6  105.39    9.10
   6   2  -6  134.69   11.00
   6   2  -6  115.99   10.30
   6   2  -6  109.99    9.20
  -6  -2   6  104.39    8.20
  -6  -2   6  104.39    9.40
  -6  -2   6  124.29    8.10
   5   2  -6    7.50    2.50
   5   2  -6    9.50    3.00
   5   2  -6    8.60    3.20
   5   2  -6    7.40    2.50
  -5  -2   6    7.80    2.00
  -5  -2   6   12.90    2.80
  -5  -2   6    5.70    1.80
  -5  -2   6    0.40    1.80
  -5  -2   6   11.40    4.80
   4   2  -6  202.88   11.00
   4   2  -6  205.88   10.30
   4   2  -6  201.88   11.80
   4   2  -6  216.58   12.20
   4   2  -6  190.78    6.20
  -4  -2   6  210.68   10.30
  -4  -2   6  195.28   11.60
  -4  -2   6  197.48    6.30
  -4  -2   6  203.98   12.60
   3   2  -6 1563.84   38.80
   3   2  -6 1609.24   34.60
   3   2  -6 1558.04   38.50
   3   2  -6 1580.14   36.20
   3   2  -6 1567.24   30.30
  -3  -2   6 1599.54   35.60
  -3  -2   6 1548.15   38.50
  -3  -2   6 1593.84   32.20
  -3  -2   6 1533.05   39.90
  -3  -2   6 1580.34   33.40
   2   2  -6   22.30    2.80
   2   2  -6   19.20    3.80
   2   2  -6   25.50    3.50
   2   2  -6   16.70    3.70
   2   2  -6   20.70    3.90
  -2  -2   6   20.90    4.00
  -2  -2   6   18.00    3.00
  -2  -2   6   18.00    3.10
  -2  -2   6   20.80    3.10
   1   2  -6  431.76   15.40
   1   2  -6  404.76   15.40
   1   2  -6  420.16   15.10
   1   2  -6  425.56   14.70
   1   2  -6  441.66   13.60
   1   2  -6  436.86   11.90
   1   2  -6  416.06   14.70
  -1  -2   6  403.86   14.40
  -1  -2   6  452.85   15.10
  -1  -2   6  408.66   16.50
  -1  -2   6  409.86   14.10
   0   2  -6  412.36   15.20
   0   2  -6  428.46   14.20
   0   2  -6  441.26   15.00
   0   2  -6  437.06   14.50
   0  -2   6  414.56   14.40
   0  -2   6  429.06   14.00
   0  -2   6  460.55   16.90
   0  -2   6  429.76   15.60
  -1   2  -6  626.94   19.30
  -1   2  -6  622.84   20.50
  -1   2  -6  640.74   19.20
  -1   2  -6  622.74   17.30
   1  -2   6  625.74   20.60
   1  -2   6  623.94   16.90
   1  -2   6  659.23   20.30
   1  -2   6  633.74   19.20
   1  -2   6  624.54   19.80
  -2   2  -6   87.49    5.40
  -2   2  -6   89.79    7.20
  -2   2  -6   74.69    6.80
  -2   2  -6   86.09    5.00
   2  -2   6   94.49    6.80
   2  -2   6   85.89    7.50
   2  -2   6   77.89    6.50
   2  -2   6   82.79    6.60
  -3   2  -6 2528.95   50.39
  -3   2  -6 2555.84   55.49
  -3   2  -6 2487.25   53.19
  -3   2  -6 2565.04   46.20
  -3   2  -6 2436.16   56.09
   3  -2   6 2519.65   56.39
   3  -2   6 2518.75   53.39
   3  -2   6 2484.15   50.39
   3  -2   6 2502.35   54.39
   3  -2   6 2529.55   56.29
  -4   2  -6   13.20    1.80
  -4   2  -6    5.40    2.20
  -4   2  -6    9.90    2.60
  -4   2  -6   14.30    3.80
  -4   2  -6    9.90    3.00
   4  -2   6    4.70    1.90
   4  -2   6   21.30    4.60
   4  -2   6   14.20    3.90
   4  -2   6   11.50    2.90
   4  -2   6   16.00    2.70
  -5   2  -6  211.08   11.70
  -5   2  -6  215.88    6.20
  -5   2  -6  214.98   12.50
   5  -2   6  210.08   13.20
   5  -2   6  203.58   11.40
   5  -2   6  209.78    8.20
   5  -2   6  214.48   14.10
  -6   2  -6  473.25   19.90
  -6   2  -6  497.75   20.50
   6  -2   6  498.25   23.20
   6  -2   6  491.65   21.60
   6  -2   6  453.55   18.70
  -7   2  -6  767.52   27.80
  -7   2  -6  742.63   24.30
   7  -2   6  676.83   24.60
   7  -2   6  766.72   28.70
   7  -2   6  721.93   23.80
   7  -2   6  743.93   30.80
  -8   2  -6    2.10    2.20
  -8   2  -6    4.20    1.90
   8  -2   6   -0.30    2.00
   8  -2   6    0.20    1.50
   8  -2   6    5.50    3.60
  -9   2  -6  269.97   17.80
  -9   2  -6  284.47   15.00
   9  -2   6  292.27   13.80
   9  -2   6  268.87   19.70
   9  -2   6  306.07   18.70
 -10   2  -6   15.60    5.50
 -10   2  -6   19.80    4.60
  10  -2   6    4.80    3.90
  10  -2   6   14.60    4.40
  10   1  -6    8.50    4.40
 -10  -1   6    6.80    5.00
 -10  -1   6    5.40    3.40
 -10  -1   6   10.00    3.10
   9   1  -6   20.90    5.30
   9   1  -6   15.50    5.50
   9   1  -6   12.80    4.10
  -9  -1   6   15.40    4.80
  -9  -1   6    5.30    3.30
  -9  -1   6   14.60    3.10
  -9  -1   6   10.00    2.90
   8   1  -6  204.78   14.50
   8   1  -6  188.48   14.30
   8   1  -6  202.58    8.30
   8   1  -6  183.08   14.00
  -8  -1   6  193.48    8.80
  -8  -1   6  187.88   13.30
  -8  -1   6  178.48    8.60
  -8  -1   6  192.38   15.20
   7   1  -6   42.10    6.90
   7   1  -6   29.90    3.60
   7   1  -6   23.90    5.70
   7   1  -6   30.00    5.80
  -7  -1   6   29.20    3.20
  -7  -1   6   38.70    6.30
  -7  -1   6   32.80    3.30
  -7  -1   6   28.60    6.10
  -7  -1   6   24.30    4.10
   6   1  -6  399.56   12.40
   6   1  -6  402.66   18.10
   6   1  -6  413.26   19.40
   6   1  -6  424.46   19.10
  -6  -1   6  378.36   10.10
  -6  -1   6  421.16   20.00
  -6  -1   6  339.67   22.20
  -6  -1   6  401.56   10.30
  -6  -1   6  429.76   19.20
  -6  -1   6  391.56   13.90
   5   1  -6  877.41   26.80
   5   1  -6  939.71   29.40
   5   1  -6  870.11   27.80
   5   1  -6  882.71   20.70
   5   1  -6  885.31   26.50
  -5  -1   6  888.91   21.70
  -5  -1   6  908.91   28.90
  -5  -1   6  887.61   28.60
  -5  -1   6  861.01   24.70
  -5  -1   6  836.12   26.30
   4   1  -6   38.80    4.60
   4   1  -6   36.10    5.10
   4   1  -6   42.40    3.60
   4   1  -6   37.10    5.50
   4   1  -6   32.60    5.10
  -4  -1   6   39.40    4.60
  -4  -1   6   42.80    5.00
  -4  -1   6   38.80    5.80
  -4  -1   6   41.10    4.40
  -4  -1   6   40.20    3.40
  -4  -1   6   37.20    5.20
   3   1  -6  400.46   15.80
   3   1  -6  393.36   16.00
   3   1  -6  402.76   12.20
   3   1  -6  435.96   15.00
   3   1  -6  418.56   14.40
   3   1  -6  416.26   12.00
   3   1  -6  405.76   16.60
  -3  -1   6  407.56   11.90
  -3  -1   6  419.26   11.20
  -3  -1   6  425.16   15.10
  -3  -1   6  409.86   17.10
  -3  -1   6  407.46   16.00
   2   1  -6 3028.20   57.09
   2   1  -6 3056.79   60.29
   2   1  -6 3063.59   62.59
   2   1  -6 3081.09   60.59
   2   1  -6 3095.69   57.99
   2   1  -6 2950.70   61.09
  -2  -1   6 2975.80   62.89
  -2  -1   6 3085.29   57.09
  -2  -1   6 2990.20   60.19
  -2  -1   6 2982.60   59.19
   1   1  -6  146.99    6.70
   1   1  -6  150.08    9.00
   1   1  -6  144.19    7.80
   1   1  -6  148.99    8.30
  -1  -1   6  142.49    7.90
  -1  -1   6  147.19    7.80
  -1  -1   6  146.59   11.00
  -1  -1   6  145.59    7.80
   0   1  -6   61.99    3.80
   0   1  -6   60.89    3.90
   0   1  -6   52.09    5.10
   0   1  -6   63.09    5.40
   0   1  -6   54.59    5.10
   0  -1   6   56.59    5.10
   0  -1   6   53.89    4.30
   0  -1   6   53.39    5.40
   0  -1   6   53.59    4.90
  -1   1  -6 3940.31   77.29
  -1   1  -6 4030.80   76.19
  -1   1  -6 4077.19   76.19
  -1   1  -6 4098.09   73.19
  -1   1  -6 4013.00   76.29
  -1   1  -6 4104.19   72.19
   1  -1   6 3951.20   75.69
   1  -1   6 3951.20   77.39
   1  -1   6 4108.49   71.49
   1  -1   6 4065.59   76.69
   1  -1   6 4076.39   75.39
  -2   1  -6  586.14   14.30
  -2   1  -6  576.64   24.80
  -2   1  -6  576.14   19.20
  -2   1  -6  606.04   20.30
  -2   1  -6  567.84   17.50
   2  -1   6  600.34   18.20
   2  -1   6  566.64   18.80
   2  -1   6  580.74   20.00
   2  -1   6  587.54   14.00
   2  -1   6  565.14   18.60
   2  -1   6  581.24   18.10
  -3   1  -6  145.49    9.00
  -3   1  -6  139.89    9.20
  -3   1  -6  146.09    8.30
  -3   1  -6  128.99    9.10
  -3   1  -6  149.19    7.70
   3  -1   6  142.59    9.10
   3  -1   6  140.09    9.50
   3  -1   6  149.19    9.90
   3  -1   6  126.19    7.20
   3  -1   6  148.09    8.30
  -4   1  -6 3112.99   65.09
  -4   1  -6 3162.28   64.09
  -4   1  -6 3109.99   67.59
  -4   1  -6 3190.08   67.79
   4  -1   6 3169.58   62.69
   4  -1   6 3135.59   67.89
   4  -1   6 3126.39   66.49
   4  -1   6 3231.78   59.39
   4  -1   6 3227.08   67.89
  -5   1  -6  510.55   19.60
  -5   1  -6  490.35   19.10
   5  -1   6  507.95   13.70
   5  -1   6  502.95   20.90
   5  -1   6  490.95   17.30
   5  -1   6  512.25   21.70
  -6   1  -6   30.80    5.30
  -6   1  -6   29.00    5.10
   6  -1   6   26.10    5.40
   6  -1   6   22.40    3.90
   6  -1   6   30.50    4.80
   6  -1   6   21.90    5.30
  -7   1  -6  608.54   24.10
   7  -1   6  622.14   22.30
   7  -1   6  655.23   27.70
   7  -1   6  590.24   21.10
   7  -1   6  635.34   25.30
  -8   1  -6  412.66   20.30
  -8   1  -6  402.86   16.30
   8  -1   6  375.06   17.30
   8  -1   6  420.86   20.60
   8  -1   6  364.26   16.50
   8  -1   6  370.26   21.70
  -9   1  -6   52.69    8.30
  -9   1  -6   37.70    5.60
   9  -1   6   49.90    6.90
   9  -1   6   55.39   12.80
   9  -1   6   45.30    8.50
 -10   1  -6   29.90    5.20
 -10   1  -6   35.80    7.80
  10  -1   6   21.00    5.20
  10  -1   6   16.00    4.80
  10  -1   6   23.30    7.80
  10   0  -6  167.98   15.60
 -10   0   6  167.88   10.70
 -10   0   6  170.68   15.60
 -10   0   6  175.28   13.30
   9   0  -6   39.80    5.40
   9   0  -6   55.39    9.00
  -9   0   6   38.30    5.70
  -9   0   6   47.00    8.50
  -9   0   6   48.10    7.20
   8   0  -6  435.46   22.20
   8   0  -6  422.36   21.80
   8   0  -6  432.16   23.50
   8   0  -6  420.66   15.90
  -8   0   6  401.46   15.10
  -8   0   6  430.36   22.80
  -8   0   6  435.96   20.00
   7   0  -6  170.78   12.60
   7   0  -6  190.28    9.70
   7   0  -6  197.08   13.90
   7   0  -6  165.38   12.50
  -7   0   6  178.38   14.40
  -7   0   6  155.58    8.20
  -7   0   6  164.68   13.40
  -7   0   6  176.08   12.20
   6   0  -6  116.39    9.90
   6   0  -6   95.99    8.60
   6   0  -6  102.99    9.40
   6   0  -6  111.39    7.20
   6   0  -6  102.39    9.10
  -6   0   6  105.19   10.10
  -6   0   6   96.49    8.80
  -6   0   6  101.39    5.70
  -6   0   6  113.99    9.50
   5   0  -6  664.23   24.10
   5   0  -6  662.83   23.20
   5   0  -6  690.53   19.30
   5   0  -6  714.23   23.80
   5   0  -6  674.23   23.80
  -5   0   6  700.83   24.40
  -5   0   6  676.53   25.20
  -5   0   6  682.23   16.10
   4   0  -6 1916.01   51.99
   4   0  -6 1647.04   45.00
   4   0  -6 1686.23   41.80
   4   0  -6 1671.83   31.80
   4   0  -6 1659.43   35.90
   4   0  -6 1751.12   40.80
  -4   0   6 1669.93   30.90
  -4   0   6 1673.83   42.10
  -4   0   6 1678.53   40.00
  -4   0   6 1659.53   39.90
  -4   0   6 1706.93   41.50
  -4   0   6 1691.53   36.90
   3   0  -6   28.80    4.30
   3   0  -6   33.80    4.60
   3   0  -6   33.20    3.10
   3   0  -6   32.20    3.80
   3   0  -6   47.20    5.00
   3   0  -6   36.50    5.00
   3   0  -6   43.00    4.10
  -3   0   6   35.20    3.50
  -3   0   6   50.89    5.10
  -3   0   6   40.70    5.40
  -3   0   6   35.90    4.70
  -3   0   6   37.40    4.60
  -3   0   6   38.70    3.40
   2   0  -6 2315.97   41.00
   2   0  -6 2222.58   51.99
   2   0  -6 2272.47   50.09
   2   0  -6 2430.46   48.40
   2   0  -6 2318.97   47.80
   2   0  -6 2358.56   45.90
   2   0  -6 2297.27   44.40
  -2   0   6 2297.17   48.30
  -2   0   6 2373.36   48.80
  -2   0   6 2305.17   51.29
  -2   0   6 2338.47   45.50
   1   0  -6 2363.76   49.70
   1   0  -6 2463.65   44.40
   1   0  -6 2408.56   43.90
   1   0  -6 2410.36   51.19
   1   0  -6 2497.25   48.80
  -1   0   6 2374.66   49.50
  -1   0   6 2442.06   48.60
  -1   0   6 2421.66   43.00
  -1   0   6 2491.15   48.90
  -1   0   6 2487.45   52.29
   0   0  -6   90.49    6.60
   0   0  -6   96.19    6.50
   0   0  -6   83.19    6.10
   0   0  -6   94.09    4.10
   0   0  -6   91.69    6.60
   0   0  -6   98.09    5.20
   0   0   6   93.29    6.40
   0   0   6   93.19    5.00
   0   0   6   87.19    6.30
   0   0   6   96.19    6.60
   0   0   6   90.19    6.80
  -1   0  -6  257.07   11.30
  -1   0  -6  243.98   11.30
  -1   0  -6  251.17   10.90
  -1   0  -6  249.58    9.80
   1   0   6  259.77   11.70
   1   0   6  243.88    9.90
   1   0   6  239.78   10.80
   1   0   6  246.38   11.10
   1   0   6  249.48    8.30
  -2   0  -6  800.62   26.40
  -2   0  -6  799.02   22.10
  -2   0  -6  782.82   23.70
  -2   0  -6  811.72   21.70
   2   0   6  811.32   23.20
   2   0   6  797.72   21.90
   2   0   6  807.32   22.50
   2   0   6  754.32   23.40
   2   0   6  808.12   16.50
   2   0   6  823.92   21.30
  -3   0  -6  331.37   13.80
  -3   0  -6  336.97   12.00
  -3   0  -6  332.17   14.60
  -3   0  -6  330.37   14.80
   3   0   6  319.07   13.90
   3   0   6  328.97   14.80
   3   0   6  352.76   14.80
   3   0   6  338.07   12.40
   3   0   6  336.37   12.30
  -4   0  -6  780.82   24.00
  -4   0  -6  743.03   24.80
  -4   0  -6  792.82   25.60
  -4   0  -6  790.42   24.20
   4   0   6  785.32   25.60
   4   0   6  774.52   25.60
   4   0   6  809.22   20.40
   4   0   6  790.22   21.20
  -5   0  -6  506.05   24.40
  -5   0  -6  507.25   19.40
  -5   0  -6  422.76   20.20
  -5   0  -6  496.75   13.70
   5   0   6  499.35   21.00
   5   0   6  514.95   16.40
   5   0   6  514.65   20.50
   5   0   6  537.85   14.20
   5   0   6  486.35   19.70
  -6   0  -6  160.38   11.60
  -6   0  -6  152.18    9.20
  -6   0  -6  164.58   11.20
   6   0   6  166.18   10.90
   6   0   6  168.48    9.10
   6   0   6  173.98   12.90
   6   0   6  186.08   12.20
  -7   0  -6   67.29    7.70
  -7   0  -6   56.59    6.70
   7   0   6   61.19    7.10
   7   0   6   57.09    7.90
   7   0   6   78.19    8.60
   7   0   6   56.29    5.70
  -8   0  -6  377.06   26.60
   8   0   6  300.77   13.70
   8   0   6  338.97   16.80
   8   0   6  355.06   18.50
   8   0   6  313.27   24.90
  -9   0  -6   61.89    8.30
   9   0   6   55.89    8.90
   9   0   6   53.99    7.30
   9   0   6   54.29    8.00
 -10   0  -6   14.70    5.60
 -10   0  -6   11.70    4.60
  10   0   6    9.90    3.70
  10   0   6    9.10    4.00
  10   0   6   10.60    4.10
  10  -1  -6  362.26   22.80
 -10   1   6  348.17   17.90
 -10   1   6  332.47   21.70
   9  -1  -6    3.30    2.40
   9  -1  -6    1.60    2.50
  -9   1   6   -1.40    2.00
  -9   1   6   -1.00    2.70
  -9   1   6    5.50    3.40
   8  -1  -6   67.69   14.40
   8  -1  -6   67.89    7.10
   8  -1  -6   57.79    8.40
  -8   1   6   65.49    6.60
  -8   1   6   66.69    7.80
  -8   1   6   60.89    8.70
  -8   1   6   62.39    7.40
   7  -1  -6  239.28   12.30
   7  -1  -6  261.37   16.30
   7  -1  -6  273.37   16.50
   7  -1  -6  279.07   15.60
  -7   1   6  242.58   11.40
  -7   1   6  247.48   14.30
  -7   1   6  250.97   13.90
  -7   1   6  252.77   16.50
   6  -1  -6  814.32   27.00
   6  -1  -6  773.02   26.10
   6  -1  -6  854.11   24.40
   6  -1  -6  816.72   28.40
   6  -1  -6  803.42   28.70
  -6   1   6  801.52   21.70
  -6   1   6  801.62   26.30
  -6   1   6  799.82   24.90
  -6   1   6  820.62   29.80
  -6   1   6  753.02   26.40
   5  -1  -6   -2.00    1.40
   5  -1  -6    0.40    1.00
   5  -1  -6   -0.40    0.70
   5  -1  -6    1.70    1.90
   5  -1  -6   -1.50    1.30
   5  -1  -6    0.80    0.70
  -5   1   6    1.10    1.50
  -5   1   6    1.20    1.20
  -5   1   6   -0.50    1.40
  -5   1   6   -0.20    1.60
  -5   1   6   -0.30    1.50
   4  -1  -6 2497.15   50.99
   4  -1  -6 2446.26   52.69
   4  -1  -6 2450.95   45.90
   4  -1  -6 2413.86   54.49
   4  -1  -6 2560.44   55.59
   4  -1  -6 2548.95   55.39
  -4   1   6 2421.46   49.20
  -4   1   6 2935.11   71.69
  -4   1   6 2401.56   46.50
  -4   1   6 2395.86   56.39
  -4   1   6 2524.75   55.89
  -4   1   6 2370.66   52.49
  -4   1   6 2380.46   54.39
   3  -1  -6  816.62   25.20
   3  -1  -6  877.21   21.10
   3  -1  -6  919.41   26.00
   3  -1  -6  931.91   23.90
   3  -1  -6  881.71   25.50
   3  -1  -6  889.81   24.00
  -3   1   6  883.11   21.10
  -3   1   6  892.21   19.90
  -3   1   6  886.21   25.10
  -3   1   6  873.81   24.30
  -3   1   6  885.11   26.70
  -3   1   6  894.81   25.70
   2  -1  -6  849.22   21.60
   2  -1  -6  832.82   24.80
   2  -1  -6  875.81   20.30
   2  -1  -6  860.81   24.00
   2  -1  -6  886.11   22.50
  -2   1   6  867.61   19.50
  -2   1   6  835.52   25.40
  -2   1   6  890.31   24.10
  -2   1   6  861.01   24.00
  -2   1   6  868.91   18.90
  -2   1   6  898.91   22.00
   1  -1  -6    2.70    1.10
   1  -1  -6    0.40    1.00
   1  -1  -6    5.10    1.80
   1  -1  -6    1.70    1.20
  -1   1   6    3.10    1.60
  -1   1   6    0.90    1.20
  -1   1   6    2.30    1.50
  -1   1   6    2.60    1.10
  -1   1   6    4.80    1.70
   0  -1  -6 3484.35   64.99
   0  -1  -6 3434.16   66.99
   0  -1  -6 3427.86   66.29
   0  -1  -6 3437.46   63.29
   0  -1  -6 3451.15   67.29
   0   1   6 3395.46   60.19
   0   1   6 3451.85   66.39
   0   1   6 3405.06   66.19
   0   1   6 3512.45   67.99
  -1  -1  -6  325.27   12.90
  -1  -1  -6  317.97   13.20
  -1  -1  -6  317.37   11.80
   1   1   6  332.07   13.20
   1   1   6  326.27   11.20
   1   1   6  325.17   12.80
   1   1   6  322.97    9.90
   1   1   6  326.17   13.40
  -2  -1  -6  440.16   15.40
  -2  -1  -6  425.56   16.30
  -2  -1  -6  408.46   14.60
   2   1   6  441.26   16.60
   2   1   6  432.16   15.00
   2   1   6  438.36   10.20
   2   1   6  441.66   15.70
   2   1   6  439.16   15.00
  -3  -1  -6   25.70    4.00
  -3  -1  -6   27.80    2.60
  -3  -1  -6   31.30    4.50
  -3  -1  -6   26.30    4.20
  -3  -1  -6   30.10    3.70
   3   1   6   27.80    4.30
   3   1   6   29.30    3.70
   3   1   6   26.70    3.00
   3   1   6   28.30    3.90
   3   1   6   31.00    4.60
  -4  -1  -6  368.96   16.20
  -4  -1  -6  360.16   16.20
  -4  -1  -6  344.37   14.90
  -4  -1  -6  380.46   11.90
  -4  -1  -6  359.06   16.10
  -4  -1  -6  368.46   12.50
   4   1   6  363.36   16.10
   4   1   6  349.17   12.50
   4   1   6  347.77   15.80
   4   1   6  331.97   16.90
   4   1   6  357.96   11.80
  -5  -1  -6  653.23   22.40
  -5  -1  -6  631.14   23.30
  -5  -1  -6  640.04   17.30
  -5  -1  -6  714.93   25.20
  -5  -1  -6  694.53   19.10
  -5  -1  -6  658.03   23.70
  -5  -1  -6  668.03   24.20
   5   1   6  729.23   24.40
   5   1   6  687.03   24.60
   5   1   6  672.63   17.90
   5   1   6  647.94   23.30
   5   1   6  647.34   23.40
  -6  -1  -6  993.50   30.20
  -6  -1  -6  984.90   32.50
  -6  -1  -6  963.40   26.10
  -6  -1  -6  953.00   21.40
   6   1   6  988.40   32.80
   6   1   6  987.90   31.10
   6   1   6  957.70   23.60
   6   1   6  995.70   30.90
  -7  -1  -6   30.80    5.00
  -7  -1  -6   41.10    6.90
  -7  -1  -6   49.20    6.60
   7   1   6   30.10    6.40
   7   1   6   51.29    6.90
   7   1   6   48.30    6.80
   7   1   6   35.90    4.20
  -8  -1  -6   -2.90    1.50
  -8  -1  -6   -1.00    1.80
   8   1   6   -1.80    1.60
   8   1   6    4.60    2.80
   8   1   6    0.20    1.80
  -9  -1  -6    3.00    3.00
  -9  -1  -6    5.10    2.70
   9   1   6   -0.10    2.20
   9   1   6    3.20    2.20
   9   1   6    3.30    3.40
   9   1   6    4.00    3.10
 -10  -1  -6  138.29   14.50
 -10  -1  -6  136.19   12.80
  10   1   6  126.39   11.80
  10   1   6  131.49   14.70
  10   1   6  136.59   12.00
  10  -2  -6    0.40    2.60
  10  -2  -6    2.40    3.30
 -10   2   6    3.90    4.30
 -10   2   6   -2.10    2.10
   9  -2  -6   96.19    9.50
   9  -2  -6   86.49   11.10
  -9   2   6   86.19    9.00
  -9   2   6   71.49    8.20
  -9   2   6   81.09   10.80
   8  -2  -6    6.50    2.80
   8  -2  -6   18.90    5.60
  -8   2   6    8.80    4.30
  -8   2   6    6.90    3.10
  -8   2   6   12.30    3.60
  -8   2   6   19.10    4.60
   7  -2  -6   14.60    3.80
   7  -2  -6   24.70    5.70
   7  -2  -6   18.70    4.70
  -7   2   6   33.60    6.70
  -7   2   6   12.00    3.50
  -7   2   6   24.70    4.50
  -7   2   6   29.20    4.60
   6  -2  -6  219.38   13.70
   6  -2  -6  209.18   12.40
   6  -2  -6  224.48   12.40
   6  -2  -6  223.88   14.60
   6  -2  -6  212.78    7.10
   6  -2  -6  216.98   12.60
  -6   2   6  196.98   14.00
  -6   2   6  212.58   10.90
  -6   2   6  222.28   11.90
  -6   2   6  236.98   13.60
   5  -2  -6   12.90    3.30
   5  -2  -6    6.10    2.30
   5  -2  -6    7.90    2.50
   5  -2  -6    7.70    2.90
   5  -2  -6    3.80    2.40
   5  -2  -6    8.00    1.90
  -5   2   6    6.50    2.20
  -5   2   6    8.20    3.00
  -5   2   6    4.30    1.90
  -5   2   6    6.20    2.00
  -5   2   6    9.30    3.10
   4  -2  -6    8.90    3.20
   4  -2  -6   10.10    2.90
   4  -2  -6   10.40    2.70
   4  -2  -6   14.60    3.70
   4  -2  -6    5.10    1.60
  -4   2   6   10.00    2.40
  -4   2   6   10.80    3.40
  -4   2   6    5.50    2.60
  -4   2   6   12.00    2.50
  -4   2   6    9.10    2.90
  -4   2   6    5.20    2.20
   3  -2  -6 1009.10   25.40
   3  -2  -6 1024.70   25.40
   3  -2  -6 1019.80   27.00
   3  -2  -6  966.70   28.20
   3  -2  -6 1022.30   27.80
   3  -2  -6  964.70   23.90
   3  -2  -6 1037.60   29.40
  -3   2   6 1012.10   24.20
  -3   2   6 1018.70   29.60
  -3   2   6  988.80   22.90
  -3   2   6  968.50   26.00
  -3   2   6  984.10   27.70
   2  -2  -6 1899.21   38.00
   2  -2  -6 1775.62   42.40
   2  -2  -6 1804.92   38.80
   2  -2  -6 1795.92   40.20
   2  -2  -6 1840.12   38.70
  -2   2   6 1840.52   41.40
  -2   2   6 1890.41   34.50
  -2   2   6 1834.92   43.30
   1  -2  -6   69.29    5.40
   1  -2  -6   63.09    5.20
   1  -2  -6   71.79    4.70
   1  -2  -6   67.39    5.20
   1  -2  -6   65.19    6.00
  -1   2   6   67.89    5.70
  -1   2   6   71.59    5.10
  -1   2   6   59.29    5.40
   0  -2  -6 2568.34   50.99
   0  -2  -6 2562.94   53.49
   0  -2  -6 2578.54   53.59
   0  -2  -6 2575.54   50.09
   0  -2  -6 2522.05   52.39
   0   2   6 2602.64   54.29
   0   2   6 2624.24   52.69
   0   2   6 2557.44   50.69
   0   2   6 2523.35   46.10
   0   2   6 2530.15   52.59
  -1  -2  -6 2083.59   45.00
  -1  -2  -6 2064.09   41.20
  -1  -2  -6 2100.79   45.40
  -1  -2  -6 2005.80   44.30
  -1  -2  -6 2086.19   43.70
   1   2   6 2115.39   41.20
   1   2   6 2089.69   45.20
   1   2   6 2005.90   44.00
   1   2   6 2028.50   45.40
  -2  -2  -6  462.75   16.50
  -2  -2  -6  455.85   19.00
  -2  -2  -6  451.05   15.80
  -2  -2  -6  431.46   16.70
  -2  -2  -6  451.05   15.40
   2   2   6  465.15   16.00
   2   2   6  452.15   16.20
   2   2   6  427.86   17.00
   2   2   6  471.95   15.50
  -3  -2  -6  378.86   15.60
  -3  -2  -6  384.06    9.60
  -3  -2  -6  395.96   15.30
  -3  -2  -6  387.96   16.10
  -3  -2  -6  368.46   13.80
  -3  -2  -6  368.76   15.10
   3   2   6  397.26   14.40
   3   2   6  376.96   15.10
   3   2   6  376.96   16.00
   3   2   6  382.46   15.20
   3   2   6  371.46   11.00
  -4  -2  -6 3469.85   71.99
  -4  -2  -6 3460.95   71.89
  -4  -2  -6 3470.15   71.69
  -4  -2  -6 3461.15   65.69
  -4  -2  -6 3486.95   69.69
  -4  -2  -6 3438.06   62.09
   4   2   6 3471.25   72.59
   4   2   6 3404.86   71.49
   4   2   6 3455.55   60.99
   4   2   6 3371.96   71.29
   4   2   6 3464.95   71.79
   4   2   6 3481.45   66.09
  -5  -2  -6  174.48   11.40
  -5  -2  -6  190.18   12.20
  -5  -2  -6  186.78   12.20
  -5  -2  -6  194.68    8.70
  -5  -2  -6  203.18   12.80
  -5  -2  -6  204.18    8.90
  -5  -2  -6  197.88   13.20
  -5  -2  -6  196.08   11.30
   5   2   6  209.78   12.50
   5   2   6  191.08   12.40
   5   2   6  195.28    7.00
   5   2   6  177.58   11.30
   5   2   6  192.88   12.30
  -6  -2  -6  299.67   16.70
  -6  -2  -6  285.57   14.60
  -6  -2  -6  303.67   15.70
  -6  -2  -6  278.17   12.00
   6   2   6  296.47    9.00
   6   2   6  280.47   15.60
   6   2   6  317.07   17.20
   6   2   6  293.87   15.50
  -7  -2  -6  366.66   19.70
  -7  -2  -6  357.06   10.70
  -7  -2  -6  394.76   18.20
  -7  -2  -6  349.07   14.90
   7   2   6  356.76   18.30
   7   2   6  388.26   18.70
   7   2   6  398.86   20.60
   7   2   6  353.86   10.20
  -8  -2  -6   94.99    9.30
  -8  -2  -6   76.09    9.70
   8   2   6   87.69    9.30
   8   2   6  100.99   11.40
   8   2   6   92.99    9.30
  -9  -2  -6  173.48   15.10
  -9  -2  -6  164.68   13.10
   9   2   6  156.48   14.40
   9   2   6  147.29   12.60
   9   2   6  143.49   12.10
 -10  -2  -6  215.18   15.80
 -10  -2  -6  209.58   17.80
  10   2   6  199.68   15.10
  10   2   6  215.88   18.00
  10   2   6  206.08   14.70
   9  -3  -6   40.50    9.00
   9  -3  -6   45.90    7.80
  -9   3   6   45.60    6.60
  -9   3   6   53.99    9.40
   8  -3  -6    3.20    1.70
   8  -3  -6   -2.10    2.10
   8  -3  -6    1.40    2.60
  -8   3   6   -0.50    1.80
  -8   3   6   -0.40    2.20
  -8   3   6    3.50    2.20
   7  -3  -6   41.00    7.40
   7  -3  -6   37.80    6.20
   7  -3  -6   37.80    3.70
   7  -3  -6   36.70    3.40
  -7   3   6   29.40    6.50
  -7   3   6   35.40    4.70
  -7   3   6   30.70    5.50
  -7   3   6   40.40    5.90
   6  -3  -6   53.89    4.60
   6  -3  -6   52.49    7.10
   6  -3  -6   53.49    7.60
   6  -3  -6   53.29    3.50
   6  -3  -6   56.69    6.90
  -6   3   6   52.09    6.60
  -6   3   6   49.80    7.20
  -6   3   6   44.80    5.50
  -6   3   6   42.10    5.50
  -6   3   6   59.09    6.10
   5  -3  -6  411.06   18.00
   5  -3  -6  389.96   15.80
   5  -3  -6  383.46   18.90
   5  -3  -6  409.76   17.40
   5  -3  -6  385.96   13.10
   5  -3  -6  404.36   17.60
  -5   3   6  401.96   15.70
  -5   3   6  396.36   19.20
  -5   3   6  415.66   15.40
  -5   3   6  396.76   16.70
  -5   3   6  410.66   18.00
   4  -3  -6  188.68    8.90
   4  -3  -6  194.68   11.30
   4  -3  -6  181.58   12.00
   4  -3  -6  209.08   11.60
   4  -3  -6  188.48   11.30
   4  -3  -6  188.28    9.70
  -4   3   6  181.18   11.40
  -4   3   6  166.58   11.70
  -4   3   6  175.98    9.60
  -4   3   6  185.68    9.00
   3  -3  -6  107.69    7.80
   3  -3  -6   96.19    7.30
   3  -3  -6  100.39    8.00
   3  -3  -6  102.79    6.70
   3  -3  -6   96.59    6.20
   3  -3  -6  105.39    8.00
  -3   3   6  106.59    5.90
  -3   3   6  108.99    8.80
  -3   3   6  100.39    8.30
  -3   3   6   86.99    7.50
  -3   3   6  107.89    7.10
  -3   3   6   99.99    6.80
   2  -3  -6   69.49    4.70
   2  -3  -6   61.99    6.20
   2  -3  -6   70.09    5.50
   2  -3  -6   64.79    7.30
   2  -3  -6   70.39    5.80
   2  -3  -6   64.29    5.80
  -2   3   6   61.09    5.00
  -2   3   6   53.39    6.10
  -2   3   6   67.29    6.70
  -2   3   6   57.79    3.60
  -2   3   6   70.79    5.60
  -2   3   6   64.69    6.00
   1  -3  -6 1704.93   33.00
   1  -3  -6 1704.23   38.50
   1  -3  -6 1712.63   36.30
   1  -3  -6 1661.63   38.20
   1  -3  -6 1677.83   30.70
  -1   3   6 1697.73   29.40
  -1   3   6 1675.83   37.20
  -1   3   6 1677.43   38.60
  -1   3   6 1664.63   40.60
  -1   3   6 1733.93   39.10
   0  -3  -6    8.70    2.60
   0  -3  -6    4.90    1.50
   0  -3  -6    6.50    1.70
   0  -3  -6    4.30    1.60
   0   3   6    5.00    2.10
   0   3   6    3.20    1.60
   0   3   6    5.00    1.70
   0   3   6   11.00    2.60
   0   3   6    3.90    1.80
  -1  -3  -6 2437.06   46.60
  -1  -3  -6 2438.86   47.90
  -1  -3  -6 2427.16   51.09
  -1  -3  -6 2349.26   51.49
  -1  -3  -6 2391.46   51.29
   1   3   6 2485.95   51.29
   1   3   6 2403.26   52.09
   1   3   6 2457.45   47.30
   1   3   6 2337.97   52.39
   1   3   6 2422.86   50.39
  -2  -3  -6  982.10   26.10
  -2  -3  -6 1051.09   27.40
  -2  -3  -6  988.00   27.00
  -2  -3  -6  975.80   28.10
   2   3   6 1011.00   28.60
   2   3   6 1010.50   26.00
   2   3   6  957.40   26.30
   2   3   6 1025.00   27.60
   2   3   6 1023.20   22.40
  -3  -3  -6  530.25   17.90
  -3  -3  -6  568.54   20.30
  -3  -3  -6  531.85   18.50
  -3  -3  -6  525.05   18.90
  -3  -3  -6  519.95   20.00
   3   3   6  555.24   18.40
   3   3   6  558.64   21.00
   3   3   6  545.15   20.10
   3   3   6  553.74   12.40
   3   3   6  542.75   13.00
   3   3   6  542.95   19.00
   3   3   6  535.55   12.70
   3   3   6  522.15   18.40
  -4  -3  -6  324.17   15.60
  -4  -3  -6  352.46   14.90
  -4  -3  -6  343.97   16.00
  -4  -3  -6  346.17   13.60
  -4  -3  -6  328.17   15.90
  -4  -3  -6  335.67   10.20
   4   3   6  349.87   14.00
   4   3   6  340.47   16.10
   4   3   6  350.96   15.90
   4   3   6  343.17   16.10
   4   3   6  359.66   17.00
  -5  -3  -6  594.54   21.00
  -5  -3  -6  577.04   23.20
  -5  -3  -6  605.34   18.50
  -5  -3  -6  616.34   16.90
  -5  -3  -6  594.74   23.10
   5   3   6  551.44   21.00
   5   3   6  581.24   22.40
   5   3   6  642.54   24.40
   5   3   6  593.34   23.00
  -6  -3  -6    3.40    1.70
  -6  -3  -6    2.10    1.50
  -6  -3  -6   -0.50    1.30
  -6  -3  -6    2.90    2.30
  -6  -3  -6    2.70    1.70
   6   3   6    2.10    2.20
   6   3   6    3.50    2.50
   6   3   6    6.00    3.50
  -7  -3  -6  110.39    6.70
  -7  -3  -6  111.29    7.90
  -7  -3  -6  139.39   12.00
  -7  -3  -6  118.89    9.70
   7   3   6  110.19   11.10
   7   3   6  116.19   10.30
   7   3   6  111.79   10.50
  -8  -3  -6  309.67   10.10
  -8  -3  -6  334.07   19.90
  -8  -3  -6  325.37   17.10
   8   3   6  313.07   17.20
   8   3   6  310.67   18.50
   8   3   6  298.87   19.30
  -9  -3  -6   10.50    4.00
  -9  -3  -6   15.20    4.00
   9   3   6   14.20    4.60
   9   3   6   13.70    4.60
   9   3   6   18.50    5.40
 -10  -3  -6    2.20    4.00
 -10  -3  -6   -2.90    2.30
  10   3   6   -2.90    4.00
  10   3   6   -5.50    3.30
  10   3   6   -1.30    2.00
   9  -4  -6  144.19   14.50
   9  -4  -6  151.08   13.10
  -9   4   6  135.79   10.90
  -9   4   6  170.88   15.40
   8  -4  -6   17.20    5.40
   8  -4  -6   13.80    2.80
   8  -4  -6   15.20    3.60
   8  -4  -6   19.10    5.00
  -8   4   6   16.80    5.30
  -8   4   6   18.40    3.90
  -8   4   6   14.90    4.60
   7  -4  -6  658.93   19.40
   7  -4  -6  698.63   18.60
   7  -4  -6  776.22   31.80
   7  -4  -6  701.03   27.10
  -7   4   6  730.63   30.10
  -7   4   6  667.83   20.60
  -7   4   6  704.73   26.10
   6  -4  -6  120.49   11.30
   6  -4  -6  114.09    5.80
   6  -4  -6  112.29    7.20
   6  -4  -6  112.19   10.00
  -6   4   6   92.99    7.50
  -6   4   6  102.39    8.90
  -6   4   6  122.29   11.10
  -6   4   6  102.09    9.20
   5  -4  -6  104.99    7.40
   5  -4  -6  120.59    9.60
   5  -4  -6  113.59   10.40
   5  -4  -6  123.19   11.20
   5  -4  -6  116.09    5.00
   5  -4  -6  116.69    9.70
  -5   4   6  106.49    9.40
  -5   4   6  116.99   10.50
  -5   4   6  106.49    9.80
  -5   4   6  112.19    8.90
   4  -4  -6  347.77   16.20
   4  -4  -6  334.07   15.80
   4  -4  -6  341.37   16.30
   4  -4  -6  329.57   13.50
   4  -4  -6  342.27   17.40
   4  -4  -6  365.36   15.60
  -4   4   6  338.07   13.00
  -4   4   6  337.67   16.90
  -4   4   6  334.67   16.20
  -4   4   6  321.37   14.50
   3  -4  -6 1129.09   29.40
   3  -4  -6 1170.48   32.80
   3  -4  -6 1179.78   26.40
   3  -4  -6 1140.09   32.70
   3  -4  -6 1129.69   30.40
   3  -4  -6 1166.58   32.90
  -3   4   6 1141.49   33.10
  -3   4   6 1155.88   26.50
  -3   4   6 1158.88   28.60
  -3   4   6 1154.98   32.00
  -3   4   6 1153.28   33.10
  -3   4   6 1108.89   30.00
   2  -4  -6 1244.48   24.20
   2  -4  -6 1257.67   33.90
   2  -4  -6 1238.08   31.50
   2  -4  -6 1238.68   25.80
   2  -4  -6 1237.88   33.00
   2  -4  -6 1255.17   30.10
  -2   4   6 1290.27   36.50
  -2   4   6 1248.38   31.60
  -2   4   6 1236.78   28.80
  -2   4   6 1187.98   33.70
  -2   4   6 1281.97   26.10
  -2   4   6 1244.48   33.20
   1  -4  -6 2224.88   49.50
   1  -4  -6 2294.37   50.89
   1  -4  -6 2300.17   51.69
   1  -4  -6 2307.07   41.30
   1  -4  -6 2346.37   43.10
   1  -4  -6 2381.56   46.40
  -1   4   6 2364.16   40.80
  -1   4   6 2296.97   49.40
  -1   4   6 2227.58   49.40
  -1   4   6 2258.47   51.99
  -1   4   6 2358.16   49.80
   0  -4  -6   72.79    3.40
   0  -4  -6   75.99    4.90
   0  -4  -6   65.79    6.40
   0  -4  -6   71.09    6.50
   0  -4  -6   75.59    5.00
   0   4   6   61.79    6.50
   0   4   6   73.99    5.80
   0   4   6   73.19    6.10
   0   4   6   61.29    5.90
  -1  -4  -6    7.20    2.10
  -1  -4  -6   20.40    4.00
  -1  -4  -6   16.90    2.40
  -1  -4  -6   16.20    3.50
  -1  -4  -6    6.60    2.30
  -1  -4  -6   15.20    2.90
   1   4   6    9.10    2.60
   1   4   6   13.30    2.80
   1   4   6   22.30    3.80
   1   4   6   14.90    2.60
  -2  -4  -6   39.10    5.30
  -2  -4  -6   41.30    5.00
  -2  -4  -6   43.00    4.80
  -2  -4  -6   36.30    5.00
  -2  -4  -6   44.50    5.20
   2   4   6   39.10    4.70
   2   4   6   42.50    5.40
   2   4   6   44.80    3.40
   2   4   6   45.90    5.40
  -3  -4  -6 2402.16   51.99
  -3  -4  -6 2396.36   54.69
  -3  -4  -6 2469.55   54.09
  -3  -4  -6 2456.95   55.29
  -3  -4  -6 2366.56   52.09
   3   4   6 2433.36   45.20
   3   4   6 2476.85   55.49
   3   4   6 2367.36   51.99
   3   4   6 2440.96   53.09
   3   4   6 2465.35   56.89
   3   4   6 2414.36   52.99
  -4  -4  -6    1.00    2.10
  -4  -4  -6    2.80    1.10
  -4  -4  -6    0.40    1.50
  -4  -4  -6    2.40    1.70
  -4  -4  -6    1.10    1.50
  -4  -4  -6    5.20    2.10
   4   4   6    3.00    1.00
   4   4   6    3.40    1.80
   4   4   6    3.10    2.00
   4   4   6    4.70    2.00
  -5  -4  -6 1179.98   26.90
  -5  -4  -6 1155.18   30.50
  -5  -4  -6 1236.48   36.50
  -5  -4  -6 1209.88   32.60
  -5  -4  -6 1178.28   30.30
   5   4   6 1158.08   33.10
   5   4   6 1175.78   22.50
   5   4   6 1166.78   36.60
   5   4   6 1188.88   34.80
   5   4   6 1152.88   35.20
  -6  -4  -6   32.40    4.00
  -6  -4  -6   28.10    5.10
  -6  -4  -6   27.90    5.60
  -6  -4  -6   30.40    4.70
  -6  -4  -6   27.90    4.20
   6   4   6   15.70    4.40
   6   4   6   32.60    6.10
   6   4   6   36.40    6.20
  -7  -4  -6   10.20    3.20
  -7  -4  -6    5.80    2.50
  -7  -4  -6   12.70    4.10
  -7  -4  -6   10.30    2.70
  -7  -4  -6   10.50    2.90
   7   4   6    9.40    3.50
   7   4   6   14.50    4.40
   7   4   6    8.60    4.00
  -8  -4  -6    8.70    3.10
  -8  -4  -6    8.70    3.60
  -8  -4  -6   13.60    2.60
   8   4   6    6.30    3.90
   8   4   6    3.30    2.90
  -9  -4  -6  193.88   13.70
  -9  -4  -6  215.78   17.00
   9   4   6  203.38   16.50
   9   4   6  194.78   15.70
   9   4   6  182.78   16.80
 -10  -4  -6    3.70    2.60
 -10  -4  -6    1.60    4.10
  10   4   6    2.70    3.80
  10   4   6    0.20    3.10
   9  -5  -6  165.78   16.00
   9  -5  -6  174.68   14.90
  -9   5   6  150.98   12.70
  -9   5   6  188.98   16.90
   8  -5  -6    2.80    1.90
   8  -5  -6    5.10    2.60
   8  -5  -6    6.60    3.80
   8  -5  -6    2.70    2.80
   8  -5  -6    6.90    3.30
  -8   5   6    7.80    1.70
  -8   5   6    8.30    3.20
  -8   5   6   14.70    5.10
   7  -5  -6  529.45   24.20
   7  -5  -6  528.85   26.30
   7  -5  -6  524.35   16.40
  -7   5   6  546.95   22.80
  -7   5   6  499.15   15.90
  -7   5   6  494.85   25.00
   6  -5  -6  482.95   22.10
   6  -5  -6  460.85   14.60
   6  -5  -6  474.05   23.60
  -6   5   6  470.15   23.00
  -6   5   6  462.25   17.00
  -6   5   6  471.55   20.90
   5  -5  -6    4.90    1.70
   5  -5  -6    7.10    2.80
   5  -5  -6    6.40    3.00
  -5   5   6    2.80    2.70
  -5   5   6   10.40    3.40
  -5   5   6    8.60    2.50
  -5   5   6    2.60    2.20
   4  -5  -6    3.20    1.40
   4  -5  -6    0.90    1.70
   4  -5  -6    2.20    1.60
   4  -5  -6    2.50    2.10
   4  -5  -6    4.40    2.20
  -4   5   6    3.80    2.10
  -4   5   6    3.20    2.30
  -4   5   6    2.20    1.80
  -4   5   6    2.90    2.50
   3  -5  -6  531.15   21.30
   3  -5  -6  526.65   21.40
   3  -5  -6  521.45   20.70
  -3   5   6  524.75   16.90
  -3   5   6  536.95   21.30
  -3   5   6  527.65   20.90
  -3   5   6  525.45   20.10
   2  -5  -6  215.98   12.60
   2  -5  -6  231.08   15.30
   2  -5  -6  221.58   12.90
   2  -5  -6  225.58    8.60
   2  -5  -6  219.48   10.00
   2  -5  -6  222.98   13.00
  -2   5   6  209.08    9.20
  -2   5   6  221.98   12.00
  -2   5   6  228.08   12.40
  -2   5   6  221.08   11.80
  -2   5   6  224.78   13.20
   1  -5  -6  508.15   15.00
   1  -5  -6  478.85   19.40
   1  -5  -6  470.15   18.20
   1  -5  -6  484.75   14.70
   1  -5  -6  509.05   19.90
   1  -5  -6  493.25   19.50
  -1   5   6  489.75   17.90
  -1   5   6  484.95   18.40
  -1   5   6  523.65   18.20
  -1   5   6  470.85   19.50
   0  -5  -6   25.30    4.80
   0  -5  -6   19.70    3.20
   0  -5  -6   31.90    3.00
   0  -5  -6   24.50    4.20
   0  -5  -6   19.80    3.90
   0   5   6   20.50    4.30
   0   5   6   25.20    4.50
   0   5   6   27.10    3.80
   0   5   6   20.70    1.90
   0   5   6   23.70    3.50
   0   5   6   18.10    3.90
  -1  -5  -6    5.10    2.40
  -1  -5  -6    4.40    2.50
  -1  -5  -6    3.10    1.10
  -1  -5  -6    3.70    2.20
  -1  -5  -6    2.40    1.50
   1   5   6    4.60    1.70
   1   5   6    4.30    2.40
   1   5   6    3.90    2.60
   1   5   6    4.40    1.00
   1   5   6    5.30    2.20
  -2  -5  -6  325.77   17.60
  -2  -5  -6  340.67   14.40
  -2  -5  -6  301.07   15.50
  -2  -5  -6  315.07   15.40
  -2  -5  -6  323.37   14.20
  -2  -5  -6  323.27    9.70
  -2  -5  -6  334.67    8.60
   2   5   6  326.37   13.60
   2   5   6  338.97   10.00
   2   5   6  320.97   15.60
   2   5   6  325.87   16.30
   2   5   6  326.87    8.90
   2   5   6  335.37   15.60
  -3  -5  -6  523.45   21.10
  -3  -5  -6  501.35   13.80
  -3  -5  -6  512.45   19.90
  -3  -5  -6  521.15   18.40
   3   5   6  491.35   20.60
   3   5   6  493.55   18.10
   3   5   6  531.55   15.30
   3   5   6  512.05   21.80
  -4  -5  -6   68.39    5.20
  -4  -5  -6   67.89    7.60
  -4  -5  -6   76.29    8.30
  -4  -5  -6   69.89    6.60
   4   5   6   77.09    5.00
   4   5   6   72.39    8.20
   4   5   6   87.39    8.90
  -5  -5  -6  347.37   18.10
  -5  -5  -6  391.66   23.10
  -5  -5  -6  329.27   14.90
  -5  -5  -6  306.37   12.90
   5   5   6  322.97   10.50
   5   5   6  319.87   15.30
   5   5   6  323.17   18.20
  -6  -5  -6  372.76   16.60
  -6  -5  -6  349.17   14.30
  -6  -5  -6  401.16   20.50
  -6  -5  -6  368.46   15.40
   6   5   6  337.47   19.50
   6   5   6  365.76   10.80
   6   5   6  389.96   20.10
  -7  -5  -6  404.46   18.30
  -7  -5  -6  412.26   21.80
  -7  -5  -6  390.46   16.20
  -7  -5  -6  426.36   18.50
   7   5   6  388.06   24.80
  -8  -5  -6    8.00    3.10
  -8  -5  -6    7.70    3.80
  -8  -5  -6    6.60    2.70
   8   5   6   13.30    4.80
   8   5   6    9.80    4.30
  -9  -5  -6  124.19   10.80
  -9  -5  -6  125.69   13.50
   9   5   6  115.39   12.90
   9   5   6  114.49   13.00
   8  -6  -6  129.09   13.10
   8  -6  -6  129.79   14.10
  -8   6   6  107.79   12.70
  -8   6   6  105.79   11.00
   7  -6  -6   -0.30    1.90
   7  -6  -6   -0.90    2.20
   7  -6  -6    1.30    1.70
  -7   6   6   -1.40    2.40
  -7   6   6   -0.30    1.30
  -7   6   6   -2.60    2.00
   6  -6  -6  466.65   15.90
   6  -6  -6  480.95   24.30
   6  -6  -6  432.56   22.10
  -6   6   6  395.16   15.40
  -6   6   6  467.45   21.40
  -6   6   6  428.76   14.60
  -6   6   6  467.45   23.40
   5  -6  -6  704.43   29.20
   5  -6  -6  666.53   19.80
   5  -6  -6  711.73   28.10
  -5   6   6  669.53   26.00
  -5   6   6  712.53   21.10
  -5   6   6  683.33   27.80
   4  -6  -6  257.57   16.10
   4  -6  -6  256.17   15.70
   4  -6  -6  253.27   16.00
  -4   6   6  262.47   15.30
  -4   6   6  290.67   13.00
  -4   6   6  255.37   15.30
   3  -6  -6  253.17   15.40
   3  -6  -6  240.78   13.60
   3  -6  -6  258.87   15.20
  -3   6   6  239.98   12.30
  -3   6   6  253.37   10.80
  -3   6   6  274.17   22.40
  -3   6   6  240.68   14.40
  -3   6   6  244.98   14.20
   2  -6  -6  220.38    9.60
   2  -6  -6  213.08   13.60
   2  -6  -6  224.28   13.60
   2  -6  -6  236.98   10.20
   2  -6  -6  194.38   12.30
  -2   6   6  234.28   14.00
  -2   6   6  214.88   12.00
  -2   6   6  217.88   12.10
  -2   6   6  222.88   12.80
  -2   6   6  212.78   12.40
   1  -6  -6   15.10    4.00
   1  -6  -6   18.50    3.30
   1  -6  -6   20.50    4.70
   1  -6  -6   13.60    3.50
   1  -6  -6   24.70    3.00
  -1   6   6   20.20    4.10
  -1   6   6   17.20    3.70
  -1   6   6   20.10    4.20
  -1   6   6   24.50    5.10
  -1   6   6   19.70    3.90
   0  -6  -6   61.39    3.80
   0  -6  -6   66.29    7.70
   0  -6  -6   68.49    6.00
   0   6   6   80.89    8.10
   0   6   6   63.29    6.40
   0   6   6   67.09    7.10
   0   6   6   54.79    6.40
   0   6   6   68.69    5.90
  -1  -6  -6  474.35   20.60
  -1  -6  -6  488.45   20.00
  -1  -6  -6  483.45   17.90
  -1  -6  -6  490.35   11.30
   1   6   6  503.05   17.60
   1   6   6  513.15   20.90
   1   6   6  507.05   12.80
   1   6   6  489.85   15.10
   1   6   6  451.15   19.30
  -2  -6  -6    1.40    1.40
  -2  -6  -6   -0.20    1.90
  -2  -6  -6    3.30    2.80
   2   6   6    2.20    1.00
   2   6   6    3.90    2.70
   2   6   6    2.60    1.10
   2   6   6    1.40    1.30
  -3  -6  -6   28.50    2.50
  -3  -6  -6   38.00    5.50
  -3  -6  -6   31.10    5.20
  -3  -6  -6   35.40    4.80
  -3  -6  -6   32.70    5.60
  -3  -6  -6   32.30    2.30
   3   6   6   29.20    4.50
   3   6   6   32.70    3.50
   3   6   6   33.70    4.10
   3   6   6   43.30    6.60
  -4  -6  -6    9.30    1.80
  -4  -6  -6    9.30    2.00
  -4  -6  -6    7.90    2.90
  -4  -6  -6   13.20    4.10
  -4  -6  -6   17.30    4.00
   4   6   6   12.80    3.20
   4   6   6    7.50    2.00
   4   6   6   16.90    3.10
   4   6   6    9.00    3.60
  -5  -6  -6    3.30    1.90
  -5  -6  -6    4.80    2.90
  -5  -6  -6    3.20    1.50
  -5  -6  -6    3.80    2.10
   5   6   6    2.70    2.20
   5   6   6    7.20    3.10
   5   6   6    3.80    1.90
  -6  -6  -6   -2.80    1.00
  -6  -6  -6    1.80    1.90
  -6  -6  -6    1.00    2.50
  -6  -6  -6    0.90    1.90
   6   6   6    0.30    1.40
   6   6   6   -0.30    2.90
  -7  -6  -6  169.98    9.50
  -7  -6  -6  184.98   11.70
  -7  -6  -6  184.18   14.90
   7   6   6  183.98    8.20
   7   6   6  176.28   15.00
  -8  -6  -6   57.59    7.50
  -8  -6  -6   59.09    9.60
  -8  -6  -6   67.09    7.20
   8   6   6   73.09   10.20
  -9  -6  -6    1.90    2.80
  -9  -6  -6   10.90    4.80
   9   6   6    3.50    4.10
   8  -7  -6  336.37   21.40
   8  -7  -6  336.07   23.00
  -8   7   6  330.17   22.30
   7  -7  -6    2.80    3.60
   7  -7  -6    1.90    2.60
   7  -7  -6   -2.20    1.80
  -7   7   6    1.70    2.40
   6  -7  -6   10.60    3.90
   6  -7  -6    8.10    3.60
   6  -7  -6    4.60    2.80
  -6   7   6    8.30    2.70
  -6   7   6   12.70    2.80
  -6   7   6   11.20    4.40
   5  -7  -6  389.76   15.90
   5  -7  -6  429.06   22.60
   5  -7  -6  405.46   22.40
  -5   7   6  398.66   26.70
  -5   7   6  428.06   20.80
  -5   7   6  400.26   14.80
   4  -7  -6  903.21   34.00
   4  -7  -6  888.21   32.70
   4  -7  -6  879.71   33.10
  -4   7   6  904.51   31.70
  -4   7   6  912.81   31.90
   3  -7  -6   16.00    5.00
   3  -7  -6   10.00    4.30
  -3   7   6   13.70    2.90
  -3   7   6   10.40    3.50
  -3   7   6   12.80    3.40
  -3   7   6   16.30    4.80
   2  -7  -6 1738.93   40.60
   2  -7  -6 1810.92   49.99
   2  -7  -6 1760.02   48.10
  -2   7   6 1845.12   44.80
  -2   7   6 1860.41   49.00
  -2   7   6 1825.92   45.50
   1  -7  -6  947.71   26.60
   1  -7  -6  893.41   31.10
   1  -7  -6  976.70   33.20
  -1   7   6  986.10   30.30
  -1   7   6  955.10   28.10
  -1   7   6  958.00   28.00
   0  -7  -6  218.28   11.70
   0  -7  -6  225.78   14.10
   0  -7  -6  231.98   14.90
   0   7   6  199.08   12.50
   0   7   6  215.98   11.50
   0   7   6  218.28   13.60
  -1  -7  -6  273.77   16.20
  -1  -7  -6  239.18   15.20
   1   7   6  248.68   10.60
   1   7   6  250.87    9.30
   1   7   6  254.87   15.20
  -2  -7  -6 1077.59   35.30
  -2  -7  -6 1040.90   32.10
   2   7   6 1071.69   34.90
   2   7   6 1057.09   24.40
   2   7   6 1005.30   31.60
   2   7   6 1071.99   23.20
  -3  -7  -6   87.99    9.40
   3   7   6   91.39   10.00
   3   7   6   84.39    5.90
   3   7   6   80.39    6.60
  -4  -7  -6  111.69   10.90
  -4  -7  -6  116.39    8.70
  -4  -7  -6  108.99    5.30
   4   7   6  105.89    8.30
   4   7   6  110.89    7.20
   4   7   6  119.79    7.90
   4   7   6  110.49   11.10
  -5  -7  -6  132.89    9.30
  -5  -7  -6  124.79   15.10
  -5  -7  -6  127.19    7.00
   5   7   6  126.69   17.50
   5   7   6  146.49    8.70
   5   7   6  137.99    8.70
   5   7   6  124.39    9.60
  -6  -7  -6   69.49    4.40
  -6  -7  -6   89.19    8.00
  -6  -7  -6   70.89    9.50
   6   7   6   79.89    6.60
   6   7   6   77.09   10.00
  -7  -7  -6    6.20    3.70
  -7  -7  -6    6.70    1.90
  -7  -7  -6    5.90    2.90
   7   7   6    5.70    2.70
   7   7   6   13.60    6.00
  -8  -7  -6  103.29    9.10
  -8  -7  -6   86.19   11.50
   8   7   6   95.39   12.60
   7  -8  -6   81.89   11.40
   7  -8  -6   98.49   12.60
  -7   8   6   99.19   12.60
   6  -8  -6  102.79   12.00
   6  -8  -6  108.89    9.30
   6  -8  -6  105.89   12.60
  -6   8   6  114.19   12.30
   5  -8  -6    7.40    3.90
   5  -8  -6    5.20    3.30
  -5   8   6   11.90    2.80
  -5   8   6    5.90    3.00
   4  -8  -6  589.54   26.80
   4  -8  -6  556.04   26.40
  -4   8   6  568.74   24.90
  -4   8   6  553.44   19.60
   3  -8  -6   89.19   10.60
   3  -8  -6   94.59   10.30
  -3   8   6   90.89    8.10
  -3   8   6   84.19    9.10
  -3   8   6   79.09    5.80
   2  -8  -6  263.87   17.60
   2  -8  -6  269.97   16.90
   2  -8  -6  247.18   13.00
  -2   8   6  260.27   14.50
  -2   8   6  270.47   14.50
   1  -8  -6  141.19   12.00
   1  -8  -6  116.19   11.50
   1  -8  -6  100.29    8.70
  -1   8   6  108.89    9.70
  -1   8   6  133.49    9.70
   0  -8  -6  724.43   27.60
   0  -8  -6  704.13   24.50
   0  -8  -6  658.93   28.30
   0   8   6  693.73   22.70
   0   8   6  696.43   26.50
   0   8   6  717.33   22.40
  -1  -8  -6   15.60    4.30
  -1  -8  -6    8.50    3.60
  -1  -8  -6   14.20    3.80
   1   8   6   21.20    5.50
   1   8   6   17.10    3.20
   1   8   6   21.20    3.40
   1   8   6   11.00    2.90
  -2  -8  -6  453.05   22.70
  -2  -8  -6  486.25   21.80
   2   8   6  460.95   17.40
   2   8   6  496.95   15.60
   2   8   6  507.45   23.50
   2   8   6  481.65   13.70
  -3  -8  -6   93.09   10.30
   3   8   6  109.89   11.20
   3   8   6   82.29    7.20
   3   8   6   74.99    7.40
   3   8   6   89.29    6.70
  -4  -8  -6   36.10    7.30
   4   8   6   35.10    7.10
   4   8   6   34.90    4.90
   4   8   6   39.80    5.40
   4   8   6   32.80    4.40
  -5  -8  -6   -0.60    1.50
  -5  -8  -6   -2.90    1.60
   5   8   6    0.20    1.90
   5   8   6    2.20    2.20
   5   8   6    6.00    4.20
   5   8   6   -0.90    2.30
  -6  -8  -6  159.78    8.90
  -6  -8  -6  189.38   11.30
  -6  -8  -6  199.58   16.10
   6   8   6  180.08   15.90
   6   8   6  200.98   11.20
  -7  -8  -6   65.09   10.10
  -7  -8  -6   50.19    6.30
   7   8   6   54.39   10.10
   6  -9  -6  232.18   18.70
   6  -9  -6  215.88   18.30
  -6   9   6  209.88   17.00
   5  -9  -6   51.79    9.40
   5  -9  -6   63.89   10.00
  -5   9   6   49.20    5.10
  -5   9   6   62.59    9.80
   4  -9  -6    2.20    3.60
   4  -9  -6   -2.90    2.40
   4  -9  -6   -0.10    2.10
  -4   9   6   -2.40    1.70
  -4   9   6   -0.30    2.80
  -4   9   6    1.20    1.90
   3  -9  -6  219.08   17.40
   3  -9  -6  215.18   16.20
   3  -9  -6  193.08   15.40
  -3   9   6  202.28   14.10
  -3   9   6  191.48   11.90
   2  -9  -6  292.27   18.40
   2  -9  -6  284.07   19.50
  -2   9   6  276.37   15.60
  -2   9   6  290.27   15.60
   1  -9  -6    9.70    4.10
   1  -9  -6    4.40    3.90
  -1   9   6   16.70    4.30
  -1   9   6   14.00    4.20
   0  -9  -6  241.78   16.00
   0  -9  -6  248.68   17.60
   0   9   6  211.68   10.40
   0   9   6  228.28   15.20
   0   9   6  221.68   12.10
  -1  -9  -6   95.29   11.00
  -1  -9  -6   97.59   10.20
   1   9   6  103.69    8.00
   1   9   6  125.99   10.20
   1   9   6   95.09   10.10
   1   9   6  112.59    7.60
  -2  -9  -6    8.90    3.30
  -2  -9  -6   11.20    3.90
   2   9   6    8.60    4.00
   2   9   6    4.90    2.30
   2   9   6   11.40    3.50
   2   9   6    7.00    2.00
   2   9   6    7.80    2.30
  -3  -9  -6  170.18   14.60
  -3  -9  -6  154.58   12.40
   3   9   6  151.88   10.90
   3   9   6  152.28   13.60
   3   9   6  137.59    9.50
   3   9   6  158.88    9.50
  -4  -9  -6  242.38   17.80
   4   9   6  233.68   12.10
   4   9   6  267.97   14.10
   4   9   6  259.97   12.70
   4   9   6  248.28   18.00
  -5  -9  -6    1.70    2.70
   5   9   6   -0.50    2.10
   5   9   6   -0.80    1.80
   5   9   6    0.80    2.50
  -6  -9  -6   78.09   11.30
   6   9   6   81.39   11.80
   6   9   6   81.39    8.10
   6   9   6   93.49    8.90
   5 -10  -6  231.08   18.70
   5 -10  -6  258.27   19.50
  -5  10   6  247.88   17.80
  -5  10   6  223.18   10.10
   4 -10  -6    8.30    5.00
   4 -10  -6   15.30    5.10
   4 -10  -6   19.90    5.70
  -4  10   6   21.10    5.70
  -4  10   6   12.00    3.80
   3 -10  -6   15.40    5.60
   3 -10  -6    2.00    3.30
   3 -10  -6    4.50    3.80
  -3  10   6    9.90    3.70
  -3  10   6    7.80    2.90
   2 -10  -6   74.89   10.60
   2 -10  -6   48.00    8.60
  -2  10   6   62.09    8.00
  -2  10   6   68.59    7.80
   1 -10  -6   57.79    9.90
   1 -10  -6   58.09    8.60
  -1  10   6   45.00    6.30
  -1  10   6   61.29    7.80
   0 -10  -6    5.40    3.90
   0 -10  -6   11.80    4.20
   0  10   6   10.20    4.50
   0  10   6    7.20    2.80
   0  10   6    8.40    3.20
  -1 -10  -6  428.56   22.50
  -1 -10  -6  435.96   24.20
   1  10   6  397.06   15.80
   1  10   6  391.26   18.40
   1  10   6  430.66   22.60
   1  10   6  404.96   15.70
  -2 -10  -6   40.20    6.80
  -2 -10  -6   17.90    6.10
   2  10   6   18.00    5.50
   2  10   6   13.10    3.50
   2  10   6   13.60    3.60
   2  10   6    5.40    3.80
  -3 -10  -6   -3.60    2.30
  -3 -10  -6   -0.20    2.30
   3  10   6   -0.90    2.40
   3  10   6    2.80    3.10
   3  10   6    5.20    3.50
   3  10   6    2.20    2.60
  -4 -10  -6   29.50    6.80
  -4 -10  -6   34.80    8.00
   4  10   6   26.90    7.30
   4  10   6   38.20    6.10
   4  10   6   47.90   10.30
  -5 -10  -6  157.08   15.40
  -5 -10  -6  161.78   13.50
   5  10   6  149.59   10.60
   5  10   6  168.58   16.50
   3 -11  -6   81.29   11.90
   3 -11  -6   91.69   12.20
   3 -11  -6   91.29   13.50
  -3  11   6   66.49    7.60
  -3  11   6   73.99    9.30
   2 -11  -6   -1.40    2.50
   2 -11  -6    2.60    3.60
  -2  11   6    2.50    3.20
  -2  11   6    5.50    3.10
   1 -11  -6  188.68   16.10
   1 -11  -6  191.48   17.60
  -1  11   6  198.88   13.60
   0 -11  -6    1.10    1.90
   0 -11  -6    1.30    3.70
   0  11   6   -0.70    2.10
   0  11   6   -3.80    2.70
   0  11   6   -2.10    2.30
  -1 -11  -6   18.50    5.70
  -1 -11  -6   26.90    6.90
   1  11   6   30.60    5.50
   1  11   6   34.00    7.40
   1  11   6   34.60    7.90
  -2 -11  -6    9.90    5.80
  -2 -11  -6   11.30    4.10
   2  11   6    4.20    3.20
   2  11   6    7.20    4.70
   2  11   6    4.90    3.20
  -3 -11  -6   68.29   10.00
  -3 -11  -6   71.49   11.20
   3  11   6   84.39    9.50
   3  11   6   49.90    7.10
   3  11   6   63.29   10.30
   0  10  -7   -2.00    2.70
   3   9  -7   59.39    8.60
   3   9  -7   55.29    9.30
   3   9  -7   51.69    7.60
   3   9  -7   66.69    9.90
  -3  -9   7   73.69   10.50
  -3  -9   7   65.89    8.20
   2   9  -7   81.29   10.80
   2   9  -7   79.79    9.00
   2   9  -7   90.89   11.10
   2   9  -7   81.59   10.30
  -2  -9   7   81.19   11.50
  -2  -9   7  103.69   12.20
   1   9  -7    9.70    3.90
   1   9  -7    8.30    3.30
   1   9  -7    8.40    5.60
   1   9  -7    8.10    3.90
   1   9  -7    8.30    3.70
  -1  -9   7    3.40    3.60
  -1  -9   7   10.60    3.70
   0   9  -7  374.16   19.70
   0   9  -7  312.77   15.90
   0   9  -7  366.46   20.00
   0   9  -7  344.77   17.90
   0  -9   7  359.96   20.60
   0  -9   7  342.47   20.90
  -1   9  -7    0.00    2.50
  -1   9  -7    0.00    1.70
  -1   9  -7    9.70    4.10
   1  -9   7    4.20    3.20
   1  -9   7    6.70    3.40
  -2   9  -7   43.00    7.60
   2  -9   7   55.29    8.90
   2  -9   7   37.00    7.40
  -3   9  -7  113.39    9.20
  -3   9  -7  120.29   10.80
   3  -9   7  107.69   12.80
   3  -9   7   99.19   10.30
  -4   9  -7  132.59   11.20
  -4   9  -7  128.39   10.20
   4  -9   7  145.29   15.00
   4  -9   7  125.59   11.60
   5   8  -7   23.50    6.60
   5   8  -7   14.10    4.60
   5   8  -7    9.30    4.10
   5   8  -7   21.70    5.80
  -5  -8   7   22.60    7.00
  -5  -8   7   20.50    4.20
   4   8  -7   17.10    5.20
   4   8  -7   16.10    5.10
   4   8  -7   16.40    4.50
   4   8  -7    8.30    4.40
  -4  -8   7   11.30    4.20
  -4  -8   7   11.50    3.70
   3   8  -7   54.09    8.80
   3   8  -7   53.19    8.40
   3   8  -7   53.69    7.30
   3   8  -7   52.29    8.60
  -3  -8   7   50.89    6.90
  -3  -8   7   52.89    8.90
   2   8  -7  293.17   17.70
   2   8  -7  304.47   17.40
   2   8  -7  299.97   17.30
   2   8  -7  310.97   18.40
  -2  -8   7  289.57   19.00
  -2  -8   7  275.47   16.10
   1   8  -7    0.60    2.40
   1   8  -7   -2.00    1.70
   1   8  -7    1.70    1.80
   1   8  -7    0.80    1.80
  -1  -8   7    2.30    2.20
  -1  -8   7   -2.00    2.30
   0   8  -7  118.29   10.70
   0   8  -7  121.19    8.60
   0   8  -7  112.09   12.70
   0   8  -7  143.29   11.90
   0   8  -7  133.59   10.70
   0  -8   7  122.19   12.20
   0  -8   7  141.99   12.40
  -1   8  -7   92.29    6.90
  -1   8  -7   94.09    8.40
   1  -8   7  108.19   13.00
   1  -8   7   87.19   10.10
  -2   8  -7   43.00    6.80
  -2   8  -7   44.00    5.60
   2  -8   7   64.29   12.90
   2  -8   7   46.10    7.90
  -3   8  -7   -0.40    1.90
  -3   8  -7    1.80    2.30
   3  -8   7    0.40    2.70
   3  -8   7   -2.20    2.10
  -4   8  -7  388.16   18.50
  -4   8  -7  404.66   18.00
   4  -8   7  432.06   24.50
   4  -8   7  393.16   19.40
  -5   8  -7    3.60    2.60
  -5   8  -7   -1.00    1.60
   5  -8   7    5.50    3.00
   5  -8   7    4.80    3.80
  -6   8  -7   40.90    7.90
   6  -8   7   44.00   10.70
   6  -8   7   41.70    9.50
   6   7  -7    0.30    3.80
   6   7  -7    3.00    3.50
   6   7  -7    3.70    3.80
   6   7  -7    4.10    2.80
  -6  -7   7    9.60    4.90
   5   7  -7  123.29   12.90
   5   7  -7  123.59   11.30
   5   7  -7  120.29   11.70
   5   7  -7  124.79   12.20
  -5  -7   7  102.99   11.90
  -5  -7   7  116.29    7.90
   4   7  -7  125.99   12.20
   4   7  -7  132.89   12.00
   4   7  -7  133.29   14.60
   4   7  -7  135.69   11.80
  -4  -7   7  137.69    9.60
  -4  -7   7  136.19   13.30
   3   7  -7    3.60    2.70
   3   7  -7    6.40    3.30
   3   7  -7    9.20    4.00
  -3  -7   7    6.60    1.50
  -3  -7   7    5.40    3.00
  -3  -7   7    6.40    3.60
   2   7  -7   41.50    7.70
   2   7  -7   58.29    7.40
   2   7  -7   36.10    6.40
  -2  -7   7   43.20    6.70
  -2  -7   7   51.09    8.40
   1   7  -7  298.97   11.60
   1   7  -7  288.37   11.00
   1   7  -7  291.27   16.70
   1   7  -7  345.87   16.80
   1   7  -7  317.87   16.70
  -1  -7   7  330.97   17.10
  -1  -7   7  306.37   20.90
  -1  -7   7  309.47   11.70
   0   7  -7  163.88    8.70
   0   7  -7  164.68   11.50
   0   7  -7  170.28   12.20
   0   7  -7  151.48    9.20
   0   7  -7  166.98    9.30
   0  -7   7  177.38   13.40
   0  -7   7  145.29    8.70
   0  -7   7  157.88   12.10
  -1   7  -7   35.70    5.20
  -1   7  -7   32.00    4.50
  -1   7  -7   32.20    5.60
  -1   7  -7   34.90    6.10
   1  -7   7   30.50    6.30
   1  -7   7   26.80    4.80
   1  -7   7   41.50    7.00
  -2   7  -7  238.38   13.90
  -2   7  -7  260.47   12.60
  -2   7  -7  277.37   14.60
   2  -7   7  244.78   16.50
   2  -7   7  237.38   12.90
   2  -7   7  256.77   15.40
  -3   7  -7   23.50    4.60
  -3   7  -7    9.90    2.90
   3  -7   7    6.70    4.50
   3  -7   7    5.60    3.00
  -4   7  -7   27.60    5.30
  -4   7  -7   37.30    6.20
   4  -7   7   30.50    6.80
   4  -7   7   34.50    5.90
  -5   7  -7  157.58   10.50
  -5   7  -7  176.78   12.60
   5  -7   7  151.28   14.50
   5  -7   7  142.99   10.70
   5  -7   7  154.38   10.90
  -6   7  -7   87.89    7.60
  -6   7  -7   80.69    9.30
   6  -7   7  103.79   12.40
   6  -7   7   92.79   12.80
  -7   7  -7   -6.10    2.70
  -7   7  -7   -0.50    2.10
   7  -7   7   -1.20    2.50
   7  -7   7    1.60    1.90
   7  -7   7    4.50    1.70
   7  -7   7    3.60    3.60
   7   6  -7   45.50    8.50
   7   6  -7   38.70    7.90
   7   6  -7   29.90    7.30
  -7  -6   7   37.90    5.40
  -7  -6   7   36.20    7.40
   6   6  -7   -0.50    2.50
   6   6  -7   -2.70    2.20
   6   6  -7   -3.80    1.40
   6   6  -7    3.00    2.70
  -6  -6   7    0.20    1.60
  -6  -6   7   -1.50    2.10
   5   6  -7   27.30    6.30
   5   6  -7   27.10    6.00
   5   6  -7   15.40    4.50
   5   6  -7   26.60    6.70
  -5  -6   7   17.60    3.40
  -5  -6   7   20.20    5.50
  -5  -6   7   20.80    3.50
   4   6  -7  122.59   11.70
   4   6  -7  128.29   10.80
   4   6  -7  140.09   15.40
   4   6  -7  120.59   10.80
  -4  -6   7  134.69    7.10
  -4  -6   7  133.99   12.50
  -4  -6   7  131.29    8.50
   3   6  -7  492.25   22.10
   3   6  -7  445.56   19.90
   3   6  -7  447.56   20.10
   3   6  -7  481.95   22.10
  -3  -6   7  468.85   14.50
  -3  -6   7  490.05   18.50
  -3  -6   7  498.65   24.10
   2   6  -7   -1.30    1.90
   2   6  -7    5.30    2.90
   2   6  -7    2.90    2.40
   2   6  -7    4.70    3.10
  -2  -6   7    3.30    2.10
  -2  -6   7   -0.70    1.20
  -2  -6   7   -0.90    1.40
   1   6  -7  345.27   12.40
   1   6  -7  359.06   11.20
   1   6  -7  375.16   17.00
   1   6  -7  357.96   17.00
   1   6  -7  362.46   17.60
  -1  -6   7  353.66   13.20
  -1  -6   7  372.36   17.50
  -1  -6   7  365.96   19.00
   0   6  -7  452.45   15.20
   0   6  -7  453.55   19.30
   0   6  -7  424.66   16.00
   0   6  -7  485.85   18.30
   0   6  -7  440.96   19.10
   0  -6   7  490.85   21.70
   0  -6   7  457.95   20.60
   0  -6   7  440.56   15.90
  -1   6  -7   52.49    5.40
  -1   6  -7   41.50    5.10
  -1   6  -7   44.20    6.20
  -1   6  -7   48.70    6.00
   1  -6   7   54.59    7.20
   1  -6   7   50.39    7.20
   1  -6   7   48.40    5.50
  -2   6  -7  245.48   15.30
  -2   6  -7  263.87   12.80
  -2   6  -7  268.67   13.60
   2  -6   7  259.17   16.20
   2  -6   7  244.68   13.20
   2  -6   7  270.07   15.10
  -3   6  -7  912.81   34.60
  -3   6  -7  953.30   28.10
  -3   6  -7  960.90   28.50
   3  -6   7  995.20   30.30
   3  -6   7  966.00   34.40
  -4   6  -7    2.80    1.90
  -4   6  -7    0.70    1.60
   4  -6   7    0.20    2.20
   4  -6   7    0.20    2.10
  -5   6  -7   43.30    6.50
  -5   6  -7   32.90    5.10
   5  -6   7   30.50    6.90
   5  -6   7   26.10    5.00
   5  -6   7   37.30    7.10
  -6   6  -7  430.36   18.00
  -6   6  -7  458.75   17.10
  -6   6  -7  478.35   21.80
   6  -6   7  433.36   16.00
   6  -6   7  456.65   24.50
   6  -6   7  513.35   27.30
  -7   6  -7    1.80    3.10
  -7   6  -7    0.20    1.80
   7  -6   7   -2.80    1.30
   7  -6   7    4.70    4.40
   8   5  -7   -2.30    3.40
   8   5  -7    1.80    3.50
   8   5  -7    2.70    3.30
  -8  -5   7    9.30    3.40
  -8  -5   7    6.30    4.60
  -8  -5   7    1.40    3.50
   7   5  -7   96.89   11.10
   7   5  -7  110.29   11.40
   7   5  -7   81.99   10.80
  -7  -5   7  114.99   11.90
   6   5  -7    1.10    2.20
   6   5  -7    1.50    2.10
   6   5  -7    0.30    2.30
  -6  -5   7    2.30    2.00
  -6  -5   7    2.70    2.60
   5   5  -7   86.69    9.00
   5   5  -7   94.29    9.70
   5   5  -7   82.09   12.70
   5   5  -7  104.29   10.90
  -5  -5   7   92.89    6.70
  -5  -5   7   92.59    4.90
  -5  -5   7   91.09    9.10
  -5  -5   7   93.29   10.60
   4   5  -7   50.19    7.10
   4   5  -7   40.30    7.20
   4   5  -7   50.59    6.90
   4   5  -7   46.90    6.70
  -4  -5   7   26.00    3.90
  -4  -5   7   40.60    4.60
  -4  -5   7   42.90    6.90
  -4  -5   7   36.30    5.80
   3   5  -7  718.93   26.70
   3   5  -7  708.23   24.60
   3   5  -7  711.23   25.70
   3   5  -7  752.52   27.10
  -3  -5   7  735.93   28.20
  -3  -5   7  739.93   22.30
  -3  -5   7  675.13   19.70
   2   5  -7   11.40    3.20
   2   5  -7   25.20    5.00
   2   5  -7   22.80    2.50
   2   5  -7   12.60    3.40
   2   5  -7   24.00    4.90
  -2  -5   7   22.10    3.40
  -2  -5   7   22.50    4.50
  -2  -5   7   24.20    5.50
   1   5  -7  354.36   16.60
   1   5  -7  362.96    9.80
   1   5  -7  373.96   16.90
   1   5  -7  351.36   15.50
   1   5  -7  353.66   12.50
  -1  -5   7  346.77   13.40
  -1  -5   7  359.86   18.20
  -1  -5   7  383.66   16.80
   0   5  -7  124.89    9.20
   0   5  -7  140.49    9.90
   0   5  -7  131.39    8.10
   0  -5   7  119.29   10.10
   0  -5   7  130.09    8.20
   0  -5   7  137.79   10.50
  -1   5  -7  923.61   27.40
  -1   5  -7 1013.70   28.60
  -1   5  -7  983.80   26.70
  -1   5  -7  976.00   26.10
   1  -5   7  921.61   26.90
   1  -5   7  985.30   31.50
   1  -5   7  987.70   30.70
  -2   5  -7   29.60    4.80
  -2   5  -7   26.60    5.30
  -2   5  -7   32.70    4.80
  -2   5  -7   31.70    4.80
   2  -5   7   38.00    5.80
   2  -5   7   34.40    6.00
   2  -5   7   21.90    4.30
  -3   5  -7  499.45   19.00
  -3   5  -7  458.05   19.60
  -3   5  -7  513.25   17.50
   3  -5   7  453.45   19.30
   3  -5   7  496.05   19.20
   3  -5   7  498.95   22.70
  -4   5  -7  100.69    7.30
  -4   5  -7   92.89    6.20
  -4   5  -7  111.19    9.10
   4  -5   7  110.79   10.80
   4  -5   7  123.29    8.80
  -5   5  -7   11.80    3.60
  -5   5  -7   10.40    2.90
  -5   5  -7   17.80    3.70
   5  -5   7   16.80    4.90
   5  -5   7   12.90    4.60
   5  -5   7   19.00    4.10
  -6   5  -7    1.40    2.00
  -6   5  -7    4.30    2.70
   6  -5   7    3.40    2.60
   6  -5   7   -1.00    2.20
   6  -5   7    1.90    1.90
  -7   5  -7  294.97   17.80
  -7   5  -7  282.87   13.70
   7  -5   7  254.37   19.60
   7  -5   7  282.07   13.40
   7  -5   7  288.47   19.40
  -8   5  -7   27.00    6.40
  -8   5  -7   36.90    4.20
   8  -5   7   47.60    9.80
   8  -5   7   34.10    8.20
   8   4  -7   49.20    9.30
   8   4  -7   37.90    7.00
   8   4  -7   44.70    8.40
  -8  -4   7   31.20    7.20
  -8  -4   7   52.99    8.90
   7   4  -7   87.49   10.30
   7   4  -7   65.89    9.20
   7   4  -7   69.99    9.80
  -7  -4   7   70.89    8.20
  -7  -4   7   83.69   10.10
   6   4  -7    5.00    3.10
   6   4  -7    6.00    2.30
   6   4  -7    4.80    2.20
   6   4  -7    0.40    2.10
  -6  -4   7    7.10    5.70
  -6  -4   7   -1.70    1.90
  -6  -4   7   -1.40    1.70
   5   4  -7  736.13   28.20
   5   4  -7  772.22   28.30
   5   4  -7  759.42   21.60
   5   4  -7  738.83   26.70
  -5  -4   7  729.33   24.10
  -5  -4   7  689.63   21.50
  -5  -4   7  770.02   29.60
   4   4  -7    0.40    1.80
   4   4  -7    1.70    1.90
   4   4  -7    0.80    1.30
   4   4  -7    0.60    2.00
   4   4  -7   -2.10    1.70
  -4  -4   7    1.00    1.20
  -4  -4   7    1.20    1.10
  -4  -4   7    2.10    1.80
  -4  -4   7    1.50    2.20
   3   4  -7   43.70    6.30
   3   4  -7   28.90    5.20
   3   4  -7   32.20    5.70
   3   4  -7   31.10    5.80
  -3  -4   7   29.50    3.90
  -3  -4   7   27.80    5.40
  -3  -4   7   34.60    4.40
   2   4  -7  139.89   10.20
   2   4  -7  119.29    9.50
   2   4  -7  150.68    9.50
   2   4  -7  131.09    6.10
   2   4  -7  130.99   10.00
  -2  -4   7  121.29    7.50
  -2  -4   7  134.29   13.30
  -2  -4   7  128.49    8.50
  -2  -4   7  126.09   10.40
   1   4  -7  999.80   29.40
   1   4  -7 1025.30   27.70
   1   4  -7 1030.80   29.90
   1   4  -7  991.20   26.50
   1   4  -7  961.60   24.30
  -1  -4   7  965.90   25.90
  -1  -4   7 1015.40   28.80
  -1  -4   7 1013.40   28.70
  -1  -4   7 1055.39   32.10
   0   4  -7  330.97   13.30
   0   4  -7  364.66   14.30
   0   4  -7  334.67   11.10
   0   4  -7  331.97   14.60
   0  -4   7  339.37   15.70
   0  -4   7  338.97   16.30
   0  -4   7  325.27   14.00
   0  -4   7  329.97   13.50
  -1   4  -7 1220.08   32.30
  -1   4  -7 1236.98   31.60
  -1   4  -7 1309.07   30.70
  -1   4  -7 1251.87   31.70
   1  -4   7 1235.08   32.10
   1  -4   7 1230.08   35.30
   1  -4   7 1287.07   34.90
  -2   4  -7  424.86   16.60
  -2   4  -7  442.56   17.00
  -2   4  -7  426.26   10.90
  -2   4  -7  420.86   17.40
   2  -4   7  409.36   19.00
   2  -4   7  423.86   17.40
  -3   4  -7  431.66   18.40
  -3   4  -7  452.05   17.80
  -3   4  -7  426.56   14.80
  -3   4  -7  437.26   13.40
   3  -4   7  445.86   20.40
   3  -4   7  432.06   17.20
   3  -4   7  413.36   17.90
  -4   4  -7   25.60    3.60
  -4   4  -7   32.50    4.30
  -4   4  -7   33.20    5.40
   4  -4   7   28.20    5.50
   4  -4   7   26.30    4.40
   4  -4   7   29.40    6.00
  -5   4  -7  473.45   20.50
  -5   4  -7  500.95   15.00
  -5   4  -7  483.75   18.00
   5  -4   7  485.05   16.50
   5  -4   7  482.05   23.00
   5  -4   7  526.15   24.50
  -6   4  -7   59.39    8.00
  -6   4  -7   71.29    5.00
  -6   4  -7   49.30    6.80
   6  -4   7   70.29    5.30
   6  -4   7   73.39   10.20
   6  -4   7   78.29    9.80
  -7   4  -7  169.88   13.10
  -7   4  -7  135.29    6.40
   7  -4   7  129.99   13.40
   7  -4   7  140.49   13.30
   7  -4   7  150.18   10.00
  -8   4  -7   81.29   10.20
   8  -4   7   82.79   10.60
   8  -4   7   69.39   10.60
  -9   4  -7   22.40    6.00
   9  -4   7   13.50    5.10
   9  -4   7   12.70    4.30
   9   3  -7   13.40    5.30
   9   3  -7    5.80    3.60
   9   3  -7   11.50    4.60
  -9  -3   7    9.80    4.20
  -9  -3   7   11.90    4.70
   8   3  -7   71.19    9.90
   8   3  -7   71.99    8.70
   8   3  -7   64.79    9.70
  -8  -3   7   58.69    8.40
  -8  -3   7   65.09    9.50
  -8  -3   7   82.49   12.00
   7   3  -7   42.20    6.50
   7   3  -7   29.90    7.70
   7   3  -7   29.60    6.70
   7   3  -7   20.80    5.30
  -7  -3   7   20.90    5.80
  -7  -3   7   21.10    4.40
  -7  -3   7   31.30    7.00
   6   3  -7    4.20    2.90
   6   3  -7    6.40    2.60
   6   3  -7    3.20    2.40
   6   3  -7    2.10    2.30
  -6  -3   7    7.10    3.60
  -6  -3   7    1.60    1.90
  -6  -3   7    3.90    2.50
   5   3  -7    3.10    2.30
   5   3  -7    3.90    2.20
   5   3  -7    0.60    2.00
  -5  -3   7    4.00    3.00
  -5  -3   7    5.90    2.40
   4   3  -7  265.97   14.70
   4   3  -7  267.67   13.60
   4   3  -7  264.77   14.80
   4   3  -7  279.17   11.60
  -4  -3   7  267.17   12.20
  -4  -3   7  280.07   15.90
  -4  -3   7  268.17    9.30
  -4  -3   7  249.38   11.40
   3   3  -7  128.99    6.80
   3   3  -7  123.59    9.80
   3   3  -7  121.99    5.10
   3   3  -7  134.19    5.30
   3   3  -7  139.99   10.20
   3   3  -7  116.99    8.50
   3   3  -7  138.49   10.50
  -3  -3   7  133.59    7.40
  -3  -3   7  125.59   10.40
  -3  -3   7  123.79    7.80
   2   3  -7   93.99    8.20
   2   3  -7   85.19    6.70
   2   3  -7   86.49    4.70
   2   3  -7   91.59    8.10
   2   3  -7   91.69    5.30
   2   3  -7   77.19    7.50
  -2  -3   7   83.49    6.50
  -2  -3   7   85.69    7.30
  -2  -3   7   77.89    7.90
  -2  -3   7   87.39    6.40
   1   3  -7  429.86   14.20
   1   3  -7  434.16   17.10
   1   3  -7  465.65   17.90
   1   3  -7  454.75   15.40
   1   3  -7  422.36   10.70
  -1  -3   7  430.46   15.40
  -1  -3   7  416.56   15.80
  -1  -3   7  434.46   18.70
  -1  -3   7  413.96   16.10
   0   3  -7   28.00    4.00
   0   3  -7   29.40    4.40
   0   3  -7   28.30    2.30
   0   3  -7   26.20    3.90
   0   3  -7   28.10    3.80
   0   3  -7   25.20    2.90
   0  -3   7   27.10    4.40
   0  -3   7   24.10    3.60
   0  -3   7   21.90    4.50
   0  -3   7   21.20    3.60
   0  -3   7   31.40    4.60
  -1   3  -7    5.50    2.10
  -1   3  -7    1.50    1.20
  -1   3  -7    1.10    1.20
  -1   3  -7    0.70    0.80
   1  -3   7   -1.20    1.20
   1  -3   7    1.40    1.20
   1  -3   7    1.30    1.60
   1  -3   7    0.40    0.90
   1  -3   7    3.90    1.60
  -2   3  -7  181.48   10.50
  -2   3  -7  180.08    7.60
  -2   3  -7  182.28    8.90
  -2   3  -7  177.08   12.50
   2  -3   7  188.28   11.00
   2  -3   7  197.08   11.00
   2  -3   7  180.88   11.00
   2  -3   7  184.38   12.00
  -3   3  -7  179.58    8.20
  -3   3  -7  184.48   11.60
  -3   3  -7  179.48    8.60
  -3   3  -7  182.48   10.80
   3  -3   7  176.08   11.10
   3  -3   7  177.28   12.10
   3  -3   7  168.58   11.90
   3  -3   7  187.98   12.10
   3  -3   7  188.88   11.50
  -4   3  -7  342.17   13.90
  -4   3  -7  331.57   11.00
  -4   3  -7  337.37   15.80
   4  -3   7  309.97   15.30
   4  -3   7  345.67   13.60
   4  -3   7  362.56   18.20
   4  -3   7  330.47   17.60
  -5   3  -7  905.41   29.40
  -5   3  -7  881.21   26.80
  -5   3  -7  914.31   20.30
   5  -3   7  896.11   23.40
   5  -3   7  945.01   32.50
   5  -3   7  938.31   33.20
  -6   3  -7  299.27   15.60
  -6   3  -7  303.17    8.60
  -6   3  -7  330.07   17.40
   6  -3   7  285.27   18.50
   6  -3   7  337.47   18.90
   6  -3   7  316.67   10.50
  -7   3  -7    1.90    2.20
   7  -3   7    0.40    2.10
   7  -3   7   -0.30    2.60
  -8   3  -7   33.90    6.70
   8  -3   7   28.40    5.60
   8  -3   7   37.80    8.00
   8  -3   7   21.30    5.80
  -9   3  -7  344.77   20.70
   9  -3   7  298.47   21.90
   9  -3   7  314.27   20.30
   9   2  -7   -6.70    2.60
   9   2  -7    0.90    2.90
   9   2  -7   -1.80    2.70
  -9  -2   7   -4.70    2.90
  -9  -2   7    0.10    2.50
   8   2  -7   29.40    6.70
   8   2  -7   39.10    7.70
   8   2  -7   48.90    7.80
  -8  -2   7   37.90    7.50
  -8  -2   7   32.40    5.80
  -8  -2   7   40.60    7.00
   7   2  -7    0.90    2.20
   7   2  -7    2.10    2.20
   7   2  -7    0.70    2.40
  -7  -2   7   -0.10    1.70
  -7  -2   7    1.80    2.00
  -7  -2   7   -0.50    2.10
   6   2  -7  543.65   21.20
   6   2  -7  511.35   21.20
   6   2  -7  518.15   23.20
   6   2  -7  534.45   23.10
  -6  -2   7  511.25   17.00
  -6  -2   7  496.35   22.50
   5   2  -7    1.80    1.50
   5   2  -7   23.10    5.20
   5   2  -7    1.00    2.00
   5   2  -7    3.40    2.10
  -5  -2   7    2.30    1.70
  -5  -2   7    3.00    1.70
  -5  -2   7    3.10    2.10
   4   2  -7  389.96   11.10
   4   2  -7  408.86   16.50
   4   2  -7  410.06   15.50
   4   2  -7  431.16   18.50
  -4  -2   7  458.45   20.30
  -4  -2   7  405.36   11.50
  -4  -2   7  423.76   13.70
  -4  -2   7  413.96   16.60
   3   2  -7   71.29    7.10
   3   2  -7   69.69    6.40
   3   2  -7   74.69    5.80
   3   2  -7   64.99    7.00
  -3  -2   7   61.59    7.40
  -3  -2   7   63.79    5.80
  -3  -2   7   75.59    5.30
  -3  -2   7   62.59    6.30
  -3  -2   7   71.99    4.90
   2   2  -7  214.58    9.00
   2   2  -7  211.78   11.70
   2   2  -7  223.58   10.20
   2   2  -7  210.88    8.80
   2   2  -7  213.48   11.80
  -2  -2   7  213.38   10.00
  -2  -2   7  198.68   12.40
  -2  -2   7  205.08   10.20
  -2  -2   7  228.38   11.40
   1   2  -7   -0.20    0.70
   1   2  -7    2.20    1.60
   1   2  -7    1.30    1.20
   1   2  -7    4.60    2.10
   1   2  -7    1.70    1.30
   1   2  -7    3.00    1.70
   1   2  -7    1.00    1.30
  -1  -2   7    0.90    1.30
  -1  -2   7    0.90    1.70
  -1  -2   7    9.80    2.50
  -1  -2   7    0.90    1.30
   0   2  -7 1241.58   27.90
   0   2  -7 1229.48   30.30
   0   2  -7 1210.28   29.90
   0   2  -7 1228.78   31.10
   0   2  -7 1260.87   25.70
   0   2  -7 1186.88   31.60
   0  -2   7 1192.98   29.10
   0  -2   7 1297.87   34.10
   0  -2   7 1191.78   30.50
   0  -2   7 1224.88   32.00
  -1   2  -7  110.49    7.80
  -1   2  -7  121.39    7.10
  -1   2  -7  115.59    8.70
  -1   2  -7  118.09    8.10
   1  -2   7  139.69    9.30
   1  -2   7  120.49    8.20
   1  -2   7  117.59    8.40
   1  -2   7  113.79    8.40
   1  -2   7  123.29    6.80
  -2   2  -7  268.47   14.00
  -2   2  -7  292.17   13.70
  -2   2  -7  274.97   13.10
  -2   2  -7  284.27   10.40
  -2   2  -7  275.47   10.70
   2  -2   7  272.67   13.10
   2  -2   7  277.77   13.20
   2  -2   7  274.97   14.20
  -3   2  -7    3.30    1.60
  -3   2  -7    5.90    2.50
  -3   2  -7    4.20    1.70
  -3   2  -7    3.40    2.30
  -3   2  -7    5.70    1.50
   3  -2   7    2.40    1.80
   3  -2   7    7.80    2.60
   3  -2   7    9.40    3.30
   3  -2   7    4.70    2.40
   3  -2   7    2.30    1.70
  -4   2  -7  452.75   11.60
  -4   2  -7  467.75   17.20
  -4   2  -7  457.75   18.60
   4  -2   7  513.55   29.80
   4  -2   7  470.35   15.90
   4  -2   7  481.55   20.70
   4  -2   7  453.55   20.30
  -5   2  -7    4.10    2.00
  -5   2  -7    3.60    2.10
   5  -2   7    3.70    2.40
   5  -2   7    9.70    3.20
   5  -2   7    8.40    3.80
   5  -2   7    7.50    2.00
  -6   2  -7 1352.06   38.70
  -6   2  -7 1399.26   39.70
   6  -2   7 1414.46   42.10
   6  -2   7 1388.26   28.10
   6  -2   7 1367.26   43.10
   6  -2   7 1307.77   36.80
   7  -2   7  222.38   18.30
   7  -2   7  241.78   13.50
   7  -2   7  257.17   16.50
  -8   2  -7   20.10    5.30
   8  -2   7   17.40    5.10
   8  -2   7   21.40    6.40
   8  -2   7   18.50    5.00
  -9   2  -7   27.50    6.50
   9  -2   7   20.90    5.10
   9  -2   7   18.30    5.80
   9  -2   7   26.20    5.80
   9   1  -7   67.89    9.70
   9   1  -7   49.60    8.90
   9   1  -7   48.50    9.20
  -9  -1   7   82.99   10.70
  -9  -1   7   55.09    8.30
   8   1  -7  128.09   12.40
   8   1  -7  131.89   12.40
   8   1  -7  127.79   12.20
  -8  -1   7  154.28   13.10
  -8  -1   7  154.78   14.10
   7   1  -7   65.89    4.80
   7   1  -7   56.39    8.00
   7   1  -7   60.59    8.70
   7   1  -7   64.09    7.90
  -7  -1   7   56.89   13.30
  -7  -1   7   70.09    8.00
   6   1  -7  470.25   21.20
   6   1  -7  468.45   20.40
   6   1  -7  490.35   14.10
   6   1  -7  450.95   21.30
  -6  -1   7  474.05   14.20
  -6  -1   7  480.45   21.80
  -6  -1   7  475.75   22.60
   5   1  -7  140.89   10.50
   5   1  -7  120.29    9.00
   5   1  -7  110.19    8.90
   5   1  -7  121.09    9.90
   5   1  -7  115.89    6.40
  -5  -1   7  103.49    8.50
  -5  -1   7  112.49    9.70
  -5  -1   7  104.59    5.50
  -5  -1   7  100.09    7.60
   4   1  -7  237.68   11.80
   4   1  -7  239.98   14.40
   4   1  -7  249.18   13.30
   4   1  -7  213.88    9.00
   4   1  -7  227.78   13.30
  -4  -1   7  238.08    7.80
  -4  -1   7  235.88   14.00
  -4  -1   7  221.08   11.70
   3   1  -7  607.94   22.20
   3   1  -7  603.84   16.90
   3   1  -7  613.84   21.20
   3   1  -7  618.84   18.70
   3   1  -7  598.14   19.10
   3   1  -7  582.64   21.30
   3   1  -7  588.94   16.70
  -3  -1   7  575.84   20.50
  -3  -1   7  614.94   22.90
  -3  -1   7  591.14   14.00
  -3  -1   7  604.94   16.60
  -3  -1   7  600.34   19.80
   2   1  -7 1491.65   34.00
   2   1  -7 1545.65   39.30
   2   1  -7 1617.54   37.60
   2   1  -7 1535.75   38.20
   2   1  -7 1517.05   33.30
   2   1  -7 1542.65   34.70
  -2  -1   7 1519.45   36.60
  -2  -1   7 1543.05   40.00
  -2  -1   7 1550.44   34.40
  -2  -1   7 1501.65   36.10
   1   1  -7  334.57   14.90
   1   1  -7  330.97   11.10
   1   1  -7  333.57    8.40
   1   1  -7  316.77   12.90
   1   1  -7  325.77   14.10
   1   1  -7  325.97   14.00
  -1  -1   7  337.97   13.50
  -1  -1   7  331.27   15.20
  -1  -1   7  313.67   12.70
  -1  -1   7  347.77   13.50
   0   1  -7  122.59    8.10
   0   1  -7  125.39    8.30
   0   1  -7  127.69    8.60
   0   1  -7  130.29    8.40
   0   1  -7  122.29    5.80
   0   1  -7  131.09    6.10
   0  -1   7  121.69    7.00
   0  -1   7  111.79    7.50
   0  -1   7  131.59    9.10
   0  -1   7  126.89    8.40
   0  -1   7  116.89    6.80
  -1   1  -7 1104.79   29.40
  -1   1  -7 1076.99   29.10
  -1   1  -7 1117.39   29.50
  -1   1  -7 1116.69   26.30
  -1   1  -7 1084.69   30.10
   1  -1   7 1104.59   29.10
   1  -1   7 1037.60   31.40
   1  -1   7 1120.29   28.00
   1  -1   7 1120.59   30.00
   1  -1   7 1133.09   25.20
  -2   1  -7  861.91   23.60
  -2   1  -7  812.92   24.50
  -2   1  -7  839.52   23.70
  -2   1  -7  814.62   25.10
   2  -1   7  847.12   24.80
   2  -1   7  827.32   26.00
   2  -1   7  809.82   23.70
   2  -1   7  804.72   24.60
   2  -1   7  823.22   24.00
   2  -1   7  796.02   18.60
  -3   1  -7    2.30    1.50
  -3   1  -7    1.40    1.70
  -3   1  -7    4.40    2.20
  -3   1  -7    6.40    2.30
  -3   1  -7    5.30    1.90
   3  -1   7    5.80    2.30
   3  -1   7    2.40    1.70
   3  -1   7    4.60    1.80
   3  -1   7    3.10    2.10
   3  -1   7    4.80    1.90
  -4   1  -7  948.81   28.30
  -4   1  -7  879.41   26.40
   4  -1   7  912.71   24.00
   4  -1   7  888.21   29.20
   4  -1   7  931.11   26.20
   4  -1   7  932.31   29.90
  -5   1  -7   38.70    5.50
  -5   1  -7   40.30    5.70
   5  -1   7   37.40    4.90
   5  -1   7   42.20    6.40
   5  -1   7   46.10    6.90
   5  -1   7   45.10    4.20
  -6   1  -7  157.58   11.50
   6  -1   7  131.69   11.30
   6  -1   7  137.59   12.00
   6  -1   7  140.49    9.50
   6  -1   7  151.88   10.80
   6  -1   7  140.59    6.20
  -7   1  -7  245.58   15.10
   7  -1   7  210.68   12.10
   7  -1   7  238.28   14.00
   7  -1   7  234.08   16.50
   7  -1   7  240.78   15.60
  -8   1  -7  482.65   23.00
   8  -1   7  487.65   25.80
   8  -1   7  483.75   20.80
   8  -1   7  469.55   19.60
  -9   1  -7   13.80    4.40
   9  -1   7   11.10    4.30
   9  -1   7    5.50    3.70
   9  -1   7    6.80    4.30
 -10   1  -7  200.38   16.20
  10  -1   7  210.48   16.10
  10  -1   7  197.08   18.10
   9   0  -7   22.20    5.40
   9   0  -7   28.70    7.00
   9   0  -7   52.29    9.20
  -9   0   7   47.10    9.30
  -9   0   7   42.20    7.30
  -9   0   7   35.00    4.70
   8   0  -7  278.37   12.50
   8   0  -7  337.37   20.00
   8   0  -7  298.07   18.90
   8   0  -7  278.07   17.40
  -8   0   7  259.57   10.30
  -8   0   7  278.57   16.80
  -8   0   7  308.67   19.70
   7   0  -7  117.09    7.90
   7   0  -7  104.29   10.30
   7   0  -7  137.39   11.90
   7   0  -7  124.99   11.20
  -7   0   7  114.79    5.90
  -7   0   7  127.89   11.10
   6   0  -7  127.49    7.90
   6   0  -7  125.79   10.40
   6   0  -7  134.39   11.20
   6   0  -7  143.99   11.20
  -6   0   7  118.89    5.10
  -6   0   7  122.79   10.40
  -6   0   7  132.59   11.90
   5   0  -7  243.18   10.70
   5   0  -7  250.37   13.80
   5   0  -7  251.07   14.60
   5   0  -7  254.27   14.10
  -5   0   7  229.38   11.30
  -5   0   7  253.87   15.30
  -5   0   7  257.37   14.90
   4   0  -7  199.98    9.50
   4   0  -7  197.48   12.20
   4   0  -7  178.68   11.10
   4   0  -7  214.18    7.80
   4   0  -7  187.38   11.20
  -4   0   7  183.48   10.90
  -4   0   7  193.78   12.50
  -4   0   7  189.38   11.60
  -4   0   7  187.78    9.20
   3   0  -7  167.08    8.50
   3   0  -7  148.09    9.90
   3   0  -7  148.39    9.30
   3   0  -7  137.79    7.00
   3   0  -7  151.98    8.00
   3   0  -7  138.29    9.00
   3   0  -7  151.48   10.20
  -3   0   7  143.89   10.50
  -3   0   7  151.78    9.60
  -3   0   7  145.49    7.30
   2   0  -7  803.12   17.10
   2   0  -7  793.82   21.70
   2   0  -7  828.52   20.20
   2   0  -7  843.62   24.90
  -2   0   7  819.02   26.30
  -2   0   7  816.52   23.90
  -2   0   7  834.52   24.00
  -2   0   7  835.62   22.00
   1   0  -7  806.52   23.60
   1   0  -7  788.12   18.00
   1   0  -7  777.22   22.00
   1   0  -7  771.42   24.20
   1   0  -7  781.22   17.90
  -1   0   7  748.93   22.60
  -1   0   7  748.73   24.40
  -1   0   7  777.42   16.70
  -1   0   7  766.32   21.60
  -1   0   7  805.92   22.40
   0   0  -7   20.80    3.50
   0   0  -7   15.60    3.40
   0   0  -7   23.40    3.90
   0   0  -7   20.90    2.10
   0   0  -7   20.70    3.60
   0   0  -7   20.80    2.70
   0   0   7   25.50    3.80
   0   0   7   23.20    3.90
   0   0   7   23.90    3.20
   0   0   7   22.00    2.60
   0   0   7   25.30    4.10
  -1   0  -7   20.90    4.00
  -1   0  -7   23.90    3.80
  -1   0  -7   14.50    2.70
  -1   0  -7   15.10    1.70
  -1   0  -7   20.60    3.40
   1   0   7   14.50    3.10
   1   0   7   17.70    4.60
   1   0   7   19.60    3.00
   1   0   7   13.70    2.20
  -2   0  -7  458.35   17.30
  -2   0  -7  460.85   18.50
  -2   0  -7  463.45   16.30
  -2   0  -7  447.16   16.10
   2   0   7  455.75   11.60
   2   0   7  461.75   16.60
   2   0   7  458.95   17.50
   2   0   7  461.55   15.70
   2   0   7  477.15   17.00
   2   0   7  474.75   18.40
  -3   0  -7    7.90    2.80
  -3   0  -7    2.50    1.60
  -3   0  -7    3.60    1.50
  -3   0  -7   -0.30    1.40
  -3   0  -7    3.10    1.70
   3   0   7    4.90    1.90
   3   0   7    4.30    2.20
   3   0   7    4.50    1.90
   3   0   7    6.80    2.20
   3   0   7    2.90    2.30
  -4   0  -7  205.38   11.90
  -4   0  -7  187.18   11.30
  -4   0  -7  234.58   12.90
  -4   0  -7  200.48    9.40
   4   0   7  194.48    9.80
   4   0   7  204.98   12.40
   4   0   7  211.18   12.70
   4   0   7  206.28    9.90
  -5   0  -7  141.49   10.30
  -5   0  -7  149.29    7.60
  -5   0  -7  136.89   10.20
   5   0   7  147.39    7.70
   5   0   7  151.78   11.30
   5   0   7  132.59   10.90
   5   0   7  139.09    8.40
  -6   0  -7   50.89    5.60
  -6   0  -7   60.99    7.50
   6   0   7   56.89    5.50
   6   0   7   80.79    8.60
   6   0   7   58.49    7.20
   6   0   7   71.29    8.60
   6   0   7   72.99    4.60
  -7   0  -7   37.30    6.20
   7   0   7   32.30    6.40
   7   0   7   38.60    7.30
   7   0   7   43.90    6.50
   7   0   7   32.70    4.90
  -8   0  -7  741.73   31.60
  -8   0  -7  758.32   29.20
   8   0   7  731.43   29.30
   8   0   7  793.62   32.80
   8   0   7  799.92   28.40
   8   0   7  701.03   22.90
  -9   0  -7    7.40    3.70
  -9   0  -7    3.80    3.60
   9   0   7    4.90    2.90
   9   0   7   -2.20    2.90
   9   0   7   -0.10    2.70
   9   0   7    0.50    3.20
 -10   0  -7   36.00    9.30
 -10   0  -7   17.90    5.50
  10   0   7   31.70    6.90
  10   0   7   17.90    4.90
  10   0   7   11.80    5.30
   9  -1  -7   52.89    9.20
   9  -1  -7   53.29    7.10
  -9   1   7   67.39   10.80
  -9   1   7   61.99    8.70
   8  -1  -7   18.90    5.80
   8  -1  -7   35.60    6.00
   8  -1  -7   38.10    7.60
   8  -1  -7   23.70    5.90
  -8   1   7   28.60    6.30
  -8   1   7   30.90    6.90
  -8   1   7   29.40    4.60
   7  -1  -7  685.73   30.50
   7  -1  -7  682.23   26.30
   7  -1  -7  681.43   27.80
   7  -1  -7  659.73   22.20
  -7   1   7  610.34   32.70
  -7   1   7  623.24   25.40
  -7   1   7  621.94   18.70
   6  -1  -7  328.57   17.70
   6  -1  -7  352.26   14.90
   6  -1  -7  345.47   18.40
   6  -1  -7  363.46   17.40
  -6   1   7  350.66   17.90
  -6   1   7  341.67   19.30
  -6   1   7  333.27   11.80
   5  -1  -7   75.59    6.60
   5  -1  -7   75.69    8.00
   5  -1  -7   79.99    4.20
   5  -1  -7   97.19    8.90
   5  -1  -7   71.69    7.40
  -5   1   7   81.99    5.00
  -5   1   7   80.19    8.30
  -5   1   7   88.19    9.00
   4  -1  -7  417.76   18.20
   4  -1  -7  429.46   17.00
   4  -1  -7  424.76   15.90
   4  -1  -7  438.66   16.00
   4  -1  -7  435.46   18.30
   4  -1  -7  393.06   17.80
  -4   1   7  438.66   17.80
  -4   1   7  453.15   18.40
  -4   1   7  423.66   18.90
  -4   1   7  435.86   17.30
  -4   1   7  433.86   12.20
  -4   1   7  412.96   19.00
  -4   1   7  439.06   14.50
   3  -1  -7 1707.63   37.10
   3  -1  -7 1813.02   40.20
   3  -1  -7 1824.92   43.00
   3  -1  -7 1746.53   43.40
   3  -1  -7 1868.71   43.20
  -3   1   7 1738.63   44.40
  -3   1   7 1812.02   48.60
  -3   1   7 1768.82   34.40
  -3   1   7 1724.73   35.60
  -3   1   7 1689.73   41.50
   2  -1  -7   14.50    2.90
   2  -1  -7   13.40    2.80
   2  -1  -7   10.70    2.80
   2  -1  -7   13.00    2.30
  -2   1   7    8.00    2.40
  -2   1   7   13.30    2.90
  -2   1   7   15.20    2.30
  -2   1   7    8.90    2.30
  -2   1   7   13.60    3.60
   1  -1  -7 3015.60   55.59
   1  -1  -7 2952.00   59.49
   1  -1  -7 2924.81   58.99
   1  -1  -7 2939.31   61.99
  -1   1   7 2932.01   62.59
  -1   1   7 2937.81   60.29
  -1   1   7 2885.71   58.09
  -1   1   7 2981.00   59.29
   0  -1  -7  952.20   27.30
   0  -1  -7 1001.70   27.90
   0  -1  -7  958.60   26.70
   0  -1  -7  987.90   24.00
   0   1   7  962.20   21.20
   0   1   7  973.20   26.80
   0   1   7  982.20   27.00
   0   1   7  999.10   24.10
   0   1   7 1041.50   28.80
  -1  -1  -7  122.29    8.20
  -1  -1  -7  112.79    7.10
  -1  -1  -7  124.49    8.50
  -1  -1  -7  114.89    8.20
   1   1   7  134.19    6.20
   1   1   7  102.49    8.90
   1   1   7  121.39    8.10
   1   1   7  131.09    6.90
  -2  -1  -7  402.86   15.30
  -2  -1  -7  414.16   15.40
   2   1   7  405.56   14.90
   2   1   7  398.36   15.90
   2   1   7  395.66   10.30
   2   1   7  413.96   17.10
   2   1   7  408.26   15.70
  -3  -1  -7 1404.86   36.40
  -3  -1  -7 1458.75   34.30
  -3  -1  -7 1497.25   28.20
  -3  -1  -7 1447.36   38.20
  -3  -1  -7 1465.65   36.70
   3   1   7 1429.56   36.30
   3   1   7 1459.95   38.40
   3   1   7 1440.16   32.20
   3   1   7 1466.25   34.70
   3   1   7 1380.16   36.40
  -4  -1  -7    5.00    3.40
  -4  -1  -7    3.10    2.10
  -4  -1  -7    1.10    1.10
  -4  -1  -7    3.40    2.80
  -4  -1  -7    2.40    1.00
  -4  -1  -7    2.00    1.30
   4   1   7    1.80    1.60
   4   1   7    6.80    2.80
   4   1   7    1.40    1.00
   4   1   7    1.40    1.30
   4   1   7    1.10    1.90
  -5  -1  -7 1155.08   33.40
  -5  -1  -7 1193.38   34.80
  -5  -1  -7 1148.49   27.30
  -5  -1  -7 1157.38   27.60
  -5  -1  -7 1149.98   35.00
   5   1   7 1171.08   35.20
   5   1   7 1165.38   27.60
   5   1   7 1218.18   35.20
   5   1   7 1167.78   27.90
   5   1   7 1146.89   34.90
  -6  -1  -7  182.28    9.60
  -6  -1  -7  198.58   13.80
  -6  -1  -7  216.18   13.20
   6   1   7  186.18   13.20
   6   1   7  175.78    8.70
   6   1   7  208.38   13.40
   6   1   7  195.48   13.90
  -7  -1  -7   30.40    5.10
  -7  -1  -7   41.10    6.60
  -7  -1  -7   54.19    8.10
   7   1   7   46.80    4.70
   7   1   7   48.90    7.10
   7   1   7   47.90    7.40
   7   1   7   34.40    7.00
  -8  -1  -7   32.60    6.50
  -8  -1  -7   24.00    6.00
   8   1   7   36.10    4.60
   8   1   7   31.60    7.50
   8   1   7   31.40    6.50
   8   1   7   34.50    6.40
  -9  -1  -7  200.38   14.80
  -9  -1  -7  203.08   16.70
   9   1   7  178.18   13.80
   9   1   7  165.38    9.20
   9   1   7  174.88   16.00
   9   1   7  182.68   14.10
 -10  -1  -7   46.40    9.10
 -10  -1  -7   53.49    9.00
  10   1   7   35.20    7.70
  10   1   7   37.70    7.50
  10   1   7   36.80    9.00
   9  -2  -7  178.58   16.00
   9  -2  -7  173.28   12.60
  -9   2   7  154.58   13.00
  -9   2   7  219.98   17.90
   8  -2  -7  114.89   11.90
   8  -2  -7  113.89    9.70
   8  -2  -7  109.59   12.10
  -8   2   7  118.49   10.60
  -8   2   7  109.99    9.60
  -8   2   7  132.59   13.40
   7  -2  -7  138.99   10.20
   7  -2  -7  121.69   10.70
   7  -2  -7  137.09   14.40
   7  -2  -7  146.29   13.10
  -7   2   7  141.79   11.50
  -7   2   7  135.59    8.80
  -7   2   7  122.49   10.00
  -7   2   7  132.79   12.60
   6  -2  -7  189.58    6.80
   6  -2  -7  205.08   12.10
   6  -2  -7  194.78   14.00
   6  -2  -7  227.08   14.30
   6  -2  -7  195.78   12.40
  -6   2   7  176.88    9.60
  -6   2   7  199.08   13.20
  -6   2   7  206.38   14.80
   5  -2  -7  207.18   10.30
   5  -2  -7  210.48   13.00
   5  -2  -7  209.28   11.80
   5  -2  -7  185.78   12.90
   5  -2  -7  207.68   11.90
  -5   2   7  208.18   13.20
  -5   2   7  194.48   10.10
  -5   2   7  179.68    9.00
  -5   2   7  213.08   14.30
   4  -2  -7    8.80    2.90
   4  -2  -7    5.10    2.50
   4  -2  -7   16.00    3.60
   4  -2  -7    5.10    2.10
   4  -2  -7   10.60    3.10
   4  -2  -7    4.80    1.80
  -4   2   7    7.70    2.70
  -4   2   7    6.90    2.90
  -4   2   7   11.30    3.50
  -4   2   7    9.60    3.20
  -4   2   7    6.70    2.00
  -4   2   7    8.70    2.30
   3  -2  -7 3012.50   66.09
   3  -2  -7 3055.49   64.49
   3  -2  -7 3230.38   67.09
   3  -2  -7 3020.30   60.19
   3  -2  -7 3070.29   60.09
   3  -2  -7 3134.09   61.49
   3  -2  -7 3161.88   68.39
  -3   2   7 3061.19   58.39
  -3   2   7 3008.70   67.09
  -3   2   7 3222.48   67.99
  -3   2   7 3091.29   65.09
  -3   2   7 3067.99   64.89
  -3   2   7 3126.49   56.89
   2  -2  -7   81.59    7.50
   2  -2  -7   77.89    5.80
   2  -2  -7   89.49    6.10
   2  -2  -7   84.99    6.30
   2  -2  -7   93.49    7.20
  -2   2   7   88.09    5.70
  -2   2   7   87.89    8.00
  -2   2   7   80.39    7.50
  -2   2   7   81.49    6.80
  -2   2   7   93.59    7.50
  -2   2   7   85.59    4.20
   1  -2  -7 1495.75   33.90
   1  -2  -7 1438.66   37.60
   1  -2  -7 1512.45   32.70
   1  -2  -7 1535.95   35.80
  -1   2   7 1483.25   36.50
  -1   2   7 1498.25   35.00
  -1   2   7 1508.15   38.60
  -1   2   7 1513.25   33.40
  -1   2   7 1559.94   36.20
   0  -2  -7 2247.08   50.29
   0  -2  -7 2184.18   49.20
   0  -2  -7 2328.17   47.40
   0  -2  -7 2270.07   50.59
   0  -2  -7 2338.37   47.60
   0   2   7 2236.08   41.70
   0   2   7 2258.87   51.09
   0   2   7 2328.27   49.99
   0   2   7 2273.57   47.10
   0   2   7 2217.48   49.10
   0   2   7 2320.87   46.20
  -1  -2  -7 3608.54   69.59
  -1  -2  -7 3574.54   73.69
  -1  -2  -7 3700.13   73.39
  -1  -2  -7 3752.02   74.09
  -1  -2  -7 3679.73   71.59
   1   2   7 3725.23   68.19
   1   2   7 3758.02   74.19
   1   2   7 3778.82   73.19
   1   2   7 3760.82   74.69
   1   2   7 3744.33   67.19
  -2  -2  -7  276.27   13.20
  -2  -2  -7  269.27   13.60
  -2  -2  -7  275.27   12.60
  -2  -2  -7  276.97   12.00
   2   2   7  278.17   13.80
   2   2   7  252.87   14.70
   2   2   7  266.67   13.10
   2   2   7  273.47    8.50
   2   2   7  286.37   12.00
  -3  -2  -7 2079.89   50.69
  -3  -2  -7 2187.98   37.70
  -3  -2  -7 2216.18   47.40
  -3  -2  -7 2213.18   49.60
  -3  -2  -7 2202.28   49.20
  -3  -2  -7 2199.48   49.90
   3   2   7 2147.19   47.50
   3   2   7 2181.38   49.50
   3   2   7 2217.78   48.90
   3   2   7 2134.79   50.99
  -4  -2  -7   82.99    7.60
  -4  -2  -7   81.89    8.00
  -4  -2  -7   87.49    8.00
  -4  -2  -7   85.79    4.60
  -4  -2  -7   76.79    6.20
   4   2   7   80.39    7.70
   4   2   7   80.89    7.70
   4   2   7   85.49    6.70
   4   2   7   82.29    5.00
   4   2   7   79.49    7.90
  -5  -2  -7  784.22   21.80
  -5  -2  -7  733.13   25.20
  -5  -2  -7  708.63   26.60
  -5  -2  -7  788.52   27.70
  -5  -2  -7  744.03   19.40
   5   2   7  747.03   27.00
   5   2   7  771.52   27.70
   5   2   7  758.62   18.40
   5   2   7  777.72   27.20
   5   2   7  781.12   22.10
  -6  -2  -7  158.28   12.60
  -6  -2  -7  168.28    8.90
  -6  -2  -7  181.98    8.70
  -6  -2  -7  188.38   12.20
   6   2   7  172.58   12.90
   6   2   7  188.68   13.10
   6   2   7  171.08    7.00
   6   2   7  191.68   13.50
  -7  -2  -7  962.60   31.00
  -7  -2  -7  859.11   25.10
  -7  -2  -7  818.02   27.60
  -7  -2  -7  881.21   32.80
   7   2   7  905.11   31.70
   7   2   7  889.01   31.70
   7   2   7  855.11   19.30
   7   2   7  889.31   33.30
  -8  -2  -7   45.50    8.20
  -8  -2  -7   58.79    7.80
   8   2   7   50.99    7.80
   8   2   7   55.39    8.70
   8   2   7   59.69    8.20
  -9  -2  -7    0.20    2.10
  -9  -2  -7   -5.60    2.80
   9   2   7    3.20    3.10
   9   2   7    0.10    2.80
   9   2   7    0.90    2.50
 -10  -2  -7   16.70    4.90
 -10  -2  -7   12.90    5.30
  10   2   7    8.30    5.00
  10   2   7   10.90    5.00
  10   2   7   10.30    4.10
   9  -3  -7   28.10    7.20
   9  -3  -7   42.80    7.50
  -9   3   7   47.90    7.40
  -9   3   7   32.40    7.90
   8  -3  -7   47.90    7.70
   8  -3  -7   52.99    9.40
  -8   3   7   58.19    9.20
  -8   3   7   68.79    7.90
  -8   3   7   55.09    7.00
   7  -3  -7    9.80    3.80
   7  -3  -7    4.10    3.00
   7  -3  -7    2.30    1.90
   7  -3  -7    4.80    1.70
  -7   3   7    2.90    2.70
  -7   3   7    4.30    2.90
  -7   3   7    0.80    2.00
  -7   3   7    1.80    2.40
   6  -3  -7   26.10    5.50
   6  -3  -7   21.60    4.80
   6  -3  -7   35.40    5.80
   6  -3  -7   24.00    3.30
   6  -3  -7   13.20    4.10
  -6   3   7   24.00    4.50
  -6   3   7   25.00    5.40
  -6   3   7   25.30    5.70
   5  -3  -7 1158.68   31.30
   5  -3  -7 1134.09   36.20
   5  -3  -7 1157.68   34.40
   5  -3  -7 1093.49   27.00
   5  -3  -7 1094.49   32.70
  -5   3   7 1136.39   29.20
  -5   3   7 1082.69   29.10
  -5   3   7 1130.99   34.80
  -5   3   7 1152.08   36.80
   4  -3  -7  118.49    9.10
   4  -3  -7  131.49    8.40
   4  -3  -7  123.59   10.60
   4  -3  -7  126.49    7.70
   4  -3  -7  127.19    9.60
  -4   3   7  124.69    7.90
  -4   3   7  130.79    7.40
  -4   3   7  114.29    8.30
  -4   3   7  140.69   11.10
  -4   3   7  130.49   10.40
   3  -3  -7  700.83   19.90
   3  -3  -7  727.13   23.70
   3  -3  -7  667.63   22.40
   3  -3  -7  709.03   22.10
   3  -3  -7  677.23   24.10
   3  -3  -7  663.73   20.50
  -3   3   7  683.93   24.80
  -3   3   7  691.93   17.50
  -3   3   7  688.53   20.30
  -3   3   7  690.93   24.70
  -3   3   7  674.93   21.50
   2  -3  -7  572.74   21.40
   2  -3  -7  612.44   21.20
   2  -3  -7  597.54   19.60
   2  -3  -7  607.84   17.10
   2  -3  -7  600.94   19.60
   2  -3  -7  563.74   19.00
  -2   3   7  611.84   13.90
  -2   3   7  579.44   22.00
  -2   3   7  604.24   18.60
  -2   3   7  619.54   21.70
  -2   3   7  607.54   20.80
   1  -3  -7  550.84   15.20
   1  -3  -7  557.54   17.80
   1  -3  -7  582.54   21.00
   1  -3  -7  551.14   18.80
   1  -3  -7  532.65   18.40
  -1   3   7  543.25   20.80
  -1   3   7  553.74   19.90
  -1   3   7  542.65   19.70
  -1   3   7  546.05   17.70
   0  -3  -7   19.70    3.80
   0  -3  -7   11.60    3.30
   0  -3  -7   16.30    3.80
   0  -3  -7   13.20    2.20
   0  -3  -7   11.20    2.70
   0   3   7   16.60    3.90
   0   3   7   16.40    3.30
   0   3   7   23.60    3.80
   0   3   7    7.60    2.60
   0   3   7    9.00    2.50
  -1  -3  -7 4792.32   96.69
  -1  -3  -7 4782.12  100.29
  -1  -3  -7 4548.84   88.49
  -1  -3  -7 4546.65   88.29
  -1  -3  -7 4625.84   83.29
   1   3   7 4536.55   87.39
   1   3   7 4569.14   83.99
   1   3   7 4384.36   87.19
   1   3   7 4521.65   89.09
   1   3   7 4489.95   88.99
  -2  -3  -7  359.16   14.30
  -2  -3  -7  379.76   15.60
  -2  -3  -7  367.86   15.70
  -2  -3  -7  362.06   16.30
  -2  -3  -7  407.86   16.50
   2   3   7  388.56   16.10
   2   3   7  350.26   13.90
   2   3   7  392.46   17.00
   2   3   7  435.06   21.20
  -3  -3  -7  782.62   23.90
  -3  -3  -7  793.42   26.50
  -3  -3  -7  783.22   24.70
  -3  -3  -7  796.92   25.80
  -3  -3  -7  803.62   25.10
   3   3   7  825.12   24.70
   3   3   7  794.12   28.60
   3   3   7  788.62   25.10
   3   3   7  791.12   26.50
   3   3   7  776.22   18.40
  -4  -3  -7    1.20    2.00
  -4  -3  -7    1.00    0.80
  -4  -3  -7    0.40    1.40
  -4  -3  -7    8.00    2.50
   4   3   7    4.50    2.30
   4   3   7    1.80    1.50
   4   3   7    4.10    2.10
   4   3   7    2.80    2.00
   4   3   7    0.00    1.60
   4   3   7    1.60    0.80
  -5  -3  -7  311.87   10.70
  -5  -3  -7  316.57   16.80
  -5  -3  -7  300.47   15.10
  -5  -3  -7  293.07   13.10
   5   3   7  310.67   16.60
   5   3   7  369.76   18.00
   5   3   7  333.77   17.80
  -6  -3  -7  201.98   14.10
  -6  -3  -7  175.48    8.80
  -6  -3  -7  183.68   12.20
  -6  -3  -7  173.58    9.40
   6   3   7  193.68   13.30
   6   3   7  163.38   12.80
   6   3   7  203.78   14.20
  -7  -3  -7  665.23   25.30
  -7  -3  -7  642.54   20.50
  -7  -3  -7  746.43   40.70
  -7  -3  -7  624.74   18.70
   7   3   7  665.93   26.80
   7   3   7  655.03   28.20
   7   3   7  693.33   28.30
  -8  -3  -7   76.69   10.00
  -8  -3  -7   75.09    8.70
   8   3   7   83.99   15.20
   8   3   7   71.79    9.80
   8   3   7   60.39    9.20
  -9  -3  -7   -4.10    1.70
  -9  -3  -7    3.10    3.60
   9   3   7   -2.20    2.70
   9   3   7   -0.90    2.40
   9   3   7   -0.20    2.20
   9  -4  -7    5.90    3.70
   9  -4  -7    2.00    3.50
  -9   4   7    4.90    3.70
  -9   4   7    2.90    3.50
   8  -4  -7  479.05   26.20
   8  -4  -7  470.95   22.90
  -8   4   7  459.65   25.50
  -8   4   7  468.15   23.80
  -8   4   7  427.86   18.90
   7  -4  -7  156.08   12.50
   7  -4  -7  161.28    8.60
   7  -4  -7  192.68   15.40
  -7   4   7  167.98   10.40
  -7   4   7  169.68   14.50
  -7   4   7  188.88   13.40
   6  -4  -7   18.80    4.60
   6  -4  -7   16.20    3.70
   6  -4  -7   23.80    5.30
   6  -4  -7   28.70    6.60
  -6   4   7   27.40    5.50
  -6   4   7   14.40    3.70
  -6   4   7   20.10    5.70
   5  -4  -7   12.50    3.10
   5  -4  -7    9.80    3.50
   5  -4  -7   16.10    4.10
   5  -4  -7   14.70    3.90
  -5   4   7   13.70    4.10
  -5   4   7   11.90    3.90
  -5   4   7   14.20    4.20
   4  -4  -7 1094.79   27.80
   4  -4  -7 1096.09   32.40
   4  -4  -7 1140.39   35.60
   4  -4  -7 1075.09   28.80
   4  -4  -7 1124.09   33.40
   4  -4  -7 1045.60   31.10
  -4   4   7 1097.69   33.90
  -4   4   7 1074.89   30.00
  -4   4   7 1096.99   34.70
  -4   4   7 1082.89   26.80
  -4   4   7 1049.70   29.50
   3  -4  -7   10.20    3.40
   3  -4  -7    8.50    2.10
   3  -4  -7    5.80    2.20
   3  -4  -7    8.10    2.40
   3  -4  -7    9.60    2.90
  -3   4   7    8.60    3.40
  -3   4   7    7.10    2.40
  -3   4   7    7.30    2.30
  -3   4   7    9.40    3.40
  -3   4   7   10.50    2.10
   2  -4  -7  644.04   23.40
   2  -4  -7  652.43   23.60
   2  -4  -7  632.44   21.20
   2  -4  -7  633.94   23.00
   2  -4  -7  628.74   16.60
   2  -4  -7  660.63   22.40
  -2   4   7  668.43   15.10
  -2   4   7  640.24   22.20
  -2   4   7  629.44   20.70
  -2   4   7  659.33   24.10
  -2   4   7  670.03   23.10
   1  -4  -7  749.82   24.20
   1  -4  -7  767.02   21.30
   1  -4  -7  743.83   17.00
   1  -4  -7  766.42   17.60
  -1   4   7  764.42   23.30
  -1   4   7  743.63   25.60
  -1   4   7  762.72   23.70
  -1   4   7  737.03   23.70
   0  -4  -7   93.49    5.70
   0  -4  -7   98.69    8.20
   0  -4  -7   92.99    7.80
   0  -4  -7   99.59    6.40
   0  -4  -7   91.19    4.50
   0  -4  -7   85.29    7.50
   0   4   7   89.79    7.30
   0   4   7  103.89    8.80
   0   4   7   93.99    7.10
   0   4   7   99.99    7.70
  -1  -4  -7    7.20    2.10
  -1  -4  -7   16.70    4.00
  -1  -4  -7    5.10    2.20
  -1  -4  -7    5.10    2.10
  -1  -4  -7   12.30    2.40
  -1  -4  -7    3.70    2.30
   1   4   7   11.90    3.70
   1   4   7    8.00    2.30
   1   4   7   15.70    3.00
   1   4   7    3.40    1.80
  -2  -4  -7  446.06   18.70
  -2  -4  -7  473.25   18.30
  -2  -4  -7  433.36   18.40
  -2  -4  -7  487.45   14.70
  -2  -4  -7  458.85   17.00
   2   4   7  476.95   14.00
   2   4   7  478.55   19.70
   2   4   7  468.25   17.80
   2   4   7  465.45   19.00
   2   4   7  463.95   18.70
  -3  -4  -7  965.60   28.90
  -3  -4  -7  986.00   28.90
  -3  -4  -7 1031.30   29.90
  -3  -4  -7  985.90   30.60
   3   4   7  985.90   29.50
   3   4   7 1023.50   21.00
   3   4   7  952.70   28.60
   3   4   7  972.70   30.80
   3   4   7  980.60   20.40
   3   4   7 1020.80   32.70
   3   4   7 1003.50   28.70
  -4  -4  -7  171.98   11.60
  -4  -4  -7  193.88   12.90
  -4  -4  -7  181.78   11.30
  -4  -4  -7  180.48   10.80
   4   4   7  179.08   11.90
   4   4   7  186.68    5.90
   4   4   7  190.88   12.70
   4   4   7  185.88   11.50
   4   4   7  189.98   13.20
  -5  -4  -7  408.26   16.50
  -5  -4  -7  414.76   18.00
  -5  -4  -7  384.76   15.70
  -5  -4  -7  406.36   12.50
  -5  -4  -7  429.46   20.40
   5   4   7  383.36   20.20
   5   4   7  415.26   19.50
   5   4   7  423.96   19.70
  -6  -4  -7   35.80    5.20
  -6  -4  -7   40.10    5.20
  -6  -4  -7   31.80    5.50
  -6  -4  -7   36.70    6.80
  -6  -4  -7   30.00    4.10
   6   4   7   33.00    6.30
   6   4   7   35.10    6.40
   6   4   7   35.10    6.40
  -7  -4  -7   -0.90    1.70
  -7  -4  -7    0.60    1.70
  -7  -4  -7    2.30    1.80
  -7  -4  -7   -0.30    2.10
   7   4   7    1.40    1.80
   7   4   7    0.10    2.20
  -8  -4  -7   83.39   10.80
  -8  -4  -7   93.39    9.70
  -8  -4  -7   76.39    6.40
   8   4   7   91.59   10.30
   8   4   7  102.39   11.40
   8   4   7   79.79   10.60
  -9  -4  -7  199.88   14.40
  -9  -4  -7  236.28   18.60
   9   4   7  205.08   15.20
   9   4   7  239.88   18.60
   9   4   7  229.98   17.40
   8  -5  -7   99.49   12.40
   8  -5  -7  115.19   11.90
  -8   5   7  113.59   12.80
  -8   5   7  109.09   10.90
   7  -5  -7   97.59   12.70
   7  -5  -7   82.69    9.30
   7  -5  -7   81.79   10.90
  -7   5   7   69.79    6.50
  -7   5   7   86.39   10.80
  -7   5   7   70.39    8.90
   6  -5  -7  527.15   23.80
   6  -5  -7  472.35   18.00
   6  -5  -7  511.45   25.40
  -6   5   7  519.15   25.10
  -6   5   7  525.85   23.30
   5  -5  -7   67.59    8.90
   5  -5  -7   73.89    8.70
   5  -5  -7   70.39    6.90
   5  -5  -7   60.09    7.30
  -5   5   7   67.69    8.30
  -5   5   7   61.49    6.40
  -5   5   7   77.09    9.40
   4  -5  -7  105.59    8.00
   4  -5  -7   91.39    9.20
   4  -5  -7  110.39    9.90
   4  -5  -7   96.29    8.30
   4  -5  -7  114.69   10.80
  -4   5   7  111.69   10.30
  -4   5   7  106.99    7.90
  -4   5   7  105.99   10.00
  -4   5   7  102.49    6.90
  -4   5   7   91.59    8.30
   3  -5  -7  119.79    9.90
   3  -5  -7  119.19    8.80
   3  -5  -7  133.79   10.80
   3  -5  -7  121.39    8.50
  -3   5   7  105.79    7.50
  -3   5   7  114.19   10.30
  -3   5   7  108.39    8.60
  -3   5   7  125.69   10.30
  -3   5   7  117.69    6.60
   2  -5  -7   62.39    3.80
   2  -5  -7   53.79    5.40
   2  -5  -7   54.89    6.90
   2  -5  -7   41.20    5.60
   2  -5  -7   68.09    7.50
  -2   5   7   55.09    3.90
  -2   5   7   46.70    6.60
  -2   5   7   59.69    6.50
  -2   5   7   53.49    6.50
   1  -5  -7    5.60    2.50
   1  -5  -7    7.30    1.80
   1  -5  -7    4.60    2.00
   1  -5  -7    6.20    2.50
   1  -5  -7    9.60    3.20
  -1   5   7    5.20    2.40
  -1   5   7    7.10    2.30
  -1   5   7    6.20    2.90
  -1   5   7    7.40    2.80
  -1   5   7    5.30    1.20
   0  -5  -7 1472.55   39.30
   0  -5  -7 1507.15   33.60
   0  -5  -7 1479.35   40.20
   0  -5  -7 1552.84   32.70
   0  -5  -7 1495.45   40.00
   0   5   7 1526.05   40.90
   0   5   7 1491.25   38.60
   0   5   7 1406.56   36.90
   0   5   7 1555.94   36.10
  -1  -5  -7   58.99    6.80
  -1  -5  -7   62.69    4.60
  -1  -5  -7   52.09    5.40
  -1  -5  -7   65.39    7.40
   1   5   7   50.39    6.20
   1   5   7   58.79    5.10
   1   5   7   56.39    6.80
   1   5   7   69.69    7.70
   1   5   7   54.99    5.70
  -2  -5  -7    3.30    1.40
  -2  -5  -7    0.50    1.80
  -2  -5  -7   10.00    3.30
  -2  -5  -7    5.40    2.40
  -2  -5  -7    7.10    1.50
  -2  -5  -7    2.70    1.90
   2   5   7    2.90    1.30
   2   5   7    6.00    2.80
   2   5   7    4.00    2.10
   2   5   7    4.80    2.40
  -3  -5  -7  214.38    9.30
  -3  -5  -7  195.98   11.70
  -3  -5  -7  206.78   13.20
  -3  -5  -7  195.28   11.90
   3   5   7  193.38   13.60
   3   5   7  184.68   11.10
  -4  -5  -7  202.58   13.70
  -4  -5  -7  160.58   11.40
  -4  -5  -7  167.78   11.00
  -4  -5  -7  175.48   11.20
  -4  -5  -7  172.18    8.60
   4   5   7  196.58   14.10
   4   5   7  167.48    7.10
   4   5   7  156.88   12.20
  -5  -5  -7   20.80    3.80
  -5  -5  -7   24.90    5.00
  -5  -5  -7   24.10    4.40
  -5  -5  -7   24.20    5.50
   5   5   7   25.00    5.60
   5   5   7   30.50    5.90
   5   5   7   15.60    4.80
   5   5   7   24.00    2.50
  -6  -5  -7  611.54   23.20
  -6  -5  -7  610.84   21.90
  -6  -5  -7  601.74   20.90
  -6  -5  -7  647.24   31.70
   6   5   7  651.93   28.50
   6   5   7  661.23   26.60
   6   5   7  605.94   26.20
  -7  -5  -7   14.90    3.90
  -7  -5  -7   26.60    6.50
  -7  -5  -7   19.10    4.20
  -7  -5  -7   14.70    4.30
   7   5   7   12.60    4.00
   7   5   7   17.40    6.30
  -8  -5  -7    3.70    2.70
  -8  -5  -7    4.40    3.50
  -8  -5  -7    1.80    2.70
   8   5   7    5.70    4.20
   8   5   7    3.70    2.90
  -9  -5  -7   45.20    9.50
  -9  -5  -7   41.60    6.90
   9   5   7   25.60    7.10
   9   5   7   43.00    8.70
   8  -6  -7  110.49   12.30
   8  -6  -7  102.29   13.40
  -8   6   7  122.19   13.60
  -8   6   7  124.09   11.50
   7  -6  -7    4.10    3.00
   7  -6  -7   13.20    5.00
  -7   6   7    7.80    2.70
  -7   6   7    6.10    3.00
  -7   6   7    9.90    2.90
  -7   6   7    8.00    3.90
   6  -6  -7  339.87   21.50
   6  -6  -7  332.17   20.60
  -6   6   7  342.87   19.10
  -6   6   7  331.37   15.90
  -6   6   7  313.17   19.60
   5  -6  -7  196.38   14.50
   5  -6  -7  186.88   14.90
   5  -6  -7  196.18    7.60
  -5   6   7  202.78   11.40
  -5   6   7  201.08   15.20
  -5   6   7  200.08   14.00
   4  -6  -7  234.48   16.00
   4  -6  -7  207.08    7.80
   4  -6  -7  216.68   14.80
   4  -6  -7  198.08   14.40
   4  -6  -7  204.58    8.10
  -4   6   7  205.38   10.40
  -4   6   7  202.38   14.20
  -4   6   7  215.88   14.40
  -4   6   7  190.48   10.80
   3  -6  -7   52.89    4.20
   3  -6  -7   50.79    7.20
   3  -6  -7   49.00    5.80
   3  -6  -7   59.09    7.80
  -3   6   7   54.49    7.30
  -3   6   7   59.79    6.70
  -3   6   7   45.80    5.00
  -3   6   7   56.09    7.20
   2  -6  -7  615.74   24.70
   2  -6  -7  621.44   24.90
   2  -6  -7  592.14   18.80
  -2   6   7  652.93   23.50
  -2   6   7  615.14   24.70
  -2   6   7  595.34   22.50
   1  -6  -7  157.18   12.00
   1  -6  -7  158.78    8.40
   1  -6  -7  139.69   11.00
   1  -6  -7  143.49    7.70
  -1   6   7  143.29    9.90
  -1   6   7  158.38   11.90
  -1   6   7  150.48   10.90
   0  -6  -7  401.96   19.20
   0  -6  -7  367.96   14.30
   0  -6  -7  365.56   11.80
   0   6   7  393.86   19.00
   0   6   7  372.36    9.10
   0   6   7  372.86   16.00
   0   6   7  367.46   15.40
   0   6   7  356.36   17.60
  -1  -6  -7  543.85   14.10
  -1  -6  -7  549.35   22.80
  -1  -6  -7  541.45   19.10
   1   6   7  536.65   22.60
   1   6   7  531.35   16.70
   1   6   7  544.55   22.70
   1   6   7  510.75   19.20
  -2  -6  -7  226.18   14.40
  -2  -6  -7  211.48    7.30
  -2  -6  -7  200.18   11.90
   2   6   7  194.28   11.40
   2   6   7  211.68   14.30
   2   6   7  202.48    8.10
  -3  -6  -7    9.70    3.10
  -3  -6  -7   18.50    2.30
  -3  -6  -7   17.20    5.00
  -3  -6  -7   18.00    2.10
  -3  -6  -7   16.00    4.10
   3   6   7   17.50    5.10
   3   6   7    9.20    2.70
   3   6   7   17.60    3.30
  -4  -6  -7  522.75   20.30
  -4  -6  -7  562.04   24.30
  -4  -6  -7  523.35   15.00
   4   6   7  513.75   15.90
  -5  -6  -7   -0.30    2.20
  -5  -6  -7   -1.60    1.20
  -5  -6  -7    1.10    1.40
  -5  -6  -7    4.10    1.70
   5   6   7    0.80    1.20
   5   6   7    1.00    2.90
  -6  -6  -7  112.69    7.40
  -6  -6  -7  121.09    8.30
  -6  -6  -7   99.89    9.00
  -6  -6  -7  127.99   11.60
   6   6   7  106.89   11.70
   6   6   7  101.59    5.50
  -7  -6  -7   55.59    7.00
  -7  -6  -7   64.79    7.40
  -7  -6  -7   60.89    9.20
   7   6   7   70.49   10.00
  -8  -6  -7   11.40    4.90
  -8  -6  -7   11.10    3.70
   8   6   7   14.30    5.00
   7  -7  -7    8.30    3.50
   7  -7  -7   17.60    5.90
  -7   7   7   11.30    4.50
  -7   7   7    8.60    3.70
  -7   7   7   10.50    2.30
   6  -7  -7   -0.30    2.10
   6  -7  -7   -1.60    2.40
  -6   7   7    0.50    1.90
  -6   7   7   -1.10    2.10
  -6   7   7    2.00    2.60
   5  -7  -7  272.77   18.60
   5  -7  -7  232.78   10.40
   5  -7  -7  261.67   17.50
  -5   7   7  250.57   17.40
  -5   7   7  236.58   12.30
  -5   7   7  249.68   17.00
   4  -7  -7  201.48   15.30
   4  -7  -7  201.28   15.60
   4  -7  -7  198.58   15.10
   4  -7  -7  197.48    9.10
  -4   7   7  216.18   15.00
  -4   7   7  196.68   14.20
  -4   7   7  205.68   12.10
  -4   7   7  172.78   10.20
   3  -7  -7    5.70    1.90
   3  -7  -7    7.00    3.90
   3  -7  -7    5.30    3.10
  -3   7   7    4.70    2.70
  -3   7   7    0.70    2.10
  -3   7   7    6.20    3.50
   2  -7  -7  389.86   20.10
   2  -7  -7  371.26   14.20
   2  -7  -7  389.36   20.40
  -2   7   7  388.66   18.10
  -2   7   7  381.96   17.90
  -2   7   7  350.66   19.20
   1  -7  -7  298.37   17.00
   1  -7  -7  290.07   12.90
   1  -7  -7  300.57   17.60
  -1   7   7  312.97   17.70
  -1   7   7  322.37   16.80
  -1   7   7  310.17   14.90
   0  -7  -7    3.30    2.70
   0  -7  -7    2.20    1.80
   0  -7  -7    2.20    1.80
   0   7   7    7.50    3.40
   0   7   7    2.30    1.90
   0   7   7    3.00    1.10
  -1  -7  -7   23.60    5.70
  -1  -7  -7   10.20    4.10
   1   7   7   12.90    3.00
   1   7   7    8.50    3.80
   1   7   7   10.80    3.10
   1   7   7   13.10    2.10
  -2  -7  -7  316.67   18.10
  -2  -7  -7  299.27   15.70
   2   7   7  346.17   18.90
   2   7   7  309.37   14.80
   2   7   7  332.27   10.00
   2   7   7  312.47   10.40
  -3  -7  -7    3.60    3.00
   3   7   7    6.30    3.60
   3   7   7    4.80    1.50
   3   7   7    5.50    2.20
  -4  -7  -7   39.10    8.70
  -4  -7  -7   31.40    5.40
  -4  -7  -7   26.00    2.60
   4   7   7   30.40    4.40
   4   7   7   23.70    6.50
  -5  -7  -7   82.19    7.90
  -5  -7  -7   79.29    5.40
  -5  -7  -7  115.29   11.30
   5   7   7   77.19    9.80
  -6  -7  -7   15.90    5.40
  -6  -7  -7   16.40    3.80
  -6  -7  -7   27.00    5.30
  -6  -7  -7   15.50    3.70
   6   7   7   17.50    5.80
   6   7   7   20.00    3.80
  -7  -7  -7   14.40    5.40
  -7  -7  -7    9.50    3.00
   7   7   7    7.50    4.60
  -8  -7  -7   69.49    8.10
  -8  -7  -7   78.69   11.40
   8   7   7   76.19   11.70
   6  -8  -7   11.10    4.90
   6  -8  -7   10.70    5.00
  -6   8   7    8.50    2.60
  -6   8   7    6.40    3.80
   5  -8  -7   53.59    8.90
   5  -8  -7   64.39    9.90
  -5   8   7   59.59    6.40
  -5   8   7   49.10    8.10
   4  -8  -7  153.48   14.00
   4  -8  -7  139.89   13.70
   4  -8  -7  140.69   13.40
  -4   8   7  128.29    8.50
  -4   8   7  151.88   10.40
  -4   8   7  133.99   12.10
   3  -8  -7  131.29    9.10
   3  -8  -7  152.18   17.80
   3  -8  -7  170.08   13.80
  -3   8   7  165.98   11.40
  -3   8   7  140.09   11.70
   2  -8  -7   -2.30    1.80
   2  -8  -7    1.60    2.50
   2  -8  -7   -1.10    1.80
  -2   8   7   -1.00    1.60
  -2   8   7    0.30    1.80
   1  -8  -7  310.37   18.30
   1  -8  -7  301.77   18.90
   1  -8  -7  300.47   14.60
  -1   8   7  293.87   16.40
  -1   8   7  315.07   15.30
   0  -8  -7    1.20    2.30
   0  -8  -7    0.40    2.00
   0  -8  -7   -0.60    1.50
   0   8   7    3.20    2.20
   0   8   7    1.60    1.30
   0   8   7   -2.30    1.60
  -1  -8  -7    2.50    2.00
  -1  -8  -7    4.10    2.40
  -1  -8  -7    1.50    2.30
   1   8   7    4.90    1.60
   1   8   7    2.10    1.80
   1   8   7    1.90    2.40
  -2  -8  -7   30.90    8.90
   2   8   7   35.90    3.60
   2   8   7   39.30    7.10
   2   8   7   40.00    3.90
  -3  -8  -7  104.89   11.20
   3   8   7   84.19   10.30
   3   8   7   89.89    6.10
   3   8   7   97.69    8.10
  -4  -8  -7   53.89    8.50
   4   8   7   47.00    5.90
   4   8   7   52.69    8.50
   4   8   7   42.50    4.80
  -5  -8  -7   90.29    8.30
  -5  -8  -7   66.09    9.80
   5   8   7   79.49   10.60
   5   8   7   88.49    7.50
  -6  -8  -7    3.60    3.10
  -6  -8  -7    3.90    2.30
   6   8   7    6.30    2.70
   6   8   7   12.90    5.60
  -7  -8  -7    1.40    2.20
  -7  -8  -7    0.20    2.50
   7   8   7   -1.80    1.90
   7   8   7   -1.20    3.20
   5  -9  -7   46.20    9.10
   5  -9  -7   24.30    6.70
  -5   9   7   20.90    6.20
  -5   9   7   37.70    5.20
   4  -9  -7   -0.90    2.40
   4  -9  -7   -1.40    2.80
   4  -9  -7    6.10    2.70
   4  -9  -7   -1.20    2.60
  -4   9   7    4.70    3.00
  -4   9   7   -3.20    2.80
   3  -9  -7  282.67   20.10
   3  -9  -7  260.87   13.80
   3  -9  -7  274.17   19.00
   3  -9  -7  289.37   19.30
  -3   9   7  263.57   14.80
   2  -9  -7    1.10    3.00
   2  -9  -7    6.70    2.40
   2  -9  -7   -1.90    2.00
  -2   9   7    1.40    2.10
  -2   9   7    3.30    2.40
   1  -9  -7  195.48   15.10
   1  -9  -7  199.18   16.20
  -1   9   7  192.58   13.80
  -1   9   7  210.48   12.80
   0  -9  -7   99.19   11.60
   0  -9  -7   74.59    9.60
   0   9   7   64.39    8.80
   0   9   7   76.99    7.50
   0   9   7   86.49    6.10
  -1  -9  -7  175.48   14.10
  -1  -9  -7  189.18   15.70
   1   9   7  180.68    8.90
   1   9   7  196.18   10.20
   1   9   7  180.78   15.10
  -2  -9  -7    8.50    4.30
  -2  -9  -7    4.40    2.80
   2   9   7    4.40    3.50
   2   9   7    5.80    2.10
   2   9   7    5.90    1.90
   2   9   7    9.70    3.00
  -3  -9  -7  228.08   17.00
  -3  -9  -7  232.58   15.90
   3   9   7  253.17   13.80
   3   9   7  231.28   13.50
   3   9   7  223.68   17.00
  -4  -9  -7    6.90    3.90
   4   9   7    6.30    2.70
   4   9   7    4.00    3.50
   4   9   7    3.30    2.30
  -5  -9  -7  140.79   14.50
   5   9   7  126.29    9.70
   5   9   7  125.59    9.00
   5   9   7  126.39   14.00
  -6  -9  -7    8.20    4.70
   6   9   7   19.30    7.10
   6   9   7    1.80    2.40
   4 -10  -7    0.30    2.80
   4 -10  -7   -1.60    3.80
   4 -10  -7   -0.50    2.70
  -4  10   7   -0.50    2.60
  -4  10   7   -2.00    2.60
   3 -10  -7   58.79    9.70
   3 -10  -7   61.89   10.20
   3 -10  -7   58.09   10.30
  -3  10   7   62.09    7.50
  -3  10   7   56.89    8.30
   2 -10  -7  171.48   15.30
   2 -10  -7  166.28   16.10
  -2  10   7  228.38   21.60
  -2  10   7  175.18   12.80
   1 -10  -7   13.50    4.70
   1 -10  -7    5.10    4.10
  -1  10   7   10.70    4.20
  -1  10   7    7.90    3.60
   0 -10  -7   -2.80    2.50
   0 -10  -7    7.70    3.00
   0  10   7   -1.30    2.00
   0  10   7    0.70    2.30
   0  10   7    1.70    1.30
  -1 -10  -7  297.67   19.00
  -1 -10  -7  307.27   20.90
   1  10   7  294.67   12.40
   1  10   7  236.28   11.90
   1  10   7  310.07   19.30
  -2 -10  -7   54.69    8.70
  -2 -10  -7   60.99    9.60
   2  10   7   49.10    5.80
   2  10   7   57.39    7.70
   2  10   7   49.40    8.40
  -3 -10  -7   15.40    6.30
  -3 -10  -7    5.20    3.80
   3  10   7   12.40    5.00
   3  10   7    6.40    2.40
   3  10   7   17.10    5.40
  -4 -10  -7    3.70    3.80
  -4 -10  -7   -2.50    3.00
   4  10   7   -0.50    1.70
   4  10   7    6.70    4.20
   1 -11  -7  150.68   15.10
   1 -11  -7  143.59   15.70
  -1  11   7  122.99   10.90
  -1  11   7  141.69   12.50
   0 -11  -7   64.29   10.90
   0 -11  -7   87.29   10.90
   0  11   7   73.39   10.20
   0  11   7   58.59    7.60
  -1 -11  -7   -0.80    2.60
  -1 -11  -7    7.70    4.10
   1  11   7    5.30    2.10
   1  11   7    8.60    4.70
   1  11   7   -3.30    2.20
   1  11   7    0.80    2.80
  -2 -11  -7   70.59   10.50
  -2 -11  -7   85.99   12.20
   2  11   7   89.19   11.70
   2  11   7   75.59    9.70
   2   9  -8    6.50    3.30
   2   9  -8   -4.70    3.50
   2   9  -8   -3.40    3.00
   2   9  -8    2.40    3.60
  -2  -9   8   -1.30    2.80
  -2  -9   8    2.80    3.20
   1   9  -8   10.80    4.50
   1   9  -8    8.90    4.20
   1   9  -8   14.20    4.90
   1   9  -8   10.20    4.10
  -1  -9   8    7.90    3.60
  -1  -9   8   14.20    4.90
   0   9  -8  125.79   11.30
   0   9  -8  118.79   12.10
   0   9  -8  133.69   12.40
   0  -9   8  118.29   12.90
   0  -9   8  124.39   12.30
  -1   9  -8   -0.80    2.00
  -1   9  -8   -2.70    2.40
  -1   9  -8    6.20    3.70
   1  -9   8   -0.80    2.60
   1  -9   8    5.80    3.80
  -2   9  -8    2.90    3.10
  -2   9  -8   -0.30    2.00
   2  -9   8    1.30    3.60
   2  -9   8    2.20    3.70
   4   8  -8   13.20    4.20
   4   8  -8   17.00    4.80
   4   8  -8   29.70    7.20
   4   8  -8   17.50    5.80
  -4  -8   8   14.90    3.70
  -4  -8   8    8.30    4.40
   3   8  -8   57.59    8.00
   3   8  -8   50.49    8.40
   3   8  -8   42.50    9.00
   3   8  -8   36.70    7.30
  -3  -8   8   40.10    6.70
  -3  -8   8   48.10    9.40
   2   8  -8   -0.50    2.40
   2   8  -8   -1.60    2.70
   2   8  -8   -3.80    2.40
   2   8  -8    3.30    2.40
  -2  -8   8    7.20    3.70
  -2  -8   8    3.70    3.00
   1   8  -8   14.50    4.10
   1   8  -8   12.10    3.10
   1   8  -8    6.50    3.20
   1   8  -8   12.30    4.00
   1   8  -8   10.20    3.70
  -1  -8   8    6.20    3.50
  -1  -8   8    3.40    3.40
   0   8  -8    3.20    2.40
   0   8  -8   -2.80    1.90
   0   8  -8    2.70    2.50
   0   8  -8    0.40    2.40
   0   8  -8    5.10    2.90
   0  -8   8    1.70    3.30
   0  -8   8   -2.00    1.60
  -1   8  -8  156.18   10.40
  -1   8  -8  159.48   12.60
  -1   8  -8  144.59   12.10
  -1   8  -8  143.39    9.20
   1  -8   8  138.19   12.90
   1  -8   8  174.28   14.20
  -2   8  -8    5.30    2.70
  -2   8  -8    8.60    3.50
   2  -8   8    4.50    3.20
   2  -8   8    3.50    2.90
  -3   8  -8   38.10    6.10
  -3   8  -8   46.90    7.10
   3  -8   8   53.19    8.10
   3  -8   8   52.09    9.50
  -4   8  -8   59.49    7.90
   4  -8   8   54.49    9.70
   4  -8   8   47.60    7.40
   5   7  -8  108.59   11.30
   5   7  -8   98.29   10.60
   5   7  -8   95.19   11.50
   5   7  -8   92.19   12.00
  -5  -7   8   94.89   12.10
  -5  -7   8   87.09    7.20
   4   7  -8   20.50    5.80
   4   7  -8   17.10    5.10
   4   7  -8   19.10    5.70
   4   7  -8   37.40    6.70
  -4  -7   8   20.00    4.40
  -4  -7   8   20.60    6.40
   3   7  -8   14.20    5.10
   3   7  -8   13.20    4.70
   3   7  -8   11.50    3.20
   3   7  -8   10.00    3.80
  -3  -7   8   14.50    4.10
  -3  -7   8    3.20    3.20
  -3  -7   8    7.90    2.20
   2   7  -8    0.20    1.90
   2   7  -8    1.70    2.20
   2   7  -8   -1.30    2.20
   2   7  -8    1.00    2.50
  -2  -7   8   -3.90    1.70
  -2  -7   8    2.50    1.70
  -2  -7   8    0.60    2.10
   1   7  -8  145.39   11.90
   1   7  -8  161.98   13.70
   1   7  -8  119.59    7.30
   1   7  -8  151.38   12.30
  -1  -7   8  145.49   13.20
  -1  -7   8  141.29    8.40
  -1  -7   8  146.99   12.00
   0   7  -8    9.90    3.30
   0   7  -8    9.60    2.90
   0   7  -8    5.40    2.50
   0   7  -8    9.30    3.30
   0  -7   8   12.90    2.80
   0  -7   8    8.40    3.70
   0  -7   8   11.40    4.40
  -1   7  -8  292.17   16.10
  -1   7  -8  297.17   13.60
  -1   7  -8  313.97   13.70
   1  -7   8  292.97   18.00
   1  -7   8  308.27   26.50
   1  -7   8  293.67   14.50
  -2   7  -8   50.79    6.80
  -2   7  -8   43.00    6.90
  -2   7  -8   67.89    7.10
   2  -7   8   64.99    8.10
   2  -7   8   58.99    8.90
  -3   7  -8   89.29    8.40
  -3   7  -8   94.39    8.60
   3  -7   8   90.19    9.30
   3  -7   8   90.59   10.70
  -4   7  -8   66.59    7.30
  -4   7  -8   47.10    6.70
   4  -7   8   45.50    8.40
   4  -7   8   40.20    6.80
  -5   7  -8  202.38   13.50
  -5   7  -8  203.58   12.00
   5  -7   8  216.68   18.40
   5  -7   8  239.48   18.50
   5  -7   8  211.78   13.00
  -6   7  -8    1.10    1.80
  -6   7  -8    0.40    2.80
   6  -7   8   -2.10    2.50
   6  -7   8   -1.20    2.00
   6   6  -8    0.00    2.90
   6   6  -8    0.60    2.70
   6   6  -8    9.90    3.70
  -6  -6   8    2.50    3.40
   5   6  -8   30.10    7.30
   5   6  -8   21.20    5.90
   5   6  -8   27.80    6.00
   5   6  -8   37.70    7.40
  -5  -6   8   28.20    3.80
  -5  -6   8   34.40    8.10
  -5  -6   8   36.50    4.80
   4   6  -8  172.88   13.20
   4   6  -8  177.58   13.70
   4   6  -8  190.28   14.70
   4   6  -8  204.78   14.30
  -4  -6   8  178.88    9.30
  -4  -6   8  198.48   10.70
  -4  -6   8  211.28   15.90
   3   6  -8   96.49   10.00
   3   6  -8  101.49   10.20
   3   6  -8   98.59   12.90
   3   6  -8  109.59   10.00
  -3  -6   8   93.19   10.50
  -3  -6   8  112.29    9.00
  -3  -6   8  103.99    7.00
   2   6  -8   15.80    3.80
   2   6  -8   26.20    5.90
   2   6  -8   25.10    8.30
   2   6  -8   12.90    4.00
  -2  -6   8   19.50    4.50
  -2  -6   8   13.20    3.00
  -2  -6   8   28.90    6.70
   1   6  -8  510.25   20.70
   1   6  -8  545.95   22.80
   1   6  -8  532.35   22.20
   1   6  -8  480.85   15.90
  -1  -6   8  532.35   24.50
  -1  -6   8  502.95   17.70
  -1  -6   8  505.65   21.50
   0   6  -8    3.00    1.90
   0   6  -8    5.30    2.00
   0   6  -8    2.40    2.40
   0   6  -8    3.40    2.50
   0   6  -8    1.50    1.90
   0   6  -8    4.30    2.60
   0  -6   8    0.60    1.50
   0  -6   8    2.00    2.10
   0  -6   8    0.80    2.00
  -1   6  -8   -0.90    1.70
  -1   6  -8    1.40    1.80
  -1   6  -8    2.90    1.90
   1  -6   8   -2.30    1.70
   1  -6   8   -1.40    1.70
   1  -6   8    1.80    1.70
  -2   6  -8   45.90    6.00
  -2   6  -8   53.79    6.60
  -2   6  -8   42.60    6.10
   2  -6   8   38.80    6.90
   2  -6   8   42.60    6.70
  -3   6  -8  298.37   14.40
  -3   6  -8  296.27   15.10
   3  -6   8  317.67   16.60
  -4   6  -8    0.40    1.70
  -4   6  -8   -2.40    1.50
   4  -6   8    1.30    2.30
   4  -6   8    0.60    2.40
  -5   6  -8  169.68   10.20
  -5   6  -8  172.08   12.50
   5  -6   8  141.19   13.50
   5  -6   8  170.78   15.60
   5  -6   8  176.48   11.40
  -6   6  -8   49.50    7.90
  -6   6  -8   53.59    5.80
   6  -6   8   41.90    8.60
   6  -6   8   38.80    9.30
  -7   6  -8   11.30    2.80
  -7   6  -8    6.80    4.10
   7  -6   8   16.40    6.00
   7  -6   8   10.00    5.00
   7   5  -8   16.10    4.40
   7   5  -8   15.60    5.20
   7   5  -8   18.80    5.70
  -7  -5   8   20.60    6.80
   6   5  -8  263.47   17.60
   6   5  -8  251.57   17.60
   6   5  -8  243.68   16.20
  -6  -5   8  227.38   12.00
  -6  -5   8  253.17   18.20
   5   5  -8   81.69    9.60
   5   5  -8   57.89    8.30
  -5  -5   8   72.59    9.70
  -5  -5   8   62.69    4.20
  -5  -5   8   61.19    9.50
  -5  -5   8   66.19    6.10
   4   5  -8  204.58   14.40
   4   5  -8  221.48   14.00
   4   5  -8  191.68   14.20
  -4  -5   8  207.58   10.10
  -4  -5   8  188.08   10.00
  -4  -5   8  222.88   15.80
  -4  -5   8  172.38   11.40
   3   5  -8  301.77   17.40
   3   5  -8  297.77   15.60
   3   5  -8  325.07   17.30
   3   5  -8  310.47   17.40
  -3  -5   8  312.27   14.10
  -3  -5   8  272.27   12.10
  -3  -5   8  338.97   26.60
   2   5  -8  188.98    7.50
   2   5  -8  205.98   13.60
   2   5  -8  206.58   12.40
   2   5  -8  224.78   13.90
   2   5  -8  187.48   12.70
  -2  -5   8  197.38   14.20
  -2  -5   8  186.98   10.10
  -2  -5   8  217.58   12.40
   1   5  -8  213.08   12.40
   1   5  -8  233.88   13.90
   1   5  -8  207.48    9.90
   1   5  -8  220.58   13.50
  -1  -5   8  225.18   13.20
  -1  -5   8  213.38   11.00
  -1  -5   8  208.68   14.30
   0   5  -8  936.41   27.90
   0   5  -8  942.71   29.30
   0   5  -8  921.21   26.60
   0   5  -8  930.51   30.20
   0   5  -8  911.81   22.10
   0   5  -8  906.51   26.20
   0  -5   8  938.11   31.80
   0  -5   8  960.20   31.00
  -1   5  -8  357.36   15.50
  -1   5  -8  339.67   15.60
  -1   5  -8  354.86   16.00
  -1   5  -8  361.86   14.20
   1  -5   8  366.36   16.00
   1  -5   8  384.16   18.60
   1  -5   8  364.36   18.50
  -2   5  -8   15.10    3.50
  -2   5  -8   13.70    3.60
  -2   5  -8   19.10    4.60
   2  -5   8   11.40    3.80
   2  -5   8   13.80    4.00
  -3   5  -8  101.29    8.80
  -3   5  -8   90.19    7.40
  -3   5  -8   95.39    9.10
   3  -5   8   94.99   10.20
   3  -5   8   98.49    8.80
  -4   5  -8   26.30    3.60
  -4   5  -8   29.30    5.50
  -4   5  -8   28.40    4.50
   4  -5   8   29.80    5.20
   4  -5   8   34.70    6.80
   4  -5   8   31.50    6.50
  -5   5  -8    5.20    2.70
  -5   5  -8   11.50    2.80
  -5   5  -8    2.20    2.60
   5  -5   8   13.10    4.90
   5  -5   8    6.80    2.90
   5  -5   8   10.30    4.00
  -6   5  -8  122.99    9.80
  -6   5  -8  135.89   11.40
  -6   5  -8  135.29    7.80
   6  -5   8  128.89    9.20
   6  -5   8  154.38   13.90
   6  -5   8  131.79   13.80
  -7   5  -8  140.49    7.30
  -7   5  -8  145.39   12.90
   7  -5   8  141.99   15.20
   7  -5   8  145.59   14.30
   7   4  -8  109.79   12.40
   7   4  -8  113.89   12.40
   7   4  -8  116.59   11.60
  -7  -4   8  138.89   13.20
   6   4  -8   68.29    6.80
   6   4  -8   61.59    8.60
   6   4  -8   89.19   10.50
   6   4  -8   73.19    9.20
  -6  -4   8   64.49    8.60
  -6  -4   8   68.59    9.60
   5   4  -8   61.39    8.50
   5   4  -8   63.79    5.90
   5   4  -8   67.29    7.90
   5   4  -8   67.69    8.90
  -5  -4   8   63.59    6.80
  -5  -4   8   79.99    9.90
  -5  -4   8   64.79    6.50
   4   4  -8  354.26   11.90
   4   4  -8  363.66   17.30
   4   4  -8  378.36   19.20
   4   4  -8  401.96   19.50
   4   4  -8  361.06   19.20
  -4  -4   8  347.37   14.60
  -4  -4   8  370.66   20.10
  -4  -4   8  341.47   15.20
  -4  -4   8  370.16   12.90
   3   4  -8    5.30    2.70
   3   4  -8    8.60    3.50
   3   4  -8   12.60    3.80
   3   4  -8   12.10    3.60
  -3  -4   8   10.40    2.70
  -3  -4   8   14.30    3.40
  -3  -4   8   10.60    3.50
   2   4  -8 1095.09   26.00
   2   4  -8 1093.69   34.00
   2   4  -8 1137.19   31.30
   2   4  -8 1191.18   34.60
   2   4  -8 1127.49   34.10
  -2  -4   8 1126.09   36.30
  -2  -4   8 1066.69   29.10
  -2  -4   8 1143.29   31.00
   1   4  -8    8.60    2.30
   1   4  -8   14.50    3.90
   1   4  -8    5.80    2.50
   1   4  -8    7.30    2.90
  -1  -4   8    8.10    3.00
  -1  -4   8    5.10    2.10
  -1  -4   8   16.20    4.80
   0   4  -8  370.16   15.00
   0   4  -8  337.77   11.00
   0   4  -8  363.46   15.40
   0   4  -8  331.37   14.00
   0   4  -8  358.06   17.00
   0   4  -8  339.07   15.60
   0  -4   8  324.37   14.60
   0  -4   8  348.87   16.80
   0  -4   8  357.06   17.80
  -1   4  -8  743.23   23.80
  -1   4  -8  704.53   22.80
  -1   4  -8  729.43   21.10
  -1   4  -8  714.53   24.10
   1  -4   8  710.23   23.70
   1  -4   8  746.63   26.30
   1  -4   8  756.42   26.90
  -2   4  -8 1289.47   34.30
  -2   4  -8 1258.67   33.30
  -2   4  -8 1221.88   24.50
  -2   4  -8 1275.17   31.70
  -2   4  -8 1209.68   35.50
   2  -4   8 1282.07   38.20
   2  -4   8 1198.18   34.40
   2  -4   8 1229.88   35.30
  -3   4  -8   33.40    5.70
  -3   4  -8   49.10    4.50
  -3   4  -8   50.89    5.90
  -3   4  -8   55.69    6.40
   3  -4   8   49.30    6.30
   3  -4   8   47.90    7.40
  -4   4  -8  550.14   17.00
  -4   4  -8  533.75   17.60
  -4   4  -8  572.64   22.20
   4  -4   8  546.45   19.90
   4  -4   8  557.84   25.10
   4  -4   8  565.64   25.40
  -5   4  -8    4.40    1.70
  -5   4  -8    2.70    2.20
  -5   4  -8    0.80    2.20
   5  -4   8    5.00    2.40
   5  -4   8    4.00    2.60
   5  -4   8    4.60    3.20
  -6   4  -8    6.60    1.80
  -6   4  -8    7.30    3.30
  -6   4  -8    7.80    3.30
   6  -4   8    2.00    2.80
   6  -4   8    7.50    4.00
   6  -4   8    3.60    2.10
  -7   4  -8  122.09   11.70
   7  -4   8  133.59   13.40
   7  -4   8  131.89   13.30
  -8   4  -8  216.58   16.10
   8  -4   8  202.78   17.20
   8  -4   8  199.88   18.00
   8   3  -8  149.69   14.50
   8   3  -8  147.09   14.30
   8   3  -8  146.29   12.20
  -8  -3   8  177.38   15.80
  -8  -3   8  142.09   13.60
   7   3  -8    1.90    1.90
   7   3  -8   -3.50    2.00
   7   3  -8    5.20    2.60
   7   3  -8   -5.10    2.80
  -7  -3   8   -2.40    2.30
  -7  -3   8    1.30    2.50
  -7  -3   8   -1.30    1.90
   6   3  -8    9.70    3.50
   6   3  -8   10.30    3.70
   6   3  -8    6.70    3.00
   6   3  -8    9.00    2.80
  -6  -3   8    6.00    3.30
  -6  -3   8   11.00    2.90
   5   3  -8  145.59   11.10
   5   3  -8  142.09   11.90
   5   3  -8  165.58   13.50
   5   3  -8  161.88    9.80
  -5  -3   8  149.79    8.70
  -5  -3   8  144.59   12.50
   4   3  -8  174.08   12.60
   4   3  -8  169.08   11.00
   4   3  -8  187.88   12.80
   4   3  -8  170.68    9.10
  -4  -3   8  159.28    7.60
  -4  -3   8  155.98    9.90
  -4  -3   8  159.98    8.80
  -4  -3   8  170.18   13.20
   3   3  -8   22.10    5.00
   3   3  -8   26.90    3.50
   3   3  -8   21.60    4.60
   3   3  -8   22.70    2.80
   3   3  -8   27.80    5.40
  -3  -3   8   22.10    4.10
  -3  -3   8   22.90    3.60
  -3  -3   8   28.70    4.00
  -3  -3   8   33.80    6.40
   2   3  -8  702.63   21.90
   2   3  -8  678.63   17.00
   2   3  -8  696.43   24.80
   2   3  -8  691.43   24.70
   2   3  -8  705.33   24.70
   2   3  -8  688.73   18.90
  -2  -3   8  686.03   21.70
  -2  -3   8  702.93   26.60
  -2  -3   8  674.73   25.10
   1   3  -8  393.66   17.30
   1   3  -8  379.96   10.50
   1   3  -8  409.46   15.00
   1   3  -8  350.46   16.10
   1   3  -8  366.86   14.00
  -1  -3   8  377.66   17.30
  -1  -3   8  366.66   16.00
  -1  -3   8  355.86   15.00
  -1  -3   8  354.26   17.90
   0   3  -8  365.46   14.80
   0   3  -8  348.07   11.10
   0   3  -8  353.86   16.40
   0   3  -8  356.86   15.40
   0   3  -8  374.96   10.90
   0   3  -8  351.86   15.10
   0   3  -8  352.36    9.90
   0  -3   8  346.07   14.30
   0  -3   8  375.56   17.70
   0  -3   8  370.46   16.60
   0  -3   8  350.06   17.50
  -1   3  -8   63.69    6.00
  -1   3  -8   62.59    4.00
  -1   3  -8   66.89    5.60
  -1   3  -8   63.29    7.70
  -1   3  -8   68.49    7.00
   1  -3   8   56.89    7.00
   1  -3   8   68.39    7.50
   1  -3   8   64.39    5.70
   1  -3   8   54.69    6.10
  -2   3  -8 2381.56   45.90
  -2   3  -8 2335.47   48.50
  -2   3  -8 2349.36   53.09
  -2   3  -8 2248.68   53.89
   2  -3   8 2291.57   53.59
   2  -3   8 2375.46   53.79
   2  -3   8 2464.75   57.39
  -3   3  -8  255.47   13.90
  -3   3  -8  270.47   11.20
  -3   3  -8  284.07   11.00
   3  -3   8  273.57   16.00
   3  -3   8  272.67   13.60
   3  -3   8  282.37   16.00
  -4   3  -8  346.07   16.80
  -4   3  -8  324.17   13.90
  -4   3  -8  345.37   11.40
   4  -3   8  352.26   14.90
   4  -3   8  359.26   19.10
   4  -3   8  372.86   19.40
  -5   3  -8  621.54   14.80
  -5   3  -8  616.74   24.00
  -5   3  -8  563.74   21.40
   5  -3   8  630.44   27.20
   5  -3   8  620.84   19.60
   5  -3   8  601.94   26.20
  -6   3  -8  399.36   20.60
   6  -3   8  460.75   29.40
   6  -3   8  392.46   13.30
   6  -3   8  340.87   25.60
  -7   3  -8  165.98   13.50
   7  -3   8  166.18   11.80
   7  -3   8  146.49   13.90
   7  -3   8  170.38   15.20
  -8   3  -8  328.57   19.70
   8  -3   8  316.17   22.00
   8  -3   8  324.87   16.50
   8  -3   8  355.56   21.60
   8   2  -8    3.90    5.40
   8   2  -8   -2.40    2.60
   8   2  -8    0.70    2.50
  -8  -2   8   -1.10    2.30
  -8  -2   8    0.70    3.60
   7   2  -8  140.79   11.30
   7   2  -8  130.39   13.00
   7   2  -8  151.08   13.10
  -7  -2   8  128.99   12.80
  -7  -2   8  145.99   12.80
  -7  -2   8  109.29    7.30
   6   2  -8  346.27   19.50
   6   2  -8  390.16   18.60
   6   2  -8  381.26   25.00
   6   2  -8  378.26   17.60
  -6  -2   8  364.16   14.90
  -6  -2   8  419.06   30.60
   5   2  -8   13.30    3.30
   5   2  -8   16.90    2.10
   5   2  -8   21.50    5.50
   5   2  -8   24.00    5.30
   5   2  -8   25.20    5.40
  -5  -2   8   16.80    3.00
  -5  -2   8   23.20    5.90
   4   2  -8   17.90    4.60
   4   2  -8   20.60    4.50
   4   2  -8   20.10    2.70
   4   2  -8   16.90    3.70
   4   2  -8   12.20    3.70
  -4  -2   8   13.10    3.40
  -4  -2   8   16.90    2.80
  -4  -2   8   14.30    4.10
  -4  -2   8   27.80    3.10
   3   2  -8  108.49    9.40
   3   2  -8  114.49    9.40
   3   2  -8  104.99    7.10
   3   2  -8  110.09    8.00
   3   2  -8  104.19    6.20
  -3  -2   8  112.19   10.00
  -3  -2   8  109.19    8.20
  -3  -2   8  107.39    6.90
  -3  -2   8  110.09    6.10
   2   2  -8   52.59    4.80
   2   2  -8   47.80    4.60
   2   2  -8   52.79    5.20
   2   2  -8   46.50    6.00
   2   2  -8   51.39    6.30
  -2  -2   8   51.69    5.30
  -2  -2   8   42.80    5.50
  -2  -2   8   45.90    6.40
  -2  -2   8   43.80    5.40
   1   2  -8  389.76   12.60
   1   2  -8  355.76   13.90
   1   2  -8  365.56   15.40
   1   2  -8  395.26   17.10
   1   2  -8  364.76   13.30
  -1  -2   8  377.96   18.60
  -1  -2   8  356.16   14.70
  -1  -2   8  375.36   19.20
  -1  -2   8  376.26   17.70
   0   2  -8 1330.17   33.90
   0   2  -8 1411.86   31.20
   0   2  -8 1421.86   37.10
   0   2  -8 1403.56   36.00
   0   2  -8 1495.05   51.69
   0   2  -8 1403.86   28.70
   0  -2   8 1364.16   32.90
   0  -2   8 1339.77   35.20
   0  -2   8 1420.16   36.70
   0  -2   8 1410.06   38.30
  -1   2  -8    3.00    1.80
  -1   2  -8    3.90    1.60
  -1   2  -8    7.90    2.70
  -1   2  -8    3.10    1.60
  -1   2  -8    3.00    1.80
   1  -2   8    4.80    2.20
   1  -2   8    2.80    2.00
   1  -2   8    1.40    1.50
   1  -2   8    3.80    2.10
   1  -2   8    3.60    1.60
   1  -2   8    3.10    1.80
  -2   2  -8  145.99   10.10
  -2   2  -8  176.38    8.40
  -2   2  -8  157.18   10.30
  -2   2  -8  156.28    8.30
   2  -2   8  170.18   11.80
   2  -2   8  173.78   10.80
   2  -2   8  154.88   10.10
   2  -2   8  162.28   10.70
   2  -2   8  161.88   10.30
  -3   2  -8 1099.39   28.70
  -3   2  -8 1121.39   32.40
   3  -2   8 1174.58   34.30
   3  -2   8 1132.79   35.00
   3  -2   8 1170.18   31.20
   3  -2   8 1055.59   31.50
  -4   2  -8  165.68   10.10
  -4   2  -8  185.98   12.20
   4  -2   8  167.48   12.60
   4  -2   8  189.58   13.40
   4  -2   8  182.28   11.50
   4  -2   8  182.48   10.40
  -5   2  -8  253.57   13.70
  -5   2  -8  286.37   15.70
   5  -2   8  285.27   17.20
   5  -2   8  282.07   17.20
   5  -2   8  277.67   11.90
  -6   2  -8  910.61   32.00
   6  -2   8  902.21   34.20
   6  -2   8  917.41   22.50
   6  -2   8  894.61   33.30
  -7   2  -8    7.90    3.60
   7  -2   8   18.30    5.40
   7  -2   8    5.20    3.10
   7  -2   8   11.30    4.00
  -8   2  -8    9.80    4.20
   8  -2   8    6.00    3.60
   8  -2   8   14.40    4.80
   8  -2   8   15.80    4.60
  -9   2  -8   80.89   11.10
   9  -2   8   67.39    8.70
   9  -2   8   71.19    9.70
   9  -2   8   69.29   11.50
   8   1  -8    0.70    2.50
   8   1  -8   -4.90    2.10
   8   1  -8    1.20    2.80
  -8  -1   8    1.50    2.50
  -8  -1   8    4.20    4.00
   7   1  -8   27.80    6.00
   7   1  -8   17.30    4.80
   7   1  -8   20.00    5.40
  -7  -1   8   24.00    6.20
  -7  -1   8   34.30    6.50
   6   1  -8  174.18   12.30
   6   1  -8  180.48   13.40
   6   1  -8  175.08    8.20
   6   1  -8  180.98   13.90
  -6  -1   8  183.88   13.80
  -6  -1   8  171.08   18.30
   5   1  -8  569.74   16.80
   5   1  -8  561.14   24.20
   5   1  -8  585.14   23.60
   5   1  -8  587.54   22.20
  -5  -1   8  626.84   25.50
   4   1  -8   30.60    3.60
   4   1  -8   38.70    5.10
   4   1  -8   24.40    4.40
   4   1  -8   35.10    5.70
   4   1  -8   25.20    5.20
  -4  -1   8   26.70    5.60
   3   1  -8  556.84   17.00
   3   1  -8  521.35   20.30
   3   1  -8  544.15   18.70
   3   1  -8  540.55   17.70
   3   1  -8  519.55   21.00
  -3  -1   8  507.85   19.10
  -3  -1   8  556.84   16.90
  -3  -1   8  581.84   23.20
   2   1  -8    4.30    2.10
   2   1  -8    6.10    2.10
   2   1  -8    5.40    2.00
   2   1  -8    6.00    2.70
   2   1  -8    7.10    2.00
  -2  -1   8    5.70    2.40
  -2  -1   8    4.90    1.90
  -2  -1   8    9.50    2.60
  -2  -1   8    4.00    1.60
   1   1  -8   17.60    4.00
   1   1  -8   15.80    2.70
   1   1  -8   17.00    1.90
   1   1  -8   15.00    3.40
   1   1  -8   23.00    4.40
  -1  -1   8   24.80    3.50
  -1  -1   8   19.20    2.70
  -1  -1   8   11.40    2.80
  -1  -1   8   16.30    3.60
  -1  -1   8    8.80    2.80
   0   1  -8   65.59    7.00
   0   1  -8   72.69    4.70
   0   1  -8   67.49    4.50
   0   1  -8   70.99    7.00
   0   1  -8   72.79    7.10
   0   1  -8   75.09    6.90
   0  -1   8   70.29    6.80
   0  -1   8   63.09    5.40
   0  -1   8   77.49    7.80
   0  -1   8   65.49    6.30
   0  -1   8   75.29    5.70
  -1   1  -8  712.83   23.40
  -1   1  -8  695.13   17.20
  -1   1  -8  694.73   23.30
  -1   1  -8  707.33   23.90
  -1   1  -8  710.23   19.70
   1  -1   8  715.73   19.00
   1  -1   8  688.23   23.50
   1  -1   8  694.13   21.30
   1  -1   8  681.33   22.60
   1  -1   8  698.53   23.80
  -2   1  -8  163.68   10.00
  -2   1  -8  161.18    9.30
  -2   1  -8  143.69   10.40
  -2   1  -8  150.28   10.10
  -2   1  -8  149.09   10.10
   2  -1   8  158.18   11.10
   2  -1   8  151.38    6.90
   2  -1   8  141.69    9.40
   2  -1   8  163.98   10.20
   2  -1   8  154.58   10.20
   2  -1   8  141.99    9.80
  -3   1  -8    9.30    2.80
  -3   1  -8   17.50    3.50
  -3   1  -8   11.50    3.50
  -3   1  -8   13.90    3.20
   3  -1   8   19.00    4.20
   3  -1   8   14.70    3.60
   3  -1   8   12.70    4.20
   3  -1   8   15.10    3.40
  -4   1  -8    0.10    1.80
  -4   1  -8    2.10    2.00
   4  -1   8    2.10    1.70
   4  -1   8   -0.60    1.60
   4  -1   8    0.40    1.90
   4  -1   8   -0.90    1.20
  -5   1  -8  374.56   18.00
  -5   1  -8  378.76   17.20
   5  -1   8  385.06   19.60
   5  -1   8  351.56   15.70
   5  -1   8  362.56   19.10
   5  -1   8  383.66   14.10
  -6   1  -8    3.00    2.40
   6  -1   8    6.90    2.20
   6  -1   8   10.30    3.10
   6  -1   8    9.80    3.70
   6  -1   8   11.00    4.00
  -7   1  -8  415.16   20.50
   7  -1   8  422.86   23.20
   7  -1   8  379.26   17.40
   7  -1   8  393.76   19.30
   7  -1   8  405.26   24.90
  -8   1  -8   16.40    4.80
   8  -1   8   21.50    5.50
   8  -1   8   36.90    6.60
   8  -1   8   17.50    4.90
  -9   1  -8    5.60    3.90
   9  -1   8    2.10    2.40
   9  -1   8   -0.30    3.50
   9  -1   8    5.60    3.60
   9   0  -8   67.49   10.70
   9   0  -8   88.99   11.60
   9   0  -8   68.19   11.20
  -9   0   8  112.29   13.70
  -9   0   8  103.09   11.40
   8   0  -8  159.78   13.70
   8   0  -8  124.29   13.10
   8   0  -8  118.69   12.10
  -8   0   8  138.09   12.50
  -8   0   8  142.09   13.80
   7   0  -8  150.48   12.70
   7   0  -8  177.28   14.50
   7   0  -8  153.78    9.10
  -7   0   8  145.29   13.60
   6   0  -8    4.60    2.00
   6   0  -8    1.10    2.50
   6   0  -8    8.60    3.30
  -6   0   8    7.20    2.90
   5   0  -8  778.92   27.10
   5   0  -8  785.82   27.10
   5   0  -8  748.43   28.20
   5   0  -8  769.32   22.20
  -5   0   8  789.62   30.10
  -5   0   8  741.73   22.70
  -5   0   8  732.13   28.10
   4   0  -8  183.58    8.20
   4   0  -8  183.28   11.60
   4   0  -8  182.28   12.20
   4   0  -8  183.08    9.70
   4   0  -8  179.48   11.60
  -4   0   8  190.58   13.10
   3   0  -8  324.17   14.80
   3   0  -8  322.17   13.20
   3   0  -8  313.57   12.20
   3   0  -8  331.67   14.80
  -3   0   8  303.97   12.00
  -3   0   8  305.67   14.60
  -3   0   8  303.07   14.70
  -3   0   8  328.87   16.90
   2   0  -8  131.49    8.80
   2   0  -8  148.39   10.00
   2   0  -8  131.49    6.80
   2   0  -8  124.39    8.90
   2   0  -8  129.09    5.00
   2   0  -8  123.69    7.90
  -2   0   8  143.59    9.40
  -2   0   8  142.09   10.50
  -2   0   8  136.89    8.30
   1   0  -8  204.78   12.10
   1   0  -8  183.28   10.20
   1   0  -8  191.68   11.10
   1   0  -8  197.08    7.50
   1   0  -8  201.08    7.70
  -1   0   8  181.18    6.40
  -1   0   8  196.58   10.60
  -1   0   8  186.98   10.80
  -1   0   8  175.48   11.50
  -1   0   8  182.48    9.80
   0   0  -8  458.25   14.10
   0   0  -8  467.85   17.60
   0   0  -8  460.65   11.80
   0   0  -8  432.86   17.30
   0   0  -8  459.25   18.30
   0   0  -8  482.65   18.60
   0   0   8  441.46   14.90
   0   0   8  469.25   17.60
   0   0   8  464.55   17.90
   0   0   8  468.25   18.90
   0   0   8  458.95   13.80
  -1   0  -8  735.93   24.20
  -1   0  -8  760.92   24.10
  -1   0  -8  752.12   20.90
  -1   0  -8  750.02   16.00
  -1   0  -8  724.03   24.30
   1   0   8  724.83   24.20
   1   0   8  718.83   23.50
   1   0   8  781.02   21.40
   1   0   8  733.83   19.00
   1   0   8  718.83   24.20
  -2   0  -8   13.50    3.50
  -2   0  -8   18.80    4.10
  -2   0  -8   17.40    3.60
  -2   0  -8   11.90    3.10
   2   0   8   10.90    3.00
   2   0   8   11.40    1.80
   2   0   8   12.40    3.10
   2   0   8    6.40    2.60
   2   0   8   12.70    2.90
   2   0   8    6.80    2.40
  -3   0  -8   22.40    4.00
  -3   0  -8   21.60    4.40
  -3   0  -8   19.70    4.20
   3   0   8   20.00    3.90
   3   0   8   23.30    4.10
   3   0   8   25.90    3.90
   3   0   8   10.20    2.80
  -4   0  -8  230.38   11.10
  -4   0  -8  231.68   13.30
  -4   0  -8  232.58   12.80
  -4   0  -8  236.98   13.50
   4   0   8  246.38   14.20
   4   0   8  257.97   14.90
   4   0   8  229.18   11.50
   4   0   8  200.58   10.70
  -5   0  -8  427.56   19.00
  -5   0  -8  434.06   19.90
  -5   0  -8  376.86   21.10
  -5   0  -8  401.26   14.50
   5   0   8  394.96   14.70
   5   0   8  418.46   20.20
   5   0   8  394.36   15.60
   5   0   8  405.86   19.80
  -6   0  -8  148.39   11.70
  -6   0  -8  147.69    9.40
  -6   0  -8  163.98   12.90
   6   0   8  146.89    9.10
   6   0   8  156.88   12.80
   6   0   8  158.28   12.80
   6   0   8  144.99    7.70
   6   0   8  171.38   12.60
  -7   0  -8  216.98   14.70
  -7   0  -8  221.18   16.70
   7   0   8  233.48   15.00
   7   0   8  230.58   17.30
   7   0   8  210.08   11.50
  -8   0  -8  212.38   15.20
  -8   0  -8  221.98   17.20
   8   0   8  216.48   17.00
   8   0   8  183.48   13.90
   8   0   8  186.48   13.70
   8   0   8  179.58   14.60
  -9   0  -8   79.69   11.20
  -9   0  -8   92.49   10.70
   9   0   8   83.09   11.60
   9   0   8   89.29   10.40
   9   0   8   92.19   10.70
   9  -1  -8    7.80    3.90
   9  -1  -8   17.30    6.00
  -9   1   8   14.60    4.90
  -9   1   8    3.20    4.50
   8  -1  -8    7.10    3.20
   8  -1  -8    5.30    3.00
   8  -1  -8    8.00    3.60
   8  -1  -8    1.30    2.70
  -8   1   8    3.00    2.10
  -8   1   8    2.00    2.50
  -8   1   8   -4.70    2.30
   7  -1  -8  215.38   14.70
   7  -1  -8  242.38   12.80
   7  -1  -8  233.48   16.40
   7  -1  -8  239.98   18.10
  -7   1   8  225.88   17.20
  -7   1   8  234.58   17.00
   6  -1  -8    2.70    2.30
   6  -1  -8   -1.50    2.20
   6  -1  -8    1.80    2.40
   6  -1  -8    0.70    1.80
  -6   1   8    2.60    2.20
  -6   1   8    2.00    1.30
   5  -1  -8   13.50    2.60
   5  -1  -8   15.00    3.90
   5  -1  -8   17.30    4.30
   5  -1  -8   14.00    3.60
   5  -1  -8   25.30    5.40
  -5   1   8   16.40    2.30
  -5   1   8   18.70    3.80
  -5   1   8   16.10    4.60
  -5   1   8   19.50    5.20
   4  -1  -8  188.58    8.70
   4  -1  -8  191.78   11.50
   4  -1  -8  189.08   10.70
   4  -1  -8  190.98   12.30
   4  -1  -8  184.28   12.30
  -4   1   8  191.58    7.10
  -4   1   8  172.58   12.60
  -4   1   8  198.78   13.50
  -4   1   8  173.58    8.80
   3  -1  -8  462.05   19.10
   3  -1  -8  440.86   17.30
   3  -1  -8  447.16   18.60
   3  -1  -8  454.75   17.30
   3  -1  -8  451.55   15.40
  -3   1   8  468.95   20.50
  -3   1   8  450.15   18.40
  -3   1   8  454.85   12.50
   2  -1  -8  830.22   23.60
   2  -1  -8  800.32   20.10
   2  -1  -8  844.32   26.00
   2  -1  -8  823.92   23.80
  -2   1   8  832.62   25.80
  -2   1   8  783.82   27.30
  -2   1   8  809.82   27.80
  -2   1   8  813.32   23.50
   1  -1  -8 1151.68   30.50
   1  -1  -8 1177.38   31.30
   1  -1  -8 1139.79   32.80
   1  -1  -8 1186.78   27.10
  -1   1   8 1223.58   34.40
  -1   1   8 1123.19   34.30
  -1   1   8 1162.98   31.70
  -1   1   8 1141.69   29.60
   0  -1  -8    9.50    2.80
   0  -1  -8   24.20    4.40
   0  -1  -8   12.30    3.00
   0  -1  -8   18.00    3.10
   0  -1  -8   22.80    4.00
   0   1   8   25.60    4.80
   0   1   8   15.00    2.80
   0   1   8   15.50    3.50
   0   1   8   15.90    2.20
   0   1   8   15.80    3.70
  -1  -1  -8  239.18   13.00
  -1  -1  -8  240.48   12.80
  -1  -1  -8  252.27   15.00
  -1  -1  -8  277.07   11.90
   1   1   8  250.57    9.60
   1   1   8  244.58   13.10
   1   1   8  258.27   12.90
   1   1   8  245.98   10.30
   1   1   8  243.88   13.10
  -2  -1  -8  128.99    8.60
  -2  -1  -8  130.89    9.50
  -2  -1  -8  120.49    9.40
  -2  -1  -8  124.19    8.70
   2   1   8  126.19   10.30
   2   1   8  126.29    9.80
   2   1   8  133.09    5.60
   2   1   8  126.89    9.10
   2   1   8  135.59    8.40
  -3  -1  -8 1435.26   36.80
  -3  -1  -8 1388.76   26.50
  -3  -1  -8 1369.56   34.80
  -3  -1  -8 1437.46   37.80
   3   1   8 1408.16   35.50
   3   1   8 1386.56   39.00
   3   1   8 1363.16   32.70
   3   1   8 1398.16   36.00
  -4  -1  -8   20.60    3.70
  -4  -1  -8   26.70    5.20
  -4  -1  -8   22.40    2.90
  -4  -1  -8   23.40    4.70
   4   1   8   22.20    4.00
   4   1   8   27.70    3.70
   4   1   8   25.00    4.80
  -5  -1  -8  377.26   12.80
  -5  -1  -8  414.46   15.00
  -5  -1  -8  396.36   18.50
  -5  -1  -8  384.76   18.90
   5   1   8  385.66   14.80
   5   1   8  382.06   19.30
   5   1   8  382.06   19.00
   5   1   8  388.46   14.20
  -6  -1  -8   -0.80    1.20
  -6  -1  -8   -0.90    1.70
  -6  -1  -8    0.20    1.50
  -6  -1  -8    1.10    2.10
   6   1   8    2.60    2.50
   6   1   8   -0.60    1.60
   6   1   8    4.80    1.80
   6   1   8    1.20    2.80
   6   1   8    0.40    1.40
  -7  -1  -8   35.00    5.30
  -7  -1  -8   48.60    8.30
  -7  -1  -8   33.60    6.50
   7   1   8   40.20    7.10
   7   1   8   37.80    4.70
   7   1   8   37.90    8.50
   7   1   8   30.20    6.50
  -8  -1  -8    2.00    2.70
  -8  -1  -8    2.40    2.90
   8   1   8    1.00    2.50
   8   1   8    0.10    2.10
   8   1   8    3.30    2.30
   8   1   8    1.40    2.90
  -9  -1  -8  369.46   21.10
  -9  -1  -8  398.56   24.10
   9   1   8  376.66   21.80
   9   1   8  392.66   21.40
   9   1   8  404.06   24.50
   8  -2  -8   -0.40    2.60
   8  -2  -8   -4.00    2.30
   8  -2  -8   -1.80    2.70
  -8   2   8   -3.10    3.10
  -8   2   8   -3.10    2.00
   7  -2  -8   31.10    6.10
   7  -2  -8   21.30    5.10
   7  -2  -8   34.60    7.00
   7  -2  -8   30.20    6.70
  -7   2   8   34.90    7.70
  -7   2   8   19.10    5.90
  -7   2   8   15.00    3.60
   6  -2  -8  423.36   11.60
   6  -2  -8  420.36   18.30
   6  -2  -8  469.35   22.60
   6  -2  -8  449.36   19.80
   6  -2  -8  481.35   22.30
  -6   2   8  423.36   14.60
  -6   2   8  430.76   24.80
  -6   2   8  435.96   21.20
   5  -2  -8    2.60    1.70
   5  -2  -8    2.00    2.00
   5  -2  -8    3.80    2.00
   5  -2  -8    2.20    2.10
   5  -2  -8    5.20    2.80
  -5   2   8    6.60    3.70
  -5   2   8    4.90    3.20
  -5   2   8    1.50    1.60
   4  -2  -8   45.50    4.80
   4  -2  -8   54.89    6.10
   4  -2  -8   41.40    5.80
   4  -2  -8   49.00    6.80
   4  -2  -8   40.80    6.20
  -4   2   8   37.50    5.90
  -4   2   8   49.50    4.40
  -4   2   8   47.40    4.20
  -4   2   8   54.99    7.60
   3  -2  -8   55.69    6.50
   3  -2  -8   56.59    5.30
   3  -2  -8   68.29    7.50
   3  -2  -8   58.79    6.50
   3  -2  -8   59.09    5.30
   3  -2  -8   56.99    5.70
  -3   2   8   64.39    4.90
  -3   2   8   47.40    6.70
  -3   2   8   50.89    6.20
  -3   2   8   55.79    7.20
  -3   2   8   52.19    4.00
   2  -2  -8  461.15   17.00
   2  -2  -8  501.45   18.70
   2  -2  -8  517.15   16.80
   2  -2  -8  492.85   16.10
  -2   2   8  475.15   20.00
  -2   2   8  404.76   24.30
  -2   2   8  465.05   23.40
  -2   2   8  471.65   15.10
  -2   2   8  478.15   20.40
   1  -2  -8  103.79    7.70
   1  -2  -8   98.79    6.70
   1  -2  -8  108.69    7.30
   1  -2  -8  107.99    8.00
  -1   2   8  104.19    8.10
  -1   2   8  100.49    8.10
  -1   2   8  107.99    9.10
  -1   2   8   94.39    7.20
  -1   2   8   96.49    6.60
   0  -2  -8 2460.05   55.29
   0  -2  -8 2490.55   52.09
   0  -2  -8 2446.66   55.39
   0  -2  -8 2314.57   58.69
   0  -2  -8 2466.55   51.09
   0   2   8 2484.85   56.29
   0   2   8 2498.55   50.09
   0   2   8 2375.36   53.69
   0   2   8 2411.46   53.99
  -1  -2  -8  612.44   20.70
  -1  -2  -8  550.34   20.80
  -1  -2  -8  581.34   21.40
  -1  -2  -8  607.64   21.80
  -1  -2  -8  632.94   19.90
   1   2   8  593.74   21.00
   1   2   8  600.44   17.20
   1   2   8  599.84   21.90
   1   2   8  595.54   16.80
   1   2   8  597.94   22.00
  -2  -2  -8   73.99    6.90
  -2  -2  -8   64.19    6.90
  -2  -2  -8   60.99    7.00
  -2  -2  -8   61.19    6.40
   2   2   8   85.49    7.90
   2   2   8   64.99    6.50
   2   2   8   65.59    4.00
   2   2   8   67.09    6.90
   2   2   8   67.09    5.90
  -3  -2  -8  221.28   12.80
  -3  -2  -8  235.48   12.30
  -3  -2  -8  239.68   13.30
   3   2   8  244.08   14.20
   3   2   8  226.78   12.10
   3   2   8  226.98    9.80
   3   2   8  229.88   12.30
  -4  -2  -8  550.94   21.50
  -4  -2  -8  537.65   21.60
  -4  -2  -8  512.55   12.50
  -4  -2  -8  544.45   18.90
   4   2   8  535.05   21.10
   4   2   8  506.05   18.80
   4   2   8  532.55   15.90
   4   2   8  566.44   22.90
  -5  -2  -8   23.00    4.90
  -5  -2  -8   27.00    5.60
  -5  -2  -8   29.30    4.30
  -5  -2  -8   25.30    3.10
   5   2   8   38.40    6.30
   5   2   8   35.40    6.20
   5   2   8   25.00    3.70
   5   2   8   25.10    5.60
   5   2   8   24.80    4.20
  -6  -2  -8   81.49    6.40
  -6  -2  -8   78.59    5.90
  -6  -2  -8   93.29   10.10
  -6  -2  -8   94.29    9.30
   6   2   8   92.39    9.80
   6   2   8  101.79   10.40
   6   2   8  108.59   10.50
   6   2   8   90.49    5.30
  -7  -2  -8  110.79   10.40
  -7  -2  -8  126.99   12.40
  -7  -2  -8  117.49    8.00
  -7  -2  -8  111.69    6.80
   7   2   8  118.49    5.80
   7   2   8  114.79   11.30
   7   2   8  115.79   11.60
   7   2   8  138.89   18.40
  -8  -2  -8   76.99    9.40
  -8  -2  -8   73.69   10.40
   8   2   8   84.69   11.10
   8   2   8   63.99    8.90
   8   2   8   83.79   10.00
  -9  -2  -8   19.10    5.10
  -9  -2  -8   15.50    5.20
   9   2   8   19.10    6.00
   9   2   8   22.30    6.90
   9   2   8   18.90    5.20
   8  -3  -8  192.48   16.30
   8  -3  -8  186.48   13.60
  -8   3   8  181.08   14.20
  -8   3   8  203.18   17.20
   7  -3  -8  138.89   13.50
   7  -3  -8  160.98   12.00
   7  -3  -8  138.09   12.50
  -7   3   8  134.79   13.00
  -7   3   8  142.79   15.30
  -7   3   8  130.79    9.20
   6  -3  -8  476.95   14.90
   6  -3  -8  461.55   21.90
   6  -3  -8  498.65   24.70
   6  -3  -8  473.45   19.90
   6  -3  -8  470.95   20.80
  -6   3   8  455.55   22.10
  -6   3   8  481.05   24.30
  -6   3   8  459.95   17.30
   5  -3  -8  288.27   17.20
   5  -3  -8  275.87   15.20
   5  -3  -8  276.17   15.60
   5  -3  -8  262.57   13.60
   5  -3  -8  245.38   11.00
  -5   3   8  255.87   15.80
  -5   3   8  257.57   16.60
  -5   3   8  261.07   12.10
  -5   3   8  254.97   13.70
   4  -3  -8  646.64   21.10
   4  -3  -8  627.14   25.50
   4  -3  -8  652.73   23.90
   4  -3  -8  604.14   19.70
   4  -3  -8  631.74   23.40
  -4   3   8  615.44   25.00
  -4   3   8  666.03   26.30
  -4   3   8  626.24   19.60
  -4   3   8  632.54   18.00
   3  -3  -8    4.90    2.00
   3  -3  -8    4.50    2.20
   3  -3  -8    1.20    1.60
   3  -3  -8    2.70    1.80
   3  -3  -8    0.60    1.10
  -3   3   8    4.10    2.40
  -3   3   8    3.90    1.50
  -3   3   8    1.90    1.60
   2  -3  -8 1207.88   32.40
   2  -3  -8 1308.67   32.80
   2  -3  -8 1245.18   33.00
   2  -3  -8 1285.67   29.90
  -2   3   8 1205.58   30.60
  -2   3   8 1260.57   37.00
  -2   3   8 1273.37   35.90
   1  -3  -8  422.36   16.50
   1  -3  -8  418.06   13.80
   1  -3  -8  423.36   16.30
   1  -3  -8  402.76   16.80
  -1   3   8  441.76   16.10
  -1   3   8  436.76   17.80
  -1   3   8  433.36   19.20
   0  -3  -8 1097.19   28.20
   0  -3  -8 1035.60   31.40
   0  -3  -8 1106.79   29.80
   0  -3  -8 1039.60   30.50
   0   3   8 1020.50   30.10
   0   3   8 1082.19   29.20
   0   3   8 1051.39   31.10
   0   3   8 1081.69   29.20
   0   3   8 1112.09   32.80
  -1  -3  -8  619.34   22.90
  -1  -3  -8  657.53   23.20
  -1  -3  -8  653.23   19.90
  -1  -3  -8  636.04   22.70
  -1  -3  -8  673.43   22.40
   1   3   8  663.53   23.60
   1   3   8  652.93   20.50
   1   3   8  681.23   23.90
   1   3   8  618.84   21.90
  -2  -3  -8  709.33   24.20
  -2  -3  -8  703.93   21.80
  -2  -3  -8  668.03   23.40
  -2  -3  -8  670.43   23.20
   2   3   8  699.13   17.70
   2   3   8  691.83   25.00
   2   3   8  751.22   24.70
   2   3   8  721.13   26.60
   2   3   8  713.03   21.30
  -3  -3  -8    1.80    1.80
  -3  -3  -8    1.90    1.90
  -3  -3  -8    1.90    1.70
  -3  -3  -8    0.90    1.30
   3   3   8    2.30    1.90
   3   3   8    4.00    2.20
   3   3   8    3.60    1.30
   3   3   8    1.50    1.70
   3   3   8    1.70    0.80
  -4  -3  -8 1053.19   32.80
  -4  -3  -8 1060.19   30.80
  -4  -3  -8 1081.69   33.80
  -4  -3  -8 1104.49   32.80
   4   3   8 1130.19   24.10
   4   3   8 1106.89   31.10
   4   3   8 1103.99   32.80
   4   3   8 1084.29   34.60
   4   3   8 1128.89   36.20
  -5  -3  -8    0.00    1.70
  -5  -3  -8    1.00    2.00
  -5  -3  -8    4.70    2.70
  -5  -3  -8    2.90    1.10
   5   3   8    2.40    2.00
   5   3   8   -0.50    1.60
   5   3   8    4.00    2.20
   5   3   8    2.30    1.00
   5   3   8    5.10    3.20
  -6  -3  -8   86.39    7.10
  -6  -3  -8  104.79    9.70
  -6  -3  -8   96.59    6.10
  -6  -3  -8   95.59   10.40
   6   3   8  110.19   11.00
   6   3   8   79.89    9.30
   6   3   8  105.29   10.50
  -7  -3  -8  211.38   10.40
  -7  -3  -8  222.28   16.10
  -7  -3  -8  187.08   13.50
   7   3   8  235.38   23.20
   7   3   8  217.28   15.90
  -8  -3  -8   66.99   10.00
  -8  -3  -8   58.29    8.40
  -8  -3  -8   58.19    5.10
   8   3   8   74.59   10.30
   8   3   8   65.19    9.90
   8   3   8   83.19   10.00
  -9  -3  -8    9.30    4.30
  -9  -3  -8    1.50    4.30
   9   3   8    8.40    3.60
   9   3   8    4.60    4.10
   9   3   8    9.20    5.10
   8  -4  -8  321.77   21.60
   8  -4  -8  296.47   18.10
  -8   4   8  324.97   19.20
  -8   4   8  316.37   21.80
   7  -4  -8   63.09    5.30
   7  -4  -8   60.19    9.70
   7  -4  -8   68.09    8.80
   7  -4  -8   58.69    8.50
  -7   4   8   61.19    8.40
  -7   4   8   62.39   10.00
   6  -4  -8    2.90    2.80
   6  -4  -8    3.40    3.10
   6  -4  -8    2.30    2.00
   6  -4  -8    3.60    1.80
  -6   4   8    1.60    2.20
  -6   4   8   -0.70    2.00
  -6   4   8    6.30    3.90
   5  -4  -8    6.90    2.90
   5  -4  -8    9.90    3.00
   5  -4  -8   13.10    4.60
   5  -4  -8    6.70    2.50
   5  -4  -8    4.20    2.70
  -5   4   8    5.60    2.50
  -5   4   8    7.00    3.70
  -5   4   8    6.40    3.40
   4  -4  -8  822.92   27.10
   4  -4  -8  829.62   28.80
   4  -4  -8  828.02   30.60
   4  -4  -8  793.72   26.90
   4  -4  -8  800.22   26.30
  -4   4   8  787.72   29.30
  -4   4   8  803.92   21.30
  -4   4   8  740.43   24.00
  -4   4   8  830.92   30.30
   3  -4  -8   -1.30    1.10
   3  -4  -8    2.90    2.30
   3  -4  -8    1.50    1.40
   3  -4  -8   -1.80    1.50
   3  -4  -8    1.60    1.90
  -3   4   8    0.20    0.90
  -3   4   8    6.80    2.60
  -3   4   8    3.10    2.40
  -3   4   8   -0.20    2.00
   2  -4  -8  723.73   25.80
   2  -4  -8  765.72   25.00
   2  -4  -8  727.73   19.30
   2  -4  -8  738.03   23.30
   2  -4  -8  743.23   24.20
  -2   4   8  726.73   15.00
  -2   4   8  757.62   27.40
  -2   4   8  748.63   25.90
  -2   4   8  710.73   22.90
   1  -4  -8   18.70    4.20
   1  -4  -8   17.60    3.80
   1  -4  -8   23.60    3.00
   1  -4  -8   15.60    3.70
  -1   4   8   30.50    5.30
  -1   4   8   19.50    3.80
  -1   4   8   17.70    4.10
   0  -4  -8  119.59   10.60
   0  -4  -8  115.99    8.80
   0  -4  -8  124.59    6.50
   0  -4  -8  113.39    9.00
   0  -4  -8  124.39    6.00
   0   4   8  108.29    8.20
   0   4   8  117.99    9.90
   0   4   8  116.19    9.00
  -1  -4  -8   35.30    5.40
  -1  -4  -8   27.80    3.90
  -1  -4  -8   40.30    5.90
  -1  -4  -8   28.00    5.50
  -1  -4  -8   31.70    4.10
   1   4   8   27.70    4.90
   1   4   8   32.10    5.50
   1   4   8   36.50    4.70
  -2  -4  -8 1186.78   34.40
  -2  -4  -8 1281.87   35.30
  -2  -4  -8 1256.47   35.50
  -2  -4  -8 1192.88   31.90
  -2  -4  -8 1259.07   29.60
   2   4   8 1261.27   29.20
   2   4   8 1232.98   35.40
   2   4   8 1191.08   36.10
  -3  -4  -8   12.80    3.40
  -3  -4  -8   21.20    4.40
  -3  -4  -8   15.90    4.00
   3   4   8   20.00    2.70
   3   4   8   15.40    4.10
   3   4   8   19.30    4.60
   3   4   8   15.40    4.40
   3   4   8   22.90    4.30
   3   4   8   17.70    2.60
  -4  -4  -8  368.06   18.70
  -4  -4  -8  376.66   16.80
  -4  -4  -8  360.56   17.30
  -4  -4  -8  389.36   18.40
   4   4   8  388.96   19.30
   4   4   8  398.36   20.40
   4   4   8  384.46   18.00
   4   4   8  419.66   18.10
  -5  -4  -8  157.48   12.60
  -5  -4  -8  130.09    9.40
  -5  -4  -8  140.59   10.70
   5   4   8  153.28   12.30
   5   4   8  139.19   11.30
   5   4   8  134.29   12.40
  -6  -4  -8  212.08    9.00
  -6  -4  -8  209.78   11.90
  -6  -4  -8  238.78   21.10
  -6  -4  -8  232.38   14.40
   6   4   8  237.18   15.70
   6   4   8  219.68   15.10
   6   4   8  229.08   17.20
  -7  -4  -8   10.30    3.40
  -7  -4  -8   12.10    4.10
  -7  -4  -8    8.80    3.90
   7   4   8    9.10    3.80
   7   4   8   10.20    4.30
   7   4   8   15.80    5.10
  -8  -4  -8  300.27   17.80
  -8  -4  -8  308.37   20.60
   8   4   8  286.17   18.20
   8   4   8  292.57   19.80
   8   4   8  315.77   20.40
  -9  -4  -8    0.80    3.10
  -9  -4  -8   -0.90    2.80
   9   4   8    3.40    4.50
   9   4   8    1.90    3.90
   9   4   8    2.00    3.20
   8  -5  -8   -5.40    3.00
   8  -5  -8    0.20    3.10
  -8   5   8    0.80    3.90
  -8   5   8    5.40    3.50
   7  -5  -8  417.56   24.50
   7  -5  -8  394.36   21.50
   7  -5  -8  337.27   18.50
  -7   5   8  424.66   22.20
  -7   5   8  398.96   23.50
   6  -5  -8  178.68   10.50
   6  -5  -8  177.18   14.00
   6  -5  -8  160.88   14.60
  -6   5   8  171.68   15.00
  -6   5   8  187.18   14.50
   5  -5  -8   10.10    3.40
   5  -5  -8   11.10    3.80
   5  -5  -8   10.60    3.50
   5  -5  -8   12.00    4.80
  -5   5   8   13.50    5.90
  -5   5   8   11.40    3.90
  -5   5   8   12.00    3.10
   4  -5  -8  463.55   21.10
   4  -5  -8  502.35   22.60
   4  -5  -8  488.85   20.10
   4  -5  -8  482.05   19.60
   4  -5  -8  513.55   24.20
  -4   5   8  503.65   23.00
  -4   5   8  503.05   23.10
  -4   5   8  483.15   21.20
  -4   5   8  484.75   15.60
   3  -5  -8  381.06   18.80
   3  -5  -8  372.26   18.20
   3  -5  -8  361.96   16.00
  -3   5   8  346.57   11.40
  -3   5   8  348.57   16.20
  -3   5   8  382.96   18.80
  -3   5   8  373.96   19.40
   2  -5  -8    4.40    2.80
   2  -5  -8    3.30    2.80
   2  -5  -8    5.60    1.40
   2  -5  -8    6.90    2.60
  -2   5   8    6.40    3.30
  -2   5   8    2.30    1.90
  -2   5   8    4.30    1.10
  -2   5   8    2.80    2.40
   1  -5  -8  973.10   21.80
   1  -5  -8  977.40   20.10
   1  -5  -8  997.50   31.30
  -1   5   8 1017.40   33.10
  -1   5   8  928.41   29.10
  -1   5   8  995.20   29.70
   0  -5  -8 1012.70   25.50
   0  -5  -8 1002.60   24.70
   0  -5  -8  956.70   30.90
   0   5   8  993.40   28.10
   0   5   8 1004.10   32.60
   0   5   8  953.00   29.90
  -1  -5  -8   10.40    2.50
  -1  -5  -8    9.90    2.90
  -1  -5  -8    9.40    3.40
  -1  -5  -8   14.70    1.90
   1   5   8    9.70    3.70
   1   5   8   17.20    4.80
   1   5   8   15.60    3.40
  -2  -5  -8  412.96   17.00
  -2  -5  -8  453.95   14.40
  -2  -5  -8  439.06   20.10
  -2  -5  -8  434.16   19.00
   2   5   8  451.25   14.20
   2   5   8  431.16   19.80
   2   5   8  449.06   21.30
  -3  -5  -8  531.05   21.20
  -3  -5  -8  553.74   16.10
  -3  -5  -8  552.34   21.80
  -3  -5  -8  568.54   23.70
  -3  -5  -8  562.14   16.90
   3   5   8  601.54   13.80
   3   5   8  575.74   14.00
   3   5   8  619.64   23.80
   3   5   8  622.54   26.00
  -4  -5  -8    7.80    2.00
  -4  -5  -8   10.60    3.50
  -4  -5  -8    4.40    2.50
   4   5   8    9.20    1.90
   4   5   8   13.90    5.00
   4   5   8   15.40    4.40
  -5  -5  -8   -1.30    1.40
  -5  -5  -8    0.30    1.80
  -5  -5  -8   -2.50    1.60
   5   5   8   -0.50    2.00
   5   5   8    2.90    3.80
  -6  -5  -8  146.99   13.30
  -6  -5  -8  141.09   11.70
  -6  -5  -8  153.38   11.50
   6   5   8  160.58   14.50
   6   5   8  166.98   13.30
   6   5   8  150.78   14.00
  -7  -5  -8   19.90    6.00
  -7  -5  -8   23.50    5.30
   7   5   8    9.70    4.70
   7   5   8   14.20    4.10
   7   5   8   12.20    4.30
  -8  -5  -8   17.70    4.80
  -8  -5  -8   17.40    5.60
   8   5   8    9.00    3.80
   8   5   8   15.40    6.30
   7  -6  -8   47.60    9.40
   7  -6  -8   46.80    8.70
  -7   6   8   34.60    5.50
  -7   6   8   55.69    9.70
  -7   6   8   46.80    7.60
   6  -6  -8  145.99   14.20
   6  -6  -8  122.69   12.30
  -6   6   8  120.69   11.80
  -6   6   8  113.79   12.30
   5  -6  -8  232.28   24.00
   5  -6  -8  176.18   14.60
  -5   6   8  173.88   14.30
  -5   6   8  176.78    9.90
  -5   6   8  140.29   12.70
   4  -6  -8    9.20    3.50
   4  -6  -8    7.20    3.00
   4  -6  -8   11.30    3.90
   4  -6  -8    7.60    3.50
  -4   6   8    5.70    2.90
  -4   6   8    8.70    2.40
  -4   6   8    9.20    4.50
   3  -6  -8  995.50   34.60
   3  -6  -8 1029.50   34.70
   3  -6  -8 1009.50   28.90
  -3   6   8  985.20   23.60
  -3   6   8 1026.00   35.10
  -3   6   8  956.20   32.80
   2  -6  -8  234.08    8.50
   2  -6  -8  238.58   11.60
   2  -6  -8  240.08   15.30
   2  -6  -8  212.18   14.40
  -2   6   8  245.78   15.70
  -2   6   8  243.18   14.20
  -2   6   8  218.68    7.80
   1  -6  -8  405.56   20.10
   1  -6  -8  382.36   13.20
   1  -6  -8  374.36   14.00
   1  -6  -8  387.06   19.50
  -1   6   8  374.56   18.60
  -1   6   8  413.46   17.70
  -1   6   8  392.76   19.90
   0  -6  -8  553.54   23.80
   0  -6  -8  563.14   18.20
   0  -6  -8  559.94   16.80
   0   6   8  566.04   23.80
   0   6   8  538.05   19.50
   0   6   8  586.54   24.60
  -1  -6  -8  725.53   27.70
  -1  -6  -8  705.93   18.60
  -1  -6  -8  681.33   22.40
   1   6   8  747.23   28.10
   1   6   8  706.93   27.60
   1   6   8  718.13   21.10
  -2  -6  -8   39.70    3.80
  -2  -6  -8   40.80    7.00
   2   6   8   37.20    6.50
   2   6   8   36.80    3.90
   2   6   8   26.90    6.30
  -3  -6  -8  514.85   14.60
  -3  -6  -8  529.95   13.10
  -3  -6  -8  519.95   21.70
  -3  -6  -8  516.85   23.80
  -3  -6  -8  540.95   21.70
   3   6   8  545.45   25.10
  -4  -6  -8  268.17   14.80
  -4  -6  -8  267.17   10.00
  -4  -6  -8  274.17   17.20
  -4  -6  -8  264.17   10.00
   4   6   8  270.47   19.70
   4   6   8  262.87   10.30
  -5  -6  -8  119.29   11.90
  -5  -6  -8  112.69    9.90
  -5  -6  -8  102.49    7.00
   5   6   8  103.09    5.40
   5   6   8   87.69   10.60
  -6  -6  -8   -0.90    1.90
  -6  -6  -8    2.10    2.80
  -6  -6  -8   -2.80    2.00
  -6  -6  -8   -4.10    1.70
   6   6   8   -3.80    2.80
  -7  -6  -8   81.69   11.10
  -7  -6  -8   91.19    9.40
   7   6   8   82.09   11.60
  -8  -6  -8   11.60    4.00
  -8  -6  -8    4.90    3.90
   8   6   8    0.70    3.00
   6  -7  -8   10.90    4.30
   6  -7  -8   10.90    4.90
  -6   7   8    8.60    3.70
  -6   7   8    8.70    4.50
  -6   7   8   13.30    4.10
   5  -7  -8  336.27   20.50
   5  -7  -8  362.86   22.20
  -5   7   8  323.77   15.80
  -5   7   8  322.47   20.00
  -5   7   8  336.67   20.40
   4  -7  -8    8.00    3.70
   4  -7  -8    3.50    3.50
   4  -7  -8    2.70    3.00
  -4   7   8    0.60    2.50
  -4   7   8    5.10    2.70
  -4   7   8    0.10    2.00
   3  -7  -8    6.30    3.20
   3  -7  -8   -2.10    1.30
  -3   7   8    2.60    1.90
  -3   7   8    0.40    2.00
  -3   7   8    2.70    2.90
  -3   7   8    0.30    1.80
   2  -7  -8   15.40    4.60
   2  -7  -8   33.90    4.00
   2  -7  -8   26.20    6.10
  -2   7   8   26.80    5.60
  -2   7   8   28.40    5.60
  -2   7   8   30.00    3.30
   1  -7  -8  321.17   18.40
   1  -7  -8  311.17   11.90
   1  -7  -8  320.67   18.70
   1  -7  -8  299.07   12.80
  -1   7   8  346.57   19.40
  -1   7   8  319.27   17.50
  -1   7   8  322.17    8.80
  -1   7   8  326.47   15.80
   0  -7  -8    7.60    3.80
   0  -7  -8    0.30    1.80
   0  -7  -8    3.20    1.50
   0  -7  -8    4.90    3.00
   0   7   8    4.20    2.70
   0   7   8   -1.10    1.80
   0   7   8    0.80    2.30
  -1  -7  -8  329.57    9.90
  -1  -7  -8  330.87   18.90
   1   7   8  332.67   18.70
   1   7   8  353.36   13.70
  -2  -7  -8   70.49    9.00
  -2  -7  -8   73.49    8.20
   2   7   8   68.59    8.90
   2   7   8   81.09    5.30
   3   7   8    9.60    4.80
   3   7   8   15.50    3.50
  -4  -7  -8    0.60    2.40
  -4  -7  -8    5.20    3.10
   4   7   8    1.30    1.50
   4   7   8    2.10    1.90
  -5  -7  -8  335.27   20.50
  -5  -7  -8  289.77   10.80
  -5  -7  -8  321.57   16.50
  -5  -7  -8  320.87    9.60
  -5  -7  -8  310.67    9.90
   5   7   8  310.17   11.80
   5   7   8  311.67   20.70
  -6  -7  -8    7.70    3.40
  -6  -7  -8    2.70    2.70
  -6  -7  -8    7.10    1.90
   6   7   8    4.80    3.80
  -7  -7  -8   50.09    9.10
  -7  -7  -8   50.59    7.30
   7   7   8   47.90    9.80
   6  -8  -8    2.30    3.90
   6  -8  -8    4.20    2.90
  -6   8   8   -2.00    2.50
  -6   8   8   -5.50    2.60
   5  -8  -8   29.40    6.80
   5  -8  -8   16.50    5.80
  -5   8   8   32.20    7.30
  -5   8   8   26.60    5.50
  -5   8   8   34.40    7.40
   4  -8  -8   81.49   10.90
   4  -8  -8   76.69   10.50
   4  -8  -8   82.89    6.40
   4  -8  -8   61.89    9.90
  -4   8   8   94.29   10.80
  -4   8   8   73.19    7.40
  -4   8   8   83.79    8.30
  -4   8   8   77.79    9.60
   3  -8  -8    2.40    2.10
   3  -8  -8   13.10    4.90
   3  -8  -8    3.50    2.90
  -3   8   8    7.10    3.40
  -3   8   8    2.00    1.90
  -3   8   8    2.60    2.70
   2  -8  -8    0.50    1.60
   2  -8  -8    2.00    1.90
   2  -8  -8    0.10    2.00
  -2   8   8    2.00    2.60
  -2   8   8    1.80    2.70
   1  -8  -8  105.69   14.00
   1  -8  -8  103.79   11.10
   1  -8  -8  104.59    8.40
  -1   8   8  132.49    6.00
  -1   8   8  125.39    9.90
  -1   8   8  122.49   11.40
   0  -8  -8    4.60    2.80
   0  -8  -8    5.00    3.50
   0  -8  -8   -1.90    1.40
   0   8   8    1.00    0.90
   0   8   8   -0.10    2.30
   0   8   8    3.20    2.40
  -1  -8  -8   -3.80    1.90
  -1  -8  -8   -2.20    1.80
   1   8   8   -0.70    1.60
  -2  -8  -8  217.88   16.40
   2   8   8  210.88    8.30
   2   8   8  201.88   15.50
  -3  -8  -8  215.78   16.30
   3   8   8  201.48   16.20
   3   8   8  215.78   11.90
  -4  -8  -8    7.30    4.60
   4   8   8    7.20    3.80
  -5  -8  -8  207.58   13.30
  -5  -8  -8  213.38   17.10
   5   8   8  193.08   16.80
   5   8   8  175.48   10.00
  -6  -8  -8  117.19   13.60
   6   8   8  114.59   13.20
   4  -9  -8   21.90    6.20
   4  -9  -8   14.90    6.20
   4  -9  -8   18.60    5.90
  -4   9   8   32.80    5.90
  -4   9   8   22.40    6.00
   3  -9  -8   20.20    5.90
   3  -9  -8   13.50    4.50
   3  -9  -8   20.20    6.60
   3  -9  -8   21.20    7.30
  -3   9   8   19.60    5.10
  -3   9   8   17.90    5.00
   2  -9  -8   11.90    4.80
   2  -9  -8    2.30    2.80
   2  -9  -8    5.20    3.50
  -2   9   8   10.50    3.80
  -2   9   8    6.50    3.20
   1  -9  -8   23.60    5.80
   1  -9  -8   13.70    4.80
   1  -9  -8   14.20    5.10
  -1   9   8    9.70    3.10
  -1   9   8   15.20    4.80
   0  -9  -8  190.48   15.40
   0  -9  -8  176.58   15.60
   0   9   8  182.88   14.40
   0   9   8  179.08   11.30
  -1  -9  -8    2.80    2.80
  -1  -9  -8    2.00    2.70
   1   9   8    3.70    2.20
   1   9   8    0.30    2.40
  -2  -9  -8    2.40    3.30
  -2  -9  -8   -0.50    2.40
   2   9   8    1.90    3.10
   2   9   8    0.40    1.10
   2   9   8    0.40    1.20
  -3  -9  -8   12.50    4.20
  -3  -9  -8   10.60    4.00
   3   9   8   12.60    5.20
   3   9   8   25.50    5.30
  -4  -9  -8   32.30    7.90
   4   9   8   19.30    6.00
   4   9   8   23.50    5.30
   5   9   8    0.90    1.90
   5   9   8    2.70    4.00
   3 -10  -8   25.40    6.80
   3 -10  -8   31.00    7.60
   3 -10  -8   28.50    7.40
  -3  10   8   19.40    5.30
  -3  10   8   33.20    6.00
   2 -10  -8  341.97   23.40
   2 -10  -8  372.36   23.20
  -2  10   8  336.67   22.80
  -2  10   8  340.37   18.80
   1 -10  -8   22.40    6.30
   1 -10  -8    8.80    4.40
  -1  10   8   14.60    4.20
  -1  10   8   10.50    4.10
   0 -10  -8   31.60    7.90
   0 -10  -8   12.00    5.20
   0  10   8   24.90    5.30
   0  10   8   28.30    6.80
  -1 -10  -8    2.70    4.20
  -1 -10  -8   -3.10    2.60
   1  10   8    2.00    3.70
   1  10   8    0.00    1.50
   1  10   8   -0.80    2.20
  -2 -10  -8   70.99   10.20
  -2 -10  -8   65.39   10.70
   2  10   8   43.60    7.40
   2  10   8   73.59   10.70
  -3 -10  -8   12.60    5.20
  -3 -10  -8    6.60    4.20
   3  10   8   32.10    6.20
   3  10   8   18.90    6.40
   2   8  -9   13.10    4.30
   2   8  -9   27.70    6.40
   2   8  -9   17.40    4.80
   2   8  -9   20.50    5.60
  -2  -8   9   14.50    5.80
  -2  -8   9    8.50    4.50
   1   8  -9    2.00    2.70
   1   8  -9    0.40    3.10
   1   8  -9    3.90    2.90
   1   8  -9   -1.10    3.00
  -1  -8   9   -1.70    3.30
  -1  -8   9   -3.10    2.20
   0   8  -9    6.60    3.20
   0   8  -9    9.20    3.20
   0   8  -9    5.00    3.10
   0  -8   9    3.50    3.20
   0  -8   9   10.10    4.40
  -1   8  -9   58.79    8.70
  -1   8  -9   72.59    8.90
  -1   8  -9   60.99    8.40
   1  -8   9   71.29   10.00
   1  -8   9   70.49    9.80
  -2   8  -9    4.20    2.90
  -2   8  -9    3.30    2.80
   2  -8   9   11.90    4.70
   2  -8   9   -0.20    2.30
  -3   8  -9   55.49    7.40
  -3   8  -9   40.70    8.10
   3  -8   9   54.79    8.60
   3  -8   9   40.40    9.30
   4   7  -9   66.89    9.70
   4   7  -9   63.89    9.90
   4   7  -9   62.49   10.40
   4   7  -9   55.59    8.60
  -4  -7   9   63.09   10.50
  -4  -7   9   78.39    7.80
   3   7  -9    2.20    2.40
   3   7  -9   -1.70    2.20
   3   7  -9    3.20    3.50
   3   7  -9    2.10    3.30
  -3  -7   9    0.20    2.50
  -3  -7   9   -5.70    2.00
   2   7  -9   65.99    8.80
   2   7  -9   58.19    8.10
   2   7  -9   63.19    9.30
   2   7  -9   65.39    8.80
  -2  -7   9   63.79    8.10
  -2  -7   9   68.09   10.10
   1   7  -9   -0.50    3.00
   1   7  -9   -1.20    2.30
   1   7  -9   -4.10    2.00
  -1  -7   9    0.20    2.40
  -1  -7   9    4.00    2.80
  -1  -7   9   -0.90    2.40
   0   7  -9   16.80    3.70
   0   7  -9   31.70    6.50
   0   7  -9   15.50    3.50
   0   7  -9   13.80    4.10
   0   7  -9   11.40    3.70
   0  -7   9   11.70    3.40
   0  -7   9   21.80    7.90
   0  -7   9   12.90    4.40
  -1   7  -9   33.60    5.60
  -1   7  -9   20.40    5.00
  -1   7  -9   21.60    5.10
  -1   7  -9   11.60    4.20
   1  -7   9   18.40    5.80
   1  -7   9   21.70    6.20
  -2   7  -9   73.09    8.30
  -2   7  -9   71.29    7.70
   2  -7   9   66.89    8.90
   2  -7   9   76.49   10.10
  -3   7  -9    0.50    2.10
  -3   7  -9   -1.90    2.00
   3  -7   9    0.70    1.90
   3  -7   9   -2.40    2.20
  -4   7  -9   47.80    7.60
  -4   7  -9   57.09    6.90
   4  -7   9   52.19    9.60
  -5   7  -9   50.79    7.00
  -5   7  -9   42.70    7.60
   5  -7   9   64.29   10.20
   5  -7   9   49.40    7.10
   5  -7   9   42.00    9.90
   5   6  -9   -2.50    1.80
   5   6  -9    1.30    3.30
   5   6  -9    0.60    3.00
  -5  -6   9    0.20    1.50
  -5  -6   9    1.20    3.20
   4   6  -9  172.08   14.40
   4   6  -9  150.48   12.80
   4   6  -9  144.99   13.80
   4   6  -9  146.99   13.10
  -4  -6   9  163.48    9.90
  -4  -6   9  175.28   15.60
   3   6  -9    2.40    2.70
   3   6  -9    7.70    3.60
   3   6  -9    1.70    2.30
   3   6  -9    2.90    3.00
  -3  -6   9    4.10    2.50
  -3  -6   9    5.80    2.90
  -3  -6   9    3.50    3.30
   2   6  -9   85.09    8.90
   2   6  -9   85.09    9.70
   2   6  -9   80.29    9.70
   2   6  -9   62.89    8.40
  -2  -6   9   80.39   10.30
  -2  -6   9   84.19    8.70
  -2  -6   9   72.09    7.00
   1   6  -9   62.69    8.50
   1   6  -9   45.80    5.20
   1   6  -9   48.10   10.70
   1   6  -9   62.29    7.50
  -1  -6   9   57.69    8.60
  -1  -6   9   45.90    6.00
  -1  -6   9   53.09    7.40
   0   6  -9  137.39    9.60
   0   6  -9  147.79   11.10
   0   6  -9  178.68   12.50
   0   6  -9  175.08   13.10
   0   6  -9  158.78    7.20
   0   6  -9  164.48   10.50
   0  -6   9  141.79   10.50
   0  -6   9  176.98   13.30
   0  -6   9  163.48   13.60
  -1   6  -9  112.59    9.80
  -1   6  -9  102.79    7.50
  -1   6  -9  105.89    8.90
  -1   6  -9  109.89   10.40
   1  -6   9  100.49   10.50
  -2   6  -9   59.69    6.90
  -2   6  -9   67.19    7.50
  -2   6  -9   50.89    7.00
   2  -6   9   53.49    7.90
   2  -6   9   60.19    8.80
  -3   6  -9   14.50    3.80
  -3   6  -9   15.10    3.90
   3  -6   9   18.30    5.90
   3  -6   9   10.40    3.40
  -4   6  -9    2.90    2.50
  -4   6  -9    1.20    2.00
   4  -6   9    2.40    2.50
   4  -6   9    2.80    2.60
   4  -6   9   -4.50    2.20
  -5   6  -9    1.70    2.10
  -5   6  -9    0.10    2.00
   5  -6   9   -2.70    1.70
   5  -6   9   -0.30    4.10
   5  -6   9   -2.10    2.30
  -6   6  -9   91.89    7.40
  -6   6  -9   71.49    9.30
   6  -6   9   88.99   13.10
   6  -6   9  108.59   12.90
   6   5  -9  212.08   16.70
   6   5  -9  235.68   16.30
   6   5  -9  200.88   16.30
  -6  -5   9  270.57   19.70
   5   5  -9   -1.70    2.40
   5   5  -9    4.10    2.90
   5   5  -9   -0.30    2.40
  -5  -5   9    0.20    3.00
   4   5  -9  106.29   11.00
   4   5  -9   88.89    9.50
   4   5  -9   82.09    9.80
  -4  -5   9   95.49    7.20
  -4  -5   9   72.89    7.20
  -4  -5   9   94.49    8.80
  -4  -5   9   90.39   11.10
   3   5  -9   48.60    6.90
   3   5  -9   39.80    7.30
   3   5  -9   32.80    6.90
   3   5  -9   47.40    7.20
  -3  -5   9   47.60    8.00
  -3  -5   9   45.60    5.60
  -3  -5   9   44.30    5.80
   2   5  -9   41.00    7.30
   2   5  -9   29.10    3.80
   2   5  -9   39.00    6.20
   2   5  -9   44.30    6.20
   2   5  -9   31.60    6.00
  -2  -5   9   25.50    4.80
  -2  -5   9   46.30    7.60
  -2  -5   9   27.30    5.20
   1   5  -9   -0.10    1.90
   1   5  -9    5.30    1.90
   1   5  -9    6.50    3.20
  -1  -5   9    2.00    2.00
  -1  -5   9    8.10    3.20
   0   5  -9  671.43   17.00
   0   5  -9  702.73   23.90
   0   5  -9  656.73   22.70
   0   5  -9  729.53   17.30
   0   5  -9  715.63   24.10
   0   5  -9  739.03   26.00
   0   5  -9  758.82   34.00
   0  -5   9  725.93   27.30
   0  -5   9  748.73   29.10
  -1   5  -9    4.80    2.50
  -1   5  -9    3.30    2.20
  -1   5  -9    2.40    1.90
   1  -5   9    3.60    2.60
   1  -5   9    2.80    2.30
  -2   5  -9   95.49    8.60
  -2   5  -9  105.89    8.60
  -2   5  -9   98.09    8.30
   2  -5   9  110.49   10.20
   2  -5   9  101.79   10.50
  -3   5  -9   54.69    8.60
  -3   5  -9   58.69    7.20
  -3   5  -9   73.49    6.90
   3  -5   9   59.49   11.10
   3  -5   9   64.99    7.80
  -4   5  -9   24.50    5.60
  -4   5  -9   22.70    4.30
   4  -5   9   23.80    5.10
   4  -5   9   20.20    5.30
   4  -5   9   10.60    4.20
  -5   5  -9    4.80    2.10
  -5   5  -9    4.90    2.00
  -5   5  -9    6.80    3.50
   5  -5   9    3.10    3.50
   5  -5   9    3.60    3.20
   5  -5   9    2.80    2.70
  -6   5  -9  209.38    9.30
  -6   5  -9  222.48   15.40
   6  -5   9  238.18   17.80
   6  -5   9  201.88   17.70
  -7   5  -9   15.90    4.50
   7  -5   9   12.80    5.10
   7  -5   9   19.60    6.30
   7   4  -9   14.00    4.20
   7   4  -9    4.60    4.10
   7   4  -9   33.50    7.70
  -7  -4   9   24.70    6.30
   6   4  -9   -2.80    2.00
   6   4  -9   -1.70    2.30
   6   4  -9   -2.40    1.80
   6   4  -9   -0.90    2.20
  -6  -4   9   -3.50    3.00
   5   4  -9   95.49    9.30
   5   4  -9  103.59   11.10
   5   4  -9   95.69   10.70
  -5  -4   9   84.79    8.10
  -5  -4   9  101.89   11.40
   4   4  -9   45.70    6.80
   4   4  -9   45.70    7.60
   4   4  -9   53.19    7.90
   4   4  -9   50.89    4.10
  -4  -4   9   54.59    5.10
  -4  -4   9   42.90    5.60
  -4  -4   9   49.99    8.20
   3   4  -9   79.39   10.20
   3   4  -9   81.79   10.70
   3   4  -9   74.09    7.70
  -3  -4   9   72.99    6.80
  -3  -4   9   64.09    9.00
  -3  -4   9   74.89    7.00
   2   4  -9  140.39   11.30
   2   4  -9  154.98   11.90
   2   4  -9  152.18   10.40
   2   4  -9  153.58   12.10
   2   4  -9  131.69    7.50
  -2  -4   9  134.89   12.40
  -2  -4   9  142.49    9.80
  -2  -4   9  129.29    9.20
   1   4  -9    0.60    2.30
   1   4  -9    4.50    2.30
   1   4  -9    5.90    2.80
   1   4  -9    3.00    2.00
  -1  -4   9    4.20    2.20
  -1  -4   9    1.50    1.80
  -1  -4   9    1.10    2.40
   0   4  -9  113.69    9.40
   0   4  -9  117.49    5.50
   0   4  -9  120.79   10.30
   0   4  -9  116.99    5.70
   0   4  -9  127.09    9.70
   0   4  -9  114.29    8.40
   0  -4   9  109.79   10.80
   0  -4   9  134.09   10.80
  -1   4  -9  135.49    9.70
  -1   4  -9  186.88   11.70
  -1   4  -9  150.18    8.70
  -1   4  -9  142.99   10.20
   1  -4   9  142.69   11.70
   1  -4   9  136.99   11.40
  -2   4  -9  169.08   11.40
  -2   4  -9  162.08   10.50
  -2   4  -9  170.48   10.00
   2  -4   9  169.18   13.00
   2  -4   9  180.28   12.60
  -3   4  -9  187.28   10.00
  -3   4  -9  184.38   12.30
  -3   4  -9  178.98   12.10
   3  -4   9  178.08   14.00
   3  -4   9  190.38   12.30
   3  -4   9  192.38   14.20
  -4   4  -9  296.87   16.40
  -4   4  -9  328.27   12.40
  -4   4  -9  299.17   12.50
   4  -4   9  326.77   19.20
   4  -4   9  317.17   15.40
   4  -4   9  295.37   21.90
  -5   4  -9   21.50    3.30
  -5   4  -9   28.90    5.10
  -5   4  -9   26.30    6.30
   5  -4   9   18.30    5.10
   5  -4   9   22.90    4.80
   5  -4   9   32.80    7.20
  -6   4  -9   36.30    7.20
   6  -4   9   44.00    8.20
   6  -4   9   25.70    4.20
   6  -4   9   38.50    7.00
  -7   4  -9  116.69   11.80
   7  -4   9   91.89   12.30
   7  -4   9   90.59   12.20
   7   3  -9  122.69   13.30
   7   3  -9  112.49    9.80
   7   3  -9  148.39   14.50
  -7  -3   9  114.79   13.80
  -7  -3   9  121.99   12.60
   6   3  -9   62.99    7.30
   6   3  -9   50.89    8.60
   6   3  -9   67.09    9.50
   6   3  -9   71.39   10.70
  -6  -3   9   58.39    9.10
  -6  -3   9   63.09    5.80
   5   3  -9  204.78   15.10
   5   3  -9  223.88   13.90
   5   3  -9  214.98   15.30
   5   3  -9  223.68   11.70
  -5  -3   9  210.28    9.80
  -5  -3   9  222.28   16.20
   4   3  -9   25.90    5.80
   4   3  -9   37.70    6.70
   4   3  -9   33.80    4.60
   4   3  -9   31.30    5.40
  -4  -3   9   31.00    6.70
  -4  -3   9   31.80    4.10
  -4  -3   9   38.20    4.20
   3   3  -9  130.89   11.10
   3   3  -9  134.59    9.50
   3   3  -9  126.49    6.80
   3   3  -9  135.39   11.10
   3   3  -9  124.49    7.10
  -3  -3   9  119.79   11.50
  -3  -3   9  115.19    7.40
  -3  -3   9  138.79    8.70
   2   3  -9  312.97   12.40
   2   3  -9  304.97   16.60
   2   3  -9  295.17   10.30
   2   3  -9  309.17   16.30
   2   3  -9  296.97   13.70
  -2  -3   9  286.07   16.40
  -2  -3   9  306.37   14.20
  -2  -3   9  313.87   17.90
   1   3  -9 1133.59   33.80
   1   3  -9 1069.59   23.00
   1   3  -9 1045.30   28.50
   1   3  -9 1047.80   28.30
  -1  -3   9 1015.90   30.70
  -1  -3   9 1086.29   35.30
  -1  -3   9 1098.19   31.80
   0   3  -9   -0.20    1.20
   0   3  -9    2.30    1.30
   0   3  -9    1.40    1.90
   0   3  -9    1.60    2.30
   0   3  -9    3.20    1.10
   0   3  -9    1.40    0.90
   0   3  -9    4.10    2.30
   0  -3   9    3.30    1.80
   0  -3   9    8.80    3.40
   0  -3   9    1.10    2.10
  -1   3  -9  592.74   17.60
  -1   3  -9  578.34   19.80
  -1   3  -9  549.45   21.30
  -1   3  -9  557.84   18.00
  -1   3  -9  566.04   15.20
  -1   3  -9  555.94   21.10
  -1   3  -9  576.34   18.50
   1  -3   9  576.94   19.10
   1  -3   9  566.04   23.20
   1  -3   9  581.44   23.30
  -2   3  -9  372.86   12.80
  -2   3  -9  394.56   17.90
   2  -3   9  379.26   18.00
   2  -3   9  400.16   18.80
   2  -3   9  391.46   19.40
  -3   3  -9  163.28   11.70
  -3   3  -9  153.98    8.70
  -3   3  -9  165.28    8.50
   3  -3   9  154.68   12.40
   3  -3   9  159.88   11.20
   3  -3   9  145.69   11.70
  -4   3  -9   33.80    4.40
  -4   3  -9   15.50    4.10
   4  -3   9   26.80    5.80
   4  -3   9   14.50    4.10
   4  -3   9   20.50    4.30
  -5   3  -9  616.34   22.60
  -5   3  -9  753.92   30.00
   5  -3   9  690.23   22.20
   5  -3   9  695.73   29.50
   5  -3   9  684.63   29.40
  -6   3  -9   18.30    4.90
   6  -3   9   12.60    5.20
   6  -3   9    7.80    3.50
   6  -3   9   11.30    2.90
  -7   3  -9   18.60    5.10
   7  -3   9   22.40    6.60
   7  -3   9   37.40    7.70
  -8   3  -9   56.49    9.60
   8  -3   9   60.89   10.50
   8  -3   9   59.89    8.20
   8  -3   9   57.39   10.10
   7   2  -9  312.27   19.80
   7   2  -9  259.77   15.60
   7   2  -9  281.37   18.60
  -7  -2   9  285.77   18.80
  -7  -2   9  293.97   20.40
   6   2  -9    1.80    1.90
   6   2  -9   -1.40    1.60
   6   2  -9    3.30    2.50
  -6  -2   9   -0.50    1.90
   5   2  -9  119.99   11.20
   5   2  -9  133.89   15.00
   5   2  -9  134.69    5.70
   5   2  -9  129.09   10.00
   5   2  -9  129.19    9.80
  -5  -2   9  140.39   12.50
   4   2  -9   67.89    6.70
   4   2  -9   62.49    4.90
   4   2  -9   70.19    7.30
   4   2  -9   64.29    4.90
   4   2  -9   66.19    7.90
   4   2  -9   63.79    8.20
  -4  -2   9   71.69    9.10
  -4  -2   9   68.89    5.30
  -4  -2   9   62.39    4.10
   3   2  -9  313.37   13.10
   3   2  -9  304.77   16.20
   3   2  -9  296.57   13.50
   3   2  -9  294.07   11.80
   3   2  -9  290.67   16.40
  -3  -2   9  291.57   10.00
  -3  -2   9  314.67   18.00
  -3  -2   9  285.87   12.40
   2   2  -9    7.00    3.40
   2   2  -9    5.30    2.00
   2   2  -9    5.60    2.10
   2   2  -9    5.40    2.60
   2   2  -9    3.40    2.00
  -2  -2   9    2.30    2.80
  -2  -2   9    3.20    2.10
   1   2  -9 1084.09   31.50
   1   2  -9 1099.99   29.40
   1   2  -9 1128.19   26.80
   1   2  -9 1099.39   33.30
   1   2  -9 1134.69   27.70
  -1  -2   9 1114.09   35.30
  -1  -2   9 1089.69   31.20
  -1  -2   9 1057.89   30.10
   0   2  -9   95.29    8.70
   0   2  -9  109.09    9.10
   0   2  -9  112.79    7.00
   0   2  -9  106.79    5.50
   0   2  -9  112.39    9.50
   0   2  -9  101.19    9.50
   0  -2   9  110.19    9.80
   0  -2   9  102.49    7.50
   0  -2   9  107.59    7.90
   0  -2   9  108.09    9.10
  -1   2  -9  404.26   17.90
  -1   2  -9  376.16   17.00
  -1   2  -9  404.06   14.00
  -1   2  -9  402.96   13.60
   1  -2   9  388.06   18.30
   1  -2   9  371.56   17.90
   1  -2   9  381.76   14.40
   1  -2   9  418.36   17.00
  -2   2  -9  126.29   10.00
  -2   2  -9  123.19    7.80
   2  -2   9  118.69    9.50
   2  -2   9  115.19    9.50
   2  -2   9  132.19   11.00
  -3   2  -9 1078.59   33.10
  -3   2  -9 1058.19   28.80
  -3   2  -9 1136.89   31.90
   3  -2   9 1111.39   34.30
   3  -2   9 1069.79   31.50
   3  -2   9 1073.39   35.40
  -4   2  -9   13.30    3.40
  -4   2  -9   17.20    4.70
   4  -2   9   15.60    3.60
   4  -2   9   12.00    4.20
   4  -2   9   24.70    5.60
  -5   2  -9  284.77   15.10
  -5   2  -9  284.17   17.20
   5  -2   9  304.87   18.60
   5  -2   9  290.97   13.30
   5  -2   9  287.67   17.60
  -6   2  -9   78.89    9.00
   6  -2   9   97.69   10.90
   6  -2   9   92.59    6.70
   6  -2   9   75.59   10.80
  -7   2  -9   95.49   10.50
   7  -2   9   88.19   11.30
   7  -2   9   86.89   10.80
   7  -2   9   68.79    8.50
  -8   2  -9    3.70    3.90
   8  -2   9    6.30    3.20
   8  -2   9   -1.40    2.50
   8  -2   9   -0.30    2.90
   8   1  -9   10.30    4.70
   8   1  -9    5.10    3.50
   8   1  -9    7.10    4.00
  -8  -1   9   13.70    5.60
   7   1  -9    4.80    3.40
   7   1  -9   15.60    4.70
   7   1  -9    8.30    4.60
  -7  -1   9    8.50    3.50
  -7  -1   9   13.10    5.90
   6   1  -9  254.97   17.00
   6   1  -9  178.98    8.50
   6   1  -9  201.28   13.50
   6   1  -9  204.38   14.70
  -6  -1   9  214.28   16.40
  -6  -1   9  247.08   16.90
   5   1  -9  112.79   10.50
   5   1  -9  127.49   10.20
   5   1  -9  111.29   11.00
   5   1  -9  126.69    7.40
  -5  -1   9  139.49   18.20
   4   1  -9    9.50    2.80
   4   1  -9   20.10    5.00
   4   1  -9   12.30    3.70
   4   1  -9   12.70    3.00
   4   1  -9   18.90    4.50
  -4  -1   9   14.40    4.30
   3   1  -9   75.89    8.30
   3   1  -9   94.69    8.70
   3   1  -9   78.09    6.80
   3   1  -9   72.89    6.90
   3   1  -9   72.69    6.20
  -3  -1   9   86.99    9.30
  -3  -1   9   89.49    6.80
   2   1  -9  366.16   15.30
   2   1  -9  383.86   15.20
   2   1  -9  352.76   13.20
   2   1  -9  371.56   16.90
   2   1  -9  351.66   17.30
  -2  -1   9  371.96   18.90
  -2  -1   9  391.26   18.40
  -2  -1   9  373.56   15.70
   1   1  -9    3.50    2.10
   1   1  -9    3.90    2.60
   1   1  -9    6.20    1.80
  -1  -1   9    3.40    2.10
  -1  -1   9    8.40    2.00
  -1  -1   9    4.90    2.20
  -1  -1   9    6.20    2.40
   0   1  -9  239.58    9.10
   0   1  -9  233.48   13.30
   0   1  -9  233.38    9.10
   0   1  -9  238.98   13.50
   0   1  -9  215.98   12.70
   0  -1   9  236.58   10.60
   0  -1   9  244.18   13.50
   0  -1   9  213.58   13.40
   0  -1   9  220.58   10.70
  -1   1  -9  629.04   18.50
  -1   1  -9  587.04   23.60
  -1   1  -9  603.34   22.30
  -1   1  -9  566.74   21.50
  -1   1  -9  595.34   15.50
   1  -1   9  599.74   19.80
   1  -1   9  526.65   20.60
   1  -1   9  597.14   22.70
   1  -1   9  589.34   22.60
   1  -1   9  584.14   17.50
  -2   1  -9   23.00    5.10
  -2   1  -9   28.80    4.40
  -2   1  -9   16.30    4.00
   2  -1   9   22.40    4.40
   2  -1   9   21.40    4.40
   2  -1   9   26.20    5.50
   2  -1   9   24.70    5.00
   2  -1   9   23.20    2.90
  -3   1  -9  285.67   13.60
  -3   1  -9  300.67   14.70
  -3   1  -9  313.87   16.10
   3  -1   9  282.37   14.30
   3  -1   9  306.67   16.90
   3  -1   9  287.77   14.50
   3  -1   9  301.37   15.70
  -4   1  -9  358.66   17.80
  -4   1  -9  342.37   17.10
  -4   1  -9  323.57   15.70
   4  -1   9  345.47   18.10
   4  -1   9  335.87   15.80
   4  -1   9  350.16   18.60
   4  -1   9  368.96   15.70
  -5   1  -9   28.60    6.00
  -5   1  -9   10.90    3.70
   5  -1   9   22.80    5.50
   5  -1   9   13.20    4.10
   5  -1   9   20.20    4.00
   5  -1   9   28.00    5.00
  -6   1  -9   19.30    5.30
  -6   1  -9   17.20    4.50
   6  -1   9   17.60    3.70
   6  -1   9    9.20    4.00
   6  -1   9   15.50    4.70
  -7   1  -9  347.87   19.70
  -7   1  -9  400.26   22.20
   7  -1   9  379.36   22.30
   7  -1   9  371.96   20.00
   7  -1   9  394.56   22.10
  -8   1  -9   37.30    7.30
  -8   1  -9   36.90    8.30
   8  -1   9   43.70    7.60
   8  -1   9   40.00    7.90
   8  -1   9   51.29    9.70
   8   0  -9  209.78   16.30
   8   0  -9  200.08   17.20
   8   0  -9  227.88   16.80
  -8   0   9  227.08   18.80
  -8   0   9  249.18   17.60
   7   0  -9    5.80    3.50
   7   0  -9    3.60    3.20
   7   0  -9    2.90    2.60
  -7   0   9    6.30    3.50
  -7   0   9    8.00    4.30
   6   0  -9  122.79   11.00
   6   0  -9  133.79   11.70
   6   0  -9  115.59   11.70
  -6   0   9  149.88   13.80
  -6   0   9  129.29   12.30
   5   0  -9  290.17   16.30
   5   0  -9  258.37   25.40
   5   0  -9  307.77   16.60
  -5   0   9  298.07   20.10
  -5   0   9  293.67   17.90
   4   0  -9  278.17   14.90
   4   0  -9  276.77   11.30
   4   0  -9  272.07   15.00
   4   0  -9  274.67   16.20
   4   0  -9  290.17   15.50
  -4   0   9  292.67   17.20
   3   0  -9   22.40    4.90
   3   0  -9   19.60    3.70
   3   0  -9   18.40    3.80
   3   0  -9   24.40    5.20
   3   0  -9   17.90    4.40
  -3   0   9   14.80    4.30
  -3   0   9   20.40    3.80
   2   0  -9  889.21   28.60
   2   0  -9  817.02   24.90
   2   0  -9  880.41   26.50
   2   0  -9  860.11   21.50
   2   0  -9  863.21   26.80
  -2   0   9  885.81   26.20
  -2   0   9  815.72   26.00
  -2   0   9  862.81   30.10
   1   0  -9    4.60    1.40
   1   0  -9    6.80    1.80
   1   0  -9    1.70    1.90
   1   0  -9    1.10    1.60
  -1   0   9    5.30    2.50
  -1   0   9    5.10    2.50
  -1   0   9    0.90    1.70
   0   0  -9  220.68   12.70
   0   0  -9  203.48    7.10
   0   0  -9  201.98    9.20
   0   0  -9  199.88   11.90
   0   0  -9  215.18   13.20
   0   0   9  206.28    8.70
   0   0   9  222.58   13.70
   0   0   9  197.58    9.90
   0   0   9  204.38   12.20
  -1   0  -9  942.21   19.10
  -1   0  -9  943.21   28.20
  -1   0  -9  950.10   25.20
  -1   0  -9  939.91   29.70
  -1   0  -9  911.11   28.80
   1   0   9  936.11   25.20
   1   0   9  901.11   29.40
   1   0   9  954.30   30.10
   1   0   9  939.71   23.50
  -2   0  -9  919.41   28.40
  -2   0  -9  943.41   30.00
  -2   0  -9 1009.40   27.60
  -2   0  -9  923.61   19.30
   2   0   9  954.90   29.40
   2   0   9  877.91   27.30
   2   0   9  952.80   27.80
   2   0   9  947.41   23.00
   2   0   9  917.01   30.50
  -3   0  -9   26.20    4.70
  -3   0  -9   33.60    5.60
  -3   0  -9   28.80    5.00
   3   0   9   26.90    4.90
   3   0   9   31.00    5.20
   3   0   9   32.40    5.80
  -4   0  -9  848.42   28.50
  -4   0  -9  936.61   30.70
  -4   0  -9  948.11   30.20
  -4   0  -9  871.91   26.40
   4   0   9  923.71   30.60
   4   0   9  953.70   32.60
   4   0   9  897.11   27.10
  -5   0  -9  477.65   21.70
  -5   0  -9  466.45   15.30
  -5   0  -9  420.86   16.50
  -5   0  -9  464.85   21.20
   5   0   9  463.65   22.30
   5   0   9  462.35   21.60
   5   0   9  456.65   17.20
  -6   0  -9    7.00    3.40
  -6   0  -9    6.60    2.60
  -6   0  -9    6.00    3.20
   6   0   9    9.70    2.90
   6   0   9   12.70    4.00
   6   0   9    8.20    3.20
   6   0   9    8.90    2.50
   6   0   9    7.60    4.60
  -7   0  -9  146.79   12.50
  -7   0  -9  158.88   14.00
   7   0   9  132.79   12.80
   7   0   9  149.88   13.50
   7   0   9  114.29    9.30
   7   0   9  144.29   12.40
  -8   0  -9  195.58   16.40
  -8   0  -9  186.28   14.80
   8   0   9  176.28   14.20
   8   0   9  173.38   15.70
   8   0   9  170.98   17.70
   8   0   9  176.18   15.30
   8  -1  -9  154.58   14.30
   8  -1  -9  136.69   14.20
   8  -1  -9  131.19   13.00
  -8   1   9  133.59   13.20
  -8   1   9  139.29   14.90
   7  -1  -9   15.00    4.70
   7  -1  -9   39.70    7.30
   7  -1  -9   42.40    6.20
   7  -1  -9   21.90    5.40
  -7   1   9   17.00    4.80
  -7   1   9   35.20    7.80
   6  -1  -9   81.69    9.60
   6  -1  -9   77.19    8.80
   6  -1  -9   83.59    9.80
   6  -1  -9   80.89    7.90
  -6   1   9   79.49    9.70
  -6   1   9   71.49    9.70
   5  -1  -9   15.50    4.50
   5  -1  -9   15.60    3.70
   5  -1  -9   26.20    5.40
   5  -1  -9   13.70    2.90
   5  -1  -9    9.50    3.20
  -5   1   9    9.50    5.80
  -5   1   9   10.40    3.90
  -5   1   9   10.50    2.60
   4  -1  -9  756.02   24.40
   4  -1  -9  786.62   28.50
   4  -1  -9  762.42   21.60
   4  -1  -9  727.73   25.60
   4  -1  -9  834.92   28.40
  -4   1   9  779.52   29.70
  -4   1   9  760.52   29.50
   3  -1  -9   10.40    2.80
   3  -1  -9    6.10    2.60
   3  -1  -9   15.00    4.20
   3  -1  -9   13.60    3.50
   3  -1  -9    3.30    2.30
  -3   1   9    4.10    2.20
   2  -1  -9  376.96   15.60
   2  -1  -9  393.86   16.10
   2  -1  -9  401.16   12.90
   2  -1  -9  367.96   17.10
  -2   1   9  397.76   16.10
  -2   1   9  395.96   19.40
  -2   1   9  369.96   16.30
   1  -1  -9   68.39    6.90
   1  -1  -9   87.69    6.00
   1  -1  -9   74.79    7.50
  -1   1   9   76.89    8.30
  -1   1   9   88.49    7.00
  -1   1   9   76.39    7.20
   0  -1  -9  355.96   13.50
   0  -1  -9  327.37   16.50
   0  -1  -9  327.17   15.60
   0  -1  -9  350.86   15.60
   0   1   9  339.87   10.50
   0   1   9  342.37   13.40
   0   1   9  346.77   17.20
   0   1   9  357.16   16.40
  -1  -1  -9  191.98   12.10
  -1  -1  -9  145.49   10.50
  -1  -1  -9  185.28   11.10
  -1  -1  -9  187.38   10.20
   1   1   9  167.28   11.40
   1   1   9  178.38    8.40
   1   1   9  180.18   12.10
   1   1   9  170.08    8.70
  -2  -1  -9 1488.75   39.40
  -2  -1  -9 1593.14   38.70
  -2  -1  -9 1522.45   41.10
   2   1   9 1515.85   37.00
   2   1   9 1512.85   36.80
   2   1   9 1592.94   41.00
   2   1   9 1539.15   42.00
   2   1   9 1538.25   31.00
  -3  -1  -9    4.80    1.90
  -3  -1  -9   11.00    3.40
  -3  -1  -9   11.10    3.00
   3   1   9    8.50    2.40
   3   1   9    7.60    2.70
   3   1   9    9.80    3.20
   3   1   9    5.00    2.50
  -4  -1  -9  152.08   11.20
  -4  -1  -9  136.59    5.80
  -4  -1  -9  148.39   11.20
   4   1   9  141.09   10.90
   4   1   9  136.49    9.60
   4   1   9  140.99   11.80
   4   1   9  140.09    8.80
  -5  -1  -9  147.79    9.60
  -5  -1  -9  166.88    7.70
  -5  -1  -9  163.58   12.40
  -5  -1  -9  154.78   12.00
   5   1   9  177.48   13.40
   5   1   9  174.38   10.20
   5   1   9  165.38   12.70
   5   1   9  159.08    9.50
  -6  -1  -9  423.46   14.80
  -6  -1  -9  454.15   22.60
  -6  -1  -9  436.16   16.00
  -6  -1  -9  491.75   22.30
   6   1   9  429.46   15.90
   6   1   9  477.15   23.00
   6   1   9  461.45   22.70
  -7  -1  -9    7.50    3.10
  -7  -1  -9    0.60    2.70
  -7  -1  -9    5.90    2.40
   7   1   9    0.60    5.20
   7   1   9    3.90    2.40
   7   1   9    2.40    2.10
   7   1   9    6.10    3.10
  -8  -1  -9  123.19   12.30
  -8  -1  -9  161.78   14.80
   8   1   9  144.69   13.50
   8   1   9  151.58   14.70
   8   1   9  134.99   10.30
   8   1   9  155.58   13.80
  -9  -1  -9    4.00    4.00
  -9  -1  -9    8.50    4.00
   9   1   9    9.40    4.80
   9   1   9    6.70    5.30
   9   1   9    3.40    3.70
   8  -2  -9    2.20    3.00
   8  -2  -9   -3.00    2.40
   8  -2  -9   -1.20    2.80
  -8   2   9    2.50    3.90
  -8   2   9   -1.60    3.10
   7  -2  -9  164.88   15.60
   7  -2  -9  149.09   13.40
   7  -2  -9  165.18   14.60
   7  -2  -9  160.68   11.80
  -7   2   9  147.59    7.70
  -7   2   9  153.08   13.40
  -7   2   9  157.98   15.10
   6  -2  -9  683.43   16.70
   6  -2  -9  702.23   26.40
   6  -2  -9  756.02   29.90
   6  -2  -9  695.93   25.20
  -6   2   9  716.83   31.30
  -6   2   9  753.72   30.20
  -6   2   9  641.74   18.30
   5  -2  -9   49.40    7.80
   5  -2  -9   40.30    6.00
   5  -2  -9   29.50    4.20
   5  -2  -9   36.90    5.60
   5  -2  -9   32.50    6.40
  -5   2   9   43.50    9.60
  -5   2   9   35.40    6.80
  -5   2   9   37.50    3.80
  -5   2   9   44.20    5.10
   4  -2  -9  275.97   16.10
   4  -2  -9  269.37   13.90
   4  -2  -9  262.27   14.30
   4  -2  -9  244.88   14.90
   4  -2  -9  257.67   11.90
  -4   2   9  271.97   16.70
  -4   2   9  248.58   10.20
  -4   2   9  250.27   10.10
  -4   2   9  245.58   16.20
   3  -2  -9  381.06   15.90
   3  -2  -9  376.06   14.10
   3  -2  -9  378.06   18.50
   3  -2  -9  403.76   18.40
   3  -2  -9  356.56   15.00
   3  -2  -9  393.86   17.50
  -3   2   9  415.16   20.40
  -3   2   9  390.96   13.30
  -3   2   9  373.86   19.10
   2  -2  -9  148.79    9.90
   2  -2  -9  140.89   10.10
   2  -2  -9  137.49    8.80
   2  -2  -9  140.29    8.30
  -2   2   9  149.69   11.40
  -2   2   9  135.29    9.70
  -2   2   9  144.09    8.00
  -2   2   9  139.49   11.10
   1  -2  -9   29.60    4.40
   1  -2  -9   31.20    4.20
   1  -2  -9   23.60    4.50
   1  -2  -9   28.70    4.80
  -1   2   9   17.40    3.60
  -1   2   9   29.20    5.60
  -1   2   9   28.20    4.80
   0  -2  -9 1106.99   33.20
   0  -2  -9 1225.78   31.30
   0  -2  -9 1206.08   32.40
   0   2   9 1173.98   29.80
   0   2   9 1228.08   34.50
   0   2   9 1217.48   36.30
  -1  -2  -9  109.79    9.40
  -1  -2  -9   95.59    7.80
  -1  -2  -9  107.39    8.10
   1   2   9   99.59    9.10
   1   2   9  100.99    9.00
   1   2   9  102.09    6.40
   1   2   9   90.69    6.10
  -2  -2  -9  141.39   10.60
  -2  -2  -9  148.69   10.10
  -2  -2  -9  151.38   10.30
   2   2   9  139.49    6.50
   2   2   9  145.79   11.30
   2   2   9  145.59   10.70
   2   2   9  161.78    9.50
  -3  -2  -9    4.20    2.60
  -3  -2  -9    0.80    1.20
  -3  -2  -9   -0.10    1.60
   3   2   9    3.80    2.40
   3   2   9    1.50    2.20
   3   2   9    3.50    2.40
   3   2   9    0.40    1.10
  -4  -2  -9  206.08   13.30
  -4  -2  -9  187.08   11.40
  -4  -2  -9  191.98   12.90
   4   2   9  192.88    9.50
   4   2   9  183.88   11.50
   4   2   9  182.98   12.20
   4   2   9  169.18   12.80
  -5  -2  -9  167.18   12.70
  -5  -2  -9  129.59   11.00
  -5  -2  -9  141.09    7.50
   5   2   9  145.39    9.80
   5   2   9  149.19    8.00
   5   2   9  165.48   13.10
   5   2   9  136.29   11.50
   5   2   9  149.88   12.70
  -6  -2  -9  187.78   13.50
  -6  -2  -9  180.58    8.40
  -6  -2  -9  177.68   10.30
   6   2   9  221.48   15.80
   6   2   9  185.38   14.00
   6   2   9  195.58    8.80
   6   2   9  191.58   19.20
  -7  -2  -9   24.20    4.70
  -7  -2  -9   21.90    6.00
  -7  -2  -9   17.10    3.30
   7   2   9   25.80    6.70
   7   2   9   29.80    6.50
   7   2   9   16.50    4.40
   7   2   9   24.70    3.50
  -8  -2  -9   87.49   11.70
  -8  -2  -9  100.59   11.30
   8   2   9  101.39   11.40
   8   2   9   80.59   10.50
   8   2   9   86.19   11.60
   8  -3  -9   -6.50    2.70
   8  -3  -9    4.70    3.50
   8  -3  -9   -1.90    2.80
  -8   3   9   -1.70    3.00
  -8   3   9    1.60    2.50
   7  -3  -9    2.70    2.20
   7  -3  -9    3.80    2.90
   7  -3  -9    1.70    2.80
  -7   3   9    1.30    3.30
  -7   3   9   -2.40    2.50
   6  -3  -9   99.79    6.60
   6  -3  -9   85.29   10.50
   6  -3  -9   93.79    8.70
   6  -3  -9  108.19   10.10
   6  -3  -9  107.99   11.00
  -6   3   9   94.99   11.70
  -6   3   9   86.99    7.10
  -6   3   9  113.39   11.30
   5  -3  -9  164.28   11.00
   5  -3  -9  164.68   12.00
   5  -3  -9  156.38   12.40
   5  -3  -9  171.98   13.80
   5  -3  -9  134.39    8.90
  -5   3   9  169.58   14.10
  -5   3   9  132.49    8.50
  -5   3   9  176.08   20.00
   4  -3  -9    3.00    2.40
   4  -3  -9    4.50    2.70
   4  -3  -9    4.40    2.20
   4  -3  -9    6.10    2.90
   4  -3  -9    5.10    2.90
  -4   3   9    3.20    2.20
  -4   3   9    3.90    2.80
  -4   3   9    6.00    1.90
  -4   3   9    2.90    1.60
   3  -3  -9  218.08   11.70
   3  -3  -9  205.38   14.10
   3  -3  -9  203.28   13.00
   3  -3  -9  188.78   11.20
   3  -3  -9  213.08   11.00
   3  -3  -9  208.78   12.90
  -3   3   9  193.28   10.10
  -3   3   9  206.58   14.10
  -3   3   9  219.68   14.80
   2  -3  -9  181.18    9.70
   2  -3  -9  157.28   10.30
   2  -3  -9  207.28   12.10
  -2   3   9  182.48   10.00
  -2   3   9  177.38   13.10
  -2   3   9  187.98   12.60
  -2   3   9  185.28   13.10
   1  -3  -9   12.60    3.10
   1  -3  -9   10.40    3.00
   1  -3  -9   21.20    3.50
   1  -3  -9   18.20    3.90
  -1   3   9    8.90    2.70
  -1   3   9   24.10    5.00
  -1   3   9   27.00    5.40
  -1   3   9   20.10    3.80
   0  -3  -9   92.99    8.00
   0  -3  -9   93.69    7.70
   0   3   9   88.49    6.90
   0   3   9   94.59    8.00
   0   3   9  103.59    9.60
   0   3   9  105.79    9.20
  -1  -3  -9   22.70    4.80
  -1  -3  -9   18.90    4.40
  -1  -3  -9   22.80    4.20
   1   3   9   12.90    3.80
   1   3   9   20.30    4.20
   1   3   9   14.60    4.10
   1   3   9   15.40    3.20
  -2  -3  -9   20.80    4.50
  -2  -3  -9   32.80    5.70
  -2  -3  -9   31.10    4.70
   2   3   9   22.40    3.00
   2   3   9   29.90    4.50
   2   3   9   28.60    5.30
   2   3   9   22.40    5.30
  -3  -3  -9    2.00    2.20
  -3  -3  -9    6.80    3.40
  -3  -3  -9    4.80    2.80
   3   3   9    3.40    0.90
   3   3   9    1.50    1.10
   3   3   9   -1.00    1.40
   3   3   9    2.00    1.90
   3   3   9    3.00    2.40
  -4  -3  -9  570.24   23.60
  -4  -3  -9  576.84   23.40
  -4  -3  -9  549.65   21.20
   4   3   9  574.64   21.80
   4   3   9  560.14   22.20
   4   3   9  569.64   24.70
   4   3   9  611.94   26.10
   4   3   9  559.34   16.20
  -5  -3  -9   11.30    3.50
  -5  -3  -9    5.40    2.80
  -5  -3  -9    8.60    3.10
   5   3   9   10.40    3.20
   5   3   9   10.60    4.00
   5   3   9   12.40    4.10
   5   3   9   25.50    5.90
   5   3   9   10.40    2.40
  -6  -3  -9    2.80    2.70
  -6  -3  -9    7.40    3.10
  -6  -3  -9    3.90    1.40
  -6  -3  -9    5.50    3.60
   6   3   9    8.80    4.00
   6   3   9    0.70    2.30
   6   3   9    3.00    3.20
  -7  -3  -9   40.60    7.10
  -7  -3  -9   37.60    4.80
  -7  -3  -9   57.09    6.30
  -7  -3  -9   52.99    8.90
   7   3   9   67.09    9.60
   7   3   9   52.39    8.60
   7   3   9   39.40    8.50
  -8  -3  -9  171.68   15.50
  -8  -3  -9  174.08   14.20
   8   3   9  148.69   14.00
   8   3   9  152.38   14.40
   8   3   9  149.09   14.00
   7  -4  -9  160.68   13.50
   7  -4  -9  173.48   15.90
   7  -4  -9  208.18   15.80
  -7   4   9  191.08   16.90
  -7   4   9  192.48   15.30
   6  -4  -9   48.90    7.30
   6  -4  -9   41.80    5.40
   6  -4  -9   42.40    7.50
   6  -4  -9   39.90    8.20
  -6   4   9   27.60    6.50
  -6   4   9   39.90    7.70
  -6   4   9   39.10    6.30
   5  -4  -9  242.78   17.30
   5  -4  -9  253.97   15.50
   5  -4  -9  244.38   13.00
   5  -4  -9  255.17   15.80
   5  -4  -9  216.38   11.80
  -5   4   9  243.48   16.20
  -5   4   9  240.28   16.90
  -5   4   9  204.78   11.80
   4  -4  -9    2.20    2.20
   4  -4  -9   -1.20    1.80
   4  -4  -9    1.20    1.90
   4  -4  -9    0.00    2.50
   4  -4  -9   -0.20    1.80
   4  -4  -9    2.30    1.90
  -4   4   9    1.80    2.30
  -4   4   9    0.50    1.90
  -4   4   9    1.60    1.30
  -4   4   9    1.00    2.10
   3  -4  -9   92.09    8.40
   3  -4  -9   77.09    6.30
   3  -4  -9   77.49    8.60
   3  -4  -9   75.09    7.50
   3  -4  -9   69.79    7.40
  -3   4   9   87.49    9.80
  -3   4   9   89.59    9.40
  -3   4   9   70.99    4.10
   2  -4  -9    2.70    2.40
   2  -4  -9    0.10    1.40
   2  -4  -9    0.60    1.40
   2  -4  -9    0.10    1.50
  -2   4   9    1.00    1.50
  -2   4   9   -1.20    1.50
   1  -4  -9  756.32   23.70
   1  -4  -9  688.93   24.50
   1  -4  -9  715.93   19.20
  -1   4   9  711.53   23.90
  -1   4   9  735.03   25.70
  -1   4   9  750.42   28.20
   0  -4  -9    7.70    3.20
   0  -4  -9   10.40    2.30
   0  -4  -9    9.60    2.90
   0   4   9    6.30    2.60
   0   4   9    5.70    2.30
   0   4   9    9.70    3.90
  -1  -4  -9  285.67   12.60
  -1  -4  -9  277.77   15.00
   1   4   9  262.67   15.30
   1   4   9  294.77   13.40
   1   4   9  267.97   15.70
  -2  -4  -9    7.30    2.40
  -2  -4  -9   15.10    3.40
  -2  -4  -9    8.00    2.90
  -2  -4  -9   12.20    3.80
   2   4   9   12.70    3.90
   2   4   9    8.70    3.10
   2   4   9   15.60    3.20
  -3  -4  -9    1.60    2.40
  -3  -4  -9    2.10    2.40
  -3  -4  -9    2.10    2.00
   3   4   9    1.90    1.10
   3   4   9    3.00    2.00
   3   4   9    4.30    2.50
   3   4   9    1.80    1.40
   3   4   9    4.20    2.60
   3   4   9    3.00    1.50
   3   4   9    1.90    2.40
  -4  -4  -9    3.70    2.10
  -4  -4  -9    5.80    3.00
   4   4   9    5.30    1.30
   4   4   9   -1.50    2.30
   4   4   9   11.40    3.70
   4   4   9    5.20    2.60
   4   4   9    6.90    2.90
   4   4   9    5.10    1.60
  -5  -4  -9  425.66   22.10
  -5  -4  -9  417.26   20.00
   5   4   9  427.06   20.60
   5   4   9  425.86   24.20
   5   4   9  473.15   26.10
  -6  -4  -9    9.30    3.60
  -6  -4  -9    8.80    3.40
   6   4   9    8.80    4.60
   6   4   9    6.30    3.60
   6   4   9    6.10    3.60
  -7  -4  -9    1.50    1.90
  -7  -4  -9   -1.40    2.40
  -7  -4  -9    4.10    3.10
   7   4   9    0.80    2.70
   7   4   9    3.10    3.70
   7   4   9   14.20    5.40
  -8  -4  -9    7.70    4.40
  -8  -4  -9    5.10    3.40
   8   4   9    4.30    3.90
   8   4   9    3.50    3.10
   8   4   9    1.90    3.70
   7  -5  -9  219.78   16.60
   7  -5  -9  228.78   18.40
  -7   5   9  236.18   18.70
  -7   5   9  210.08   16.50
   6  -5  -9    0.10    2.60
   6  -5  -9    1.50    3.00
   6  -5  -9    0.00    2.70
  -6   5   9    1.30    2.70
  -6   5   9   -0.20    3.00
   5  -5  -9  233.08   17.30
   5  -5  -9  242.48   17.20
   5  -5  -9  252.17   15.40
  -5   5   9  255.57   17.20
  -5   5   9  199.58   11.60
  -5   5   9  222.18   16.60
   4  -5  -9  340.27   18.10
   4  -5  -9  368.96   19.80
   4  -5  -9  345.77   17.20
   4  -5  -9  359.46   20.80
  -4   5   9  346.97   19.80
  -4   5   9  338.77   12.00
  -4   5   9  346.67   21.40
   3  -5  -9  540.05   22.70
   3  -5  -9  578.44   24.70
   3  -5  -9  537.65   21.00
   3  -5  -9  547.35   16.50
  -3   5   9  525.45   13.40
  -3   5   9  574.74   24.50
  -3   5   9  524.35   24.70
   2  -5  -9   16.10    4.30
   2  -5  -9   14.40    2.90
   2  -5  -9    7.10    2.70
   2  -5  -9   12.50    4.00
  -2   5   9   11.20    3.80
  -2   5   9   19.70    5.40
   1  -5  -9  638.74   21.10
   1  -5  -9  625.14   15.50
   1  -5  -9  645.04   25.00
  -1   5   9  605.74   23.00
  -1   5   9  598.64   25.60
   0  -5  -9  322.67    9.50
   0  -5  -9  299.97   13.10
   0  -5  -9  316.97   16.80
   0   5   9  336.67   15.30
   0   5   9  280.67   16.80
  -1  -5  -9  486.15   12.70
  -1  -5  -9  473.95   16.40
  -1  -5  -9  461.15   16.60
  -1  -5  -9  480.45   21.30
   1   5   9  476.05   22.00
   1   5   9  481.85   17.40
  -2  -5  -9  263.87   15.70
  -2  -5  -9  224.48   12.40
  -2  -5  -9  242.68   10.90
  -2  -5  -9  236.68   14.50
   2   5   9  227.08   15.70
   2   5   9  251.67   10.90
   2   5   9  219.38   14.40
  -3  -5  -9  679.73   24.80
  -3  -5  -9  714.03   26.40
  -3  -5  -9  709.63   20.70
  -3  -5  -9  750.82   28.60
   3   5   9  693.93   17.80
   3   5   9  699.53   17.30
   3   5   9  695.73   29.30
   3   5   9  743.23   27.70
  -4  -5  -9   40.50    4.90
  -4  -5  -9   43.60    6.80
  -4  -5  -9   42.30    7.50
   4   5   9   49.30    7.70
   4   5   9   45.50    3.10
   4   5   9   31.30    7.10
  -5  -5  -9   30.30    4.80
  -5  -5  -9   25.80    6.40
  -5  -5  -9   35.70    6.30
   5   5   9   28.80    7.00
   5   5   9   30.20    7.00
  -6  -5  -9   44.80    8.20
  -6  -5  -9   41.10    6.90
   6   5   9   38.60    7.80
   6   5   9   61.59    8.60
   6   5   9   49.20    9.10
  -7  -5  -9   62.19    8.30
  -7  -5  -9   92.79   11.60
   7   5   9   85.39   10.70
   7   5   9   65.39    9.80
   7   5   9   60.59   10.10
  -8  -5  -9    1.10    3.00
  -8  -5  -9    1.40    3.30
   8   5   9    7.60    4.30
   8   5   9    7.30    3.70
   8   5   9    9.30    4.60
   6  -6  -9   91.19   12.00
   6  -6  -9   88.39   11.10
  -6   6   9   61.09    9.40
  -6   6   9   54.79    9.70
   5  -6  -9    7.40    3.30
   5  -6  -9    1.80    2.90
   5  -6  -9    5.70    2.80
  -5   6   9   11.70    5.00
  -5   6   9    5.20    2.90
  -5   6   9    8.80    3.80
   4  -6  -9   14.20    4.90
   4  -6  -9    7.00    3.10
   4  -6  -9    6.40    2.60
   4  -6  -9    8.80    3.90
  -4   6   9    2.80    2.20
  -4   6   9   21.80    5.80
  -4   6   9    6.20    4.10
   3  -6  -9  496.05   19.70
   3  -6  -9  479.25   25.10
   3  -6  -9  503.25   23.30
  -3   6   9  475.95   24.00
  -3   6   9  496.85   23.10
   2  -6  -9  260.07   12.90
   2  -6  -9  265.67   16.20
   2  -6  -9  275.67   17.30
  -2   6   9  247.88   18.20
  -2   6   9  239.58   14.80
   1  -6  -9   32.30    3.70
   1  -6  -9   30.50    6.30
   1  -6  -9   28.90    6.00
   1  -6  -9   30.60    4.50
  -1   6   9   25.00    5.90
  -1   6   9   32.60    5.80
   0  -6  -9  194.98   14.00
   0  -6  -9  174.48    9.10
   0   6   9  160.88   12.80
   0   6   9  189.58   11.40
   0   6   9  175.18   13.80
  -1  -6  -9   84.79    7.20
  -1  -6  -9   84.59    9.30
  -1  -6  -9   73.39    5.90
   1   6   9   85.39    7.20
   1   6   9   82.29    9.30
   1   6   9   89.99   10.00
  -2  -6  -9   28.90    3.80
  -2  -6  -9   18.80    4.40
  -2  -6  -9   36.20    6.90
   2   6   9   32.80    6.70
   2   6   9   23.90    5.70
   2   6   9   27.80    3.80
  -3  -6  -9  491.55   15.40
  -3  -6  -9  483.35   21.50
  -3  -6  -9  508.85   24.20
  -3  -6  -9  491.45   13.00
   3   6   9  512.15   25.40
  -4  -6  -9  141.89    7.10
  -4  -6  -9  139.89    7.80
  -4  -6  -9  131.09   12.40
  -4  -6  -9  143.29   11.40
   4   6   9  144.69    7.00
   4   6   9  145.79   13.60
  -5  -6  -9    3.60    3.00
  -5  -6  -9    3.70    3.70
  -5  -6  -9   -0.30    1.80
   5   6   9    1.00    2.30
  -6  -6  -9   10.90    4.00
  -6  -6  -9   12.10    4.70
   6   6   9    6.60    3.80
  -7  -6  -9  100.99   12.20
  -7  -6  -9   66.69    8.60
   7   6   9   89.09   12.10
   6  -7  -9   54.39    9.30
   6  -7  -9   32.70    8.20
  -6   7   9   52.49    9.60
  -6   7   9   24.50    6.60
  -6   7   9   55.09    7.00
   5  -7  -9   86.99   11.50
   5  -7  -9   88.89   11.60
  -5   7   9   78.79   10.50
  -5   7   9   69.79    8.00
  -5   7   9   94.49   11.70
   4  -7  -9   19.20    5.90
   4  -7  -9    9.50    4.90
   4  -7  -9    8.80    3.60
  -4   7   9   12.50    4.70
  -4   7   9    7.10    3.90
  -4   7   9   12.40    2.90
  -4   7   9   11.00    3.90
   3  -7  -9    2.20    2.20
   3  -7  -9    0.00    2.20
   3  -7  -9    0.40    2.20
  -3   7   9   -3.30    2.00
  -3   7   9   -0.10    1.60
  -3   7   9    5.70    3.10
  -3   7   9   -1.70    1.50
   2  -7  -9  379.16   21.30
   2  -7  -9  386.16   15.40
   2  -7  -9  384.46   21.10
   2  -7  -9  354.56   11.20
  -2   7   9  389.16   19.20
  -2   7   9  369.76   21.30
  -2   7   9  343.97   19.00
   1  -7  -9   27.60    6.50
   1  -7  -9   19.50    4.90
   1  -7  -9   22.70    4.30
  -1   7   9   36.20    6.60
  -1   7   9   24.90    5.10
  -1   7   9   34.80    6.30
   0  -7  -9  166.68   13.70
   0  -7  -9  142.29    9.00
   0  -7  -9  160.88    8.20
   0  -7  -9  171.78   13.70
   0   7   9  177.48   11.00
   0   7   9  160.68   13.90
   0   7   9  177.28   13.80
  -1  -7  -9   78.39    5.30
  -1  -7  -9   84.09   12.20
  -1  -7  -9   73.49   10.20
   1   7   9   84.09    6.80
   1   7   9   77.89   14.20
   1   7   9  104.79   11.00
  -2  -7  -9   78.39    4.90
  -2  -7  -9   78.89    8.70
  -2  -7  -9   78.49   10.00
   2   7   9   87.29    5.90
   2   7   9   73.39    9.80
  -3  -7  -9    6.80    3.70
  -3  -7  -9    4.60    1.60
   3   7   9    6.80    3.50
   3   7   9   -0.10    1.70
  -4  -7  -9  432.66   22.10
  -4  -7  -9  410.66   12.10
  -4  -7  -9  435.96   23.70
   4   7   9  410.06   23.70
  -5  -7  -9   34.50    3.70
  -5  -7  -9   39.30    6.40
  -5  -7  -9   39.20    5.90
  -5  -7  -9   40.20    4.00
  -5  -7  -9   42.00    8.30
   5   7   9   42.30    8.50
  -6  -7  -9   16.40    3.30
  -6  -7  -9   22.80    5.60
  -6  -7  -9   11.70    5.70
   6   7   9   18.40    5.70
   5  -8  -9   16.80    5.00
   5  -8  -9   18.90    6.30
  -5   8   9   13.80    5.20
  -5   8   9   15.40    5.30
  -5   8   9   30.00    6.10
   4  -8  -9  127.19   14.40
   4  -8  -9  158.48   15.20
   4  -8  -9  148.79   14.40
  -4   8   9  171.48   15.00
  -4   8   9  159.88   13.60
  -4   8   9  152.08   11.80
   3  -8  -9   32.90    7.60
   3  -8  -9   49.70    8.70
  -3   8   9   39.90    7.50
  -3   8   9   28.30    6.20
  -3   8   9   42.40    5.40
  -3   8   9   24.00    6.80
   2  -8  -9   96.99   11.60
   2  -8  -9  112.09   12.50
   2  -8  -9  105.89    7.30
  -2   8   9  127.39   11.20
  -2   8   9  118.69   10.70
  -2   8   9  132.79   13.00
   1  -8  -9  172.38   14.60
   1  -8  -9  163.68    9.80
   1  -8  -9  185.88   15.30
  -1   8   9  188.98   12.50
  -1   8   9  172.28   20.30
   0  -8  -9  122.29   12.30
   0  -8  -9  152.48   13.90
   0  -8  -9  108.29   11.80
   0   8   9  150.78   13.20
   0   8   9  142.19   10.10
  -1  -8  -9    7.30    4.00
  -1  -8  -9    1.00    2.30
   1   8   9   -1.50    1.90
   1   8   9    4.00    3.80
  -2  -8  -9  482.35   25.40
   2   8   9  482.75   25.40
  -3  -8  -9   -1.00    2.50
   3   8   9    1.50    1.80
   3   8   9    3.90    3.60
  -4  -8  -9  139.49   14.40
   4   8   9  145.49   15.40
   4   8   9  120.19    8.40
  -5  -8  -9  141.29   14.20
   5   8   9  124.39   14.60
   3  -9  -9   49.60   10.00
   3  -9  -9   43.60    9.70
   3  -9  -9   57.79    9.70
  -3   9   9   62.39    9.10
   2  -9  -9    3.80    3.50
   2  -9  -9   -1.10    2.30
  -2   9   9    0.90    2.60
  -2   9   9    3.90    3.20
  -2   9   9    0.30    1.40
   1  -9  -9    0.60    3.50
   1  -9  -9    1.70    3.30
  -1   9   9   -4.40    2.40
  -1   9   9    1.30    3.00
   0  -9  -9  189.48   16.60
   0  -9  -9  201.58   16.50
   0   9   9  201.18   12.00
   0   9   9  198.08   15.70
  -1  -9  -9    0.20    3.60
  -1  -9  -9    4.80    3.60
   1   9   9    2.50    1.70
   1   9   9    1.70    2.90
  -2  -9  -9   98.79   12.40
  -2  -9  -9   92.19   11.10
   2   9   9   93.59   12.20
  -3  -9  -9    1.70    3.50
   3   9   9    4.50    2.50
   3   9   9   -1.70    2.30
  -4  -9  -9   -2.30    2.30
   4   9   9    3.80    4.30
   4   9   9   -4.10    1.90
   0 -10  -9   -0.60    3.70
   0  10   9    0.80    3.40
   0  10   9   -0.20    2.30
  -1 -10  -9   40.80    9.40
  -1 -10  -9   38.10    8.40
   1  10   9   29.00    7.60
   2   7 -10   92.49    9.40
   2   7 -10  102.99   12.10
   2   7 -10  107.29   12.40
   2   7 -10   90.79   11.00
  -2  -7  10  106.89   13.00
  -2  -7  10  100.09   10.50
   1   7 -10    2.40    3.40
   1   7 -10    1.50    3.10
   1   7 -10    0.70    2.20
   1   7 -10    3.20    3.00
  -1  -7  10   -3.10    3.20
  -1  -7  10    4.60    2.80
   0   7 -10    1.50    2.40
   0   7 -10    0.10    2.20
   0   7 -10    2.90    2.80
   0  -7  10   -0.80    2.80
   0  -7  10   -2.00    2.70
  -1   7 -10    3.50    1.50
  -1   7 -10    9.80    3.00
  -1   7 -10    1.90    2.80
  -1   7 -10   10.00    3.60
   1  -7  10    7.50    3.90
   1  -7  10    6.60    3.80
  -2   7 -10   94.29    9.40
  -2   7 -10   59.99    9.60
  -2   7 -10   83.89   10.20
   2  -7  10   72.09   10.80
   2  -7  10   68.29    9.70
  -3   7 -10    5.20    3.40
   3  -7  10    6.40    4.10
   3  -7  10   -1.80    3.70
   4   6 -10   53.09    9.40
   4   6 -10   50.39    9.30
   4   6 -10   55.59    8.00
  -4  -6  10   57.49   10.60
  -4  -6  10   57.69    6.70
   3   6 -10    7.00    3.70
   3   6 -10   17.60    4.90
   3   6 -10   13.20    3.80
   3   6 -10   13.30    4.70
  -3  -6  10   11.80    5.00
  -3  -6  10   18.40    4.30
   2   6 -10   16.90    4.60
   2   6 -10   18.90    5.20
   2   6 -10   28.30    6.70
   2   6 -10   16.40    5.00
  -2  -6  10   21.40    6.00
  -2  -6  10   25.90    6.10
   1   6 -10  293.17   17.70
   1   6 -10  224.38   17.10
   1   6 -10  293.97   18.00
   1   6 -10  262.17   12.30
  -1  -6  10  314.97   17.80
  -1  -6  10  297.67   19.60
   0   6 -10   27.70    6.30
   0   6 -10   11.40    4.40
   0   6 -10   19.00    4.40
   0  -6  10   29.40    8.90
   0  -6  10   19.20    5.80
  -1   6 -10    2.10    2.00
  -1   6 -10   10.10    4.30
  -1   6 -10   10.80    3.20
  -1   6 -10   13.40    4.00
  -1   6 -10   11.60    3.80
   1  -6  10    8.20    4.00
   1  -6  10   21.20    5.80
  -2   6 -10    6.00    3.00
  -2   6 -10    5.10    3.80
  -2   6 -10    0.10    2.30
   2  -6  10    0.10    3.00
   2  -6  10   -3.60    1.80
  -3   6 -10    0.50    1.70
  -3   6 -10    3.00    2.50
   3  -6  10    6.10    3.50
   3  -6  10    4.70    3.60
   3  -6  10    5.60    3.60
  -4   6 -10    7.00    3.50
  -4   6 -10   -0.10    2.00
   4  -6  10   -0.50    3.10
   4  -6  10   -1.70    3.30
   5   5 -10   48.40    9.30
   5   5 -10   61.79    8.60
   5   5 -10   63.99   10.10
  -5  -5  10   76.69   11.20
   4   5 -10   17.00    5.10
   4   5 -10   18.40    4.80
   4   5 -10   13.60    4.70
  -4  -5  10   17.70    6.00
  -4  -5  10   20.80    4.50
   3   5 -10   92.29    9.60
   3   5 -10   94.09   10.80
   3   5 -10   90.29   10.60
  -3  -5  10  106.99    8.80
  -3  -5  10   99.39   12.30
   2   5 -10    2.70    2.40
   2   5 -10    1.80    2.70
   2   5 -10   10.90    4.30
   2   5 -10    7.90    2.10
   2   5 -10    0.90    2.70
  -2  -5  10    5.00    2.50
  -2  -5  10   -1.10    2.70
   1   5 -10   75.39    7.80
   1   5 -10   78.59    7.30
   1   5 -10   89.59   10.30
   1   5 -10   66.69    8.60
  -1  -5  10   75.99    8.70
  -1  -5  10   74.89   10.20
   0   5 -10  141.69   12.30
   0   5 -10  160.28   11.20
   0   5 -10  136.19    9.60
   0   5 -10  144.99   11.20
   0   5 -10  131.79   10.00
   0  -5  10  155.58   12.40
   0  -5  10  167.68   14.00
  -1   5 -10  189.78   11.80
  -1   5 -10  199.48   10.00
  -1   5 -10  193.98   14.30
  -1   5 -10  202.68   12.80
  -1   5 -10  197.98   12.80
  -1   5 -10  200.88    9.50
   1  -5  10  217.08   15.50
   1  -5  10  200.78   15.00
  -2   5 -10    0.20    1.80
  -2   5 -10    5.70    3.10
  -2   5 -10    1.00    2.00
   2  -5  10    1.80    3.40
   2  -5  10   -1.30    1.80
  -3   5 -10  132.29    9.40
  -3   5 -10  115.99   10.90
   3  -5  10  137.29   13.00
   3  -5  10  152.38   13.70
   3  -5  10  128.79   11.20
  -4   5 -10   -2.30    1.80
  -4   5 -10   -3.00    2.00
   4  -5  10   -0.30    2.30
   4  -5  10   -4.00    1.80
   4  -5  10    4.20    2.70
  -5   5 -10   -2.70    2.10
   5  -5  10   -2.60    2.10
   5  -5  10    1.00    2.70
   5  -5  10   -0.40    3.30
   6   4 -10    2.00    3.50
   6   4 -10   14.00    5.00
   6   4 -10    2.10    2.90
  -6  -4  10    6.80    4.50
   5   4 -10   98.99   11.60
   5   4 -10   83.69    9.00
   5   4 -10   99.39   11.60
  -5  -4  10  102.29   12.20
   4   4 -10    1.10    2.10
   4   4 -10   -1.50    2.10
   4   4 -10    2.30    2.10
  -4  -4  10   -1.80    2.10
  -4  -4  10   -0.70    2.40
  -4  -4  10   -0.40    1.60
   3   4 -10  183.98   12.00
   3   4 -10  139.89   12.40
   3   4 -10  171.98   13.90
  -3  -4  10  167.68   14.20
  -3  -4  10  131.59    8.90
  -3  -4  10  161.38   10.40
   2   4 -10   41.60    7.40
   2   4 -10   59.29    8.20
   2   4 -10   52.79    6.60
   2   4 -10   46.80    5.10
  -2  -4  10   46.20    8.00
   1   4 -10   50.09    6.20
   1   4 -10   44.20    7.50
   1   4 -10   53.69    6.30
  -1  -4  10   54.39    6.90
  -1  -4  10   45.90    7.90
   0   4 -10    3.10    2.40
   0   4 -10   -0.30    1.70
   0   4 -10    2.40    2.50
   0   4 -10   -1.30    1.60
   0   4 -10    0.60    2.10
   0  -4  10    0.80    2.20
  -1   4 -10  412.06   20.30
  -1   4 -10  399.36   16.40
  -1   4 -10  379.86   18.30
  -1   4 -10  397.56   14.60
  -1   4 -10  426.16   18.00
  -1   4 -10  403.16   14.00
   1  -4  10  462.15   21.70
   1  -4  10  386.56   20.20
  -2   4 -10    4.80    2.50
  -2   4 -10    6.30    2.80
  -2   4 -10    3.60    2.40
  -2   4 -10    6.40    2.70
   2  -4  10    4.50    3.00
   2  -4  10    1.30    2.20
   2  -4  10    4.90    2.90
  -3   4 -10  149.99   13.70
  -3   4 -10  164.18    9.70
  -3   4 -10  172.38   13.90
   3  -4  10  164.98   13.50
   3  -4  10  191.38   14.90
   3  -4  10  180.38   12.70
  -4   4 -10  121.29   11.20
  -4   4 -10   96.69    7.00
   4  -4  10   92.39   10.90
   4  -4  10  126.39   12.70
   4  -4  10  118.79    9.90
  -5   4 -10   39.70    7.20
   5  -4  10   10.90    4.50
   5  -4  10   17.70    5.80
   5  -4  10   24.30    5.50
  -6   4 -10   13.70    4.80
   6  -4  10   14.40    4.80
   6  -4  10   13.60    5.50
   6   3 -10   -2.70    2.10
   6   3 -10    1.50    2.40
   6   3 -10    0.20    2.10
   6   3 -10    1.10    3.00
  -6  -3  10    4.20    4.30
   5   3 -10  120.99   11.50
   5   3 -10  127.99   12.60
   5   3 -10  104.69    9.80
   5   3 -10  117.69    8.80
  -5  -3  10  102.59   12.20
   4   3 -10    7.10    2.60
   4   3 -10    8.20    2.60
   4   3 -10    7.10    2.90
   4   3 -10    9.20    3.60
  -4  -3  10   11.80    2.80
  -4  -3  10   11.20    2.60
  -4  -3  10   16.20    5.30
   3   3 -10   -1.10    1.80
   3   3 -10    1.90    1.90
   3   3 -10   -0.70    1.50
   3   3 -10   -4.30    1.70
   3   3 -10    1.10    1.70
   3   3 -10    2.00    1.90
  -3  -3  10    2.20    2.30
  -3  -3  10    0.40    1.80
  -3  -3  10   -0.10    1.40
   2   3 -10  118.29    8.30
   2   3 -10  125.99    6.60
   2   3 -10  127.49   11.30
   2   3 -10  126.39   11.20
   2   3 -10  119.39    8.90
  -2  -3  10  139.59   12.80
  -2  -3  10  123.09    9.50
   1   3 -10  272.57   12.90
   1   3 -10  311.57   20.80
   1   3 -10  270.07   15.80
   1   3 -10  280.77    9.50
  -1  -3  10  266.27   14.80
  -1  -3  10  286.47   17.70
   0   3 -10   -1.10    1.20
   0   3 -10   -4.00    1.80
   0   3 -10   -0.10    1.80
   0   3 -10    0.80    1.10
   0   3 -10   -0.30    1.10
   0   3 -10   -1.10    1.00
   0   3 -10   -1.20    2.00
   0  -3  10   -2.90    1.10
   0  -3  10   -1.20    1.60
   0  -3  10   -1.60    1.60
  -1   3 -10   93.29    5.70
  -1   3 -10  103.69    7.40
  -1   3 -10  103.19    6.70
  -1   3 -10   91.49    6.90
  -1   3 -10   82.89   11.40
  -1   3 -10  115.59    9.70
   1  -3  10   92.99    9.60
   1  -3  10   90.59    8.70
   1  -3  10  106.99   10.00
   1  -3  10   78.59    7.10
  -2   3 -10  150.78   11.40
  -2   3 -10  153.68    9.60
  -2   3 -10  129.89    7.40
   2  -3  10  159.28   11.80
   2  -3  10  157.48   12.70
   2  -3  10  134.59   11.30
  -3   3 -10   47.20    5.20
  -3   3 -10   53.09    7.50
  -3   3 -10   40.00    6.00
   3  -3  10   39.80    6.70
   3  -3  10   49.90    7.00
   3  -3  10   55.79    8.20
  -4   3 -10   25.60    4.80
  -4   3 -10   13.90    3.90
  -4   3 -10   16.00    4.40
   4  -3  10   22.40    5.50
   4  -3  10   19.40    5.50
   4  -3  10   20.90    4.90
  -5   3 -10  198.58   12.60
  -5   3 -10  236.38   15.80
   5  -3  10  237.78   17.00
   5  -3  10  221.18   12.60
   5  -3  10  232.78   17.20
  -6   3 -10    3.00    3.10
   6  -3  10   -0.80    1.90
   6  -3  10    2.00    3.20
   6  -3  10   -3.80    2.50
  -7   3 -10   14.00    4.30
   7  -3  10   11.80    4.60
   7  -3  10   16.00    5.50
   7   2 -10    4.80    3.60
   7   2 -10    6.40    4.10
   7   2 -10   -1.00    2.90
  -7  -2  10    5.90    4.70
  -7  -2  10   11.00    4.50
   6   2 -10   62.59    9.00
   6   2 -10   56.09    8.80
   6   2 -10   63.09    8.10
  -6  -2  10   78.39   11.20
  -6  -2  10   54.79    9.40
   5   2 -10    0.80    1.10
   5   2 -10    3.60    2.20
   5   2 -10    3.10    2.90
   5   2 -10    3.40    2.70
   5   2 -10    3.70    2.90
  -5  -2  10    1.60    2.40
   4   2 -10  272.27   10.90
   4   2 -10  288.07   17.70
   4   2 -10  271.57   14.30
   4   2 -10  288.07   13.80
   4   2 -10  278.47   16.90
   4   2 -10  270.67   11.00
  -4  -2  10  303.67   19.20
  -4  -2  10  287.27   11.60
   3   2 -10   -0.60    1.50
   3   2 -10    2.10    1.70
   3   2 -10    5.80    2.20
   3   2 -10    0.70    1.90
   3   2 -10    2.10    2.20
  -3  -2  10    0.90    1.80
  -3  -2  10   -1.70    2.00
   2   2 -10    6.10    2.60
   2   2 -10   10.00    2.60
   2   2 -10    3.40    2.30
   2   2 -10    6.80    2.40
   2   2 -10    6.10    3.40
  -2  -2  10    6.30    2.00
  -2  -2  10   10.00    3.30
  -2  -2  10   10.00    4.10
   1   2 -10    6.30    2.50
   1   2 -10    5.70    2.20
   1   2 -10    8.00    3.30
  -1  -2  10    3.80    3.70
  -1  -2  10    7.40    2.70
  -1  -2  10    7.70    2.40
   0   2 -10  163.98    7.30
   0   2 -10  195.88   13.10
   0   2 -10  170.58    8.70
   0   2 -10  164.08   11.20
   0   2 -10  163.08    6.80
   0   2 -10  184.68   12.60
   0  -2  10  170.88   10.10
   0  -2  10  165.48   11.80
   0  -2  10  172.68   10.20
   0  -2  10  161.98   12.50
  -1   2 -10   93.19    9.30
  -1   2 -10  100.99    9.30
  -1   2 -10   99.69    6.80
  -1   2 -10  111.49    6.90
   1  -2  10  100.89    7.40
   1  -2  10  123.89   10.70
   1  -2  10  107.29    8.70
   1  -2  10  101.79    9.60
  -2   2 -10  193.88   10.10
  -2   2 -10  200.08    9.40
  -2   2 -10  208.58   11.20
  -2   2 -10  230.48   14.10
   2  -2  10  193.78   13.00
   2  -2  10  192.68   13.70
   2  -2  10  211.98   13.10
  -3   2 -10    1.40    2.30
  -3   2 -10   -0.90    1.70
  -3   2 -10    4.80    3.00
   3  -2  10    1.40    2.20
   3  -2  10    2.00    1.90
   3  -2  10    0.10    2.10
  -4   2 -10    6.80    3.10
  -4   2 -10    4.80    3.10
  -4   2 -10    2.40    2.60
   4  -2  10    2.60    2.70
   4  -2  10    0.60    3.00
   4  -2  10    4.40    2.80
  -5   2 -10   24.00    5.80
  -5   2 -10   26.60    5.90
   5  -2  10   17.30    4.00
   5  -2  10   30.30    6.90
   5  -2  10   24.50    6.30
  -6   2 -10  160.68   13.70
  -6   2 -10  160.18   13.60
   6  -2  10  163.78    9.80
   6  -2  10  169.78   14.50
   6  -2  10  160.98   14.40
  -7   2 -10   -0.50    2.30
  -7   2 -10    2.50    2.80
   7  -2  10    0.30    1.60
   7  -2  10    1.40    3.00
   7  -2  10   -2.50    2.10
   7  -2  10    1.40    2.80
   7   1 -10   -0.60    3.70
   7   1 -10    0.60    3.70
  -7  -1  10    0.60    3.00
  -7  -1  10    1.40    2.90
   6   1 -10  352.76   18.60
   6   1 -10  345.07   21.10
   6   1 -10  320.47   19.30
  -6  -1  10  345.17   21.90
  -6  -1  10  364.66   21.40
   5   1 -10    6.30    2.90
   5   1 -10   11.30    4.10
   5   1 -10    3.90    2.70
   5   1 -10    3.90    2.00
  -5  -1  10    5.80    2.80
   4   1 -10  126.19   11.10
   4   1 -10  126.39    9.60
   4   1 -10  156.18   12.40
   4   1 -10  158.48   11.00
  -4  -1  10  135.69   12.80
   3   1 -10  127.29    8.60
   3   1 -10  116.99   13.50
   3   1 -10  138.19   11.30
   3   1 -10  134.79    8.80
   3   1 -10  159.88   10.50
  -3  -1  10  132.09   17.30
  -3  -1  10  123.29    8.70
   2   1 -10  350.16   13.20
   2   1 -10  336.67   15.70
   2   1 -10  367.16   15.50
   2   1 -10  349.57   18.00
   2   1 -10  351.56   17.10
  -2  -1  10  361.56   16.00
  -2  -1  10  343.77   19.10
   1   1 -10    1.10    1.30
   1   1 -10    5.30    2.70
  -1  -1  10    0.10    1.60
  -1  -1  10    5.50    1.70
  -1  -1  10    2.00    1.70
  -1  -1  10    2.40    2.00
   0   1 -10  868.11   21.20
   0   1 -10  880.01   21.40
   0   1 -10  859.71   29.50
   0   1 -10  854.61   29.10
   0  -1  10  854.91   28.50
   0  -1  10  897.11   31.20
   0  -1  10  897.71   23.80
   0  -1  10  872.31   29.10
  -1   1 -10    7.30    1.80
  -1   1 -10    5.60    2.00
  -1   1 -10    5.80    2.80
  -1   1 -10    5.10    2.70
   1  -1  10    9.10    2.90
   1  -1  10    5.80    2.00
   1  -1  10    9.10    3.40
   1  -1  10   10.00    3.70
  -2   1 -10  411.56   19.40
  -2   1 -10  424.46   12.60
  -2   1 -10  451.85   17.10
   2  -1  10  426.56   20.60
   2  -1  10  420.06   13.80
   2  -1  10  417.66   18.00
   2  -1  10  426.36   19.60
  -3   1 -10   15.50    4.40
  -3   1 -10   20.10    4.40
  -3   1 -10   16.20    3.80
   3  -1  10   11.20    3.40
   3  -1  10   11.20    3.70
   3  -1  10   26.80    5.40
  -4   1 -10  161.88   11.80
  -4   1 -10  178.38   12.20
   4  -1  10  175.78   13.00
   4  -1  10  183.18   14.10
   4  -1  10  191.18   11.90
  -5   1 -10   25.20    5.70
  -5   1 -10   14.10    4.40
   5  -1  10   15.00    4.70
   5  -1  10   20.90    4.60
   5  -1  10   17.40    4.90
  -6   1 -10  305.27   18.50
  -6   1 -10  268.67   17.40
   6  -1  10  247.78   17.70
   6  -1  10  268.47   18.30
   6  -1  10  264.77   12.40
  -7   1 -10    4.40    3.20
  -7   1 -10   11.50    4.50
   7  -1  10    4.40    2.80
   7  -1  10    6.00    3.30
   7  -1  10    0.10    1.60
   7  -1  10    8.90    4.20
  -8   1 -10   54.29    9.40
  -8   1 -10   51.69    9.90
   8  -1  10   38.70    8.80
   8  -1  10   37.00    8.30
   8  -1  10   44.40    9.50
   7   0 -10    9.30    4.40
   7   0 -10   -0.90    2.00
   7   0 -10    6.80    3.50
   7   0 -10   12.50    4.40
  -7   0  10    0.30    3.40
  -7   0  10    2.80    3.30
   6   0 -10   57.29    8.30
   6   0 -10   58.39    9.00
   6   0 -10   55.29    6.10
   6   0 -10   53.49    8.40
  -6   0  10   59.59    9.10
  -6   0  10   40.50    8.60
   5   0 -10   61.19    6.60
   5   0 -10   57.39    7.80
   5   0 -10   72.39    8.60
   5   0 -10   65.49    9.10
  -5   0  10   61.89    8.90
  -5   0  10   55.29    8.70
   4   0 -10   14.60    3.30
   4   0 -10   28.60    6.30
   4   0 -10   22.70    5.40
   4   0 -10   35.70    5.40
   4   0 -10   25.00    5.10
  -4   0  10   32.20    6.60
   3   0 -10  163.78   11.40
   3   0 -10  150.38   11.00
   3   0 -10  155.88   10.20
   3   0 -10  156.88    9.70
   3   0 -10  162.08   12.30
  -3   0  10  174.48   14.10
  -3   0  10  168.98   10.10
   2   0 -10  786.62   25.80
   2   0 -10  736.23   24.40
   2   0 -10  716.93   25.40
   2   0 -10  792.82   28.10
  -2   0  10  748.83   29.40
  -2   0  10  757.12   24.60
   1   0 -10  117.79   14.50
   1   0 -10  130.19   10.50
   1   0 -10  128.89    6.40
   1   0 -10  124.29    6.00
  -1   0  10  126.99   11.10
  -1   0  10  118.09    8.70
  -1   0  10  131.09    9.80
   0   0 -10  460.35   19.90
   0   0 -10  452.05   15.10
   0   0 -10  484.95   21.20
   0   0 -10  456.45   11.60
   0   0  10  468.25   16.80
   0   0  10  503.15   22.30
   0   0  10  493.75   20.50
   0   0  10  472.75   14.30
  -1   0 -10  478.15   21.20
  -1   0 -10  519.45   17.60
  -1   0 -10  473.65   20.20
   1   0  10  498.45   21.80
   1   0  10  477.95   15.80
   1   0  10  499.85   17.10
   1   0  10  501.15   21.50
  -2   0 -10  832.72   17.30
  -2   0 -10  857.71   29.80
  -2   0 -10  875.31   26.20
   2   0  10  869.71   26.30
   2   0  10  864.91   30.60
   2   0  10  850.01   20.90
   2   0  10  897.71   29.70
  -3   0 -10   35.50    5.70
  -3   0 -10   37.90    6.60
   3   0  10   34.20    5.90
   3   0  10   39.70    6.90
   3   0  10   32.90    6.30
   3   0  10   43.20    6.20
  -4   0 -10  938.41   40.20
  -4   0 -10  850.71   20.70
  -4   0 -10  850.61   27.60
  -4   0 -10  897.81   30.10
   4   0  10  922.21   33.40
   4   0  10  900.51   28.30
   4   0  10  930.51   31.10
   4   0  10  855.71   27.40
  -5   0 -10   90.39    9.60
  -5   0 -10   84.09    5.90
  -5   0 -10   75.99    9.00
   5   0  10   77.09    9.10
   5   0  10   82.89    7.80
   5   0  10   84.99    9.60
   5   0  10   77.79    8.00
  -6   0 -10   19.10    5.30
  -6   0 -10   20.90    4.30
  -6   0 -10   34.20    5.90
   6   0  10   29.30    6.50
   6   0  10   26.50    4.70
   6   0  10   20.40    4.70
   6   0  10   18.50    5.50
  -7   0 -10    2.20    2.70
  -7   0 -10   -0.40    2.30
   7   0  10    4.40    3.50
   7   0  10   -2.10    2.30
   7   0  10   -0.10    2.60
  -8   0 -10  173.48   16.00
  -8   0 -10  166.38   14.60
   8   0  10  174.58   14.60
   8   0  10  173.28   15.70
   8   0  10  161.18   15.80
   7  -1 -10  115.29   11.90
   7  -1 -10  120.99   13.40
   7  -1 -10  121.19   12.50
  -7   1  10  123.39   13.30
  -7   1  10  115.49   13.70
   6  -1 -10   11.80    4.20
   6  -1 -10   10.30    3.20
   6  -1 -10    8.10    2.90
   6  -1 -10    7.00    3.50
  -6   1  10    7.20    2.80
  -6   1  10   12.10    5.00
   5  -1 -10  151.48   10.60
   5  -1 -10  155.58   11.80
   5  -1 -10  129.29    7.60
   5  -1 -10  141.69   12.40
   5  -1 -10  157.98   12.80
  -5   1  10  157.88   13.60
  -5   1  10  151.18   14.20
   4  -1 -10   23.50    5.10
   4  -1 -10   24.10    6.50
   4  -1 -10   31.30    5.40
   4  -1 -10   30.30    5.80
   4  -1 -10   32.80    5.90
  -4   1  10   32.40    6.30
  -4   1  10   41.60    7.40
   3  -1 -10    7.80    3.20
   3  -1 -10    3.00    2.50
   3  -1 -10    1.20    2.00
   3  -1 -10    0.00    1.80
  -3   1  10    3.80    2.20
   2  -1 -10   52.69    6.50
   2  -1 -10   36.90    5.60
   2  -1 -10   52.59    4.60
   2  -1 -10   49.20    7.00
  -2   1  10   44.60    7.10
  -2   1  10   46.60    6.20
   1  -1 -10  926.51   29.70
   1  -1 -10  873.41   26.80
   1  -1 -10  901.01   23.40
  -1   1  10  815.32   25.70
  -1   1  10  921.31   28.80
  -1   1  10  901.01   31.80
   0  -1 -10   98.79    7.20
   0  -1 -10  110.09    9.30
   0   1  10  102.79   10.10
   0   1  10  113.39   10.00
   0   1  10   99.69    7.30
   0   1  10  104.99    5.20
  -1  -1 -10  223.78   14.20
  -1  -1 -10  240.28   13.50
  -1  -1 -10  229.68   11.80
   1   1  10  239.48   14.80
   1   1  10  246.08   10.50
   1   1  10  229.98   14.40
   1   1  10  241.38   10.60
  -2  -1 -10  528.75   22.30
  -2  -1 -10  516.75   19.70
   2   1  10  482.95   18.90
   2   1  10  488.25   21.40
   2   1  10  519.95   14.50
   2   1  10  539.55   23.00
  -3  -1 -10   40.60    6.40
  -3  -1 -10   36.70    6.20
   3   1  10   36.30    6.50
   3   1  10   36.50    5.80
   3   1  10   39.00    5.90
   3   1  10   33.50    4.60
  -4  -1 -10  107.29   10.00
  -4  -1 -10  116.09   13.40
   4   1  10   99.09    8.80
   4   1  10  114.59   10.00
   4   1  10  124.39    9.80
   4   1  10   98.29   10.40
  -5  -1 -10  539.35   23.90
  -5  -1 -10  572.84   16.60
  -5  -1 -10  568.74   24.60
  -5  -1 -10  524.15   20.10
   5   1  10  483.65   22.90
   5   1  10  561.34   25.80
   5   1  10  535.05   20.60
   5   1  10  519.05   20.40
  -6  -1 -10  102.19    6.60
  -6  -1 -10  120.69   12.00
  -6  -1 -10   89.69   12.50
  -6  -1 -10   98.39   10.90
   6   1  10  110.69   11.70
   6   1  10  120.49    9.00
   6   1  10  113.49   11.90
   6   1  10  109.69    8.10
  -7  -1 -10    4.00    3.20
  -7  -1 -10    6.10    3.30
   7   1  10   13.30    5.00
   7   1  10   12.60    3.10
   7   1  10    5.50    4.20
   7   1  10   10.60    4.50
  -8  -1 -10   82.79   11.50
  -8  -1 -10   77.89   10.70
   8   1  10   61.99   10.30
   8   1  10   73.29   11.20
   8   1  10   89.49   11.40
   7  -2 -10  306.07   18.00
   7  -2 -10  324.47   16.70
   7  -2 -10  324.47   20.70
   7  -2 -10  299.27   20.30
  -7   2  10  302.17   20.30
  -7   2  10  336.47   22.70
   6  -2 -10   34.90    6.50
   6  -2 -10   16.20    4.60
   6  -2 -10   15.50    5.30
   6  -2 -10   18.40    4.60
  -6   2  10   19.40    5.10
  -6   2  10   15.30    5.10
   5  -2 -10  150.88   11.20
   5  -2 -10  158.18   15.30
   5  -2 -10  141.59    8.60
   5  -2 -10  153.78   13.00
   5  -2 -10  129.89   10.50
  -5   2  10  135.79   12.90
  -5   2  10  133.89    6.60
  -5   2  10  151.48   13.80
   4  -2 -10    6.90    3.10
   4  -2 -10   12.80    3.90
   4  -2 -10   23.30    5.10
   4  -2 -10    9.40    3.10
   4  -2 -10   17.80    4.40
  -4   2  10   16.20    5.30
  -4   2  10   11.30    4.20
   3  -2 -10  489.05   22.10
   3  -2 -10  461.35   18.20
   3  -2 -10  473.25   18.90
   3  -2 -10  479.25   20.40
   3  -2 -10  422.86   20.00
   3  -2 -10  467.05   15.70
  -3   2  10  420.76   22.60
  -3   2  10  486.35   23.10
   2  -2 -10  233.38   13.80
   2  -2 -10  205.98   10.30
   2  -2 -10  195.48   12.70
   2  -2 -10  204.28   11.50
  -2   2  10  211.08   14.70
  -2   2  10  218.68   14.70
   1  -2 -10   47.20    5.60
   1  -2 -10   52.99    6.80
   1  -2 -10   41.00    5.30
  -1   2  10   49.30    6.70
  -1   2  10   46.30    6.00
  -1   2  10   48.50    7.60
   0  -2 -10   77.09    7.60
   0  -2 -10   77.69    7.10
   0   2  10   73.89    6.40
   0   2  10   93.29    9.70
   0   2  10   74.49    8.30
  -1  -2 -10  472.55   21.50
  -1  -2 -10  499.55   18.90
  -1  -2 -10  456.25   18.60
   1   2  10  442.76   15.20
   1   2  10  458.25   21.00
   1   2  10  432.26   20.30
   1   2  10  466.55   14.90
  -2  -2 -10   84.99    8.20
  -2  -2 -10   84.79    7.90
  -2  -2 -10   94.99    9.40
   2   2  10   86.99    7.10
   2   2  10   77.79    5.10
   2   2  10   87.09    9.00
   2   2  10   86.49    9.30
  -3  -2 -10  733.13   27.70
  -3  -2 -10  707.03   25.90
   3   2  10  752.62   29.00
   3   2  10  740.23   22.70
   3   2  10  760.42   25.00
   3   2  10  730.73   26.50
   4   2  10   -0.10    1.70
   4   2  10    2.10    2.00
   4   2  10    0.80    2.20
   4   2  10   -0.10    1.80
  -5  -2 -10   98.79   10.40
  -5  -2 -10   96.49   10.10
   5   2  10   95.19   11.10
   5   2  10   95.79    7.20
   5   2  10   99.49    8.70
   5   2  10   93.99   10.00
   5   2  10  101.49   10.90
  -6  -2 -10  355.86   15.50
  -6  -2 -10  332.97   10.70
  -6  -2 -10  362.46   20.50
  -6  -2 -10  380.56   20.40
   6   2  10  335.17   12.90
   6   2  10  374.26   21.30
   6   2  10  366.76   16.30
   6   2  10  372.56   21.70
  -7  -2 -10  205.38   15.80
  -7  -2 -10  212.88   16.70
   7   2  10  199.68   16.20
   7   2  10  208.68   16.80
   7   2  10  246.58   17.50
  -8  -2 -10   29.30    7.30
  -8  -2 -10   22.40    5.80
   8   2  10   39.70    8.10
   8   2  10   19.90    6.00
   8   2  10   17.10    6.10
   7  -3 -10   64.79    9.70
   7  -3 -10   68.09   10.50
   7  -3 -10   86.69    9.60
   7  -3 -10   72.19   11.10
  -7   3  10   62.89   11.00
  -7   3  10   71.39   10.60
   6  -3 -10    5.00    3.30
   6  -3 -10   20.60    5.10
   6  -3 -10    4.80    3.90
   6  -3 -10    9.60    3.80
   6  -3 -10   11.10    3.80
  -6   3  10    3.90    3.70
  -6   3  10   13.30    5.00
   5  -3 -10  228.88   16.40
   5  -3 -10  204.68   12.90
   5  -3 -10  204.08   14.60
   5  -3 -10  200.48   13.70
   5  -3 -10  186.68   11.40
  -5   3  10  192.78   15.70
  -5   3  10  201.78   15.60
  -5   3  10  181.48   12.00
  -5   3  10  197.48   10.10
   4  -3 -10   62.79    7.90
   4  -3 -10   39.10    6.40
   4  -3 -10   51.39    7.10
   4  -3 -10   57.59    6.70
   4  -3 -10   55.59    8.50
  -4   3  10   68.29    9.50
  -4   3  10   56.49    8.50
  -4   3  10   46.90    5.40
   3  -3 -10  698.73   22.90
   3  -3 -10  703.63   28.30
   3  -3 -10  758.92   27.00
   3  -3 -10  702.53   26.50
   3  -3 -10  690.23   26.10
  -3   3  10  673.33   33.10
  -3   3  10  718.93   28.80
  -3   3  10  666.73   21.20
   2  -3 -10   66.19    6.30
   2  -3 -10   62.29    7.00
   2  -3 -10   63.79    6.70
  -2   3  10   73.19    9.00
  -2   3  10   64.29    6.30
  -2   3  10   58.29    7.80
   1  -3 -10   11.10    2.90
   1  -3 -10    6.50    2.70
   1  -3 -10    4.70    2.20
  -1   3  10    7.10    2.70
  -1   3  10    7.40    3.10
  -1   3  10    9.80    3.90
   0  -3 -10   90.99    8.10
   0  -3 -10   97.49    7.00
   0  -3 -10  103.69    8.80
   0   3  10  109.59    9.30
   0   3  10  114.99   10.10
   0   3  10   94.69    7.60
   0   3  10  101.29   10.00
  -1  -3 -10  286.17   16.50
  -1  -3 -10  291.47   15.00
  -1  -3 -10  285.17   14.20
   1   3  10  285.47   16.70
   1   3  10  303.27   16.80
   1   3  10  278.47   11.90
   1   3  10  289.07   14.60
  -2  -3 -10  245.88   14.20
  -2  -3 -10  255.77   15.40
  -2  -3 -10  239.88   12.80
   2   3  10  250.87   15.70
   2   3  10  245.28   12.20
   2   3  10  245.58    9.70
   2   3  10  267.67   15.60
  -3  -3 -10  502.75   21.80
  -3  -3 -10  532.65   23.00
   3   3  10  475.15   16.60
   3   3  10  505.25   23.50
   3   3  10  483.15   19.40
   3   3  10  497.25   21.80
  -4  -3 -10  315.17   22.90
  -4  -3 -10  357.76   18.80
   4   3  10  350.56   17.50
   4   3  10  358.46   25.80
   4   3  10  329.87   12.70
   4   3  10  358.16   17.70
  -5  -3 -10   19.10    5.20
  -5  -3 -10   15.10    4.10
   5   3  10   18.40    4.50
   5   3  10   18.30    3.50
   5   3  10   18.30    4.70
   5   3  10   12.50    5.20
   5   3  10   24.40    5.60
  -6  -3 -10   -1.80    2.60
  -6  -3 -10    1.70    2.60
   6   3  10    1.00    2.60
   6   3  10   -2.30    3.20
   6   3  10    1.50    3.10
  -7  -3 -10  397.36   21.60
  -7  -3 -10  369.16   22.40
   7   3  10  404.46   22.70
   7   3  10  439.86   24.10
   7   3  10  386.26   23.50
   6  -4 -10  137.29   12.20
   6  -4 -10  176.98   14.90
   6  -4 -10  139.19   12.60
  -6   4  10  150.88   14.90
  -6   4  10  154.08   13.90
   5  -4 -10  436.36   23.90
   5  -4 -10  406.46   21.00
   5  -4 -10  386.56   18.30
   5  -4 -10  398.46   17.40
   5  -4 -10  423.26   21.30
  -5   4  10  435.86   24.00
  -5   4  10  377.56   16.30
  -5   4  10  403.16   13.90
  -5   4  10  400.56   22.40
   4  -4 -10   39.00    6.50
   4  -4 -10   20.40    5.50
   4  -4 -10   33.20    5.40
   4  -4 -10   40.20    6.90
   4  -4 -10   49.20    7.00
  -4   4  10   26.10    3.70
  -4   4  10   40.50    7.80
  -4   4  10   19.20    5.00
  -4   4  10   31.80    5.40
   3  -4 -10   37.10    5.00
   3  -4 -10   36.90    6.20
   3  -4 -10   42.20    6.30
   3  -4 -10   41.20    7.20
  -3   4  10   37.70    6.80
  -3   4  10   29.20    5.40
  -3   4  10   44.40    7.90
   2  -4 -10  564.74   21.80
   2  -4 -10  566.94   24.20
   2  -4 -10  552.94   17.80
   2  -4 -10  567.74   21.90
  -2   4  10  527.45   23.30
  -2   4  10  506.95   19.90
   1  -4 -10  631.14   23.30
   1  -4 -10  569.44   17.70
   1  -4 -10  595.74   21.80
  -1   4  10  582.44   23.50
  -1   4  10  586.64   25.80
  -1   4  10  545.45   21.30
   0  -4 -10    5.70    2.60
   0  -4 -10    9.70    2.30
   0  -4 -10    6.20    2.50
   0   4  10    9.60    2.50
   0   4  10    4.20    2.80
   0   4  10    8.70    3.20
  -1  -4 -10  185.08   12.50
  -1  -4 -10  173.88   10.70
   1   4  10  177.68   13.30
   1   4  10  178.78    9.80
   1   4  10  167.98   10.70
  -2  -4 -10    3.70    2.70
  -2  -4 -10    2.50    1.80
  -2  -4 -10    9.00    3.90
   2   4  10    1.90    1.50
   2   4  10    5.80    3.20
   2   4  10    0.10    1.70
   2   4  10    0.30    1.50
  -3  -4 -10   11.10    3.50
  -3  -4 -10   21.10    5.10
  -3  -4 -10   20.30    4.30
   3   4  10   18.10    2.60
   3   4  10   14.00    3.10
   3   4  10   22.50    5.40
   3   4  10   23.90    3.80
   3   4  10   11.90    3.90
  -4  -4 -10   39.90    7.00
  -4  -4 -10   43.50    6.80
   4   4  10   39.60    6.90
   4   4  10   32.70    6.40
   4   4  10   37.60    7.00
   4   4  10   48.00    6.40
   4   4  10   31.80    3.60
  -5  -4 -10  167.88   13.70
  -5  -4 -10  134.39   11.80
   5   4  10  115.99   10.50
   5   4  10  132.89   12.70
   5   4  10  145.99   14.10
  -6  -4 -10    5.60    3.20
  -6  -4 -10    2.70    2.50
   6   4  10    2.80    3.20
   6   4  10    3.30    2.90
   6   4  10    1.00    2.60
  -7  -4 -10    9.40    2.80
  -7  -4 -10    1.30    2.70
   7   4  10    3.60    3.60
   7   4  10   -1.30    2.80
   7   4  10   11.70    4.70
   6  -5 -10   79.49   10.00
   6  -5 -10   85.49   10.60
   6  -5 -10   72.79   11.50
  -6   5  10   93.59   11.90
  -6   5  10   81.19   11.10
   5  -5 -10   33.10    6.50
   5  -5 -10   30.20    6.80
   5  -5 -10   38.40    9.00
  -5   5  10   37.00    8.40
  -5   5  10   35.30    6.10
  -5   5  10   20.60    5.40
   4  -5 -10  794.82   31.50
   4  -5 -10  785.32   28.70
   4  -5 -10  845.32   29.90
   4  -5 -10  816.22   33.80
  -4   5  10  775.32   31.90
  -4   5  10  832.12   33.40
  -4   5  10  753.92   18.60
   3  -5 -10   48.10    4.90
   3  -5 -10   62.19    7.80
   3  -5 -10   42.50    8.30
   3  -5 -10   60.29    7.20
  -3   5  10   49.00    8.20
  -3   5  10   70.19    9.80
   2  -5 -10   33.60    5.10
   2  -5 -10   29.90    6.60
   2  -5 -10   33.80    3.90
   2  -5 -10   32.60    6.30
  -2   5  10   17.60    4.70
  -2   5  10   28.40    6.00
   1  -5 -10  236.88   14.90
   1  -5 -10  223.68    8.90
   1  -5 -10  234.58   12.60
  -1   5  10  243.08   14.70
  -1   5  10  213.08   15.60
   0  -5 -10  768.92   28.20
   0  -5 -10  724.13   18.10
   0  -5 -10  748.83   23.70
   0   5  10  729.83   25.50
   0   5  10  758.42   38.00
  -1  -5 -10   13.00    4.50
  -1  -5 -10    3.30    2.50
  -1  -5 -10    9.20    2.10
   1   5  10   11.60    3.70
   1   5  10    9.40    3.30
  -2  -5 -10  189.38   10.60
  -2  -5 -10  209.78   14.40
  -2  -5 -10  187.78   11.40
   2   5  10  204.48   14.30
   2   5  10  216.08   16.00
  -3  -5 -10    1.90    2.60
  -3  -5 -10    4.80    3.20
  -3  -5 -10    6.10    2.50
  -3  -5 -10    7.40    3.80
   3   5  10    5.00    1.80
   3   5  10    6.80    3.70
   3   5  10    4.00    1.60
   3   5  10    5.40    1.60
   3   5  10    4.80    2.90
  -4  -5 -10   -0.10    1.90
  -4  -5 -10   -1.20    2.00
  -4  -5 -10   -1.90    1.30
   4   5  10   -2.20    2.20
   4   5  10   -4.10    1.90
   4   5  10   -2.30    1.60
  -5  -5 -10    0.10    2.30
  -5  -5 -10    0.10    2.00
  -5  -5 -10   -1.90    2.40
   5   5  10   -5.80    2.30
   5   5  10    0.50    2.50
  -6  -5 -10  104.49   10.60
  -6  -5 -10  104.99   12.10
   6   5  10   98.29   11.60
   6   5  10  101.59   12.70
  -7  -5 -10    8.70    4.60
  -7  -5 -10    9.40    4.00
   7   5  10    4.10    2.60
   7   5  10   16.40    5.60
   7   5  10    8.20    4.50
   5  -6 -10   37.60    7.80
   5  -6 -10   34.90    7.00
   5  -6 -10   20.70    5.80
  -5   6  10   36.60    8.40
  -5   6  10   23.50    6.70
   4  -6 -10   79.99   10.30
   4  -6 -10   97.09   10.90
   4  -6 -10  114.39   12.80
   4  -6 -10  110.89   10.00
  -4   6  10   99.79   11.30
  -4   6  10  102.19   11.70
   3  -6 -10   78.19    7.90
   3  -6 -10   85.99    9.60
   3  -6 -10   96.19   11.10
  -3   6  10   85.89   10.10
  -3   6  10   77.69    9.60
   2  -6 -10   41.40    5.90
   2  -6 -10   60.59    8.20
   2  -6 -10   52.59    8.80
  -2   6  10   68.29    9.00
  -2   6  10   55.39    7.90
   1  -6 -10    3.60    3.10
   1  -6 -10    7.00    3.00
   1  -6 -10    9.10    3.20
  -1   6  10    5.00    2.60
  -1   6  10    6.00    4.20
   0  -6 -10  260.17   10.80
   0  -6 -10  292.17   17.60
   0  -6 -10  266.77   12.80
   0   6  10  279.07   21.20
   0   6  10  271.37   14.40
   0   6  10  283.37   18.00
  -1  -6 -10    6.60    2.60
  -1  -6 -10    9.80    3.90
  -1  -6 -10   13.40    3.20
   1   6  10   12.50    3.30
   1   6  10   11.40    4.60
   1   6  10   11.40    4.30
  -2  -6 -10  141.89    8.50
  -2  -6 -10  135.69   10.20
   2   6  10  148.09   13.40
   2   6  10  156.18   13.30
   2   6  10  141.99    8.40
  -3  -6 -10   16.90    4.80
  -3  -6 -10   17.10    3.90
  -3  -6 -10   17.20    4.50
   3   6  10   15.40    2.90
   3   6  10   16.50    4.60
   3   6  10   15.80    5.50
  -4  -6 -10   76.79    8.70
  -4  -6 -10   53.29    5.00
  -4  -6 -10   61.59    5.90
  -4  -6 -10   69.19    9.70
   4   6  10   67.99    9.90
   4   6  10   63.09    4.80
  -5  -6 -10  124.19   12.80
  -5  -6 -10  111.79    7.80
  -5  -6 -10  113.59   11.00
   5   6  10  104.69   12.90
  -6  -6 -10   79.99    9.90
  -6  -6 -10   95.79   12.00
   6   6  10  102.69   12.80
   5  -7 -10    0.00    3.00
   5  -7 -10   -0.60    3.30
  -5   7  10    3.40    3.60
  -5   7  10   -1.90    2.60
  -5   7  10   -1.00    3.00
   4  -7 -10   -0.80    2.80
   4  -7 -10    2.00    2.80
   4  -7 -10   -3.20    2.40
  -4   7  10    3.50    3.90
  -4   7  10   -2.50    2.80
   3  -7 -10   27.30    5.60
   3  -7 -10   17.70    5.30
   3  -7 -10   23.50    6.50
  -3   7  10   28.80    6.60
  -3   7  10   20.80    6.30
  -3   7  10   21.10    8.40
   2  -7 -10  128.39    9.30
   2  -7 -10  146.19   13.30
   2  -7 -10  117.59   12.80
  -2   7  10  121.19   12.50
  -2   7  10  142.59   11.90
  -2   7  10  127.29   12.20
   1  -7 -10   16.40    5.60
   1  -7 -10   12.40    4.80
   1  -7 -10    8.90    2.10
   1  -7 -10   14.80    3.40
  -1   7  10   12.30    5.10
  -1   7  10    7.70    3.40
  -1   7  10   17.20    4.40
   0  -7 -10    7.70    2.80
   0  -7 -10    9.30    2.50
   0  -7 -10    4.80    3.30
   0  -7 -10   10.10    4.00
   0   7  10   10.60    4.20
   0   7  10    2.30    2.20
   0   7  10   10.00    3.60
  -1  -7 -10   87.89   10.70
  -1  -7 -10   99.59    8.10
  -1  -7 -10   87.19    6.50
   1   7  10   93.79   10.90
   1   7  10  105.49   12.00
   1   7  10   91.59    7.80
  -2  -7 -10  231.38    9.70
  -2  -7 -10  238.18   17.20
   2   7  10  227.78   17.30
  -3  -7 -10   78.19    5.60
  -3  -7 -10   80.89   10.70
   3   7  10   74.19    6.40
   3   7  10   69.19   10.70
  -4  -7 -10  333.07   21.20
  -4  -7 -10  322.87   11.40
   4   7  10  327.57   22.10
  -5  -7 -10   13.10    2.70
  -5  -7 -10   12.30    3.70
  -5  -7 -10   20.30    6.50
   5   7  10    6.70    5.00
   3  -8 -10   -0.60    3.10
   3  -8 -10    2.00    3.70
  -3   8  10    1.40    2.80
  -3   8  10   -0.20    3.40
  -3   8  10    2.70    3.40
   2  -8 -10    9.50    4.30
   2  -8 -10    7.10    3.80
  -2   8  10    3.40    3.80
  -2   8  10   11.30    3.70
  -2   8  10    8.00    4.30
   1  -8 -10  348.87   21.70
   1  -8 -10  284.77   15.40
   1  -8 -10  349.57   21.70
  -1   8  10  374.06   22.70
  -1   8  10  363.66   18.00
  -1   8  10  361.76   21.40
   0  -8 -10   -1.00    2.80
   0  -8 -10    3.70    3.10
   0  -8 -10   -1.20    2.40
   0   8  10    0.40    3.00
   0   8  10   -2.30    2.20
  -1  -8 -10   -4.50    1.50
  -1  -8 -10    9.40    5.10
  -1  -8 -10    6.80    4.70
   1   8  10   -1.70    2.90
   1   8  10   -1.00    1.90
  -2  -8 -10   23.00    6.30
   2   8  10   15.60    6.00
  -3  -8 -10   12.80    4.90
   3   8  10   24.60    5.10
   3   8  10   17.70    5.60
  -4  -8 -10   25.80    6.60
   4   8  10   23.70    8.20
   1  -9 -10  126.99   13.80
   1  -9 -10  107.49   12.60
  -1   9  10  113.69   10.50
  -1   9  10  107.79   12.00
   0  -9 -10   45.10    9.20
   0  -9 -10   38.50    8.50
   0   9  10   43.40    8.50
  -1  -9 -10  103.89   13.10
  -1  -9 -10  107.29   12.80
   1   9  10   97.79   12.40
  -2  -9 -10    1.70    3.60
  -2  -9 -10   -6.10    2.40
   2   9  10    2.40    3.60
   1   6 -11  171.98   14.10
   1   6 -11  176.28   15.10
   1   6 -11  199.58   13.30
   1   6 -11  174.98   15.30
  -1  -6  11  182.48   16.20
  -1  -6  11  185.38   13.70
   0   6 -11    3.70    3.10
   0   6 -11    0.30    2.50
   0   6 -11    7.30    2.80
   0  -6  11   -0.80    2.40
   0  -6  11   -1.40    2.50
  -1   6 -11   52.69    7.30
  -1   6 -11   41.50    7.30
  -1   6 -11   47.10    8.90
  -1   6 -11   61.59    8.10
   1  -6  11   56.29    9.00
   1  -6  11   61.49    9.30
  -2   6 -11   54.19    8.10
  -2   6 -11   53.39    8.60
  -2   6 -11   64.69    9.80
  -2   6 -11   65.69    7.80
   2  -6  11   68.39   10.30
   2  -6  11   62.39    9.50
   2  -6  11   51.09    9.00
   3   5 -11   14.60    4.30
   3   5 -11   14.40    4.70
   3   5 -11   25.00    6.70
  -3  -5  11   22.00    5.10
  -3  -5  11   19.70    5.90
   2   5 -11    8.20    4.30
   2   5 -11    2.50    3.00
  -2  -5  11    7.70    3.20
  -2  -5  11    4.70    3.90
   1   5 -11   60.49    9.20
   1   5 -11   43.40    6.30
  -1  -5  11   48.40    7.50
  -1  -5  11   49.20    9.50
   0   5 -11  144.29   12.90
   0   5 -11  131.39   10.00
   0  -5  11  140.09   12.20
   0  -5  11  141.19   13.70
  -1   5 -11   -2.30    1.70
  -1   5 -11   -2.70    1.30
  -1   5 -11   -0.80    2.50
  -1   5 -11    6.30    2.60
  -1   5 -11    6.50    3.90
  -1   5 -11   -0.40    2.30
   1  -5  11   -0.50    2.30
   1  -5  11    3.40    2.60
   1  -5  11    0.70    2.90
  -2   5 -11   72.29    7.80
  -2   5 -11   66.79    7.40
  -2   5 -11   68.49    9.30
  -2   5 -11   76.19    8.60
   2  -5  11   70.79    9.50
   2  -5  11   69.89    9.50
   2  -5  11   63.89    9.80
  -3   5 -11  237.08   12.90
  -3   5 -11  254.97   14.30
  -3   5 -11  268.87   16.50
   3  -5  11  270.37   19.30
   3  -5  11  247.98   16.40
   3  -5  11  270.27   18.30
  -4   5 -11   24.80    6.10
   4  -5  11   38.10    8.00
   4  -5  11   29.00    7.30
   4  -5  11   23.90    5.60
   4   4 -11   75.09   10.80
   4   4 -11   59.79    9.40
   4   4 -11   71.99    8.20
  -4  -4  11   70.99    6.70
  -4  -4  11   51.39    9.40
   3   4 -11  116.39    9.90
   3   4 -11  109.29   11.70
   3   4 -11  121.19   12.40
  -3  -4  11  104.49    9.10
  -3  -4  11  131.39   13.50
   2   4 -11   98.09   11.00
   2   4 -11   77.79    7.40
   2   4 -11   92.99   10.60
   2   4 -11   81.29    8.20
  -2  -4  11   92.19   11.40
  -2  -4  11   84.29    8.70
   1   4 -11   -1.90    2.60
   1   4 -11   -2.70    2.50
   1   4 -11   -0.80    1.90
  -1  -4  11    0.00    1.90
  -1  -4  11    0.90    3.10
   0   4 -11  223.58   12.30
   0   4 -11  217.88   15.40
   0  -4  11  237.38   14.40
   0  -4  11  199.18   14.30
   0  -4  11  253.37   17.50
  -1   4 -11   26.70    4.40
  -1   4 -11   23.60    5.90
  -1   4 -11   12.70    5.80
  -1   4 -11   30.20    4.90
   1  -4  11   18.80    4.90
   1  -4  11   32.00    6.70
   1  -4  11   18.40    4.90
  -2   4 -11    8.90    2.80
  -2   4 -11    2.90    2.60
  -2   4 -11    5.40    2.20
  -2   4 -11    7.20    3.10
   2  -4  11    7.00    3.40
   2  -4  11    6.50    3.40
   2  -4  11   10.10    4.20
  -3   4 -11   12.50    4.40
  -3   4 -11   15.40    4.10
   3  -4  11   16.70    5.60
  -4   4 -11  168.58   12.80
  -4   4 -11  187.78   14.20
   4  -4  11  175.68   12.70
   4  -4  11  184.18   15.90
   4  -4  11  166.18   14.50
  -5   4 -11    5.60    3.40
  -5   4 -11   -7.30    2.60
   5  -4  11   -2.90    3.30
   5  -4  11    2.80    2.30
   5  -4  11   -0.20    2.50
   5   3 -11   39.70    8.30
   5   3 -11   43.40    9.10
   5   3 -11   27.00    5.90
  -5  -3  11   46.80    8.80
   4   3 -11  124.19   12.20
   4   3 -11  144.89   13.70
   4   3 -11  120.29   10.00
  -4  -3  11  129.79   14.20
   3   3 -11    4.20    2.20
   3   3 -11   -0.80    2.50
   3   3 -11   -0.30    1.30
   3   3 -11   -1.00    1.50
   3   3 -11    2.30    2.40
   3   3 -11    0.10    2.60
  -3  -3  11    0.40    2.00
  -3  -3  11   -3.60    1.80
  -3  -3  11    1.40    2.70
  -3  -3  11    0.70    1.70
   2   3 -11  220.48   15.80
   2   3 -11  232.48   15.50
   2   3 -11  214.38   12.20
   2   3 -11  247.48   16.00
  -2  -3  11  243.18   13.90
  -2  -3  11  282.17   18.60
  -2  -3  11  221.68   10.90
   1   3 -11   19.80    5.30
   1   3 -11   10.80    3.00
  -1  -3  11   19.20    4.30
  -1  -3  11   21.40    5.10
  -1  -3  11   11.40    4.20
   0   3 -11   19.50    3.20
   0   3 -11   10.90    3.60
   0   3 -11   22.70    4.40
   0  -3  11   13.50    3.80
   0  -3  11   18.20    5.00
   0  -3  11   23.00    5.20
  -1   3 -11   -0.30    2.20
  -1   3 -11    1.10    1.90
  -1   3 -11   -1.60    4.20
  -1   3 -11   -0.10    1.90
  -1   3 -11   -1.80    1.30
   1  -3  11    1.20    2.80
   1  -3  11   -0.60    2.10
   1  -3  11    2.50    2.50
  -2   3 -11  323.57   17.70
  -2   3 -11  274.97   13.70
  -2   3 -11  285.67   11.50
  -2   3 -11  299.77   13.40
  -2   3 -11  273.27   12.50
   2  -3  11  288.47   17.30
   2  -3  11  276.27   16.40
   2  -3  11  308.97   18.80
  -3   3 -11   55.99    7.80
  -3   3 -11   71.99    7.80
  -3   3 -11   49.80    6.20
   3  -3  11   55.19    7.60
   3  -3  11   64.49    8.30
   3  -3  11   81.39   10.10
  -4   3 -11   16.50    4.60
  -4   3 -11   18.80    4.70
   4  -3  11   32.10    7.30
   4  -3  11   28.50    6.60
   4  -3  11   18.30    5.00
  -5   3 -11    6.40    3.30
  -5   3 -11   12.30    4.00
   5  -3  11    4.30    3.40
   5  -3  11    8.20    4.20
   5  -3  11    6.10    3.30
  -6   3 -11   18.30    5.00
  -6   3 -11   17.70    5.30
   6  -3  11   38.50    8.40
   6  -3  11   26.80    6.80
   5   2 -11    4.80    3.80
   5   2 -11    3.80    2.70
   5   2 -11    2.40    3.30
  -5  -2  11    7.00    4.60
   4   2 -11  161.48   10.70
   4   2 -11  171.78   14.10
   4   2 -11  159.38    9.20
   4   2 -11  182.38   11.30
   4   2 -11  177.68   14.90
  -4  -2  11  170.48   14.20
  -4  -2  11  194.78   16.00
   3   2 -11    5.60    2.50
   3   2 -11    6.10    3.30
   3   2 -11    6.10    2.90
   3   2 -11    2.90    2.90
   3   2 -11    2.60    2.50
   3   2 -11    5.30    2.60
  -3  -2  11    1.40    2.60
  -3  -2  11    5.50    2.60
   2   2 -11   37.40    7.40
   2   2 -11   34.20    6.60
   2   2 -11   22.40    5.30
   2   2 -11   36.20    4.90
  -2  -2  11   31.40    6.80
  -2  -2  11   36.60    6.00
  -2  -2  11   31.70    3.30
   1   2 -11  120.89    7.90
   1   2 -11  142.59   11.80
   1   2 -11  109.19    7.80
  -1  -2  11  127.49    7.70
  -1  -2  11  113.99   10.00
  -1  -2  11  125.19   12.20
   0   2 -11   60.69    7.90
   0   2 -11   73.69    8.80
   0   2 -11   69.19    6.00
   0  -2  11   62.49    8.10
   0  -2  11   82.09    9.90
  -1   2 -11   46.10    7.30
  -1   2 -11   41.80    4.70
  -1   2 -11   37.50    4.40
  -1   2 -11   35.10    7.60
   1  -2  11   33.30    5.10
   1  -2  11   38.40    6.00
   1  -2  11   51.59    7.60
   1  -2  11   46.50    7.30
  -2   2 -11  193.38    9.10
  -2   2 -11  192.98   10.40
  -2   2 -11  189.78   10.80
  -2   2 -11  199.08   13.90
   2  -2  11  180.98   13.50
   2  -2  11  188.18   12.70
   2  -2  11  190.78   15.10
  -3   2 -11   10.80    4.10
  -3   2 -11   11.40    3.70
  -3   2 -11    9.30    3.60
   3  -2  11   12.90    4.10
   3  -2  11    8.70    3.60
   3  -2  11    9.80    4.10
  -4   2 -11    0.80    2.20
  -4   2 -11    0.70    2.10
  -4   2 -11    1.70    3.30
   4  -2  11    1.60    2.30
   4  -2  11   -0.70    2.80
   4  -2  11    0.80    2.20
  -5   2 -11    0.10    2.70
  -5   2 -11    0.80    3.60
   5  -2  11   -1.20    2.30
   5  -2  11    2.10    2.60
   5  -2  11   -2.80    2.20
  -6   2 -11  102.89   11.50
  -6   2 -11  110.49   12.30
   6  -2  11  126.79   13.20
   6  -2  11  108.99   13.00
   6   1 -11   -0.90    2.00
   6   1 -11    6.20    3.90
   6   1 -11    3.10    2.90
   6   1 -11    5.70    3.40
  -6  -1  11   -0.20    3.30
  -6  -1  11    7.60    4.80
   5   1 -11  110.89   11.50
   5   1 -11  105.79   10.30
   5   1 -11   86.39   11.40
  -5  -1  11  114.69   12.70
   4   1 -11    5.10    2.60
   4   1 -11    2.20    2.90
   4   1 -11    5.80    3.00
   4   1 -11    2.90    2.80
  -4  -1  11    1.90    2.90
   3   1 -11  240.58   13.50
   3   1 -11  249.78   16.30
   3   1 -11  242.98   12.90
   3   1 -11  249.58   23.90
  -3  -1  11  236.88   12.60
  -3  -1  11  252.77   17.50
   2   1 -11   20.60    5.20
   2   1 -11   18.40    3.70
   2   1 -11    9.50    3.10
   2   1 -11   16.60    4.70
  -2  -1  11   22.20    4.90
  -2  -1  11   16.10    4.90
   1   1 -11  178.58    8.50
   1   1 -11  169.28   10.60
   1   1 -11  171.18   13.00
  -1  -1  11  193.48   14.60
  -1  -1  11  164.08    6.80
  -1  -1  11  157.98   11.50
   0   1 -11  171.68   13.00
   0   1 -11  168.68    7.70
   0   1 -11  173.28    7.90
   0  -1  11  191.28   15.10
   0  -1  11  175.88    9.30
   0  -1  11  179.28   12.70
   0  -1  11  165.08   10.30
  -1   1 -11  344.57   19.40
  -1   1 -11  322.27   10.50
  -1   1 -11  301.87   17.30
  -1   1 -11  316.17   13.00
   1  -1  11  306.57   13.10
   1  -1  11  324.97   17.60
   1  -1  11  321.57   14.40
   1  -1  11  328.07   18.30
  -2   1 -11    5.70    1.50
  -2   1 -11    4.90    2.30
  -2   1 -11    6.60    2.80
   2  -1  11    5.40    2.80
   2  -1  11    9.50    3.60
   2  -1  11    7.00    2.10
   2  -1  11    6.00    2.90
  -3   1 -11  269.17   14.90
  -3   1 -11  285.17   10.00
  -3   1 -11  304.27   15.40
  -3   1 -11  280.17   17.10
   3  -1  11  290.07   16.10
   3  -1  11  298.97   18.40
   3  -1  11  301.37   16.70
  -4   1 -11   81.69    9.10
  -4   1 -11   79.09    9.60
   4  -1  11   86.29   10.30
   4  -1  11   74.09    8.90
   4  -1  11   64.89    7.70
  -5   1 -11   -0.70    2.10
   5  -1  11    0.20    2.20
   5  -1  11   -0.30    4.50
   5  -1  11   -3.60    1.80
  -6   1 -11   45.30    8.60
  -6   1 -11   53.89    8.30
   6  -1  11   49.00    8.50
   6  -1  11   57.59    9.30
   6   0 -11    9.60    4.30
   6   0 -11    0.60    2.30
   6   0 -11   16.20    5.80
   6   0 -11    8.90    4.50
  -6   0  11    0.70    3.20
  -6   0  11    3.50    4.10
   5   0 -11  216.78   15.00
   5   0 -11  214.88   14.70
   5   0 -11  201.48   11.80
   5   0 -11  208.08   16.60
  -5   0  11  216.48   17.10
  -5   0  11  196.78   16.50
   4   0 -11   42.30    6.80
   4   0 -11   51.39    7.00
   4   0 -11   38.20    7.70
  -4   0  11   50.99    8.50
   3   0 -11  285.77   14.50
   3   0 -11  302.87   17.90
   3   0 -11  285.47   15.60
   3   0 -11  301.87   16.50
   3   0 -11  259.07   13.60
  -3   0  11  298.27   18.90
  -3   0  11  269.47   13.80
   2   0 -11  135.49   10.90
   2   0 -11  156.28   11.20
   2   0 -11  158.18   12.60
  -2   0  11  158.98   13.40
  -2   0  11  150.28   10.80
   1   0 -11  110.59    9.60
   1   0 -11  116.49    5.90
   1   0 -11  132.99   17.70
  -1   0  11  113.19    9.90
  -1   0  11  101.09   11.80
   0   0 -11   49.50    7.50
   0   0 -11   58.09    5.50
   0   0  11   43.40    5.60
   0   0  11   59.79    4.60
   0   0  11   60.09    7.70
   0   0  11   56.19    8.20
  -1   0 -11  736.03   27.10
  -1   0 -11  788.52   36.90
  -1   0 -11  708.73   22.10
   1   0  11  727.73   21.20
   1   0  11  718.33   21.60
   1   0  11  703.43   28.00
   1   0  11  694.23   27.40
  -2   0 -11    0.40    2.20
  -2   0 -11    0.20    1.80
  -2   0 -11    0.50    2.30
   2   0  11    8.30    3.30
   2   0  11    0.70    1.60
   2   0  11    0.90    1.40
   2   0  11    4.80    2.70
  -3   0 -11  141.99   10.40
  -3   0 -11  139.59   11.80
   3   0  11  125.49   15.70
   3   0  11  125.39   10.80
   3   0  11  119.49    9.90
  -4   0 -11   78.29    4.30
  -4   0 -11   83.49    9.80
  -4   0 -11   99.39    9.60
   4   0  11   83.59    8.50
   4   0  11   90.89    9.20
   4   0  11   73.19    9.80
  -5   0 -11  154.98   18.40
  -5   0 -11  135.59   12.60
  -5   0 -11  117.59    6.30
   5   0  11  123.19   11.40
   5   0  11  127.09   10.10
   5   0  11  163.58   14.40
  -6   0 -11   14.70    4.50
  -6   0 -11   17.30    5.30
   6   0  11    9.90    3.70
   6   0  11   20.90    4.70
   6   0  11    9.60    4.00
  -7   0 -11   44.80    8.10
  -7   0 -11   34.70    7.60
   7   0  11   44.20    8.40
   7   0  11   33.00    7.90
   7   0  11   25.20    6.70
   6  -1 -11    0.20    2.40
   6  -1 -11    5.20    2.40
   6  -1 -11   -1.30    2.60
   6  -1 -11    4.60    3.60
  -6   1  11    4.40    3.10
  -6   1  11    1.40    2.90
   5  -1 -11  166.98   11.70
   5  -1 -11  144.39   13.20
   5  -1 -11  123.59    9.30
   5  -1 -11  142.39   13.20
   5  -1 -11  135.29   11.40
  -5   1  11  144.09   14.30
  -5   1  11  138.29   13.90
   4  -1 -11    0.00    2.10
   4  -1 -11    2.50    3.10
   4  -1 -11   -1.50    2.10
   4  -1 -11   -1.60    2.90
   4  -1 -11   -0.90    2.20
  -4   1  11    3.80    3.20
  -4   1  11    2.90    2.60
   3  -1 -11    4.90    2.60
   3  -1 -11    3.80    2.80
   3  -1 -11    6.10    3.30
   3  -1 -11   -0.70    3.30
   3  -1 -11    6.60    3.00
  -3   1  11    7.50    4.10
  -3   1  11    6.40    3.40
   2  -1 -11   37.50    6.00
   2  -1 -11   33.40    3.70
   2  -1 -11   35.70    6.30
  -2   1  11   44.70    7.40
  -2   1  11   44.60    6.40
   1  -1 -11  508.25   16.40
   1  -1 -11  485.55   21.60
   1  -1 -11  508.65   20.20
  -1   1  11  434.96   27.50
  -1   1  11  532.15   21.90
   0  -1 -11   -1.90    2.00
   0   1  11    0.40    2.70
   0   1  11    0.30    1.60
   0   1  11    0.00    1.70
  -1  -1 -11  319.67   16.70
  -1  -1 -11  303.67   14.40
   1   1  11  351.26   18.50
   1   1  11  304.77   12.40
   1   1  11  317.17   18.10
   1   1  11  311.17   12.30
  -2  -1 -11    2.30    2.50
  -2  -1 -11    2.30    2.00
  -2  -1 -11    3.10    2.80
   2   1  11    0.30    1.80
   2   1  11    2.60    1.50
   2   1  11    1.30    2.30
   2   1  11   -0.40    1.60
  -3  -1 -11   69.29    7.70
  -3  -1 -11   49.99    7.60
   3   1  11   58.89    7.50
   3   1  11   51.29   10.40
   3   1  11   43.60    6.40
  -4  -1 -11    0.20    1.80
  -4  -1 -11   -3.10    1.70
   4   1  11    1.20    2.10
   4   1  11    3.20    2.70
   4   1  11    2.10    3.30
  -5  -1 -11  316.27   19.00
  -5  -1 -11  330.07   18.90
   5   1  11  318.17   18.40
   5   1  11  318.97   20.00
   5   1  11  293.37   14.50
   5   1  11  321.77   16.50
  -6  -1 -11    7.30    3.40
  -6  -1 -11    7.10    3.60
   6   1  11    9.40    5.00
   6   1  11   11.30    3.40
   6   1  11    5.80    3.10
   6   1  11   12.70    4.90
  -7  -1 -11   56.29    9.90
  -7  -1 -11   57.59   10.00
   7   1  11   55.19   10.00
   7   1  11   58.69    9.70
   7   1  11   54.69    9.20
   6  -2 -11   19.30    4.70
   6  -2 -11   14.30    4.70
   6  -2 -11   23.70    6.30
   6  -2 -11   31.20    6.50
  -6   2  11   36.10    8.60
  -6   2  11   17.50    6.10
   5  -2 -11    1.90    2.40
   5  -2 -11    0.10    2.40
   5  -2 -11    1.40    2.20
   5  -2 -11    0.20    2.30
  -5   2  11   -2.90    2.20
  -5   2  11   -1.30    2.70
   4  -2 -11   69.29    7.70
   4  -2 -11   78.59    9.00
   4  -2 -11   87.29    8.60
   4  -2 -11   81.99    9.60
  -4   2  11   64.19    9.80
  -4   2  11   79.49   10.00
   3  -2 -11   28.40    5.80
   3  -2 -11   28.70    5.30
   3  -2 -11   28.00    6.00
   3  -2 -11   17.90    4.30
  -3   2  11   19.90    5.40
  -3   2  11   27.00    6.20
   2  -2 -11   25.50    5.40
   2  -2 -11   18.60    4.10
   2  -2 -11   18.20    3.90
  -2   2  11   13.60    4.90
  -2   2  11   18.20    5.00
   1  -2 -11   47.70    6.10
   1  -2 -11   52.09    7.00
   1  -2 -11   64.29    8.20
  -1   2  11   61.69    7.50
  -1   2  11   63.89    8.90
   0  -2 -11   91.89    8.00
   0  -2 -11   93.59    8.70
   0   2  11   93.49    7.40
   0   2  11   95.49    9.50
   0   2  11   76.79    9.50
  -1  -2 -11  181.68   12.10
  -1  -2 -11  177.18   11.20
  -1  -2 -11  161.78   12.70
   1   2  11  166.68   12.90
   1   2  11  152.28   12.40
   1   2  11  159.48    8.60
  -2  -2 -11  183.68   13.60
  -2  -2 -11  163.08   11.50
  -2  -2 -11  186.38   12.00
   2   2  11  185.98   13.60
   2   2  11  160.48    7.70
   2   2  11  178.98   10.90
   2   2  11  184.28   14.00
  -3  -2 -11  269.27   15.50
  -3  -2 -11  298.87   17.60
   3   2  11  263.57   17.40
   3   2  11  253.77   13.00
   3   2  11  273.37   16.10
   3   2  11  264.57   14.10
  -4  -2 -11   12.40    4.10
  -4  -2 -11    9.80    3.50
   4   2  11   11.40    3.40
   4   2  11    8.00    3.30
   4   2  11   10.10    3.60
   4   2  11   10.70    3.80
  -5  -2 -11  124.09   12.20
  -5  -2 -11  109.09   11.10
   5   2  11   95.09   11.10
   5   2  11   93.09   10.00
   5   2  11  112.89    7.70
   5   2  11  108.39    9.80
   5   2  11  101.79   12.00
  -6  -2 -11  123.39   12.50
  -6  -2 -11  132.29   12.90
   6   2  11  100.19   11.40
   6   2  11  109.89   12.50
   6   2  11  118.79   13.40
   6   2  11  114.09    9.70
  -7  -2 -11  101.69   11.70
  -7  -2 -11   96.89   12.10
   7   2  11   91.49   11.40
   7   2  11  108.29   12.60
   7   2  11  108.79   12.90
   6  -3 -11  127.89   11.60
   6  -3 -11   96.89   10.00
   6  -3 -11  129.59   13.80
   6  -3 -11  133.59   13.90
  -6   3  11  127.49   13.70
  -6   3  11  135.19   14.80
   5  -3 -11   40.20    6.90
   5  -3 -11   22.60    5.60
   5  -3 -11   41.20    6.40
   5  -3 -11   34.10    8.10
  -5   3  11   44.20    8.40
  -5   3  11   42.40    8.30
   4  -3 -11   79.59    9.30
   4  -3 -11   86.89   10.50
   4  -3 -11   77.99    7.80
   4  -3 -11   74.79    9.20
  -4   3  11   79.39   10.70
  -4   3  11   91.29   11.10
   3  -3 -11  167.48   12.80
   3  -3 -11  139.29   13.70
   3  -3 -11  190.88   11.10
   3  -3 -11  178.38   11.30
   3  -3 -11  166.68   16.70
  -3   3  11  168.78   14.60
  -3   3  11  169.78   13.90
   2  -3 -11  100.59    8.30
   2  -3 -11  126.59    9.40
   2  -3 -11  114.29   10.00
  -2   3  11  103.69   11.30
  -2   3  11  126.19   11.70
   1  -3 -11    3.90    2.90
   1  -3 -11    7.90    3.00
   1  -3 -11    4.90    2.60
  -1   3  11    5.20    2.60
  -1   3  11    6.20    3.60
   0  -3 -11  260.07   14.40
   0  -3 -11  244.98   13.80
   0  -3 -11  254.37   12.30
   0   3  11  264.27   15.70
   0   3  11  235.48   18.80
   0   3  11  258.87   12.70
   0   3  11  276.07   15.70
  -1  -3 -11   48.00    6.80
  -1  -3 -11   42.30    6.20
   1   3  11   38.50    7.10
   1   3  11   47.50    7.30
   1   3  11   55.29    5.40
   1   3  11   52.69    6.90
  -2  -3 -11   46.20    6.20
  -2  -3 -11   65.39    8.20
  -2  -3 -11   46.90    7.10
   2   3  11   50.29    4.80
   2   3  11   45.70    9.40
   2   3  11   42.50    7.30
   2   3  11   48.10    6.40
  -3  -3 -11  113.09   10.50
  -3  -3 -11  102.29   10.60
  -3  -3 -11  119.39    9.70
   3   3  11  112.09   11.70
   3   3  11  119.59   11.10
   3   3  11   98.69    8.60
  -4  -3 -11  310.37   18.50
   4   3  11  299.97   16.90
   4   3  11  318.67   16.80
   4   3  11  328.17   20.10
   4   3  11  298.07   12.70
  -5  -3 -11    0.90    2.00
  -5  -3 -11    0.20    2.60
   5   3  11    5.40    3.70
   5   3  11    1.80    2.60
   5   3  11    3.70    3.30
   5   3  11    2.10    2.00
   5   3  11   -1.60    3.10
   5   3  11   -2.00    1.30
  -6  -3 -11   41.70    8.00
  -6  -3 -11   39.80    8.10
   6   3  11   45.50    8.10
   6   3  11   54.09    9.60
   6   3  11   43.30    9.50
   5  -4 -11   51.39    8.40
   5  -4 -11   64.69    9.90
   5  -4 -11   60.89    8.30
   5  -4 -11   57.69    6.80
  -5   4  11   61.69    9.80
  -5   4  11   72.39   10.70
   4  -4 -11  123.19    9.60
   4  -4 -11  157.68   14.40
   4  -4 -11  127.29   11.80
   4  -4 -11  135.19   12.20
  -4   4  11  128.49   11.90
  -4   4  11  140.69   13.40
  -4   4  11  139.99   13.80
   3  -4 -11    2.40    3.70
   3  -4 -11    8.50    4.60
   3  -4 -11    5.30    2.80
   3  -4 -11    2.70    2.10
   3  -4 -11    5.10    3.30
  -3   4  11    9.70    4.50
  -3   4  11    6.60    4.00
  -3   4  11    6.70    3.10
   2  -4 -11  565.04   22.30
   2  -4 -11  573.04   23.40
   2  -4 -11  651.33   33.00
   2  -4 -11  577.44   19.20
  -2   4  11  573.74   25.50
  -2   4  11  510.45   20.70
  -2   4  11  597.44   27.50
   1  -4 -11   62.89    7.60
   1  -4 -11   48.20    7.20
   1  -4 -11   54.09    5.60
  -1   4  11   62.89    8.00
  -1   4  11   64.19    9.20
   0  -4 -11  129.99    8.20
   0  -4 -11  126.99    9.80
   0  -4 -11  123.79   10.40
   0   4  11  149.09   13.00
   0   4  11  147.79   11.30
   0   4  11  116.59   10.50
  -1  -4 -11   96.39    8.50
  -1  -4 -11  107.69   10.10
   1   4  11   98.69    8.20
   1   4  11  119.99    9.70
   1   4  11  112.89   11.40
  -2  -4 -11  303.07   18.20
  -2  -4 -11  294.67   16.90
  -2  -4 -11  315.37   15.10
   2   4  11  326.97   19.20
   2   4  11  293.07   22.70
   2   4  11  288.67   11.50
   2   4  11  312.37   14.80
  -3  -4 -11    1.90    2.20
  -3  -4 -11    4.10    2.90
  -3  -4 -11   -0.50    1.70
   3   4  11   -0.50    2.80
   3   4  11   -1.00    1.80
   3   4  11   -0.30    2.50
  -4  -4 -11  304.37   18.60
  -4  -4 -11  279.97   17.70
  -4  -4 -11  282.97   14.60
   4   4  11  290.37   16.10
   4   4  11  338.77   20.60
   4   4  11  294.57   17.40
   4   4  11  318.97   20.90
   4   4  11  271.97   11.10
  -5  -4 -11   13.20    4.20
  -5  -4 -11   30.40    6.90
   5   4  11   34.00    6.80
   5   4  11   21.80    6.10
   5   4  11   27.30    5.70
   5   4  11   20.40    5.90
  -6  -4 -11   12.40    4.00
  -6  -4 -11    5.10    3.40
   6   4  11    9.40    4.20
   6   4  11    9.50    5.10
   6   4  11   13.60    4.70
   5  -5 -11   48.70    9.80
   5  -5 -11   57.59    8.10
   5  -5 -11   40.60    8.10
  -5   5  11   32.50    7.60
  -5   5  11   34.50    8.30
   4  -5 -11  284.67   18.70
   4  -5 -11  263.67   16.00
   4  -5 -11  284.67   19.80
   4  -5 -11  291.97   17.10
  -4   5  11  276.27   19.10
  -4   5  11  254.87   18.90
   3  -5 -11    5.00    3.50
   3  -5 -11    6.10    3.10
   3  -5 -11    6.50    3.80
   3  -5 -11    6.80    3.10
   3  -5 -11    2.40    3.80
  -3   5  11   13.40    4.50
  -3   5  11    8.80    4.60
   2  -5 -11   16.60    4.70
   2  -5 -11   15.80    5.10
   2  -5 -11   13.30    2.70
   2  -5 -11   12.40    3.40
  -2   5  11   32.00   11.50
  -2   5  11    9.30    3.80
   1  -5 -11  175.58   11.70
   1  -5 -11  197.78    8.80
   1  -5 -11  192.88   13.80
  -1   5  11  184.38   15.60
  -1   5  11  186.38   13.50
   0  -5 -11   38.40    6.80
   0  -5 -11   30.80    3.80
   0  -5 -11   35.90    5.60
   0   5  11   31.40    7.10
   0   5  11   30.10    6.20
  -1  -5 -11    7.10    3.70
  -1  -5 -11    7.70    2.70
  -1  -5 -11    7.70    1.90
   1   5  11    9.50    2.90
   1   5  11    3.00    2.80
   1   5  11    8.80    3.50
  -2  -5 -11  117.59   13.50
  -2  -5 -11   92.59    7.90
   2   5  11  107.79   12.00
   2   5  11  110.49    7.20
   2   5  11  127.09    8.80
   2   5  11  103.29   10.80
  -3  -5 -11    6.40    2.60
  -3  -5 -11   14.30    4.40
  -3  -5 -11    8.10    3.60
   3   5  11   18.00    5.20
   3   5  11   11.10    2.40
   3   5  11    9.50    2.50
   3   5  11    9.00    4.60
  -4  -5 -11   23.70    6.00
  -4  -5 -11   23.60    6.50
  -4  -5 -11   17.60    3.70
   4   5  11   12.30    5.50
   4   5  11   15.40    4.50
  -5  -5 -11   63.99    7.00
  -5  -5 -11   76.09    9.70
  -5  -5 -11   71.49   10.10
   5   5  11   66.79   11.20
   5   5  11   72.39   10.60
  -6  -5 -11   46.30    8.40
  -6  -5 -11   41.60    9.30
   6   5  11   51.59    9.80
   6   5  11   44.50   10.20
   4  -6 -11   36.00    7.10
   4  -6 -11   40.60    9.50
   4  -6 -11   66.99    9.60
   4  -6 -11   45.60    8.80
  -4   6  11   48.40    9.50
  -4   6  11   28.60    6.40
   3  -6 -11  204.28   15.20
   3  -6 -11  223.68   13.60
   3  -6 -11  193.28   16.10
   3  -6 -11  229.98   18.10
  -3   6  11  214.78   17.20
  -3   6  11  200.68   15.20
   2  -6 -11   13.40    3.70
   2  -6 -11    3.90    3.00
   2  -6 -11    7.40    3.90
  -2   6  11    0.80    3.00
  -2   6  11    6.70    2.80
   1  -6 -11  141.39   12.40
   1  -6 -11  130.79   13.00
   1  -6 -11  106.59    8.70
  -1   6  11  120.59   10.90
  -1   6  11  135.89   13.30
   0  -6 -11  181.18   11.30
   0   6  11  189.68   15.60
   0   6  11  165.98   11.90
   0   6  11  196.08   15.80
  -1  -6 -11   47.00    8.00
  -1  -6 -11   61.29    6.60
   1   6  11   77.49   10.80
   1   6  11   50.49    8.50
   1   6  11   63.09    7.00
  -2  -6 -11    5.60    2.30
  -2  -6 -11    5.80    3.40
   2   6  11    3.80    3.10
   2   6  11    7.50    2.90
   2   6  11    7.60    3.70
   2   6  11    1.80    2.20
  -3  -6 -11  190.08   10.60
  -3  -6 -11  210.68   16.30
   3   6  11  205.18   17.50
   3   6  11  215.28   16.10
   3   6  11  191.18    9.90
  -4  -6 -11   -1.10    1.90
  -4  -6 -11    0.70    2.90
  -4  -6 -11   -4.00    1.60
   4   6  11    1.40    4.20
  -5  -6 -11    8.80    4.00
  -5  -6 -11    5.70    2.40
  -5  -6 -11   11.70    5.10
   5   6  11   12.00    6.00
   3  -7 -11  264.17   20.40
   3  -7 -11  269.07   18.60
   3  -7 -11  271.47   14.70
   3  -7 -11  260.77   18.90
  -3   7  11  239.18   17.10
  -3   7  11  270.97   18.30
  -3   7  11  248.08   19.20
   2  -7 -11   53.49    9.10
   2  -7 -11   48.60    8.40
   2  -7 -11   64.79    6.70
  -2   7  11   54.09    8.40
  -2   7  11   60.79    8.90
  -2   7  11   63.09   10.30
   1  -7 -11   21.80    5.60
   1  -7 -11   29.60    7.30
   1  -7 -11   12.00    3.70
  -1   7  11   19.00    4.70
  -1   7  11   32.90    8.00
  -1   7  11   25.30    7.50
   0  -7 -11   -1.40    1.70
   0  -7 -11    3.00    3.00
   0  -7 -11    0.60    3.30
   0   7  11    3.00    3.10
   0   7  11    1.90    2.30
   0   7  11    1.10    3.10
  -1  -7 -11  347.87   14.10
  -1  -7 -11  369.66   21.80
   1   7  11  365.26   16.00
   1   7  11  383.16   23.30
   1   7  11  367.76   22.30
  -2  -7 -11    4.10    3.80
  -2  -7 -11   -1.50    1.60
   2   7  11    0.80    2.90
   2   7  11    2.20    4.40
  -3  -7 -11  143.69    8.30
  -3  -7 -11  128.79   13.00
   3   7  11  129.59   14.80
  -4  -7 -11   15.00    5.80
  -4  -7 -11   12.70    2.80
   4   7  11    4.70    5.40
   1  -8 -11  186.08   15.60
   1  -8 -11  197.28   16.60
   1  -8 -11  158.38    9.70
  -1   8  11  202.38   17.30
  -1   8  11  157.88   14.60
   0  -8 -11   -0.70    3.20
   0  -8 -11   -0.30    2.40
   0   8  11    4.50    3.80
   0   8  11   11.30    3.70
   0   8  11    1.10    3.50
  -1  -8 -11   12.90    5.00
  -1  -8 -11   16.30    3.40
  -1  -8 -11   22.40    6.30
   1   8  11   34.60    8.50
  -2  -8 -11    0.30    3.30
   2   8  11    3.20    4.70
   2   8  11   -1.70    1.80
   2   4 -12   17.10    4.20
   2   4 -12   12.30    5.20
   2   4 -12   18.90    5.60
  -2  -4  12   17.90    5.80
  -2  -4  12   12.70    3.80
  -2  -4  12   25.00    5.80
   1   4 -12    2.90    2.90
   1   4 -12    2.40    3.30
   1   4 -12    7.10    3.90
  -1  -4  12    3.70    3.20
  -1  -4  12   -1.20    3.60
  -1  -4  12    4.50    3.70
   0   4 -12   51.89    6.20
   0   4 -12   55.69    9.30
   0  -4  12   58.89    7.80
   0  -4  12   59.19    8.40
   0  -4  12   59.79    9.90
  -1   4 -12    6.30    3.40
  -1   4 -12    8.50    3.10
  -1   4 -12    9.30    4.30
   1  -4  12    2.90    2.70
   1  -4  12   10.20    4.20
   1  -4  12   12.00    4.50
  -2   4 -12   -1.20    2.40
  -2   4 -12   -2.10    2.60
  -2   4 -12   -1.50    2.10
   2  -4  12   -0.70    2.70
   2  -4  12    1.00    2.50
   2  -4  12    0.40    3.30
  -3   4 -12   96.29   10.60
  -3   4 -12  105.19    8.60
   3  -4  12  113.79   12.90
   3  -4  12  112.89   11.80
   3  -4  12  119.39   11.90
   3   3 -12    0.60    1.60
   3   3 -12    2.40    3.40
   3   3 -12   -2.40    1.90
   3   3 -12   -4.10    2.40
   3   3 -12    2.30    1.90
  -3  -3  12   -1.80    2.70
  -3  -3  12    1.40    2.10
   2   3 -12   -0.50    3.10
   2   3 -12    5.10    2.10
   2   3 -12    2.00    3.50
  -2  -3  12   -0.70    3.00
  -2  -3  12    4.80    2.90
  -2  -3  12    2.50    2.00
   1   3 -12    8.40    4.00
   1   3 -12    7.30    2.60
   1   3 -12    0.70    2.50
  -1  -3  12    7.00    2.90
  -1  -3  12   11.00    3.20
  -1  -3  12    7.00    4.10
   0   3 -12    4.80    3.70
   0   3 -12    8.30    2.70
   0  -3  12    3.20    2.50
   0  -3  12    4.20    3.60
   0  -3  12    2.50    2.40
  -1   3 -12  107.19   11.50
  -1   3 -12  141.19    8.70
  -1   3 -12  116.79   12.10
   1  -3  12  111.89    9.80
   1  -3  12  120.79   12.40
   1  -3  12  125.49   12.20
  -2   3 -12    3.10    3.30
  -2   3 -12   -1.30    1.60
  -2   3 -12    3.40    3.20
  -2   3 -12    1.60    1.50
   2  -3  12    3.60    2.90
   2  -3  12    5.60    3.20
   2  -3  12    5.40    3.10
  -3   3 -12    2.80    2.00
  -3   3 -12    0.40    2.40
  -3   3 -12    0.30    2.50
   3  -3  12    0.80    3.10
   3  -3  12    1.50    2.50
   3  -3  12    2.30    3.00
  -4   3 -12   69.69    9.30
  -4   3 -12   70.99    8.60
   4  -3  12   72.59   10.80
   4  -3  12   78.69    9.20
   4  -3  12   64.09    9.10
   4   2 -12   72.39   10.80
   4   2 -12   91.29   11.00
  -4  -2  12   70.19   10.90
   3   2 -12  130.29    9.60
   3   2 -12  133.99   12.60
   3   2 -12  130.49   13.00
  -3  -2  12  119.79   10.00
  -3  -2  12  134.09   14.10
   2   2 -12   13.30    4.70
   2   2 -12    6.10    3.60
   2   2 -12   16.40    3.80
  -2  -2  12    7.00    3.40
  -2  -2  12   24.20    5.20
   1   2 -12  299.67   12.60
   1   2 -12  291.17   18.50
   1   2 -12  279.47   17.30
  -1  -2  12  318.97   20.10
  -1  -2  12  290.57   11.10
  -1  -2  12  311.77   17.10
   0   2 -12    1.50    2.80
   0  -2  12    5.00    2.60
   0  -2  12   10.50    4.60
   0  -2  12    7.60    3.10
  -1   2 -12  174.78    8.60
  -1   2 -12  159.78   13.40
  -1   2 -12  165.38   13.70
  -1   2 -12  142.39    9.20
   1  -2  12  141.59   13.10
   1  -2  12  177.38   13.90
   1  -2  12  152.88   10.70
  -2   2 -12   62.19    8.60
  -2   2 -12   42.10    8.00
  -2   2 -12   53.69    6.30
  -2   2 -12   49.50    4.90
   2  -2  12   46.50    7.90
   2  -2  12   56.89    8.70
   2  -2  12   56.69    7.40
  -3   2 -12   63.89   13.70
  -3   2 -12   55.89    7.00
  -3   2 -12   47.60    8.20
   3  -2  12   62.09    8.60
   3  -2  12   58.69    7.80
   3  -2  12   45.60    8.50
  -4   2 -12   48.10    7.40
  -4   2 -12   44.20    8.20
   4  -2  12   57.09    9.60
   4  -2  12   55.59    8.20
  -5   2 -12  170.08   14.80
  -5   2 -12  147.09   12.70
   5  -2  12  189.08   16.50
   5  -2  12  147.69   13.80
   5  -2  12  165.28   12.10
   4   1 -12   72.49    9.40
   4   1 -12  110.09   12.30
   4   1 -12   83.49    9.10
  -4  -1  12  116.99   13.40
   3   1 -12  401.66   22.40
   3   1 -12  375.66   20.30
   3   1 -12  398.86   17.30
   3   1 -12  370.66   17.30
  -3  -1  12  396.06   23.30
  -3  -1  12  386.36   17.20
   2   1 -12   12.30    3.90
   2   1 -12   15.00    5.40
   2   1 -12    9.50    3.60
  -2  -1  12   13.40    3.40
  -2  -1  12    9.20    4.50
   1   1 -12  281.07   14.20
   1   1 -12  271.87   17.50
   1   1 -12  267.57   16.20
   1   1 -12  281.47   10.50
  -1  -1  12  270.27   15.80
  -1  -1  12  282.87   19.00
   0   1 -12  112.69    5.90
   0   1 -12  113.09   10.90
   0  -1  12  118.69   11.10
   0  -1  12  113.89    7.10
   0  -1  12  116.19   11.80
  -1   1 -12  112.09    5.10
  -1   1 -12  130.49   12.10
  -1   1 -12  100.19   10.50
   1  -1  12  107.19    8.40
   1  -1  12  102.29    8.10
   1  -1  12  104.29   11.10
   1  -1  12  107.09   10.90
  -2   1 -12   21.30    4.80
  -2   1 -12   13.10    4.00
  -2   1 -12   12.40    4.00
   2  -1  12   21.70    5.20
   2  -1  12   27.80    6.60
   2  -1  12   29.20    6.30
  -3   1 -12  447.26   12.40
  -3   1 -12  494.25   24.00
  -3   1 -12  482.05   20.20
   3  -1  12  480.45   24.20
   3  -1  12  527.65   25.80
   3  -1  12  525.35   22.20
  -4   1 -12    6.20    2.00
  -4   1 -12    7.00    3.70
  -4   1 -12    6.10    3.10
   4  -1  12    0.20    2.30
   4  -1  12    7.30    3.40
   4  -1  12   11.40    3.30
  -5   1 -12   -2.40    2.10
  -5   1 -12    2.30    3.30
   5  -1  12   -3.00    2.40
   5  -1  12   -0.80    2.90
   5  -1  12   -0.20    3.30
   5   0 -12   -1.10    3.40
   5   0 -12    1.10    3.50
   5   0 -12    1.40    3.40
  -5   0  12   -1.50    3.40
  -5   0  12    6.30    4.30
   4   0 -12    3.50    3.50
   4   0 -12    0.90    3.10
   4   0 -12    5.50    3.50
   4   0 -12    7.40    3.80
  -4   0  12    8.40    4.40
  -4   0  12    3.50    3.70
   3   0 -12  102.39    9.90
   3   0 -12   97.09    9.40
   3   0 -12  100.39   11.40
   3   0 -12   91.39   10.20
  -3   0  12   90.69   11.70
   2   0 -12  285.57   16.10
   2   0 -12  303.87   25.00
   2   0 -12  328.07   19.20
  -2   0  12  304.57   20.00
  -2   0  12  331.17   16.90
   1   0 -12   44.40    6.70
   1   0 -12   42.50    7.60
  -1   0  12   40.60    7.80
  -1   0  12   43.60    6.60
   0   0 -12   81.39    9.40
   0   0 -12   54.09    5.30
   0   0  12   70.29    8.70
   0   0  12   71.89    9.80
  -1   0 -12  104.69    8.00
  -1   0 -12  110.39   10.70
  -1   0 -12   96.29   10.60
   1   0  12  104.39   14.10
   1   0  12   89.79    7.10
   1   0  12  113.69   11.50
   1   0  12   94.09   11.90
  -2   0 -12   -1.10    2.40
  -2   0 -12    2.80    2.40
  -2   0 -12    2.20    2.80
   2   0  12    5.50    2.50
   2   0  12    4.60    3.20
   2   0  12    3.50    1.90
   2   0  12    7.50    3.50
  -3   0 -12   23.70    5.60
  -3   0 -12   22.30    6.20
   3   0  12   18.00    5.00
   3   0  12   22.10    5.20
  -4   0 -12  151.78   13.40
  -4   0 -12  165.68   12.60
   4   0  12  152.68   12.50
   4   0  12  170.98   14.90
   4   0  12  158.28   12.40
  -5   0 -12   23.20    6.50
  -5   0 -12   38.80    7.30
   5   0  12   39.80    6.70
   5   0  12   24.60    6.90
   5   0  12   31.70    6.90
   5  -1 -12   -0.60    2.90
   5  -1 -12    1.90    2.70
   5  -1 -12    0.00    2.50
   5  -1 -12   -3.40    2.70
  -5   1  12    1.20    2.90
  -5   1  12    0.10    3.20
   4  -1 -12   79.09    9.00
   4  -1 -12   79.99   10.60
   4  -1 -12   80.29    9.70
   4  -1 -12   77.99    9.00
  -4   1  12   70.49   10.10
  -4   1  12   77.09   11.10
   3  -1 -12   80.89    9.10
   3  -1 -12   79.79   10.80
   3  -1 -12   83.79    9.40
   3  -1 -12   80.19    9.80
  -3   1  12   92.89   11.30
  -3   1  12   67.39   10.20
   2  -1 -12  113.49   10.80
   2  -1 -12   82.19    8.70
   2  -1 -12  112.29   11.10
  -2   1  12  105.19    9.70
  -2   1  12  103.29   12.00
   1  -1 -12   47.10    7.90
   1  -1 -12   35.50    6.00
  -1   1  12   48.10    6.70
  -1   1  12   53.99    8.90
   0  -1 -12  121.09    8.40
   0  -1 -12   98.19   10.00
   0   1  12  106.69   11.70
   0   1  12  114.69   11.00
  -1  -1 -12   53.69    8.50
  -1  -1 -12   56.79    7.60
  -1  -1 -12   49.30    6.50
   1   1  12   44.30    9.50
   1   1  12   43.40    4.60
   1   1  12   60.49    8.80
   1   1  12   36.90    5.10
  -2  -1 -12  360.66   20.60
  -2  -1 -12  338.67   18.10
  -2  -1 -12  367.56   17.10
   2   1  12  406.86   21.70
   2   1  12  334.67   11.90
   2   1  12  327.97   14.70
   2   1  12  385.26   20.50
  -3  -1 -12   21.10    4.80
  -3  -1 -12   20.30    5.50
  -3  -1 -12   26.20    5.70
   3   1  12   17.50    6.10
   3   1  12   23.00    5.40
   3   1  12   19.50    5.40
  -4  -1 -12   60.89    8.80
   4   1  12   49.30    7.40
   4   1  12   52.29    7.60
   4   1  12   54.09    8.80
  -5  -1 -12  233.48   17.20
  -5  -1 -12  213.98   15.50
   5   1  12  217.08   17.30
   5   1  12  222.38   14.70
   5   1  12  223.38   15.50
   5  -2 -12    4.90    3.00
   5  -2 -12    0.30    3.10
   5  -2 -12   -3.50    3.10
   5  -2 -12    0.60    2.60
  -5   2  12    2.30    3.30
  -5   2  12    0.40    3.20
   4  -2 -12  174.88   13.40
   4  -2 -12  194.18   18.60
   4  -2 -12  195.88   15.60
   4  -2 -12  196.88   14.80
  -4   2  12  178.78   16.00
  -4   2  12  152.28   14.60
   3  -2 -12   -1.40    2.00
   3  -2 -12    0.60    2.70
   3  -2 -12   -0.10    1.90
   3  -2 -12   -3.90    2.50
  -3   2  12   -1.50    2.00
   2  -2 -12    1.40    2.70
   2  -2 -12    4.50    2.50
  -2   2  12    6.00    3.20
  -2   2  12    3.90    3.10
   1  -2 -12   -0.40    2.10
   1  -2 -12    3.50    2.60
   1  -2 -12    0.70    2.60
  -1   2  12   -2.30    1.60
  -1   2  12   -0.20    2.00
  -1   2  12    1.40    3.00
   0  -2 -12   77.99    7.60
   0  -2 -12   77.99    7.90
   0  -2 -12   85.39    9.30
   0   2  12   76.99   10.30
   0   2  12   64.89    8.60
  -1  -2 -12   13.70    3.90
   1   2  12   26.70    4.20
   1   2  12   24.00    5.90
   1   2  12   17.30    5.00
  -2  -2 -12  290.17   16.20
  -2  -2 -12  277.57   17.70
  -2  -2 -12  265.17   15.10
   2   2  12  269.07   12.70
   2   2  12  258.07   10.10
   2   2  12  264.57   17.30
   2   2  12  271.57   17.60
  -3  -2 -12   54.49    8.20
  -3  -2 -12   40.30    7.00
  -3  -2 -12   59.59    7.90
   3   2  12   60.19    7.10
   3   2  12   55.69    7.90
   3   2  12   50.99    8.40
  -4  -2 -12    7.30    3.50
  -4  -2 -12    7.00    3.90
   4   2  12    7.60    4.30
   4   2  12   10.70    4.10
  -5  -2 -12    3.20    2.80
  -5  -2 -12   -0.40    2.60
   5   2  12    3.10    3.30
   5   2  12    2.80    2.70
   5   2  12    6.00    3.40
   5   2  12    3.00    4.50
   4  -3 -12   14.70    5.10
   4  -3 -12   23.10    5.70
   4  -3 -12   18.50    4.90
   4  -3 -12   14.30    4.90
  -4   3  12   19.00    5.60
  -4   3  12   39.60    8.30
   3  -3 -12  173.28   14.70
   3  -3 -12  169.58   13.80
   3  -3 -12  171.88   11.50
   3  -3 -12  181.48   14.00
  -3   3  12  170.78   14.80
  -3   3  12  177.18   15.80
   2  -3 -12  148.49   12.80
   2  -3 -12  132.69   11.60
   2  -3 -12  138.99   10.10
   2  -3 -12  145.69   10.10
  -2   3  12  148.89   13.60
  -2   3  12  132.69   13.60
   1  -3 -12    1.60    2.30
   1  -3 -12    5.20    2.90
   1  -3 -12    0.30    1.90
  -1   3  12   -4.10    2.30
  -1   3  12    1.00    2.70
   0  -3 -12  189.18   11.40
   0  -3 -12  190.08   12.70
   0  -3 -12  234.38   20.30
   0   3  12  209.88   17.50
   0   3  12  209.78   16.10
   0   3  12  223.58   14.90
  -1  -3 -12   21.20    5.10
  -1  -3 -12   30.60    5.90
   1   3  12   12.60    4.00
   1   3  12   30.90    7.10
   1   3  12   40.80    7.40
  -2  -3 -12    2.00    2.10
  -2  -3 -12    2.30    2.40
  -2  -3 -12    1.30    2.60
   2   3  12    2.90    2.90
   2   3  12    1.10    3.00
   2   3  12   -0.70    2.10
   2   3  12   -1.60    1.80
  -3  -3 -12   16.40    5.50
  -3  -3 -12   23.60    7.30
   3   3  12   21.20    5.40
   3   3  12   25.00    5.90
   3   3  12   38.10    6.30
   3   3  12   31.30    5.70
  -4  -3 -12   84.59   10.40
  -4  -3 -12  100.49    9.60
  -4  -3 -12   90.29   11.10
   4   3  12   82.49    8.80
   4   3  12   88.39    9.90
   4   3  12   89.39   11.70
  -5  -3 -12   -1.80    2.20
  -5  -3 -12   -1.20    2.70
   5   3  12   -1.70    3.50
   5   3  12    5.00    2.00
   5   3  12    3.70    3.30
   5   3  12    1.00    2.80
   5   3  12    1.20    2.60
   4  -4 -12   -0.90    2.40
   4  -4 -12   -2.30    2.30
   4  -4 -12   -0.20    3.10
   4  -4 -12    5.40    3.10
  -4   4  12    2.20    3.30
  -4   4  12   -1.30    2.90
   3  -4 -12   49.40    9.30
   3  -4 -12   33.80    5.90
   3  -4 -12   51.99    7.30
   3  -4 -12   36.30    6.10
   3  -4 -12   52.59    8.60
  -3   4  12   27.00    6.80
  -3   4  12   38.20    8.30
   2  -4 -12   71.19    9.60
   2  -4 -12   69.09    6.80
   2  -4 -12   66.69    7.90
   2  -4 -12   61.69    7.70
  -2   4  12   92.89   11.30
  -2   4  12   65.69    9.10
   1  -4 -12   46.30    7.20
   1  -4 -12   42.10    5.90
  -1   4  12   48.40    7.80
  -1   4  12   49.99    8.70
   0  -4 -12   20.60    4.60
   0  -4 -12   26.00    6.10
   0  -4 -12   27.20    5.60
   0   4  12   15.40    4.80
   0   4  12   17.40    5.40
  -1  -4 -12  287.67   12.90
  -1  -4 -12  300.57   17.30
  -1  -4 -12  301.87   16.00
   1   4  12  302.87   16.50
   1   4  12  284.57   18.90
   1   4  12  263.27   12.80
  -2  -4 -12    1.50    2.20
  -2  -4 -12    5.20    3.90
   2   4  12    8.30    3.50
   2   4  12    3.80    3.00
   2   4  12    8.20    4.30
   2   4  12    9.70    2.00
  -3  -4 -12   19.90    5.30
  -3  -4 -12   33.50    5.70
  -3  -4 -12   28.70    6.50
   3   4  12   44.70    7.50
   3   4  12   35.60    7.10
   3   4  12   26.60    5.60
   3   4  12   24.50    4.90
  -4  -4 -12   18.60    4.90
  -4  -4 -12   15.30    5.00
   4   4  12   31.00    6.50
   4   4  12   15.10    5.10
   4   4  12   16.30    5.40
  -5  -4 -12   34.70    8.00
  -5  -4 -12   31.60    7.20
  -5  -4 -12   41.00    6.40
   5   4  12   32.30    7.20
   5   4  12   42.40    9.40
   5   4  12   39.10    9.10
   5   4  12   26.50    6.30
   3  -5 -12   32.10    6.70
   3  -5 -12   12.80    5.40
   3  -5 -12   31.80    5.00
   3  -5 -12   17.70    4.90
   3  -5 -12   25.60    6.10
  -3   5  12   12.90    5.10
  -3   5  12   29.70    7.40
   2  -5 -12    0.30    2.10
   2  -5 -12   -1.70    2.50
   2  -5 -12   -0.10    2.20
   2  -5 -12    0.10    3.00
  -2   5  12    1.60    3.40
  -2   5  12   -0.80    2.70
   1  -5 -12   98.39    6.90
   1  -5 -12   90.59    8.80
   1  -5 -12   97.59   10.40
   1  -5 -12  107.39   12.00
  -1   5  12  111.19   13.10
  -1   5  12   86.39    9.80
   0  -5 -12    5.90    3.20
   0  -5 -12    2.10    1.90
   0  -5 -12    2.20    2.80
   0   5  12   -1.70    2.40
   0   5  12   -0.50    3.20
  -1  -5 -12  135.89   12.10
  -1  -5 -12  110.69    7.10
  -1  -5 -12  117.99    9.30
   1   5  12  130.19   13.20
   1   5  12  114.59   10.20
  -2  -5 -12   22.20    5.90
  -2  -5 -12   27.50    5.30
  -2  -5 -12   16.20    4.20
   2   5  12   53.99   10.10
   2   5  12   16.20    3.90
   2   5  12   20.80    6.00
  -3  -5 -12  201.68   15.20
  -3  -5 -12  151.58   10.40
   3   5  12  147.19   13.10
   3   5  12  148.39   15.40
  -4  -5 -12   -1.40    2.70
  -4  -5 -12    0.00    2.20
  -4  -5 -12   -1.20    2.20
   4   5  12    3.00    4.20
   4   5  12   -3.10    2.90
   2  -6 -12   -3.90    3.80
   2  -6 -12   -0.20    2.90
   2  -6 -12   -1.20    2.70
  -2   6  12   -0.60    3.00
  -2   6  12   -2.30    2.70
   1  -6 -12   74.89   10.90
   1  -6 -12   83.19    8.40
   1  -6 -12   92.79   11.20
  -1   6  12   74.99    9.70
  -1   6  12   77.49   11.40
   0  -6 -12   78.39    7.80
   0  -6 -12   83.79   10.20
   0   6  12   83.69    9.20
   0   6  12   85.49   11.40
   0   6  12   79.89   11.50
  -1  -6 -12   47.60    6.20
  -1  -6 -12   40.10    7.90
   1   6  12   35.40    6.50
   1   6  12   26.40    7.20
   1   6  12   27.60    7.00
  -2  -6 -12   11.20    3.40
  -2  -6 -12   33.80    7.30
   2   6  12   13.80    6.20
   2   6  12   22.60    6.60
  -3  -6 -12  315.77   20.40
  -3  -6 -12  295.97   10.70
  -3  -6 -12  332.87   14.90
   3   6  12  352.96   23.70
   3   6  12  313.27   20.30
   1   2 -13   59.79    5.90
   1   2 -13   72.99   11.00
   1   2 -13   57.49    9.10
  -1  -2  13   62.99   10.20
  -1  -2  13   68.89    8.90
   0   2 -13   75.99    5.80
   0   2 -13   77.19   10.80
   0  -2  13   72.49    9.50
   0  -2  13   78.79   10.90
   0  -2  13   66.69    9.50
  -1   2 -13   34.90    4.40
  -1   2 -13   36.00    8.20
  -1   2 -13   49.90    8.90
   1  -2  13   48.00    8.60
   1  -2  13   35.90    5.50
   1  -2  13   37.90    7.70
  -2   2 -13  138.19    7.00
  -2   2 -13  123.29   12.70
  -2   2 -13  126.39   12.90
   2  -2  13  129.09   10.50
   2  -2  13  132.99   13.60
   2  -2  13  114.79   12.00
   2   1 -13   11.10    4.60
   2   1 -13    3.30    3.20
  -2  -1  13   13.90    4.30
  -2  -1  13   15.00    5.90
   1   1 -13    1.60    3.20
   1   1 -13   10.50    4.50
   1   1 -13    1.60    2.20
  -1  -1  13    9.40    4.10
  -1  -1  13    7.20    3.80
   0   1 -13   63.79   10.00
   0   1 -13   40.70    6.30
   0  -1  13   67.99    9.00
   0  -1  13   63.09    9.60
  -1   1 -13    7.90    3.90
   1  -1  13    2.90    3.10
   1  -1  13    8.70    4.20
   1  -1  13    3.80    2.30
  -2   1 -13  218.18   16.50
  -2   1 -13  189.28   15.10
   2  -1  13  199.88   15.90
   2  -1  13  190.58   15.40
   2  -1  13  188.68   12.50
  -3   1 -13   14.10    4.70
  -3   1 -13   28.30    6.10
   3  -1  13   30.20    7.50
   3  -1  13   33.20    6.60
   3  -1  13   33.80    6.30
   2   0 -13  297.57   17.60
   2   0 -13  305.47   16.50
   2   0 -13  318.87   19.80
  -2   0  13  300.27   20.80
  -2   0  13  289.97   16.70
   1   0 -13    3.80    3.10
   1   0 -13    0.50    3.10
  -1   0  13    2.70    2.80
  -1   0  13    4.80    4.00
   0   0 -13   88.09   10.90
   0   0  13   80.49   10.90
   0   0  13   70.89    9.20
  -1   0 -13   -0.60    3.20
   1   0  13    2.30    1.80
   1   0  13    1.90    2.90
   1   0  13    0.30    2.80
  -2   0 -13   17.50    4.70
  -2   0 -13   20.40    6.20
  -2   0 -13   23.10    5.30
   2   0  13   15.60    4.60
   2   0  13   14.80    4.90
   2   0  13   22.00    5.20
  -3   0 -13   18.30    5.30
  -3   0 -13    7.80    4.00
  -3   0 -13   20.80    4.90
   3   0  13   16.70    4.20
   3   0  13    9.90    4.50
   3   0  13   19.10    5.00
   3  -1 -13   -5.20    3.30
   3  -1 -13   -2.50    1.90
   3  -1 -13   -1.30    3.10
   3  -1 -13   -2.40    2.70
  -3   1  13   -3.30    3.20
  -3   1  13   -6.70    3.00
   2  -1 -13  180.68   13.20
   2  -1 -13  163.18   13.50
   2  -1 -13  203.38   15.50
  -2   1  13  149.88   14.70
  -2   1  13  185.08   16.20
   1  -1 -13   52.79    7.50
   1  -1 -13   44.60    8.50
  -1   1  13   52.19    8.00
  -1   1  13   37.50    8.40
   0  -1 -13   48.20    7.80
   0  -1 -13   52.69    7.60
   0   1  13   43.60    7.10
   0   1  13   28.90    6.70
  -1  -1 -13  150.68   12.50
  -1  -1 -13  114.99    9.30
   1   1  13  139.39   13.30
   1   1  13  170.48   14.30
  -2  -1 -13   32.30    6.70
  -2  -1 -13   38.90    7.90
  -2  -1 -13   41.20    6.60
   2   1  13   45.60    7.60
   2   1  13   39.90    5.80
   2   1  13   36.00    7.60
  -3  -1 -13    0.50    2.50
  -3  -1 -13   -0.40    2.30
  -3  -1 -13   -1.80    2.30
   3   1  13    2.40    3.60
   3   1  13    1.60    2.50
   3   1  13    0.90    3.40
  -4  -1 -13   98.49   11.00
  -4  -1 -13  101.99   12.40
  -4  -1 -13  100.29   11.10
   4   1  13  109.29   13.50
   4   1  13  102.89   10.00
   2  -2 -13   29.90    6.90
   2  -2 -13   14.60    3.40
   2  -2 -13   17.20    4.90
   2  -2 -13   12.70    5.30
   2  -2 -13   16.10    4.70
  -2   2  13   38.80    8.30
  -2   2  13   14.50    4.70
   1  -2 -13  205.18   14.90
   1  -2 -13  204.08   12.80
  -1   2  13  202.58   16.90
  -1   2  13  196.68   15.30
   0  -2 -13   17.90    5.10
   0  -2 -13   17.40    4.30
   0   2  13   18.10    6.30
   0   2  13   17.80    5.30
   0   2  13   20.20    5.60
  -1  -2 -13   63.99    8.40
  -1  -2 -13   65.59    8.00
   1   2  13   71.59   10.00
   1   2  13   50.29    9.00
  -2  -2 -13   63.79    9.40
  -2  -2 -13   64.99    8.30
  -2  -2 -13   71.49    8.80
   2   2  13   68.59    9.90
   2   2  13   69.39    9.60
  -3  -2 -13   63.09    8.60
  -3  -2 -13   65.39    9.70
  -3  -2 -13   67.99    8.50
   3   2  13   73.19   10.40
   3   2  13   59.59    9.20
   3   2  13   50.19    7.20
   2  -3 -13   11.50    4.20
   2  -3 -13    7.90    4.80
   2  -3 -13   11.50    4.80
   2  -3 -13   12.30    3.20
  -2   3  13   14.70    5.50
  -2   3  13   13.70    4.50
   1  -3 -13   89.39    8.60
   1  -3 -13  104.39   10.10
  -1   3  13   89.89   10.80
  -1   3  13   92.09   11.40
   0  -3 -13  115.59    9.20
   0  -3 -13  124.99   10.60
   0  -3 -13  112.99   10.80
   0   3  13  111.39   11.20
   0   3  13  132.99   13.80
  -1  -3 -13  153.28   12.20
  -1  -3 -13  163.48   12.60
  -1  -3 -13  143.99   10.20
   1   3  13  140.49   13.70
   1   3  13  170.98   14.40
   1   3  13  152.38   15.10
  -2  -3 -13   -0.20    2.20
   2   3  13    2.00    2.80
   2   3  13   -1.50    2.80
   2   3  13   -1.80    2.40
  -3  -3 -13  159.98   12.50
  -3  -3 -13  175.68   15.40
  -3  -3 -13  145.69   12.80
   3   3  13  164.08   14.40
   3   3  13  151.08   11.50
   3   3  13  159.08   14.90
   1  -4 -13    5.00    3.30
   1  -4 -13    5.90    3.30
   1  -4 -13    5.20    3.00
  -1   4  13   -0.10    3.00
  -1   4  13    2.10    3.70
   0  -4 -13    1.60    2.30
   0  -4 -13   -0.50    2.30
   0  -4 -13   -5.50    2.40
   0   4  13    8.50    4.60
   0   4  13   -2.30    2.70
  -1  -4 -13  123.79    9.20
  -1  -4 -13  110.79   10.30
  -1  -4 -13  121.89   13.30
   1   4  13  129.59   11.80
   1   4  13  120.09   13.10
  -2  -4 -13    0.70    2.40
  -2  -4 -13    3.60    3.60
   2   4  13    1.20    3.40
   2   4  13   -1.90    2.90
   0   0   0    0.00    0.00
_computing_structure_solution     'SHELXT 2014/5 (Sheldrick, 2014)'
;
loop_
_space_group_symop_operation_xyz
'x, y, z'
'-x, -y, -z'
loop_
_atom_site_label
_atom_site_type_symbol
_atom_site_fract_x
_atom_site_fract_y
_atom_site_fract_z
_atom_site_U_iso_or_equiv
_atom_site_adp_type
_atom_site_occupancy
_atom_site_site_symmetry_order
_atom_site_calc_flag
_atom_site_refinement_flags_posn
_atom_site_refinement_flags_adp
_atom_site_refinement_flags_occupancy
_atom_site_disorder_assembly
_atom_site_disorder_group
Cu1 Cu 0.500000 0.000000 0.500000 0.02651(9) Uani 1 2 d S . P . .
S1 S 0.18536(5) 0.28011(5) 0.43590(5) 0.03337(10) Uani 1 1 d . . . . .
S2 S 0.99160(5) 0.14516(6) 0.81448(5) 0.03757(11) Uani 1 1 d . . . . .
O1 O 0.8476(2) 0.1443(2) 0.92726(19) 0.0613(5) Uani 1 1 d . . . . .
H1 H 0.840447 0.058183 0.970511 0.092 Uiso 1 1 calc R U . . .
O2 O 1.14134(18) 0.1068(2) 0.88996(17) 0.0533(4) Uani 1 1 d . . . . .
O3 O 0.9916(3) 0.2998(2) 0.7462(2) 0.0711(5) Uani 1 1 d . . . . .
O4 O 0.9547(2) 0.0293(2) 0.72236(19) 0.0624(5) Uani 1 1 d . . . . .
O5W O 0.78755(17) 0.09000(16) 0.45847(17) 0.0417(3) Uani 1 1 d D . . . .
H5A H 0.844(4) 0.059(4) 0.392(2) 0.072(10) Uiso 1 1 d D . . . .
H5B H 0.839(3) 0.085(4) 0.534(2) 0.066(9) Uiso 1 1 d D . . . .
N1 N 0.43997(16) 0.11797(16) 0.31812(14) 0.0288(3) Uani 1 1 d . . . . .
N2 N 0.3045(2) 0.27240(17) 0.16558(15) 0.0357(3) Uani 1 1 d . . . . .
N3 N 0.45103(16) 0.19285(15) 0.59556(14) 0.0284(2) Uani 1 1 d . . . . .
N4 N 0.34812(18) 0.42248(16) 0.63109(16) 0.0333(3) Uani 1 1 d . . . . .
C1 C 0.31703(19) 0.21918(17) 0.30194(16) 0.0278(3) Uani 1 1 d . . . . .
C2 C 0.5110(2) 0.1081(2) 0.18560(18) 0.0357(3) Uani 1 1 d . . . . .
H2 H 0.602068 0.047325 0.164422 0.043 Uiso 1 1 calc R U . . .
C3 C 0.4268(3) 0.2010(2) 0.09111(19) 0.0416(4) Uani 1 1 d . . . . .
H3 H 0.447799 0.214036 -0.005738 0.050 Uiso 1 1 calc R U . . .
C4 C 0.1794(4) 0.3798(3) 0.1074(3) 0.0586(6) Uani 1 1 d . . . . .
H4A H 0.074910 0.327892 0.109268 0.088 Uiso 1 1 calc R U . . .
H4B H 0.211651 0.415674 0.012069 0.088 Uiso 1 1 calc R U . . .
H4C H 0.169673 0.466315 0.162700 0.088 Uiso 1 1 calc R U . . .
C5 C 0.33597(18) 0.29748(17) 0.55922(16) 0.0267(3) Uani 1 1 d . . . . .
C6 C 0.5417(2) 0.2557(2) 0.69457(18) 0.0352(3) Uani 1 1 d . . . . .
H6 H 0.632263 0.209191 0.738414 0.042 Uiso 1 1 calc R U . . .
C7 C 0.4781(2) 0.3960(2) 0.7180(2) 0.0390(4) Uani 1 1 d . . . . .
H7 H 0.515417 0.461941 0.781011 0.047 Uiso 1 1 calc R U . . .
C8 C 0.2427(3) 0.5602(2) 0.6221(3) 0.0493(5) Uani 1 1 d . . . . .
H8A H 0.215490 0.586897 0.525918 0.074 Uiso 1 1 calc R U . . .
H8B H 0.300402 0.644610 0.655735 0.074 Uiso 1 1 calc R U . . .
H8C H 0.143000 0.539540 0.678607 0.074 Uiso 1 1 calc R U . . .
loop_
_atom_site_aniso_label
_atom_site_aniso_U_11
_atom_site_aniso_U_22
_atom_site_aniso_U_33
_atom_site_aniso_U_23
_atom_site_aniso_U_13
_atom_site_aniso_U_12
Cu1 0.02953(14) 0.02517(13) 0.02487(13) -0.00294(9) -0.00215(9) 0.00921(9)
S1 0.02493(18) 0.0375(2) 0.0382(2) -0.00557(16) -0.00420(14) 0.01019(14)
S2 0.0308(2) 0.0471(2) 0.0350(2) -0.00576(17) -0.00029(15) 0.00078(16)
O1 0.0406(8) 0.0873(13) 0.0521(9) 0.0059(8) 0.0123(6) 0.0189(8)
O2 0.0307(6) 0.0777(11) 0.0524(8) -0.0090(8) -0.0063(6) 0.0004(7)
O3 0.0705(12) 0.0527(10) 0.0857(14) 0.0093(9) 0.0120(10) 0.0069(9)
O4 0.0681(11) 0.0722(12) 0.0502(9) -0.0212(8) -0.0062(8) -0.0135(9)
O5W 0.0341(6) 0.0378(7) 0.0534(8) -0.0045(6) -0.0048(6) 0.0053(5)
N1 0.0285(6) 0.0302(6) 0.0272(6) -0.0007(5) -0.0010(5) 0.0064(5)
N2 0.0435(8) 0.0335(7) 0.0306(6) -0.0014(5) -0.0112(6) 0.0062(6)
N3 0.0275(6) 0.0287(6) 0.0297(6) -0.0058(5) -0.0032(5) 0.0066(5)
N4 0.0368(7) 0.0240(6) 0.0393(7) -0.0062(5) 0.0037(6) 0.0013(5)
C1 0.0274(6) 0.0267(6) 0.0296(7) -0.0027(5) -0.0054(5) 0.0028(5)
C2 0.0382(8) 0.0393(8) 0.0294(7) -0.0041(6) 0.0030(6) 0.0069(7)
C3 0.0536(11) 0.0439(10) 0.0269(7) -0.0016(7) -0.0024(7) 0.0056(8)
C4 0.0752(16) 0.0567(13) 0.0453(11) -0.0037(9) -0.0267(11) 0.0303(12)
C5 0.0261(6) 0.0241(6) 0.0298(7) -0.0037(5) 0.0008(5) 0.0032(5)
C6 0.0324(7) 0.0413(9) 0.0331(8) -0.0071(6) -0.0063(6) 0.0022(6)
C7 0.0424(9) 0.0375(8) 0.0391(8) -0.0127(7) -0.0024(7) -0.0059(7)
C8 0.0610(13) 0.0267(8) 0.0601(12) -0.0080(8) 0.0053(10) 0.0124(8)
loop_
_atom_type_symbol
_atom_type_description
_atom_type_scat_dispersion_real
_atom_type_scat_dispersion_imag
_atom_type_scat_source
C C 0.0033 0.0016 'International Tables Vol C Tables 4.2.6.8 and 6.1.1.4'
H H 0.0000 0.0000 'International Tables Vol C Tables 4.2.6.8 and 6.1.1.4'
Cu Cu 0.3201 1.2651 'International Tables Vol C Tables 4.2.6.8 and 6.1.1.4'
N N 0.0061 0.0033 'International Tables Vol C Tables 4.2.6.8 and 6.1.1.4'
O O 0.0106 0.0060 'International Tables Vol C Tables 4.2.6.8 and 6.1.1.4'
S S 0.1246 0.1234 'International Tables Vol C Tables 4.2.6.8 and 6.1.1.4'
loop_
_geom_angle_atom_site_label_1
_geom_angle_atom_site_label_2
_geom_angle_atom_site_label_3
_geom_angle
_geom_angle_site_symmetry_1
_geom_angle_site_symmetry_3
N1 Cu1 N1 180.0 . 2_656
N1 Cu1 N3 88.09(5) . .
N1 Cu1 N3 91.91(5) 2_656 .
N1 Cu1 N3 91.91(5) . 2_656
N1 Cu1 N3 88.09(5) 2_656 2_656
N3 Cu1 N3 180.0 . 2_656
C5 S1 C1 97.21(7) . .
O3 S2 O4 113.42(13) . .
O3 S2 O2 113.27(12) . .
O4 S2 O2 111.41(12) . .
O3 S2 O1 104.39(12) . .
O4 S2 O1 107.10(12) . .
O2 S2 O1 106.56(10) . .
S2 O1 H1 109.5 . .
H5A O5W H5B 112(3) . .
C1 N1 C2 105.96(13) . .
C1 N1 Cu1 125.77(11) . .
C2 N1 Cu1 128.23(11) . .
C1 N2 C3 106.90(14) . .
C1 N2 C4 126.47(17) . .
C3 N2 C4 126.57(17) . .
C5 N3 C6 105.80(13) . .
C5 N3 Cu1 125.50(11) . .
C6 N3 Cu1 128.04(11) . .
C5 N4 C7 106.94(14) . .
C5 N4 C8 127.38(17) . .
C7 N4 C8 125.67(16) . .
N1 C1 N2 111.10(14) . .
N1 C1 S1 126.17(12) . .
N2 C1 S1 122.73(12) . .
C3 C2 N1 109.07(16) . .
C3 C2 H2 125.5 . .
N1 C2 H2 125.5 . .
C2 C3 N2 106.95(15) . .
C2 C3 H3 126.5 . .
N2 C3 H3 126.5 . .
N2 C4 H4A 109.5 . .
N2 C4 H4B 109.5 . .
H4A C4 H4B 109.5 . .
N2 C4 H4C 109.5 . .
H4A C4 H4C 109.5 . .
H4B C4 H4C 109.5 . .
N3 C5 N4 111.14(14) . .
N3 C5 S1 126.02(12) . .
N4 C5 S1 122.84(12) . .
C7 C6 N3 109.18(15) . .
C7 C6 H6 125.4 . .
N3 C6 H6 125.4 . .
C6 C7 N4 106.94(15) . .
C6 C7 H7 126.5 . .
N4 C7 H7 126.5 . .
N4 C8 H8A 109.5 . .
N4 C8 H8B 109.5 . .
H8A C8 H8B 109.5 . .
N4 C8 H8C 109.5 . .
H8A C8 H8C 109.5 . .
H8B C8 H8C 109.5 . .
loop_
_geom_bond_atom_site_label_1
_geom_bond_atom_site_label_2
_geom_bond_distance
_geom_bond_site_symmetry_2
Cu1 N1 2.0072(13) .
Cu1 N1 2.0072(13) 2_656
Cu1 N3 2.0120(13) .
Cu1 N3 2.0120(13) 2_656
S1 C5 1.7476(16) .
S1 C1 1.7491(16) .
S2 O3 1.4356(19) .
S2 O4 1.4393(18) .
S2 O2 1.4564(15) .
S2 O1 1.5528(16) .
O1 H1 0.8200 .
O5W H5A 0.830(17) .
O5W H5B 0.840(17) .
N1 C1 1.3268(19) .
N1 C2 1.378(2) .
N2 C1 1.348(2) .
N2 C3 1.373(3) .
N2 C4 1.462(2) .
N3 C5 1.3296(19) .
N3 C6 1.376(2) .
N4 C5 1.345(2) .
N4 C7 1.372(2) .
N4 C8 1.462(2) .
C2 C3 1.355(3) .
C2 H2 0.9300 .
C3 H3 0.9300 .
C4 H4A 0.9600 .
C4 H4B 0.9600 .
C4 H4C 0.9600 .
C6 C7 1.354(3) .
C6 H6 0.9300 .
C7 H7 0.9300 .
C8 H8A 0.9600 .
C8 H8B 0.9600 .
C8 H8C 0.9600 .
loop_
_geom_hbond_atom_site_label_D
_geom_hbond_atom_site_label_H
_geom_hbond_atom_site_label_A
_geom_hbond_distance_DH
_geom_hbond_distance_HA
_geom_hbond_distance_DA
_geom_hbond_angle_DHA
_geom_hbond_site_symmetry_A
O1 H1 O2 0.82 1.87 2.663(3) 162.2 2_757
O5W H5A O4 0.830(17) 2.10(2) 2.901(2) 161(3) 2_756
O5W H5B O4 0.840(17) 2.083(18) 2.913(2) 170(3) .
