#------------------------------------------------------------------------------
#$Date: 2021-09-01 11:33:17 +0300 (Wed, 01 Sep 2021) $
#$Revision: 268348 $
#$URL: file:///home/coder/svn-repositories/cod/cif/1/56/45/1564509.cif $
#------------------------------------------------------------------------------
#
# This file is available in the Crystallography Open Database (COD),
# http://www.crystallography.net/
#
# All data on this site have been placed in the public domain by the
# contributors.
#
data_1564509
loop_
_publ_author_name
'Santiago, Pedro H.O.'
'Santiago, Mariana B.'
'Martins, Carlos H.G.'
'Gatto, Claudia C.'
_publ_section_title
;
 Copper(II) and zinc(II) complexes with Hydrazone: Synthesis, crystal
 structure, Hirshfeld surface and antibacterial activity
;
_journal_name_full               'Inorganica Chimica Acta'
_journal_page_first              119632
_journal_paper_doi               10.1016/j.ica.2020.119632
_journal_volume                  508
_journal_year                    2020
_chemical_formula_moiety         'C13 H12 Br2 Cu N4 O, 2(H2 O)'
_chemical_formula_sum            'C13 H16 Br2 Cu N4 O3'
_chemical_formula_weight         499.66
_space_group_crystal_system      triclinic
_space_group_IT_number           2
_space_group_name_Hall           '-P 1'
_space_group_name_H-M_alt        'P -1'
_atom_sites_solution_hydrogens   mixed
_atom_sites_solution_primary     dual
_cell_angle_alpha                95.985(2)
_cell_angle_beta                 97.046(2)
_cell_angle_gamma                119.341(2)
_cell_formula_units_Z            2
_cell_length_a                   8.8985(11)
_cell_length_b                   8.9337(11)
_cell_length_c                   12.8937(16)
_cell_measurement_reflns_used    3651
_cell_measurement_temperature    273(2)
_cell_measurement_theta_max      22.70
_cell_measurement_theta_min      2.65
_cell_volume                     870.61(19)
_computing_molecular_graphics    'Olex2 (Dolomanov et al., 2009)'
_computing_publication_material  'Olex2 (Dolomanov et al., 2009)'
_computing_structure_refinement  'ShelXL (Sheldrick, 2015)'
_computing_structure_solution    'ShelXT (Sheldrick, 2015)'
_diffrn_ambient_temperature      273.15
_diffrn_measured_fraction_theta_full 1.000
_diffrn_measured_fraction_theta_max 0.998
_diffrn_measurement_device_type  'Bruker APEX-II CCD'
_diffrn_measurement_method       '\f and \w scans'
_diffrn_radiation_type           MoK\a
_diffrn_radiation_wavelength     0.71073
_diffrn_reflns_av_R_equivalents  0.0838
_diffrn_reflns_av_unetI/netI     0.0588
_diffrn_reflns_Laue_measured_fraction_full 1.000
_diffrn_reflns_Laue_measured_fraction_max 0.998
_diffrn_reflns_limit_h_max       10
_diffrn_reflns_limit_h_min       -10
_diffrn_reflns_limit_k_max       10
_diffrn_reflns_limit_k_min       -10
_diffrn_reflns_limit_l_max       15
_diffrn_reflns_limit_l_min       -15
_diffrn_reflns_number            20209
_diffrn_reflns_point_group_measured_fraction_full 1.000
_diffrn_reflns_point_group_measured_fraction_max 0.998
_diffrn_reflns_theta_full        25.242
_diffrn_reflns_theta_max         25.491
_diffrn_reflns_theta_min         1.621
_diffrn_standards_number         0
_exptl_absorpt_coefficient_mu    5.861
_exptl_absorpt_correction_T_max  0.7452
_exptl_absorpt_correction_T_min  0.5079
_exptl_absorpt_correction_type   multi-scan
_exptl_absorpt_process_details
;
SADABS-2016/2 (Bruker,2016/2) was used for absorption correction.
wR2(int) was 0.1739 before and 0.0922 after correction.
The Ratio of minimum to maximum transmission is 0.6816.
The \l/2 correction factor is Not present.
;
_exptl_crystal_colour            green
_exptl_crystal_colour_primary    green
_exptl_crystal_density_diffrn    1.906
_exptl_crystal_description       Block
_exptl_crystal_F_000             490
_exptl_crystal_size_max          0.41
_exptl_crystal_size_mid          0.298
_exptl_crystal_size_min          0.286
_refine_diff_density_max         0.501
_refine_diff_density_min         -0.539
_refine_diff_density_rms         0.087
_refine_ls_extinction_coef       0.0013(5)
_refine_ls_extinction_expression Fc^*^=kFc[1+0.001xFc^2^\l^3^/sin(2\q)]^-1/4^
_refine_ls_extinction_method     'SHELXL-2018/3 (Sheldrick 2018)'
_refine_ls_goodness_of_fit_ref   1.082
_refine_ls_hydrogen_treatment    mixed
_refine_ls_matrix_type           full
_refine_ls_number_parameters     214
_refine_ls_number_reflns         3219
_refine_ls_number_restraints     0
_refine_ls_restrained_S_all      1.082
_refine_ls_R_factor_all          0.0583
_refine_ls_R_factor_gt           0.0338
_refine_ls_shift/su_max          0.001
_refine_ls_shift/su_mean         0.000
_refine_ls_structure_factor_coef Fsqd
_refine_ls_weighting_details
'w=1/[\s^2^(Fo^2^)+(0.0178P)^2^+0.1596P] where P=(Fo^2^+2Fc^2^)/3'
_refine_ls_weighting_scheme      calc
_refine_ls_wR_factor_gt          0.0718
_refine_ls_wR_factor_ref         0.0792
_reflns_Friedel_coverage         0.000
_reflns_Friedel_fraction_full    .
_reflns_Friedel_fraction_max     .
_reflns_number_gt                2384
_reflns_number_total             3219
_reflns_threshold_expression     'I > 2\s(I)'
_cod_data_source_file            ICA-2020-508-119632.cif
_cod_data_source_block           ccg_phs_cu10_0m
_cod_database_code               1564509
_shelx_space_group_comment
;
The symmetry employed for this shelxl refinement is uniquely defined
by the following loop, which should always be used as a source of
symmetry information in preference to the above space-group names.
They are only intended as comments.
;
_shelx_estimated_absorpt_t_max   0.285
_shelx_estimated_absorpt_t_min   0.197
_olex2_refinement_description
;
1. Fixed Uiso
 At 1.2 times of:
  All C(H) groups, All N(H) groups
 At 1.5 times of:
  All C(H,H,H) groups
2. Restrained distances
3.a Free rotating group:
 H2A(O2,H2B,H3A,O3,H3B)
3.b Aromatic/amide H refined with riding coordinates:
 N4(H4), C10(H10), C1(H1), C4(H4A), C13(H13), C2(H2), C11(H11), C3(H3), C12(H12)
3.c Idealised Me refined as rotating group:
 C7(H7A,H7B,H7C)
;
_shelx_res_file
;
TITL ccg_phs_cu10_0m_a.res in P-1
    ccg_phs_cu10_0m.res
    created by SHELXL-2018/3 at 15:01:44 on 18-Apr-2019
REM Old TITL CCG_PHS_Cu10_0m in P-1 #2
REM SHELXT solution in P-1: R1 0.140, Rweak 0.013, Alpha 0.055
REM <I/s> 0.000 for 0 systematic absences, Orientation as input
REM Formula found by SHELXT: C13 Br2 Cu N6 O
CELL 0.71073 8.8985 8.9337 12.8937 95.985 97.046 119.341
ZERR 2 0.0011 0.0011 0.0016 0.002 0.002 0.002
LATT 1
SFAC C H Br Cu N O
UNIT 26 32 4 2 8 6
EQIV $1 1-X,-Y,-Z
EQIV $2 -1+X,-1+Y,+Z
EQIV $3 +X,-1+Y,+Z
DFIX_H2O 0.84 0.01 O1 H1 O1 H2
DANG_H2O 1.33 0.02 H1 H2

L.S. 15
PLAN  5
SIZE 0.286 0.298 0.41
TEMP 0
HTAB N4 O3
HTAB O2 Br1
HTAB O2 Br2_$3
HTAB O3 Br1_$1
HTAB O3 O1_$2
BOND
list 4
fmap 2
acta
REM <olex2.extras>
REM <HklSrc "%.\\CCG_PHS_Cu10_0m.hkl">
REM </olex2.extras>

WGHT    0.017800    0.159600
EXTI    0.001306
FVAR       0.32477
BR1   3    1.236304    0.357978    0.185911    11.00000    0.05258    0.06089 =
         0.03369    0.01348    0.00927    0.03699
BR2   3    1.289166    0.820338    0.285036    11.00000    0.04191    0.03947 =
         0.05108    0.02173    0.00733    0.00901
CU1   4    1.097671    0.522947    0.290236    11.00000    0.02978    0.03595 =
         0.03076    0.01575    0.00414    0.01314
O1    6    0.904122    0.472932    0.168729    11.00000    0.02842    0.03696 =
         0.03848    0.01969    0.00221    0.00977
N1    5    1.205023    0.514761    0.436928    11.00000    0.03165    0.03643 =
         0.02849    0.00858    0.00225    0.01838
N2    5    0.905429    0.312881    0.318164    11.00000    0.03071    0.03397 =
         0.02612    0.01022    0.00326    0.01597
N3    5    0.750785    0.228431    0.242919    11.00000    0.03364    0.02941 =
         0.03236    0.01277    0.00594    0.01272
N4    5    0.306664    0.053352    0.023041    11.00000    0.02697    0.03960 =
         0.04779    0.00180    0.00434    0.01145
AFIX  43
H4    2    0.210715   -0.032922    0.032684    11.00000   -1.20000
AFIX   0
C8    1    0.767402    0.326537    0.170419    11.00000    0.02884    0.03348 =
         0.03092    0.00968    0.00879    0.01523
C6    1    0.925500    0.251021    0.400870    11.00000    0.04367    0.03171 =
         0.03188    0.01182    0.01397    0.02462
C5    1    1.099646    0.367462    0.471637    11.00000    0.03860    0.03941 =
         0.02819    0.01111    0.00854    0.02735
C9    1    0.607420    0.257289    0.086078    11.00000    0.02708    0.03779 =
         0.02869    0.00874    0.00277    0.01559
C10   1    0.451143    0.118857    0.098712    11.00000    0.03408    0.04222 =
         0.03141    0.00636    0.00553    0.01951
AFIX  43
H10   2    0.446389    0.071197    0.159844    11.00000   -1.20000
AFIX   0
C1    1    1.363846    0.627367    0.495490    11.00000    0.03967    0.05502 =
         0.03975    0.01036    0.00184    0.02483
AFIX  43
H1    2    1.436728    0.728088    0.471212    11.00000   -1.20000
AFIX   0
C4    1    1.153499    0.331168    0.566154    11.00000    0.05822    0.04987 =
         0.03415    0.01880    0.01150    0.03371
AFIX  43
H4A   2    1.080147    0.229163    0.589117    11.00000   -1.20000
AFIX   0
C13   1    0.607784    0.322453   -0.006124    11.00000    0.03465    0.05020 =
         0.04629    0.02305    0.00502    0.01181
AFIX  43
H13   2    0.711594    0.414932   -0.017152    11.00000   -1.20000
AFIX   0
C7    1    0.789819    0.083163    0.425634    11.00000    0.05001    0.03707 =
         0.04331    0.01998    0.01003    0.01723
AFIX 137
H7A   2    0.686143    0.029727    0.370464    11.00000   -1.50000
H7B   2    0.760748    0.106041    0.492492    11.00000   -1.50000
H7C   2    0.835312    0.005773    0.429873    11.00000   -1.50000
AFIX   0
C2    1    1.423979    0.599487    0.591199    11.00000    0.04856    0.05842 =
         0.04038   -0.00248   -0.01056    0.03371
AFIX  43
H2    2    1.534643    0.681623    0.631492    11.00000   -1.20000
AFIX   0
C11   1    0.303265    0.114251   -0.066177    11.00000    0.03429    0.05952 =
         0.04847    0.00168   -0.00766    0.02378
AFIX  43
H11   2    0.199495    0.064471   -0.116743    11.00000   -1.20000
AFIX   0
C3    1    1.319833    0.450907    0.625843    11.00000    0.06268    0.07002 =
         0.03513    0.01511   -0.00181    0.04273
AFIX  43
H3    2    1.359837    0.429362    0.689453    11.00000   -1.20000
AFIX   0
C12   1    0.454956    0.251575   -0.082660    11.00000    0.05189    0.06500 =
         0.04525    0.01969   -0.00530    0.02593
AFIX  43
H12   2    0.455446    0.296772   -0.144491    11.00000   -1.20000
AFIX   6

H2A   2    1.111880    0.138998    0.277459    11.00000    0.34684
O2    6    1.027740   -0.004573    0.287989    11.00000    0.13580    0.10597 =
         0.13839    0.06388    0.08093    0.08555
H2B   2    1.127969    0.002357    0.273998    11.00000    0.40490
H3A   2   -0.062401   -0.270940   -0.021058    11.00000    0.09445
O3    6    0.012349   -0.230460    0.047472    11.00000    0.05683    0.07761 =
         0.05787    0.02951   -0.01850   -0.00745
H3B   2   -0.014140   -0.312890    0.089442    11.00000    0.18535
AFIX   0
HKLF 4




REM  ccg_phs_cu10_0m_a.res in P-1
REM wR2 = 0.0792, GooF = S = 1.082, Restrained GooF = 1.082 for all data
REM R1 = 0.0338 for 2384 Fo > 4sig(Fo) and 0.0583 for all 3219 data
REM 214 parameters refined using 0 restraints

END

WGHT      0.0178      0.1596

REM Highest difference peak  0.501,  deepest hole -0.539,  1-sigma level  0.087
Q1    1   0.0927 -0.2771  0.0420  11.00000  0.05    0.50
Q2    1   1.1817  0.5024  0.1959  11.00000  0.05    0.37
Q3    1   1.1832  0.3926  0.1270  11.00000  0.05    0.35
Q4    1   1.0998  0.0585  0.3545  11.00000  0.05    0.35
Q5    1   1.0383  0.5747  0.2135  11.00000  0.05    0.33
;
_shelx_res_checksum              1972
_shelx_hkl_file
;
  -1   0   0  335.77   26.80
  -1   0   0  297.17   27.10
  -1   0   0  322.47   26.90
  -1   0   0  310.27   26.90
  -1   0   0  295.37   27.30
  -1   0   0  308.57   26.90
   1   0   0  310.87   26.80
   1   0   0  301.77   27.30
   1   0   0  293.47   26.90
   1   0   0  306.47   27.20
   1   0   0  298.37   26.90
   1   0   0  304.87   26.90
   1   0   0  305.97   27.20
  -2   0   0  785.42   70.79
  -2   0   0  850.11   70.49
  -2   0   0  798.22   71.09
  -2   0   0  839.12   70.79
   2   0   0  826.42   70.79
   2   0   0  816.32   71.29
   2   0   0  824.22   71.29
   2   0   0  790.52   71.39
   2   0   0  769.02   70.59
  -3   0   0   35.80    4.70
  -3   0   0   45.00    4.60
  -3   0   0   42.60    4.00
  -3   0   0   48.20    5.60
   3   0   0   45.20    4.90
   3   0   0   46.10    6.30
   3   0   0   44.90    6.00
   3   0   0   49.40    5.30
   3   0   0   41.30    4.40
  -4   0   0   74.49    6.50
  -4   0   0   74.29    7.30
  -4   0   0   76.69    8.70
  -4   0   0   74.09    7.50
   4   0   0   80.49    8.10
   4   0   0   57.29    6.90
   4   0   0   68.49    8.70
   4   0   0   66.69    9.20
   4   0   0   71.29    7.70
  -5   0   0  233.08   22.20
  -5   0   0  212.58   21.10
  -5   0   0  242.18   21.40
  -5   0   0  217.48   20.10
   5   0   0  226.78   21.60
   5   0   0  258.67   23.20
   5   0   0  243.98   22.00
   5   0   0  253.67   23.50
  -6   0   0  310.87   29.00
  -6   0   0  310.37   28.80
  -6   0   0  302.37   30.30
   6   0   0  306.27   31.30
   6   0   0  315.47   30.60
   6   0   0  329.07   29.40
   6   0   0  321.97   29.40
  -7   0   0   -6.90    5.60
  -7   0   0    5.00    4.10
  -7   0   0    4.70    3.70
   7   0   0    4.40    4.50
   7   0   0   -2.00    5.80
   7   0   0   -1.60    6.40
  -8   0   0   10.60    4.60
  -8   0   0    5.00    7.20
  -8   0   0    4.60    4.80
   8   0   0    3.90    6.00
   8   0   0    5.10    5.40
  -9   0   0   13.70    8.50
  -9   0   0    7.60    6.10
  -9   0   0    7.50    3.90
   9   0   0   11.30    9.80
   9   0   0   11.80    9.00
   9  -1   0    2.90    6.40
   9  -1   0    9.80    6.50
   9  -1   0   -3.80    8.40
  -9   1   0  -11.80    7.60
  -9   1   0    3.90    5.60
  -9   1   0    3.40    4.70
   8  -1   0  104.09   13.10
   8  -1   0   97.49   15.00
  -8   1   0   98.49   14.70
  -8   1   0  105.59   12.00
  -8   1   0  109.09   12.30
   7  -1   0  114.89   15.70
   7  -1   0  121.79   15.40
   7  -1   0  140.19   14.40
  -7   1   0  119.19   12.90
  -7   1   0  127.59   15.70
  -7   1   0  126.69   13.00
   6  -1   0  393.16   36.50
   6  -1   0  406.16   35.10
   6  -1   0  365.46   34.10
   6  -1   0  401.36   36.40
  -6   1   0  372.16   34.80
  -6   1   0  368.66   34.60
  -6   1   0  390.16   36.30
   5  -1   0   26.90    5.30
   5  -1   0   24.80    3.20
   5  -1   0    9.30    3.30
   5  -1   0   23.60    4.30
   5  -1   0   19.90    5.30
  -5   1   0   21.40    2.50
  -5   1   0   22.90    4.00
  -5   1   0   26.60    5.70
  -5   1   0   23.90    3.60
  -5   1   0   22.20    2.50
   4  -1   0    3.60    2.00
   4  -1   0    8.70    2.50
   4  -1   0    2.20    2.30
   4  -1   0    5.10    1.50
   4  -1   0    2.50    2.70
  -4   1   0    3.70    2.20
  -4   1   0    7.00    1.50
  -4   1   0    4.90    1.80
  -4   1   0    9.90    3.70
  -4   1   0    5.10    2.40
   3  -1   0  137.09   10.90
   3  -1   0  114.69   11.10
   3  -1   0  108.99   10.10
   3  -1   0  104.89   11.20
  -3   1   0  110.49   10.50
  -3   1   0  117.09   10.70
  -3   1   0  109.19   10.60
  -3   1   0  105.79   10.70
   2  -1   0   79.49    6.70
   2  -1   0   83.29    6.90
   2  -1   0   70.79    7.00
   2  -1   0   67.89    7.30
   2  -1   0   75.89    6.50
   2  -1   0   72.49    7.40
  -2   1   0   71.09    6.90
  -2   1   0   65.59    7.00
  -2   1   0   56.79    7.30
  -2   1   0   72.59    6.60
  -2   1   0   75.59    7.10
   1  -1   0 1051.19   88.49
   1  -1   0 1058.89   88.59
   1  -1   0 1048.70   88.59
   1  -1   0 1030.20   88.59
   1  -1   0 1020.90   88.69
   1  -1   0 1033.10   88.59
  -1   1   0 1005.20   88.69
  -1   1   0  841.42   89.09
  -1   1   0  991.50   88.49
  -1   1   0 1048.30   88.69
  -1   1   0 1009.90   88.59
  -1   1   0 1050.19   88.59
  -1   1   0 1022.60   88.49
  -1   1   0 1039.60   88.59
   0  -1   0  832.52   71.99
   0  -1   0  706.13   72.39
   0  -1   0  863.41   71.79
   0  -1   0  868.61   71.69
   0  -1   0  794.22   71.59
   0  -1   0  868.01   71.69
   0   1   0  835.22   71.59
   0   1   0  811.52   71.69
   0   1   0  774.72   72.39
   0   1   0  826.02   71.69
   0   1   0  876.11   71.79
   0   1   0  823.32   71.89
  -1  -1   0   19.10    2.00
  -1  -1   0   17.10    2.00
  -1  -1   0   10.10    1.70
  -1  -1   0   19.50    2.30
  -1  -1   0    9.50    3.70
  -1  -1   0   17.80    2.10
  -1  -1   0   16.00    1.90
   1   1   0   16.00    2.00
   1   1   0   15.50    2.10
   1   1   0   14.50    2.20
   1   1   0   11.60    3.70
   1   1   0   21.00    3.60
   1   1   0   18.40    2.00
  -2  -1   0   83.79    8.00
  -2  -1   0   81.09    8.00
  -2  -1   0   87.39    8.00
  -2  -1   0   86.99    8.40
   2   1   0   86.59    7.90
   2   1   0   76.79   10.80
   2   1   0   86.79    8.90
   2   1   0   87.69   10.30
  -3  -1   0  276.17   25.60
  -3  -1   0  277.37   25.40
  -3  -1   0  293.27   26.10
  -3  -1   0  303.07   25.60
   3   1   0  310.77   27.50
   3   1   0  292.97   26.70
   3   1   0  261.67   27.60
   3   1   0  284.77   25.30
  -4  -1   0  547.15   49.80
  -4  -1   0  579.04   50.79
  -4  -1   0  599.44   50.29
  -4  -1   0  568.04   50.09
   4   1   0  542.85   49.80
   4   1   0  554.04   51.29
   4   1   0  589.64   52.39
   4   1   0  591.84   52.29
  -5  -1   0   -4.90    3.70
  -5  -1   0    6.50    3.20
  -5  -1   0    5.40    1.60
  -5  -1   0    5.10    2.80
   5   1   0    4.70    2.90
   5   1   0    7.60    4.90
   5   1   0   10.50    4.40
   5   1   0    6.10    4.10
  -6  -1   0   43.40    7.70
  -6  -1   0   45.60    6.00
  -6  -1   0   39.40    6.40
   6   1   0   51.99    8.90
   6   1   0   37.50    7.70
   6   1   0   44.70    9.70
  -7  -1   0   41.00    6.90
  -7  -1   0   59.89    9.40
  -7  -1   0   51.39    7.60
   7   1   0   58.79   11.70
   7   1   0   36.60   10.20
  -8  -1   0    4.90    6.60
  -8  -1   0   -0.50    4.40
  -8  -1   0    1.70    5.20
   8   1   0    6.30    6.70
   8   1   0    0.10    7.90
  10  -2   0    9.20   10.00
  10  -2   0   19.20    8.90
  10  -2   0   15.70    7.90
 -10   2   0    7.10    6.40
 -10   2   0    2.30    9.40
 -10   2   0    2.70    5.60
   9  -2   0   10.10    6.90
   9  -2   0   -1.60    8.30
   9  -2   0    3.40    7.10
  -9   2   0    7.30    3.80
  -9   2   0    3.10    8.70
  -9   2   0   11.30    5.90
   8  -2   0   20.00    6.80
   8  -2   0   16.40    6.30
   8  -2   0   19.30    6.50
  -8   2   0   11.10    7.70
  -8   2   0   16.30    5.10
  -8   2   0   12.80    4.30
   7  -2   0    3.70    5.80
   7  -2   0   22.40    5.20
   7  -2   0   13.20    5.10
  -7   2   0   25.80    7.50
  -7   2   0   18.80    4.80
  -7   2   0    6.40    3.90
   6  -2   0    3.50    3.40
   6  -2   0   -0.10    1.20
   6  -2   0    7.60    3.00
   6  -2   0    1.00    4.40
  -6   2   0    1.20    1.70
  -6   2   0    3.10    2.40
  -6   2   0   -1.30    3.50
  -6   2   0   -2.90    2.00
   5  -2   0  293.07   27.20
   5  -2   0  328.07   29.40
   5  -2   0  335.47   28.50
   5  -2   0  300.97   28.50
  -5   2   0  315.47   29.50
  -5   2   0  306.77   28.40
  -5   2   0  309.67   28.40
  -5   2   0  307.27   27.90
  -5   2   0  310.77   28.30
   4  -2   0  311.57   27.50
   4  -2   0  318.37   27.20
   4  -2   0  293.07   28.00
   4  -2   0  333.67   28.10
   4  -2   0  335.27   28.90
  -4   2   0  304.27   28.00
  -4   2   0  279.17   28.80
  -4   2   0  337.87   28.60
  -4   2   0  289.47   27.40
   3  -2   0  735.23   63.09
   3  -2   0  660.13   62.89
   3  -2   0  693.23   62.69
   3  -2   0  750.82   63.49
   3  -2   0  721.13   62.59
  -3   2   0  755.72   63.89
  -3   2   0  700.33   62.59
  -3   2   0  761.62   64.09
  -3   2   0  718.33   63.29
   2  -2   0   34.70    3.70
   2  -2   0   38.10    3.90
   2  -2   0   35.90    4.20
   2  -2   0   35.80    4.10
   2  -2   0   39.30    6.20
   2  -2   0   34.60    3.70
   2  -2   0   34.30    3.80
   2  -2   0   38.90    4.00
  -2   2   0   42.30    4.40
  -2   2   0   25.40    5.30
  -2   2   0   47.20    3.80
  -2   2   0   24.60    5.60
  -2   2   0   35.60    5.40
  -2   2   0   32.70    3.60
   1  -2   0   31.10    4.60
   1  -2   0   37.10    4.10
   1  -2   0   38.00    3.50
   1  -2   0   38.50    3.70
   1  -2   0   27.50    5.90
   1  -2   0   35.70    3.30
   1  -2   0   37.50    3.60
  -1   2   0   32.70    3.40
  -1   2   0   18.90    5.30
  -1   2   0   44.20    5.10
  -1   2   0   35.50    3.30
  -1   2   0   17.60    5.20
   0  -2   0   18.70    2.20
   0  -2   0   22.00    3.20
   0  -2   0   19.40    2.00
   0  -2   0   21.20    2.10
   0  -2   0   20.30    2.50
   0   2   0    5.40    3.90
   0   2   0   19.20    5.10
   0   2   0   21.90    2.10
   0   2   0   27.00    4.70
   0   2   0   17.00    2.00
  -1  -2   0 1303.27  111.39
  -1  -2   0 1391.16  111.59
  -1  -2   0 1245.28  111.89
  -1  -2   0 1298.67  111.39
  -1  -2   0 1190.58  111.59
   1   2   0 1284.47  111.69
   1   2   0 1264.57  113.19
   1   2   0 1265.67  111.79
  -2  -2   0   98.89    9.50
  -2  -2   0   94.29    9.20
  -2  -2   0  101.39    9.30
  -2  -2   0   93.99    9.00
   2   2   0  102.59   10.00
   2   2   0   98.89   12.10
   2   2   0   64.49   12.30
  -3  -2   0  966.40   87.89
  -3  -2   0 1054.09   87.79
  -3  -2   0  955.00   87.89
  -3  -2   0 1045.40   87.69
   3   2   0  882.21   90.89
   3   2   0 1031.90   88.69
   3   2   0 1074.99   90.39
  -4  -2   0  128.59   11.70
  -4  -2   0  115.59   11.80
  -4  -2   0  113.99   12.30
  -4  -2   0  112.39   11.50
   4   2   0  128.89   13.50
   4   2   0  115.59   15.10
   4   2   0  138.69   17.20
  -5  -2   0    1.40    2.40
  -5  -2   0   -2.50    3.60
  -5  -2   0    0.40    3.10
   5   2   0    5.30    4.70
   5   2   0   -0.50    4.60
   5   2   0    4.20    4.40
  -6  -2   0   10.20    5.20
  -6  -2   0   17.90    4.60
  -6  -2   0   10.90    4.60
   6   2   0   15.60    6.10
   6   2   0    5.20    6.80
   6   2   0    0.30    6.10
  -7  -2   0   32.30    5.70
  -7  -2   0   18.50    5.70
  -7  -2   0   38.30    7.80
   7   2   0   35.70    9.20
   7   2   0   17.00    8.80
   8   2   0   15.60   10.20
  10  -3   0   33.10   11.90
  10  -3   0   29.10    9.50
  10  -3   0   64.69   10.70
 -10   3   0   17.80    7.00
 -10   3   0   48.80    7.60
 -10   3   0   31.20   11.90
   9  -3   0   14.70    6.60
   9  -3   0   19.40    7.30
   9  -3   0    3.30    7.80
  -9   3   0    2.80    8.20
  -9   3   0    4.30    5.40
  -9   3   0   11.30    6.00
   8  -3   0   83.19   11.70
   8  -3   0   74.99   11.30
   8  -3   0   89.29   12.90
  -8   3   0   87.89   10.70
  -8   3   0  105.49   14.60
  -8   3   0  101.59   11.70
   7  -3   0   69.89    9.00
   7  -3   0   60.49    8.50
   7  -3   0   68.49    9.60
  -7   3   0   52.99    8.50
  -7   3   0   56.49    8.10
  -7   3   0   84.59   11.40
  -7   3   0   50.09    7.60
   6  -3   0    4.30    2.90
   6  -3   0    0.70    3.00
   6  -3   0    1.50    3.70
   6  -3   0    1.60    1.40
  -6   3   0    4.50    3.70
  -6   3   0    2.10    3.10
  -6   3   0    2.10    3.40
  -6   3   0    1.10    3.40
  -6   3   0    0.60    1.70
   5  -3   0  973.50   83.89
   5  -3   0  969.00   82.29
   5  -3   0  920.51   82.49
   5  -3   0  868.11   82.89
   5  -3   0  969.40   83.19
  -5   3   0  897.31   84.09
  -5   3   0  808.62   84.89
  -5   3   0 1079.19   84.29
  -5   3   0 1034.70   83.49
   4  -3   0  215.48   19.50
   4  -3   0  229.28   19.30
   4  -3   0  221.68   19.80
   4  -3   0  227.28   19.50
   4  -3   0  209.98   20.30
  -4   3   0  236.88   20.60
  -4   3   0  179.18   21.40
  -4   3   0  225.58   21.50
  -4   3   0  155.08   21.90
   3  -3   0  519.35   46.50
   3  -3   0  513.35   46.00
   3  -3   0  530.15   46.20
   3  -3   0  535.15   46.00
   3  -3   0  516.15   46.20
  -3   3   0  506.75   48.10
  -3   3   0  535.35   46.30
   2  -3   0  106.69    9.50
   2  -3   0  114.99    9.90
   2  -3   0   89.79   10.20
   2  -3   0  104.59    9.60
   2  -3   0  122.39   10.60
   2  -3   0   95.59    9.40
  -2   3   0   59.89   12.60
  -2   3   0  117.19   10.80
  -2   3   0   95.39    9.30
  -2   3   0   53.19   12.50
  -2   3   0  102.29    9.40
   1  -3   0  114.49   11.10
   1  -3   0  112.79   10.20
   1  -3   0  116.49   10.10
   1  -3   0  121.89   10.70
  -1   3   0   78.89   14.30
  -1   3   0  110.09    9.70
  -1   3   0  119.59   12.60
  -1   3   0  109.29    9.70
  -1   3   0   61.59   13.60
   0  -3   0   58.29    5.60
   0  -3   0   51.69    6.00
   0  -3   0   47.40    5.30
   0  -3   0   47.80    4.80
   0  -3   0   55.29    5.10
   0   3   0   53.99    4.80
   0   3   0   61.19    8.60
   0   3   0   31.10    8.00
   0   3   0   32.80    8.60
  -1  -3   0  236.88   21.50
  -1  -3   0  236.98   21.60
  -1  -3   0  229.58   22.40
  -1  -3   0  269.57   22.10
  -1  -3   0  241.28   21.90
   1   3   0  249.28   21.80
   1   3   0  259.67   24.20
   1   3   0  171.78   26.70
  -2  -3   0   36.60    4.30
  -2  -3   0   41.60    5.30
  -2  -3   0   33.20    4.00
  -2  -3   0   34.70    4.30
   2   3   0   41.50    5.00
   2   3   0    7.50    6.10
   2   3   0   34.30    7.70
   2   3   0   17.30    6.90
  -3  -3   0   12.00    3.00
  -3  -3   0    8.10    2.80
  -3  -3   0    8.80    3.10
  -3  -3   0   13.40    2.70
   3   3   0    8.20    5.30
   3   3   0    9.50    3.70
   3   3   0    3.50    5.30
   3   3   0   -1.10    6.10
  -4  -3   0    0.00    2.20
  -4  -3   0    3.10    2.50
  -4  -3   0    2.50    3.20
  -4  -3   0   -1.60    3.10
   4   3   0    4.20    4.60
   4   3   0    4.90    6.40
   4   3   0   -3.30    6.00
   4   3   0    1.10    3.90
  -5  -3   0  106.99   12.10
  -5  -3   0  131.19   13.00
  -5  -3   0  122.69   13.10
   5   3   0  105.29   16.40
   5   3   0  103.69   17.70
   5   3   0  140.69   15.30
  -6  -3   0    3.80    3.50
  -6  -3   0    6.20    4.90
  -6  -3   0    7.00    3.40
   6   3   0   -3.20    7.20
   6   3   0    4.30    8.00
   6   3   0   -3.40    4.40
  -7  -3   0   13.20    5.50
  -7  -3   0   18.00    6.20
   7   3   0   17.50    9.40
   7   3   0    6.70    9.00
  10  -4   0   20.50    7.50
  10  -4   0   20.50   10.60
  10  -4   0   24.30    8.40
 -10   4   0   18.80   10.30
 -10   4   0   19.90    7.70
 -10   4   0    8.30    6.70
   9  -4   0   15.20    8.20
   9  -4   0   -0.50    6.30
   9  -4   0    9.10    5.60
  -9   4   0   14.60    5.10
  -9   4   0    7.50    8.40
  -9   4   0   10.90    4.90
   8  -4   0    2.80    6.30
   8  -4   0    0.80    3.80
   8  -4   0    8.40    4.50
  -8   4   0    5.10    3.80
  -8   4   0    5.80    5.50
  -8   4   0    6.90    5.60
   7  -4   0   16.40    4.50
   7  -4   0   32.40    6.40
   7  -4   0   19.10    5.80
  -7   4   0   27.20    7.30
  -7   4   0   25.00    5.90
  -7   4   0   18.90    5.30
   6  -4   0  118.49   11.30
   6  -4   0  107.19   11.80
   6  -4   0  117.29   12.70
   6  -4   0  128.49   14.10
   6  -4   0  120.49   11.90
  -6   4   0   92.59   14.30
  -6   4   0  121.09   13.60
  -6   4   0  131.89   15.20
  -6   4   0  137.29   18.00
   5  -4   0    1.40    2.50
   5  -4   0    1.10    2.00
   5  -4   0    0.70    3.00
   5  -4   0    4.20    3.20
  -5   4   0   -0.40    4.20
  -5   4   0   -1.60    4.40
  -5   4   0   -0.40    3.60
  -5   4   0    0.80    4.30
   4  -4   0   14.50    2.90
   4  -4   0   14.00    2.80
   4  -4   0   17.20    2.80
   4  -4   0   16.10    3.50
   4  -4   0   16.20    3.50
  -4   4   0    1.70    4.80
  -4   4   0   10.60    5.50
  -4   4   0   14.00    4.70
   3  -4   0   49.50    5.70
   3  -4   0   44.70    5.70
   3  -4   0   55.99    5.90
   3  -4   0   57.09    7.40
   3  -4   0   57.29    6.30
  -3   4   0   60.49    7.70
  -3   4   0   45.70    8.40
  -3   4   0   35.90    9.10
  -3   4   0   23.30    9.10
   2  -4   0  591.04   53.19
   2  -4   0  609.14   53.99
   2  -4   0  622.54   52.79
   2  -4   0  530.35   52.49
   2  -4   0  616.74   52.89
  -2   4   0  676.03   54.79
  -2   4   0  583.84   52.49
  -2   4   0  619.14   52.79
   1  -4   0 1445.06  133.29
   1  -4   0 1547.75  132.69
   1  -4   0 1502.65  132.09
   1  -4   0 1511.65  132.29
  -1   4   0 1608.64  134.79
   0  -4   0    7.60    3.60
   0  -4   0    6.90    2.00
   0  -4   0    9.10    1.80
   0  -4   0    5.40    1.10
   0  -4   0    2.20    2.60
   0   4   0    5.70    5.10
   0   4   0   -3.20    4.80
   0   4   0   -9.10    5.30
   0   4   0    6.40    1.10
  -1  -4   0   46.90    5.40
  -1  -4   0   55.39    7.30
  -1  -4   0   47.00    5.20
  -1  -4   0   51.59    6.20
   1   4   0   14.80    8.40
   1   4   0   51.89    5.30
   1   4   0   71.59   10.40
   1   4   0   36.20   11.40
  -2  -4   0  133.89   12.90
  -2  -4   0  147.79   13.10
  -2  -4   0  137.49   14.00
  -2  -4   0  147.49   13.70
   2   4   0   71.99   16.80
   2   4   0  167.18   18.50
   2   4   0  149.88   13.60
   2   4   0  108.59   20.00
  -3  -4   0   20.90    4.90
  -3  -4   0   18.10    3.70
  -3  -4   0   16.20    4.30
  -3  -4   0   23.30    3.70
   3   4   0   27.30    4.90
   3   4   0   15.30    7.60
   3   4   0    6.40    9.10
   3   4   0   15.90    7.60
  -4  -4   0  222.38   22.30
  -4  -4   0  227.88   22.10
  -4  -4   0  228.28   22.30
   4   4   0  273.27   32.00
   4   4   0  269.77   23.80
   4   4   0  227.68   27.20
  -5  -4   0   32.60    6.90
  -5  -4   0   49.20    7.20
   5   4   0   42.40   12.60
   5   4   0   39.00    9.70
   5   4   0   52.59    9.10
  -6  -4   0   19.50    6.10
  -6  -4   0   17.50    4.90
   6   4   0   17.40    7.80
  10  -5   0   59.39   10.40
  10  -5   0   25.90    8.80
 -10   5   0   28.20    7.40
 -10   5   0   28.30    8.40
 -10   5   0   27.40   11.10
   9  -5   0   37.90   10.10
   9  -5   0   33.60    6.90
   9  -5   0   48.10    9.10
  -9   5   0   53.59   11.70
  -9   5   0   35.40    8.60
  -9   5   0   41.90    9.70
   8  -5   0  120.19   15.40
   8  -5   0   99.29   11.50
   8  -5   0  106.09   13.00
  -8   5   0  108.79   13.40
  -8   5   0  134.59   16.00
  -8   5   0  103.59   18.50
   7  -5   0  402.86   37.40
   7  -5   0  449.86   38.40
   7  -5   0  417.76   39.20
   7  -5   0  382.36   37.40
  -7   5   0  454.45   40.80
  -7   5   0  365.16   41.70
  -7   5   0  446.96   39.20
   6  -5   0    6.20    2.70
   6  -5   0   11.90    4.50
   6  -5   0    7.00    4.60
   6  -5   0    3.70    2.50
  -6   5   0    9.00    8.00
  -6   5   0    7.50    6.10
  -6   5   0    7.10    5.00
  -6   5   0    8.20    6.00
   5  -5   0   60.99    7.30
   5  -5   0   54.09    7.00
   5  -5   0   46.00    6.10
   5  -5   0   58.29    6.70
   5  -5   0   57.29    7.30
  -5   5   0   36.20   10.30
  -5   5   0   52.39    8.00
  -5   5   0   46.50   12.70
  -5   5   0   57.39   10.60
   4  -5   0  419.46   36.70
   4  -5   0  417.16   36.60
   4  -5   0  392.66   36.70
   4  -5   0  429.06   36.80
  -4   5   0  408.96   37.80
  -4   5   0  344.57   39.40
   3  -5   0   78.79    8.50
   3  -5   0   84.19    8.40
   3  -5   0   69.29    7.30
   3  -5   0   75.49    8.00
   3  -5   0   76.99    9.50
  -3   5   0   99.19   11.00
  -3   5   0   36.10   11.00
  -3   5   0   40.40   12.50
   2  -5   0  842.32   73.69
   2  -5   0  847.82   73.89
   2  -5   0  874.41   74.39
   2  -5   0  857.11   75.29
  -2   5   0  825.22   72.99
  -2   5   0  785.32   72.89
  -2   5   0  911.61   76.59
   1  -5   0  287.87   29.10
   1  -5   0  295.07   27.20
   1  -5   0  316.77   27.70
   1  -5   0  323.67   28.20
  -1   5   0  356.46   31.30
  -1   5   0  224.68   34.60
   0  -5   0    3.90    3.20
   0  -5   0    0.40    2.70
   0  -5   0   -0.40    3.20
   0  -5   0    0.60    0.70
   0  -5   0   -0.30    2.30
   0   5   0    5.10    5.40
   0   5   0    1.60    0.60
   0   5   0    0.60    5.70
   0   5   0   -6.60    4.70
  -1  -5   0    1.00    4.10
  -1  -5   0    4.80    3.20
  -1  -5   0    1.90    2.00
  -1  -5   0    0.50    3.30
   1   5   0   -0.20    1.70
   1   5   0   -0.10    5.90
   1   5   0   15.40    9.60
   1   5   0   -0.30    7.20
  -2  -5   0   18.30    4.20
  -2  -5   0   10.90    5.10
  -2  -5   0   13.00    3.10
  -2  -5   0   17.10    4.50
   2   5   0    5.00    6.00
   2   5   0   13.00    3.20
   2   5   0   22.10    8.20
   2   5   0   16.50    8.80
  -3  -5   0   95.19   11.50
  -3  -5   0  128.39   13.20
  -3  -5   0  110.19   11.10
   3   5   0  104.09   15.50
   3   5   0   85.49   19.60
   3   5   0   68.39   16.90
  -4  -5   0   24.00    4.70
  -4  -5   0   14.00    4.60
   4   5   0   13.70   11.90
   4   5   0   31.10   10.20
  -5  -5   0    1.00    5.50
  -5  -5   0   -0.10    5.30
   5   5   0   13.20   12.20
   5   5   0   -2.40    7.90
  10  -6   0   25.60    9.20
  10  -6   0   31.50    9.20
 -10   6   0   30.90    9.40
 -10   6   0   31.60   11.60
 -10   6   0   40.90   10.90
   9  -6   0    8.60    6.90
   9  -6   0    1.30    7.20
  -9   6   0   17.10    9.20
  -9   6   0   -4.60    4.30
  -9   6   0    6.40    7.80
   8  -6   0   36.00    7.10
   8  -6   0   39.00    7.10
   8  -6   0   30.80    6.50
   8  -6   0   45.20    8.10
  -8   6   0   60.99   11.80
  -8   6   0   25.30    8.20
  -8   6   0   39.70   12.80
   7  -6   0  159.88   16.20
   7  -6   0  134.99   14.40
   7  -6   0  156.58   16.80
   7  -6   0  150.68   15.20
  -7   6   0  192.18   21.70
  -7   6   0  115.99   22.10
  -7   6   0  193.98   18.90
  -7   6   0  100.39   18.80
   6  -6   0   16.50    4.90
   6  -6   0   19.20    4.20
   6  -6   0   15.90    3.70
   6  -6   0   12.80    3.10
   6  -6   0   15.70    5.20
  -6   6   0    5.50    4.80
  -6   6   0   12.90    7.80
  -6   6   0   10.90    5.30
  -6   6   0    6.10    6.10
  -6   6   0   10.90    8.80
   5  -6   0    6.80    4.00
   5  -6   0    5.50    2.50
   5  -6   0   13.00    4.20
   5  -6   0   13.00    3.80
  -5   6   0   -2.00    7.40
  -5   6   0    2.70    5.20
  -5   6   0   16.00    5.00
  -5   6   0   -3.90    7.50
   4  -6   0   19.50    4.10
   4  -6   0   17.50    3.70
   4  -6   0   16.20    4.70
   4  -6   0   14.80    3.10
  -4   6   0   16.40    5.90
  -4   6   0    2.20    6.90
  -4   6   0    4.90    8.70
  -4   6   0   13.90    9.40
   3  -6   0   20.40    4.60
   3  -6   0   21.10    4.20
   3  -6   0   22.40    5.30
   3  -6   0   15.40    6.00
  -3   6   0    9.90   10.80
  -3   6   0   19.90    3.00
  -3   6   0   20.90   10.70
  -3   6   0   33.20    7.50
  -3   6   0   28.50    3.60
   2  -6   0    8.10    3.50
   2  -6   0   23.70    6.30
   2  -6   0   11.40    3.60
   2  -6   0   12.30    4.10
  -2   6   0   10.60    7.30
  -2   6   0    4.40    7.80
  -2   6   0   14.60    8.70
   1  -6   0  149.88   17.30
   1  -6   0  153.18   16.00
   1  -6   0  141.49   15.10
   1  -6   0  167.28   14.70
  -1   6   0  174.48   20.40
  -1   6   0  102.39   21.80
   0  -6   0  235.28   21.90
   0  -6   0  227.08   23.90
   0  -6   0  220.48   22.10
   0  -6   0  249.48   21.30
   0   6   0  215.78   25.00
   0   6   0  214.78   32.50
  -1  -6   0    0.60    3.70
  -1  -6   0    0.00    3.90
  -1  -6   0    1.10    2.50
  -1  -6   0   -1.00    4.30
   1   6   0   -3.20    7.00
   1   6   0   -4.70    9.70
   1   6   0    1.40    6.60
  -2  -6   0  223.38   23.30
  -2  -6   0  235.38   22.40
  -2  -6   0  245.38   22.60
   2   6   0  179.58   30.50
   2   6   0  255.07   28.70
  -3  -6   0    7.90    5.40
  -3  -6   0   12.70    5.40
   3   6   0    9.30   12.70
   3   6   0   -4.00    8.00
  -4  -6   0    6.00    5.80
  -4  -6   0   -1.80    3.90
   4   6   0   -2.30    6.10
   4   6   0   12.90   10.70
  10  -7   0    0.70    8.40
  10  -7   0    4.10    7.90
 -10   7   0    1.30    6.30
 -10   7   0   -1.50    9.70
 -10   7   0    8.60    8.70
   9  -7   0    0.50    4.50
   9  -7   0    0.70    5.40
   9  -7   0    4.60    4.70
  -9   7   0    4.10    5.50
  -9   7   0    1.90    8.60
   8  -7   0   -2.30    5.20
   8  -7   0    5.30    6.20
   8  -7   0   10.50    6.20
  -8   7   0    2.70    9.50
  -8   7   0    2.50    7.10
  -8   7   0   -4.00    9.40
   7  -7   0  107.79   13.00
   7  -7   0  113.19   12.40
   7  -7   0  109.29   12.20
   7  -7   0  134.89   13.50
  -7   7   0   61.69   17.30
  -7   7   0   60.49   15.40
  -7   7   0  114.29   15.70
  -7   7   0  129.79   19.00
   6  -7   0  333.37   30.40
   6  -7   0  371.46   31.30
   6  -7   0  338.97   30.90
   6  -7   0  315.87   30.70
  -6   7   0  357.86   35.90
  -6   7   0  216.68   36.60
   5  -7   0   12.50    4.40
   5  -7   0   19.40    5.10
   5  -7   0   13.60    4.20
   5  -7   0   15.50    3.60
  -5   7   0    8.40   10.60
  -5   7   0   13.40    7.00
  -5   7   0    2.00    7.10
  -5   7   0    4.30    6.70
   4  -7   0  175.38   17.50
   4  -7   0  199.68   19.10
   4  -7   0  184.58   17.70
  -4   7   0  205.08   22.20
  -4   7   0  108.89   23.50
   3  -7   0   11.10    3.70
   3  -7   0    7.90    4.80
   3  -7   0    4.10    3.30
   3  -7   0   18.20    5.60
  -3   7   0   -7.60   10.00
  -3   7   0    6.90    6.90
  -3   7   0    0.50    7.00
   2  -7   0   20.90    5.00
   2  -7   0   22.80    4.30
   2  -7   0   17.30    5.10
   2  -7   0   13.70    7.10
  -2   7   0   27.00    8.50
  -2   7   0   -0.10    9.70
  -2   7   0    7.10    9.50
   1  -7   0  189.08   21.00
   1  -7   0  255.67   20.40
   1  -7   0  193.68   20.90
   1  -7   0  209.98   22.50
  -1   7   0  264.97   25.90
  -1   7   0  136.79   29.60
   0  -7   0  107.59   14.00
   0  -7   0   99.29   11.40
   0  -7   0  113.29   12.90
   0   7   0  131.99   17.60
   0   7   0   80.99   20.40
   0   7   0   70.19   21.40
  -1  -7   0   26.00    6.40
  -1  -7   0   25.50    8.20
  -1  -7   0   26.20    6.80
   1   7   0   19.40    9.30
   1   7   0   14.80   11.60
   1   7   0   20.50   15.10
  -2  -7   0   31.50    7.40
  -2  -7   0   26.90    6.90
   2   7   0   28.80   14.30
   2   7   0   19.30   12.50
   2   7   0   38.30   11.50
  -3  -7   0    5.80    6.20
  -3  -7   0    6.10    5.90
   3   7   0   -2.30    9.30
   3   7   0    9.40   14.00
  10  -8   0    8.10    9.00
  10  -8   0   16.40    7.00
  10  -8   0   18.30    8.00
 -10   8   0   12.40    7.60
 -10   8   0   15.80    8.70
   9  -8   0    2.20    6.60
   9  -8   0    3.70    6.50
   9  -8   0    1.70    5.10
  -9   8   0    1.60    8.20
  -9   8   0    7.40   10.40
  -9   8   0    4.40   11.40
   8  -8   0    8.30    5.60
   8  -8   0   -1.40    6.30
   8  -8   0   -2.70    6.30
  -8   8   0  -18.50    8.00
  -8   8   0   -1.60   10.60
  -8   8   0    0.20    7.70
   7  -8   0   82.69   10.00
   7  -8   0   52.79    8.60
   7  -8   0   74.49   10.40
  -7   8   0   84.39   15.60
  -7   8   0   50.89   15.90
  -7   8   0   41.60   14.60
   6  -8   0   60.49    8.40
   6  -8   0   28.60    7.00
   6  -8   0   51.79    8.30
  -6   8   0   57.19   15.40
  -6   8   0   37.80   11.00
  -6   8   0   33.90   13.30
   5  -8   0    0.90    5.70
   5  -8   0    6.20    4.50
   5  -8   0    8.80    4.40
  -5   8   0   -6.00    9.10
  -5   8   0    3.20    8.80
  -5   8   0    3.60    8.40
   4  -8   0    9.50    4.70
   4  -8   0    4.30    5.50
   4  -8   0    7.70    4.40
  -4   8   0    4.50    8.20
  -4   8   0    6.10   11.60
   3  -8   0   11.70    5.70
   3  -8   0    0.40    5.90
   3  -8   0    4.30    4.00
  -3   8   0    4.40    7.10
  -3   8   0   10.90    8.10
  -3   8   0   18.60   11.30
   2  -8   0  102.69   13.60
   2  -8   0  108.99   12.80
   2  -8   0  125.99   16.10
  -2   8   0   98.99   23.60
  -2   8   0  117.79   17.20
  -2   8   0   72.69   20.90
   1  -8   0   16.10    8.30
   1  -8   0    3.90    4.20
   1  -8   0    4.40    5.50
  -1   8   0  -16.30   12.90
  -1   8   0  -18.70    9.30
  -1   8   0    2.30    7.80
   0  -8   0    3.50    5.80
   0  -8   0   -4.20    4.00
   0   8   0    7.80    8.60
   0   8   0  -12.50   10.10
   0   8   0   -8.50    7.80
  -1  -8   0    6.20    6.10
  -1  -8   0    4.30    6.70
   1   8   0    8.70    9.40
   1   8   0    5.70   11.50
   1   8   0   -1.50   10.80
  -2  -8   0   11.90    7.50
  -2  -8   0   10.00    6.90
   2   8   0    8.20    7.50
   2   8   0   13.40   11.70
   9  -9   0   18.70    8.30
   9  -9   0   25.60    8.80
  -9   9   0   22.60   16.10
  -9   9   0   33.90   10.70
  -9   9   0   11.30   13.00
   8  -9   0   19.40    7.60
   8  -9   0   13.00    7.30
   8  -9   0    0.90    7.20
  -8   9   0    8.90    9.70
  -8   9   0   15.00    9.70
  -8   9   0  -11.30    8.20
   7  -9   0   -0.80    6.30
   7  -9   0   -1.50    4.60
   7  -9   0   -0.20    7.00
  -7   9   0  -13.70   10.40
  -7   9   0    2.20    8.50
  -7   9   0   13.20   13.70
   6  -9   0    8.80    5.90
   6  -9   0   -2.10    4.70
   6  -9   0   -1.30    4.50
  -6   9   0   -0.10    8.30
  -6   9   0    0.20   10.30
  -6   9   0   -3.20    7.70
   5  -9   0   78.09   11.80
   5  -9   0   93.89   10.40
   5  -9   0   73.19    9.90
  -5   9   0   77.99   18.10
  -5   9   0   33.60   16.80
  -5   9   0   40.40   17.60
   4  -9   0   -8.50    6.70
   4  -9   0    4.90    4.90
  -4   9   0   -7.20   11.40
  -4   9   0   -0.10   10.80
   3  -9   0   95.19   11.80
  -3   9   0   51.39   17.40
  -3   9   0  118.69   26.70
   2  -9   0    3.40    7.30
   2  -9   0   -3.30    6.30
  -2   9   0    5.70   12.40
  -2   9   0   11.30   11.80
   1  -9   0    2.60    6.50
   1  -9   0    9.70    7.60
  -1   9   0   37.80   19.20
  -1   9   0  -10.00    7.30
   0  -9   0    2.90    4.90
   0  -9   0   19.60    8.00
   0   9   0   10.30   14.60
   0   9   0   17.90   10.30
   0   9   0   -5.80   14.70
   8 -10   0   -1.50    5.60
   8 -10   0   -5.40    8.00
   8 -10   0   10.00    5.70
  -8  10   0    2.20   14.00
  -8  10   0   -1.20   13.00
   7 -10   0   21.90    8.70
   7 -10   0    0.80    7.00
   7 -10   0   -1.10    7.30
  -7  10   0  -17.20   12.00
  -7  10   0   13.60   14.90
  -7  10   0    1.40    9.20
   6 -10   0    0.70    5.50
   6 -10   0    0.70    5.30
  -6  10   0  -11.00    8.60
  -6  10   0    8.70    9.60
  -6  10   0  -12.00   10.70
   5 -10   0    3.10    7.50
   5 -10   0   -4.10    8.10
  -5  10   0   19.90   12.30
  -5  10   0    3.50   14.00
  -5  10   0   18.40   16.30
   4 -10   0   -1.90    8.10
   4 -10   0    7.70    5.70
  -4  10   0   -9.50   15.20
  -4  10   0  -10.10   11.10
   3 -10   0    0.70    7.90
   3 -10   0    2.60    5.40
  -3  10   0   12.80   16.90
  -3  10   0    5.00   13.40
   2 -10   0    9.70    8.60
   2 -10   0    3.50    5.60
  -2  10   0    1.30   14.10
  -2  10   0    2.80   12.70
  -2  10  -1   -3.60    8.60
  -2  10  -1   11.30   17.80
   2 -10   1   -0.90    5.30
   2 -10   1   -1.60    7.90
  -3  10  -1    6.70   10.70
  -3  10  -1   -5.60   14.60
   3 -10   1    1.80    5.20
   3 -10   1    4.90    8.30
  -4  10  -1   40.70   18.70
  -4  10  -1    3.30   14.00
   4 -10   1   14.10    5.90
   4 -10   1   -0.60    5.90
  -5  10  -1   37.70   18.10
  -5  10  -1   11.70   15.00
  -5  10  -1   -4.20   12.20
   5 -10   1   27.50    8.70
   5 -10   1   42.50   10.20
  -6  10  -1   18.60   15.70
  -6  10  -1    0.60   12.40
  -6  10  -1  -10.30   11.70
   6 -10   1   -4.90    5.00
   6 -10   1    3.90    6.60
   6 -10   1   -0.60    7.70
  -7  10  -1   -1.10   12.30
  -7  10  -1    3.10   10.40
   7 -10   1    1.60    7.90
   7 -10   1   -1.60    7.50
   7 -10   1   -2.30    6.90
  -8  10  -1   -3.50   12.50
  -8  10  -1   16.10   18.10
   8 -10   1   11.40    8.30
   8 -10   1    9.90    8.40
   8 -10   1    9.60    6.00
   0   9  -1    1.30   14.10
   0   9  -1   16.00   12.90
   0  -9   1    4.50    5.20
   0  -9   1   10.50    7.00
  -1   9  -1    9.10   16.90
  -1   9  -1    2.90   10.40
   1  -9   1    6.80    6.80
   1  -9   1    5.00    7.30
  -2   9  -1   21.30   12.70
  -2   9  -1   20.70   12.50
   2  -9   1   24.30    6.70
   2  -9   1   18.80    7.30
  -3   9  -1   -5.30   14.30
  -3   9  -1   13.20   10.90
   3  -9   1   -4.50    6.70
   3  -9   1   -9.80    6.20
  -4   9  -1  136.49   26.90
  -4   9  -1   76.49   21.40
   4  -9   1  113.19   14.50
   4  -9   1  120.89   14.80
   4  -9   1  138.39   14.00
  -5   9  -1   11.00   10.70
  -5   9  -1   23.10   14.80
  -5   9  -1   20.50   11.60
   5  -9   1   31.20    6.50
   5  -9   1   17.50    8.20
   5  -9   1   25.00    6.70
  -6   9  -1   24.80   13.80
  -6   9  -1    5.10   11.30
  -6   9  -1    4.90   13.40
   6  -9   1   27.70    6.30
   6  -9   1   33.20    8.40
   6  -9   1   18.10    6.80
  -7   9  -1    0.60    9.00
  -7   9  -1   -3.80   11.00
   7  -9   1    5.70    4.90
   7  -9   1   -6.70    6.60
   7  -9   1   -1.00    4.70
  -8   9  -1  -16.80    8.20
  -8   9  -1    2.00   14.20
  -8   9  -1   -6.20    7.00
   8  -9   1    1.50    7.30
   8  -9   1    6.90    7.20
  -9   9  -1   11.60    7.70
  -9   9  -1   -5.50   11.20
  -9   9  -1   15.00   15.20
   9  -9   1   -1.60    7.30
   9  -9   1   -6.80    7.80
   2   8  -1   56.29   13.60
   2   8  -1   50.49   20.40
  -2  -8   1   56.69    8.50
  -2  -8   1   50.09    9.80
   1   8  -1   -0.80   11.80
   1   8  -1   16.80   15.00
   1   8  -1    3.70    8.20
  -1  -8   1    2.30    5.90
  -1  -8   1    0.70    4.30
   0   8  -1   -1.00    8.00
   0   8  -1    5.40   10.20
   0   8  -1   -0.70    7.40
   0  -8   1   -6.60    5.40
   0  -8   1    3.90    6.20
  -1   8  -1   16.80   11.90
  -1   8  -1    1.20   11.30
  -1   8  -1    5.00    6.80
   1  -8   1    1.10    5.50
   1  -8   1    8.60    6.40
  -2   8  -1    4.80    6.40
  -2   8  -1    0.80    7.30
  -2   8  -1   24.30   15.00
   2  -8   1    4.90    4.10
   2  -8   1    9.20    4.30
   2  -8   1    0.40    5.90
  -3   8  -1   10.60   12.60
  -3   8  -1    8.60   11.20
   3  -8   1    4.40    4.40
   3  -8   1    4.60    5.40
   3  -8   1   -6.30    5.70
  -4   8  -1    4.80    9.00
  -4   8  -1    1.30   10.60
  -4   8  -1  -14.30    8.20
   4  -8   1    0.40    3.90
   4  -8   1    5.90    6.20
   4  -8   1    6.40    4.60
  -5   8  -1   32.20   14.40
  -5   8  -1   45.60   17.40
  -5   8  -1   32.90   11.30
   5  -8   1   63.59    9.10
   5  -8   1   73.09    8.90
   5  -8   1   66.89    9.90
  -6   8  -1   21.40   11.80
  -6   8  -1   21.10    9.20
  -6   8  -1   32.40   15.00
   6  -8   1   40.40    7.30
   6  -8   1   26.40    6.00
   6  -8   1   16.20    6.40
  -7   8  -1   55.19   18.70
  -7   8  -1   62.69   15.40
   7  -8   1   64.49   10.40
   7  -8   1   61.39    9.80
   7  -8   1   78.19   10.70
  -8   8  -1   66.49   12.90
  -8   8  -1   54.79   18.40
  -8   8  -1   50.19   14.10
   8  -8   1   49.50    8.90
   8  -8   1   68.59    9.70
   8  -8   1   47.40    9.40
  -9   8  -1    6.20   12.50
  -9   8  -1   31.40   12.70
  -9   8  -1   -6.30    8.00
   9  -8   1   14.40    7.60
   9  -8   1   20.40    8.10
   9  -8   1    6.30    6.80
 -10   8  -1   -9.70    8.60
 -10   8  -1   20.40   11.10
  10  -8   1   -2.40    8.30
  10  -8   1    4.10    7.50
  10  -8   1   -6.20    8.20
   3   7  -1   -3.60    9.50
   3   7  -1   10.90    9.30
  -3  -7   1    5.00    6.30
  -3  -7   1    8.30    6.10
   2   7  -1   -2.40   12.70
   2   7  -1   -0.70    7.90
   2   7  -1   -6.10    9.80
  -2  -7   1    4.80    5.50
  -2  -7   1    3.90    5.60
   1   7  -1   18.40   13.90
   1   7  -1   -1.70   10.60
   1   7  -1   58.39   11.30
  -1  -7   1   35.00    6.40
  -1  -7   1   34.30    7.20
   0   7  -1  130.29   17.40
   0   7  -1  100.69   21.70
   0   7  -1   86.19   22.20
   0  -7   1  104.39   13.20
   0  -7   1  132.59   14.40
   0  -7   1  141.69   12.80
  -1   7  -1   49.20   15.00
  -1   7  -1   17.10   12.30
  -1   7  -1   59.59   10.40
   1  -7   1   37.40    6.70
   1  -7   1   51.99    6.80
   1  -7   1   51.89    7.40
  -2   7  -1  185.08   17.80
  -2   7  -1  111.39   23.80
  -2   7  -1   75.49   19.80
   2  -7   1  133.29   14.90
   2  -7   1  159.08   14.40
   2  -7   1  140.89   14.70
  -3   7  -1  101.39   12.60
  -3   7  -1   50.29   15.70
  -3   7  -1   61.49   16.20
   3  -7   1   76.89   10.10
   3  -7   1   78.89    9.90
   3  -7   1   94.09    9.70
  -4   7  -1   -2.90    7.00
  -4   7  -1    7.10    6.20
  -4   7  -1    5.60   10.20
  -4   7  -1    4.20    7.20
   4  -7   1    4.30    3.20
   4  -7   1    3.40    3.90
   4  -7   1    3.70    5.00
  -5   7  -1  144.89   20.90
  -5   7  -1  122.79   22.20
  -5   7  -1  121.69   23.30
   5  -7   1  155.58   15.30
   5  -7   1  154.28   14.90
   5  -7   1  153.88   14.90
   5  -7   1  136.29   14.60
  -6   7  -1   28.20   11.00
  -6   7  -1   32.20   13.80
  -6   7  -1   22.60    8.40
   6  -7   1   28.40    5.30
   6  -7   1   22.30    5.30
   6  -7   1   38.70    6.70
   6  -7   1   29.90    5.70
  -7   7  -1  152.88   25.50
  -7   7  -1  178.28   21.80
  -7   7  -1  171.98   19.90
   7  -7   1  135.19   16.30
   7  -7   1  133.19   15.60
   7  -7   1  149.49   16.60
  -8   7  -1   29.70    9.10
  -8   7  -1   27.40   13.50
  -8   7  -1   27.70    9.40
   8  -7   1   42.10    7.30
   8  -7   1   26.40    7.50
   8  -7   1   31.20    7.00
  -9   7  -1   17.30    6.40
  -9   7  -1    2.60    8.90
   9  -7   1    9.40    7.10
   9  -7   1   -0.90    6.80
   9  -7   1   -9.70    3.70
 -10   7  -1    5.80    8.80
 -10   7  -1   10.50    7.40
  10  -7   1    6.30    8.70
  10  -7   1   -4.70    5.30
   4   6  -1   14.70   13.20
   4   6  -1   15.30    9.40
  -4  -6   1    5.40    5.50
  -4  -6   1   18.60    5.00
   3   6  -1   16.30    9.20
   3   6  -1   14.00   10.30
  -3  -6   1   22.40    4.80
  -3  -6   1   19.50    4.90
   2   6  -1   11.10    7.80
   2   6  -1    6.60    7.40
   2   6  -1   11.60    9.30
  -2  -6   1    1.30    4.50
  -2  -6   1    1.20    3.00
  -2  -6   1    4.90    4.60
   1   6  -1  167.28   28.10
   1   6  -1  242.88   23.40
   1   6  -1  122.09   25.90
  -1  -6   1  206.08   18.70
  -1  -6   1  197.28   19.70
  -1  -6   1  199.28   18.70
   0   6  -1    6.80    4.70
   0   6  -1    5.20    9.00
   0   6  -1    3.70    9.70
   0  -6   1    6.90    3.10
   0  -6   1   15.00    3.50
   0  -6   1   12.00    3.70
  -1   6  -1   72.29   17.10
  -1   6  -1   42.60   13.20
  -1   6  -1   97.49   12.40
   1  -6   1   86.29    9.70
   1  -6   1   77.19    8.40
   1  -6   1   74.39    8.50
  -2   6  -1   84.19   17.10
  -2   6  -1  131.99   14.10
  -2   6  -1   36.20   14.20
   2  -6   1  103.59   11.00
   2  -6   1   89.69    9.80
   2  -6   1   94.89    9.90
  -3   6  -1   23.00   11.10
  -3   6  -1   33.40    7.40
  -3   6  -1   19.90    8.80
  -3   6  -1   29.70    3.40
   3  -6   1   21.90    4.70
   3  -6   1   27.90    5.00
   3  -6   1   22.00    3.10
   3  -6   1   33.00    5.00
  -4   6  -1   14.60    5.50
  -4   6  -1   15.70    7.90
  -4   6  -1    1.80    7.40
  -4   6  -1   17.10   10.00
   4  -6   1   20.30    3.80
   4  -6   1   18.20    4.60
   4  -6   1   20.90    4.90
   4  -6   1   13.30    3.00
  -5   6  -1   10.80    7.40
  -5   6  -1   18.90    8.20
  -5   6  -1   17.40    5.00
  -5   6  -1   10.40    7.40
   5  -6   1   13.20    3.60
   5  -6   1    9.50    4.50
   5  -6   1   11.80    3.60
   5  -6   1   14.40    3.90
  -6   6  -1   39.10    6.60
  -6   6  -1   19.30   10.70
  -6   6  -1   23.80    6.60
  -6   6  -1   23.20    8.70
  -6   6  -1   25.80    7.80
   6  -6   1   29.70    6.30
   6  -6   1   27.00    4.70
   6  -6   1   19.50    3.90
   6  -6   1   28.10    5.60
   6  -6   1   36.50    5.70
  -7   6  -1   37.20    9.00
  -7   6  -1   47.10    9.50
  -7   6  -1   31.10   11.10
   7  -6   1   42.00    7.60
   7  -6   1   35.40    6.70
   7  -6   1   32.50    6.40
  -8   6  -1   68.79   14.90
  -8   6  -1   65.29   10.90
  -8   6  -1   34.30    9.80
   8  -6   1   66.19   10.80
   8  -6   1   68.99   10.10
   8  -6   1   64.49    8.80
  -9   6  -1  111.29   15.20
  -9   6  -1   89.69   12.70
   9  -6   1   96.19   13.90
   9  -6   1   85.89   12.40
 -10   6  -1   11.90    8.50
 -10   6  -1   12.90   10.80
 -10   6  -1   10.30    7.90
  10  -6   1    3.70    6.30
  10  -6   1   -1.10    7.70
   5   5  -1    6.70    6.50
   5   5  -1    6.60    8.30
  -5  -5   1    4.40    3.90
  -5  -5   1   -2.50    5.40
   4   5  -1   16.70   10.90
   4   5  -1   16.10    7.20
  -4  -5   1   20.40    4.70
  -4  -5   1   16.20    5.30
   3   5  -1   47.90   14.00
   3   5  -1   85.59   17.80
   3   5  -1   76.59   12.20
  -3  -5   1   68.59    8.30
  -3  -5   1   85.49    9.20
  -3  -5   1   78.99    9.40
   2   5  -1  100.29   19.70
   2   5  -1  111.79   10.60
   2   5  -1  102.59   14.60
   2   5  -1   56.89   16.00
  -2  -5   1  105.99   11.50
  -2  -5   1  104.29   10.70
  -2  -5   1  108.99   10.70
   1   5  -1   66.29    6.00
   1   5  -1   56.59   13.00
   1   5  -1   50.39    9.70
   1   5  -1   31.50   10.80
  -1  -5   1   62.39    8.30
  -1  -5   1   46.30    6.50
  -1  -5   1   58.79    6.30
  -1  -5   1   51.39    6.50
  -1  -5   1   53.69    7.30
   0   5  -1   34.90   11.50
   0   5  -1   61.59   10.40
   0   5  -1   63.29   13.80
   0  -5   1   83.19   10.00
   0  -5   1   72.59    7.50
   0  -5   1   74.59    7.90
   0  -5   1   70.69    8.10
  -1   5  -1   98.69   18.30
  -1   5  -1  133.59   14.60
  -1   5  -1   63.09   16.40
   1  -5   1  125.79   13.30
   1  -5   1  111.19   11.10
   1  -5   1  112.69   11.20
   1  -5   1  128.99   12.20
  -2   5  -1  186.58   15.40
  -2   5  -1  137.89   12.00
  -2   5  -1  134.59   11.90
  -2   5  -1   84.69   18.90
  -2   5  -1  129.39   19.70
   2  -5   1  134.59   12.80
   2  -5   1  146.29   13.90
   2  -5   1  123.79   11.90
   2  -5   1  144.99   13.10
  -3   5  -1  434.66   51.79
  -3   5  -1  634.34   50.69
   3  -5   1  558.84   49.70
   3  -5   1  589.64   49.50
   3  -5   1  575.44   49.40
   3  -5   1  517.35   49.00
  -4   5  -1   54.89    6.80
  -4   5  -1   25.60   10.00
  -4   5  -1   52.89   10.10
  -4   5  -1   25.50    8.30
   4  -5   1   37.90    5.40
   4  -5   1   41.20    5.60
   4  -5   1   37.00    5.60
   4  -5   1   44.20    5.90
  -5   5  -1   30.20    9.40
  -5   5  -1   49.30   12.00
  -5   5  -1   68.79    8.30
  -5   5  -1   60.59   10.40
   5  -5   1   49.80    6.30
   5  -5   1   65.89    7.50
   5  -5   1   66.89    7.90
   5  -5   1   61.49    7.20
   5  -5   1   69.99    8.10
  -6   5  -1   79.69   15.20
  -6   5  -1   76.59   10.80
  -6   5  -1   52.29   10.50
  -6   5  -1   80.89   12.70
   6  -5   1   79.59    8.70
   6  -5   1   94.69   10.60
   6  -5   1   74.19    8.00
   6  -5   1   67.99    9.20
  -7   5  -1   24.20    5.80
  -7   5  -1   37.00   10.00
  -7   5  -1   26.10    6.90
   7  -5   1   16.10    6.40
   7  -5   1   23.60    4.50
   7  -5   1   30.20    6.30
   7  -5   1   22.30    5.20
  -8   5  -1  108.69   13.20
  -8   5  -1  134.29   15.10
  -8   5  -1   82.59   14.90
   8  -5   1   94.59   11.50
   8  -5   1   96.69   12.80
   8  -5   1  117.99   14.10
  -9   5  -1   85.69   12.50
  -9   5  -1   69.09   12.80
  -9   5  -1   95.39   15.60
   9  -5   1  110.49   13.30
   9  -5   1  104.49   14.00
   9  -5   1   67.49   11.30
 -10   5  -1   -1.50    9.10
 -10   5  -1    3.70    7.20
 -10   5  -1   10.80    5.80
  10  -5   1    0.10    9.30
  10  -5   1   12.50    7.80
   6   4  -1   -1.60    9.60
   6   4  -1    8.60    9.80
  -6  -4   1    0.20    4.60
  -6  -4   1    2.90    5.20
   5   4  -1  119.29   18.80
   5   4  -1   91.89   15.50
   5   4  -1  111.89   13.60
  -5  -4   1   97.89   11.60
  -5  -4   1   93.89   11.60
  -5  -4   1  111.29   11.90
   4   4  -1   14.00    6.30
   4   4  -1   24.60    6.00
   4   4  -1   31.60   10.90
  -4  -4   1   22.80    4.80
  -4  -4   1   24.40    4.30
  -4  -4   1   20.40    4.80
   3   4  -1  333.67   34.90
   3   4  -1  359.16   39.00
   3   4  -1  391.26   33.30
  -3  -4   1  344.97   32.20
  -3  -4   1  352.96   32.50
  -3  -4   1  358.46   32.30
   2   4  -1    1.20    5.40
   2   4  -1   -1.80    4.70
   2   4  -1   -8.90    5.70
   2   4  -1    1.80    2.50
  -2  -4   1    3.00    3.10
  -2  -4   1   -2.40    2.60
  -2  -4   1    0.40    2.30
  -2  -4   1    1.70    2.60
   1   4  -1   55.79    8.70
   1   4  -1   43.30    5.10
   1   4  -1   22.00    8.40
   1   4  -1   39.60   11.30
  -1  -4   1   58.19    5.90
  -1  -4   1   43.70    5.30
  -1  -4   1   53.29    6.70
  -1  -4   1   57.69    5.80
  -1  -4   1   41.90    5.90
   0   4  -1  625.94   54.09
   0  -4   1  599.34   51.49
   0  -4   1  601.94   52.49
   0  -4   1  600.44   52.09
   0  -4   1  590.34   53.19
   0  -4   1  555.94   51.49
   0  -4   1  595.64   52.19
  -1   4  -1  118.09   12.90
  -1   4  -1   74.39   14.70
  -1   4  -1   72.89   15.20
   1  -4   1  111.39   11.80
   1  -4   1   98.29   10.60
   1  -4   1  120.09   10.70
   1  -4   1  122.79   10.50
  -2   4  -1  320.57   26.80
  -2   4  -1  339.17   28.30
  -2   4  -1  272.37   26.80
  -2   4  -1  214.08   30.20
   2  -4   1  330.77   27.50
   2  -4   1  317.67   27.10
   2  -4   1  286.37   26.70
   2  -4   1  325.97   27.30
  -3   4  -1  192.88   17.00
  -3   4  -1  197.88   18.00
  -3   4  -1  145.99   21.60
  -3   4  -1  187.18   21.50
  -3   4  -1  161.48   23.60
   3  -4   1  191.38   17.50
   3  -4   1  189.18   17.50
   3  -4   1  189.68   17.50
   3  -4   1  196.68   17.70
  -4   4  -1   27.80    6.00
  -4   4  -1   13.70    6.90
  -4   4  -1    3.20    4.60
   4  -4   1   27.30    4.40
   4  -4   1   17.20    2.70
   4  -4   1   22.00    3.30
   4  -4   1   17.40    3.70
   4  -4   1   19.80    3.50
  -5   4  -1   -5.00    3.50
  -5   4  -1   -1.60    3.10
  -5   4  -1    1.70    4.70
  -5   4  -1   -3.00    4.00
   5  -4   1   -1.40    1.40
   5  -4   1    0.50    2.30
   5  -4   1   -3.10    2.50
   5  -4   1    1.60    2.30
  -6   4  -1   -0.20    4.30
  -6   4  -1    3.60    4.80
  -6   4  -1    4.30    3.10
  -6   4  -1   -1.60    3.80
   6  -4   1    2.50    2.40
   6  -4   1   -0.70    3.70
   6  -4   1    3.80    3.10
   6  -4   1    6.10    3.20
  -7   4  -1   23.70    5.70
  -7   4  -1   20.90    6.10
  -7   4  -1    9.30    5.30
   7  -4   1    5.70    3.40
   7  -4   1   11.90    5.10
   7  -4   1   10.30    4.50
  -8   4  -1   -1.90    3.30
  -8   4  -1    4.80    7.50
  -8   4  -1    5.60    5.60
   8  -4   1    4.10    3.90
   8  -4   1   13.30    7.00
   8  -4   1   -4.60    5.30
  -9   4  -1   16.40    6.50
  -9   4  -1   13.70    5.20
  -9   4  -1   36.10    8.80
   9  -4   1   13.40    8.80
   9  -4   1   27.60    6.60
   9  -4   1   21.70    6.00
 -10   4  -1   66.99   13.20
 -10   4  -1   25.60    8.40
 -10   4  -1   36.70    9.00
  10  -4   1   29.70    9.00
  10  -4   1   35.60    7.60
  10  -4   1   53.09    9.90
   7   3  -1    0.40    8.20
   7   3  -1    0.70    8.80
  -7  -3   1    7.90    5.00
  -7  -3   1    8.10    5.50
  -7  -3   1   -3.70    5.40
   6   3  -1   45.60    9.50
   6   3  -1   28.70   10.80
   6   3  -1   47.00   11.60
  -6  -3   1   45.90    7.70
  -6  -3   1   41.10    6.10
  -6  -3   1   36.70    6.20
   5   3  -1    5.00    6.60
   5   3  -1   -7.50    6.00
   5   3  -1    7.70    5.60
  -5  -3   1    2.90    2.90
  -5  -3   1   -0.30    4.00
  -5  -3   1    5.00    2.80
   4   3  -1   -0.70    4.30
   4   3  -1    2.90    4.00
   4   3  -1    0.70    4.10
   4   3  -1   -1.20    4.00
  -4  -3   1    0.60    2.80
  -4  -3   1   -4.00    2.90
  -4  -3   1    5.20    3.30
   3   3  -1    3.20    4.20
   3   3  -1   10.70    4.50
   3   3  -1   11.90    3.80
   3   3  -1   16.50    7.30
  -3  -3   1   12.10    2.50
  -3  -3   1   10.40    3.00
  -3  -3   1   15.10    3.50
  -3  -3   1   11.30    3.00
   2   3  -1  101.49   18.90
   2   3  -1  180.78   21.90
   2   3  -1  176.08   17.70
   2   3  -1  180.38   15.90
  -2  -3   1  171.08   15.30
  -2  -3   1  166.78   16.00
  -2  -3   1  165.48   15.30
  -2  -3   1  171.98   15.60
   1   3  -1  683.63   56.59
   1   3  -1  496.45   59.69
   1   3  -1  630.94   58.29
  -1  -3   1  600.24   56.49
  -1  -3   1  691.63   56.59
  -1  -3   1  657.23   56.79
  -1  -3   1  672.83   56.59
  -1  -3   1  658.13   57.29
   0   3  -1  115.89   12.00
   0   3  -1   81.19   14.60
   0   3  -1   83.89   14.80
   0  -3   1  131.69   11.00
   0  -3   1  117.09   11.00
   0  -3   1  118.49   10.80
   0  -3   1  130.69   11.90
   0  -3   1  117.99   10.30
   0  -3   1  109.69   10.50
  -1   3  -1  123.69   11.20
  -1   3  -1   86.09   14.00
  -1   3  -1   65.59   13.60
  -1   3  -1  111.69    9.60
   1  -3   1  109.99    9.60
   1  -3   1  111.89   10.40
   1  -3   1  117.59   10.10
   1  -3   1   77.49   10.90
   1  -3   1  114.39   10.10
  -2   3  -1  542.75   49.10
  -2   3  -1  615.14   49.80
  -2   3  -1  452.15   50.99
  -2   3  -1  549.85   49.50
   2  -3   1  561.44   49.50
   2  -3   1  566.74   49.60
   2  -3   1  586.74   49.50
   2  -3   1  597.24   49.60
  -3   3  -1   58.49    5.70
  -3   3  -1   33.90    7.60
  -3   3  -1   65.19    8.90
  -3   3  -1   45.10    9.40
  -3   3  -1   61.19    5.80
   3  -3   1   59.69    5.90
   3  -3   1   63.79    6.60
   3  -3   1   43.90    8.50
   3  -3   1   65.29    7.00
   3  -3   1   64.79    6.30
   3  -3   1   60.29    5.70
  -4   3  -1  844.72   74.79
  -4   3  -1  946.71   76.29
  -4   3  -1  939.21   76.99
  -4   3  -1  727.43   77.59
   4  -3   1  885.21   76.09
   4  -3   1  804.02   75.09
   4  -3   1  874.51   75.49
   4  -3   1  879.61   75.09
  -5   3  -1    7.50    1.40
  -5   3  -1    8.30    3.90
  -5   3  -1   13.30    3.20
  -5   3  -1    7.60    4.20
  -5   3  -1    3.10    2.30
   5  -3   1    7.50    4.10
   5  -3   1    6.10    2.50
   5  -3   1    8.00    2.90
   5  -3   1    7.30    2.20
  -6   3  -1  282.47   28.40
  -6   3  -1  321.77   28.20
  -6   3  -1  296.97   28.20
   6  -3   1  294.87   28.60
   6  -3   1  290.17   27.70
   6  -3   1  305.17   27.90
  -7   3  -1    2.60    2.70
  -7   3  -1   -0.40    4.10
  -7   3  -1    6.30    6.20
  -7   3  -1   -2.80    2.50
   7  -3   1    1.50    5.10
   7  -3   1    4.20    3.80
   7  -3   1    2.70    4.60
  -8   3  -1   11.60    4.30
  -8   3  -1   23.20    7.20
  -8   3  -1    6.20    3.90
   8  -3   1   18.00    5.80
   8  -3   1    2.10    4.70
   8  -3   1   10.00    4.70
  -9   3  -1   34.30    8.00
  -9   3  -1   36.00   11.10
  -9   3  -1   34.90    6.90
   9  -3   1   29.70   10.20
   9  -3   1   57.79    9.80
   9  -3   1   49.40    9.00
 -10   3  -1  -11.60    8.80
 -10   3  -1   -3.00    5.70
 -10   3  -1    7.10    4.90
  10  -3   1   21.50    8.20
  10  -3   1   11.30    8.10
  10  -3   1   -0.70    7.40
   8   2  -1   79.29   14.60
   8   2  -1   65.39   14.10
  -8  -2   1   53.79    8.60
  -8  -2   1   69.79   10.20
   7   2  -1   77.79   11.50
   7   2  -1   45.10   11.80
  -7  -2   1   47.20    7.50
  -7  -2   1   51.59    7.50
  -7  -2   1   70.49   10.00
   6   2  -1  101.29   14.50
   6   2  -1   91.79   13.90
   6   2  -1   79.39   12.40
  -6  -2   1   98.19   10.70
  -6  -2   1   98.39   10.90
  -6  -2   1   93.29   11.80
   5   2  -1   -0.50    3.40
   5   2  -1   -6.40    4.60
   5   2  -1   -3.30    4.90
  -5  -2   1    4.10    2.80
  -5  -2   1    3.90    4.00
  -5  -2   1    0.00    3.10
   4   2  -1  328.07   28.10
   4   2  -1  285.37   28.90
   4   2  -1  301.97   30.00
  -4  -2   1  284.77   26.30
  -4  -2   1  288.07   26.50
  -4  -2   1  275.47   26.90
   3   2  -1  171.28   18.40
   3   2  -1  160.68   17.10
   3   2  -1  183.58   16.60
  -3  -2   1  162.88   15.40
  -3  -2   1  161.28   15.70
  -3  -2   1  168.18   15.20
  -3  -2   1  159.38   15.20
   2   2  -1 1300.87  124.59
   2   2  -1 1373.46  123.29
   2   2  -1 1431.66  122.29
  -2  -2   1 1435.56  121.69
  -2  -2   1 1442.66  121.69
  -2  -2   1 1333.47  121.89
  -2  -2   1 1440.56  121.89
   1   2  -1   20.80    2.70
   1   2  -1   15.30    5.10
   1   2  -1    9.20    4.30
   1   2  -1   18.90    3.70
  -1  -2   1   20.70    2.60
  -1  -2   1   22.30    3.10
  -1  -2   1   20.30    2.60
  -1  -2   1   24.00    2.70
  -1  -2   1   20.60    2.70
   0   2  -1 1534.65  135.09
   0   2  -1 1627.44  135.89
   0  -2   1 1645.54  135.19
   0  -2   1 1454.25  135.09
   0  -2   1 1643.64  135.19
   0  -2   1 1585.04  135.29
   0  -2   1 1418.66  134.99
  -1   2  -1   56.59    9.50
  -1   2  -1   76.89    7.50
  -1   2  -1   53.19    9.60
  -1   2  -1   86.89    7.50
  -1   2  -1   88.99    7.80
   1  -2   1   64.79    7.60
   1  -2   1   47.70    9.00
   1  -2   1   89.49    7.70
   1  -2   1   92.19    7.60
   1  -2   1   90.99    7.50
   1  -2   1   93.09    7.50
  -2   2  -1    1.20    1.90
  -2   2  -1    1.50    2.70
  -2   2  -1    4.00    1.90
  -2   2  -1    3.80    0.90
   2  -2   1    3.60    1.60
   2  -2   1    4.30    1.20
   2  -2   1    7.10    1.40
   2  -2   1    3.50    0.70
   2  -2   1    1.00    2.20
   2  -2   1    5.20    1.10
  -3   2  -1  611.94   60.59
  -3   2  -1  661.43   58.59
  -3   2  -1  716.43   59.69
  -3   2  -1  737.53   60.09
   3  -2   1  663.83   59.79
   3  -2   1  680.93   58.99
   3  -2   1  684.03   59.29
   3  -2   1  658.03   59.19
  -4   2  -1  279.37   25.30
  -4   2  -1  270.27   24.50
  -4   2  -1  277.17   24.90
  -4   2  -1  254.27   23.50
   4  -2   1  276.77   24.40
   4  -2   1  260.57   24.50
   4  -2   1  266.77   23.90
   4  -2   1  279.47   25.20
  -5   2  -1  107.39   11.30
  -5   2  -1   98.29   11.00
  -5   2  -1  126.19   11.70
   5  -2   1  100.79   11.40
   5  -2   1  122.99   11.50
   5  -2   1  105.49    9.50
   5  -2   1  108.99   12.10
  -6   2  -1    2.40    2.40
  -6   2  -1    2.20    2.30
  -6   2  -1    6.50    4.10
  -6   2  -1    6.50    3.50
   6  -2   1    2.30    2.80
   6  -2   1   -1.00    4.60
   6  -2   1    2.50    0.90
   6  -2   1    5.90    3.80
  -7   2  -1  119.49   14.70
  -7   2  -1   97.89   11.60
  -7   2  -1  122.79   12.20
   7  -2   1   87.49   11.90
   7  -2   1   90.19   12.90
   7  -2   1  104.99   13.90
  -8   2  -1   39.10    8.30
  -8   2  -1   30.00    5.70
  -8   2  -1   30.90    6.60
   8  -2   1   24.90    7.50
   8  -2   1   27.50    8.00
   8  -2   1   28.30    5.90
  -9   2  -1   11.60    4.40
  -9   2  -1    8.50    8.60
  -9   2  -1    4.20    5.10
   9  -2   1    0.70    8.20
   9  -2   1    2.90    4.90
   9  -2   1   12.80    6.80
   8   1  -1   63.39   12.60
   8   1  -1   88.09   15.20
  -8  -1   1   99.59   11.30
  -8  -1   1   85.59   12.70
  -8  -1   1   83.29   10.50
   7   1  -1    7.20    7.30
   7   1  -1    6.90    7.10
  -7  -1   1    1.60    4.40
  -7  -1   1    0.90    3.50
  -7  -1   1   -3.10    5.50
   6   1  -1   32.90    6.90
   6   1  -1   26.40    7.60
   6   1  -1   26.10    6.90
  -6  -1   1   33.00    5.20
  -6  -1   1   23.70    5.20
  -6  -1   1   31.90    6.60
   5   1  -1    2.50    3.90
   5   1  -1    4.60    5.10
   5   1  -1   -2.70    4.40
  -5  -1   1    2.20    1.80
  -5  -1   1   -2.30    1.80
  -5  -1   1    5.20    4.20
   4   1  -1    9.00    4.10
   4   1  -1    3.60    1.80
   4   1  -1    3.10    2.80
   4   1  -1    6.60    1.20
   4   1  -1    9.80    4.10
  -4  -1   1    4.20    2.10
  -4  -1   1    5.10    1.90
  -4  -1   1    5.90    3.30
   3   1  -1   52.29    8.20
   3   1  -1   63.59    5.70
   3   1  -1   47.10    7.80
   3   1  -1   64.99    7.50
  -3  -1   1   60.29    6.10
  -3  -1   1   59.09    6.00
  -3  -1   1   60.99    6.60
   2   1  -1  142.69   14.50
   2   1  -1  142.79   12.60
   2   1  -1  139.39   13.90
   2   1  -1  136.49   13.40
  -2  -1   1  139.19   13.10
  -2  -1   1  142.59   12.70
  -2  -1   1  138.69   12.70
   1   1  -1  265.87   24.20
   1   1  -1  268.37   22.90
   1   1  -1  253.47   22.80
   1   1  -1  230.68   23.20
   1   1  -1  269.87   23.00
  -1  -1   1  194.98   24.20
  -1  -1   1  267.17   22.70
  -1  -1   1  272.47   22.80
  -1  -1   1  274.67   22.70
  -1  -1   1  249.88   23.60
   0   1  -1  327.67   27.00
   0   1  -1  288.67   27.80
   0   1  -1  239.08   27.80
   0   1  -1  291.67   27.00
   0   1  -1  325.47   27.00
   0   1  -1  331.47   26.90
   0  -1   1  244.28   27.70
   0  -1   1  327.87   27.00
   0  -1   1  315.87   26.90
   0  -1   1  312.77   27.00
   0  -1   1  341.47   26.90
  -1   1  -1  597.94   46.20
  -1   1  -1  548.95   46.40
  -1   1  -1  502.45   46.40
  -1   1  -1  516.35   46.30
  -1   1  -1  490.85   47.10
  -1   1  -1  537.75   46.70
  -1   1  -1  513.85   46.10
  -1   1  -1  542.75   46.30
   1  -1   1  535.65   46.40
   1  -1   1  563.84   46.30
   1  -1   1  534.65   46.10
   1  -1   1  453.95   46.60
   1  -1   1  532.35   46.10
  -2   1  -1  221.78   21.00
  -2   1  -1  233.28   21.10
  -2   1  -1  234.08   20.60
  -2   1  -1  232.18   20.80
   2  -1   1  198.58   21.20
   2  -1   1  239.18   20.50
   2  -1   1  241.68   20.30
   2  -1   1  229.98   20.90
   2  -1   1  233.18   20.80
  -3   1  -1  343.27   30.00
  -3   1  -1  345.97   30.00
  -3   1  -1  338.87   29.90
   3  -1   1  286.47   30.50
   3  -1   1  358.36   30.50
   3  -1   1  344.17   29.80
   3  -1   1  338.97   29.20
   3  -1   1  319.87   30.40
  -4   1  -1   24.80    3.90
  -4   1  -1   28.90    3.90
  -4   1  -1   25.40    3.30
  -4   1  -1    8.60    3.60
   4  -1   1   19.00    4.70
   4  -1   1   18.20    4.30
   4  -1   1   20.20    4.10
   4  -1   1   21.80    2.50
   4  -1   1   22.00    3.40
  -5   1  -1  314.97   28.80
  -5   1  -1  316.77   29.70
  -5   1  -1  297.37   28.00
  -5   1  -1  321.47   28.70
   5  -1   1  318.87   29.90
   5  -1   1  305.17   27.90
   5  -1   1  304.87   29.80
   5  -1   1  355.16   28.90
  -6   1  -1   59.89    8.50
  -6   1  -1   30.90    3.80
  -6   1  -1   39.20    5.20
  -6   1  -1   38.40    5.50
   6  -1   1   34.50    5.80
   6  -1   1   28.40    6.90
   6  -1   1   29.60    4.10
   6  -1   1   32.80    7.50
  -7   1  -1  257.27   25.00
  -7   1  -1  260.27   24.60
  -7   1  -1  266.57   26.30
   7  -1   1  257.07   27.00
   7  -1   1  274.47   27.20
   7  -1   1  257.37   24.90
  -8   1  -1   39.00    6.90
  -8   1  -1   39.60    9.80
  -8   1  -1   30.40    6.00
   8  -1   1   21.80    9.00
   8  -1   1   41.30    8.00
   8  -1   1   39.70    9.90
  -9   1  -1    6.80    5.80
  -9   1  -1    6.70    5.40
  -9   1  -1    1.10    8.50
   9  -1   1   32.80   10.30
   9  -1   1   29.50    8.60
   9  -1   1   29.20    7.70
   9   0  -1    1.50    9.40
   9   0  -1    6.90    8.70
  -9   0   1   14.60    8.50
  -9   0   1   10.50    6.10
   8   0  -1    5.80    6.10
   8   0  -1    3.50    5.30
  -8   0   1   -0.10    3.30
  -8   0   1   -3.40    3.70
  -8   0   1    0.30    4.90
   7   0  -1   36.70    7.50
   7   0  -1   20.50    7.50
  -7   0   1   22.70    7.30
  -7   0   1   22.00    4.70
  -7   0   1   17.20    5.10
   6   0  -1   64.79   10.30
   6   0  -1   60.69    9.70
   6   0  -1   67.39    8.70
   6   0  -1   73.39    8.90
  -6   0   1   69.19    8.30
  -6   0   1   69.29    7.90
  -6   0   1   69.49   10.10
   5   0  -1  252.17   25.90
   5   0  -1  280.57   24.90
   5   0  -1  261.27   25.00
   5   0  -1  251.97   26.20
  -5   0   1  262.67   24.40
  -5   0   1  267.37   25.70
  -5   0   1  291.07   24.50
   4   0  -1  477.25   43.90
   4   0  -1  477.25   43.30
   4   0  -1  495.35   44.10
   4   0  -1  495.85   43.00
  -4   0   1  501.75   42.80
  -4   0   1  455.75   42.70
  -4   0   1  481.55   43.50
   3   0  -1   66.29    7.30
   3   0  -1   75.29    7.80
   3   0  -1   73.39    7.00
   3   0  -1   74.59    8.40
  -3   0   1   65.09    7.40
  -3   0   1   73.89    6.90
  -3   0   1   65.89    6.80
   2   0  -1   59.99    6.00
   2   0  -1   51.29    5.30
   2   0  -1   53.49    5.20
   2   0  -1   54.69    5.60
   2   0  -1   56.19    5.90
  -2   0   1   55.19    5.70
  -2   0   1   51.99    5.10
  -2   0   1   51.29    5.80
  -2   0   1   57.09    5.20
   1   0  -1  365.86   31.40
   1   0  -1  363.56   31.20
   1   0  -1  342.57   31.10
   1   0  -1  361.46   31.40
   1   0  -1  366.76   31.10
   1   0  -1  350.66   31.30
   1   0  -1  367.76   31.50
  -1   0   1  350.96   31.50
  -1   0   1  373.16   31.20
  -1   0   1  353.46   31.20
  -1   0   1  375.16   31.30
  -1   0   1  352.46   31.20
  -1   0   1  341.37   31.40
  -1   0   1  332.57   31.40
  -1   0   1  359.76   31.10
   0   0  -1    1.50    0.50
   0   0  -1    2.20    0.50
   0   0  -1    2.50    0.50
   0   0  -1    1.10    0.90
   0   0  -1    2.40    0.40
   0   0  -1    1.90    0.50
   0   0   1    3.30    0.60
   0   0   1    3.50    1.10
   0   0   1    1.50    0.40
   0   0   1    2.20    0.50
   0   0   1    1.70    0.40
   0   0   1    3.00    0.70
   0   0   1    2.30    0.40
  -1   0  -1 1736.23  154.98
  -1   0  -1 1877.21  154.78
  -1   0  -1 1552.04  155.28
  -1   0  -1 1612.54  155.58
  -1   0  -1 1867.21  154.78
  -1   0  -1 1968.40  154.68
   1   0   1 1757.72  155.58
   1   0   1 1828.12  154.68
   1   0   1 1798.52  154.68
   1   0   1 1841.12  154.98
   1   0   1 1767.22  154.78
   1   0   1 1747.33  154.58
  -2   0  -1   10.00    3.70
  -2   0  -1   25.30    2.70
  -2   0  -1   28.90    3.00
  -2   0  -1   27.50    3.10
   2   0   1   21.40    2.80
   2   0   1   24.40    3.70
   2   0   1   18.80    3.70
   2   0   1   26.30    4.50
   2   0   1   33.80    3.10
  -3   0  -1  328.87   29.10
  -3   0  -1  311.17   28.50
  -3   0  -1  342.17   28.30
  -3   0  -1  319.27   28.40
   3   0   1  313.77   28.40
   3   0   1  317.97   28.60
   3   0   1  335.67   30.00
   3   0   1  313.17   29.30
   3   0   1  286.17   29.20
  -4   0  -1    1.80    2.20
  -4   0  -1    3.00    3.20
  -4   0  -1    3.40    2.30
  -4   0  -1    1.70    1.30
   4   0   1    3.60    2.40
   4   0   1   -1.20    2.20
   4   0   1    8.90    4.20
   4   0   1    4.50    2.00
   4   0   1    8.50    3.10
  -5   0  -1   19.60    4.60
  -5   0  -1   17.00    2.60
  -5   0  -1   27.80    4.20
  -5   0  -1   22.80    3.70
   5   0   1   19.10    3.60
   5   0   1   17.10    5.00
   5   0   1   18.70    6.00
   5   0   1   20.90    4.30
   5   0   1   19.20    4.30
  -6   0  -1   63.29    8.70
  -6   0  -1   54.09    7.40
  -6   0  -1   52.69    7.40
   6   0   1   44.20    9.30
   6   0   1   54.39    7.20
   6   0   1   52.49    9.30
   6   0   1   62.49    7.70
  -7   0  -1   33.60    6.40
  -7   0  -1   30.50    8.10
  -7   0  -1   37.60    6.60
   7   0   1   41.20    9.40
   7   0   1   40.80    7.00
   7   0   1   47.70    9.90
  -8   0  -1    0.10    3.10
  -8   0  -1   19.80    7.70
  -8   0  -1   15.10    5.20
   8   0   1    7.80    6.20
   8   0   1    2.30    7.40
  -9   0  -1   -1.70    5.00
  -9   0  -1   -5.20    8.00
  -9   0  -1    5.90    6.00
   9   0   1   13.90    9.20
   9   0   1    9.70   10.10
   9  -1  -1   38.50   11.00
   9  -1  -1    9.70    8.20
  -9   1   1   16.10    5.00
  -9   1   1   15.50    5.30
  -9   1   1   23.50    9.10
   8  -1  -1   -0.30    6.50
   8  -1  -1   -1.60    5.40
   8  -1  -1   15.30    8.00
  -8   1   1    2.70    4.60
  -8   1   1    4.50    5.20
  -8   1   1   15.80    4.30
   7  -1  -1  369.66   37.30
   7  -1  -1  378.76   36.00
   7  -1  -1  429.56   38.20
  -7   1   1  390.66   37.20
  -7   1   1  370.26   35.10
  -7   1   1  394.56   35.50
   6  -1  -1    6.50    5.70
   6  -1  -1   12.30    4.50
   6  -1  -1   25.30    3.90
   6  -1  -1   26.30    5.10
  -6   1   1   18.20    6.00
  -6   1   1   21.10    4.50
  -6   1   1   14.30    3.70
   5  -1  -1  223.68   20.30
   5  -1  -1  189.98   21.00
   5  -1  -1  215.18   20.80
   5  -1  -1  213.18   19.60
  -5   1   1  223.38   20.00
  -5   1   1  214.38   20.80
  -5   1   1  215.98   19.80
   4  -1  -1   46.50    4.80
   4  -1  -1   47.20    5.60
   4  -1  -1   47.20    6.20
   4  -1  -1   54.09    6.70
  -4   1   1   63.39    6.90
  -4   1   1   42.50    5.10
  -4   1   1   42.70    4.30
  -4   1   1   45.10    5.10
  -4   1   1   40.10    4.00
   3  -1  -1   78.09    7.20
   3  -1  -1   81.29    8.50
   3  -1  -1   75.89    7.90
   3  -1  -1   78.59    7.50
  -3   1   1   71.09    7.40
  -3   1   1   76.39    6.90
  -3   1   1   68.09    7.40
  -3   1   1   80.49    7.50
  -3   1   1   76.79    8.00
   2  -1  -1  241.38   21.90
   2  -1  -1  245.68   21.70
   2  -1  -1  253.17   21.80
   2  -1  -1  241.78   21.70
   2  -1  -1  244.58   22.20
   2  -1  -1  226.08   22.00
   2  -1  -1  261.47   21.60
  -2   1   1  242.98   21.80
  -2   1   1  249.28   21.60
  -2   1   1  241.38   21.70
  -2   1   1  239.38   22.00
  -2   1   1  250.77   21.60
  -2   1   1  257.17   21.60
  -2   1   1  236.88   22.10
  -2   1   1  236.58   22.20
   1  -1  -1   57.09    5.10
   1  -1  -1   53.49    4.80
   1  -1  -1   51.69    4.80
   1  -1  -1   52.59    4.90
   1  -1  -1   54.79    4.70
   1  -1  -1   50.39    5.00
   1  -1  -1   51.29    5.00
  -1   1   1   49.00    5.60
  -1   1   1   49.00    4.90
  -1   1   1   46.10    4.90
  -1   1   1   57.19    4.80
  -1   1   1   55.99    5.50
  -1   1   1   50.39    4.70
  -1   1   1   50.09    4.90
  -1   1   1   49.99    5.00
  -1   1   1   49.40    4.90
   0  -1  -1   29.20    5.80
   0  -1  -1   41.00    3.50
   0  -1  -1   36.80    3.70
   0  -1  -1   39.40    3.60
   0  -1  -1   38.20    3.80
   0  -1  -1   38.90    5.50
   0  -1  -1   38.20    3.80
   0   1   1   35.50    3.80
   0   1   1   38.20    3.80
   0   1   1   33.20    5.70
   0   1   1   36.30    3.80
   0   1   1   39.00    3.50
   0   1   1   44.50    5.70
   0   1   1   37.80    3.70
  -1  -1  -1  114.19    9.70
  -1  -1  -1  100.29    9.60
  -1  -1  -1  116.59    9.50
  -1  -1  -1  112.79    9.70
  -1  -1  -1   99.89    9.40
   1   1   1  108.89    9.40
   1   1   1  100.89    9.90
   1   1   1   62.39   11.40
   1   1   1  108.39   12.00
  -2  -1  -1  585.64   51.29
  -2  -1  -1  566.44   51.39
  -2  -1  -1  594.04   51.29
  -2  -1  -1  600.44   51.19
   2   1   1  582.74   51.49
   2   1   1  589.44   51.19
   2   1   1  578.84   51.89
   2   1   1  571.74   53.29
  -3  -1  -1  400.66   36.60
  -3  -1  -1  421.86   37.00
  -3  -1  -1  427.86   36.50
  -3  -1  -1  425.66   36.60
   3   1   1  412.56   37.60
   3   1   1  435.16   36.60
   3   1   1  324.77   38.50
   3   1   1  426.66   39.00
  -4  -1  -1  106.79   10.80
  -4  -1  -1  103.79   10.20
  -4  -1  -1  106.79   10.60
  -4  -1  -1  104.09   11.60
   4   1   1  114.09   14.30
   4   1   1  112.89   14.40
   4   1   1  118.49   12.10
   4   1   1  108.69   10.80
  -5  -1  -1  229.18   22.30
  -5  -1  -1  222.98   21.10
  -5  -1  -1  243.88   21.80
  -5  -1  -1  232.78   21.80
   5   1   1  258.77   24.10
   5   1   1  215.28   24.40
   5   1   1  248.18   24.10
   5   1   1  229.68   21.60
  -6  -1  -1  128.99   13.10
  -6  -1  -1  122.39   13.60
  -6  -1  -1  125.99   14.90
   6   1   1  138.09   15.40
   6   1   1  152.58   16.70
   6   1   1  115.19   16.80
  -7  -1  -1   -1.40    5.40
  -7  -1  -1    2.60    3.30
  -7  -1  -1    5.50    3.20
   7   1   1    3.30    6.60
   7   1   1    9.50    7.00
  -8  -1  -1   62.59   11.40
  -8  -1  -1   77.89   10.50
  -8  -1  -1   70.79   10.00
   8   1   1   73.49   14.40
   8   1   1   85.39   13.50
  10  -2  -1    6.00    8.00
  10  -2  -1    5.50    9.90
  10  -2  -1   10.60    7.40
 -10   2   1   -1.60    9.00
 -10   2   1    4.00    6.40
   9  -2  -1   26.30    8.50
   9  -2  -1   48.10   11.20
   9  -2  -1   41.70    8.80
  -9   2   1   23.50    6.90
  -9   2   1   34.50   10.40
  -9   2   1   28.20    5.60
   8  -2  -1   13.70    6.50
   8  -2  -1   16.20    8.00
   8  -2  -1   13.30    5.20
  -8   2   1   25.90    7.10
  -8   2   1   24.20    5.70
  -8   2   1   21.30    4.40
   7  -2  -1    1.70    3.00
   7  -2  -1   -1.50    5.40
   7  -2  -1    3.40    4.40
  -7   2   1   -0.90    3.80
  -7   2   1    2.40    3.30
  -7   2   1    5.60    3.10
   6  -2  -1  105.39   12.00
   6  -2  -1  109.59   10.30
   6  -2  -1  117.29   12.00
   6  -2  -1  111.49   13.20
  -6   2   1  119.69   11.90
  -6   2   1  109.99   11.10
  -6   2   1  100.39    9.80
  -6   2   1  117.09   13.40
  -6   2   1  105.19   10.40
   5  -2  -1  150.18   13.40
   5  -2  -1  157.38   14.50
   5  -2  -1  158.48   15.70
   5  -2  -1  131.59   14.40
  -5   2   1  135.29   13.20
  -5   2   1  143.19   14.40
  -5   2   1  158.18   14.10
  -5   2   1  137.59   14.50
  -5   2   1  159.68   15.90
   4  -2  -1  461.55   42.70
   4  -2  -1  487.85   42.60
   4  -2  -1  511.95   43.40
   4  -2  -1  501.15   42.10
  -4   2   1  423.66   42.30
  -4   2   1  489.25   43.00
  -4   2   1  493.55   42.60
  -4   2   1  485.85   43.30
   3  -2  -1  968.10   85.19
   3  -2  -1  989.50   85.19
   3  -2  -1  940.11   85.49
   3  -2  -1 1000.80   85.09
   3  -2  -1  984.20   85.49
   3  -2  -1  986.40   85.99
   3  -2  -1 1006.00   85.49
  -3   2   1  993.60   85.69
  -3   2   1  967.60   86.39
  -3   2   1  939.31   85.39
   2  -2  -1  169.08   15.10
   2  -2  -1  157.98   15.20
   2  -2  -1  175.98   15.00
   2  -2  -1  170.18   15.10
   2  -2  -1  167.78   15.40
   2  -2  -1  171.68   15.10
   2  -2  -1  160.98   15.30
  -2   2   1  164.08   15.20
  -2   2   1  182.28   17.50
  -2   2   1  160.48   15.30
   1  -2  -1   34.40    5.70
   1  -2  -1   37.10    4.40
   1  -2  -1   42.20    3.90
   1  -2  -1   35.20    4.30
   1  -2  -1   44.30    4.10
   1  -2  -1   42.30    4.30
   1  -2  -1   44.50    4.80
  -1   2   1   34.70    4.10
  -1   2   1   40.10    4.00
  -1   2   1   32.60    7.50
  -1   2   1   43.70    4.00
  -1   2   1   47.60    6.50
  -1   2   1   42.10    3.90
  -1   2   1   42.70    4.30
   0  -2  -1  290.27   25.50
   0  -2  -1  271.17   25.00
   0  -2  -1  290.57   24.70
   0  -2  -1  284.47   24.90
   0  -2  -1  293.87   25.10
   0   2   1  319.77   27.50
   0   2   1  274.37   24.70
   0   2   1  267.97   25.00
  -1  -2  -1   40.40    4.30
  -1  -2  -1   36.60    3.80
  -1  -2  -1   34.10    3.60
  -1  -2  -1   37.20    3.70
  -1  -2  -1   44.00    4.70
   1   2   1   21.80    7.60
   1   2   1   42.80    4.50
   1   2   1   32.50    3.80
   1   2   1   34.40    6.80
  -2  -2  -1 1398.76  122.59
  -2  -2  -1 1427.16  122.79
  -2  -2  -1 1382.66  122.99
  -2  -2  -1 1442.66  122.59
   2   2   1 1489.75  123.29
   2   2   1 1277.27  124.99
  -3  -2  -1  110.19   10.20
  -3  -2  -1  104.39   10.40
  -3  -2  -1   96.19   10.30
  -3  -2  -1  109.69   10.30
   3   2   1  100.29   11.10
   3   2   1   87.79   14.70
   3   2   1  105.69   14.00
  -4  -2  -1   91.59    8.90
  -4  -2  -1   64.59    9.10
  -4  -2  -1   97.29    9.70
  -4  -2  -1   85.49    9.00
   4   2   1  106.29   14.00
   4   2   1   94.29   14.50
   4   2   1   88.99   11.30
  -5  -2  -1   23.00    4.90
  -5  -2  -1   26.20    5.30
  -5  -2  -1   20.40    4.80
   5   2   1   21.20    6.90
   5   2   1   36.10    7.50
   5   2   1   23.80    7.80
  -6  -2  -1    4.10    3.10
  -6  -2  -1   -0.20    4.00
  -6  -2  -1    5.80    4.70
   6   2   1    5.90    6.40
   6   2   1    6.80    7.00
  -7  -2  -1   28.50    5.60
  -7  -2  -1   15.70    6.60
  -7  -2  -1   41.30    6.20
   7   2   1   48.40   10.60
   7   2   1   34.40   10.20
  10  -3  -1   42.40   10.10
  10  -3  -1   50.89    9.20
  10  -3  -1   58.69   13.20
 -10   3   1   49.20   10.80
 -10   3   1   66.09    9.80
 -10   3   1   43.10    8.50
   9  -3  -1   65.89   10.00
   9  -3  -1   82.99   13.50
   9  -3  -1   70.89   11.00
  -9   3   1   51.29    8.40
  -9   3   1   68.89    9.10
  -9   3   1   48.40   10.50
   8  -3  -1    5.50    6.90
   8  -3  -1    8.60    5.30
   8  -3  -1   -3.30    2.90
  -8   3   1    6.40    7.20
  -8   3   1    1.60    3.90
  -8   3   1    1.70    4.60
   7  -3  -1   25.30    6.20
   7  -3  -1   35.00    6.40
   7  -3  -1   31.20    5.90
   7  -3  -1   23.50    3.70
  -7   3   1   20.50    5.30
  -7   3   1   24.00    7.80
  -7   3   1   26.80    5.70
   6  -3  -1  172.08   17.30
   6  -3  -1  177.28   18.80
   6  -3  -1  173.88   16.30
   6  -3  -1  182.88   17.30
  -6   3   1  178.98   17.70
  -6   3   1  186.68   17.30
  -6   3   1  163.38   18.60
  -6   3   1  181.48   18.60
   5  -3  -1    9.10    3.50
   5  -3  -1    8.50    4.00
   5  -3  -1   13.70    3.10
   5  -3  -1   10.20    2.80
   5  -3  -1    8.80    2.20
  -5   3   1   12.10    3.70
  -5   3   1    8.70    4.00
  -5   3   1    5.20    4.20
   4  -3  -1  444.66   41.00
   4  -3  -1  468.05   41.50
   4  -3  -1  444.96   41.40
   4  -3  -1  449.36   41.10
   4  -3  -1  470.85   41.70
   4  -3  -1  474.35   42.10
   4  -3  -1  499.65   41.30
  -4   3   1  474.55   43.10
  -4   3   1  502.05   44.20
  -4   3   1  443.36   41.80
   3  -3  -1  187.48   17.20
   3  -3  -1  185.78   16.60
   3  -3  -1  179.28   16.90
   3  -3  -1  188.38   16.90
   3  -3  -1  188.08   16.90
   3  -3  -1  186.78   16.90
   3  -3  -1  192.18   17.40
  -3   3   1  153.08   19.30
  -3   3   1  145.89   18.50
  -3   3   1  198.88   18.30
   2  -3  -1  301.57   28.90
   2  -3  -1  320.67   29.60
   2  -3  -1  351.36   29.40
   2  -3  -1  343.47   28.90
   2  -3  -1  336.07   28.80
   2  -3  -1  353.46   29.20
  -2   3   1  334.37   29.50
  -2   3   1  299.17   28.90
  -2   3   1  250.07   32.20
  -2   3   1  341.17   30.70
   1  -3  -1   17.00    3.00
   1  -3  -1   16.10    3.50
   1  -3  -1   20.10    2.60
   1  -3  -1   19.00    2.20
   1  -3  -1   12.70    2.40
  -1   3   1   20.40    5.80
  -1   3   1   19.10    2.30
  -1   3   1   10.00    5.60
  -1   3   1   13.50    5.50
  -1   3   1   16.70    2.00
  -1   3   1   16.50    2.10
   0  -3  -1   27.80    3.40
   0  -3  -1   33.10    3.40
   0  -3  -1   27.20    2.90
   0  -3  -1   29.70    4.60
   0  -3  -1   28.90    3.80
   0   3   1   29.70    3.00
   0   3   1   22.30    3.10
   0   3   1   11.00    7.10
   0   3   1   26.70    7.20
  -1  -3  -1   32.30    4.10
  -1  -3  -1   28.80    3.90
  -1  -3  -1   36.00    5.00
  -1  -3  -1   33.00    3.60
   1   3   1   36.90    4.40
   1   3   1   22.10    8.40
   1   3   1   48.40    9.00
  -2  -3  -1    1.60    1.80
  -2  -3  -1   -0.40    2.60
  -2  -3  -1    2.80    1.60
  -2  -3  -1    3.80    2.50
   2   3   1    7.40    5.90
   2   3   1   -1.40    5.30
   2   3   1    6.60    2.70
  -3  -3  -1   55.79    6.70
  -3  -3  -1   55.69    6.10
  -3  -3  -1   64.39    7.40
  -3  -3  -1   48.50    6.10
   3   3   1   61.49    8.10
   3   3   1   61.59   11.00
   3   3   1   49.00   12.20
   3   3   1   28.50    9.00
  -4  -3  -1   85.69    8.80
  -4  -3  -1   84.09    9.20
  -4  -3  -1   77.89    8.50
  -4  -3  -1   92.19    9.00
   4   3   1   74.79   13.90
   4   3   1   62.29   12.60
   4   3   1   32.20   11.20
   4   3   1   83.09   10.60
  -5  -3  -1    7.60    4.20
  -5  -3  -1    5.80    3.80
  -5  -3  -1    6.60    3.30
   5   3   1    2.50    7.30
   5   3   1   15.60    6.40
   5   3   1    8.40    5.60
  -6  -3  -1  129.49   14.90
  -6  -3  -1  136.59   14.80
   6   3   1  139.59   17.40
   6   3   1  139.59   19.60
  -7  -3  -1    8.50    5.80
  -7  -3  -1    4.80    4.00
   7   3   1   -5.00    7.80
   7   3   1    1.10    8.20
  10  -4  -1    4.80    7.80
  10  -4  -1   35.70   11.00
  10  -4  -1   15.30    6.80
 -10   4   1   14.90    6.70
 -10   4   1   21.20   10.30
 -10   4   1    8.30    5.00
   9  -4  -1   69.69   12.40
   9  -4  -1   48.30    9.20
   9  -4  -1   59.89    9.30
  -9   4   1   67.19   12.50
  -9   4   1   55.99    9.60
  -9   4   1   62.79    9.10
   8  -4  -1    2.00    4.50
   8  -4  -1    1.80    5.60
   8  -4  -1    5.80    3.30
  -8   4   1    5.10    7.40
  -8   4   1   12.10    5.50
  -8   4   1    1.50    4.80
   7  -4  -1   27.40    4.30
   7  -4  -1   30.70    6.60
   7  -4  -1   30.20    6.20
   7  -4  -1   24.40    5.20
  -7   4   1   30.70    8.10
  -7   4   1   15.50    6.80
  -7   4   1   34.80    7.20
  -7   4   1   40.60    6.10
  -7   4   1   30.30    8.50
   6  -4  -1   72.59    9.20
   6  -4  -1   68.29    7.30
   6  -4  -1   76.39    8.90
   6  -4  -1   63.19    7.60
   6  -4  -1   67.89    8.10
  -6   4   1   70.79    9.20
  -6   4   1   73.89   10.80
  -6   4   1   44.90   10.90
  -6   4   1   56.59   10.90
   5  -4  -1   26.30    4.00
   5  -4  -1   28.70    5.00
   5  -4  -1   22.10    4.50
   5  -4  -1   26.70    4.00
   5  -4  -1   20.10    3.90
   5  -4  -1   24.60    4.10
  -5   4   1   10.90    6.30
  -5   4   1   18.20    6.60
  -5   4   1   20.40    5.40
  -5   4   1   18.90    7.20
   4  -4  -1   17.60    3.10
   4  -4  -1   10.30    2.70
   4  -4  -1   17.60    3.40
   4  -4  -1   15.80    2.80
   4  -4  -1   16.00    3.00
   4  -4  -1   12.60    3.40
   4  -4  -1   14.10    3.30
  -4   4   1   15.30    7.10
  -4   4   1   -0.10    3.50
  -4   4   1   26.30    5.20
  -4   4   1    6.70    4.10
   3  -4  -1  169.68   15.00
   3  -4  -1  160.88   14.70
   3  -4  -1  170.18   14.70
   3  -4  -1  164.28   15.70
   3  -4  -1  152.28   14.70
   3  -4  -1  136.29   14.70
  -3   4   1  163.68   16.70
  -3   4   1  128.19   19.70
   2  -4  -1  949.51   85.29
   2  -4  -1  945.61   84.09
   2  -4  -1  965.80   84.59
   2  -4  -1  980.60   84.29
  -2   4   1 1008.40   86.69
  -2   4   1 1023.20   84.29
  -2   4   1  893.11   83.89
   1  -4  -1  209.18   19.00
   1  -4  -1  190.38   18.40
   1  -4  -1  192.48   19.50
   1  -4  -1  215.58   18.20
  -1   4   1  207.48   17.90
  -1   4   1  114.09   23.70
  -1   4   1  225.58   22.50
  -1   4   1  206.78   18.00
   0  -4  -1  705.53   63.89
   0  -4  -1  699.33   62.99
   0  -4  -1  743.03   62.39
   0  -4  -1  655.13   62.49
   0  -4  -1  724.83   62.79
   0   4   1  754.72   66.29
   0   4   1  736.83   62.49
  -1  -4  -1    8.70    4.00
  -1  -4  -1   11.10    2.80
  -1  -4  -1    7.80    1.90
  -1  -4  -1   18.20    3.70
   1   4   1   14.40    7.20
   1   4   1   -2.90    4.70
   1   4   1   16.90    2.80
   1   4   1   16.60    9.50
  -2  -4  -1   69.89    6.70
  -2  -4  -1   65.29    7.30
  -2  -4  -1   61.69    8.20
  -2  -4  -1   62.59    7.10
   2   4   1   69.49    7.90
   2   4   1   26.70   10.20
   2   4   1   47.20   13.60
   2   4   1   62.69   12.00
  -3  -4  -1  105.69   12.20
  -3  -4  -1  104.99   10.40
  -3  -4  -1   98.39   10.90
  -3  -4  -1  115.79   11.70
   3   4   1  124.39   12.20
   3   4   1   85.29   17.20
   3   4   1  115.89   16.60
   3   4   1   68.69   15.70
  -4  -4  -1   49.60    7.20
  -4  -4  -1   52.49    7.60
   4   4   1   49.50   10.60
   4   4   1   55.39    8.70
   4   4   1   57.69   14.30
  -5  -4  -1  111.49   11.90
  -5  -4  -1  102.79   12.50
   5   4   1  107.79   17.20
   5   4   1   95.59   15.60
   5   4   1  127.09   20.90
  -6  -4  -1   17.50    6.40
  -6  -4  -1   22.70    5.20
   6   4   1   14.00   10.00
  10  -5  -1    2.60    5.10
  10  -5  -1    6.30    5.80
  10  -5  -1   10.30    7.00
 -10   5   1   -2.80    6.20
 -10   5   1   12.80    7.00
 -10   5   1   12.50    7.20
   9  -5  -1   63.79    9.70
   9  -5  -1   53.59    9.00
   9  -5  -1   66.29   12.50
  -9   5   1   61.19   12.90
  -9   5   1   71.99   11.60
  -9   5   1   75.69   11.00
   8  -5  -1  137.39   15.90
   8  -5  -1  157.58   18.00
   8  -5  -1  120.59   14.10
  -8   5   1  152.18   18.40
  -8   5   1  175.98   18.80
  -8   5   1  126.19   16.00
   7  -5  -1   51.29    6.80
   7  -5  -1   48.70    8.30
   7  -5  -1   40.20    6.70
   7  -5  -1   56.99    7.20
   7  -5  -1   54.49    9.20
  -7   5   1   58.99   13.20
  -7   5   1   50.99   11.50
  -7   5   1   52.49   10.40
  -7   5   1   46.10    8.60
   6  -5  -1  134.09   14.00
   6  -5  -1  155.48   14.70
   6  -5  -1  156.48   14.50
   6  -5  -1  148.49   14.50
   6  -5  -1  161.18   15.60
   6  -5  -1  145.59   14.70
  -6   5   1  175.98   20.00
  -6   5   1  159.08   15.80
  -6   5   1  107.59   18.60
  -6   5   1   81.79   19.50
   5  -5  -1   41.20    5.80
   5  -5  -1   32.80    6.20
   5  -5  -1   51.69    7.80
   5  -5  -1   44.40    5.90
   5  -5  -1   51.89    6.60
   5  -5  -1   49.99    6.00
  -5   5   1   37.50    9.80
  -5   5   1   38.70    8.60
  -5   5   1   52.09    8.30
  -5   5   1   24.00   10.60
   4  -5  -1   91.39    9.90
   4  -5  -1   89.19    9.30
   4  -5  -1   99.79   11.30
   4  -5  -1  102.19    9.30
   4  -5  -1   81.69    9.10
   4  -5  -1   84.29    9.00
  -4   5   1   67.79   12.90
  -4   5   1   96.89   12.00
  -4   5   1   65.99   13.90
  -4   5   1   37.80   12.80
   3  -5  -1  420.06   37.30
   3  -5  -1  371.56   37.20
   3  -5  -1  418.66   38.90
   3  -5  -1  438.56   38.00
   3  -5  -1  416.86   37.50
  -3   5   1  435.06   40.20
  -3   5   1  447.66   37.80
   2  -5  -1   15.40    4.40
   2  -5  -1   18.30    3.70
   2  -5  -1   17.20    3.20
   2  -5  -1   16.30    3.60
  -2   5   1   17.90    2.40
  -2   5   1    9.50   10.10
  -2   5   1   14.30    6.70
  -2   5   1   15.20    7.20
  -2   5   1   15.90    2.20
   1  -5  -1  308.77   30.40
   1  -5  -1  346.97   28.70
   1  -5  -1  337.37   29.80
   1  -5  -1  314.67   29.00
  -1   5   1  231.58   36.40
  -1   5   1  350.56   33.70
  -1   5   1  320.17   28.10
  -1   5   1  320.27   28.10
   0  -5  -1   19.70    3.20
   0  -5  -1   32.40    5.30
   0  -5  -1   31.50    4.10
   0  -5  -1   30.90    6.30
   0  -5  -1   29.10    3.60
   0   5   1   34.00    3.50
   0   5   1   39.00    9.80
   0   5   1   22.40    9.70
   0   5   1    6.70    8.00
  -1  -5  -1   21.20    4.40
  -1  -5  -1   25.70    3.50
  -1  -5  -1   26.60    5.40
  -1  -5  -1   26.00    4.40
   1   5   1   36.00   11.20
   1   5   1   21.30    3.70
   1   5   1   12.50    9.30
   1   5   1   23.10    7.60
  -2  -5  -1   13.90    3.90
  -2  -5  -1   24.80    6.00
  -2  -5  -1   20.30    4.50
  -2  -5  -1   14.80    4.00
   2   5   1   16.80   11.80
   2   5   1   17.30    4.20
   2   5   1    5.30    8.00
   2   5   1   29.40    9.60
  -3  -5  -1    7.90    4.90
  -3  -5  -1   -8.00    4.10
  -3  -5  -1   -0.40    2.90
   3   5   1    1.00    9.90
   3   5   1    1.10    5.30
   3   5   1   11.30    9.50
  -4  -5  -1    6.10    3.90
  -4  -5  -1   11.40    5.10
   4   5   1    7.60    9.40
   4   5   1    2.00   11.00
  -5  -5  -1    7.70    5.80
  -5  -5  -1    2.30    3.90
   5   5   1    3.40    9.00
   5   5   1    4.30   12.10
  10  -6  -1   -7.70    7.20
  10  -6  -1    2.20    5.90
 -10   6   1   -2.50    7.10
 -10   6   1    2.30    7.80
 -10   6   1    2.50    8.60
   9  -6  -1   22.20    7.70
   9  -6  -1    5.50    7.50
  -9   6   1   12.70    7.10
  -9   6   1    9.80    8.00
  -9   6   1   14.10    6.80
   8  -6  -1    5.70    4.80
   8  -6  -1   14.20    4.40
   8  -6  -1   18.20    6.90
   8  -6  -1    2.30    5.10
  -8   6   1    7.70    6.30
  -8   6   1   11.70    8.90
  -8   6   1   26.70    9.00
   7  -6  -1    0.90    4.30
   7  -6  -1    8.10    5.20
   7  -6  -1    2.90    4.80
   7  -6  -1    9.00    3.60
  -7   6   1    0.70    7.20
  -7   6   1   17.10    8.40
  -7   6   1    6.40    8.40
  -7   6   1    8.10    6.10
  -7   6   1   10.50    6.30
   6  -6  -1    9.90    3.70
   6  -6  -1   11.00    4.70
   6  -6  -1   22.50    4.50
   6  -6  -1   16.30    3.90
   6  -6  -1   20.30    4.00
  -6   6   1   20.50    5.60
  -6   6   1    8.10    6.40
  -6   6   1   17.80    8.80
  -6   6   1   -2.80    8.00
  -6   6   1   25.40    6.70
   5  -6  -1  133.79   13.20
   5  -6  -1  124.89   14.30
   5  -6  -1  139.69   13.40
   5  -6  -1  118.29   13.00
   5  -6  -1  149.19   12.90
  -5   6   1  110.79   17.40
  -5   6   1   88.39   19.10
  -5   6   1   64.69   17.70
  -5   6   1  150.58   17.00
   4  -6  -1   56.79    8.50
   4  -6  -1   61.39    7.00
   4  -6  -1   51.89    6.50
   4  -6  -1   51.69    6.40
   4  -6  -1   59.69    7.50
  -4   6   1   43.80   14.10
  -4   6   1   14.40    8.80
  -4   6   1   65.89   10.50
  -4   6   1   63.89    7.70
   3  -6  -1   44.60    6.20
   3  -6  -1   42.70    8.00
   3  -6  -1   40.60    5.40
   3  -6  -1   43.80    6.90
  -3   6   1   43.00    4.80
  -3   6   1    5.50    9.10
  -3   6   1   43.40   14.50
  -3   6   1   47.60    5.20
  -3   6   1   52.59   10.60
   2  -6  -1    5.20    5.30
   2  -6  -1    2.80    3.60
   2  -6  -1    6.10    2.70
   2  -6  -1    4.00    3.10
  -2   6   1   -2.30    7.20
  -2   6   1    1.60    9.80
  -2   6   1    4.30    7.90
   1  -6  -1  163.38   18.40
   1  -6  -1  153.18   16.10
   1  -6  -1  172.88   15.40
   1  -6  -1  171.28   17.00
  -1   6   1  181.08   22.30
  -1   6   1  113.79   24.40
   0  -6  -1   68.79    7.00
   0  -6  -1   69.39   10.40
   0  -6  -1   55.29    7.60
   0  -6  -1   57.69    8.40
   0   6   1   51.69   14.90
   0   6   1   33.40   13.40
   0   6   1   68.79   13.10
  -1  -6  -1  272.97   27.80
  -1  -6  -1  317.87   30.20
  -1  -6  -1  320.17   28.70
   1   6   1  217.88   37.50
   1   6   1  350.06   34.10
  -2  -6  -1   19.60    5.30
  -2  -6  -1    9.50    6.60
  -2  -6  -1    8.40    5.40
   2   6   1    3.30    8.40
   2   6   1    0.90    9.30
   2   6   1   11.20    8.70
  -3  -6  -1   37.60    7.60
  -3  -6  -1   33.70    7.00
   3   6   1   27.40    9.10
   3   6   1   56.79   17.30
  -4  -6  -1    3.80    4.20
  -4  -6  -1    4.20    5.80
   4   6   1   -0.30    9.40
   4   6   1    2.90   14.10
  10  -7  -1    3.70    8.20
  10  -7  -1    4.60    8.60
 -10   7   1    4.30    7.80
 -10   7   1    5.40    8.90
 -10   7   1    4.20    6.30
   9  -7  -1   13.50    7.60
   9  -7  -1    3.90    7.50
   9  -7  -1    5.20    6.50
  -9   7   1   11.20    8.20
  -9   7   1    2.10    7.20
  -9   7   1    8.80    7.20
   8  -7  -1   12.10    6.60
   8  -7  -1   17.50    5.50
   8  -7  -1   13.30    6.00
  -8   7   1    5.30    6.60
  -8   7   1   23.50    8.10
  -8   7   1   -0.30    9.20
   7  -7  -1   59.49    8.60
   7  -7  -1   67.99    9.30
   7  -7  -1   58.29    9.10
   7  -7  -1   69.19    9.50
  -7   7   1   32.10   12.30
  -7   7   1   79.79   15.30
  -7   7   1   57.99   12.00
  -7   7   1   75.59   11.70
  -7   7   1   34.20   12.50
   6  -7  -1   16.80    5.00
   6  -7  -1   24.30    5.10
   6  -7  -1   29.90    6.60
   6  -7  -1   31.20    5.10
  -6   7   1   15.20   11.10
  -6   7   1   17.20    8.90
  -6   7   1   30.70   10.80
  -6   7   1   19.00    7.50
   5  -7  -1  233.48   23.40
   5  -7  -1  182.18   20.10
   5  -7  -1  221.48   20.80
   5  -7  -1  234.78   21.30
   5  -7  -1  218.78   20.40
  -5   7   1  182.88   25.80
  -5   7   1  222.68   24.60
  -5   7   1  130.09   26.30
  -5   7   1  248.48   21.70
   4  -7  -1    5.90    3.50
   4  -7  -1    2.90    5.00
   4  -7  -1   -0.10    3.20
   4  -7  -1    2.70    6.40
  -4   7   1  -11.60    5.40
  -4   7   1    1.20    8.90
  -4   7   1   -0.40    7.00
   3  -7  -1   12.80    6.90
   3  -7  -1    7.50    4.10
   3  -7  -1   19.30    4.00
   3  -7  -1   15.90    3.50
  -3   7   1   16.90    8.90
  -3   7   1  -11.10   11.00
  -3   7   1  -16.10    5.90
   2  -7  -1   17.30    5.90
   2  -7  -1   29.70    8.00
   2  -7  -1   23.60    3.90
   2  -7  -1   17.70    5.20
  -2   7   1   21.20    9.70
  -2   7   1   -1.30   12.20
  -2   7   1    8.50   10.00
   1  -7  -1   21.00    7.70
   1  -7  -1   22.60    6.10
   1  -7  -1   25.80    5.50
  -1   7   1   11.60    9.60
  -1   7   1   12.50   10.70
  -1   7   1  -26.10    9.10
   0  -7  -1   95.29   11.50
   0  -7  -1  102.19   11.00
   0  -7  -1  108.89   14.50
   0   7   1   99.49   22.80
   0   7   1  119.19   17.60
   0   7   1   60.49   17.90
  -1  -7  -1   20.50    6.50
  -1  -7  -1   29.00    6.00
  -1  -7  -1   15.00    7.90
   1   7   1   10.50   11.70
   1   7   1    1.70   10.50
   1   7   1   15.60    9.70
  -2  -7  -1   -2.30    6.80
  -2  -7  -1    1.20    5.80
  -2  -7  -1    3.00    4.40
   2   7   1   14.50    9.90
   2   7   1   14.50   11.70
   2   7   1   14.90   14.70
  -3  -7  -1    1.30    4.50
  -3  -7  -1    3.60    6.20
   3   7   1    1.40    9.80
   3   7   1   10.40   11.20
  10  -8  -1   -8.70    7.20
  10  -8  -1    9.20    5.80
  10  -8  -1    8.00    8.70
 -10   8   1   18.90    7.30
 -10   8   1    1.50    9.10
 -10   8   1   -3.40    6.50
   9  -8  -1   -6.20    6.60
   9  -8  -1  -11.50    7.10
   9  -8  -1    8.70    6.80
  -9   8   1   -3.40    7.80
  -9   8   1   -8.50   10.50
  -9   8   1   -3.00    9.60
   8  -8  -1   -0.40    4.30
   8  -8  -1    1.00    6.00
   8  -8  -1    1.00    6.30
   8  -8  -1   -0.60    5.20
  -8   8   1   -1.10    9.50
  -8   8   1   -2.80    5.40
  -8   8   1    1.10   10.40
   7  -8  -1   -0.80    4.00
   7  -8  -1   -0.70    6.00
   7  -8  -1    2.50    5.30
  -7   8   1   -6.00   10.20
  -7   8   1   18.90   12.00
  -7   8   1   17.30   10.00
   6  -8  -1    9.70    5.30
   6  -8  -1    4.80    5.50
   6  -8  -1   -4.50    5.70
  -6   8   1   -2.10    9.20
  -6   8   1   16.80   10.00
  -6   8   1    2.00   10.80
   5  -8  -1   23.10    6.20
   5  -8  -1   15.50    6.80
   5  -8  -1   23.00    5.40
  -5   8   1   22.40   13.50
  -5   8   1    3.40    8.80
  -5   8   1   -0.10   10.40
   4  -8  -1   87.39    9.10
   4  -8  -1   97.19   13.60
   4  -8  -1   81.69   11.10
   4  -8  -1   65.79    9.10
  -4   8   1   90.89   14.90
  -4   8   1   20.30   14.40
  -4   8   1   36.90   17.70
   3  -8  -1   23.30    8.90
   3  -8  -1   14.20    6.10
   3  -8  -1   20.00    5.80
  -3   8   1   20.30   10.50
  -3   8   1    6.90   11.00
  -3   8   1   22.70   11.50
   2  -8  -1   16.00    6.10
   2  -8  -1   11.20    6.40
   2  -8  -1   23.50    5.90
  -2   8   1   22.10   10.20
  -2   8   1    4.90   13.30
  -2   8   1   27.40   14.10
   1  -8  -1   26.60    7.70
   1  -8  -1   28.60    6.90
   1  -8  -1   27.90    8.00
  -1   8   1    2.20   11.60
  -1   8   1   54.89   12.50
  -1   8   1   33.20   17.30
   0  -8  -1    3.10    8.10
   0  -8  -1   11.00    6.60
   0  -8  -1   12.00    6.30
   0   8   1   -8.30    8.60
   0   8   1    2.00   12.20
   0   8   1    5.50   14.50
  -1  -8  -1   -4.30    6.40
  -1  -8  -1   -3.40    7.90
  -1  -8  -1   11.30    6.50
   1   8   1   -0.30    6.00
   1   8   1   10.60   16.00
   1   8   1   -8.00   11.10
   9  -9  -1   29.20    8.60
   9  -9  -1   31.20    9.30
  -9   9   1   15.80   10.10
  -9   9   1   -1.70   13.30
  -9   9   1   35.20   11.60
   8  -9  -1   13.20    8.00
   8  -9  -1   11.20    5.50
   8  -9  -1   20.70    7.90
  -8   9   1    4.20   13.70
  -8   9   1   17.40   10.00
  -8   9   1   26.10   13.00
   7  -9  -1    6.40    4.90
   7  -9  -1   -4.60    5.50
   7  -9  -1   11.00    5.60
  -7   9   1   -0.30    7.80
  -7   9   1    8.40   12.10
  -7   9   1   -6.70   10.60
   6  -9  -1   25.50    6.00
   6  -9  -1   24.50    8.20
   6  -9  -1   15.60    6.10
  -6   9   1    1.60   12.00
  -6   9   1   12.40   10.70
  -6   9   1    8.30   10.60
   5  -9  -1   16.00    6.00
   5  -9  -1   -3.50    4.30
  -5   9   1  -13.60   11.90
  -5   9   1  -19.20    8.30
   4  -9  -1  105.69   15.80
   4  -9  -1  112.59   12.90
  -4   9   1   47.30   18.40
  -4   9   1  105.69   24.00
   3  -9  -1   -6.30    5.70
   3  -9  -1    2.40    7.30
   3  -9  -1   -4.70    6.20
  -3   9   1   -0.20   10.40
  -3   9   1    4.60    7.70
   2  -9  -1   32.50    8.00
   2  -9  -1   45.80   12.10
   2  -9  -1   17.30    6.50
  -2   9   1   40.70   14.40
  -2   9   1   73.69   22.70
  -2   9   1   26.40   15.10
   1  -9  -1   -6.00    4.80
   1  -9  -1    1.50    6.60
   1  -9  -1   -1.80    6.70
  -1   9   1    4.90   10.20
  -1   9   1    3.80    6.80
  -1   9   1    2.30    9.60
   0  -9  -1    2.30    7.50
   0  -9  -1    1.80    6.90
   0  -9  -1    9.80    9.80
   0   9   1   -0.10    9.50
   0   9   1   -1.40   13.10
   0   9   1    0.90   10.90
   8 -10  -1    1.30    7.60
   8 -10  -1    1.10    6.00
   8 -10  -1    5.20    6.30
  -8  10   1    5.50    9.00
  -8  10   1   19.30   15.50
   7 -10  -1    1.40    5.60
   7 -10  -1    0.90    7.70
  -7  10   1    7.20   14.60
  -7  10   1   -5.40    7.60
  -7  10   1    1.80    9.60
   6 -10  -1   -1.20    5.10
   6 -10  -1   -1.40    5.80
  -6  10   1   -2.60   10.10
  -6  10   1   11.00   14.30
  -6  10   1   -2.00    8.10
   5 -10  -1    7.10    7.80
   5 -10  -1    3.30    5.90
  -5  10   1   -0.80   12.00
  -5  10   1  -18.10   13.70
   4 -10  -1   -7.30    7.90
   4 -10  -1    2.70    5.40
  -4  10   1   18.70   17.70
  -4  10   1   10.50   13.60
   3 -10  -1    7.80    5.80
   3 -10  -1    0.30    5.60
  -3  10   1   13.20   13.50
  -3  10   1  -10.50   12.40
   2 -10  -1    5.30    6.00
  -2  10   1    5.70   16.10
  -2  10  -2    6.60   11.80
  -2  10  -2   -4.50   10.70
   2 -10   2   11.20    7.50
   2 -10   2    1.70    5.70
  -3  10  -2   56.49   19.60
  -3  10  -2   23.20   14.50
   3 -10   2   46.90   10.60
   3 -10   2   35.60    7.70
  -4  10  -2    3.10   11.60
  -4  10  -2   -1.90   12.30
  -4  10  -2   12.80   16.40
   4 -10   2   18.60    8.70
   4 -10   2    8.90    5.70
  -5  10  -2   56.39   19.10
  -5  10  -2   25.60   18.40
  -5  10  -2   88.69   19.30
   5 -10   2   44.00   10.00
   5 -10   2   43.20   10.70
   5 -10   2   50.19    9.40
  -6  10  -2   52.19   20.10
  -6  10  -2   29.70   16.30
  -6  10  -2   51.79   14.10
   6 -10   2   40.20    9.30
   6 -10   2   54.69    8.70
   6 -10   2   32.70    8.30
  -7  10  -2    1.30    8.90
  -7  10  -2   -4.70    9.80
   7 -10   2    6.60    8.00
   7 -10   2    8.50    7.50
   7 -10   2    2.20    5.50
  -8  10  -2  -11.00    8.30
  -8  10  -2   -3.80   15.20
   8 -10   2   -2.80    5.50
   8 -10   2    5.90    8.20
   0   9  -2   44.70   20.20
   0   9  -2   12.20   15.80
   0  -9   2   31.50    7.90
   0  -9   2    3.40    7.50
  -1   9  -2   24.50   16.10
  -1   9  -2  -16.30   13.40
   1  -9   2    9.30    6.90
   1  -9   2    5.90    7.50
  -2   9  -2    8.90   10.60
  -2   9  -2    7.30   11.80
   2  -9   2   13.50    7.50
   2  -9   2    1.10    6.40
  -3   9  -2   55.69   17.40
  -3   9  -2   50.39   19.50
   3  -9   2   45.60    8.10
   3  -9   2   80.99    9.40
   3  -9   2   47.70    9.20
  -4   9  -2   -0.30   12.20
  -4   9  -2   -7.30    5.10
  -4   9  -2   -0.30    8.80
   4  -9   2   -4.20    5.10
   4  -9   2   -5.70    4.30
   4  -9   2   -3.80    6.20
  -5   9  -2   36.90   15.10
  -5   9  -2   12.40   11.90
  -5   9  -2    9.80    8.50
   5  -9   2   19.50    6.10
   5  -9   2   32.70    7.20
   5  -9   2   24.60    6.60
  -6   9  -2    2.70   11.20
  -6   9  -2  -15.80   10.50
  -6   9  -2   32.30   11.10
   6  -9   2   20.30    7.00
   6  -9   2   14.80    5.70
   6  -9   2   18.40    5.80
  -7   9  -2    1.50   14.70
  -7   9  -2   -5.00   10.80
   7  -9   2    6.50    6.70
   7  -9   2    4.50    4.90
   7  -9   2    1.30    4.70
  -8   9  -2   17.20   13.20
  -8   9  -2   -3.90    9.40
  -8   9  -2    0.40   14.20
   8  -9   2   -7.60    7.00
   8  -9   2   -3.70    6.80
  -9   9  -2   -1.70    8.20
  -9   9  -2   -3.20    6.30
  -9   9  -2    0.90    9.00
   9  -9   2  -11.00    7.90
   9  -9   2   -8.90    6.90
   2   8  -2    8.60    9.20
   2   8  -2   -5.90    9.10
  -2  -8   2    1.40    4.50
  -2  -8   2    3.60    4.70
   1   8  -2   -3.90   13.50
   1   8  -2   18.50   14.00
   1   8  -2    5.00    7.90
  -1  -8   2    8.00    6.20
  -1  -8   2   -0.40    6.10
   0   8  -2  -10.20    6.10
   0   8  -2   -3.80   12.40
   0   8  -2    3.50   11.30
   0  -8   2    9.70    4.50
   0  -8   2    9.50    6.30
  -1   8  -2   23.40   16.40
  -1   8  -2   50.49   17.10
  -1   8  -2   45.50    9.20
   1  -8   2   34.70    6.30
   1  -8   2   29.40    6.70
   1  -8   2   38.50    8.30
  -2   8  -2    6.60   12.10
  -2   8  -2    2.70    9.00
   2  -8   2   20.90    7.00
   2  -8   2   16.80    4.90
   2  -8   2   25.30    5.60
  -3   8  -2    9.80   10.00
  -3   8  -2    7.10    9.10
   3  -8   2    9.70    4.50
   3  -8   2   13.60    5.40
   3  -8   2   15.80    6.60
  -4   8  -2    5.20    8.70
  -4   8  -2   -0.20    7.70
  -4   8  -2   16.10    9.80
   4  -8   2    7.30    3.80
   4  -8   2   -1.40    3.90
   4  -8   2   -3.40    5.80
  -5   8  -2   18.70    8.70
  -5   8  -2    9.10   12.60
  -5   8  -2   19.00   12.30
   5  -8   2   13.40    6.40
   5  -8   2   44.60    6.90
   5  -8   2   35.30    7.10
  -6   8  -2   66.79   19.20
  -6   8  -2  103.09   18.20
  -6   8  -2   68.89   16.20
   6  -8   2   88.69   11.80
   6  -8   2   96.19   12.50
   6  -8   2  120.69   12.70
  -7   8  -2   93.89   23.50
  -7   8  -2  149.29   21.80
   7  -8   2  117.79   13.20
   7  -8   2  110.59   14.40
  -8   8  -2   -4.10    8.00
  -8   8  -2    8.10   10.80
  -8   8  -2   34.30   14.90
   8  -8   2    6.00    6.50
   8  -8   2   10.20    4.70
   8  -8   2   16.40    7.50
  -9   8  -2   61.49   17.40
  -9   8  -2   20.80   10.60
  -9   8  -2   35.80   10.70
   9  -8   2   27.80    9.10
   9  -8   2   38.20    7.80
   9  -8   2   24.10    8.20
   3   7  -2    6.60   13.90
   3   7  -2   12.10    9.30
  -3  -7   2    0.40    6.20
  -3  -7   2   22.40    5.40
   2   7  -2   -1.20   10.80
   2   7  -2   19.40    9.00
   2   7  -2   10.00   13.10
  -2  -7   2   31.80    5.50
  -2  -7   2   19.20    6.20
   1   7  -2   59.69   10.80
   1   7  -2   28.50   14.60
   1   7  -2   56.79   17.00
  -1  -7   2   47.20    7.20
  -1  -7   2   40.70    6.50
  -1  -7   2   37.30    6.40
   0   7  -2  112.09   25.50
   0   7  -2  126.09   24.00
   0   7  -2  157.88   19.70
   0  -7   2  151.58   16.90
   0  -7   2  186.48   16.50
   0  -7   2  181.58   17.90
  -1   7  -2  282.97   39.10
  -1   7  -2  348.77   30.70
  -1   7  -2  206.78   38.20
   1  -7   2  291.67   28.80
   1  -7   2  294.77   28.20
   1  -7   2  332.87   28.30
  -2   7  -2   24.20   11.50
  -2   7  -2   21.50   10.80
  -2   7  -2   32.70    6.60
   2  -7   2   40.20    6.00
   2  -7   2   32.10    5.30
   2  -7   2   25.30    6.60
  -3   7  -2   70.19    9.20
  -3   7  -2   63.39   15.30
  -3   7  -2   50.69   15.20
   3  -7   2   67.59    8.80
   3  -7   2   57.29    8.40
   3  -7   2   68.79    8.80
  -4   7  -2   87.69   17.90
  -4   7  -2   94.49   15.80
  -4   7  -2   56.19   18.20
   4  -7   2  111.49   11.00
   4  -7   2   94.49   11.40
   4  -7   2  107.59   11.70
  -5   7  -2    1.80    5.50
  -5   7  -2   -0.30    5.90
  -5   7  -2   -3.60    6.30
   5  -7   2    0.30    3.30
   5  -7   2    4.80    2.90
   5  -7   2    6.00    4.80
   5  -7   2    1.60    4.60
  -6   7  -2  201.08   24.50
  -6   7  -2  141.49   27.70
  -6   7  -2  159.68   23.90
   6  -7   2  168.08   17.60
   6  -7   2  184.08   18.20
   6  -7   2  174.78   18.50
   6  -7   2  202.08   18.80
  -7   7  -2   49.70   11.20
  -7   7  -2   82.29   14.90
  -7   7  -2   46.70   15.60
   7  -7   2   57.49    8.90
   7  -7   2   50.39    9.20
   7  -7   2   50.19    8.40
  -8   7  -2    2.40    8.60
  -8   7  -2    6.20    7.10
  -8   7  -2    3.10    8.10
   8  -7   2    0.80    6.30
   8  -7   2    4.60    5.60
   8  -7   2   -0.30    5.60
  -9   7  -2   22.80    7.50
  -9   7  -2   11.90    7.30
   9  -7   2   13.60    8.20
   9  -7   2    8.20    7.40
   9  -7   2    8.20    5.00
 -10   7  -2   -6.50    8.00
 -10   7  -2    5.50    7.10
  10  -7   2    9.80    9.00
  10  -7   2   -6.00    7.80
   4   6  -2    2.40    8.50
   4   6  -2    1.00   12.90
  -4  -6   2   -1.20    3.80
  -4  -6   2    7.20    5.60
   3   6  -2    7.10    7.50
   3   6  -2   -5.00    7.10
  -3  -6   2    4.20    5.00
  -3  -6   2   -3.70    4.90
   2   6  -2   18.40    7.60
   2   6  -2   14.70   10.10
   2   6  -2    9.30   10.00
  -2  -6   2    5.80    3.70
  -2  -6   2   17.50    4.20
  -2  -6   2   19.00    5.10
   1   6  -2   31.90   11.50
   1   6  -2   26.10   12.10
   1   6  -2   67.89   10.70
  -1  -6   2   49.60    6.10
  -1  -6   2   41.10    6.50
  -1  -6   2   39.10    6.90
   0   6  -2  242.88   33.00
   0   6  -2  275.87   26.10
   0   6  -2  173.18   31.10
   0  -6   2  260.37   23.40
   0  -6   2  250.07   23.70
   0  -6   2  264.77   24.40
  -1   6  -2   36.70    7.00
  -1   6  -2   27.70   11.70
   1  -6   2   34.10    5.20
   1  -6   2   23.80    5.00
   1  -6   2   32.30    5.40
  -2   6  -2   87.49   10.00
  -2   6  -2   56.59   14.70
  -2   6  -2   78.69   16.10
   2  -6   2   65.89    8.40
   2  -6   2   66.89    8.20
   2  -6   2   70.19    8.60
  -3   6  -2   41.50    5.70
  -3   6  -2   22.40    7.60
  -3   6  -2   25.70   11.60
  -3   6  -2   33.60   10.90
   3  -6   2   43.00    6.40
   3  -6   2   38.40    5.20
   3  -6   2   28.10    4.80
   3  -6   2   29.00    3.90
  -4   6  -2  127.49   12.00
  -4   6  -2   97.29   19.90
  -4   6  -2  122.19   19.80
  -4   6  -2  138.09   18.70
  -4   6  -2  157.98   13.40
   4  -6   2  118.89   13.20
   4  -6   2  126.99   13.50
   4  -6   2  123.69   12.60
   4  -6   2  138.29   13.70
  -5   6  -2  110.09   11.00
  -5   6  -2  115.09   16.50
  -5   6  -2   96.79   19.40
  -5   6  -2   68.09   14.80
   5  -6   2  116.49   11.70
   5  -6   2   88.49   10.60
   5  -6   2  110.99   11.80
   5  -6   2   91.49   11.10
  -6   6  -2   -2.80    5.30
  -6   6  -2    7.40    5.60
  -6   6  -2    1.30    4.20
  -6   6  -2    0.30    4.80
   6  -6   2    3.90    3.10
   6  -6   2   -2.40    3.60
   6  -6   2    5.50    4.60
  -7   6  -2   43.50    9.70
  -7   6  -2   49.40    9.80
  -7   6  -2   67.79   15.20
   7  -6   2   33.10    6.90
   7  -6   2   40.00    6.90
   7  -6   2   39.20    6.90
  -8   6  -2  127.29   16.70
  -8   6  -2  136.19   19.60
  -8   6  -2   89.29   14.00
   8  -6   2   96.79   13.40
   8  -6   2   85.39   11.90
   8  -6   2  111.39   12.90
  -9   6  -2   76.29   12.20
  -9   6  -2   68.99   10.90
   9  -6   2   57.69   10.90
   9  -6   2   71.79   11.50
 -10   6  -2   68.89   12.30
 -10   6  -2   70.79   13.70
  10  -6   2   68.29   12.20
  10  -6   2   65.89   12.70
   5   5  -2    3.00   10.80
   5   5  -2    3.70    9.20
  -5  -5   2    7.60    5.60
  -5  -5   2    2.20    4.80
   4   5  -2  162.08   19.90
   4   5  -2  181.48   25.50
  -4  -5   2  145.99   15.60
  -4  -5   2  137.99   15.70
  -4  -5   2  155.68   16.00
   3   5  -2   11.10    7.20
   3   5  -2   32.20    8.60
   3   5  -2   16.50    9.10
  -3  -5   2   18.00    4.90
  -3  -5   2   25.00    5.20
  -3  -5   2   19.70    4.50
   2   5  -2  240.88   31.50
   2   5  -2  150.38   27.80
   2   5  -2  224.98   25.10
   2   5  -2  256.07   22.10
  -2  -5   2  244.38   22.70
  -2  -5   2  244.08   22.40
  -2  -5   2  249.58   22.30
   1   5  -2   14.90    8.50
   1   5  -2   60.49   12.90
   1   5  -2   58.99    9.50
   1   5  -2   59.49    5.60
  -1  -5   2   51.79    6.10
  -1  -5   2   64.09    7.20
  -1  -5   2   42.20    5.90
  -1  -5   2   51.59    6.50
   0   5  -2   61.49   16.10
   0   5  -2  117.69   13.70
   0   5  -2  116.49   18.40
   0  -5   2  118.99   11.70
   0  -5   2  125.29   11.70
   0  -5   2  119.39   11.40
  -1   5  -2  140.79   24.50
  -1   5  -2  233.58   20.30
  -1   5  -2  156.58   26.30
   1  -5   2  203.98   19.40
   1  -5   2  219.48   18.90
   1  -5   2  193.48   18.90
  -2   5  -2  674.83   58.59
  -2   5  -2  559.24   63.29
   2  -5   2  705.33   59.69
   2  -5   2  622.14   58.49
   2  -5   2  710.23   59.29
   2  -5   2  725.63   59.39
  -3   5  -2   36.10    7.90
  -3   5  -2   49.80    5.20
  -3   5  -2   36.20   11.40
  -3   5  -2   23.10    7.70
  -3   5  -2   34.40    3.80
   3  -5   2   32.50    4.60
   3  -5   2   40.80    5.30
   3  -5   2   30.20    5.20
   3  -5   2   39.40    5.50
  -4   5  -2  657.13   78.69
  -4   5  -2  846.12   73.29
  -4   5  -2  865.81   77.49
  -4   5  -2  866.91   73.89
   4  -5   2  874.21   74.19
   4  -5   2  852.81   74.19
   4  -5   2  823.82   74.19
   4  -5   2  866.81   73.99
  -5   5  -2   34.60   10.50
  -5   5  -2   50.49    8.70
  -5   5  -2   22.00    6.60
   5  -5   2   30.20    5.60
   5  -5   2   35.20    5.70
   5  -5   2   39.30    5.50
   5  -5   2   31.30    3.90
  -6   5  -2    0.00    5.60
  -6   5  -2    1.10    3.50
  -6   5  -2    5.70    6.70
  -6   5  -2    8.40    4.20
   6  -5   2    2.80    1.90
   6  -5   2   -3.10    3.80
   6  -5   2    3.10    4.30
   6  -5   2    1.30    2.60
  -7   5  -2  102.49   12.10
  -7   5  -2  108.89   16.00
  -7   5  -2  105.49   13.80
   7  -5   2   91.29   12.20
   7  -5   2   83.59   11.20
   7  -5   2   82.49   10.10
   7  -5   2   75.99    9.40
  -8   5  -2   20.40    5.70
  -8   5  -2   18.50    7.60
  -8   5  -2   18.30    7.40
   8  -5   2   18.70    4.50
   8  -5   2   14.20    6.50
   8  -5   2   11.00    7.00
  -9   5  -2   41.50    9.20
  -9   5  -2   51.99   10.50
   9  -5   2   43.30    9.50
   9  -5   2   42.90    9.50
 -10   5  -2   38.20    9.90
 -10   5  -2   37.90    9.30
 -10   5  -2   31.20   10.10
  10  -5   2   34.60    7.90
  10  -5   2   34.00   11.50
   6   4  -2   -3.50    9.00
   6   4  -2    5.90    9.50
  -6  -4   2    1.50    5.10
  -6  -4   2   -0.80    5.10
   5   4  -2  139.19   19.50
   5   4  -2  112.19   14.00
   5   4  -2  122.09   17.50
  -5  -4   2  101.99   11.90
  -5  -4   2  113.49   12.70
  -5  -4   2  108.79   12.30
   4   4  -2  369.16   37.10
   4   4  -2  387.46   35.40
   4   4  -2  419.36   41.30
  -4  -4   2  370.16   34.40
  -4  -4   2  366.06   34.20
  -4  -4   2  375.76   34.30
   3   4  -2   17.80    8.80
   3   4  -2   56.39    6.50
   3   4  -2   46.20   11.90
   3   4  -2   32.00    8.20
  -3  -4   2   37.70    5.60
  -3  -4   2   35.10    5.40
  -3  -4   2   36.30    5.00
   2   4  -2  134.49   19.50
   2   4  -2  145.99   13.40
   2   4  -2  102.09   18.50
   2   4  -2  133.29   15.20
  -2  -4   2  140.39   13.10
  -2  -4   2  139.99   13.30
  -2  -4   2  135.89   13.50
   1   4  -2    4.40    5.90
   1   4  -2   27.30    3.30
   1   4  -2   20.70    7.10
   1   4  -2   27.70    5.70
  -1  -4   2   24.30    3.70
  -1  -4   2   15.80    3.10
  -1  -4   2   18.30    3.10
  -1  -4   2   17.70    3.60
   0   4  -2  135.49   13.20
   0   4  -2  125.09   17.90
   0   4  -2   81.79   16.60
   0  -4   2  130.19   11.90
   0  -4   2  128.09   11.10
   0  -4   2  131.59   11.80
   0  -4   2  104.79   10.90
   0  -4   2  138.69   11.80
  -1   4  -2  263.97   21.40
  -1   4  -2  249.97   22.30
  -1   4  -2  148.99   26.40
  -1   4  -2  199.08   25.50
   1  -4   2  256.17   21.80
   1  -4   2  254.47   21.20
   1  -4   2  260.37   22.20
   1  -4   2  252.57   21.90
   1  -4   2  206.88   21.20
  -2   4  -2   28.30    3.60
  -2   4  -2   39.40    3.90
  -2   4  -2   23.70    5.80
  -2   4  -2   25.50    7.30
  -2   4  -2   28.70    3.00
  -2   4  -2   28.40    8.50
   2  -4   2   30.40    4.10
   2  -4   2   21.50    3.80
   2  -4   2   32.00    4.30
   2  -4   2   34.30    3.80
   2  -4   2   25.20    3.80
  -3   4  -2   14.80    1.70
  -3   4  -2    8.30    4.90
  -3   4  -2   16.20    2.40
  -3   4  -2   10.50    5.00
  -3   4  -2    9.80    5.50
   3  -4   2   12.00    3.00
   3  -4   2   12.40    3.10
   3  -4   2   11.00    3.10
   3  -4   2   14.90    3.00
  -4   4  -2   37.20    4.30
  -4   4  -2   30.90    6.60
  -4   4  -2   32.50    8.10
  -4   4  -2   18.90    5.60
   4  -4   2   27.60    3.40
   4  -4   2   28.70    4.50
   4  -4   2   37.20    5.30
   4  -4   2   27.20    4.30
  -5   4  -2  597.54   54.79
  -5   4  -2  604.44   52.79
  -5   4  -2  637.84   52.39
  -5   4  -2  533.15   49.90
   5  -4   2  558.74   50.59
   5  -4   2  584.14   51.79
   5  -4   2  605.14   51.19
   5  -4   2  536.35   50.39
  -6   4  -2   85.69   10.80
  -6   4  -2   82.59   12.70
  -6   4  -2  104.69   12.20
   6  -4   2   76.99    8.80
   6  -4   2   71.19    9.80
   6  -4   2   89.59   11.50
   6  -4   2   80.09    9.00
  -7   4  -2    5.30    4.20
  -7   4  -2    3.60    4.80
  -7   4  -2    3.30    4.70
   7  -4   2    6.20    3.30
   7  -4   2    5.10    3.50
   7  -4   2    9.60    6.20
  -8   4  -2   -2.30    5.40
  -8   4  -2    5.50    4.10
   8  -4   2    4.90    3.90
   8  -4   2    5.70    4.90
   8  -4   2    6.80    4.50
  -9   4  -2    4.60    4.30
  -9   4  -2    2.60    6.10
  -9   4  -2    8.60    9.10
   9  -4   2    8.00    5.40
   9  -4   2    0.60    7.60
   9  -4   2   -4.40    6.20
 -10   4  -2   20.00    7.90
 -10   4  -2   18.80   11.10
 -10   4  -2   14.90    7.40
  10  -4   2   15.30    9.80
  10  -4   2   -3.70    7.40
   7   3  -2    4.10    6.90
   7   3  -2   -2.30    5.10
  -7  -3   2    0.10    5.40
  -7  -3   2   -0.60    5.80
   6   3  -2   51.69   11.70
   6   3  -2   39.90    9.00
   6   3  -2   38.10   10.90
  -6  -3   2   36.70    6.90
  -6  -3   2   40.40    7.50
  -6  -3   2   44.10    6.60
   5   3  -2   90.59   14.50
   5   3  -2   84.99   13.20
   5   3  -2   95.79   12.20
  -5  -3   2   77.59   10.30
  -5  -3   2   87.89   10.10
  -5  -3   2   90.39    9.80
   4   3  -2   32.50    6.00
   4   3  -2   26.00    7.60
   4   3  -2   18.90    6.00
   4   3  -2   39.00    9.90
  -4  -3   2   26.20    4.60
  -4  -3   2   22.40    4.30
  -4  -3   2   28.50    5.00
   3   3  -2   62.19   11.40
   3   3  -2   86.89   11.40
   3   3  -2   96.29    9.60
   3   3  -2   70.69   13.10
  -3  -3   2   70.79    8.30
  -3  -3   2   90.69    8.80
  -3  -3   2   75.99    8.30
   2   3  -2   21.00    4.70
   2   3  -2   23.10    7.50
   2   3  -2   14.50    5.70
   2   3  -2   22.70    3.70
  -2  -3   2   20.20    3.00
  -2  -3   2   19.30    3.30
  -2  -3   2   23.00    3.60
   1   3  -2 1112.19   92.29
   1   3  -2 1116.99   93.49
   1   3  -2 1026.00   95.89
  -1  -3   2 1087.49   92.39
  -1  -3   2 1071.19   92.29
  -1  -3   2 1096.99   92.19
  -1  -3   2  872.01   92.69
   0   3  -2  857.81   70.39
   0   3  -2  744.63   72.79
   0  -3   2  858.71   69.79
   0  -3   2  789.62   69.79
   0  -3   2  848.42   69.69
   0  -3   2  696.13   69.39
   0  -3   2  785.72   69.59
  -1   3  -2  668.43   55.69
  -1   3  -2  526.45   57.89
  -1   3  -2  657.83   55.59
   1  -3   2  672.53   55.79
   1  -3   2  534.75   56.09
   1  -3   2  638.94   55.79
   1  -3   2  674.73   55.59
   1  -3   2  658.43   55.79
  -2   3  -2    5.80    3.20
  -2   3  -2   -0.20    3.00
  -2   3  -2    5.50    3.30
   2  -3   2    6.60    1.80
   2  -3   2   11.00    1.90
   2  -3   2    5.70    1.90
   2  -3   2    3.30    2.00
  -3   3  -2  661.73   67.39
  -3   3  -2  811.52   66.59
  -3   3  -2  739.83   69.59
  -3   3  -2  816.62   68.29
   3  -3   2  749.73   66.69
   3  -3   2  722.13   65.99
   3  -3   2  771.12   66.39
   3  -3   2  808.92   67.09
  -4   3  -2  133.19   12.10
  -4   3  -2  161.18   14.50
  -4   3  -2  146.89   15.80
  -4   3  -2  132.39   12.80
  -4   3  -2  146.19   14.20
   4  -3   2  145.59   12.90
   4  -3   2  122.89   12.80
   4  -3   2  139.29   14.10
   4  -3   2  138.09   13.20
  -5   3  -2 1354.36  118.29
  -5   3  -2 1364.76  117.49
  -5   3  -2 1348.97  116.99
   5  -3   2 1287.67  116.49
   5  -3   2 1353.86  117.49
   5  -3   2 1360.46  116.69
   5  -3   2 1257.17  115.99
  -6   3  -2   37.10    7.10
  -6   3  -2   40.70    7.00
  -6   3  -2   37.90    6.70
   6  -3   2   43.80    6.70
   6  -3   2   41.00    6.50
   6  -3   2   43.30    7.20
  -7   3  -2  103.79   12.00
  -7   3  -2   92.99   12.00
  -7   3  -2  122.19   13.20
   7  -3   2  117.19   13.00
   7  -3   2  116.69   14.40
   7  -3   2  109.09   13.10
  -8   3  -2   -2.20    3.20
  -8   3  -2   14.50    8.40
  -8   3  -2    2.20    3.60
   8  -3   2   -3.10    6.50
   8  -3   2    2.50    5.50
   8  -3   2    2.00    4.70
  -9   3  -2   -6.00    5.20
  -9   3  -2   -0.40    5.50
  -9   3  -2    4.00    8.90
   9  -3   2   11.20    6.60
   9  -3   2    0.70    7.50
   9  -3   2   -2.00    6.00
 -10   3  -2    9.40    5.40
 -10   3  -2    4.80    6.60
 -10   3  -2    9.80   10.40
  10  -3   2   13.60    8.20
  10  -3   2   10.80    7.80
  10  -3   2   19.30   10.40
   8   2  -2   23.80   10.50
   8   2  -2   10.00    9.70
  -8  -2   2   11.60    5.90
  -8  -2   2   12.70    4.90
   7   2  -2  116.19   15.80
   7   2  -2  125.59   17.10
  -7  -2   2  100.59   13.20
  -7  -2   2   86.39   11.00
  -7  -2   2  103.09   12.00
   6   2  -2   52.09    9.50
   6   2  -2   62.99   10.20
   6   2  -2   54.89   10.20
  -6  -2   2   57.89    8.40
  -6  -2   2   35.30    5.50
  -6  -2   2   39.40    6.10
   5   2  -2   81.89   11.20
   5   2  -2   82.29   11.90
   5   2  -2   98.39   12.70
  -5  -2   2   79.29    8.30
  -5  -2   2   70.99    9.70
  -5  -2   2   77.09    8.80
   4   2  -2    6.90    3.10
   4   2  -2   -2.00    4.30
   4   2  -2    9.50    2.10
   4   2  -2   10.70    5.20
   4   2  -2   11.70    4.60
  -4  -2   2    9.70    2.50
  -4  -2   2    9.90    3.70
  -4  -2   2    9.30    3.10
   3   2  -2  275.97   26.90
   3   2  -2  201.28   25.00
   3   2  -2  258.17   25.30
   3   2  -2  287.77   24.90
  -3  -2   2  273.67   23.80
  -3  -2   2  277.17   24.10
  -3  -2   2  274.17   23.60
   2   2  -2  292.97   28.00
   2   2  -2  294.37   26.00
   2   2  -2  278.27   26.70
  -2  -2   2  278.77   25.40
  -2  -2   2  282.47   25.60
  -2  -2   2  290.47   25.40
   1   2  -2 2317.97  199.78
   1   2  -2 2476.25  202.08
   1   2  -2 2404.86  200.38
  -1  -2   2 1948.51  199.68
  -1  -2   2 2022.60  200.28
  -1  -2   2 2472.05  199.58
  -1  -2   2 2421.76  199.68
  -1  -2   2 2345.77  199.58
   0   2  -2  240.58   22.10
   0   2  -2  221.28   20.30
   0   2  -2  180.88   21.80
   0   2  -2  249.08   20.30
   0  -2   2  224.18   20.10
   0  -2   2  241.68   20.00
   0  -2   2  227.68   20.20
   0  -2   2  207.28   20.30
   0  -2   2  210.88   20.10
   0  -2   2  243.98   20.10
  -1   2  -2    4.40    1.40
  -1   2  -2    1.50    1.90
  -1   2  -2    0.90    1.40
  -1   2  -2    3.30    0.50
  -1   2  -2    2.60    2.10
   1  -2   2    1.50    1.10
   1  -2   2    2.70    0.60
   1  -2   2    4.50    1.40
   1  -2   2    3.20    2.30
   1  -2   2    1.30    0.80
   1  -2   2    4.20    1.30
  -2   2  -2  164.78   15.50
  -2   2  -2  158.88   14.80
  -2   2  -2  154.28   14.80
  -2   2  -2  166.58   16.50
   2  -2   2  178.38   14.50
   2  -2   2  162.48   14.60
   2  -2   2  156.18   14.90
   2  -2   2  148.69   14.20
  -3   2  -2    5.20    0.70
  -3   2  -2    5.00    0.60
  -3   2  -2    8.80    2.60
  -3   2  -2    5.80    2.70
  -3   2  -2    9.40    2.70
   3  -2   2   10.60    2.40
   3  -2   2    4.80    1.60
   3  -2   2    3.20    1.30
   3  -2   2    3.10    2.50
  -4   2  -2  366.16   32.30
  -4   2  -2  361.76   32.60
  -4   2  -2  352.56   31.90
   4  -2   2  352.36   31.30
   4  -2   2  339.77   32.40
   4  -2   2  339.47   32.00
   4  -2   2  353.06   31.70
  -5   2  -2   31.30    5.30
  -5   2  -2   23.20    4.50
  -5   2  -2   31.40    4.90
   5  -2   2   33.20    6.30
   5  -2   2   25.10    4.70
   5  -2   2   27.20    5.30
  -6   2  -2   66.39    7.90
  -6   2  -2   60.99    8.00
  -6   2  -2   59.59    8.00
   6  -2   2   56.49    9.00
   6  -2   2   64.39    8.90
   6  -2   2   59.79    7.80
  -7   2  -2   22.00    6.60
  -7   2  -2   24.60    5.80
  -7   2  -2   30.60    6.30
   7  -2   2   25.70    7.00
   7  -2   2   32.70    7.30
   7  -2   2   27.40    5.30
  -8   2  -2   60.49    8.90
  -8   2  -2   59.19   11.40
  -8   2  -2   48.20    7.60
   8  -2   2   50.59    9.20
   8  -2   2   51.49    9.90
   8  -2   2   53.39    8.80
  -9   2  -2   37.10    9.10
  -9   2  -2   28.30    6.20
  -9   2  -2   25.20    7.20
   9  -2   2   36.10    7.10
   9  -2   2   32.20    9.60
   9  -2   2   36.00   10.80
   8   1  -2    1.00    7.80
   8   1  -2    5.00    8.90
  -8  -1   2    5.20    7.10
  -8  -1   2    8.60    4.40
   7   1  -2   41.20    8.30
   7   1  -2   51.69   10.80
   7   1  -2   46.50   10.60
  -7  -1   2   50.39    7.00
  -7  -1   2   49.10    6.70
  -7  -1   2   54.79    9.20
   6   1  -2  -10.20    5.40
   6   1  -2   -2.20    3.80
   6   1  -2   -2.70    5.30
  -6  -1   2    2.00    3.60
  -6  -1   2   -1.30    3.20
  -6  -1   2    2.00    2.70
   5   1  -2   82.09   11.70
   5   1  -2  102.69   12.20
   5   1  -2   87.29   11.80
  -5  -1   2   88.79    9.40
  -5  -1   2   79.49    8.80
  -5  -1   2   87.29   10.50
   4   1  -2  100.19   11.50
   4   1  -2   87.19   11.50
   4   1  -2   99.89   11.40
  -4  -1   2   90.59    9.10
  -4  -1   2   97.49    9.60
  -4  -1   2   90.99    9.90
   3   1  -2  113.59   11.00
   3   1  -2  103.89   11.30
   3   1  -2   99.79    9.60
   3   1  -2   94.69   11.00
   3   1  -2   95.69    9.10
  -3  -1   2  103.09    9.30
  -3  -1   2   98.39   10.00
  -3  -1   2  105.19    9.70
   2   1  -2  146.79   13.40
   2   1  -2  126.89   12.70
   2   1  -2  125.19   12.40
   2   1  -2  122.79   12.30
   2   1  -2  115.29   11.60
  -2  -1   2  133.89   11.80
  -2  -1   2  139.89   12.10
  -2  -1   2  134.89   11.60
   1   1  -2   78.89    7.80
   1   1  -2   80.79    7.40
   1   1  -2   78.69    6.70
   1   1  -2   71.99    7.30
   1   1  -2   72.69    8.00
  -1  -1   2   76.69    6.80
  -1  -1   2   52.29    7.70
  -1  -1   2   81.09    7.20
  -1  -1   2   66.19    7.90
  -1  -1   2   78.19    6.90
   0   1  -2  809.22   70.29
   0   1  -2  806.92   70.69
   0   1  -2  740.23   70.69
   0   1  -2  844.82   70.99
   0   1  -2  830.62   71.39
   0   1  -2  849.32   70.39
   0   1  -2  810.82   70.39
   0  -1   2  867.81   70.29
   0  -1   2  825.92   70.39
   0  -1   2  811.12   70.69
   0  -1   2  705.63   71.29
   0  -1   2  760.52   70.39
   0  -1   2  761.82   70.99
   0  -1   2  877.01   70.29
  -1   1  -2  519.25   45.50
  -1   1  -2  507.65   46.00
  -1   1  -2  560.04   45.20
  -1   1  -2  538.05   45.00
  -1   1  -2  524.25   45.70
  -1   1  -2  521.75   45.20
  -1   1  -2  529.25   45.50
   1  -1   2  473.75   46.10
   1  -1   2  481.75   45.50
   1  -1   2  527.75   45.60
   1  -1   2  457.45   45.60
   1  -1   2  501.05   45.30
   1  -1   2  535.45   45.20
   1  -1   2  536.85   45.00
  -2   1  -2 1263.87  121.19
  -2   1  -2 1398.06  120.19
  -2   1  -2 1454.75  119.59
  -2   1  -2 1407.46  120.69
  -2   1  -2 1396.66  120.39
   2  -1   2 1422.16  120.09
   2  -1   2 1415.66  119.79
   2  -1   2 1299.17  119.69
   2  -1   2 1364.06  120.59
   2  -1   2 1348.86  120.79
  -3   1  -2  762.32   63.69
  -3   1  -2  744.63   63.89
  -3   1  -2  737.53   63.99
   3  -1   2  720.23   64.29
   3  -1   2  718.33   62.89
   3  -1   2  770.32   63.69
   3  -1   2  721.73   64.59
   3  -1   2  649.43   63.09
  -4   1  -2  301.17   24.40
  -4   1  -2  264.87   24.30
  -4   1  -2  278.47   24.50
   4  -1   2  272.07   24.20
   4  -1   2  253.37   23.30
   4  -1   2  259.67   25.20
   4  -1   2  257.87   23.50
   4  -1   2  270.87   25.60
  -5   1  -2   22.30    3.50
  -5   1  -2   21.60    4.20
  -5   1  -2   21.90    4.70
  -5   1  -2   16.30    4.20
   5  -1   2   23.60    3.90
   5  -1   2   27.30    6.00
   5  -1   2   23.60    2.90
   5  -1   2   20.40    2.60
   5  -1   2   26.10    6.00
  -6   1  -2  562.54   50.69
  -6   1  -2  541.15   49.70
  -6   1  -2  569.24   51.69
  -6   1  -2  560.24   50.39
   6  -1   2  568.84   50.39
   6  -1   2  573.54   52.39
   6  -1   2  583.24   52.09
  -7   1  -2    3.50    3.10
  -7   1  -2    4.60    4.30
  -7   1  -2   11.10    6.50
   7  -1   2   -7.40    5.80
   7  -1   2   -2.00    5.30
   7  -1   2   -3.30    4.10
  -8   1  -2   99.69   12.70
  -8   1  -2  113.99   14.50
  -8   1  -2  104.29   12.20
   8  -1   2  104.99   14.80
   8  -1   2   99.99   12.40
   8  -1   2  112.29   15.80
  -9   1  -2    4.30    8.30
  -9   1  -2    7.30    6.10
  -9   1  -2    2.90    4.10
   9  -1   2    4.90    9.40
   9  -1   2   14.20    6.90
   9  -1   2    4.80    6.30
   9   0  -2    1.60    8.30
   9   0  -2    6.80    9.70
  -9   0   2    5.70    8.30
  -9   0   2    5.70    6.00
   8   0  -2   12.10    8.70
   8   0  -2   17.20    7.90
  -8   0   2    5.70    5.10
  -8   0   2   14.90    7.40
  -8   0   2   11.40    4.00
   7   0  -2   -0.60    3.30
   7   0  -2   -0.90    6.50
   7   0  -2   -5.10    5.40
  -7   0   2    1.80    5.70
  -7   0   2   -1.50    2.80
  -7   0   2    1.40    2.60
   6   0  -2  382.06   37.50
   6   0  -2  449.86   39.20
   6   0  -2  438.86   38.90
  -6   0   2  402.26   38.20
  -6   0   2  383.86   36.60
  -6   0   2  428.16   36.90
   5   0  -2  466.55   42.10
   5   0  -2  500.35   43.40
   5   0  -2  484.15   42.90
  -5   0   2  479.45   42.40
  -5   0   2  449.36   41.30
  -5   0   2  432.86   41.10
   4   0  -2  423.26   37.80
   4   0  -2  411.36   37.00
   4   0  -2  415.26   37.50
  -4   0   2  401.66   37.10
  -4   0   2  404.16   36.10
  -4   0   2  402.76   36.30
   3   0  -2  109.89   10.90
   3   0  -2  113.89   10.20
   3   0  -2  103.19   10.60
   3   0  -2   98.19   10.80
  -3   0   2  104.29    9.70
  -3   0   2  110.99   10.50
  -3   0   2  102.89   10.00
   2   0  -2  420.06   35.60
   2   0  -2  371.76   34.80
   2   0  -2  411.36   34.70
   2   0  -2  401.36   35.40
   2   0  -2  405.96   35.30
  -2   0   2  418.66   34.90
  -2   0   2  406.36   35.20
  -2   0   2  371.16   34.90
  -2   0   2  385.26   34.70
   1   0  -2  267.37   22.80
   1   0  -2  219.58   23.30
   1   0  -2  255.07   22.50
   1   0  -2  268.37   23.10
   1   0  -2  264.87   22.80
   1   0  -2  259.37   22.90
   1   0  -2  266.87   22.90
  -1   0   2  249.88   23.40
  -1   0   2  248.08   22.90
  -1   0   2  241.08   23.00
  -1   0   2  269.57   22.50
  -1   0   2  279.67   22.80
  -1   0   2  255.17   22.80
  -1   0   2  241.28   22.90
   0   0  -2  782.62   68.89
   0   0  -2  850.21   69.39
   0   0  -2  782.02   69.89
   0   0  -2  774.22   69.19
   0   0  -2  829.82   69.09
   0   0  -2  753.02   68.79
   0   0  -2  824.62   68.79
   0   0  -2  778.72   69.39
   0   0   2  779.22   69.39
   0   0   2  775.32   68.99
   0   0   2  860.11   70.09
   0   0   2  703.83   69.09
   0   0   2  780.12   68.89
   0   0   2  799.52   69.09
   0   0   2  821.92   68.79
   0   0   2  807.92   69.39
  -1   0  -2  409.06   34.00
  -1   0  -2  404.86   34.10
  -1   0  -2  392.16   34.20
  -1   0  -2  407.76   34.50
  -1   0  -2  383.06   34.10
  -1   0  -2  340.47   35.60
   1   0   2  373.26   34.10
   1   0   2  387.86   34.60
   1   0   2  407.36   34.10
   1   0   2  362.76   35.50
   1   0   2  369.36   34.50
   1   0   2  395.16   34.10
  -2   0  -2  495.65   44.10
  -2   0  -2  504.25   43.90
  -2   0  -2  495.75   44.10
   2   0   2  515.75   43.90
   2   0   2  496.45   43.80
   2   0   2  489.15   44.60
   2   0   2  505.25   45.90
  -3   0  -2   67.39    6.60
  -3   0  -2   69.99    6.70
  -3   0  -2   43.40    8.50
  -3   0  -2   68.49    7.10
   3   0   2   42.10    7.80
   3   0   2   70.09    9.40
   3   0   2   64.89    6.70
   3   0   2   82.39    8.50
   3   0   2   67.39    6.30
  -4   0  -2   -0.30    1.60
  -4   0  -2   -1.60    2.10
  -4   0  -2   -3.70    3.10
  -4   0  -2    1.40    1.50
   4   0   2   -1.80    3.30
   4   0   2   -1.70    1.40
   4   0   2    1.90    2.70
   4   0   2    5.50    4.50
  -5   0  -2  151.48   14.80
  -5   0  -2  159.78   16.00
  -5   0  -2  139.79   13.70
  -5   0  -2  145.39   14.10
   5   0   2  152.88   18.00
   5   0   2  144.59   15.20
   5   0   2  160.38   16.60
   5   0   2  142.19   14.40
  -6   0  -2   46.60    8.10
  -6   0  -2   42.50    6.40
  -6   0  -2   39.90    6.20
   6   0   2   35.10    7.90
   6   0   2   35.10    8.60
   6   0   2   33.70    6.10
  -7   0  -2    6.40    4.30
  -7   0  -2    0.60    4.20
  -7   0  -2    3.00    6.00
   7   0   2    0.70    5.00
   7   0   2    5.50    4.70
   7   0   2    0.60    4.40
  -8   0  -2    7.20    4.00
  -8   0  -2   -3.30    4.70
  -8   0  -2    4.20    7.10
   8   0   2    9.40    5.50
   8   0   2    1.50    8.00
   8   0   2   -1.50    5.30
   9  -1  -2    8.10    9.00
   9  -1  -2    4.80    7.30
  -9   1   2   -0.10    8.00
  -9   1   2    0.30    5.10
   8  -1  -2    3.20    5.60
   8  -1  -2    5.60    6.30
  -8   1   2   -9.30    6.40
  -8   1   2    2.20    3.50
  -8   1   2   -1.20    4.50
   7  -1  -2   14.70    6.00
   7  -1  -2   17.10    5.50
   7  -1  -2   27.60    4.60
   7  -1  -2   27.40    5.40
  -7   1   2   23.70    4.70
  -7   1   2   36.90    6.90
  -7   1   2   27.10    4.30
   6  -1  -2  378.06   36.60
   6  -1  -2  441.36   38.80
   6  -1  -2  410.76   37.90
   6  -1  -2  434.26   37.40
  -6   1   2  434.96   36.80
  -6   1   2  367.76   36.40
  -6   1   2  424.16   38.00
   5  -1  -2  114.99   12.80
   5  -1  -2  122.39   11.70
   5  -1  -2  128.29   12.40
   5  -1  -2  128.99   13.30
  -5   1   2  119.09   12.60
  -5   1   2  102.19   11.40
  -5   1   2  124.49   11.60
   4  -1  -2    7.30    3.50
   4  -1  -2    6.10    2.00
   4  -1  -2    4.10    2.00
   4  -1  -2    7.10    2.00
  -4   1   2    5.60    1.00
  -4   1   2    3.00    1.50
  -4   1   2    9.40    2.70
  -4   1   2    6.30    1.80
  -4   1   2    2.00    1.60
   3  -1  -2    3.70    1.90
   3  -1  -2    4.30    1.10
   3  -1  -2    4.00    1.40
   3  -1  -2    4.10    1.90
   3  -1  -2    3.90    1.30
   3  -1  -2    2.60    1.70
  -3   1   2    2.90    1.50
  -3   1   2    4.50    1.00
  -3   1   2    3.10    1.40
  -3   1   2    3.00    1.80
  -3   1   2    4.80    1.10
   2  -1  -2 1258.67  112.09
   2  -1  -2 1348.07  112.39
   2  -1  -2 1330.57  112.09
   2  -1  -2 1266.37  112.59
   2  -1  -2 1304.17  112.19
   2  -1  -2 1308.17  111.89
  -2   1   2 1384.36  111.89
  -2   1   2 1303.87  112.39
  -2   1   2 1269.77  112.09
  -2   1   2 1357.36  112.09
  -2   1   2 1276.67  113.19
  -2   1   2 1083.09  112.39
  -2   1   2 1238.98  111.89
   1  -1  -2  616.24   52.89
   1  -1  -2  535.55   53.09
   1  -1  -2  630.04   52.69
   1  -1  -2  628.14   52.49
   1  -1  -2  570.64   53.69
   1  -1  -2  614.14   52.29
   1  -1  -2  644.64   52.69
  -1   1   2  664.23   53.99
  -1   1   2  600.64   52.49
  -1   1   2  606.64   52.69
  -1   1   2  590.24   52.39
  -1   1   2  591.44   52.29
  -1   1   2  590.84   52.39
  -1   1   2  632.74   53.19
  -1   1   2  550.84   52.79
  -1   1   2  601.24   52.69
  -1   1   2  567.24   52.79
   0  -1  -2    3.90    0.50
   0  -1  -2    5.80    1.40
   0  -1  -2    4.20    1.30
   0  -1  -2    3.60    1.00
   0  -1  -2    4.20    1.50
   0  -1  -2    4.70    0.70
   0   1   2    3.10    1.20
   0   1   2    2.00    3.30
   0   1   2    3.50    0.50
   0   1   2    3.70    3.70
   0   1   2    3.00    1.10
   0   1   2    2.80    0.60
  -1  -1  -2  111.39   10.20
  -1  -1  -2  111.39    9.80
  -1  -1  -2  107.09   10.10
  -1  -1  -2  106.69    9.70
  -1  -1  -2  110.99   10.30
   1   1   2   66.89   12.50
   1   1   2  107.69   13.70
   1   1   2  118.09   10.50
   1   1   2  110.19    9.70
  -2  -1  -2   51.99    5.40
  -2  -1  -2   50.29    4.60
  -2  -1  -2   47.20    5.10
  -2  -1  -2   42.10    4.80
   2   1   2   39.70    8.10
   2   1   2   46.30    4.60
   2   1   2   24.00    7.00
   2   1   2   43.80    5.80
  -3  -1  -2  258.47   22.20
  -3  -1  -2  240.28   22.40
  -3  -1  -2  245.68   22.30
  -3  -1  -2  242.78   22.70
   3   1   2  231.38   23.10
   3   1   2  255.87   22.10
   3   1   2  235.88   24.80
  -4  -1  -2  478.25   41.50
  -4  -1  -2  429.76   42.00
  -4  -1  -2  462.55   41.40
  -4  -1  -2  462.15   41.60
   4   1   2  467.95   42.90
   4   1   2  485.35   44.70
   4   1   2  479.65   41.50
  -5  -1  -2   16.70    4.20
  -5  -1  -2    7.30    4.60
  -5  -1  -2   14.00    3.30
  -5  -1  -2   20.60    4.10
   5   1   2   12.80    5.50
   5   1   2   14.30    5.90
   5   1   2   20.00    4.00
   5   1   2   16.70    6.90
  -6  -1  -2   45.70    7.70
  -6  -1  -2   58.99    7.70
  -6  -1  -2   59.09    7.10
   6   1   2   51.49    9.10
   6   1   2   41.00    9.30
   6   1   2   48.70    6.80
  -7  -1  -2   19.40    7.10
  -7  -1  -2   18.70    5.70
  -7  -1  -2   25.70    5.20
   7   1   2   22.50    9.00
   7   1   2   16.60    8.30
  -8  -1  -2    5.60    8.10
  -8  -1  -2    1.20    3.50
  -8  -1  -2   16.10    6.30
   8   1   2   -7.10    8.00
   8   1   2  -11.80    7.40
  10  -2  -2   -3.60    9.30
  10  -2  -2    3.50    7.80
 -10   2   2    6.20    6.40
 -10   2   2    5.60    9.40
   9  -2  -2    7.80    8.60
   9  -2  -2    5.30    4.70
   9  -2  -2   13.70    6.80
  -9   2   2    4.30    3.20
  -9   2   2    5.70    4.20
  -9   2   2   14.30    6.60
   8  -2  -2  146.79   15.60
   8  -2  -2  140.99   18.00
   8  -2  -2  126.59   15.40
  -8   2   2  114.09   13.70
  -8   2   2  113.29   14.10
  -8   2   2  149.29   17.20
   7  -2  -2   19.30    4.50
   7  -2  -2    6.00    2.90
   7  -2  -2    4.40    6.10
   7  -2  -2    6.70    3.60
  -7   2   2    2.40    4.20
  -7   2   2    0.90    3.60
  -7   2   2    9.50    3.50
   6  -2  -2    9.50    2.70
   6  -2  -2   16.70    4.50
   6  -2  -2   19.70    4.70
   6  -2  -2   13.50    4.70
  -6   2   2    9.80    2.80
  -6   2   2   17.40    3.10
  -6   2   2   14.10    2.00
  -6   2   2   21.60    5.90
  -6   2   2   14.80    3.30
   5  -2  -2  230.08   21.70
   5  -2  -2  241.88   21.50
   5  -2  -2  253.97   23.00
   5  -2  -2  224.88   20.80
  -5   2   2  220.68   20.40
  -5   2   2  223.08   21.10
  -5   2   2  221.58   21.40
  -5   2   2  242.18   22.20
   4  -2  -2  526.05   45.50
   4  -2  -2  508.45   45.50
   4  -2  -2  528.85   46.50
   4  -2  -2  481.65   45.80
   4  -2  -2  534.25   45.70
  -4   2   2  504.55   45.70
  -4   2   2  538.05   46.50
  -4   2   2  500.65   46.20
   3  -2  -2 1316.97  117.39
   3  -2  -2 1364.46  116.79
   3  -2  -2 1353.26  116.59
   3  -2  -2 1360.86  116.89
   3  -2  -2 1360.86  116.49
   3  -2  -2 1390.66  116.79
   3  -2  -2 1342.97  117.09
  -3   2   2 1184.28  117.69
  -3   2   2 1355.06  117.29
  -3   2   2 1333.37  116.89
   2  -2  -2 9407.66  805.42
   2  -2  -2 9038.90  805.62
   2  -2  -2 8775.62  805.72
   2  -2  -2 9477.25  805.12
   2  -2  -2 9563.34  805.62
   2  -2  -2 9016.90  805.22
   2  -2  -2 9143.49  805.72
  -2   2   2 9999.00  807.02
  -2   2   2 9022.60  805.62
  -2   2   2 9517.35  806.42
   1  -2  -2  200.08   17.10
   1  -2  -2  192.88   16.70
   1  -2  -2  209.48   17.40
   1  -2  -2  206.28   17.40
   1  -2  -2  201.68   16.80
   1  -2  -2  154.38   17.30
  -1   2   2  180.78   16.80
  -1   2   2  189.88   20.20
  -1   2   2  186.88   16.70
  -1   2   2  190.58   19.10
  -1   2   2  178.98   16.80
  -1   2   2  176.88   17.20
  -1   2   2  204.58   17.50
   0  -2  -2   66.99    6.40
   0  -2  -2   61.19    6.60
   0  -2  -2   63.89    6.80
   0  -2  -2   62.69    6.00
   0  -2  -2   68.89    6.90
   0   2   2   59.59    6.50
   0   2   2   56.79   11.10
   0   2   2   74.29   10.80
  -1  -2  -2  657.83   59.09
  -1  -2  -2  672.33   59.49
  -1  -2  -2  697.83   59.79
  -1  -2  -2  687.63   59.19
  -1  -2  -2  668.83   59.09
   1   2   2  744.73   63.09
   1   2   2  658.33   59.79
  -2  -2  -2    0.20    1.70
  -2  -2  -2    4.40    2.20
  -2  -2  -2    1.80    2.10
  -2  -2  -2    0.20    1.60
   2   2   2    2.70    5.00
   2   2   2   -3.50    2.20
   2   2   2   -0.60    3.30
  -3  -2  -2  534.25   46.30
  -3  -2  -2  486.45   46.50
  -3  -2  -2  535.75   46.70
  -3  -2  -2  535.05   46.70
   3   2   2  523.75   49.70
   3   2   2  530.65   47.40
  -4  -2  -2  214.38   19.40
  -4  -2  -2  217.48   19.30
  -4  -2  -2  212.68   19.60
  -4  -2  -2  201.48   19.40
   4   2   2  204.18   21.00
   4   2   2  192.58   23.90
   4   2   2  163.08   24.10
  -5  -2  -2   -1.70    3.40
  -5  -2  -2    0.50    3.50
  -5  -2  -2    0.10    3.70
   5   2   2   -3.50    4.90
   5   2   2    6.20    4.40
   5   2   2   -0.90    4.70
  -6  -2  -2   14.90    5.10
  -6  -2  -2   15.30    4.10
  -6  -2  -2   20.30    5.50
   6   2   2   -0.40    6.60
   6   2   2    7.80    7.60
  -7  -2  -2   11.80    4.20
  -7  -2  -2   13.10    5.60
   7   2   2    8.70    8.30
   7   2   2   11.80    7.10
  10  -3  -2   45.30    9.00
  10  -3  -2   54.09   10.80
  10  -3  -2   42.60   12.60
 -10   3   2   32.10    8.40
 -10   3   2   51.29   12.30
   9  -3  -2  119.29   15.10
   9  -3  -2  101.39   14.60
   9  -3  -2  122.89   17.40
  -9   3   2  132.09   14.10
  -9   3   2  106.89   13.20
  -9   3   2  103.19   16.20
   8  -3  -2   64.79    9.10
   8  -3  -2   60.09   10.50
   8  -3  -2   72.59    9.40
  -8   3   2   55.59    8.90
  -8   3   2   52.49    8.50
  -8   3   2   72.09   10.80
   7  -3  -2    8.50    2.70
   7  -3  -2    5.60    4.50
   7  -3  -2    9.10    3.40
   7  -3  -2    6.70    4.50
  -7   3   2   15.60    4.30
  -7   3   2    4.70    5.90
  -7   3   2    8.10    3.30
   6  -3  -2   24.70    3.90
   6  -3  -2   23.20    4.90
   6  -3  -2   29.40    6.00
   6  -3  -2   20.70    5.10
  -6   3   2   29.50    5.60
  -6   3   2   18.80    6.20
  -6   3   2   43.60    5.80
  -6   3   2   35.20    7.00
   5  -3  -2  268.17   25.20
   5  -3  -2  298.87   26.70
   5  -3  -2  286.97   25.60
   5  -3  -2  266.17   25.10
   5  -3  -2  253.17   25.60
   5  -3  -2  279.27   25.60
  -5   3   2  312.17   26.00
  -5   3   2  266.37   26.70
  -5   3   2  301.27   27.00
   4  -3  -2   62.19    7.10
   4  -3  -2   57.39    6.10
   4  -3  -2   52.49    6.30
   4  -3  -2   52.59    5.70
   4  -3  -2   51.39    5.90
   4  -3  -2   65.79    7.60
   4  -3  -2   53.59    5.80
  -4   3   2   65.79    7.20
  -4   3   2   30.00    8.40
  -4   3   2   54.99    7.10
  -4   3   2   57.59    8.50
   3  -3  -2  368.56   33.20
   3  -3  -2  352.96   33.60
   3  -3  -2  376.66   33.80
   3  -3  -2  374.26   32.90
   3  -3  -2  389.06   33.50
   3  -3  -2  351.76   33.50
   3  -3  -2  383.86   33.20
  -3   3   2  358.96   36.80
  -3   3   2  387.66   35.10
  -3   3   2  383.16   34.60
   2  -3  -2  163.98   14.40
   2  -3  -2  135.39   14.80
   2  -3  -2  152.88   14.70
   2  -3  -2  161.18   15.20
   2  -3  -2  167.48   14.50
   2  -3  -2  162.98   15.40
  -2   3   2  172.58   21.10
  -2   3   2  167.48   15.40
  -2   3   2  160.68   17.10
   1  -3  -2  115.39   10.60
   1  -3  -2  106.89    9.50
   1  -3  -2  108.69   10.20
   1  -3  -2  105.39   10.90
   1  -3  -2   90.79   10.30
   1  -3  -2  121.69    9.90
  -1   3   2   98.39    9.40
  -1   3   2  114.59   10.20
  -1   3   2   74.39   14.40
  -1   3   2  113.29   13.90
   0  -3  -2   52.49    4.70
   0  -3  -2   54.49    6.70
   0  -3  -2   52.39    5.60
   0  -3  -2   56.49    5.40
   0   3   2   47.20    4.70
   0   3   2   27.30    9.90
   0   3   2   58.79    5.70
   0   3   2   54.29   10.40
  -1  -3  -2  276.17   23.70
  -1  -3  -2  286.37   24.20
  -1  -3  -2  248.48   23.40
  -1  -3  -2  276.87   24.80
  -1  -3  -2  256.57   23.30
   1   3   2  333.77   29.20
   1   3   2  179.28   28.90
   1   3   2  275.27   24.30
  -2  -3  -2  166.78   16.30
  -2  -3  -2  189.88   17.20
  -2  -3  -2  180.78   16.10
  -2  -3  -2  175.18   15.70
   2   3   2  191.18   17.10
   2   3   2  173.28   21.10
   2   3   2   92.59   20.40
  -3  -3  -2    0.40    2.10
  -3  -3  -2    2.10    2.00
  -3  -3  -2   -0.30    1.80
  -3  -3  -2    5.30    3.40
   3   3   2    5.70    3.80
   3   3   2  -10.30    4.90
   3   3   2    5.50    6.70
  -4  -3  -2  211.38   18.90
  -4  -3  -2  218.28   19.70
  -4  -3  -2  185.98   19.90
  -4  -3  -2  195.98   19.00
   4   3   2  162.58   25.40
   4   3   2  213.98   25.20
   4   3   2  214.68   21.20
  -5  -3  -2  107.29   12.00
  -5  -3  -2  113.99   11.80
   5   3   2  100.99   13.80
   5   3   2   86.79   17.10
   5   3   2   92.99   16.10
  -6  -3  -2    9.40    5.50
  -6  -3  -2   12.90    4.40
   6   3   2   -7.10    6.60
   6   3   2   14.90    9.20
  10  -4  -2    8.90    9.00
  10  -4  -2   -9.10    7.10
  10  -4  -2   -8.60    5.30
 -10   4   2    0.70    8.50
 -10   4   2    6.30    7.10
 -10   4   2   13.90    6.70
   9  -4  -2    3.80    5.40
   9  -4  -2    3.00    6.40
   9  -4  -2    3.20    5.60
  -9   4   2   -4.40    4.60
  -9   4   2   10.80    5.70
  -9   4   2    6.30    8.30
   8  -4  -2   10.30    7.20
   8  -4  -2   19.80    6.20
   8  -4  -2    6.50    3.50
  -8   4   2    9.80    5.10
  -8   4   2   11.30    5.40
  -8   4   2   -0.20    6.60
   7  -4  -2  183.18   17.70
   7  -4  -2  171.48   18.80
   7  -4  -2  167.08   17.60
   7  -4  -2  180.98   16.70
  -7   4   2  121.79   20.70
  -7   4   2  167.18   18.10
  -7   4   2  192.68   20.40
  -7   4   2  194.78   19.30
  -7   4   2  200.88   21.70
   6  -4  -2   10.30    3.60
   6  -4  -2   13.60    3.60
   6  -4  -2   14.70    4.00
   6  -4  -2   11.20    3.30
   6  -4  -2   22.10    5.60
  -6   4   2   19.90    4.80
  -6   4   2   15.20    6.10
  -6   4   2   10.60    4.60
  -6   4   2    4.10    5.40
  -6   4   2    9.90    7.10
   5  -4  -2  257.07   23.70
   5  -4  -2  259.77   22.50
   5  -4  -2  241.78   22.60
   5  -4  -2  245.08   23.30
   5  -4  -2  250.07   22.80
   5  -4  -2  222.98   22.10
   5  -4  -2  237.98   22.50
  -5   4   2  227.58   26.70
  -5   4   2  239.78   25.30
  -5   4   2  243.88   23.40
   4  -4  -2  142.39   13.00
   4  -4  -2  156.38   13.50
   4  -4  -2  134.79   13.50
   4  -4  -2  138.39   14.50
   4  -4  -2  139.09   13.70
   4  -4  -2  134.59   13.50
   4  -4  -2  128.89   13.70
  -4   4   2  147.79   17.50
  -4   4   2  144.79   15.30
  -4   4   2  118.59   18.60
   3  -4  -2   67.99    8.40
   3  -4  -2   73.89    8.60
   3  -4  -2   78.49    9.40
   3  -4  -2   75.69    7.70
   3  -4  -2   76.59    8.20
   3  -4  -2   71.89    7.70
   3  -4  -2   73.99    8.40
  -3   4   2   81.29    9.30
  -3   4   2   85.89   11.40
  -3   4   2   69.99   14.00
   2  -4  -2  269.57   25.40
   2  -4  -2  253.47   23.90
   2  -4  -2  264.07   24.60
   2  -4  -2  287.67   24.30
  -2   4   2  302.97   28.00
  -2   4   2  196.58   29.80
  -2   4   2  286.07   24.60
   1  -4  -2  944.11   81.59
   1  -4  -2  938.91   81.19
   1  -4  -2  941.71   80.69
   1  -4  -2  759.12   81.19
   1  -4  -2  956.10   82.29
  -1   4   2 1034.50   85.39
  -1   4   2  935.81   81.09
  -1   4   2  964.60   81.09
  -1   4   2  930.61   80.69
   0  -4  -2   13.30    2.70
   0  -4  -2   21.80    4.80
   0  -4  -2   18.80    2.10
   0  -4  -2   19.80    3.30
   0   4   2    5.90    6.40
   0   4   2   17.40    3.10
   0   4   2   15.60    2.10
   0   4   2   23.50    8.70
  -1  -4  -2  342.67   30.00
  -1  -4  -2  373.56   30.60
  -1  -4  -2  344.07   29.40
  -1  -4  -2  336.27   31.30
  -1  -4  -2  309.77   29.60
   1   4   2  394.46   35.20
   1   4   2  330.77   30.30
   1   4   2  209.28   36.30
  -2  -4  -2   31.50    4.20
  -2  -4  -2   23.20    5.40
  -2  -4  -2   21.20    4.60
  -2  -4  -2   20.70    3.10
   2   4   2   22.30    5.00
   2   4   2   10.40    7.60
   2   4   2   25.40    8.20
  -3  -4  -2    3.60    3.40
  -3  -4  -2    6.50    4.00
  -3  -4  -2    7.70    4.40
   3   4   2  -12.40    6.20
   3   4   2   -3.90    8.00
   3   4   2   -3.10    3.70
   3   4   2   -1.90    5.90
  -4  -4  -2   54.09    7.60
  -4  -4  -2   55.19    7.60
   4   4   2   90.19   10.30
   4   4   2   42.70   14.00
   4   4   2   37.30   10.40
  -5  -4  -2   20.30    5.00
  -5  -4  -2   19.50    5.50
   5   4   2   10.90   11.20
   5   4   2   23.20   10.40
  -6  -4  -2    5.80    5.90
  -6  -4  -2    3.10    5.60
   6   4   2    1.20    6.50
  10  -5  -2    4.50    5.50
  10  -5  -2   10.10    8.80
  10  -5  -2  -10.00    6.90
 -10   5   2   -2.80    4.40
 -10   5   2    3.80    6.10
 -10   5   2   11.90    9.60
   9  -5  -2   46.80    9.90
   9  -5  -2   51.19    9.70
   9  -5  -2   44.50    8.50
  -9   5   2   56.59    8.80
  -9   5   2   57.09   11.70
  -9   5   2   53.89   10.10
   8  -5  -2   41.60    6.70
   8  -5  -2   44.60    8.40
   8  -5  -2   37.70    8.10
  -8   5   2   50.39    9.80
  -8   5   2   35.40    7.90
  -8   5   2   55.59   10.60
   7  -5  -2  345.37   32.50
   7  -5  -2  321.27   31.20
   7  -5  -2  332.17   31.90
   7  -5  -2  338.87   31.70
   7  -5  -2  351.16   33.60
  -7   5   2  309.37   36.60
  -7   5   2  386.66   34.40
  -7   5   2  420.36   35.60
  -7   5   2  344.97   32.50
   6  -5  -2    1.80    3.30
   6  -5  -2    3.80    3.50
   6  -5  -2    4.50    3.30
   6  -5  -2    3.70    2.60
   6  -5  -2   -2.00    3.80
   6  -5  -2    4.50    3.20
   6  -5  -2   -1.60    4.40
  -6   5   2    5.40    5.70
  -6   5   2    3.20    6.90
  -6   5   2    6.50    4.60
  -6   5   2    2.20    5.20
   5  -5  -2   70.99    8.10
   5  -5  -2   66.19    7.80
   5  -5  -2   79.09   10.00
   5  -5  -2   68.39    8.60
   5  -5  -2   67.19    8.30
   5  -5  -2   65.79    8.30
   5  -5  -2   66.79    8.80
  -5   5   2   76.39   12.30
  -5   5   2   71.49   10.90
  -5   5   2   37.30   12.30
   4  -5  -2    9.50    3.70
   4  -5  -2    8.10    3.00
   4  -5  -2    6.20    2.90
   4  -5  -2    8.40    4.00
   4  -5  -2   11.00    2.70
   4  -5  -2   10.60    2.50
   4  -5  -2    9.80    3.30
  -4   5   2    9.10    4.30
  -4   5   2   14.50    6.30
  -4   5   2   -9.40    7.10
  -4   5   2    0.90    4.80
   3  -5  -2   33.60    4.20
   3  -5  -2   28.50    4.70
   3  -5  -2   34.40    4.70
   3  -5  -2   28.70    5.70
  -3   5   2   21.10    9.00
  -3   5   2    7.80    6.20
  -3   5   2   36.00    7.90
  -3   5   2   34.80    5.00
   2  -5  -2  157.18   14.50
   2  -5  -2  160.38   13.80
   2  -5  -2  175.28   15.30
   2  -5  -2  145.59   16.20
  -2   5   2  149.79   19.10
  -2   5   2  153.98   14.10
  -2   5   2  137.19   13.90
  -2   5   2   84.99   19.60
   1  -5  -2  114.99   13.10
   1  -5  -2  144.49   13.30
   1  -5  -2  146.89   15.50
   1  -5  -2  132.19   14.10
   1  -5  -2  144.09   12.60
  -1   5   2  146.19   12.80
  -1   5   2  167.28   19.90
  -1   5   2   98.29   21.10
   0  -5  -2    3.40    2.30
   0  -5  -2   -1.10    4.20
   0  -5  -2    4.80    2.70
   0  -5  -2    4.00    1.40
   0   5   2    4.40   10.00
   0   5   2   -1.00    1.80
   0   5   2   -0.30    7.00
   0   5   2   -3.10    5.40
  -1  -5  -2   -1.70    2.20
  -1  -5  -2    6.00    3.90
  -1  -5  -2    2.30    3.50
   1   5   2    4.40    2.40
   1   5   2   -2.20    5.20
   1   5   2   -2.70    9.20
   1   5   2   -0.90    6.90
  -2  -5  -2   14.00    4.00
  -2  -5  -2    9.10    3.70
  -2  -5  -2   11.00    5.70
   2   5   2   -1.00    8.80
   2   5   2   12.20    5.30
   2   5   2   12.20    8.70
   2   5   2    3.00    7.60
  -3  -5  -2   61.79    9.60
  -3  -5  -2   64.99    8.60
  -3  -5  -2   63.99    7.20
   3   5   2   40.70   13.20
   3   5   2   26.80   12.30
   3   5   2   50.79   12.90
  -4  -5  -2    3.20    5.30
  -4  -5  -2    5.90    3.80
   4   5   2   -4.10    7.30
   4   5   2   -3.40    5.80
  -5  -5  -2    0.20    4.10
  -5  -5  -2    6.10    5.60
   5   5   2    0.50    9.30
   5   5   2   -6.10   11.60
  10  -6  -2    0.10    7.80
  10  -6  -2    5.60    8.70
 -10   6   2   12.40    8.10
 -10   6   2   -1.50    8.30
 -10   6   2   -2.70    4.70
   9  -6  -2   -1.60    4.40
   9  -6  -2   13.50    7.80
   9  -6  -2    1.90    4.80
  -9   6   2   -2.20    6.70
  -9   6   2   -1.80    6.20
  -9   6   2    7.30    6.10
   8  -6  -2   20.40    4.70
   8  -6  -2   22.80    5.80
   8  -6  -2   16.40    4.90
   8  -6  -2   13.80    6.70
  -8   6   2   14.50    6.30
  -8   6   2    8.10    8.80
  -8   6   2   22.80    6.90
  -8   6   2   18.00    7.20
   7  -6  -2   22.50    5.50
   7  -6  -2   23.00    6.50
   7  -6  -2   16.20    4.70
   7  -6  -2   20.30    4.50
   7  -6  -2   21.60    5.10
   7  -6  -2   15.80    5.10
  -7   6   2   32.00    9.90
  -7   6   2   16.10    7.60
  -7   6   2   22.80    5.70
  -7   6   2    6.00    8.60
  -7   6   2   23.00    7.60
   6  -6  -2   86.89    9.70
   6  -6  -2   82.49    9.70
   6  -6  -2   81.59    9.50
   6  -6  -2   92.39   11.90
   6  -6  -2   85.89    9.60
   6  -6  -2   85.39   10.20
   6  -6  -2   69.69    9.80
  -6   6   2  103.69   12.40
  -6   6   2   94.59   13.30
  -6   6   2   31.40   13.40
  -6   6   2   63.99   15.50
  -6   6   2   61.09   12.90
   5  -6  -2    5.30    3.50
   5  -6  -2   -0.40    2.80
   5  -6  -2    3.50    4.20
   5  -6  -2    2.40    3.90
   5  -6  -2    4.70    3.50
  -5   6   2    8.10    4.80
  -5   6   2    6.60    7.80
  -5   6   2    3.70    6.50
  -5   6   2    1.20    4.50
  -5   6   2    8.20    4.80
   4  -6  -2  299.77   27.30
   4  -6  -2  268.47   26.80
   4  -6  -2  293.97   26.60
   4  -6  -2  304.47   26.80
   4  -6  -2  304.57   28.40
  -4   6   2  172.28   33.30
  -4   6   2  294.77   30.60
  -4   6   2  312.37   27.50
   3  -6  -2  178.48   16.50
   3  -6  -2  171.78   15.80
   3  -6  -2  172.78   18.80
   3  -6  -2  167.08   17.30
  -3   6   2  166.38   16.00
  -3   6   2  177.18   22.00
  -3   6   2  111.79   23.80
   2  -6  -2   14.30    3.90
   2  -6  -2   13.00    6.20
   2  -6  -2   21.50    3.20
   2  -6  -2   22.10    4.50
  -2   6   2   11.20    9.50
  -2   6   2    7.90    8.90
  -2   6   2   15.30    9.50
  -2   6   2   20.50    2.70
   1  -6  -2   43.40    4.80
   1  -6  -2   43.00    5.80
   1  -6  -2   25.60    6.50
   1  -6  -2   35.40    6.30
  -1   6   2   43.70   12.30
  -1   6   2   13.80    8.30
  -1   6   2   21.10   13.10
   0  -6  -2  191.88   19.70
   0  -6  -2  182.08   17.90
   0  -6  -2  188.18   18.30
   0   6   2  140.79   26.40
   0   6   2  193.08   25.00
  -1  -6  -2   18.30    4.70
  -1  -6  -2   10.70    6.70
  -1  -6  -2   12.10    4.10
   1   6   2    1.30    9.40
   1   6   2    0.40    9.20
   1   6   2   12.90   12.10
  -2  -6  -2  210.48   22.10
  -2  -6  -2  206.08   19.50
  -2  -6  -2  198.88   20.20
   2   6   2  172.68   25.30
   2   6   2  130.09   28.80
  -3  -6  -2   -1.30    5.10
  -3  -6  -2    6.20    6.00
   3   6   2    4.90    9.20
   3   6   2    8.40   13.10
  -4  -6  -2    3.60    5.80
  -4  -6  -2    7.10    6.40
   4   6   2   -0.20    7.10
   4   6   2    4.80    9.80
  10  -7  -2   40.30   10.70
  10  -7  -2   48.40   11.70
 -10   7   2   45.10    9.50
 -10   7   2   52.19   10.90
 -10   7   2   63.69   13.00
   9  -7  -2   32.80    8.80
   9  -7  -2   18.70    7.20
   9  -7  -2   24.00    7.20
  -9   7   2   30.80    9.30
  -9   7   2   53.99   11.30
  -9   7   2   20.00    8.30
   8  -7  -2   24.80    6.40
   8  -7  -2   28.30    7.90
   8  -7  -2   34.60    6.00
  -8   7   2   23.70    9.00
  -8   7   2   57.69   10.10
  -8   7   2   25.10    7.30
  -8   7   2   13.00   10.10
  -8   7   2   14.50   11.70
   7  -7  -2   20.80    6.30
   7  -7  -2   29.70    6.80
   7  -7  -2   26.20    6.20
   7  -7  -2   21.90    4.80
   7  -7  -2    9.00    4.30
  -7   7   2   19.50   10.10
  -7   7   2   15.10   11.10
  -7   7   2   14.80    5.90
  -7   7   2   25.10    8.20
  -7   7   2    7.90    9.70
  -7   7   2    9.50    7.20
   6  -7  -2  197.38   21.90
   6  -7  -2  245.78   24.50
   6  -7  -2  245.28   22.20
   6  -7  -2  256.27   21.90
   6  -7  -2  251.07   22.90
  -6   7   2  260.67   24.60
  -6   7   2  228.58   29.00
  -6   7   2  233.38   25.20
  -6   7   2  128.99   28.10
  -6   7   2  119.99   28.40
   5  -7  -2    0.20    3.70
   5  -7  -2    1.10    2.90
   5  -7  -2   -0.20    5.40
   5  -7  -2    3.50    4.80
   5  -7  -2    3.80    6.80
  -5   7   2   -3.40    6.70
  -5   7   2   12.70   11.40
  -5   7   2    1.20    3.90
  -5   7   2   -9.90    7.50
   4  -7  -2  222.78   20.20
   4  -7  -2  220.38   21.20
   4  -7  -2  205.08   22.20
  -4   7   2  149.09   29.30
  -4   7   2  224.28   26.30
   3  -7  -2   14.80    5.90
   3  -7  -2   20.00    5.30
   3  -7  -2   21.20    5.10
   3  -7  -2   30.10    4.10
  -3   7   2    8.10    7.40
  -3   7   2   14.50   13.20
  -3   7   2   26.30   11.10
   2  -7  -2    9.30    4.00
   2  -7  -2   10.30    6.80
   2  -7  -2    8.40    4.50
  -2   7   2   15.30   12.80
  -2   7   2  -16.60    6.20
  -2   7   2    0.70    9.40
   1  -7  -2   20.00    5.10
   1  -7  -2   23.70    6.60
   1  -7  -2   27.40    5.70
  -1   7   2   21.90   14.60
  -1   7   2   35.30   11.70
  -1   7   2    2.40    7.00
   0  -7  -2   10.60    4.40
   0  -7  -2    3.30    4.90
   0  -7  -2   14.40    7.80
   0   7   2   -2.30   10.20
   0   7   2   20.20   10.50
   0   7   2   -8.10    8.50
  -1  -7  -2   27.20    6.40
  -1  -7  -2   33.40    6.90
  -1  -7  -2   49.70    8.90
   1   7   2   40.50   18.20
   1   7   2   19.00   10.60
   1   7   2   38.30   12.90
  -2  -7  -2   -1.10    7.00
  -2  -7  -2   10.10    4.80
  -2  -7  -2    0.10    5.70
   2   7   2  -11.30   10.20
   2   7   2   -4.50   10.70
   2   7   2   -5.60    9.70
  10  -8  -2   22.60    9.20
  10  -8  -2    4.60    7.70
  10  -8  -2    0.60    7.50
 -10   8   2    4.00    8.60
 -10   8   2   -0.20    9.40
 -10   8   2   -7.40    6.60
   9  -8  -2   24.00    6.20
   9  -8  -2    9.30    7.80
   9  -8  -2   16.00    7.70
  -9   8   2   24.00    7.50
  -9   8   2   28.80   10.40
  -9   8   2   15.20   13.40
  -9   8   2   22.90    9.90
   8  -8  -2   -3.90    4.30
   8  -8  -2    7.50    6.20
   8  -8  -2   -4.50    3.30
   8  -8  -2   -2.30    6.40
  -8   8   2    6.80    7.90
  -8   8   2   -5.70    9.90
  -8   8   2   -9.10    6.00
  -8   8   2    6.80    7.70
   7  -8  -2    5.40    4.00
   7  -8  -2   -2.20    4.10
   7  -8  -2    2.60    5.70
  -7   8   2   -2.80    6.20
  -7   8   2   -1.10   11.20
  -7   8   2    4.50   11.10
   6  -8  -2    2.00    5.30
   6  -8  -2   -0.70    4.50
   6  -8  -2    4.10    4.10
   6  -8  -2   -3.20    4.30
  -6   8   2   -5.80    5.60
  -6   8   2   -1.40    7.00
  -6   8   2   -9.50    9.70
   5  -8  -2   12.60    5.70
   5  -8  -2    1.60    7.80
   5  -8  -2    4.10    4.30
   5  -8  -2   12.00    6.60
  -5   8   2    8.60   12.70
  -5   8   2   20.50    9.30
  -5   8   2   -4.00    9.00
   4  -8  -2   -6.00    5.70
   4  -8  -2   12.80    4.30
   4  -8  -2   -4.10    6.80
  -4   8   2    8.60   13.80
  -4   8   2    2.70    9.20
  -4   8   2   -9.20    8.30
   3  -8  -2  128.89   14.80
   3  -8  -2  143.89   14.00
   3  -8  -2  120.79   16.90
  -3   8   2  162.68   21.40
  -3   8   2   45.90   18.60
  -3   8   2  124.69   24.50
   2  -8  -2   57.69   11.60
   2  -8  -2   65.39    9.60
   2  -8  -2   44.80    7.20
  -2   8   2   24.70   12.20
  -2   8   2   39.00   15.20
  -2   8   2   80.19   15.90
   1  -8  -2   15.00    6.70
   1  -8  -2    1.70    7.80
   1  -8  -2    7.00    6.10
  -1   8   2    6.40    9.80
  -1   8   2   11.80   15.00
  -1   8   2   13.00   10.80
   0  -8  -2   40.30   10.80
   0  -8  -2   30.40    7.90
   0  -8  -2   38.70    7.50
   0   8   2    1.30   12.60
   0   8   2    5.30   12.80
   0   8   2    6.00   10.90
  -1  -8  -2    2.60    8.50
  -1  -8  -2    2.70    6.30
  -1  -8  -2  -10.80    6.00
   1   8   2    1.30   10.80
   1   8   2    0.60   12.20
   1   8   2   19.10   14.20
   9  -9  -2   50.99    8.80
   9  -9  -2   62.89    9.80
  -9   9   2   55.59   12.90
  -9   9   2   69.09   19.00
  -9   9   2   70.29   15.00
  -9   9   2   37.70   10.20
   8  -9  -2   32.00    8.80
   8  -9  -2   51.99   10.20
   8  -9  -2   41.90    9.00
  -8   9   2   52.99   10.70
  -8   9   2   14.60   14.00
  -8   9   2   44.20   15.00
   7  -9  -2   18.60    7.10
   7  -9  -2   16.90    6.50
   7  -9  -2    8.60    7.60
  -7   9   2   13.90   12.60
  -7   9   2    1.80   11.20
  -7   9   2   23.20   12.80
   6  -9  -2    3.40    6.60
   6  -9  -2    1.70    5.00
  -6   9   2   -5.40    6.10
  -6   9   2   24.70   14.00
  -6   9   2    5.20   13.40
   5  -9  -2   47.10    8.20
   5  -9  -2   28.00    7.00
   5  -9  -2   25.60   10.10
  -5   9   2   25.30   16.80
  -5   9   2   -7.00   10.00
   4  -9  -2   -0.80    6.30
   4  -9  -2   -4.00    4.60
   4  -9  -2   -4.00    8.70
  -4   9   2   -3.10   10.30
  -4   9   2   12.40   10.70
   3  -9  -2   76.59   10.60
   3  -9  -2   57.19   11.50
   3  -9  -2   79.09   10.70
  -3   9   2   38.10   14.90
  -3   9   2   87.29   16.40
  -3   9   2   43.00   21.10
   2  -9  -2   11.90    7.00
   2  -9  -2    8.80    5.80
   2  -9  -2   20.90    8.20
  -2   9   2   -5.30    8.00
  -2   9   2   10.70   10.90
  -2   9   2    1.40   10.60
   1  -9  -2    0.60    6.50
   1  -9  -2   15.00    7.30
   1  -9  -2   -1.50    5.10
  -1   9   2    3.50   15.00
  -1   9   2  -16.10    9.30
  -1   9   2    1.20    9.80
   8 -10  -2    5.20    6.50
   8 -10  -2    8.20    7.90
  -8  10   2   10.70   14.90
  -8  10   2    8.10   10.10
  -8  10   2   27.30   10.90
   7 -10  -2    5.90    5.50
   7 -10  -2   -6.90    8.10
  -7  10   2   -1.50   13.00
  -7  10   2   -0.50    8.80
  -7  10   2   -0.60   14.60
   6 -10  -2  -13.20    8.00
   6 -10  -2    5.80    7.40
  -6  10   2    4.80   12.60
  -6  10   2   17.60   11.90
  -6  10   2    5.60   11.00
   5 -10  -2    4.70    9.60
   5 -10  -2   -1.10    5.60
   5 -10  -2    5.40    7.60
  -5  10   2   -6.90    9.60
  -5  10   2  -17.20   11.10
   4 -10  -2    7.00    7.60
   4 -10  -2    2.70    7.10
   4 -10  -2   12.00    8.50
  -4  10   2    2.10   12.30
  -4  10   2   -5.40    7.10
   3 -10  -2    3.80    6.00
   3 -10  -2   -5.80    9.90
   3 -10  -2    0.30    7.50
  -3  10   2   -0.30   15.90
  -3  10   2   -1.90   11.90
  -2  10  -3   -9.20   10.80
  -2  10  -3    4.20    9.60
   2 -10   3   13.80    7.70
   2 -10   3   -2.70    7.90
  -3  10  -3   39.90   19.00
  -3  10  -3    8.40   11.30
  -3  10  -3    2.20    7.90
   3 -10   3   11.40    8.00
   3 -10   3    7.90    6.50
  -4  10  -3   40.60   15.20
  -4  10  -3   69.29   22.20
  -4  10  -3   48.00   20.30
   4 -10   3   41.20   10.10
   4 -10   3   50.79   11.10
   4 -10   3   58.49    9.80
  -5  10  -3   43.70   18.30
  -5  10  -3   41.10   14.10
  -5  10  -3   19.40   18.90
   5 -10   3   51.89    9.30
   5 -10   3   54.29   10.00
   5 -10   3   55.59   10.50
  -6  10  -3   14.60   14.60
  -6  10  -3   24.20   18.60
  -6  10  -3   28.20   14.70
   6 -10   3    8.70    8.80
   6 -10   3   21.80    6.80
   6 -10   3   14.10    6.10
  -7  10  -3    7.40   13.20
  -7  10  -3   18.40   13.80
   7 -10   3   30.50    9.00
   7 -10   3   10.20    8.00
   7 -10   3   15.30    8.30
  -8  10  -3   -5.80   16.50
  -8  10  -3   15.60   14.00
   8 -10   3    3.10    8.40
   8 -10   3    4.30    5.60
   0   9  -3   26.20   14.40
   0   9  -3   24.70   18.70
   0  -9   3   16.90    8.00
   0  -9   3   20.10    7.60
  -1   9  -3  -11.00    9.00
  -1   9  -3   16.40   15.80
   1  -9   3    1.10    4.50
   1  -9   3   -4.80    4.50
  -2   9  -3   33.60   17.20
  -2   9  -3   41.60   16.30
   2  -9   3   43.10    7.80
   2  -9   3   51.59    9.60
   2  -9   3   35.20    7.20
  -3   9  -3   15.40   15.00
  -3   9  -3   -4.60    6.50
  -3   9  -3    0.30   12.90
   3  -9   3    0.30    4.50
   3  -9   3    2.50    4.60
   3  -9   3    7.20    5.90
  -4   9  -3   52.39   19.10
  -4   9  -3   80.09   23.20
  -4   9  -3  102.09   19.40
   4  -9   3   89.89   12.30
   4  -9   3   92.69   12.90
   4  -9   3  100.09   12.20
  -5   9  -3   48.20   16.30
  -5   9  -3   45.00   18.80
  -5   9  -3   41.80   15.50
   5  -9   3   35.80    8.70
   5  -9   3   50.29    8.90
   5  -9   3   44.40    9.40
  -6   9  -3    7.60   10.40
  -6   9  -3   11.80   11.40
  -6   9  -3    1.10    7.90
   6  -9   3   -0.40    7.00
   6  -9   3    5.90    6.90
   6  -9   3    8.70    6.90
  -7   9  -3    6.70   14.60
  -7   9  -3    6.90    9.40
   7  -9   3   14.60    7.40
   7  -9   3   15.80    5.80
  -8   9  -3   16.20   11.10
  -8   9  -3   10.90   15.30
  -8   9  -3   26.80   11.00
   8  -9   3   10.20    5.50
   8  -9   3   11.60    8.30
  -9   9  -3  -10.80    9.90
  -9   9  -3    9.50   14.60
  -9   9  -3   11.80   11.90
   9  -9   3   -1.50    7.30
   9  -9   3   -3.40    6.00
   2   8  -3   18.20    8.30
   2   8  -3   10.80   15.90
  -2  -8   3    8.50    6.70
  -2  -8   3   10.60    5.20
   1   8  -3   15.20   13.90
   1   8  -3    0.40    6.90
   1   8  -3  -13.60    8.20
  -1  -8   3    0.80    5.70
  -1  -8   3    2.40    4.10
   0   8  -3   24.60    7.60
   0   8  -3   23.30   15.70
   0   8  -3    7.20    9.90
   0  -8   3   18.30    6.60
   0  -8   3   25.00    7.30
   0  -8   3   16.40    5.60
  -1   8  -3   10.50   10.40
  -1   8  -3    1.50   12.80
   1  -8   3    8.20    6.30
   1  -8   3    2.90    5.70
   1  -8   3   -6.60    4.30
  -2   8  -3   69.09   19.10
  -2   8  -3   68.59   18.00
   2  -8   3   59.29   10.40
   2  -8   3   60.69    9.70
   2  -8   3   89.09    9.80
  -3   8  -3   61.69   17.40
  -3   8  -3   44.50   16.90
  -3   8  -3   24.10   11.00
   3  -8   3   48.10    8.80
   3  -8   3   53.59    8.20
   3  -8   3   40.70    7.60
  -4   8  -3  -10.70    9.60
  -4   8  -3  -16.30    7.00
  -4   8  -3   -3.80    6.40
   4  -8   3   -0.60    5.20
   4  -8   3   -0.10    5.30
   4  -8   3   -4.90    5.50
  -5   8  -3   71.59   16.70
  -5   8  -3   41.50   12.50
  -5   8  -3   75.59   19.10
   5  -8   3   72.89   10.30
   5  -8   3   93.99   10.50
   5  -8   3   74.49   10.60
  -6   8  -3   35.80   13.00
  -6   8  -3   35.30   16.90
  -6   8  -3  103.09   17.40
   6  -8   3   53.89    8.20
   6  -8   3   65.09    9.70
   6  -8   3   73.79    9.30
  -7   8  -3   49.50   11.80
  -7   8  -3   62.39   18.90
   7  -8   3   33.30    6.70
   7  -8   3   37.40    8.70
  -8   8  -3   69.39   16.20
  -8   8  -3   54.89   18.90
  -8   8  -3   76.69   13.10
   8  -8   3   76.19   10.90
   8  -8   3   75.49   11.30
   8  -8   3   61.99    9.40
  -9   8  -3    5.40   12.40
  -9   8  -3    1.90    8.50
  -9   8  -3   -5.20    9.70
   9  -8   3    2.20    7.10
   9  -8   3    6.70    5.50
   9  -8   3   -5.60    7.50
   3   7  -3    9.30   10.40
   3   7  -3    6.20    9.60
  -3  -7   3   14.30    5.20
  -3  -7   3    4.40    5.70
   2   7  -3   45.10   15.90
   2   7  -3   34.00    9.30
   2   7  -3    4.70   11.30
  -2  -7   3   24.10    6.60
  -2  -7   3   19.80    6.30
   1   7  -3   54.29   17.10
   1   7  -3   61.89   10.70
   1   7  -3   43.80   16.30
  -1  -7   3   54.09    8.80
  -1  -7   3   51.19    8.30
  -1  -7   3   67.19    8.10
   0   7  -3  167.18   18.30
   0   7  -3  119.99   25.00
   0   7  -3  148.89   24.80
   0  -7   3  149.59   16.10
   0  -7   3  160.78   16.80
   0  -7   3  146.49   15.00
  -1   7  -3   33.50    7.80
  -1   7  -3   27.10   14.10
  -1   7  -3   36.10   12.10
   1  -7   3   45.80    7.10
   1  -7   3   45.40    6.60
   1  -7   3   41.60    7.50
  -2   7  -3  208.28   32.80
  -2   7  -3  260.97   22.40
  -2   7  -3  235.78   31.50
   2  -7   3  224.68   22.30
   2  -7   3  212.18   22.40
   2  -7   3  224.88   21.70
  -3   7  -3    0.50    6.90
  -3   7  -3    6.30    6.60
  -3   7  -3    4.70    6.80
   3  -7   3   -5.90    4.30
   3  -7   3    0.40    3.10
   3  -7   3   10.30    4.50
  -4   7  -3    0.60    8.00
  -4   7  -3   24.20    9.80
  -4   7  -3   28.40    9.00
   4  -7   3   19.40    3.30
   4  -7   3   10.70    5.30
   4  -7   3   12.90    4.40
   4  -7   3   13.50    5.40
  -5   7  -3   60.79   13.20
  -5   7  -3   31.20   12.60
  -5   7  -3   87.79   13.60
   5  -7   3   41.10    7.00
   5  -7   3   50.29    7.70
   5  -7   3   41.00    7.70
   5  -7   3   49.30    6.70
  -6   7  -3    7.10    6.80
  -6   7  -3   10.80    7.10
  -6   7  -3    0.40    6.70
   6  -7   3    6.70    5.40
   6  -7   3    0.70    3.90
   6  -7   3    6.30    5.10
  -7   7  -3    7.20    8.30
  -7   7  -3   28.00   13.10
  -7   7  -3   34.20   10.80
   7  -7   3   28.50    6.80
   7  -7   3   25.10    6.60
   7  -7   3   28.00    6.10
  -8   7  -3   68.09   16.00
  -8   7  -3   69.49   12.40
  -8   7  -3   56.39   11.90
   8  -7   3   47.50    8.30
   8  -7   3   51.19    9.60
   8  -7   3   26.30    7.90
  -9   7  -3   14.40    7.90
  -9   7  -3   26.30    9.70
   9  -7   3    4.40    5.00
   9  -7   3   12.80    5.70
   9  -7   3   18.30    8.30
 -10   7  -3    1.50    9.50
 -10   7  -3   -4.20    8.30
  10  -7   3    0.80    8.90
  10  -7   3    6.30    8.00
   4   6  -3   30.10   10.90
   4   6  -3   31.90   11.50
  -4  -6   3   23.90    6.80
  -4  -6   3   34.80    6.90
   3   6  -3    2.40    7.50
   3   6  -3   11.90    9.60
  -3  -6   3    7.20    4.50
  -3  -6   3   -2.50    4.80
  -3  -6   3   -1.30    4.30
   2   6  -3   16.10   10.20
   2   6  -3   29.70    7.10
   2   6  -3   19.30    9.40
  -2  -6   3   33.60    6.10
  -2  -6   3   22.50    5.60
  -2  -6   3   20.30    4.80
   1   6  -3   19.10   11.20
   1   6  -3   38.70    8.40
   1   6  -3   44.10   14.20
  -1  -6   3   39.50    6.00
  -1  -6   3   41.90    5.80
  -1  -6   3   49.99    6.60
   0   6  -3   -1.50    5.50
   0   6  -3   -1.80    3.90
   0   6  -3   -1.00    8.40
   0  -6   3   -1.70    3.60
   0  -6   3    3.70    2.90
   0  -6   3    2.00    3.30
  -1   6  -3   12.10    9.00
  -1   6  -3   -1.50    7.70
  -1   6  -3    4.10    3.80
   1  -6   3    9.00    3.40
   1  -6   3    4.50    3.30
   1  -6   3    3.60    3.90
  -2   6  -3   16.90    3.70
  -2   6  -3   17.20   10.00
  -2   6  -3    2.10    7.90
  -2   6  -3   18.70    2.80
   2  -6   3   10.70    3.30
   2  -6   3    5.80    3.70
   2  -6   3   20.30    4.20
   2  -6   3   13.20    1.90
  -3   6  -3  252.77   32.30
  -3   6  -3  263.47   37.40
  -3   6  -3  314.07   26.30
  -3   6  -3  274.97   31.70
  -3   6  -3  290.87   26.10
   3  -6   3  335.17   27.90
   3  -6   3  316.57   28.00
   3  -6   3  322.67   27.80
   3  -6   3  266.67   26.70
  -4   6  -3   38.40   11.00
  -4   6  -3   36.30   10.20
  -4   6  -3   47.20   13.50
   4  -6   3   44.40    6.60
   4  -6   3   34.70    5.60
   4  -6   3   37.00    5.60
   4  -6   3   46.40    6.70
  -5   6  -3  225.78   25.30
  -5   6  -3  188.28   24.50
  -5   6  -3  228.08   30.60
   5  -6   3  210.48   20.50
   5  -6   3  211.48   20.30
   5  -6   3  210.38   20.30
   5  -6   3  202.08   20.30
  -6   6  -3    3.50    4.40
  -6   6  -3    2.80    8.50
  -6   6  -3    9.50    5.90
  -6   6  -3   -8.40    5.70
   6  -6   3    8.70    4.50
   6  -6   3    8.60    3.80
   6  -6   3    5.60    3.60
  -7   6  -3   76.69   12.00
  -7   6  -3   84.19   13.20
  -7   6  -3   74.19   15.60
   7  -6   3   49.90   10.00
   7  -6   3   62.59    9.70
   7  -6   3   65.29    8.80
  -8   6  -3   31.50    8.80
  -8   6  -3   36.00   10.20
  -8   6  -3   16.50    7.10
   8  -6   3   44.90    9.20
   8  -6   3   31.80    8.00
   8  -6   3   25.20    6.70
  -9   6  -3   54.29   12.30
  -9   6  -3   80.09   12.60
   9  -6   3   69.69   11.40
   9  -6   3   64.39   11.20
 -10   6  -3    7.20    8.30
 -10   6  -3    3.10    8.70
  10  -6   3   10.30    8.40
  10  -6   3   -9.90    8.90
   5   5  -3   19.00   12.10
   5   5  -3   12.20    9.70
  -5  -5   3    8.80    5.40
  -5  -5   3    2.00    5.60
   4   5  -3   -4.00    7.90
   4   5  -3    0.00    6.70
  -4  -5   3    2.10    4.10
  -4  -5   3   -0.70    4.20
  -4  -5   3   -1.80    3.40
   3   5  -3  122.29   22.70
   3   5  -3  192.38   20.20
   3   5  -3  232.88   27.20
  -3  -5   3  193.68   17.60
  -3  -5   3  166.08   16.80
  -3  -5   3  171.88   17.50
   2   5  -3   53.39   13.90
   2   5  -3   71.89   10.50
   2   5  -3   76.69    8.10
   2   5  -3   72.19   15.80
  -2  -5   3   66.29    8.20
  -2  -5   3   57.29    8.90
  -2  -5   3   69.89    8.10
  -2  -5   3   68.79    8.30
   1   5  -3  170.98   16.00
   1   5  -3  120.09   20.80
   1   5  -3  152.78   22.10
  -1  -5   3  152.78   14.50
  -1  -5   3  138.99   14.10
  -1  -5   3  142.09   14.60
  -1  -5   3  137.99   14.10
   0   5  -3    4.70    5.80
   0   5  -3    5.00    3.20
   0   5  -3    7.70    5.70
   0  -5   3    4.60    3.00
   0  -5   3    5.40    3.10
   0  -5   3    3.60    3.10
   0  -5   3    3.50    1.50
   0  -5   3    1.60    1.10
  -1   5  -3  417.46   36.70
  -1   5  -3  421.86   37.40
  -1   5  -3  326.97   42.70
  -1   5  -3  404.16   41.80
   1  -5   3  412.86   37.40
   1  -5   3  429.26   37.20
   1  -5   3  402.26   37.20
   1  -5   3  430.56   36.40
  -2   5  -3  212.78   25.00
  -2   5  -3  202.98   23.30
  -2   5  -3  185.48   27.80
  -2   5  -3  228.48   19.90
   2  -5   3  228.18   20.40
   2  -5   3  221.58   19.90
   2  -5   3  207.98   20.60
   2  -5   3  229.78   20.70
  -3   5  -3  521.05   49.10
  -3   5  -3  415.66   50.89
  -3   5  -3  456.05   49.00
   3  -5   3  532.65   45.70
   3  -5   3  557.44   46.00
   3  -5   3  505.05   45.60
   3  -5   3  533.65   45.80
  -4   5  -3    2.30    6.80
  -4   5  -3    2.50    3.70
  -4   5  -3   -0.70    3.80
   4  -5   3   -3.00    1.90
   4  -5   3    1.30    2.50
   4  -5   3    1.30    3.40
   4  -5   3    1.20    2.80
  -5   5  -3  219.68   26.10
  -5   5  -3  271.17   24.30
  -5   5  -3  211.68   21.80
  -5   5  -3  275.77   22.00
   5  -5   3  189.98   19.30
   5  -5   3  218.78   21.50
   5  -5   3  230.98   20.30
   5  -5   3  211.08   21.10
  -6   5  -3    1.30    5.70
  -6   5  -3   -0.70    6.20
  -6   5  -3   -2.40    3.20
   6  -5   3    0.60    4.60
   6  -5   3    2.80    2.10
   6  -5   3    1.50    4.20
   6  -5   3    0.20    2.60
  -7   5  -3   12.10    6.60
  -7   5  -3    3.30    5.60
  -7   5  -3   -1.80    5.90
   7  -5   3   -2.20    5.00
   7  -5   3    5.90    4.30
   7  -5   3    6.40    4.40
  -8   5  -3   20.40    8.20
  -8   5  -3   26.10    6.30
  -8   5  -3   13.70    7.20
   8  -5   3   22.60    8.50
   8  -5   3   18.10    6.60
  -9   5  -3   -5.90    6.20
  -9   5  -3   -2.70    6.70
   9  -5   3    1.80    7.60
   9  -5   3    4.80    6.80
 -10   5  -3   13.50    8.00
 -10   5  -3   13.80    8.20
 -10   5  -3    1.40    7.20
  10  -5   3   -3.90    5.30
  10  -5   3   -5.30    6.10
   6   4  -3   24.90   11.10
   6   4  -3   12.90    7.80
  -6  -4   3   18.00    4.90
  -6  -4   3   24.30    6.70
   5   4  -3   59.59   12.20
   5   4  -3   66.69   12.80
   5   4  -3   49.90    8.50
  -5  -4   3   52.79    7.50
  -5  -4   3   31.40    7.00
  -5  -4   3   37.80    6.50
   4   4  -3   78.59    9.30
   4   4  -3   52.39   13.50
   4   4  -3   79.39   12.30
  -4  -4   3   60.39    8.10
  -4  -4   3   55.29   10.20
  -4  -4   3   55.59    7.50
  -4  -4   3   54.79    7.20
   3   4  -3  246.48   22.90
   3   4  -3  168.38   24.30
   3   4  -3  227.28   20.20
   3   4  -3  210.98   26.20
  -3  -4   3  206.88   19.50
  -3  -4   3  204.78   19.50
  -3  -4   3  150.28   21.20
  -3  -4   3  226.78   19.80
   2   4  -3    1.40    4.10
   2   4  -3    4.10    5.20
   2   4  -3    1.00    4.10
   2   4  -3    0.10    2.50
  -2  -4   3    0.70    2.00
  -2  -4   3   -1.60    2.30
  -2  -4   3   -3.20    3.80
  -2  -4   3   -1.10    2.60
   1   4  -3   43.10   10.00
   1   4  -3   31.10    6.00
   1   4  -3   29.20    9.10
  -1  -4   3   39.30    5.10
  -1  -4   3   33.90    4.80
  -1  -4   3   32.10    4.70
  -1  -4   3   33.00    4.70
   0   4  -3   24.20    8.30
   0   4  -3   25.10    7.80
   0   4  -3   31.80    4.70
   0  -4   3   28.40    3.50
   0  -4   3   20.70    3.20
   0  -4   3   33.10    4.30
   0  -4   3   25.90    4.20
   0  -4   3   33.20    3.90
  -1   4  -3   50.19    5.60
  -1   4  -3   58.69    6.10
  -1   4  -3   42.80   10.40
  -1   4  -3   58.29   10.50
   1  -4   3   56.69    7.60
   1  -4   3   62.59    6.50
   1  -4   3   44.30    6.00
   1  -4   3   54.59    6.20
   1  -4   3   49.80    5.60
  -2   4  -3   17.60    5.00
  -2   4  -3   20.70    5.40
  -2   4  -3   16.10    6.00
   2  -4   3   12.80    2.70
   2  -4   3   12.30    3.10
   2  -4   3   16.80    3.20
   2  -4   3   16.70    2.90
  -3   4  -3  224.18   21.20
  -3   4  -3  176.98   22.60
  -3   4  -3  181.88   20.20
   3  -4   3  192.38   18.50
   3  -4   3  193.68   18.30
   3  -4   3  194.38   18.80
   3  -4   3  235.38   19.00
  -4   4  -3  410.16   37.20
  -4   4  -3  388.36   36.00
  -4   4  -3  424.76   35.60
  -4   4  -3  409.36   39.50
   4  -4   3  402.26   35.50
   4  -4   3  401.36   36.00
   4  -4   3  397.66   35.10
   4  -4   3  354.26   34.40
  -5   4  -3   57.99    5.70
  -5   4  -3   88.89   12.70
  -5   4  -3   73.49    9.60
  -5   4  -3   75.19    9.60
  -5   4  -3   56.29    6.10
   5  -4   3   64.39    7.90
   5  -4   3   67.49    7.00
   5  -4   3   55.29    6.40
   5  -4   3   59.29    8.80
  -6   4  -3  259.87   24.30
  -6   4  -3  270.17   24.50
  -6   4  -3  263.17   25.80
   6  -4   3  258.57   24.30
   6  -4   3  228.98   22.60
   6  -4   3  227.28   23.00
   6  -4   3  224.88   22.50
  -7   4  -3  106.89   12.70
  -7   4  -3  101.19   13.50
  -7   4  -3   96.99   13.20
   7  -4   3   95.79   12.00
   7  -4   3   96.19   13.10
   7  -4   3   92.79   11.30
  -8   4  -3   24.50    7.40
  -8   4  -3   26.80    5.80
   8  -4   3   22.30    6.80
   8  -4   3   20.90    5.60
   8  -4   3   23.00    7.60
  -9   4  -3   13.70    9.60
  -9   4  -3    1.80    4.50
  -9   4  -3    5.30    6.60
   9  -4   3    5.70    7.00
   9  -4   3   -1.20    5.20
 -10   4  -3   43.70    8.40
 -10   4  -3   37.40   12.60
 -10   4  -3   21.10    8.50
  10  -4   3   26.90    9.00
  10  -4   3   30.70   10.90
   7   3  -3   35.10   11.90
   7   3  -3   16.60    9.00
   7   3  -3   28.20   11.20
  -7  -3   3   22.70    5.30
  -7  -3   3   16.60    7.10
   6   3  -3   12.20    8.50
   6   3  -3   13.20    5.60
   6   3  -3   24.30    9.00
  -6  -3   3   11.30    4.00
  -6  -3   3   12.90    5.90
   5   3  -3   56.09   11.70
   5   3  -3   61.69    9.30
   5   3  -3   83.69   13.80
  -5  -3   3   62.59    7.60
  -5  -3   3   64.89    8.30
  -5  -3   3   66.89    8.30
   4   3  -3    6.70    4.70
   4   3  -3   23.50    6.90
   4   3  -3    6.30    4.30
   4   3  -3   10.40    7.00
  -4  -3   3    4.80    2.70
  -4  -3   3    5.80    2.60
  -4  -3   3   12.90    3.20
   3   3  -3    8.40    4.60
   3   3  -3    7.00    4.70
   3   3  -3   12.00    3.50
   3   3  -3    3.90    5.40
  -3  -3   3   12.70    3.10
  -3  -3   3    4.70    3.10
  -3  -3   3    7.30    2.40
   2   3  -3  661.23   68.99
   2   3  -3  890.61   70.39
   2   3  -3  788.12   66.79
   2   3  -3  817.72   67.99
  -2  -3   3  761.72   66.29
  -2  -3   3  763.52   66.29
  -2  -3   3  755.22   66.49
  -2  -3   3  634.94   67.59
   1   3  -3  122.59   15.10
   1   3  -3  126.39   10.90
   1   3  -3  112.59   15.30
   1   3  -3  111.49   11.60
  -1  -3   3  104.49   10.50
  -1  -3   3  101.49   11.40
  -1  -3   3  109.19   10.80
  -1  -3   3  112.59   10.70
   0   3  -3  427.86   37.80
   0   3  -3  414.66   35.10
   0   3  -3  387.26   35.20
   0   3  -3  345.17   37.90
   0  -3   3  343.97   34.80
   0  -3   3  411.36   34.90
   0  -3   3  410.66   34.80
   0  -3   3  395.26   34.90
   0  -3   3  401.56   34.90
  -1   3  -3   94.69   13.80
  -1   3  -3  103.49    9.30
  -1   3  -3   96.49   11.80
  -1   3  -3  104.59   12.20
   1  -3   3   96.19    9.60
   1  -3   3  103.09    9.90
   1  -3   3  112.99    9.90
   1  -3   3  102.79    9.80
   1  -3   3  108.59   10.10
  -2   3  -3  678.03   61.49
  -2   3  -3  657.53   61.69
  -2   3  -3  679.03   63.39
   2  -3   3  690.43   60.19
   2  -3   3  689.43   60.69
   2  -3   3  676.53   60.19
   2  -3   3  724.93   60.49
  -3   3  -3   83.99    8.80
  -3   3  -3   89.79   12.30
  -3   3  -3  100.49   10.50
  -3   3  -3   93.89    8.50
   3  -3   3   79.29    7.60
   3  -3   3   82.99    9.10
   3  -3   3   86.19    8.00
   3  -3   3   46.40    9.20
   3  -3   3   82.69    8.70
  -4   3  -3  558.64   51.59
  -4   3  -3  631.44   53.39
  -4   3  -3  678.63   53.99
  -4   3  -3  585.34   54.59
  -4   3  -3  595.34   51.79
   4  -3   3  596.44   52.19
   4  -3   3  544.35   52.29
   4  -3   3  600.34   53.49
   4  -3   3  621.04   52.79
  -5   3  -3    4.20    3.90
  -5   3  -3    6.30    3.60
  -5   3  -3    1.90    3.80
   5  -3   3   -0.20    2.70
   5  -3   3    3.50    3.30
   5  -3   3    5.00    2.70
   5  -3   3   10.10    3.70
  -6   3  -3  298.87   29.10
  -6   3  -3  306.77   28.60
  -6   3  -3  318.97   28.90
   6  -3   3  276.17   28.30
   6  -3   3  314.87   28.60
   6  -3   3  305.07   29.80
  -7   3  -3   77.79    9.90
  -7   3  -3   63.69   10.00
  -7   3  -3   86.09   10.50
   7  -3   3   84.99   12.40
   7  -3   3   71.79   10.30
   7  -3   3   94.09   11.40
  -8   3  -3   -0.30    5.00
  -8   3  -3    4.00    3.60
   8  -3   3   -3.00    4.50
   8  -3   3   -0.10    5.50
   8  -3   3   -6.50    4.50
  -9   3  -3   18.30    6.80
  -9   3  -3   21.80    7.40
  -9   3  -3    7.20    9.60
   9  -3   3   16.60    6.30
   9  -3   3   26.10    7.80
   9  -3   3   18.40    7.20
   8   2  -3   59.89   13.20
   8   2  -3   52.19   12.60
  -8  -2   3   53.09    8.90
  -8  -2   3   46.30    8.80
   7   2  -3   55.59   11.20
   7   2  -3   58.09   12.30
   7   2  -3   82.59   11.60
  -7  -2   3   53.29    7.60
  -7  -2   3   40.30    9.00
   6   2  -3   48.20    9.90
   6   2  -3   41.90    9.80
   6   2  -3   84.29   12.20
  -6  -2   3   55.29    8.10
  -6  -2   3   49.90    6.50
  -6  -2   3   55.99    7.60
   5   2  -3   39.60    8.70
   5   2  -3   39.00    7.70
   5   2  -3   32.60    8.30
  -5  -2   3   35.10    5.60
  -5  -2   3   39.50    4.90
  -5  -2   3   32.90    6.40
   4   2  -3   75.69    9.60
   4   2  -3   57.19    6.20
   4   2  -3   90.89   11.60
   4   2  -3   57.69    8.60
   4   2  -3   60.59    7.10
  -4  -2   3   56.19    6.90
  -4  -2   3   56.99    6.30
  -4  -2   3   63.19    7.80
   3   2  -3  120.39   14.30
   3   2  -3  101.89   11.50
   3   2  -3   99.59   11.60
   3   2  -3  117.59   12.50
  -3  -2   3  108.99   10.50
  -3  -2   3  110.29   10.70
  -3  -2   3  106.19   10.10
   2   2  -3 1314.17  120.19
   2   2  -3 1391.16  119.59
   2   2  -3 1435.66  119.19
   2   2  -3 1363.26  120.69
  -2  -2   3 1368.96  118.39
  -2  -2   3 1374.26  118.79
  -2  -2   3 1404.26  118.49
  -2  -2   3 1204.98  119.89
   1   2  -3   36.60    4.60
   1   2  -3   36.80    4.70
   1   2  -3   33.70    3.60
   1   2  -3   45.50    6.60
   1   2  -3   38.90    6.30
  -1  -2   3   33.20    4.00
  -1  -2   3   37.10    3.90
  -1  -2   3   33.40    5.10
  -1  -2   3   30.00    3.60
   0   2  -3  401.26   36.10
   0   2  -3  330.07   36.90
   0   2  -3  419.26   37.10
   0   2  -3  431.26   36.20
   0   2  -3  455.85   37.70
   0   2  -3  421.66   38.30
   0  -2   3  410.36   36.60
   0  -2   3  406.46   36.10
   0  -2   3  439.96   36.20
   0  -2   3  438.66   36.30
   0  -2   3  371.26   36.20
  -1   2  -3   43.10    5.10
  -1   2  -3   42.70    4.20
  -1   2  -3   47.80    5.90
  -1   2  -3   44.60    6.90
   1  -2   3   45.00    5.30
   1  -2   3   49.10    4.60
   1  -2   3   40.70    4.10
   1  -2   3   43.60    4.60
   1  -2   3   45.50    5.10
  -2   2  -3   54.69    6.70
  -2   2  -3   55.99    5.60
  -2   2  -3   57.49    8.00
  -2   2  -3   65.39    6.90
   2  -2   3   46.70    6.00
   2  -2   3   54.59    5.50
   2  -2   3   56.79    6.00
   2  -2   3   54.49    6.30
   2  -2   3   52.29    6.50
  -3   2  -3   28.80    4.40
  -3   2  -3   27.70    4.60
  -3   2  -3   26.10    2.70
  -3   2  -3   38.00    5.70
   3  -2   3   20.10    3.40
   3  -2   3   33.80    4.60
   3  -2   3   32.20    3.50
   3  -2   3   27.90    4.40
   3  -2   3   27.70    3.90
  -4   2  -3   33.00    5.90
  -4   2  -3   40.20    5.30
  -4   2  -3   36.50    5.70
   4  -2   3   42.80    4.50
   4  -2   3   40.70    5.40
   4  -2   3   40.40    6.10
   4  -2   3   32.40    6.20
  -5   2  -3   12.50    3.60
  -5   2  -3    8.70    3.40
  -5   2  -3    8.60    4.00
   5  -2   3    7.70    3.60
   5  -2   3   10.10    5.00
   5  -2   3    8.80    3.90
  -6   2  -3   -2.10    2.50
  -6   2  -3    2.80    3.70
  -6   2  -3    1.50    2.60
   6  -2   3   -2.00    3.70
   6  -2   3    2.50    3.90
   6  -2   3    4.60    5.30
  -7   2  -3  157.78   18.00
  -7   2  -3  164.98   20.60
  -7   2  -3  180.58   18.60
   7  -2   3  177.68   19.60
   7  -2   3  187.38   18.50
   7  -2   3  189.18   19.80
  -8   2  -3   80.89    9.60
  -8   2  -3   60.69    9.40
  -8   2  -3   82.89   13.30
   8  -2   3   61.69   11.90
   8  -2   3   71.59   10.40
   8  -2   3   70.79   12.00
  -9   2  -3    9.90    7.10
  -9   2  -3   15.00    6.50
  -9   2  -3   10.20    6.60
   9  -2   3    5.10    6.70
   9  -2   3   16.10    6.40
   9  -2   3    8.60    6.70
   8   1  -3   21.60    9.50
   8   1  -3   31.10   10.60
  -8  -1   3   37.80    7.40
  -8  -1   3   27.50    8.60
   7   1  -3    4.30    6.70
   7   1  -3   10.60    5.90
   7   1  -3   24.80    6.90
  -7  -1   3   10.70    4.90
  -7  -1   3   13.90    5.20
   6   1  -3   34.30    8.10
   6   1  -3   28.40    7.70
   6   1  -3   30.30    6.80
  -6  -1   3   29.30    4.70
  -6  -1   3   26.40    4.30
  -6  -1   3   24.10    6.40
   5   1  -3   27.30    5.40
   5   1  -3   16.90    6.10
   5   1  -3   31.40    6.70
  -5  -1   3   17.10    5.00
  -5  -1   3   18.80    3.20
  -5  -1   3   19.90    4.10
   4   1  -3  204.18   19.80
   4   1  -3  176.78   19.40
   4   1  -3  209.48   19.60
   4   1  -3  199.88   17.10
   4   1  -3  173.68   17.00
  -4  -1   3  204.98   18.70
  -4  -1   3  200.68   17.80
  -4  -1   3  201.08   17.40
   3   1  -3  287.87   24.90
   3   1  -3  255.67   23.70
   3   1  -3  271.27   24.60
   3   1  -3  260.87   25.00
  -3  -1   3  262.57   23.60
  -3  -1   3  264.57   24.10
  -3  -1   3  259.47   23.30
   2   1  -3   93.49    9.10
   2   1  -3   83.29    9.20
   2   1  -3   87.49    7.70
   2   1  -3   92.29    8.90
   2   1  -3   86.59    8.70
  -2  -1   3   92.69    7.80
  -2  -1   3   97.89   11.00
  -2  -1   3   83.19    8.60
  -2  -1   3   88.19    8.00
  -2  -1   3   58.09    8.80
   1   1  -3  243.88   21.60
   1   1  -3  240.28   22.10
   1   1  -3  236.48   20.90
   1   1  -3  221.38   21.90
  -1  -1   3  253.87   21.40
  -1  -1   3  235.58   20.90
  -1  -1   3  249.08   21.10
  -1  -1   3  236.78   22.20
   0   1  -3  470.65   37.40
   0   1  -3  443.06   38.10
   0   1  -3  422.16   38.40
   0   1  -3  457.85   37.70
   0   1  -3  428.66   37.70
   0   1  -3  429.36   37.40
   0  -1   3  366.06   37.80
   0  -1   3  384.36   37.60
   0  -1   3  419.86   37.60
   0  -1   3  438.76   37.40
   0  -1   3  443.06   38.20
  -1   1  -3  966.90   87.49
  -1   1  -3 1046.50   86.69
  -1   1  -3 1009.40   87.49
  -1   1  -3 1035.30   86.89
  -1   1  -3  987.30   86.39
   1  -1   3 1031.90   87.19
   1  -1   3  984.00   86.29
   1  -1   3 1022.70   86.59
   1  -1   3  948.01   86.69
   1  -1   3  892.41   87.49
  -2   1  -3  985.40   81.39
  -2   1  -3  945.71   81.79
  -2   1  -3  944.41   82.49
  -2   1  -3  946.51   81.99
   2  -1   3  810.02   82.99
   2  -1   3 1003.50   81.49
   2  -1   3  941.61   81.79
   2  -1   3  932.51   82.39
   2  -1   3  881.21   81.49
  -3   1  -3   25.00    3.60
  -3   1  -3   25.30    3.90
  -3   1  -3   24.50    4.10
   3  -1   3   29.00    5.60
   3  -1   3   16.30    3.40
   3  -1   3   22.90    2.40
   3  -1   3   22.30    4.50
   3  -1   3   29.80    3.70
  -4   1  -3   27.30    4.50
  -4   1  -3   29.20    4.70
  -4   1  -3   35.70    4.70
   4  -1   3   29.90    6.40
   4  -1   3   26.60    4.00
   4  -1   3   34.00    4.70
   4  -1   3   35.30    6.10
   4  -1   3   33.10    3.20
  -5   1  -3  178.18   17.00
  -5   1  -3  169.58   16.70
  -5   1  -3  169.28   17.30
   5  -1   3  184.18   18.30
   5  -1   3  176.68   19.10
   5  -1   3  177.68   15.90
   5  -1   3  172.88   15.60
   5  -1   3  184.28   17.00
  -6   1  -3   11.80    6.20
  -6   1  -3    9.60    2.90
  -6   1  -3    9.50    4.30
  -6   1  -3    9.40    3.30
   6  -1   3    9.30    5.60
   6  -1   3    7.10    4.30
   6  -1   3    8.10    4.80
  -7   1  -3  172.98   17.90
  -7   1  -3  140.99   16.70
  -7   1  -3  190.28   20.60
   7  -1   3  187.08   21.00
   7  -1   3  182.48   21.00
   7  -1   3  180.18   17.90
  -8   1  -3    1.20    3.70
  -8   1  -3   10.30    7.90
  -8   1  -3    7.40    4.00
   8  -1   3    9.40    7.40
   8  -1   3   13.30    8.80
   8  -1   3    5.40    4.10
  -9   1  -3   16.90    5.40
  -9   1  -3    6.60    8.80
  -9   1  -3   12.70    5.10
   9  -1   3   12.60    9.90
   9  -1   3   22.00    7.00
   9  -1   3    9.90    9.10
   9   0  -3   -5.30    9.10
   9   0  -3   18.90    8.90
  -9   0   3    0.30    5.80
  -9   0   3   -2.40    7.90
   8   0  -3   43.70   10.60
   8   0  -3   11.50    7.90
  -8   0   3   30.70    5.70
  -8   0   3   37.40    9.10
   7   0  -3  128.99   15.50
   7   0  -3  118.19   13.40
   7   0  -3  121.39   16.30
  -7   0   3  135.79   14.50
  -7   0   3  115.69   12.00
  -7   0   3  108.69   12.80
   6   0  -3  126.09   14.80
   6   0  -3  135.69   15.00
   6   0  -3  128.29   13.00
  -6   0   3  105.69   13.40
  -6   0   3  105.59   12.10
  -6   0   3  111.19   11.40
   5   0  -3  464.85   42.60
   5   0  -3  472.55   43.60
   5   0  -3  461.45   43.00
  -5   0   3  467.45   41.40
  -5   0   3  458.15   41.70
  -5   0   3  492.15   42.70
   4   0  -3  539.65   49.40
   4   0  -3  549.65   49.70
   4   0  -3  540.45   49.10
   4   0  -3  522.85   47.60
  -4   0   3  571.44   48.10
  -4   0   3  556.64   48.40
  -4   0   3  573.94   49.20
   3   0  -3  242.28   21.80
   3   0  -3  224.28   21.30
   3   0  -3  227.88   20.50
   3   0  -3  236.18   21.30
   3   0  -3  230.68   20.30
  -3   0   3  234.88   20.60
  -3   0   3  208.18   20.70
  -3   0   3  225.88   21.10
  -3   0   3  241.48   20.20
   2   0  -3  150.18   13.40
   2   0  -3  157.38   13.90
   2   0  -3  148.19   14.20
   2   0  -3  152.18   14.00
  -2   0   3  135.29   13.60
  -2   0   3  155.68   15.50
  -2   0   3  148.49   12.90
  -2   0   3  145.49   12.90
  -2   0   3  151.08   13.70
  -2   0   3  146.89   13.20
   1   0  -3  725.03   64.09
   1   0  -3  760.42   64.69
   1   0  -3  770.12   64.79
   1   0  -3  743.93   64.09
   1   0  -3  752.52   64.79
  -1   0   3  692.43   64.09
  -1   0   3  753.32   64.49
  -1   0   3  750.72   65.39
  -1   0   3  680.73   64.79
  -1   0   3  764.62   64.09
   0   0  -3   64.29    6.10
   0   0  -3   56.39    5.30
   0   0  -3   61.29    5.80
   0   0  -3   64.79    5.60
   0   0  -3   59.99    5.20
   0   0  -3   63.39    6.10
   0   0   3   62.49    5.20
   0   0   3   49.50    5.90
   0   0   3   52.79    5.50
   0   0   3   58.49    5.50
   0   0   3   54.49    7.80
   0   0   3   57.69    6.40
   0   0   3   49.20    6.00
  -1   0  -3 1297.67  108.99
  -1   0  -3 1286.77  108.69
  -1   0  -3 1336.57  108.59
  -1   0  -3 1261.57  108.89
  -1   0  -3 1215.08  108.69
  -1   0  -3 1263.37  109.39
   1   0   3 1239.98  108.89
   1   0   3 1247.48  109.49
   1   0   3 1150.08  108.79
   1   0   3 1272.97  108.79
   1   0   3 1159.28  110.69
  -2   0  -3  214.28   18.80
  -2   0  -3  214.08   19.00
  -2   0  -3  207.28   18.40
  -2   0  -3  213.38   18.50
   2   0   3  197.68   18.40
   2   0   3  154.68   20.00
   2   0   3  210.38   18.40
   2   0   3  217.08   19.50
   2   0   3  208.18   21.60
  -3   0  -3  279.17   24.70
  -3   0  -3  277.17   24.70
  -3   0  -3  268.37   24.30
   3   0   3  260.07   27.10
   3   0   3  283.17   25.60
   3   0   3  256.17   24.30
  -4   0  -3    3.10    2.30
  -4   0  -3    0.60    2.60
  -4   0  -3    0.50    1.90
   4   0   3    2.70    3.00
   4   0   3    4.00    4.80
   4   0   3   -1.80    2.20
   4   0   3    0.80    3.90
  -5   0  -3  107.29   11.90
  -5   0  -3  112.59   12.60
  -5   0  -3  131.69   14.30
  -5   0  -3  128.39   12.30
   5   0   3  129.29   16.00
   5   0   3  131.39   12.30
   5   0   3  128.59   14.30
   5   0   3  108.19   12.90
  -6   0  -3   18.40    6.40
  -6   0  -3   18.20    5.00
  -6   0  -3   26.70    4.90
   6   0   3   25.00    5.00
   6   0   3   22.70    6.70
   6   0   3   28.90    8.00
  -7   0  -3    4.70    4.60
  -7   0  -3    7.20    4.90
  -7   0  -3    8.50    6.30
   7   0   3    3.90    4.80
   7   0   3    8.60    7.50
   7   0   3    5.20    7.60
  -8   0  -3   18.60    6.20
  -8   0  -3    4.90    7.20
  -8   0  -3   13.20    4.40
   8   0   3    6.50    5.80
   8   0   3   14.60    8.80
   8   0   3   25.10   10.10
   9  -1  -3   -0.40    6.10
   9  -1  -3   11.30    6.00
  -9   1   3    1.20    3.90
  -9   1   3   12.70    6.20
   8  -1  -3    2.80    6.10
   8  -1  -3   13.80    8.30
  -8   1   3    0.00    3.50
  -8   1   3   -3.30    4.70
  -8   1   3    3.70    4.90
   7  -1  -3   19.70    6.20
   7  -1  -3   15.70    4.20
   7  -1  -3   21.40    6.60
  -7   1   3   19.60    5.50
  -7   1   3   18.50    4.90
  -7   1   3   19.50    3.80
   6  -1  -3    5.80    3.00
   6  -1  -3   -2.00    3.60
   6  -1  -3    5.10    4.00
  -6   1   3    7.00    2.60
  -6   1   3    3.10    2.20
  -6   1   3   -0.40    3.20
   5  -1  -3   24.70    5.10
   5  -1  -3   27.60    4.60
   5  -1  -3   40.10    6.10
   5  -1  -3   27.90    4.30
  -5   1   3   27.80    3.50
  -5   1   3   22.90    2.50
  -5   1   3   15.60    2.70
  -5   1   3   38.00    4.50
  -5   1   3   21.10    5.10
   4  -1  -3  276.57   23.90
   4  -1  -3  248.38   22.60
   4  -1  -3  241.98   22.50
   4  -1  -3  263.87   23.00
   4  -1  -3  244.58   21.80
  -4   1   3  255.37   23.20
  -4   1   3  233.18   22.00
  -4   1   3  257.37   22.30
  -4   1   3  228.18   21.80
   3  -1  -3  325.67   28.90
   3  -1  -3  323.27   27.80
   3  -1  -3  318.67   28.40
   3  -1  -3  326.27   28.20
  -3   1   3  306.27   28.00
  -3   1   3  309.07   27.80
  -3   1   3  299.47   27.50
  -3   1   3  322.17   28.50
  -3   1   3  300.27   27.80
  -3   1   3  320.37   29.90
   2  -1  -3  254.67   22.40
   2  -1  -3  228.58   22.60
   2  -1  -3  268.17   23.50
   2  -1  -3  260.77   23.00
   2  -1  -3  255.47   23.20
   2  -1  -3  261.47   22.80
  -2   1   3  257.17   22.30
  -2   1   3  274.17   22.50
  -2   1   3  246.38   24.00
  -2   1   3  260.87   22.90
  -2   1   3  239.58   22.40
   1  -1  -3  273.57   25.50
   1  -1  -3  298.37   25.90
   1  -1  -3  271.57   26.10
   1  -1  -3  303.77   25.40
   1  -1  -3  301.17   25.20
   1  -1  -3  295.47   25.80
  -1   1   3  276.77   25.20
  -1   1   3  292.07   25.40
  -1   1   3  278.07   26.40
  -1   1   3  299.07   27.60
  -1   1   3  290.47   25.50
   0  -1  -3   94.99    8.30
   0  -1  -3   96.69    9.10
   0  -1  -3   92.09    8.40
   0  -1  -3   93.69    9.10
   0  -1  -3   93.39    8.70
   0   1   3   97.29    9.50
   0   1   3   91.59    8.40
   0   1   3  105.29   12.50
   0   1   3   96.09    8.40
  -1  -1  -3  512.25   42.40
  -1  -1  -3  475.85   42.30
  -1  -1  -3  498.75   43.10
  -1  -1  -3  486.75   42.90
  -1  -1  -3  497.65   42.70
   1   1   3  486.25   43.30
   1   1   3  485.15   45.60
   1   1   3  473.05   42.30
   1   1   3  420.76   45.40
  -2  -1  -3  255.77   23.30
  -2  -1  -3  258.47   23.00
  -2  -1  -3  263.47   23.60
   2   1   3  257.07   22.90
   2   1   3  262.77   24.20
   2   1   3  248.98   26.80
  -3  -1  -3  349.77   31.30
  -3  -1  -3  357.16   31.80
  -3  -1  -3  355.46   31.70
  -3  -1  -3  320.27   31.80
   3   1   3  344.47   32.60
   3   1   3  379.16   35.40
   3   1   3  366.26   31.30
  -4  -1  -3  245.08   22.20
  -4  -1  -3  265.67   22.40
  -4  -1  -3  216.78   22.70
  -4  -1  -3  257.87   22.10
   4   1   3  243.38   21.90
   4   1   3  162.58   25.30
   4   1   3  214.98   25.70
   4   1   3  261.07   24.10
  -5  -1  -3  212.48   19.60
  -5  -1  -3  204.48   20.50
  -5  -1  -3  204.38   19.40
  -5  -1  -3  212.78   20.10
   5   1   3  209.28   24.80
   5   1   3  223.88   21.50
   5   1   3  206.98   19.60
   5   1   3  175.58   22.50
  -6  -1  -3   -5.00    4.10
  -6  -1  -3    4.50    4.20
  -6  -1  -3    5.80    4.20
   6   1   3   -0.10    4.40
   6   1   3    5.90    7.20
   6   1   3    7.60    3.80
  -7  -1  -3    4.10    5.80
  -7  -1  -3    0.10    4.90
  -7  -1  -3    5.70    4.70
   7   1   3    4.00    8.10
   7   1   3   -1.10    7.80
  -8  -1  -3   32.60    6.70
  -8  -1  -3   45.10    8.20
   8   1   3   24.20    9.00
   8   1   3   44.20   11.60
  10  -2  -3    4.40    7.70
  10  -2  -3   12.10   10.60
 -10   2   3    1.30    6.10
 -10   2   3   17.80    6.90
   9  -2  -3   37.00    7.70
   9  -2  -3   58.39   12.10
  -9   2   3   21.50    9.50
  -9   2   3   24.60    7.20
   8  -2  -3    0.00    7.20
   8  -2  -3    7.90    4.20
   8  -2  -3    8.70    5.70
  -8   2   3    4.60    3.40
  -8   2   3   -6.10    6.30
  -8   2   3   -4.10    4.30
   7  -2  -3   83.69   11.50
   7  -2  -3   68.89    8.40
   7  -2  -3   73.79   10.50
   7  -2  -3   87.79    9.90
  -7   2   3   87.19   10.70
  -7   2   3   74.99    9.30
  -7   2   3   69.09    8.70
   6  -2  -3   -1.40    4.60
   6  -2  -3    1.20    3.60
   6  -2  -3    1.30    2.40
   6  -2  -3   -2.40    2.30
  -6   2   3    3.10    3.30
  -6   2   3    2.60    2.50
  -6   2   3    2.60    2.40
  -6   2   3    1.70    2.20
   5  -2  -3   72.79    7.60
   5  -2  -3   65.29    6.70
   5  -2  -3   62.79    8.80
   5  -2  -3   57.79    6.20
   5  -2  -3   59.09    7.50
  -5   2   3   57.59    7.10
  -5   2   3   29.60    7.40
  -5   2   3   60.49    8.10
  -5   2   3   62.69    6.80
   4  -2  -3  478.55   43.20
   4  -2  -3  485.15   42.40
   4  -2  -3  443.66   42.60
   4  -2  -3  466.45   42.30
   4  -2  -3  485.45   42.20
  -4   2   3  491.85   43.00
  -4   2   3  466.55   42.90
  -4   2   3  487.15   42.20
   3  -2  -3  325.77   29.60
   3  -2  -3  325.67   29.70
   3  -2  -3  344.57   29.80
   3  -2  -3  344.17   30.20
   3  -2  -3  331.47   29.40
   3  -2  -3  363.76   29.30
   3  -2  -3  344.77   30.50
  -3   2   3  325.57   29.90
  -3   2   3  344.07   31.60
  -3   2   3  330.37   29.60
  -3   2   3  252.87   30.40
   2  -2  -3  219.98   19.60
   2  -2  -3  228.78   20.00
   2  -2  -3  226.98   20.00
   2  -2  -3  224.98   19.30
   2  -2  -3  200.68   19.50
   2  -2  -3  222.08   20.30
   2  -2  -3  226.78   20.30
  -2   2   3  220.98   20.80
  -2   2   3  252.77   22.40
  -2   2   3  224.28   19.70
  -2   2   3  195.38   19.30
   1  -2  -3  520.75   44.50
   1  -2  -3  507.55   44.80
   1  -2  -3  524.75   44.10
   1  -2  -3  507.95   44.80
  -1   2   3  494.55   44.10
  -1   2   3  583.84   48.90
  -1   2   3  518.75   47.20
  -1   2   3  473.25   44.10
  -1   2   3  505.95   45.00
  -1   2   3  485.25   44.00
   0  -2  -3  107.59   10.50
   0  -2  -3  102.29    9.50
   0  -2  -3  105.79   10.50
   0  -2  -3  110.59   10.00
   0   2   3  127.19   15.30
   0   2   3   85.79   14.70
   0   2   3  100.59   10.40
  -1  -2  -3   25.60    3.50
  -1  -2  -3   26.30    3.00
  -1  -2  -3   24.20    2.60
  -1  -2  -3   23.40    2.60
  -1  -2  -3   26.70    4.10
   1   2   3   18.30    6.70
   1   2   3   26.10    8.80
   1   2   3   25.10    4.10
  -2  -2  -3  178.58   16.30
  -2  -2  -3  185.48   16.80
  -2  -2  -3  200.08   16.40
  -2  -2  -3  172.58   17.00
   2   2   3  161.78   17.40
   2   2   3  184.78   22.50
   2   2   3  182.28   16.10
   2   2   3  127.99   21.20
  -3  -2  -3   15.00    3.50
  -3  -2  -3   18.90    3.50
  -3  -2  -3   13.70    3.20
  -3  -2  -3   21.20    3.40
   3   2   3   18.00    7.30
   3   2   3   27.70    7.30
   3   2   3   13.70    2.90
   3   2   3   20.10    4.90
  -4  -2  -3   18.10    4.00
  -4  -2  -3   20.70    4.20
  -4  -2  -3   27.90    4.60
  -4  -2  -3   12.90    4.20
   4   2   3   18.90    5.90
   4   2   3    0.40    6.10
   4   2   3   17.60    7.90
  -5  -2  -3   12.90    3.60
  -5  -2  -3    6.70    3.10
  -5  -2  -3    4.50    4.00
   5   2   3   10.30    7.20
   5   2   3   16.60    6.50
   5   2   3   16.60    7.60
  -6  -2  -3   18.10    5.70
  -6  -2  -3   18.40    5.40
   6   2   3   20.20    7.90
   6   2   3   16.40    8.30
  -7  -2  -3    9.50    4.20
  -7  -2  -3    7.50    5.70
   7   2   3   13.60    9.50
   7   2   3    1.30    6.20
  10  -3  -3   19.80    8.00
  10  -3  -3    4.90    8.20
  10  -3  -3   32.30   11.70
 -10   3   3   14.80    5.50
 -10   3   3   10.70    9.70
   9  -3  -3  178.38   21.60
   9  -3  -3  133.69   19.10
   9  -3  -3  209.88   20.60
  -9   3   3  164.78   18.60
  -9   3   3  218.18   22.00
   8  -3  -3    4.90    4.70
   8  -3  -3    7.80    5.70
   8  -3  -3    9.50    7.30
  -8   3   3    2.60    6.70
  -8   3   3   -3.10    3.20
  -8   3   3   -3.30    4.30
   7  -3  -3   17.40    3.80
   7  -3  -3   15.90    5.50
   7  -3  -3   18.00    5.60
   7  -3  -3   12.00    4.80
  -7   3   3   29.80    7.30
  -7   3   3   23.90    5.10
  -7   3   3   20.90    4.80
   6  -3  -3    9.00    2.90
   6  -3  -3   10.30    5.20
   6  -3  -3    6.00    2.90
   6  -3  -3    8.90    3.80
   6  -3  -3    8.00    4.10
  -6   3   3    1.60    3.90
  -6   3   3    8.70    3.70
  -6   3   3    7.10    3.90
  -6   3   3   12.10    5.50
   5  -3  -3    3.10    3.00
   5  -3  -3    3.70    3.00
   5  -3  -3    6.50    3.00
   5  -3  -3    4.60    2.00
   5  -3  -3    4.80    2.40
   5  -3  -3    2.50    4.00
  -5   3   3    4.70    4.40
  -5   3   3    6.70    3.10
  -5   3   3    3.80    2.80
  -5   3   3    5.10    3.30
   4  -3  -3  217.18   20.10
   4  -3  -3  223.08   20.50
   4  -3  -3  229.38   20.90
   4  -3  -3  224.88   19.80
   4  -3  -3  222.28   21.30
   4  -3  -3  202.88   20.70
   4  -3  -3  214.88   20.40
  -4   3   3  223.48   21.10
  -4   3   3  197.78   22.10
  -4   3   3  229.48   20.70
  -4   3   3  250.87   23.00
   3  -3  -3  161.78   15.10
   3  -3  -3  163.28   14.70
   3  -3  -3  149.29   15.40
   3  -3  -3  162.28   14.90
   3  -3  -3  159.38   15.90
   3  -3  -3  160.78   15.70
   3  -3  -3  157.68   15.30
  -3   3   3  165.78   15.40
  -3   3   3  177.38   16.80
  -3   3   3  173.28   17.40
   2  -3  -3   27.30    3.10
   2  -3  -3   35.10    3.50
   2  -3  -3   25.60    3.90
   2  -3  -3   29.70    4.50
   2  -3  -3   24.00    4.10
  -2   3   3   26.10    4.70
  -2   3   3   34.30    8.20
  -2   3   3   29.60    3.00
  -2   3   3   23.30    3.40
  -2   3   3   30.20    6.60
   1  -3  -3    3.80    2.70
   1  -3  -3   -0.30    1.90
   1  -3  -3    2.70    2.70
   1  -3  -3   -0.10    0.90
  -1   3   3   -4.90    5.80
  -1   3   3    2.90    0.60
  -1   3   3    3.20    2.00
  -1   3   3   -1.80    5.00
  -1   3   3    3.10    0.70
   0  -3  -3  667.63   62.49
   0  -3  -3  714.33   63.39
   0  -3  -3  750.22   62.99
   0   3   3  795.12   67.19
   0   3   3  699.63   63.09
  -1  -3  -3  127.69   12.80
  -1  -3  -3  125.49   10.80
  -1  -3  -3  124.79   11.80
  -1  -3  -3  116.79   11.20
   1   3   3  126.29   12.40
   1   3   3   63.59   15.60
   1   3   3  140.09   17.90
  -2  -3  -3  114.69   12.10
  -2  -3  -3  127.59   11.60
  -2  -3  -3  126.89   12.90
  -2  -3  -3  119.99   11.10
   2   3   3  105.19   17.50
   2   3   3   66.99   16.80
   2   3   3  137.69   13.00
  -3  -3  -3    1.10    2.30
  -3  -3  -3    0.40    1.90
  -3  -3  -3    4.60    2.50
  -3  -3  -3    3.50    3.50
   3   3   3   -0.30    5.30
   3   3   3   -4.40    3.60
   3   3   3   -2.10    7.00
  -4  -3  -3  293.97   25.20
  -4  -3  -3  264.67   26.20
  -4  -3  -3  275.67   25.60
   4   3   3  278.77   30.00
   4   3   3  163.68   30.50
   4   3   3  331.97   27.70
  -5  -3  -3   40.30    6.20
  -5  -3  -3   38.90    6.00
   5   3   3   32.70    8.80
   5   3   3   24.60   10.50
   5   3   3   11.00    9.40
  -6  -3  -3  106.19   12.50
  -6  -3  -3  121.09   13.70
   6   3   3   90.79   17.30
   6   3   3  139.89   16.90
  10  -4  -3    1.80    7.20
  10  -4  -3    4.80    6.30
  10  -4  -3   22.60   10.70
 -10   4   3   -1.70    8.60
 -10   4   3   -3.60    6.10
   9  -4  -3    7.80    4.30
   9  -4  -3   10.50    8.30
   9  -4  -3    6.10    6.80
  -9   4   3   12.80    6.50
  -9   4   3   11.90    6.10
  -9   4   3   12.10    5.50
   8  -4  -3  128.29   17.30
   8  -4  -3  152.58   16.00
   8  -4  -3  129.99   15.20
  -8   4   3  136.49   17.10
  -8   4   3  121.49   14.80
  -8   4   3  124.79   15.40
   7  -4  -3   -2.40    3.60
   7  -4  -3    1.90    4.60
   7  -4  -3    1.40    3.20
   7  -4  -3    0.30    2.60
  -7   4   3   -0.10    3.20
  -7   4   3   -0.10    4.40
  -7   4   3    2.30    3.20
  -7   4   3    6.30    5.90
   6  -4  -3  352.06   30.20
   6  -4  -3  332.77   31.40
   6  -4  -3  332.47   29.70
   6  -4  -3  309.57   29.10
   6  -4  -3  280.77   29.70
   6  -4  -3  312.67   30.10
  -6   4   3  334.67   30.00
  -6   4   3  333.47   31.30
  -6   4   3  355.86   32.30
   5  -4  -3   66.59    8.20
   5  -4  -3   63.69    7.90
   5  -4  -3   66.89    8.00
   5  -4  -3   66.39    8.80
   5  -4  -3   63.49    7.10
   5  -4  -3   60.19    7.10
   5  -4  -3   55.59    8.60
  -5   4   3   69.29   10.80
  -5   4   3   59.59    8.00
  -5   4   3   72.99    9.30
  -5   4   3   64.49   13.10
  -5   4   3   89.49   11.80
   4  -4  -3   54.19    7.00
   4  -4  -3   51.19    6.50
   4  -4  -3   49.60    6.90
   4  -4  -3   44.80    5.70
   4  -4  -3   51.39    7.10
   4  -4  -3   50.79    6.90
   4  -4  -3   53.89    6.30
  -4   4   3   70.49   10.40
  -4   4   3   54.39    8.20
  -4   4   3   56.09    7.30
  -4   4   3   49.50   12.30
   3  -4  -3  566.04   48.20
   3  -4  -3  515.05   48.00
   3  -4  -3  552.34   47.70
   3  -4  -3  534.55   48.40
   3  -4  -3  512.65   47.20
   3  -4  -3  541.35   47.20
  -3   4   3  507.05   47.70
  -3   4   3  591.94   48.70
  -3   4   3  472.85   52.59
  -3   4   3  546.95   50.59
   2  -4  -3  385.86   33.30
   2  -4  -3  359.06   31.50
   2  -4  -3  385.96   32.50
   2  -4  -3  378.46   32.80
   2  -4  -3  359.16   31.80
  -2   4   3  254.97   36.40
  -2   4   3  389.56   32.60
  -2   4   3  361.36   36.00
  -2   4   3  319.67   31.40
   1  -4  -3  280.37   22.30
   1  -4  -3  224.18   20.90
   1  -4  -3  263.37   23.30
   1  -4  -3  243.18   21.70
  -1   4   3  228.48   21.00
  -1   4   3  299.87   28.10
  -1   4   3  253.57   22.00
  -1   4   3  175.38   28.30
  -1   4   3  237.28   20.90
   0  -4  -3  712.83   63.09
   0  -4  -3  723.43   64.39
   0  -4  -3  694.33   63.49
   0   4   3  680.93   63.39
   0   4   3  901.61   69.99
  -1  -4  -3    1.30    1.20
  -1  -4  -3   -2.20    3.10
  -1  -4  -3   -0.20    3.90
  -1  -4  -3    1.10    2.40
  -1  -4  -3    0.80    0.90
   1   4   3    7.60    9.00
   1   4   3    8.40    7.20
   1   4   3    1.80    2.70
  -2  -4  -3    1.50    2.90
  -2  -4  -3    1.20    2.50
  -2  -4  -3    5.60    4.70
   2   4   3   10.40    8.80
   2   4   3    4.20    3.60
   2   4   3    2.90    6.30
  -3  -4  -3  159.68   14.20
  -3  -4  -3  139.19   14.40
  -3  -4  -3  138.59   15.80
   3   4   3   85.09   20.50
   3   4   3  140.09   20.60
   3   4   3  145.29   15.70
  -4  -4  -3    8.70    4.30
  -4  -4  -3   -2.90    4.60
   4   4   3   -1.40    5.40
   4   4   3   -5.70    7.90
   4   4   3    2.20    9.50
  -5  -4  -3   39.10    7.10
  -5  -4  -3   41.50    7.80
   5   4   3   32.80   12.10
  10  -5  -3   24.10    9.70
  10  -5  -3   -3.00    5.00
  10  -5  -3   -1.70    3.90
 -10   5   3    7.30    6.70
 -10   5   3   -9.20    6.10
   9  -5  -3   14.10    7.40
   9  -5  -3    7.10    7.90
   9  -5  -3    2.50    3.60
  -9   5   3    7.10    6.10
  -9   5   3   15.50    6.60
  -9   5   3    6.00    8.10
   8  -5  -3  117.59   13.40
   8  -5  -3   98.29   14.90
   8  -5  -3   94.59   13.40
  -8   5   3  131.89   16.10
  -8   5   3  122.49   14.00
  -8   5   3  103.09   14.30
   7  -5  -3   11.50    4.30
   7  -5  -3   13.20    4.50
   7  -5  -3   13.80    5.30
   7  -5  -3    8.00    6.10
   7  -5  -3    5.80    4.00
  -7   5   3   19.30    7.10
  -7   5   3   -2.50    6.70
  -7   5   3    6.50    4.80
  -7   5   3    8.70    6.50
  -7   5   3   27.90   10.60
   6  -5  -3  140.99   14.30
   6  -5  -3  138.09   14.00
   6  -5  -3  135.29   14.80
   6  -5  -3  141.39   15.70
   6  -5  -3  141.99   14.90
   6  -5  -3  144.99   14.80
   6  -5  -3  128.59   15.80
  -6   5   3  150.38   19.10
  -6   5   3  176.78   19.50
  -6   5   3  137.89   18.20
  -6   5   3  165.08   16.30
  -6   5   3   80.89   18.80
  -6   5   3  136.89   21.20
  -6   5   3  181.68   16.90
   5  -5  -3   18.60    4.70
   5  -5  -3   19.10    5.90
   5  -5  -3   17.50    4.60
   5  -5  -3   27.00    4.80
   5  -5  -3   27.90    4.70
   5  -5  -3   23.00    3.50
   5  -5  -3   18.20    4.40
  -5   5   3   19.30    5.50
  -5   5   3   17.60    7.60
  -5   5   3   21.80    5.60
  -5   5   3    8.10    7.10
  -5   5   3   31.10    9.20
  -5   5   3   14.50    6.40
  -5   5   3    9.60    6.80
   4  -5  -3  166.38   17.30
   4  -5  -3  174.88   15.40
   4  -5  -3  149.99   15.90
   4  -5  -3  161.38   16.10
   4  -5  -3  176.18   16.30
   4  -5  -3  143.19   15.30
  -4   5   3  165.18   17.10
  -4   5   3  187.48   20.70
  -4   5   3  115.39   21.30
   3  -5  -3    1.50    1.80
   3  -5  -3    3.00    3.40
   3  -5  -3   -2.20    3.80
   3  -5  -3   -0.30    2.60
   3  -5  -3    4.80    4.50
  -3   5   3    3.10    8.90
  -3   5   3    2.90    2.60
  -3   5   3    0.80    7.00
  -3   5   3    6.10    6.70
   2  -5  -3   -2.10    1.30
   2  -5  -3   -0.20    2.60
   2  -5  -3    0.00    3.20
   2  -5  -3    2.10    4.40
  -2   5   3    1.90    9.20
  -2   5   3   14.70    8.50
  -2   5   3    2.00    2.00
   1  -5  -3    2.30    3.30
   1  -5  -3    0.80    3.40
   1  -5  -3    1.20    0.80
   1  -5  -3    2.20    2.70
  -1   5   3   -0.60    0.80
  -1   5   3   -1.30    9.10
  -1   5   3    8.70   10.30
  -1   5   3   -0.70    2.30
   0  -5  -3   13.90    4.30
   0  -5  -3   11.30    2.70
   0  -5  -3    3.10    3.70
   0   5   3    2.70    9.70
   0   5   3    7.70    2.70
   0   5   3   12.70    7.90
  -1  -5  -3  162.88   16.30
  -1  -5  -3  180.38   18.70
  -1  -5  -3  170.08   17.20
   1   5   3  187.58   24.60
   1   5   3  173.58   16.60
   1   5   3  114.49   24.40
  -2  -5  -3   70.89    7.90
  -2  -5  -3   62.79    9.90
  -2  -5  -3   54.39    7.90
   2   5   3   52.79   13.90
   2   5   3   57.79   15.60
  -3  -5  -3   24.40    7.30
  -3  -5  -3   37.00    5.20
  -3  -5  -3   27.00    5.70
   3   5   3   19.40   11.10
   3   5   3   29.60    9.70
   3   5   3   27.60   13.80
  -4  -5  -3   41.40    7.90
  -4  -5  -3   34.90    6.10
   4   5   3   43.50   12.80
   4   5   3   47.40   16.30
  10  -6  -3    9.50    9.00
  10  -6  -3   -4.80    5.20
  10  -6  -3    2.30    7.90
 -10   6   3   -2.80    8.70
 -10   6   3    4.00    7.10
 -10   6   3   -6.10    6.50
   9  -6  -3    2.00    4.90
   9  -6  -3   13.10    8.10
   9  -6  -3    5.40    7.00
  -9   6   3   13.70    8.20
  -9   6   3    1.20    6.60
  -9   6   3   14.20    7.90
   8  -6  -3    1.80    4.60
   8  -6  -3   -3.20    4.00
   8  -6  -3  -11.30    5.00
   8  -6  -3    5.40    5.00
   8  -6  -3    2.00    5.90
  -8   6   3   -1.00    7.30
  -8   6   3   29.80    9.40
  -8   6   3    5.60    9.00
  -8   6   3    5.00    5.60
  -8   6   3    3.50    7.10
   7  -6  -3   30.40    7.50
   7  -6  -3   21.30    5.40
   7  -6  -3   30.90    6.30
   7  -6  -3   24.80    6.20
   7  -6  -3   18.10    5.20
   7  -6  -3   19.50    5.20
   7  -6  -3   16.80    4.70
  -7   6   3    7.40    7.00
  -7   6   3   33.20    7.80
  -7   6   3   26.00   11.10
  -7   6   3   18.40    7.00
  -7   6   3   28.70    8.90
  -7   6   3    8.70    8.70
  -7   6   3   18.30    6.40
   6  -6  -3   -1.20    3.80
   6  -6  -3   -0.80    3.50
   6  -6  -3   -2.30    5.30
   6  -6  -3    1.30    4.30
   6  -6  -3    5.90    3.80
   6  -6  -3   -6.40    3.40
   6  -6  -3    4.80    4.40
  -6   6   3    1.90    6.60
  -6   6   3  -13.50    5.30
  -6   6   3    2.50    7.40
  -6   6   3    6.10    5.20
  -6   6   3    0.60    3.50
  -6   6   3    2.70    6.70
  -6   6   3  -13.00    4.90
   5  -6  -3  233.28   22.00
   5  -6  -3  218.28   20.80
   5  -6  -3  224.18   20.30
   5  -6  -3  211.98   22.00
   5  -6  -3  189.88   21.20
   5  -6  -3  203.48   20.90
  -5   6   3  158.48   28.40
  -5   6   3  253.97   25.30
  -5   6   3  238.48   22.20
   4  -6  -3  101.79   10.50
   4  -6  -3  112.79   11.30
   4  -6  -3  109.09   10.30
   4  -6  -3   98.59   12.50
  -4   6   3  108.99   15.70
  -4   6   3   41.20   13.90
  -4   6   3  107.79   11.90
  -4   6   3   69.79   18.70
   3  -6  -3  218.18   19.30
   3  -6  -3  194.68   20.70
   3  -6  -3  222.68   20.20
   3  -6  -3  179.88   18.30
  -3   6   3  205.78   25.60
  -3   6   3  226.18   19.40
  -3   6   3  134.89   27.40
   2  -6  -3   46.90    7.60
   2  -6  -3   30.60    4.20
   2  -6  -3   35.70    5.00
   2  -6  -3   32.30    6.30
  -2   6   3   36.00   10.60
  -2   6   3   29.80   10.00
  -2   6   3   36.40    4.80
  -2   6   3   26.00   11.50
   1  -6  -3   52.39    7.80
   1  -6  -3   57.19    7.00
   1  -6  -3   62.89   10.00
  -1   6   3   71.39   15.30
  -1   6   3   13.40   13.50
  -1   6   3   24.40   12.00
   0  -6  -3    8.80    6.50
   0  -6  -3   20.90    4.50
   0  -6  -3   16.40    4.40
   0   6   3    7.00   10.70
   0   6   3    2.70    9.10
   0   6   3   -0.40    8.30
  -1  -6  -3  145.69   13.00
  -1  -6  -3  118.19   15.40
  -1  -6  -3  104.89   12.70
   1   6   3  141.39   21.20
   1   6   3   98.59   21.50
   1   6   3   75.99   19.20
  -2  -6  -3    4.70    5.00
  -2  -6  -3   10.40    5.70
  -2  -6  -3    6.80    7.00
   2   6   3   13.00   11.30
   2   6   3   -6.10   11.80
   2   6   3   11.50   10.70
  -3  -6  -3   34.60    6.70
  -3  -6  -3   39.10    6.50
   3   6   3   40.70   17.70
   3   6   3   42.40   13.60
  10  -7  -3   10.10    8.30
  10  -7  -3    8.00    6.60
 -10   7   3    7.10    8.10
 -10   7   3    9.00    8.90
 -10   7   3    7.60    9.20
   9  -7  -3   12.60    7.90
   9  -7  -3   29.10    8.60
   9  -7  -3   25.20    5.90
  -9   7   3   31.50    8.60
  -9   7   3   29.60    9.80
  -9   7   3    3.70   10.00
  -9   7   3   31.80    9.20
   8  -7  -3    1.60    5.30
   8  -7  -3    0.70    5.90
   8  -7  -3    0.30    4.20
   8  -7  -3  -10.50    5.00
   8  -7  -3    0.60    5.30
   8  -7  -3   -0.90    4.10
  -8   7   3   -2.60    6.10
  -8   7   3   -6.30    7.10
  -8   7   3    6.00   10.50
  -8   7   3   -8.30    4.40
  -8   7   3   -1.90    8.30
  -8   7   3   -2.50    8.90
  -8   7   3   -1.70    8.10
   7  -7  -3   65.59    8.00
   7  -7  -3   55.09   10.50
   7  -7  -3   49.20    7.80
   7  -7  -3   36.50    8.00
   7  -7  -3   44.10    8.30
   7  -7  -3   45.80    8.20
  -7   7   3   19.40   12.50
  -7   7   3   61.09   13.80
  -7   7   3   63.89   10.60
  -7   7   3   50.99   10.10
  -7   7   3   62.59   10.00
  -7   7   3   51.39   11.60
  -7   7   3   38.10   12.50
   6  -7  -3   -3.10    2.80
   6  -7  -3   -0.50    3.90
   6  -7  -3    2.60    3.20
   6  -7  -3    0.30    3.90
   6  -7  -3    9.10    7.00
  -6   7   3   -2.10    5.00
  -6   7   3   -5.20    4.20
  -6   7   3   -0.90    6.40
  -6   7   3   -4.90    6.70
  -6   7   3   -4.80    6.80
   5  -7  -3  220.18   22.30
   5  -7  -3  204.58   20.60
   5  -7  -3  223.98   23.80
   5  -7  -3  226.28   20.90
  -5   7   3  133.69   27.60
  -5   7   3  224.68   27.10
  -5   7   3  241.98   22.10
   4  -7  -3   -5.30    4.10
   4  -7  -3    1.90    5.10
   4  -7  -3    3.10    3.40
   4  -7  -3    1.90    6.40
  -4   7   3   -8.30    7.90
  -4   7   3    0.70    8.20
  -4   7   3   -0.60   12.30
   3  -7  -3   45.70    9.20
   3  -7  -3   34.20    6.10
   3  -7  -3   31.60    6.90
  -3   7   3    6.00   11.20
  -3   7   3   49.60   13.50
  -3   7   3   16.60   14.40
   2  -7  -3    7.60    5.40
   2  -7  -3   -3.90    4.10
   2  -7  -3    2.90    4.80
  -2   7   3   -3.20    5.50
  -2   7   3    6.50   11.20
  -2   7   3   -6.20   11.20
   1  -7  -3    4.90    3.80
   1  -7  -3    9.20    4.90
   1  -7  -3   10.80    5.80
  -1   7   3   -3.60    5.80
  -1   7   3    4.00    9.70
  -1   7   3   20.00   10.60
   0  -7  -3    1.30    4.00
   0  -7  -3    1.70    7.50
   0  -7  -3   -0.90    4.90
   0   7   3    7.10    8.30
   0   7   3  -10.10    8.70
   0   7   3  -10.80   11.70
  -1  -7  -3   -1.80    5.00
  -1  -7  -3    3.60    5.90
  -1  -7  -3    4.00    3.80
   1   7   3   -8.90    9.30
   1   7   3    7.50   10.30
   1   7   3   -0.20    7.90
  -2  -7  -3    0.80    7.60
  -2  -7  -3    7.90    4.50
  -2  -7  -3    4.90    6.60
   2   7   3   -0.50   13.90
   2   7   3   -2.60    6.80
   2   7   3   -1.80   10.60
  10  -8  -3   10.30    8.60
  10  -8  -3    0.90    5.20
  10  -8  -3    1.60    8.00
 -10   8   3   15.50    7.00
 -10   8   3   27.40   11.10
 -10   8   3    9.50   12.00
 -10   8   3    3.40    8.70
   9  -8  -3   -0.50    6.40
   9  -8  -3   -6.60    6.80
   9  -8  -3    0.10    5.00
  -9   8   3   11.10   12.80
  -9   8   3   -3.00    9.10
  -9   8   3   -7.90    6.30
  -9   8   3    3.30    7.70
  -9   8   3   -5.80    7.80
   8  -8  -3    3.10    6.40
   8  -8  -3   12.10    6.30
   8  -8  -3    4.50    6.80
   8  -8  -3   16.70    5.00
  -8   8   3   25.60    8.80
  -8   8   3    1.50   10.70
  -8   8   3   10.30    8.30
  -8   8   3   18.10    9.10
  -8   8   3    7.20   11.30
  -8   8   3   -0.90    7.00
   7  -8  -3   14.20    7.10
   7  -8  -3   18.00    4.90
   7  -8  -3   14.20    6.10
   7  -8  -3   25.60    9.60
  -7   8   3    8.70   11.80
  -7   8   3    4.20    6.90
  -7   8   3   12.00    6.90
  -7   8   3   12.70   11.10
  -7   8   3   10.00   10.60
   6  -8  -3    3.00    6.00
   6  -8  -3    8.00    6.80
   6  -8  -3    2.10    5.10
   6  -8  -3    2.90    4.60
  -6   8   3    2.60    7.80
  -6   8   3   -1.30    8.10
  -6   8   3    4.60    8.60
  -6   8   3    2.50    6.80
   5  -8  -3    1.00    3.70
   5  -8  -3   -7.90    7.10
   5  -8  -3   -4.80    4.10
  -5   8   3   -6.20    7.90
  -5   8   3    3.70   12.20
  -5   8   3   -1.80    9.60
   4  -8  -3   41.20   10.40
   4  -8  -3   39.80    7.70
   4  -8  -3   45.20    8.90
  -4   8   3   67.29   14.80
  -4   8   3   27.70   14.20
  -4   8   3   43.60   17.10
   3  -8  -3   28.70    9.90
   3  -8  -3   54.79    7.60
   3  -8  -3   43.70    8.60
  -3   8   3   14.30   12.10
  -3   8   3   41.80   14.50
  -3   8   3   12.20   15.30
   2  -8  -3   79.39   10.90
   2  -8  -3   84.39   13.60
   2  -8  -3   70.49    9.60
  -2   8   3   37.00   18.70
  -2   8   3   90.59   18.60
  -2   8   3   28.60   15.30
   1  -8  -3   51.99    8.30
   1  -8  -3   38.90    8.70
  -1   8   3   42.30   18.60
  -1   8   3   33.80   14.30
  -1   8   3   13.70   13.40
   0  -8  -3    9.00    7.40
   0  -8  -3   23.60    5.70
   0  -8  -3   14.40    9.60
   0   8   3    2.80   11.80
   0   8   3    3.10   15.90
   0   8   3   38.80   14.00
  -1  -8  -3    8.70    9.40
  -1  -8  -3   -3.30    6.90
  -1  -8  -3    5.40    4.70
   1   8   3    9.20    8.90
   1   8   3   -2.50   12.60
   1   8   3   19.80   18.80
   9  -9  -3    8.50    7.40
   9  -9  -3    9.50    8.30
   9  -9  -3   17.40    8.30
  -9   9   3    4.70    9.00
  -9   9   3   11.80   10.80
  -9   9   3   17.80    9.70
  -9   9   3    7.30    8.80
   8  -9  -3   20.00    7.60
   8  -9  -3   30.80    8.00
   8  -9  -3    8.60    6.00
  -8   9   3   20.70    8.80
  -8   9   3   -3.80   12.50
  -8   9   3   12.00    9.50
  -8   9   3   16.70   14.10
  -8   9   3   23.50    9.60
   7  -9  -3    3.30    4.90
   7  -9  -3   10.70    8.00
   7  -9  -3   18.00   10.20
  -7   9   3   32.90   16.90
  -7   9   3    1.10   11.30
  -7   9   3   24.10   12.90
   6  -9  -3    8.00    6.80
   6  -9  -3   -2.00    5.10
   6  -9  -3    0.20    4.50
  -6   9   3    2.80    8.20
  -6   9   3   -6.70    9.10
  -6   9   3   -5.30    6.10
   5  -9  -3    0.70    8.80
   5  -9  -3   14.40    8.00
   5  -9  -3    8.00    6.80
  -5   9   3   -4.40   10.20
  -5   9   3   -3.80    9.20
   4  -9  -3   22.70    8.00
   4  -9  -3   31.40    6.10
   4  -9  -3   44.10    9.20
  -4   9   3  -12.70   13.40
  -4   9   3    2.60    7.80
  -4   9   3   71.29   16.20
   3  -9  -3    7.20    6.70
   3  -9  -3    2.80    5.00
   3  -9  -3    1.70    9.30
  -3   9   3    0.70   11.60
  -3   9   3   -2.20    9.40
  -3   9   3   28.60   14.50
   2  -9  -3   19.40    6.10
   2  -9  -3   29.80   11.10
   2  -9  -3   35.90    7.20
  -2   9   3   37.40   14.20
  -2   9   3    1.90   12.70
  -2   9   3   24.30   18.50
   1  -9  -3   -1.40    4.90
   1  -9  -3    1.50    5.30
   1  -9  -3    4.40    9.60
  -1   9   3   20.60   17.60
  -1   9   3   -7.20   12.50
  -1   9   3   -0.30   11.80
   7 -10  -3   20.40    9.70
   7 -10  -3   26.20    8.40
  -7  10   3    6.00   12.10
  -7  10   3   14.30   14.50
  -7  10   3   14.20   14.80
   6 -10  -3   18.50    8.60
   6 -10  -3   31.40    9.70
   6 -10  -3   19.60    8.00
  -6  10   3    0.90   15.80
  -6  10   3   -1.80    8.10
  -6  10   3    9.50   12.00
   5 -10  -3    5.00    7.40
   5 -10  -3    2.40    7.50
   5 -10  -3    2.50    8.40
  -5  10   3   -2.60    9.00
  -5  10   3   10.20   17.10
   4 -10  -3   13.70    6.50
   4 -10  -3    2.10    7.40
   4 -10  -3    4.60   10.30
  -4  10   3   -1.80   11.00
  -4  10   3  -10.70   16.30
  -2  10  -4    0.40   16.00
  -2  10  -4    2.90   11.90
  -2  10  -4  -12.40    9.90
   2 -10   4    1.80    5.50
   2 -10   4   -5.00    7.60
  -3  10  -4    9.40   17.30
  -3  10  -4    5.90   16.30
  -3  10  -4   15.10   13.60
   3 -10   4    2.20    7.40
   3 -10   4   11.10    8.40
  -4  10  -4    5.50   14.20
  -4  10  -4   -3.90    7.40
  -4  10  -4   14.20   17.50
   4 -10   4    7.90    6.10
   4 -10   4   13.70    7.40
   4 -10   4   -4.30    7.60
  -5  10  -4  105.69   22.80
  -5  10  -4  101.09   28.20
  -5  10  -4   61.99   19.20
   5 -10   4  104.19   12.80
   5 -10   4   88.59   12.30
   5 -10   4   96.19   14.30
  -6  10  -4   18.70   19.20
  -6  10  -4   63.69   17.80
   6 -10   4   63.39   11.30
   6 -10   4   77.79   12.00
   6 -10   4   62.89   10.50
  -7  10  -4    0.00   11.20
  -7  10  -4   -0.30    8.40
   7 -10   4    6.80    6.00
   7 -10   4   10.20    8.50
   0   9  -4   12.40   16.20
   0   9  -4   37.10   20.10
   0  -9   4   28.40    6.50
   0  -9   4   28.50    7.10
  -1   9  -4   -7.60    9.50
  -1   9  -4   18.30   15.40
   1  -9   4    6.60    5.20
   1  -9   4    9.60    6.80
   1  -9   4    7.30    9.20
  -2   9  -4    0.00   14.30
  -2   9  -4   28.40   17.20
  -2   9  -4   10.30   10.60
   2  -9   4   14.50    6.30
   2  -9   4   18.50    7.40
   2  -9   4    4.50    7.20
  -3   9  -4    4.00   10.30
  -3   9  -4   10.70    9.10
  -3   9  -4   -5.00   12.50
   3  -9   4    4.10    5.30
   3  -9   4   -5.20    6.40
   3  -9   4   10.00    6.30
  -4   9  -4   80.99   22.50
  -4   9  -4   35.60   14.50
  -4   9  -4   37.30   16.20
   4  -9   4   46.30    8.30
   4  -9   4   52.69    9.30
   4  -9   4   54.19   10.00
  -5   9  -4   38.20   14.90
  -5   9  -4   30.20   15.40
  -5   9  -4   77.19   18.30
   5  -9   4   69.79    9.40
   5  -9   4   64.09   10.40
   5  -9   4   63.49   10.70
  -6   9  -4    9.80   15.20
  -6   9  -4    9.70   10.40
   6  -9   4   15.70    7.40
   6  -9   4    7.00    6.90
   6  -9   4    2.70    7.20
  -7   9  -4   38.80   13.70
  -7   9  -4    5.70   11.10
   7  -9   4    9.20    7.90
   7  -9   4   17.60    7.50
  -8   9  -4    1.20   10.90
  -8   9  -4   -6.20    9.40
  -8   9  -4   -8.40    5.90
   8  -9   4   -0.90    4.90
   8  -9   4    1.50    7.90
   2   8  -4   34.10   17.00
   2   8  -4   26.70   10.70
  -2  -8   4   14.50    5.50
  -2  -8   4   16.30    7.30
   1   8  -4   11.10   13.50
   1   8  -4    4.10   10.20
  -1  -8   4   -3.00    5.90
  -1  -8   4    3.70    6.20
   0   8  -4   10.00   13.70
   0   8  -4    5.00   12.80
   0  -8   4   12.40    6.50
   0  -8   4    4.90    5.00
   0  -8   4    8.20    4.60
  -1   8  -4  256.17   37.20
  -1   8  -4  219.18   37.80
   1  -8   4  274.67   26.00
   1  -8   4  256.47   25.80
   1  -8   4  268.87   25.50
  -2   8  -4   -2.30    8.40
  -2   8  -4    4.90   11.90
  -2   8  -4    5.30    9.30
   2  -8   4   -9.60    5.40
   2  -8   4    9.50    3.80
   2  -8   4    8.10    4.40
  -3   8  -4  171.68   24.00
  -3   8  -4  149.29   28.70
  -3   8  -4  154.08   26.30
   3  -8   4  154.68   17.30
   3  -8   4  168.98   16.20
   3  -8   4  131.29   16.20
  -4   8  -4   19.30    8.20
  -4   8  -4   12.10   10.70
  -4   8  -4    3.50    9.00
   4  -8   4   -1.60    4.00
   4  -8   4   14.40    5.00
   4  -8   4   12.30    5.00
  -5   8  -4   21.70    9.00
  -5   8  -4   12.60    9.90
  -5   8  -4   13.00   13.40
   5  -8   4   11.30    6.30
   5  -8   4   14.70    6.50
   5  -8   4   15.00    5.10
  -6   8  -4   76.99   20.30
  -6   8  -4   75.69   16.20
   6  -8   4   72.79   10.80
   6  -8   4   68.29   11.00
  -7   8  -4  143.99   19.70
  -7   8  -4  135.89   26.20
  -7   8  -4  164.08   22.50
   7  -8   4  138.59   15.80
   7  -8   4  134.59   15.90
   7  -8   4  122.49   17.20
  -8   8  -4   14.90   10.20
  -8   8  -4   48.80   13.60
  -8   8  -4   17.50   13.90
   8  -8   4   19.80    6.60
   8  -8   4   49.00    8.50
   8  -8   4   28.60    7.00
  -9   8  -4   95.49   16.00
  -9   8  -4  115.49   22.00
  -9   8  -4   72.89   13.60
   9  -8   4   86.29   13.90
   9  -8   4   74.19   13.20
   9  -8   4   62.89   10.30
   3   7  -4   42.00   14.30
   3   7  -4   31.50    9.10
  -3  -7   4   22.40    7.30
   2   7  -4    5.70    5.80
   2   7  -4  -10.80    9.60
   2   7  -4   12.00   11.10
  -2  -7   4    6.60    4.20
  -2  -7   4    8.10    5.40
  -2  -7   4   -4.10    4.50
   1   7  -4   28.00   11.90
   1   7  -4   63.59   10.10
   1   7  -4   25.80   13.40
  -1  -7   4   33.60    5.90
  -1  -7   4   26.70    6.00
  -1  -7   4   20.70    6.40
   0   7  -4  151.48   26.80
   0   7  -4  152.28   17.20
   0   7  -4  140.89   25.60
   0  -7   4  150.98   15.50
   0  -7   4  142.99   15.80
   0  -7   4  157.28   15.80
  -1   7  -4  115.29   23.80
  -1   7  -4  123.59   22.50
  -1   7  -4  129.69   13.70
   1  -7   4  120.29   12.70
   1  -7   4  118.59   13.60
   1  -7   4  119.59   13.60
  -2   7  -4   11.90    9.50
  -2   7  -4   20.30    9.00
  -2   7  -4   36.70   12.90
   2  -7   4   26.80    6.10
   2  -7   4   19.80    5.30
   2  -7   4   12.30    5.50
  -3   7  -4   38.50    9.70
  -3   7  -4   28.70   12.20
  -3   7  -4   27.80   11.80
   3  -7   4   18.00    4.70
   3  -7   4   22.00    5.00
   3  -7   4   17.10    5.70
  -4   7  -4    8.80    8.30
  -4   7  -4    3.10    7.90
  -4   7  -4    4.80    8.40
   4  -7   4    3.60    5.00
   4  -7   4   10.90    4.20
   4  -7   4    1.00    4.70
   4  -7   4    4.20    2.60
  -5   7  -4   14.30   11.40
  -5   7  -4   18.50    9.70
  -5   7  -4    7.70    7.70
   5  -7   4   13.20    4.40
   5  -7   4   11.90    5.60
   5  -7   4   17.20    4.40
   5  -7   4   15.30    5.80
  -6   7  -4   24.80    9.90
  -6   7  -4   21.10   10.10
   6  -7   4   16.10    5.90
   6  -7   4   23.40    6.10
   6  -7   4   14.00    6.40
  -7   7  -4   18.80    8.00
  -7   7  -4   19.70   11.50
  -7   7  -4   12.90    6.70
   7  -7   4   15.20    6.40
   7  -7   4   12.50    4.80
   7  -7   4   13.20    6.50
  -8   7  -4   -0.40    9.40
  -8   7  -4   -2.50    5.40
  -8   7  -4    2.20    8.70
   8  -7   4   -2.40    4.70
   8  -7   4    5.60    5.50
   8  -7   4    2.20    4.30
  -9   7  -4   17.90   10.10
  -9   7  -4    5.20    8.80
   9  -7   4    1.30    7.80
   9  -7   4    5.70    5.70
   9  -7   4    2.50    6.50
   4   6  -4   -9.60   11.20
   4   6  -4   -2.80    8.30
  -4  -6   4    3.10    4.20
  -4  -6   4   -7.90    4.70
   3   6  -4   -2.30    7.70
   3   6  -4    2.90    7.50
  -3  -6   4   -1.10    4.40
  -3  -6   4    4.90    5.20
  -3  -6   4    2.90    4.40
   2   6  -4    3.90   10.10
   2   6  -4   12.10    9.00
   2   6  -4    3.40    4.90
  -2  -6   4   -2.00    4.00
  -2  -6   4   -3.00    3.00
  -2  -6   4    2.20    3.80
   1   6  -4   80.09   15.50
   1   6  -4   88.69   11.90
   1   6  -4   69.19   16.90
  -1  -6   4   74.29    9.30
  -1  -6   4   82.19    9.20
  -1  -6   4   65.29    8.90
   0   6  -4   12.70    8.70
   0   6  -4   25.10    5.60
   0   6  -4    5.60    9.50
   0  -6   4   27.60    5.50
   0  -6   4   17.80    4.50
   0  -6   4   19.00    4.30
  -1   6  -4   -1.30    2.40
  -1   6  -4   -8.90    4.60
  -1   6  -4   -2.40    7.60
   1  -6   4    1.50    3.60
   1  -6   4    1.60    1.90
   1  -6   4    0.50    2.60
   1  -6   4   -8.20    2.20
  -2   6  -4  188.58   16.80
  -2   6  -4  196.48   28.00
  -2   6  -4  218.98   25.80
  -2   6  -4  144.19   21.70
   2  -6   4  185.08   17.60
   2  -6   4  178.38   18.00
   2  -6   4  160.98   17.70
   2  -6   4  189.98   16.80
  -3   6  -4   13.70    8.00
  -3   6  -4   13.30    8.10
  -3   6  -4   11.90    5.80
   3  -6   4   12.90    3.60
   3  -6   4   12.30    3.00
   3  -6   4    3.90    4.30
   3  -6   4   13.00    3.80
  -4   6  -4  620.84   54.09
  -4   6  -4  609.64   54.69
  -4   6  -4  549.15   57.79
   4  -6   4  518.15   50.19
   4  -6   4  538.75   50.39
   4  -6   4  549.35   50.39
   4  -6   4  593.14   50.79
  -5   6  -4  107.69   14.50
  -5   6  -4  100.79   18.10
  -5   6  -4  142.39   16.70
   5  -6   4  101.39   12.60
   5  -6   4   97.69   11.40
   5  -6   4  111.89   12.50
  -6   6  -4   71.59   11.90
  -6   6  -4   45.20   10.00
  -6   6  -4   48.60   13.70
   6  -6   4   63.39    7.70
   6  -6   4   60.49    8.70
   6  -6   4   55.49    8.80
  -7   6  -4   -0.90    6.70
  -7   6  -4    6.10    8.60
  -7   6  -4    2.90    4.80
   7  -6   4   -5.60    3.30
   7  -6   4   -0.90    3.20
   7  -6   4   -2.80    5.30
  -8   6  -4  120.79   18.40
  -8   6  -4  113.59   16.70
  -8   6  -4  127.79   15.50
   8  -6   4  104.39   14.20
   8  -6   4  114.99   16.20
   8  -6   4  100.19   12.30
  -9   6  -4   14.00    7.70
  -9   6  -4  -13.10    7.30
   9  -6   4    6.90    8.80
   9  -6   4   -9.10    6.50
   5   5  -4   -3.30    7.00
   5   5  -4   -3.60    9.20
  -5  -5   4    4.60    5.80
  -5  -5   4   -3.20    5.30
   4   5  -4  195.48   21.30
   4   5  -4  119.59   21.40
  -4  -5   4  172.88   15.60
  -4  -5   4  140.39   15.90
  -4  -5   4  124.79   15.50
   3   5  -4   12.80    9.70
   3   5  -4    8.10    5.30
   3   5  -4   12.80    7.60
  -3  -5   4   12.20    4.50
  -3  -5   4   -0.40    3.00
  -3  -5   4    5.30    3.70
   2   5  -4  501.25   46.60
   2   5  -4  395.66   44.90
   2   5  -4  515.05   42.20
  -2  -5   4  390.06   40.10
  -2  -5   4  440.56   39.40
  -2  -5   4  446.76   39.60
  -2  -5   4  424.36   39.60
   1   5  -4  117.29   19.20
   1   5  -4  146.59   14.80
   1   5  -4  123.09   19.20
  -1  -5   4  125.59   12.80
  -1  -5   4  124.19   13.00
  -1  -5   4  137.79   13.30
  -1  -5   4  124.59   12.70
   0   5  -4  132.39   21.00
   0   5  -4  125.89   19.30
   0   5  -4  162.18   14.30
   0  -5   4  130.99   12.90
   0  -5   4  123.59   13.30
   0  -5   4  138.29   13.60
   0  -5   4  134.89   13.60
  -1   5  -4   50.19   11.90
  -1   5  -4   80.09   16.30
  -1   5  -4  109.69   15.90
  -1   5  -4  102.79    9.40
   1  -5   4   90.39    9.00
   1  -5   4   76.29    9.50
   1  -5   4   86.49    9.70
   1  -5   4   91.49    9.90
  -2   5  -4  643.64   57.39
  -2   5  -4  555.34   56.29
  -2   5  -4  570.14   59.39
  -2   5  -4  629.74   52.39
   2  -5   4  583.64   53.39
   2  -5   4  579.14   53.49
   2  -5   4  610.84   53.49
   2  -5   4  600.94   53.29
  -3   5  -4  207.68   21.80
  -3   5  -4  188.48   21.10
  -3   5  -4  183.78   26.00
   3  -5   4  207.48   18.70
   3  -5   4  179.88   18.30
   3  -5   4  183.78   18.10
   3  -5   4  199.88   18.40
  -4   5  -4  479.85   45.70
  -4   5  -4  493.95   44.90
  -4   5  -4  506.65   49.10
   4  -5   4  492.15   43.10
   4  -5   4  472.35   43.70
   4  -5   4  456.45   43.50
  -5   5  -4    5.20    5.50
  -5   5  -4   23.80    7.10
  -5   5  -4   28.80    6.60
  -5   5  -4   23.00    4.40
   5  -5   4   16.00    4.20
   5  -5   4   17.60    4.50
   5  -5   4   18.60    2.30
   5  -5   4   20.80    4.70
  -6   5  -4   -0.80    5.40
  -6   5  -4   -0.70    4.40
  -6   5  -4   -1.10    5.20
   6  -5   4    2.60    3.70
   6  -5   4    0.60    5.00
   6  -5   4    1.80    4.50
  -7   5  -4   -4.70    5.60
  -7   5  -4   13.50    7.20
  -7   5  -4    5.30    4.90
   7  -5   4   -2.90    4.20
   7  -5   4   11.40    4.50
   7  -5   4    4.10    6.10
  -8   5  -4   -1.20    4.40
  -8   5  -4    8.10    6.50
  -8   5  -4   -3.40    6.10
   8  -5   4    6.90    7.50
   8  -5   4    6.50    6.10
  -9   5  -4   -6.10    4.60
  -9   5  -4   -1.70    7.00
   9  -5   4    1.30    8.60
   9  -5   4   -1.00    6.90
   6   4  -4    8.90    9.50
   6   4  -4    5.20    7.20
  -6  -4   4    0.40    5.10
  -6  -4   4    1.00    4.00
   5   4  -4   88.29   12.10
   5   4  -4   85.09   13.80
   5   4  -4   85.69   16.40
  -5  -4   4   96.79   11.20
  -5  -4   4   76.89    9.70
  -5  -4   4   72.49   14.10
   4   4  -4   17.10    7.90
   4   4  -4   12.70    7.20
   4   4  -4   17.50    5.30
  -4  -4   4   22.90    4.40
  -4  -4   4   12.90    6.20
  -4  -4   4   23.60    4.50
  -4  -4   4   34.20    5.70
   3   4  -4   88.29   14.60
   3   4  -4  141.09   14.50
   3   4  -4  111.89   11.20
   3   4  -4   79.99   15.30
  -3  -4   4   89.19   10.60
  -3  -4   4   91.59    9.90
  -3  -4   4   93.19   10.20
  -3  -4   4   71.49   11.90
   2   4  -4  165.88   20.80
   2   4  -4  191.38   17.10
   2   4  -4  182.28   18.50
   2   4  -4  192.68   20.80
  -2  -4   4  169.28   16.50
  -2  -4   4  184.38   16.90
  -2  -4   4  173.48   16.40
  -2  -4   4  139.29   17.60
   1   4  -4   40.10    9.00
   1   4  -4   53.29    7.10
   1   4  -4   48.40   10.10
  -1  -4   4   57.09    6.00
  -1  -4   4   41.60    5.80
  -1  -4   4   51.79    6.60
  -1  -4   4   39.10    5.70
   0   4  -4  294.77   24.90
   0   4  -4  300.67   28.10
   0   4  -4  260.07   28.60
   0  -4   4  285.27   24.40
   0  -4   4  252.87   24.40
   0  -4   4  248.48   24.50
   0  -4   4  260.67   24.50
  -1   4  -4   76.79   10.50
  -1   4  -4   72.49    6.90
  -1   4  -4   67.69   12.20
  -1   4  -4   62.79   10.40
   1  -4   4   65.99    7.50
   1  -4   4   58.69    7.50
   1  -4   4   70.19    7.60
   1  -4   4   78.49    7.60
   1  -4   4   68.69    7.40
  -2   4  -4  135.89   19.20
  -2   4  -4  132.59   15.70
  -2   4  -4  150.48   15.80
   2  -4   4  151.38   14.10
   2  -4   4  136.89   13.70
   2  -4   4  155.48   14.10
   2  -4   4  140.69   13.80
  -3   4  -4   13.50    6.60
  -3   4  -4   19.60    4.80
  -3   4  -4   17.90    4.20
   3  -4   4   11.90    2.80
   3  -4   4   17.70    4.10
   3  -4   4   16.70    3.90
  -4   4  -4   18.50    3.50
  -4   4  -4   17.40    6.80
  -4   4  -4   22.10    4.20
  -4   4  -4   16.00    5.30
   4  -4   4   22.70    4.80
   4  -4   4   14.50    4.20
   4  -4   4   12.70    3.50
   4  -4   4   17.20    2.30
  -5   4  -4  451.65   43.10
  -5   4  -4  553.04   46.00
  -5   4  -4  556.44   46.30
  -5   4  -4  541.95   47.80
  -5   4  -4  497.75   43.20
   5  -4   4  460.05   43.80
   5  -4   4  508.35   44.80
   5  -4   4  491.25   44.00
   5  -4   4  504.65   45.50
  -6   4  -4  127.29   16.30
  -6   4  -4  138.49   15.40
  -6   4  -4  114.49   13.90
   6  -4   4  102.59   11.90
   6  -4   4  115.19   12.30
   6  -4   4  130.99   13.70
   6  -4   4  145.09   15.60
  -7   4  -4  284.47   29.80
  -7   4  -4  302.47   29.10
  -7   4  -4  309.17   28.70
   7  -4   4  288.57   28.00
   7  -4   4  302.07   29.60
   7  -4   4  294.07   28.60
  -8   4  -4   32.60    7.90
  -8   4  -4   52.59    9.50
   8  -4   4   36.10    8.50
   8  -4   4   36.30    8.20
   8  -4   4   28.90    8.10
  -9   4  -4   11.70    6.90
  -9   4  -4   -0.50    6.50
   9  -4   4   -1.20    6.70
   9  -4   4    8.20    8.70
   7   3  -4   30.50   10.50
   7   3  -4   41.30   10.10
   7   3  -4   31.80   11.40
  -7  -3   4   10.30    6.40
  -7  -3   4   33.80   12.70
  -7  -3   4   24.40    7.70
   6   3  -4  213.98   22.20
   6   3  -4  220.68   25.20
   6   3  -4  222.68   24.70
  -6  -3   4  172.58   20.10
  -6  -3   4  155.38   24.00
  -6  -3   4  184.08   19.30
   5   3  -4    0.30    5.10
   5   3  -4   -0.10    6.60
   5   3  -4   -2.20    6.80
  -5  -3   4    3.80    2.80
  -5  -3   4   -2.70    2.50
  -5  -3   4    6.20    4.50
  -5  -3   4  -11.20    6.30
   4   3  -4  105.69   11.90
   4   3  -4  132.89   14.30
   4   3  -4  117.19   15.50
   4   3  -4  107.29   11.90
  -4  -3   4   80.09   10.40
  -4  -3   4   88.79    9.40
  -4  -3   4   72.29   13.10
  -4  -3   4   78.19    9.50
   3   3  -4  102.29   14.20
   3   3  -4  107.59   11.10
   3   3  -4   88.29   12.00
   3   3  -4   91.69   12.50
  -3  -3   4   94.89   10.30
  -3  -3   4   86.39    9.60
  -3  -3   4   91.99    9.30
  -3  -3   4   90.29   12.70
   2   3  -4   39.40    8.10
   2   3  -4   49.50    8.60
   2   3  -4   58.09    7.40
   2   3  -4   48.40    6.20
  -2  -3   4   49.10    6.00
  -2  -3   4   28.70    6.50
  -2  -3   4   43.90    5.10
  -2  -3   4   46.50    5.40
   1   3  -4 1112.09   93.19
   1   3  -4 1022.50   95.39
   1   3  -4 1099.09   95.19
  -1  -3   4  983.20   93.29
  -1  -3   4 1079.49   92.49
  -1  -3   4  994.50   92.39
  -1  -3   4 1119.49   92.69
   0   3  -4  325.67   36.20
   0   3  -4  393.66   38.00
   0   3  -4  444.86   37.50
   0   3  -4  430.76   35.20
   0  -3   4  381.06   34.90
   0  -3   4  390.56   35.40
   0  -3   4  399.66   35.00
   0  -3   4  385.86   35.10
  -1   3  -4  420.16   34.90
  -1   3  -4  452.15   37.00
  -1   3  -4  373.56   37.90
  -1   3  -4  417.06   36.70
   1  -3   4  344.27   34.80
   1  -3   4  403.06   35.60
   1  -3   4  400.76   35.40
   1  -3   4  395.06   35.20
   1  -3   4  394.66   35.10
  -2   3  -4  487.25   39.50
  -2   3  -4  446.26   41.30
  -2   3  -4  458.95   39.80
   2  -3   4  447.96   38.50
   2  -3   4  455.85   38.70
   2  -3   4  376.06   38.30
   2  -3   4  391.36   37.80
   2  -3   4  477.65   39.20
  -3   3  -4   10.20    2.20
  -3   3  -4   10.60    4.60
  -3   3  -4   14.20    3.50
  -3   3  -4    7.60    2.90
   3  -3   4    9.10    2.10
   3  -3   4    7.70    2.10
   3  -3   4   11.40    2.70
   3  -3   4   14.20    3.80
  -4   3  -4  124.19   14.70
  -4   3  -4  126.09   13.30
  -4   3  -4  127.29   11.40
  -4   3  -4  134.99   14.20
   4  -3   4  140.89   12.80
   4  -3   4  122.79   12.10
   4  -3   4  123.19   12.40
   4  -3   4  118.19   13.80
  -5   3  -4  550.24   48.30
  -5   3  -4  553.54   47.80
  -5   3  -4  537.15   48.90
   5  -3   4  578.24   48.80
   5  -3   4  503.55   47.40
   5  -3   4  518.35   47.20
   5  -3   4  481.35   46.60
  -6   3  -4   11.90    5.10
  -6   3  -4   13.90    5.40
  -6   3  -4   17.90    4.20
   6  -3   4   12.00    4.60
   6  -3   4   10.10    4.20
   6  -3   4    5.00    5.80
  -7   3  -4   73.59   10.20
  -7   3  -4   64.89    9.70
  -7   3  -4   80.39   10.30
   7  -3   4   72.49   11.60
   7  -3   4   71.39   10.60
   7  -3   4   70.49    9.20
  -8   3  -4   32.70    7.70
  -8   3  -4   20.30    6.80
   8  -3   4   26.30    7.40
   8  -3   4   14.20    6.90
   8  -3   4   25.50    7.10
  -9   3  -4    6.10    9.50
  -9   3  -4   -0.10    4.20
  -9   3  -4    4.50    4.70
   9  -3   4    3.60    6.70
   9  -3   4    6.40    8.60
   9  -3   4    4.40    6.90
   8   2  -4    2.30    9.10
   8   2  -4   -1.50    6.00
  -8  -2   4   -0.70    4.90
  -8  -2   4   -3.20    3.90
   7   2  -4  201.68   22.20
   7   2  -4  172.88   21.40
   7   2  -4  181.38   22.40
  -7  -2   4  166.28   18.10
  -7  -2   4  154.58   19.00
   6   2  -4  190.78   20.50
   6   2  -4  166.98   20.60
   6   2  -4  211.68   21.80
  -6  -2   4  150.08   18.00
  -6  -2   4  156.68   17.00
   5   2  -4   75.39    9.60
   5   2  -4   63.09   10.70
   5   2  -4   70.89   10.40
  -5  -2   4   64.39    8.40
  -5  -2   4   58.99    6.90
  -5  -2   4   56.99    7.70
   4   2  -4    0.30    3.00
   4   2  -4    0.50    3.80
   4   2  -4    3.60    4.50
   4   2  -4   -1.50    2.00
  -4  -2   4   -1.50    2.10
  -4  -2   4    0.60    2.60
  -4  -2   4    5.10    5.80
  -4  -2   4    0.20    1.50
   3   2  -4    1.10    2.20
   3   2  -4    0.80    3.30
   3   2  -4    2.10    2.40
   3   2  -4   -3.90    3.50
  -3  -2   4    3.60    3.70
  -3  -2   4    1.20    1.20
  -3  -2   4    0.50    1.50
  -3  -2   4    2.70    2.10
   2   2  -4  428.16   37.50
   2   2  -4  390.46   35.60
   2   2  -4  442.46   38.00
   2   2  -4  430.46   36.90
   2   2  -4  426.76   36.90
  -2  -2   4  432.86   36.30
  -2  -2   4  404.36   35.80
  -2  -2   4  365.86   35.60
  -2  -2   4  358.46   37.50
   1   2  -4  352.16   32.00
   1   2  -4  357.76   30.60
   1   2  -4  331.77   31.50
   1   2  -4  335.37   29.80
  -1  -2   4  342.97   30.00
  -1  -2   4  321.37   31.20
  -1  -2   4  344.17   30.30
  -1  -2   4  329.97   29.80
   0   2  -4   68.39    7.90
   0   2  -4   57.19    8.10
   0   2  -4   60.09    7.00
   0   2  -4   60.09    6.20
   0  -2   4   57.09    6.20
   0  -2   4   63.69    6.00
   0  -2   4   59.39    5.80
   0  -2   4   67.09    7.30
  -1   2  -4    9.60    2.60
  -1   2  -4    9.20    2.40
  -1   2  -4    8.20    1.60
  -1   2  -4   11.70    3.70
   1  -2   4   10.80    1.90
   1  -2   4   12.20    2.60
   1  -2   4    7.50    2.60
   1  -2   4   10.70    2.40
   1  -2   4    9.50    1.70
  -2   2  -4   20.10    4.40
  -2   2  -4   21.30    3.70
  -2   2  -4   21.20    3.00
  -2   2  -4   21.80    4.60
   2  -2   4   21.40    4.20
   2  -2   4   21.50    4.40
   2  -2   4   23.00    2.80
   2  -2   4   22.40    3.40
  -3   2  -4  875.61   74.39
  -3   2  -4  872.31   76.39
  -3   2  -4  900.81   75.49
  -3   2  -4  891.31   75.29
   3  -2   4  853.71   74.99
   3  -2   4  844.72   75.79
   3  -2   4  848.02   75.99
   3  -2   4  779.92   74.79
   3  -2   4  833.22   74.49
  -4   2  -4   28.00    4.80
  -4   2  -4   30.90    4.90
  -4   2  -4   27.40    5.20
   4  -2   4   26.50    3.90
   4  -2   4   29.60    4.70
   4  -2   4   30.20    5.90
   4  -2   4   32.40    6.00
  -5   2  -4    4.30    3.20
  -5   2  -4    8.60    3.50
  -5   2  -4   -0.90    2.50
   5  -2   4   -4.20    4.20
   5  -2   4    8.50    4.30
   5  -2   4    5.50    3.50
  -6   2  -4   43.30    6.80
  -6   2  -4   45.50    6.30
  -6   2  -4   41.50    7.20
   6  -2   4   47.40    6.80
   6  -2   4   42.30    9.00
   6  -2   4   29.60    6.80
  -7   2  -4   10.60    4.00
  -7   2  -4   13.30    5.80
   7  -2   4   17.70    6.10
   7  -2   4   10.80    5.20
   7  -2   4   19.90    6.60
  -8   2  -4   95.59   12.40
  -8   2  -4  112.59   16.10
  -8   2  -4   99.59   13.00
   8  -2   4   91.99   14.50
   8  -2   4   97.19   12.50
   8  -2   4  117.49   16.50
  -9   2  -4   68.19   11.20
  -9   2  -4   70.09   14.40
  -9   2  -4   65.49   10.80
   9  -2   4   70.39   11.00
   9  -2   4   70.09   14.60
   9  -2   4  102.69   14.60
   8   1  -4    0.30    8.70
   8   1  -4   10.70    6.40
  -8  -1   4   17.50    4.70
  -8  -1   4    2.80    5.10
   7   1  -4   29.70    6.40
   7   1  -4   27.30    8.60
   7   1  -4   39.80    9.70
  -7  -1   4   29.90    7.80
  -7  -1   4   20.40    5.80
   6   1  -4   59.69    9.90
   6   1  -4   81.89   12.00
   6   1  -4   85.09   11.10
  -6  -1   4   65.59    8.50
  -6  -1   4   64.79    7.30
  -6  -1   4   78.89   10.00
   5   1  -4  174.88   17.80
   5   1  -4  178.28   18.20
   5   1  -4  178.18   17.60
  -5  -1   4  140.79   16.70
  -5  -1   4  152.68   15.80
  -5  -1   4  165.78   15.00
   4   1  -4  109.19   12.60
   4   1  -4  127.09   12.40
   4   1  -4  124.49   12.80
   4   1  -4  101.19   10.20
  -4  -1   4  103.79   10.80
  -4  -1   4  114.19   11.80
  -4  -1   4  112.09   10.10
  -4  -1   4  134.69   15.50
   3   1  -4  839.22   72.49
   3   1  -4  774.72   70.69
   3   1  -4  817.82   72.09
   3   1  -4  798.82   71.29
   3   1  -4  801.12   72.09
  -3  -1   4  827.82   70.99
  -3  -1   4  814.02   70.59
  -3  -1   4  839.42   71.59
  -3  -1   4  802.42   73.49
   2   1  -4   43.40    4.10
   2   1  -4   53.99    6.40
   2   1  -4   46.50    5.50
   2   1  -4   50.99    5.90
   2   1  -4   49.30    6.20
  -2  -1   4   49.40    7.40
  -2  -1   4   43.50    4.10
  -2  -1   4   47.90    4.70
  -2  -1   4   45.50    5.40
   1   1  -4  396.36   33.50
   1   1  -4  365.86   32.60
   1   1  -4  364.26   33.90
   1   1  -4  365.56   32.80
   1   1  -4  376.16   33.80
  -1  -1   4  355.06   34.10
  -1  -1   4  372.36   32.80
  -1  -1   4  403.86   33.30
   0   1  -4 1109.49   94.19
   0   1  -4 1063.29   92.79
   0   1  -4 1117.49   93.39
   0   1  -4 1097.29   93.59
   0   1  -4 1057.79   93.09
   0  -1   4 1102.29   93.19
   0  -1   4  919.41   93.19
   0  -1   4 1069.29   93.79
   0  -1   4 1039.80   94.39
   0  -1   4 1101.49   92.79
  -1   1  -4 1017.90   90.19
  -1   1  -4 1050.79   90.69
  -1   1  -4 1082.69   91.59
  -1   1  -4 1046.20   90.59
   1  -1   4 1034.70   90.09
   1  -1   4 1059.79   90.49
   1  -1   4  940.61   91.89
   1  -1   4 1050.39   91.19
  -2   1  -4  999.00   83.49
  -2   1  -4 1012.10   83.79
  -2   1  -4  998.00   84.39
  -2   1  -4  967.30   83.19
   2  -1   4  940.61   83.39
   2  -1   4  881.51   83.29
   2  -1   4  839.92   85.19
   2  -1   4  973.40   83.09
   2  -1   4  955.90   84.29
  -3   1  -4 1035.60   85.09
  -3   1  -4  963.60   84.19
  -3   1  -4  995.20   84.69
  -3   1  -4 1014.00   85.49
   3  -1   4  915.41   84.59
   3  -1   4  924.91   84.19
   3  -1   4  954.90   85.69
   3  -1   4  932.81   86.79
  -4   1  -4   44.20    5.80
  -4   1  -4   37.10    4.60
  -4   1  -4   41.50    5.50
   4  -1   4   29.70    3.30
   4  -1   4   34.80    4.80
   4  -1   4   25.80    5.40
   4  -1   4   48.30    8.30
   4  -1   4   18.20    4.50
  -5   1  -4   20.70    4.40
  -5   1  -4   25.40    4.80
  -5   1  -4   28.60    4.80
   5  -1   4   21.70    6.90
   5  -1   4   27.90    4.10
   5  -1   4   24.40    4.10
   5  -1   4   24.10    6.50
  -6   1  -4   65.19    8.60
  -6   1  -4   69.69    9.10
  -6   1  -4   82.59    9.20
   6  -1   4   60.79   11.30
   6  -1   4   84.09   11.20
   6  -1   4   78.59    9.20
  -7   1  -4    4.40    5.10
  -7   1  -4    4.70    5.10
  -7   1  -4   -1.60    4.20
   7  -1   4    4.20    3.50
   7  -1   4   -1.50    6.60
   7  -1   4    0.90    6.40
  -8   1  -4   54.69    8.60
  -8   1  -4   34.00    8.90
  -8   1  -4   64.09    9.50
   8  -1   4   48.80   10.50
   8  -1   4   51.19    7.70
   8  -1   4   59.89   11.50
   9   0  -4   43.80    9.50
   9   0  -4   50.09   12.90
  -9   0   4   37.50    8.00
  -9   0   4   23.30    7.60
   8   0  -4    5.80    6.30
   8   0  -4    5.80    6.90
  -8   0   4   10.70    5.30
  -8   0   4    4.30    7.10
   7   0  -4   26.50    7.60
   7   0  -4   23.00    5.80
   7   0  -4   18.10    6.90
  -7   0   4   17.20    6.80
  -7   0   4   15.80    5.00
   6   0  -4  208.88   21.70
   6   0  -4  233.18   22.80
   6   0  -4  230.88   23.00
  -6   0   4  212.28   20.00
  -6   0   4  218.68   20.80
  -6   0   4  241.88   22.40
   5   0  -4  184.28   17.10
   5   0  -4  170.38   16.20
   5   0  -4  157.58   16.20
  -5   0   4  151.58   16.10
  -5   0   4  152.48   14.70
  -5   0   4  146.89   14.30
   4   0  -4  319.97   30.10
   4   0  -4  376.06   31.80
   4   0  -4  330.67   31.10
   4   0  -4  371.36   31.40
   4   0  -4  335.57   29.70
  -4   0   4  349.87   30.00
  -4   0   4  336.57   33.10
  -4   0   4  279.17   30.30
  -4   0   4  383.46   31.10
  -4   0   4  340.87   29.60
   3   0  -4  796.02   64.99
   3   0  -4  713.73   63.59
   3   0  -4  730.03   64.49
   3   0  -4  724.33   64.49
  -3   0   4  699.53   63.09
  -3   0   4  734.43   63.49
  -3   0   4  738.43   66.29
  -3   0   4  698.63   63.09
  -3   0   4  755.22   64.19
   2   0  -4    5.40    2.50
   2   0  -4    3.10    1.50
   2   0  -4    4.30    1.60
   2   0  -4    1.90    2.00
  -2   0   4    6.00    3.70
  -2   0   4   -0.20    1.70
  -2   0   4    1.30    0.80
   1   0  -4  191.78   17.90
   1   0  -4  210.38   18.80
   1   0  -4  202.68   18.80
   1   0  -4  227.68   19.00
   1   0  -4  201.08   18.00
  -1   0   4  208.78   19.50
  -1   0   4  204.78   17.90
  -1   0   4  207.88   18.40
  -1   0   4  203.08   18.10
  -1   0   4  216.78   20.60
   0   0  -4  355.86   31.30
   0   0  -4  322.37   30.60
   0   0  -4  346.07   30.60
   0   0  -4  356.86   30.90
   0   0  -4  359.66   31.70
   0   0   4  354.16   31.00
   0   0   4  380.86   33.30
   0   0   4  367.46   30.50
   0   0   4  338.47   31.90
  -1   0  -4    3.20    1.50
  -1   0  -4   -1.20    1.80
  -1   0  -4    2.00    0.80
  -1   0  -4    0.60    1.30
  -1   0  -4    1.30    0.80
   1   0   4    2.70    1.20
   1   0   4   10.00    5.40
   1   0   4    1.50    1.00
   1   0   4    4.90    2.80
  -2   0  -4  254.87   23.10
  -2   0  -4  256.37   22.80
  -2   0  -4  253.07   23.50
  -2   0  -4  255.87   22.60
   2   0   4  246.78   26.30
   2   0   4  265.27   24.00
   2   0   4  245.88   22.70
   2   0   4  251.27   25.30
  -3   0  -4   36.90    3.90
  -3   0  -4   34.20    4.90
  -3   0  -4   25.10    4.10
   3   0   4   33.40    7.40
   3   0   4   27.50    3.90
   3   0   4   24.60    5.40
   3   0   4   14.70    6.00
  -4   0  -4  210.58   19.30
  -4   0  -4  212.98   19.90
  -4   0  -4  225.48   19.90
   4   0   4  208.18   20.80
   4   0   4  194.38   23.90
   4   0   4  198.18   19.40
  -5   0  -4   36.30    5.30
  -5   0  -4   38.20    5.50
  -5   0  -4   36.40    5.40
  -5   0  -4   17.30    6.20
   5   0   4   34.50    7.90
   5   0   4   29.20    5.10
   5   0   4   25.80    6.60
   5   0   4   34.80    7.60
  -6   0  -4   58.89    9.90
  -6   0  -4   68.09    8.00
  -6   0  -4   74.99    9.10
   6   0   4   45.70   11.20
   6   0   4   58.69   11.00
   6   0   4   64.59    8.30
  -7   0  -4    6.70    5.00
  -7   0  -4    6.10    3.90
  -7   0  -4    0.90    6.30
   7   0   4    6.20    5.90
   7   0   4   -0.60    4.50
   7   0   4    9.10    7.90
  -8   0  -4   -7.60    7.00
  -8   0  -4    5.10    3.80
  -8   0  -4   11.60    6.00
   8   0   4   10.40    5.60
   8   0   4   -7.60    7.70
   8   0   4   -2.70    5.80
   9  -1  -4    6.10    6.90
   9  -1  -4    8.70    7.30
  -9   1   4    7.80    5.70
  -9   1   4   12.70    8.30
   8  -1  -4   -3.70    7.20
   8  -1  -4    1.80    5.90
  -8   1   4   -2.20    2.90
  -8   1   4    6.20    6.70
   7  -1  -4   52.79    7.80
   7  -1  -4   59.19    9.60
   7  -1  -4   54.79   10.90
  -7   1   4   66.39    8.10
  -7   1   4   49.99    6.50
  -7   1   4   73.49   10.30
   6  -1  -4   35.70    7.20
   6  -1  -4   41.40    6.40
   6  -1  -4   50.79    8.90
  -6   1   4   46.10    5.80
  -6   1   4   45.90    5.30
  -6   1   4   47.10    7.90
   5  -1  -4    5.70    1.80
   5  -1  -4    7.80    4.60
   5  -1  -4   -1.70    2.10
   5  -1  -4    4.60    2.80
  -5   1   4    4.20    1.60
  -5   1   4    2.00    1.50
  -5   1   4    7.70    3.80
  -5   1   4    4.10    2.50
   4  -1  -4  318.07   28.10
   4  -1  -4  302.37   26.40
   4  -1  -4  322.07   27.60
   4  -1  -4  293.47   27.00
  -4   1   4  286.47   26.10
  -4   1   4  286.67   27.20
  -4   1   4  278.77   26.30
  -4   1   4  334.47   29.90
  -4   1   4  289.87   26.50
   3  -1  -4   18.90    2.00
   3  -1  -4   20.10    3.40
   3  -1  -4   23.40    4.60
   3  -1  -4   17.70    2.80
   3  -1  -4   19.90    3.50
  -3   1   4   16.90    2.50
  -3   1   4   17.70    2.90
  -3   1   4   21.70    3.50
  -3   1   4   19.40    2.20
  -3   1   4   17.90    5.10
   2  -1  -4  918.91   76.09
   2  -1  -4  869.71   75.49
   2  -1  -4  879.91   76.19
   2  -1  -4  875.31   76.49
   2  -1  -4  767.22   75.59
  -2   1   4  932.21   77.49
  -2   1   4  897.61   75.39
  -2   1   4  869.11   75.99
  -2   1   4  849.91   75.49
  -2   1   4  846.72   75.49
   1  -1  -4   12.10    1.70
   1  -1  -4   10.80    2.10
   1  -1  -4   11.80    2.60
   1  -1  -4   13.30    2.00
   1  -1  -4   14.90    3.00
  -1   1   4    9.50    1.10
  -1   1   4   23.50    5.80
  -1   1   4   10.50    1.00
  -1   1   4   14.40    3.30
  -1   1   4   12.60    1.80
   0  -1  -4 1084.59   93.19
   0  -1  -4 1069.39   92.59
   0  -1  -4 1097.19   93.39
   0  -1  -4 1099.79   92.89
   0  -1  -4 1049.20   92.39
   0   1   4 1129.49   95.99
   0   1   4  983.50   92.49
   0   1   4 1080.99   93.69
   0   1   4 1037.80   92.59
  -1  -1  -4    2.60    1.20
  -1  -1  -4    2.30    1.90
  -1  -1  -4    3.10    2.20
  -1  -1  -4    2.50    0.90
  -1  -1  -4   -1.60    1.60
   1   1   4   -3.00    4.30
   1   1   4    2.20    1.10
   1   1   4   -2.80    3.80
   1   1   4   -2.00    1.70
  -2  -1  -4  431.96   38.60
  -2  -1  -4  425.86   38.20
  -2  -1  -4  440.16   38.70
  -2  -1  -4  427.06   38.90
   2   1   4  437.86   39.60
   2   1   4  440.16   38.20
   2   1   4  441.36   42.50
  -3  -1  -4  544.45   48.80
  -3  -1  -4  551.04   48.40
  -3  -1  -4  560.14   49.00
   3   1   4  488.45   52.39
   3   1   4  553.34   49.80
   3   1   4  560.24   48.40
  -4  -1  -4  683.53   59.59
  -4  -1  -4  668.73   59.49
  -4  -1  -4  637.74   59.79
  -4  -1  -4  676.73   58.99
   4   1   4  679.93   60.79
   4   1   4  677.83   63.49
   4   1   4  661.13   58.99
  -5  -1  -4   22.20    6.10
  -5  -1  -4   16.60    4.40
  -5  -1  -4   22.10    4.60
  -5  -1  -4   26.60    4.70
   5   1   4   19.30    4.60
   5   1   4   33.10    8.10
   5   1   4   16.70    6.80
   5   1   4   18.20    5.70
  -6  -1  -4   54.99    7.70
  -6  -1  -4   51.49    8.50
  -6  -1  -4   54.19    8.30
   6   1   4   62.59   12.70
   6   1   4   54.89    7.40
   6   1   4   46.30    9.20
  -7  -1  -4    8.80    5.40
  -7  -1  -4    1.50    3.60
   7   1   4  -11.10    6.80
   7   1   4    7.60    8.40
  10  -2  -4   32.30   12.00
  10  -2  -4   25.80    7.50
 -10   2   4   12.20    9.90
 -10   2   4   27.50    6.40
   9  -2  -4   27.90    8.70
   9  -2  -4    9.80    5.40
  -9   2   4   12.50    6.70
  -9   2   4   23.80    5.40
   8  -2  -4  175.08   20.50
   8  -2  -4  259.17   25.00
   8  -2  -4  191.98   21.30
  -8   2   4  205.28   20.60
  -8   2   4  274.87   22.90
   7  -2  -4   22.40    6.50
   7  -2  -4   16.90    4.20
   7  -2  -4   14.00    5.40
  -7   2   4    9.90    6.40
  -7   2   4   16.30    3.60
  -7   2   4   24.70    4.90
   6  -2  -4  160.08   15.30
   6  -2  -4  181.48   18.10
   6  -2  -4  169.28   16.80
   6  -2  -4  163.18   16.10
   6  -2  -4  151.98   16.90
  -6   2   4  174.88   15.90
  -6   2   4  177.28   17.80
  -6   2   4  161.08   15.80
   5  -2  -4  144.79   14.80
   5  -2  -4  142.79   15.40
   5  -2  -4  136.89   16.30
   5  -2  -4  163.58   15.10
   5  -2  -4  157.68   14.40
  -5   2   4  159.58   14.70
  -5   2   4  162.68   19.70
  -5   2   4  157.18   15.80
  -5   2   4  143.59   14.60
   4  -2  -4  136.59   12.60
   4  -2  -4  143.19   14.70
   4  -2  -4  139.69   13.20
   4  -2  -4  131.39   13.50
   4  -2  -4  132.89   13.40
   4  -2  -4  134.29   13.90
  -4   2   4  173.68   18.10
  -4   2   4  136.59   12.90
  -4   2   4  142.49   14.00
  -4   2   4  142.49   14.10
   3  -2  -4  805.32   69.79
   3  -2  -4  809.42   70.69
   3  -2  -4  816.12   69.09
   3  -2  -4  761.72   70.19
   3  -2  -4  784.82   69.89
   3  -2  -4  791.72   69.29
  -3   2   4  783.22   69.39
  -3   2   4  835.22   71.59
  -3   2   4  759.82   69.79
   2  -2  -4  725.13   60.49
   2  -2  -4  712.53   60.09
   2  -2  -4  725.93   60.99
   2  -2  -4  690.23   61.39
   2  -2  -4  702.13   60.99
  -2   2   4  690.13   60.49
  -2   2   4  713.33   61.99
  -2   2   4  625.54   60.09
  -2   2   4  628.84   60.39
  -2   2   4  723.63   63.49
   1  -2  -4   20.50    3.80
   1  -2  -4   24.60    3.90
   1  -2  -4   24.60    3.10
   1  -2  -4   21.00    2.60
   1  -2  -4   23.80    2.40
  -1   2   4   24.90    4.00
  -1   2   4   17.50    6.50
  -1   2   4   22.60    2.40
  -1   2   4   22.60    2.40
  -1   2   4   22.70    2.50
   0  -2  -4   58.19    5.50
   0  -2  -4   64.59    7.00
   0  -2  -4   58.39    6.50
   0  -2  -4   53.49    5.90
   0  -2  -4   56.19    5.20
   0   2   4   52.19   10.40
   0   2   4   63.49    7.10
   0   2   4   78.19   11.50
   0   2   4   58.49    5.20
  -1  -2  -4   20.60    2.60
  -1  -2  -4   23.70    3.70
  -1  -2  -4   26.80    4.00
  -1  -2  -4   26.00    2.50
  -1  -2  -4   23.50    2.80
  -1  -2  -4   23.00    3.30
   1   2   4   19.00    3.90
   1   2   4    6.00    5.70
   1   2   4   17.30    7.00
   1   2   4   20.60    2.40
  -2  -2  -4    2.00    2.40
  -2  -2  -4   -0.40    1.90
  -2  -2  -4    2.40    1.40
  -2  -2  -4    3.80    1.90
   2   2   4    7.00    6.80
   2   2   4    3.10    1.40
   2   2   4    2.40    7.50
   2   2   4    8.90    3.00
  -3  -2  -4  163.48   16.00
  -3  -2  -4  176.58   16.30
  -3  -2  -4  160.78   15.50
  -3  -2  -4  171.38   15.40
   3   2   4  106.69   20.40
   3   2   4  146.49   20.80
   3   2   4  163.88   15.00
   3   2   4  165.68   17.20
  -4  -2  -4   45.70    5.40
  -4  -2  -4   47.80    6.70
  -4  -2  -4   41.90    6.50
  -4  -2  -4   41.20    5.90
   4   2   4   44.10    5.30
   4   2   4   46.80   11.30
   4   2   4   30.90    7.60
   4   2   4   17.20    9.20
  -5  -2  -4    7.60    3.00
  -5  -2  -4    6.80    3.40
   5   2   4    2.20    5.80
   5   2   4    1.90    5.80
  -6  -2  -4   -1.60    4.40
  -6  -2  -4    1.90    5.10
   6   2   4   10.70    7.70
   6   2   4    2.30    6.00
  -7  -2  -4   35.90    7.30
  -7  -2  -4   28.60    7.60
   7   2   4   54.89   12.20
   7   2   4   24.70   11.10
  10  -3  -4   -6.60    6.10
  10  -3  -4   -6.50    9.10
 -10   3   4    8.40    6.70
 -10   3   4   -2.00    6.00
   9  -3  -4    3.10    6.40
   9  -3  -4   16.70    6.80
  -9   3   4   24.40    6.50
  -9   3   4   21.50    7.60
   8  -3  -4  105.79   13.70
   8  -3  -4  112.69   16.10
   8  -3  -4  109.39   12.10
   8  -3  -4  120.29   14.30
  -8   3   4  135.89   15.90
  -8   3   4  103.79   12.40
  -8   3   4  128.99   13.40
   7  -3  -4   45.00    7.40
   7  -3  -4   46.60    9.20
   7  -3  -4   31.40    5.50
   7  -3  -4   35.80    6.90
  -7   3   4   43.30    6.50
  -7   3   4   35.80    8.40
  -7   3   4   31.90    5.70
   6  -3  -4    4.90    3.00
   6  -3  -4    7.50    3.20
   6  -3  -4    6.60    3.10
   6  -3  -4    5.40    3.80
   6  -3  -4    1.10    2.70
  -6   3   4    6.10    3.40
  -6   3   4    5.10    3.40
  -6   3   4    6.30    3.70
  -6   3   4   -1.00    4.00
   5  -3  -4    3.40    2.80
   5  -3  -4    3.40    2.90
   5  -3  -4    1.00    1.90
   5  -3  -4    3.00    4.00
   5  -3  -4   -1.30    2.90
   5  -3  -4    2.60    2.90
  -5   3   4    1.20    2.50
  -5   3   4   10.50    6.50
  -5   3   4    0.30    3.30
  -5   3   4    9.40    3.80
   4  -3  -4  343.17   30.40
   4  -3  -4  326.47   30.10
   4  -3  -4  332.57   29.50
   4  -3  -4  334.17   31.10
   4  -3  -4  327.07   29.80
   4  -3  -4  341.87   30.80
   4  -3  -4  335.77   30.40
  -4   3   4  367.96   30.20
  -4   3   4  327.17   30.60
  -4   3   4  342.17   32.20
  -4   3   4  267.07   31.50
   3  -3  -4   52.39    6.40
   3  -3  -4   63.19    7.20
   3  -3  -4   96.69    8.10
   3  -3  -4   60.39    6.80
   3  -3  -4   64.09    8.00
   3  -3  -4   59.29    6.10
   3  -3  -4   62.79    8.00
  -3   3   4   55.29    6.60
  -3   3   4   84.09   11.50
  -3   3   4   66.19    8.70
   2  -3  -4   56.39    6.90
   2  -3  -4   64.29    7.10
   2  -3  -4   71.09    6.10
   2  -3  -4   60.49    6.70
  -2   3   4   59.29    6.00
  -2   3   4   69.39    8.20
  -2   3   4   50.09   10.90
  -2   3   4   78.49   11.80
  -2   3   4   53.29    5.90
   1  -3  -4  411.76   36.50
   1  -3  -4  429.16   35.50
   1  -3  -4  411.76   36.00
   1  -3  -4  409.96   36.60
  -1   3   4  436.56   36.60
  -1   3   4  390.76   41.40
  -1   3   4  376.66   35.00
  -1   3   4  413.36   39.90
  -1   3   4  384.46   35.00
   0  -3  -4    1.90    1.80
   0  -3  -4    0.20    3.10
   0  -3  -4   -1.70    1.40
   0  -3  -4   -3.80    2.00
   0   3   4    0.50    2.50
   0   3   4   -1.00    5.20
   0   3   4    2.70    7.30
  -1  -3  -4  294.87   25.60
  -1  -3  -4  304.87   26.30
  -1  -3  -4  287.27   26.90
   1   3   4  192.68   32.30
   1   3   4  353.16   33.30
   1   3   4  272.47   26.80
  -2  -3  -4   83.19    8.00
  -2  -3  -4   89.49   10.40
  -2  -3  -4   86.39    8.40
  -2  -3  -4   92.29    9.60
   2   3   4   36.10   13.70
   2   3   4   94.79   10.60
   2   3   4  107.49   15.90
  -3  -3  -4    0.80    2.80
  -3  -3  -4    0.90    2.70
  -3  -3  -4    8.30    4.20
   3   3   4    1.90    7.70
   3   3   4    3.50    6.10
   3   3   4    4.70    4.80
  -4  -3  -4    7.20    4.50
  -4  -3  -4    8.60    4.60
  -4  -3  -4   15.10    4.00
   4   3   4    2.00    8.00
   4   3   4    2.30    8.30
   4   3   4   10.80    6.20
  -5  -3  -4   57.69    7.60
  -5  -3  -4   64.89    9.10
   5   3   4   66.49   11.20
   5   3   4   56.19   13.80
  -6  -3  -4    9.80    5.60
  -6  -3  -4   12.10    6.20
   6   3   4   32.50    9.80
   6   3   4   35.30   11.90
  10  -4  -4   14.90   10.20
  10  -4  -4    4.90    6.90
  10  -4  -4   12.60    8.40
 -10   4   4    8.00    9.40
 -10   4   4    1.60    6.20
   9  -4  -4    4.90    5.30
   9  -4  -4    1.10    8.20
   9  -4  -4   11.90    6.10
  -9   4   4    1.30    5.60
  -9   4   4    3.50    4.10
   8  -4  -4   17.80    6.70
   8  -4  -4   12.80    4.20
   8  -4  -4   12.60    4.30
   8  -4  -4    9.30    5.90
  -8   4   4   12.20    7.80
  -8   4   4    8.20    5.00
  -8   4   4    7.40    5.20
   7  -4  -4  265.27   25.70
   7  -4  -4  249.88   27.10
   7  -4  -4  253.27   26.20
   7  -4  -4  272.97   25.50
   7  -4  -4  274.87   26.40
  -7   4   4  292.87   25.70
  -7   4   4  257.07   26.90
  -7   4   4  315.27   27.90
   6  -4  -4   55.29    7.50
   6  -4  -4   59.49    9.20
   6  -4  -4   59.39    7.90
   6  -4  -4   44.90    6.20
   6  -4  -4   53.29    6.10
   6  -4  -4   53.69    7.80
   6  -4  -4   49.10    7.20
  -6   4   4   60.49    8.70
  -6   4   4   20.30    8.40
  -6   4   4   78.79   12.50
  -6   4   4   54.59    7.50
  -6   4   4   69.09    9.90
   5  -4  -4  612.74   54.19
   5  -4  -4  589.34   54.49
   5  -4  -4  609.84   53.69
   5  -4  -4  589.24   54.89
   5  -4  -4  583.44   53.29
   5  -4  -4  587.14   53.89
   5  -4  -4  635.84   54.69
  -5   4   4  716.33   57.49
  -5   4   4  518.95   56.09
  -5   4   4  580.04   54.09
  -5   4   4  679.03   57.59
  -5   4   4  605.24   54.59
   4  -4  -4  787.22   73.09
   4  -4  -4  802.22   74.59
   4  -4  -4  805.62   74.29
   4  -4  -4  843.42   73.49
   4  -4  -4  867.71   73.79
   4  -4  -4  879.51   74.59
   4  -4  -4  810.12   73.99
  -4   4   4  782.92   73.99
  -4   4   4  866.31   79.29
  -4   4   4  838.92   73.99
  -4   4   4  924.11   75.79
  -4   4   4  873.21   76.89
   3  -4  -4  224.08   21.70
   3  -4  -4  236.08   23.20
   3  -4  -4  247.78   21.70
   3  -4  -4  234.08   22.40
   3  -4  -4  244.68   23.00
  -3   4   4  249.58   22.20
  -3   4   4  242.18   30.20
  -3   4   4  218.38   25.90
  -3   4   4  276.77   23.80
   2  -4  -4  110.99   11.60
   2  -4  -4  111.39   11.70
   2  -4  -4   96.49   11.10
   2  -4  -4  118.69   10.40
  -2   4   4  112.89   10.10
  -2   4   4  135.79   17.00
  -2   4   4  111.59   11.60
  -2   4   4   99.59    9.80
  -2   4   4   84.69   16.60
   1  -4  -4  448.26   40.30
   1  -4  -4  436.96   41.10
   1  -4  -4  462.55   41.10
   1  -4  -4  433.06   39.70
  -1   4   4  483.65   40.60
  -1   4   4  529.55   46.50
  -1   4   4  346.47   46.10
   0  -4  -4   50.79    7.60
   0  -4  -4   51.79    6.50
   0  -4  -4   62.79    6.30
   0   4   4   59.39    7.40
   0   4   4   72.49   13.60
   0   4   4   33.90   11.90
  -1  -4  -4  255.07   24.70
  -1  -4  -4  246.68   22.80
  -1  -4  -4  250.57   23.50
   1   4   4  300.47   32.50
   1   4   4  172.98   30.30
   1   4   4  266.27   24.00
  -2  -4  -4   63.19    7.70
  -2  -4  -4   53.99    6.40
  -2  -4  -4   51.99    8.50
   2   4   4   32.40   11.80
   2   4   4   57.89   14.60
   2   4   4   46.90    7.60
  -3  -4  -4    8.40    5.60
  -3  -4  -4    2.60    2.80
  -3  -4  -4    7.70    4.60
   3   4   4    3.50    9.50
   3   4   4    0.70    9.50
   3   4   4   15.20    5.50
  -4  -4  -4   30.00    5.00
  -4  -4  -4   32.30    5.80
   4   4   4   17.60   12.10
   4   4   4   30.40    7.60
   4   4   4   24.40   11.30
  -5  -4  -4    5.30    4.50
  -5  -4  -4    8.10    5.10
   5   4   4   15.60   10.00
  10  -5  -4    1.60    7.90
  10  -5  -4    9.90    9.00
  10  -5  -4   -0.30    6.10
 -10   5   4   -0.30    8.90
 -10   5   4    0.60    6.20
   9  -5  -4   18.60    9.10
   9  -5  -4    4.10    5.30
   9  -5  -4   11.80    7.70
  -9   5   4   20.20    8.50
  -9   5   4   13.20    5.10
  -9   5   4    7.00    6.00
   8  -5  -4   32.80    9.00
   8  -5  -4   31.30    6.50
   8  -5  -4   26.20    6.70
   8  -5  -4   38.30    7.10
  -8   5   4   42.50    7.50
  -8   5   4   49.70    9.40
  -8   5   4   61.49   13.50
  -8   5   4   20.60   11.50
  -8   5   4   35.20    7.90
   7  -5  -4  145.79   16.10
   7  -5  -4  126.29   13.40
   7  -5  -4  132.39   14.30
   7  -5  -4  128.09   13.90
   7  -5  -4  126.29   14.90
   7  -5  -4  107.49   14.20
  -7   5   4  114.99   20.60
  -7   5   4  170.88   20.40
  -7   5   4  115.59   14.40
  -7   5   4  164.58   18.70
  -7   5   4  133.79   16.20
   6  -5  -4   23.10    4.40
   6  -5  -4   17.70    5.30
   6  -5  -4   18.50    4.60
   6  -5  -4   31.20    6.80
   6  -5  -4   23.60    4.10
   6  -5  -4   32.40    6.50
   6  -5  -4   23.20    4.40
  -6   5   4   32.70    8.10
  -6   5   4   10.30    5.80
  -6   5   4    4.00   10.50
  -6   5   4   15.40    5.90
  -6   5   4    6.30    7.90
  -6   5   4   13.50    5.20
  -6   5   4   10.80    5.70
   5  -5  -4   51.39    7.20
   5  -5  -4   53.99    8.00
   5  -5  -4   54.49    7.40
   5  -5  -4   51.59    8.00
   5  -5  -4   50.99    6.20
   5  -5  -4   66.29    7.30
   5  -5  -4   49.30    8.50
  -5   5   4   37.00   10.50
  -5   5   4   64.29   10.10
  -5   5   4   41.70    9.90
  -5   5   4   58.19    8.30
  -5   5   4   45.20    7.90
  -5   5   4   54.09   12.50
  -5   5   4   67.49   11.70
   4  -5  -4   34.90    4.70
   4  -5  -4   22.90    5.00
   4  -5  -4   24.90    6.20
   4  -5  -4   28.40    4.40
   4  -5  -4   22.20    5.00
  -4   5   4   23.40    4.80
  -4   5   4   31.30    9.30
  -4   5   4   23.40   10.70
  -4   5   4   25.00    6.10
   3  -5  -4   66.99    8.90
   3  -5  -4   57.39    7.40
   3  -5  -4   58.49    8.50
   3  -5  -4   60.69    6.80
   3  -5  -4   54.29    6.50
  -3   5   4   64.19   12.10
  -3   5   4   82.09    9.00
  -3   5   4   44.40   15.10
  -3   5   4   65.89    7.20
   2  -5  -4    4.80    2.80
   2  -5  -4    6.40    2.90
   2  -5  -4    9.80    4.00
   2  -5  -4    3.30    4.70
   2  -5  -4    8.00    1.40
  -2   5   4    6.40    1.50
  -2   5   4    6.40    3.00
  -2   5   4    3.90    1.20
  -2   5   4   10.20   11.50
  -2   5   4   -1.80    8.10
   1  -5  -4   47.40    5.50
   1  -5  -4   41.50    7.80
   1  -5  -4   35.00    6.10
  -1   5   4   12.60   12.40
  -1   5   4   41.20    6.00
  -1   5   4   29.00   10.40
   0  -5  -4    3.40    3.00
   0  -5  -4   -1.00    3.50
   0  -5  -4    5.20    5.30
   0   5   4    1.60   11.50
   0   5   4   -0.70    2.80
   0   5   4    0.20   10.40
  -1  -5  -4   -0.50    3.70
  -1  -5  -4    9.10    3.70
  -1  -5  -4   -0.60    4.30
   1   5   4    2.00    4.00
   1   5   4    9.90    8.30
   1   5   4   -3.60    6.40
  -2  -5  -4  235.28   21.10
  -2  -5  -4  245.48   24.10
  -2  -5  -4  226.38   22.50
   2   5   4  248.78   30.70
   2   5   4  120.89   29.30
  -3  -5  -4   30.00    8.10
  -3  -5  -4   24.40    5.70
  -3  -5  -4   28.60    6.90
   3   5   4   39.90   13.40
   3   5   4   23.50   13.70
  -4  -5  -4   15.70    5.60
  -4  -5  -4    5.80    6.30
   4   5   4   30.70   12.50
   4   5   4    3.90    9.50
  10  -6  -4   -3.70    7.80
  10  -6  -4   15.20    9.50
  10  -6  -4   12.60    6.70
 -10   6   4    3.40   12.00
 -10   6   4    1.60    4.80
 -10   6   4    2.90    8.60
   9  -6  -4   18.00    5.40
   9  -6  -4   29.00    9.30
   9  -6  -4   10.30    7.40
  -9   6   4   10.80    7.80
  -9   6   4    7.50    8.40
  -9   6   4   29.50    9.60
  -9   6   4   23.90    6.20
   8  -6  -4   12.40    7.10
   8  -6  -4    9.90    5.40
   8  -6  -4   12.30    6.40
   8  -6  -4    8.30    5.10
   8  -6  -4    7.30    5.40
  -8   6   4    5.80    9.60
  -8   6   4   26.70   10.20
  -8   6   4   10.50   10.60
  -8   6   4   -0.20    6.30
  -8   6   4   17.00    6.00
  -8   6   4    3.70    7.30
  -8   6   4   -2.30    7.70
   7  -6  -4    5.60    4.30
   7  -6  -4   -0.40    4.60
   7  -6  -4    4.20    4.30
   7  -6  -4    4.60    4.50
   7  -6  -4    1.20    3.60
   7  -6  -4    7.20    4.70
   7  -6  -4   -2.50    4.90
  -7   6   4    9.30    6.10
  -7   6   4   -4.00    7.90
  -7   6   4    7.70    8.70
  -7   6   4    5.00    7.90
  -7   6   4    9.60    5.20
  -7   6   4   -1.40    5.40
  -7   6   4    5.50    7.40
   6  -6  -4  219.68   20.50
   6  -6  -4  204.98   22.40
   6  -6  -4  223.38   22.90
   6  -6  -4  219.88   21.70
   6  -6  -4  211.18   21.90
   6  -6  -4  227.98   21.60
   6  -6  -4  212.28   21.70
  -6   6   4  238.48   22.90
  -6   6   4  264.07   29.00
  -6   6   4  211.98   22.00
  -6   6   4  169.18   28.10
  -6   6   4  281.77   25.10
  -6   6   4  203.78   26.40
   5  -6  -4    2.90    4.80
   5  -6  -4   -0.10    5.30
   5  -6  -4    7.30    3.60
   5  -6  -4    0.10    3.80
   5  -6  -4    0.00    3.70
   5  -6  -4    4.10    6.10
  -5   6   4   -3.50    7.40
  -5   6   4  -12.60    6.30
  -5   6   4    8.20    4.50
  -5   6   4  -14.30   10.20
  -5   6   4   13.80    5.70
   4  -6  -4  265.17   24.60
   4  -6  -4  289.17   25.70
   4  -6  -4  250.57   24.20
   4  -6  -4  265.17   26.90
   4  -6  -4  230.68   26.10
  -4   6   4  298.17   26.00
  -4   6   4  290.97   25.10
  -4   6   4  180.98   33.10
  -4   6   4  277.87   30.40
   3  -6  -4  134.59   12.80
   3  -6  -4  139.99   14.30
   3  -6  -4  148.99   13.90
   3  -6  -4  161.68   16.80
  -3   6   4   76.89   21.60
  -3   6   4  154.98   14.60
  -3   6   4   63.99   18.80
  -3   6   4  155.78   20.90
   2  -6  -4   34.30    5.50
   2  -6  -4   40.20    6.00
   2  -6  -4   41.90    8.50
  -2   6   4   51.99   12.30
  -2   6   4   36.00    5.40
  -2   6   4   16.80   11.30
   1  -6  -4    4.50    3.30
   1  -6  -4    6.10    3.70
   1  -6  -4    1.80    6.00
  -1   6   4   18.50   12.10
  -1   6   4    5.70   12.00
   0  -6  -4   74.09    9.60
   0  -6  -4   73.59    9.10
   0  -6  -4   89.09   12.80
   0   6   4  105.39   19.20
   0   6   4   55.69   18.90
  -1  -6  -4   30.10    8.50
  -1  -6  -4   20.30    6.10
  -1  -6  -4   12.30    4.10
   1   6   4   23.80   10.20
   1   6   4   27.40   14.80
   1   6   4   12.50   11.00
  -2  -6  -4   23.10    5.80
  -2  -6  -4   23.90    8.50
  -2  -6  -4   34.30    6.30
   2   6   4   19.80   12.50
   2   6   4   39.80   16.70
   2   6   4    5.20    8.90
  -3  -6  -4    7.70    5.60
  -3  -6  -4   -4.80    6.20
   3   6   4   18.80   16.00
   3   6   4    0.30    8.10
  10  -7  -4   16.60   10.00
  10  -7  -4   17.70    7.40
 -10   7   4   26.20    9.00
 -10   7   4   20.20   10.50
 -10   7   4   25.40    8.30
   9  -7  -4   35.10    9.40
   9  -7  -4   26.90    7.90
   9  -7  -4   45.20    8.40
   9  -7  -4   37.50    6.70
  -9   7   4   31.00   12.20
  -9   7   4   32.00   10.00
  -9   7   4   41.60   11.50
  -9   7   4   32.40    7.50
  -9   7   4   32.70   11.80
   8  -7  -4   -2.00    5.80
   8  -7  -4   -3.00    5.10
   8  -7  -4    0.60    4.80
   8  -7  -4    4.10    5.20
   8  -7  -4    4.30    5.90
   8  -7  -4    5.70    6.40
   8  -7  -4    1.60    3.70
  -8   7   4   11.60    6.50
  -8   7   4   -1.30   11.40
  -8   7   4    5.80   10.50
  -8   7   4    6.30    8.70
  -8   7   4    2.90    6.60
  -8   7   4   21.50    9.60
  -8   7   4    1.60    5.90
   7  -7  -4   -0.10    4.60
   7  -7  -4   -0.70    5.00
   7  -7  -4   -3.70    5.10
   7  -7  -4   -0.70    5.10
   7  -7  -4    7.80    4.90
   7  -7  -4    3.90    4.50
   7  -7  -4   -0.30    6.90
  -7   7   4   -3.70    6.30
  -7   7   4    1.70    8.30
  -7   7   4    5.50    6.00
  -7   7   4    8.20    7.90
  -7   7   4    7.60    9.60
  -7   7   4    0.90    5.70
  -7   7   4  -12.20    6.00
   6  -7  -4   32.70    7.20
   6  -7  -4   41.50    6.60
   6  -7  -4   38.40    7.30
   6  -7  -4   39.60    7.60
   6  -7  -4   27.70    6.10
   6  -7  -4   37.50    9.40
  -6   7   4    7.50   10.50
  -6   7   4   33.10    7.50
  -6   7   4   20.30   11.40
  -6   7   4   37.80    8.50
  -6   7   4   38.70   11.60
  -6   7   4   24.00   10.60
   5  -7  -4    8.20    5.50
   5  -7  -4   -0.50    4.40
   5  -7  -4    7.80    4.20
   5  -7  -4   -0.50    3.60
  -5   7   4    3.30    6.10
  -5   7   4   11.70   13.40
  -5   7   4    3.10    6.50
  -5   7   4    6.70    5.00
  -5   7   4   14.60    4.90
   4  -7  -4   53.29   10.30
   4  -7  -4   50.49    7.50
   4  -7  -4   42.50    6.90
  -4   7   4   71.99   14.60
  -4   7   4   19.00   12.60
  -4   7   4   49.30   15.10
   3  -7  -4   50.49    8.10
   3  -7  -4   42.20    6.70
   3  -7  -4   45.30    9.80
  -3   7   4   51.19   13.60
  -3   7   4   11.20   11.70
   2  -7  -4   19.70    7.70
   2  -7  -4    2.70    4.30
   2  -7  -4   22.80    6.20
  -2   7   4    8.60   12.00
  -2   7   4    6.90    9.80
  -2   7   4    7.10   11.30
   1  -7  -4    0.00    3.70
   1  -7  -4    0.70    4.70
   1  -7  -4   -3.50    7.00
  -1   7   4   11.50   11.00
  -1   7   4    0.00   12.60
  -1   7   4   -3.20    6.50
   0  -7  -4    0.10    4.20
   0  -7  -4    5.00    5.30
   0  -7  -4    8.40    8.10
   0   7   4    5.80   11.20
   0   7   4    3.70    9.80
   0   7   4   -2.70   10.40
  -1  -7  -4   -1.30    6.20
  -1  -7  -4    8.50    5.50
  -1  -7  -4   -0.40    8.10
   1   7   4   10.00    9.10
   1   7   4   -6.40   13.30
   1   7   4   12.40   12.40
  -2  -7  -4   -8.90    5.60
  -2  -7  -4   11.40    6.70
  -2  -7  -4    2.30    8.30
   2   7   4   -7.70    7.60
   2   7   4  -12.70   14.00
   2   7   4   -7.40   11.10
   9  -8  -4   19.30    7.10
   9  -8  -4   16.60    6.30
   9  -8  -4   16.90    8.40
  -9   8   4    2.20    7.20
  -9   8   4    1.30   11.50
  -9   8   4   19.80    7.60
  -9   8   4   14.20   10.30
  -9   8   4   24.20    9.60
   8  -8  -4   17.80    6.70
   8  -8  -4   16.20    6.80
   8  -8  -4   28.40    7.80
   8  -8  -4   18.40    7.30
   8  -8  -4    4.10    8.10
  -8   8   4    7.40   11.20
  -8   8   4  -14.90   11.00
  -8   8   4   18.10    8.00
  -8   8   4   28.40   11.70
  -8   8   4   29.80   10.10
  -8   8   4    7.60    7.20
   7  -8  -4    1.70    5.30
   7  -8  -4    4.00    6.50
   7  -8  -4    4.60    8.40
   7  -8  -4   -4.70    5.30
  -7   8   4   -2.20    5.80
  -7   8   4    9.90   13.10
  -7   8   4   -2.80    6.30
  -7   8   4    5.60   10.60
  -7   8   4    7.50    9.20
  -7   8   4    1.20    8.90
   6  -8  -4   25.90    8.00
   6  -8  -4   25.70    6.50
   6  -8  -4   49.80    8.80
  -6   8   4   12.00   14.20
  -6   8   4   11.70   10.30
  -6   8   4    7.20    8.60
  -6   8   4   24.70   10.50
   5  -8  -4   -2.60    5.20
   5  -8  -4   -0.70    8.00
   5  -8  -4    9.40    6.70
  -5   8   4    5.30    7.50
  -5   8   4   -5.70    9.00
  -5   8   4   32.00   15.50
   4  -8  -4   -2.50    4.50
   4  -8  -4    3.30    5.50
   4  -8  -4    1.90    7.90
  -4   8   4    1.60    9.80
  -4   8   4  -13.70    8.10
  -4   8   4   -6.30   10.30
   3  -8  -4   83.09    9.60
   3  -8  -4   55.89    9.10
   3  -8  -4   80.79   13.20
  -3   8   4   37.50   15.50
  -3   8   4   55.19   17.80
  -3   8   4   64.39   14.90
   2  -8  -4   36.80    8.40
   2  -8  -4   39.60   11.00
   2  -8  -4   39.20    7.60
  -2   8   4   14.60   12.50
  -2   8   4   26.60   14.10
  -2   8   4   54.09   15.90
   1  -8  -4   23.10    7.00
   1  -8  -4   42.40   11.10
   1  -8  -4   23.70    7.60
  -1   8   4   12.10   11.80
  -1   8   4   19.20   10.80
  -1   8   4   35.90   15.80
   0  -8  -4   13.30   10.20
   0  -8  -4   26.90    7.30
   0  -8  -4   27.00    6.60
   0   8   4   30.20   11.40
   0   8   4   27.10   19.40
   0   8   4    7.60   10.40
   9  -9  -4   24.20    8.70
   9  -9  -4   19.00    8.90
   9  -9  -4   22.00    6.50
  -9   9   4   27.40   11.10
  -9   9   4    9.40    6.80
  -9   9   4   26.00   12.70
  -9   9   4   26.00    9.80
   8  -9  -4   43.70   12.60
   8  -9  -4   37.60    7.80
   8  -9  -4   41.80    8.50
  -8   9   4   42.40   12.30
  -8   9   4   36.30   15.40
  -8   9   4   -0.30   12.10
  -8   9   4   29.50   10.00
   7  -9  -4    4.20    9.80
   7  -9  -4    3.00    6.40
   7  -9  -4    5.60    7.80
  -7   9   4   -2.30   13.60
  -7   9   4   10.20   11.10
  -7   9   4    1.80   11.20
   6  -9  -4   11.40    7.30
   6  -9  -4    0.90    7.90
   6  -9  -4   11.80    6.70
  -6   9   4   -1.10    7.00
  -6   9   4   -0.10   12.60
   5  -9  -4    1.70    7.30
   5  -9  -4    3.60    6.30
   5  -9  -4    3.60    6.50
  -5   9   4   -5.30    8.10
  -5   9   4   -7.10    9.70
  -5   9   4   -2.70   15.50
   4  -9  -4   -0.20    7.20
   4  -9  -4    8.40    6.40
   4  -9  -4    4.60    9.10
  -4   9   4    0.80    8.00
  -4   9   4   -2.30   11.60
  -4   9   4   -1.70   10.60
   3  -9  -4    9.90    7.20
   3  -9  -4    6.30    5.70
   3  -9  -4   15.40    7.00
  -3   9   4   35.80   14.90
  -3   9   4    8.40   16.70
  -3   9   4   14.00   13.50
   2  -9  -4    2.90    9.60
   2  -9  -4    1.00    6.70
   2  -9  -4    0.70    5.30
  -2   9   4    4.10   15.80
  -2   9   4   -3.90   12.00
  -2   9   4   21.40   14.90
   6 -10  -4   20.40    9.70
   6 -10  -4   10.60   10.90
   6 -10  -4    2.30    7.30
  -6  10   4    6.00   13.30
  -6  10   4  -11.50   11.40
   5 -10  -4   23.50    9.90
   5 -10  -4   17.20   11.20
   5 -10  -4   20.50    8.30
  -5  10   4    1.20   13.60
  -5  10   4   17.10   14.50
  -2  10  -5   -7.80   10.00
  -2  10  -5   12.90   12.70
  -2  10  -5    4.50   17.90
   2 -10   5   -4.80    7.70
   2 -10   5   -7.80    7.40
  -3  10  -5    3.00   13.40
  -3  10  -5   -1.60   15.00
  -3  10  -5   12.60   15.20
   3 -10   5   -3.40    7.00
   3 -10   5    9.10    8.10
   3 -10   5   -4.80    5.40
  -4  10  -5   21.00   11.40
  -4  10  -5   21.00   15.50
  -4  10  -5   30.10   16.60
   4 -10   5   18.50    8.10
   4 -10   5   18.70    6.80
   4 -10   5   18.60    8.40
  -5  10  -5   20.20   14.70
  -5  10  -5    9.70   19.00
  -5  10  -5   40.00   15.70
   5 -10   5   20.40    9.30
   5 -10   5   35.00    9.80
   5 -10   5   22.40    9.00
  -6  10  -5   13.10   10.40
  -6  10  -5   20.30   19.10
   6 -10   5   11.60    6.40
   6 -10   5   -6.00    5.30
   6 -10   5    9.30    8.20
  -7  10  -5   35.00   21.50
  -7  10  -5   50.59   17.10
   7 -10   5   44.00   10.20
   7 -10   5   31.60   10.40
   0   9  -5   -6.50   14.80
   0   9  -5   26.50   14.00
   0  -9   5    3.40    6.80
   0  -9   5    0.40    7.00
  -1   9  -5   16.40   12.60
  -1   9  -5   -0.30   10.10
   1  -9   5   11.00    6.40
   1  -9   5    6.60    5.50
   1  -9   5    6.40    7.10
  -2   9  -5   -6.70    8.30
  -2   9  -5  -18.70    8.60
  -2   9  -5    7.60   13.00
   2  -9   5   -7.00    4.20
   2  -9   5    5.40    6.00
   2  -9   5   11.20    6.90
  -3   9  -5    5.80   14.40
  -3   9  -5    6.40    9.60
  -3   9  -5   12.80    9.30
   3  -9   5   14.00    7.00
   3  -9   5   13.00    5.70
   3  -9   5    7.80    7.10
  -4   9  -5   -1.90    9.50
  -4   9  -5    3.40    8.40
  -4   9  -5    1.20   10.70
   4  -9   5    3.10    6.80
   4  -9   5   -2.00    6.70
   4  -9   5    3.50    6.90
  -5   9  -5    1.60   11.40
  -5   9  -5    0.70    9.80
  -5   9  -5   13.50   11.50
   5  -9   5   18.00    7.40
   5  -9   5   -8.20    6.70
   5  -9   5    4.40    6.70
  -6   9  -5   -0.70   10.80
  -6   9  -5   -9.20   13.40
   6  -9   5    3.10    7.20
   6  -9   5    2.20    7.40
  -7   9  -5    2.50   14.80
  -7   9  -5   15.60   11.50
   7  -9   5   18.80    6.00
   7  -9   5   11.30    7.90
  -8   9  -5   17.90   11.30
  -8   9  -5   23.20   15.90
  -8   9  -5   36.90   10.90
   8  -9   5   12.20    8.00
   8  -9   5   10.00    8.60
   2   8  -5   15.30   15.00
  -2  -8   5    3.50    6.70
   1   8  -5   -7.10    8.70
   1   8  -5    3.70   10.30
  -1  -8   5   -7.60    6.00
  -1  -8   5   -1.90    5.20
  -1  -8   5    6.30    6.10
   0   8  -5   48.00   17.70
   0   8  -5   61.19   17.70
   0  -8   5   30.80    6.00
   0  -8   5   32.90    7.70
   0  -8   5   29.10    6.50
  -1   8  -5   18.30   12.30
  -1   8  -5   -6.90    7.70
   1  -8   5   23.50    6.70
   1  -8   5   11.10    5.80
   1  -8   5   18.40    6.60
  -2   8  -5  239.08   32.80
  -2   8  -5  290.57   38.10
  -2   8  -5  282.97   41.20
   2  -8   5  270.87   27.30
   2  -8   5  301.57   27.10
   2  -8   5  281.87   26.70
  -3   8  -5   58.39   17.50
  -3   8  -5   73.39   14.50
  -3   8  -5   42.30   14.90
   3  -8   5   67.69    9.80
   3  -8   5   64.99    9.10
   3  -8   5   52.49    9.50
  -4   8  -5   71.39   15.00
  -4   8  -5   90.09   17.80
  -4   8  -5   93.19   22.40
   4  -8   5   77.19   10.20
   4  -8   5   76.69   10.90
   4  -8   5   65.79    9.80
  -5   8  -5   -2.80    7.60
  -5   8  -5   -9.10    7.90
  -5   8  -5    2.40    6.80
   5  -8   5   19.50    6.60
   5  -8   5    4.90    4.70
   5  -8   5   -1.70    3.80
  -6   8  -5   50.19   13.90
  -6   8  -5   59.39   18.60
   6  -8   5   51.19    9.70
   6  -8   5   44.30    7.60
  -7   8  -5   37.10   15.30
  -7   8  -5   26.90   11.80
  -7   8  -5   27.00    8.70
   7  -8   5   21.00    7.30
   7  -8   5   22.60    5.90
   7  -8   5   19.10    6.50
  -8   8  -5   86.79   15.90
  -8   8  -5   55.49   16.10
  -8   8  -5  117.49   16.70
   8  -8   5   48.30    9.70
   8  -8   5   60.19   11.50
   8  -8   5   63.69   10.70
  -9   8  -5    0.50   11.50
  -9   8  -5    8.90   10.60
  -9   8  -5    1.40   10.80
   9  -8   5    1.20    8.20
   9  -8   5    6.00    7.40
   9  -8   5    0.30    5.70
   3   7  -5   -1.40    9.20
   3   7  -5   -7.70   12.10
  -3  -7   5   -5.40    4.20
  -3  -7   5   -0.60    5.20
   2   7  -5   30.40   12.10
   2   7  -5   17.60   12.60
   2   7  -5   19.70    8.70
  -2  -7   5   14.70    5.80
  -2  -7   5   13.40    5.70
  -2  -7   5   28.40    6.60
   1   7  -5   66.19   15.40
   1   7  -5   73.69   11.20
   1   7  -5   66.29   16.00
  -1  -7   5   56.99    8.60
  -1  -7   5   58.59    9.20
  -1  -7   5   58.09    8.20
   0   7  -5  137.49   24.30
   0   7  -5  156.88   14.30
   0   7  -5  101.09   18.90
   0  -7   5   96.69   12.50
   0  -7   5   97.49   11.70
   0  -7   5   95.89   12.30
  -1   7  -5   71.39   18.80
  -1   7  -5   77.89   13.50
  -1   7  -5   81.59   15.90
   1  -7   5   58.69    8.60
   1  -7   5   66.99    9.00
   1  -7   5   73.19    9.30
  -2   7  -5  282.97   31.60
  -2   7  -5  240.08   28.10
  -2   7  -5  202.98   31.60
   2  -7   5  231.98   22.00
   2  -7   5  221.08   21.20
   2  -7   5  194.58   21.00
  -3   7  -5  122.19   22.20
  -3   7  -5   75.39   15.40
  -3   7  -5  126.49   18.20
   3  -7   5   74.09   10.60
   3  -7   5   86.49   10.80
   3  -7   5   81.29   10.20
  -4   7  -5   -2.70    6.40
  -4   7  -5    4.70    7.40
  -4   7  -5    2.60    5.60
   4  -7   5    8.70    5.30
   4  -7   5    8.60    3.90
   4  -7   5    7.80    4.30
   4  -7   5    9.90    4.30
  -5   7  -5   21.90   10.00
  -5   7  -5   10.60   11.80
  -5   7  -5   10.10    5.30
   5  -7   5    6.10    4.00
   5  -7   5    4.80    5.70
   5  -7   5    6.80    4.40
  -6   7  -5   28.40   10.30
  -6   7  -5   31.50   13.60
   6  -7   5   29.30    6.80
   6  -7   5   34.10    7.90
   6  -7   5   33.50    7.10
  -7   7  -5   -0.90    5.30
  -7   7  -5    8.70    8.90
  -7   7  -5    7.00    7.90
   7  -7   5    7.50    6.40
   7  -7   5    3.40    6.10
   7  -7   5    3.60    5.80
  -8   7  -5   30.20   11.90
  -8   7  -5   20.70    9.80
  -8   7  -5   22.50    8.40
   8  -7   5   24.80    7.50
   8  -7   5   14.40    6.80
   8  -7   5   23.90    6.60
  -9   7  -5   64.89   12.50
  -9   7  -5   81.19   14.40
   9  -7   5   77.79   11.80
   9  -7   5   84.69   14.80
   9  -7   5   86.79   12.20
   4   6  -5    5.60    6.80
   4   6  -5  -26.20    9.40
  -4  -6   5   -0.50    5.70
  -4  -6   5   -0.50    5.60
   3   6  -5    2.50    7.70
   3   6  -5    5.70   10.70
  -3  -6   5    3.20    4.10
  -3  -6   5    8.30    3.90
   2   6  -5   77.49   18.00
   2   6  -5  102.89   14.40
   2   6  -5  100.49   18.80
  -2  -6   5   87.89   10.70
  -2  -6   5  115.59   11.90
  -2  -6   5   99.59   11.20
   1   6  -5    2.70    8.90
   1   6  -5    3.90    5.10
   1   6  -5   14.40    9.50
  -1  -6   5    3.10    4.20
  -1  -6   5    4.80    4.20
  -1  -6   5    9.20    4.70
   0   6  -5   73.19    8.90
   0   6  -5   76.79   15.10
   0   6  -5   54.09   15.30
   0  -6   5   66.49    8.30
   0  -6   5   37.00    7.00
   0  -6   5   68.39    8.20
  -1   6  -5    4.00    5.70
  -1   6  -5    6.30    2.60
  -1   6  -5   -4.00    5.20
  -1   6  -5  -11.60    6.90
   1  -6   5    3.00    3.20
   1  -6   5    0.90    3.80
   1  -6   5    4.10    2.20
   1  -6   5   -3.20    3.80
  -2   6  -5   39.90   12.00
  -2   6  -5   40.10    4.40
  -2   6  -5   30.60    9.80
  -2   6  -5   30.40    8.30
   2  -6   5   35.10    6.30
   2  -6   5   32.40    5.50
   2  -6   5   30.60    5.30
   2  -6   5   46.90    5.50
  -3   6  -5  646.04   57.69
  -3   6  -5  627.74   61.79
  -3   6  -5  639.04   57.99
   3  -6   5  597.24   53.89
   3  -6   5  598.34   54.09
   3  -6   5  578.24   53.89
   3  -6   5  586.84   54.09
  -4   6  -5   65.29   12.30
  -4   6  -5   86.49   12.80
  -4   6  -5   69.19   15.00
   4  -6   5   86.39    9.70
   4  -6   5   72.79    9.90
   4  -6   5   74.19    9.50
  -5   6  -5  218.78   24.20
  -5   6  -5  191.08   26.70
  -5   6  -5  207.38   20.60
   5  -6   5  186.28   19.40
   5  -6   5  179.48   20.10
   5  -6   5  209.68   20.30
  -6   6  -5   14.10    9.70
  -6   6  -5   25.20    8.70
  -6   6  -5   41.00    9.70
   6  -6   5   28.10    5.80
   6  -6   5   26.50    7.10
   6  -6   5   15.20    6.10
  -7   6  -5   -1.30    6.90
  -7   6  -5    7.20    5.70
  -7   6  -5    1.90    5.70
   7  -6   5   12.00    6.90
   7  -6   5    5.90    4.30
   7  -6   5   -1.10    4.90
  -8   6  -5   37.60   11.40
  -8   6  -5   39.70    9.40
  -8   6  -5   27.30    9.20
   8  -6   5   34.30    9.90
   8  -6   5   25.00    8.20
   8  -6   5   29.20    7.10
  -9   6  -5   89.09   12.60
  -9   6  -5   74.69   14.40
   9  -6   5   57.59   14.30
   9  -6   5   78.69   12.40
   5   5  -5    7.80   11.30
   5   5  -5   17.40    7.80
  -5  -5   5    6.10    5.80
  -5  -5   5    8.80    6.10
   4   5  -5    0.00    6.70
   4   5  -5   10.00    8.10
  -4  -5   5    0.20    4.80
  -4  -5   5   -6.80    4.50
   3   5  -5  333.47   33.70
   3   5  -5  343.67   35.70
   3   5  -5  339.37   31.80
  -3  -5   5  289.97   28.30
  -3  -5   5  292.37   28.20
  -3  -5   5  289.57   28.70
   2   5  -5   93.09   11.50
   2   5  -5   94.89   16.00
   2   5  -5  104.59   16.80
  -2  -5   5   65.49   10.10
  -2  -5   5   81.39    9.40
  -2  -5   5   82.09    9.90
  -2  -5   5   79.29    9.20
   1   5  -5  127.19   17.80
   1   5  -5  109.19   17.10
   1   5  -5  114.29   12.70
  -1  -5   5   98.89   11.10
  -1  -5   5  106.49   11.10
  -1  -5   5   99.39   11.10
  -1  -5   5   91.29   10.90
   0   5  -5   28.10    5.30
   0   5  -5   23.20    9.70
   0   5  -5   29.00    9.00
   0  -5   5   25.70    4.30
   0  -5   5   34.40    4.80
   0  -5   5   33.60    5.30
   0  -5   5   34.90    5.40
  -1   5  -5  100.99   14.20
  -1   5  -5  112.79   18.10
  -1   5  -5   95.09   14.80
  -1   5  -5  100.19    9.50
   1  -5   5   92.29   10.20
   1  -5   5   89.29   10.40
   1  -5   5   84.39    9.80
   1  -5   5   98.49   10.30
  -2   5  -5   13.90    1.50
  -2   5  -5    6.00    4.20
  -2   5  -5   15.70    6.10
  -2   5  -5    9.70    7.40
   2  -5   5   11.90    3.50
   2  -5   5    7.20    2.00
   2  -5   5   15.00    4.00
   2  -5   5   10.70    3.90
   2  -5   5    9.20    2.30
   2  -5   5   10.40    3.30
  -3   5  -5  262.67   25.70
  -3   5  -5  274.87   26.70
  -3   5  -5  242.28   29.00
   3  -5   5  244.68   24.00
   3  -5   5  239.58   24.00
   3  -5   5  263.47   23.50
  -4   5  -5    1.80    2.90
  -4   5  -5    4.90    6.70
  -4   5  -5    1.20    5.00
   4  -5   5    2.20    3.80
   4  -5   5    6.60    2.70
   4  -5   5   -0.80    3.60
  -5   5  -5   49.40    9.40
  -5   5  -5   61.39    7.60
  -5   5  -5   71.79   11.30
  -5   5  -5   65.09   12.00
   5  -5   5   60.09    7.90
   5  -5   5   72.19    9.80
   5  -5   5   71.89    8.50
  -6   5  -5   66.39   10.10
  -6   5  -5   65.79   12.70
  -6   5  -5   61.69   10.90
   6  -5   5   60.99   10.20
   6  -5   5   67.49    8.50
   6  -5   5   52.39    7.90
  -7   5  -5   43.50    9.20
  -7   5  -5   46.70    9.70
  -7   5  -5   39.60    9.50
   7  -5   5   38.40    8.00
   7  -5   5   39.10    6.20
   7  -5   5   37.20    9.20
  -8   5  -5   12.70    7.30
  -8   5  -5    8.00    7.40
  -8   5  -5   -1.70    4.40
   8  -5   5    6.50    6.10
   8  -5   5    4.70    6.50
  -9   5  -5   -2.90    5.30
  -9   5  -5   -2.00    4.60
   9  -5   5   13.30    7.40
   9  -5   5    3.00    6.40
   6   4  -5    6.30    9.70
   6   4  -5   10.80    7.30
  -6  -4   5   -1.90    4.90
  -6  -4   5   -0.20    6.10
   5   4  -5   11.90    9.80
   5   4  -5    1.80    5.50
   5   4  -5    6.50    7.90
  -5  -4   5   -0.60    4.80
  -5  -4   5    9.50    7.60
  -5  -4   5    8.10    5.30
   4   4  -5   73.99   10.00
   4   4  -5   67.39   12.50
   4   4  -5   75.39   11.30
  -4  -4   5   71.39    9.00
  -4  -4   5   63.89    7.90
  -4  -4   5   52.89   10.70
  -4  -4   5   57.29    7.60
   3   4  -5   51.69   10.10
   3   4  -5   47.00   10.20
   3   4  -5   39.10    7.80
   3   4  -5   48.30    7.30
  -3  -4   5   44.60    5.90
  -3  -4   5   50.49    8.70
  -3  -4   5   42.90    6.90
  -3  -4   5   47.70    6.40
   2   4  -5   11.90    6.20
   2   4  -5    8.90    5.70
   2   4  -5    9.70    4.80
  -2  -4   5    5.30    2.80
  -2  -4   5   11.10    3.50
  -2  -4   5   13.00    4.60
  -2  -4   5    6.00    2.60
   1   4  -5   90.29   13.70
   1   4  -5   96.29   15.20
   1   4  -5  104.39   11.20
  -1  -4   5  109.79   10.10
  -1  -4   5  102.59   10.70
  -1  -4   5   84.39   10.90
  -1  -4   5  100.49   10.10
   0   4  -5   84.59   12.00
   0   4  -5   66.09   10.90
   0   4  -5   74.09   13.50
   0   4  -5   93.59    8.90
   0  -4   5   88.89    9.20
   0  -4   5   73.99    8.50
   0  -4   5   86.99    9.10
   0  -4   5   79.69    8.80
  -1   4  -5  452.85   43.00
  -1   4  -5  513.25   45.50
  -1   4  -5  478.85   40.60
  -1   4  -5  510.45   43.60
   1  -4   5  449.86   41.20
   1  -4   5  425.26   40.80
   1  -4   5  483.65   41.00
   1  -4   5  448.76   41.10
   1  -4   5  422.76   41.00
  -2   4  -5    0.10    4.90
  -2   4  -5    0.10    2.90
  -2   4  -5    1.90    2.70
   2  -4   5    1.40    1.50
   2  -4   5    1.10    2.90
   2  -4   5    3.70    2.60
   2  -4   5   -1.30    2.70
   2  -4   5    1.10    0.80
  -3   4  -5  165.58   16.00
  -3   4  -5  159.58   17.20
  -3   4  -5  161.38   19.30
   3  -4   5  148.89   16.20
   3  -4   5  155.58   15.00
   3  -4   5  165.48   15.80
  -4   4  -5  205.48   19.00
  -4   4  -5  196.98   19.50
  -4   4  -5  196.08   21.10
  -4   4  -5  183.48   17.10
  -4   4  -5  188.98   17.70
   4  -4   5  193.78   18.50
   4  -4   5  183.18   17.70
   4  -4   5  159.78   16.40
   4  -4   5  185.48   17.20
  -5   4  -5   82.89   11.00
  -5   4  -5   94.99   13.70
  -5   4  -5   88.49   11.70
  -5   4  -5   83.19    7.90
   5  -4   5   82.79    9.80
   5  -4   5   81.59    8.70
   5  -4   5   77.79    8.80
   5  -4   5   95.59   11.80
  -6   4  -5  334.77   29.20
  -6   4  -5  338.57   30.80
  -6   4  -5  316.67   29.60
   6  -4   5  282.67   29.60
   6  -4   5  275.37   27.30
   6  -4   5  288.47   28.20
   6  -4   5  273.97   27.50
  -7   4  -5   39.20    9.10
  -7   4  -5   56.59    9.40
  -7   4  -5   55.29    9.40
   7  -4   5   51.79    7.90
   7  -4   5   50.09    9.40
   7  -4   5   62.29    9.00
  -8   4  -5   22.70    7.80
  -8   4  -5   47.30    8.60
   8  -4   5   40.90    8.50
   8  -4   5   41.90   10.60
  -9   4  -5   14.10    7.10
  -9   4  -5    1.70    7.20
   9  -4   5    4.50    7.50
   9  -4   5    3.90    9.10
   7   3  -5   29.50   10.90
   7   3  -5   45.30   10.70
   7   3  -5   49.70   12.00
  -7  -3   5   34.30    8.50
  -7  -3   5   31.00    7.40
  -7  -3   5   19.70   10.00
   6   3  -5   16.80    7.40
   6   3  -5   12.90    8.30
   6   3  -5   15.70    7.40
  -6  -3   5   13.50    6.30
  -6  -3   5   12.10    5.00
  -6  -3   5    7.10    9.80
   5   3  -5  175.38   18.90
   5   3  -5  130.99   16.30
   5   3  -5  149.09   19.70
  -5  -3   5  158.08   20.30
  -5  -3   5  133.79   15.30
  -5  -3   5  128.19   13.80
   4   3  -5    4.40    5.40
   4   3  -5   -0.30    4.30
   4   3  -5    5.30    4.30
   4   3  -5    3.80    3.40
  -4  -3   5   -5.80    5.40
  -4  -3   5   -3.80    3.80
  -4  -3   5    0.80    2.10
  -4  -3   5    3.50    2.50
   3   3  -5   61.09    8.50
   3   3  -5   42.20    8.40
   3   3  -5   53.59    8.40
   3   3  -5   49.80    7.30
  -3  -3   5   38.60    6.20
  -3  -3   5   39.50    5.30
  -3  -3   5   51.39    9.00
  -3  -3   5   41.80    5.10
   2   3  -5  481.05   44.00
   2   3  -5  511.35   44.50
   2   3  -5  497.65   42.60
  -2  -3   5  475.25   41.80
  -2  -3   5  436.46   41.10
  -2  -3   5  435.96   43.00
  -2  -3   5  449.66   41.20
   1   3  -5  261.37   25.60
   1   3  -5  273.17   25.30
   1   3  -5  270.17   23.60
  -1  -3   5  238.58   22.80
  -1  -3   5  245.78   22.70
  -1  -3   5  268.27   23.30
  -1  -3   5  229.78   24.00
   0   3  -5  971.30   84.59
   0   3  -5  957.80   86.19
   0   3  -5 1037.40   87.59
   0   3  -5  927.31   85.49
   0  -3   5  974.30   84.39
   0  -3   5  976.50   84.69
   0  -3   5  938.51   84.19
   0  -3   5  949.11   85.09
  -1   3  -5  301.37   24.80
  -1   3  -5  294.17   28.10
  -1   3  -5  287.87   26.30
  -1   3  -5  286.27   26.10
   1  -3   5  291.37   25.60
   1  -3   5  286.77   25.20
   1  -3   5  285.57   25.00
   1  -3   5  247.68   24.60
   1  -3   5  234.18   25.50
  -2   3  -5   35.80    6.80
  -2   3  -5   39.60    5.10
  -2   3  -5   36.50    5.30
   2  -3   5   29.40    3.30
   2  -3   5   27.90    4.10
   2  -3   5   29.60    5.20
   2  -3   5   36.90    4.00
   2  -3   5   17.10    4.40
  -3   3  -5    6.40    4.40
  -3   3  -5    4.80    2.20
  -3   3  -5    5.50    2.70
   3  -3   5    6.20    3.80
   3  -3   5    0.30    2.80
   3  -3   5    6.40    1.80
   3  -3   5    5.40    2.50
  -4   3  -5  168.18   18.20
  -4   3  -5  182.18   17.60
  -4   3  -5  164.88   15.30
  -4   3  -5  179.88   17.40
   4  -3   5  172.28   18.00
   4  -3   5  182.78   16.80
   4  -3   5  161.38   16.70
   4  -3   5  169.48   15.90
  -5   3  -5   19.70    5.30
  -5   3  -5   12.70    4.60
  -5   3  -5   15.40    4.40
   5  -3   5   14.70    4.70
   5  -3   5   13.80    4.70
   5  -3   5   16.20    4.50
   5  -3   5   23.30    4.00
  -6   3  -5   67.99    9.60
  -6   3  -5   87.49   10.30
  -6   3  -5   76.79   10.80
   6  -3   5   61.19    8.90
   6  -3   5   65.89    9.80
   6  -3   5   82.59   11.60
  -7   3  -5    4.30    4.80
  -7   3  -5    3.10    5.60
  -7   3  -5   -0.40    4.10
   7  -3   5    2.30    4.80
   7  -3   5   -2.00    2.80
   7  -3   5    7.20    4.00
  -8   3  -5   20.40    7.00
  -8   3  -5   18.70    7.50
   8  -3   5   30.10    7.40
   8  -3   5   26.10    9.50
   8  -3   5   23.20    7.40
  -9   3  -5   10.10    6.70
  -9   3  -5    8.30    5.40
  -9   3  -5    8.70    9.50
   9  -3   5   -5.20    6.60
   9  -3   5   -4.30    6.10
   8   2  -5   67.29   12.10
   8   2  -5   72.99   12.40
  -8  -2   5   68.19   10.20
  -8  -2   5   52.29   14.10
  -8  -2   5   45.50    9.20
   7   2  -5    0.00    8.30
   7   2  -5   22.70    9.30
   7   2  -5   21.70    8.50
  -7  -2   5   16.60    5.80
  -7  -2   5   17.50    7.10
  -7  -2   5   24.60   12.20
   6   2  -5   82.79   12.50
   6   2  -5   95.09   13.60
   6   2  -5   91.49   13.00
  -6  -2   5   83.89   11.00
  -6  -2   5   70.79   15.00
  -6  -2   5   70.19    9.60
   5   2  -5   73.59   11.00
   5   2  -5   70.69   10.10
   5   2  -5   62.29    9.50
  -5  -2   5   58.69    7.30
  -5  -2   5   51.09    8.20
  -5  -2   5   38.50   10.10
  -5  -2   5   54.59    6.50
   4   2  -5    2.20    2.50
   4   2  -5   -2.50    4.00
   4   2  -5   -0.40    2.90
   4   2  -5    0.50    3.40
  -4  -2   5   -3.20    3.40
  -4  -2   5    2.00    2.70
  -4  -2   5   -1.80    4.00
  -4  -2   5    0.50    1.60
   3   2  -5   15.20    3.80
   3   2  -5   15.10    4.50
   3   2  -5   12.30    5.00
   3   2  -5   13.00    4.20
  -3  -2   5    8.50    1.90
  -3  -2   5   15.40    2.40
  -3  -2   5    7.60    3.40
  -3  -2   5   12.00    4.90
   2   2  -5    2.20    0.90
   2   2  -5    2.20    2.80
   2   2  -5    1.30    3.50
   2   2  -5    3.30    2.70
  -2  -2   5    1.80    1.00
  -2  -2   5    1.90    2.90
  -2  -2   5    0.20    1.70
  -2  -2   5    5.20    2.70
   1   2  -5    2.00    1.10
   1   2  -5    3.00    2.20
   1   2  -5    3.80    2.30
   1   2  -5    1.10    1.50
   1   2  -5    1.40    2.00
  -1  -2   5    3.50    2.40
  -1  -2   5    3.60    0.90
  -1  -2   5   -0.60    2.90
  -1  -2   5    4.30    1.70
   0   2  -5    6.30    2.00
   0   2  -5    9.30    3.70
   0   2  -5    9.90    2.70
   0   2  -5    7.40    1.80
   0  -2   5    7.20    3.10
   0  -2   5    5.20    1.90
   0  -2   5    5.90    1.70
  -1   2  -5  757.42   66.79
  -1   2  -5  789.62   65.49
  -1   2  -5  726.43   65.29
   1  -2   5  764.02   65.09
   1  -2   5  746.53   64.69
   1  -2   5  665.43   66.09
   1  -2   5  715.03   65.59
  -2   2  -5  945.61   81.59
  -2   2  -5  995.00   82.09
  -2   2  -5  962.00   83.29
   2  -2   5  784.32   82.79
   2  -2   5  938.71   81.19
   2  -2   5  938.71   82.49
   2  -2   5  934.01   81.69
  -3   2  -5    6.80    3.00
  -3   2  -5    5.00    3.60
  -3   2  -5    4.10    2.10
  -3   2  -5    5.70    1.50
   3  -2   5    8.80    4.10
   3  -2   5    6.20    4.10
   3  -2   5    3.10    1.50
   3  -2   5   11.40    3.00
  -4   2  -5  284.57   24.20
  -4   2  -5  266.47   24.30
  -4   2  -5  266.27   22.70
  -4   2  -5  280.57   25.30
   4  -2   5  207.18   23.90
   4  -2   5  290.07   25.60
   4  -2   5  289.47   26.00
   4  -2   5  231.28   23.00
   4  -2   5  260.27   23.80
  -5   2  -5   -2.20    3.10
  -5   2  -5    2.40    2.60
  -5   2  -5    4.20    3.80
   5  -2   5    5.30    3.70
   5  -2   5    9.60    5.20
   5  -2   5    4.30    5.00
  -6   2  -5   20.60    5.80
  -6   2  -5   19.30    5.30
  -6   2  -5   12.30    4.60
   6  -2   5   19.60    5.20
   6  -2   5   12.20    5.90
   6  -2   5   21.90    7.40
  -7   2  -5   73.99   10.70
  -7   2  -5   70.29    9.70
   7  -2   5   70.59    9.80
   7  -2   5   71.19   12.40
   7  -2   5   75.39   11.90
  -8   2  -5   75.99   11.40
  -8   2  -5   80.29   10.60
  -8   2  -5   59.49   13.00
   8  -2   5   58.79   11.60
   8  -2   5   78.89   10.60
   8  -2   5   69.09   12.50
  -9   2  -5    3.00    9.70
   9  -2   5    9.40    6.70
   8   1  -5    8.40    7.00
   8   1  -5    1.70    5.20
  -8  -1   5   -1.00    5.30
  -8  -1   5   -5.80    6.90
  -8  -1   5    5.10    7.80
   7   1  -5   -3.30    4.90
   7   1  -5    1.00    6.30
   7   1  -5    6.60    5.90
  -7  -1   5   -0.30    3.10
  -7  -1   5   -1.20    4.20
  -7  -1   5    1.50    7.00
   6   1  -5    5.10    5.80
   6   1  -5    1.90    6.30
   6   1  -5    9.10    5.50
  -6  -1   5  -14.80    7.00
  -6  -1   5    7.60    2.90
  -6  -1   5   13.30    4.30
   5   1  -5   58.39    8.30
   5   1  -5   59.99    9.00
   5   1  -5   87.99   10.50
  -5  -1   5   53.29    5.40
  -5  -1   5   45.80   11.40
  -5  -1   5   38.30    7.30
  -5  -1   5   43.80    6.10
   4   1  -5  914.11   79.29
   4   1  -5  845.32   77.39
   4   1  -5  933.01   79.49
   4   1  -5  910.61   79.39
   4   1  -5  863.61   77.69
  -4  -1   5  845.52   77.19
  -4  -1   5  941.71   81.69
  -4  -1   5  903.51   77.79
  -4  -1   5  901.11   78.49
   3   1  -5   -1.60    2.80
   3   1  -5    0.10    0.60
   3   1  -5    1.00    1.80
   3   1  -5   -0.90    2.20
   3   1  -5   -6.00    2.60
  -3  -1   5   -1.20    4.10
  -3  -1   5    0.20    1.10
  -3  -1   5    0.40    0.40
  -3  -1   5    0.80    2.00
   2   1  -5  175.98   16.50
   2   1  -5  167.48   16.60
   2   1  -5  181.28   16.60
  -2  -1   5  168.08   17.80
  -2  -1   5  168.38   15.30
  -2  -1   5  163.58   15.90
   1   1  -5  293.87   25.10
   1   1  -5  295.97   26.00
   1   1  -5  262.57   26.10
   1   1  -5  288.77   26.50
   1   1  -5  294.47   25.00
  -1  -1   5  284.37   25.10
  -1  -1   5  276.27   26.90
  -1  -1   5  273.97   25.60
   0   1  -5  645.74   55.49
   0   1  -5  612.14   55.19
   0   1  -5  635.24   56.09
   0   1  -5  638.44   56.09
   0   1  -5  630.94   56.69
   0  -1   5  620.14   57.59
   0  -1   5  634.74   55.19
   0  -1   5  635.84   55.69
   0  -1   5  654.63   56.69
  -1   1  -5 1065.69   91.19
  -1   1  -5 1047.50   91.09
  -1   1  -5 1084.39   91.19
  -1   1  -5 1024.70   92.09
   1  -1   5 1042.60   90.59
   1  -1   5 1027.50   91.89
   1  -1   5  979.30   93.09
   1  -1   5 1041.50   91.09
  -2   1  -5  620.64   55.49
  -2   1  -5  607.64   54.69
  -2   1  -5  630.84   54.29
  -2   1  -5  617.34   54.29
   2  -1   5  550.44   56.79
   2  -1   5  657.73   53.99
   2  -1   5  632.94   55.59
   2  -1   5  591.24   54.39
  -3   1  -5  135.29   14.10
  -3   1  -5  143.09   13.00
  -3   1  -5  143.59   13.60
  -3   1  -5  137.69   12.80
   3  -1   5  144.49   15.00
   3  -1   5  136.89   17.30
   3  -1   5  122.69   15.30
   3  -1   5  138.89   13.40
  -4   1  -5  130.79   14.10
  -4   1  -5  149.49   14.90
  -4   1  -5  156.58   15.20
   4  -1   5  143.69   14.20
   4  -1   5  149.29   15.70
   4  -1   5  144.69   18.00
  -5   1  -5   17.90    4.20
  -5   1  -5   22.20    4.90
  -5   1  -5   16.40    4.20
   5  -1   5   22.20    5.60
   5  -1   5   14.90    4.00
   5  -1   5   14.90    5.70
  -6   1  -5    9.70    4.10
  -6   1  -5   17.20    5.50
  -6   1  -5   13.90    4.60
   6  -1   5   18.50    7.50
   6  -1   5   14.20    4.60
   6  -1   5   10.10    5.30
  -7   1  -5   92.59   12.00
  -7   1  -5   67.49   11.90
  -7   1  -5  102.39   11.30
   7  -1   5  101.39   14.90
   7  -1   5   93.79   10.60
   7  -1   5   76.69   12.70
  -8   1  -5    6.10    8.00
  -8   1  -5    1.80    4.30
  -8   1  -5    6.40    5.70
   8  -1   5   -6.70    6.80
   8  -1   5   -3.50    7.80
   8  -1   5    2.10    5.30
   9   0  -5    9.60    6.00
   9   0  -5   20.30   11.20
  -9   0   5    2.50   13.00
  -9   0   5   -4.40    5.60
  -9   0   5    3.20    8.10
   8   0  -5    7.20    8.50
   8   0  -5   10.30    7.20
   8   0  -5   11.00    5.60
  -8   0   5    7.20    5.40
  -8   0   5   10.40    7.30
   7   0  -5   41.60    7.40
   7   0  -5   30.00    8.10
   7   0  -5   43.50   10.30
  -7   0   5   34.10    8.00
  -7   0   5   42.40    6.50
  -7   0   5   27.00   12.80
   6   0  -5   30.70    6.20
   6   0  -5   31.20    8.10
   6   0  -5   32.60    6.60
  -6   0   5   30.80    9.40
  -6   0   5   33.90    6.60
  -6   0   5   27.60    4.60
   5   0  -5  314.67   29.40
   5   0  -5  316.57   27.70
   5   0  -5  309.07   29.60
   5   0  -5  319.37   30.80
  -5   0   5  311.07   28.30
  -5   0   5  299.57   27.50
  -5   0   5  358.76   33.80
  -5   0   5  317.67   29.40
   4   0  -5  637.24   55.49
   4   0  -5  667.23   57.29
   4   0  -5  651.73   56.69
   4   0  -5  665.83   56.79
  -4   0   5  670.63   59.09
  -4   0   5  604.64   54.89
  -4   0   5  599.74   56.19
  -4   0   5  608.44   55.39
  -4   0   5  627.94   54.89
   3   0  -5    1.40    2.70
   3   0  -5    1.30    2.70
   3   0  -5    3.30    2.40
   3   0  -5   -0.10    1.60
  -3   0   5    5.00    2.50
  -3   0   5    2.80    3.10
  -3   0   5   -0.10    1.30
   2   0  -5  111.59   10.20
   2   0  -5  100.59   10.20
   2   0  -5   98.69   10.50
   2   0  -5  107.39    8.90
  -2   0   5   87.99    8.90
  -2   0   5   96.49   11.90
  -2   0   5  104.79   10.00
  -2   0   5  104.59    9.10
   1   0  -5    2.40    0.60
   1   0  -5    2.50    0.90
   1   0  -5    3.10    2.20
   1   0  -5    1.00    2.00
   1   0  -5    1.50    2.10
  -1   0   5    2.80    1.00
  -1   0   5    7.30    4.10
  -1   0   5    3.90    2.40
  -1   0   5    6.30    1.50
  -1   0   5    4.20    0.60
   0   0  -5   97.79    9.00
   0   0  -5   91.89    8.50
   0   0  -5   91.99    8.40
   0   0  -5   98.39    9.60
   0   0  -5  100.59   10.10
   0   0   5  102.39    9.10
   0   0   5  112.49   13.40
   0   0   5   96.79   10.20
  -1   0  -5   83.99    8.50
  -1   0  -5   88.99    7.70
  -1   0  -5   88.19    9.40
  -1   0  -5   97.39    8.50
  -1   0  -5   82.59    7.70
   1   0   5   87.09   12.90
   1   0   5   94.69   10.20
   1   0   5   65.59    8.00
   1   0   5   79.99    8.10
  -2   0  -5  258.87   22.90
  -2   0  -5  283.37   23.70
  -2   0  -5  258.77   24.10
  -2   0  -5  264.77   23.30
   2   0   5  244.98   24.30
   2   0   5  212.98   27.10
   2   0   5  246.88   23.10
   2   0   5  256.27   26.40
  -3   0  -5  163.78   16.00
  -3   0  -5  181.88   17.10
  -3   0  -5  192.88   16.70
  -3   0  -5  174.38   16.00
   3   0   5  172.18   16.10
   3   0   5  145.19   20.10
   3   0   5  161.88   18.00
   3   0   5  190.38   22.10
  -4   0  -5   -0.20    3.30
  -4   0  -5    2.70    2.50
  -4   0  -5    0.70    2.80
   4   0   5   -2.70    3.80
   4   0   5    3.40    3.50
   4   0   5    1.90    2.40
   4   0   5   -1.60    5.80
  -5   0  -5  280.37   26.50
  -5   0  -5  303.17   27.30
  -5   0  -5  282.07   27.20
   5   0   5  294.87   26.80
   5   0   5  298.37   28.70
   5   0   5  291.37   31.20
  -6   0  -5   16.10    4.80
  -6   0  -5   32.00    7.40
  -6   0  -5   26.00    5.20
   6   0   5   27.30    7.20
   6   0   5   10.80    7.80
   6   0   5   23.40    5.00
  -7   0  -5   14.70    4.30
  -7   0  -5   20.40    6.50
  -7   0  -5   31.90    8.00
   7   0   5   17.00    5.20
   7   0   5   23.20    7.50
   7   0   5   -2.90    7.50
  -8   0  -5    6.90    4.80
  -8   0  -5   13.40    6.30
   8   0   5   -7.40    8.60
   8   0   5   -0.20    8.40
   9  -1  -5   13.50    8.40
   9  -1  -5   14.10    8.20
  -9   1   5    7.00    6.00
  -9   1   5   32.00    7.90
   8  -1  -5   12.60    5.20
   8  -1  -5   34.90    8.40
   8  -1  -5   29.60    8.20
  -8   1   5   37.20    8.80
  -8   1   5   26.80    5.10
   7  -1  -5   11.80    7.40
   7  -1  -5   10.90    4.60
   7  -1  -5   12.80    4.90
  -7   1   5   18.40    4.60
  -7   1   5   17.60    6.70
  -7   1   5    6.60    9.70
   6  -1  -5   32.10    5.70
   6  -1  -5   25.80    5.50
   6  -1  -5   24.50    7.30
  -6   1   5   27.30    6.30
  -6   1   5   32.30    5.00
  -6   1   5   30.60    3.90
  -6   1   5   35.00   10.40
   5  -1  -5   25.50    4.80
   5  -1  -5   25.60    3.60
   5  -1  -5   31.10    6.10
   5  -1  -5   21.20    4.10
  -5   1   5   25.40    3.90
  -5   1   5   22.80    7.50
  -5   1   5   19.40    4.60
  -5   1   5   22.80    3.00
   4  -1  -5   34.80    6.10
   4  -1  -5   39.40    4.40
   4  -1  -5   35.20    5.00
   4  -1  -5   38.70    5.50
  -4   1   5   26.70    6.80
  -4   1   5   31.40    3.40
  -4   1   5   36.40    4.20
  -4   1   5   38.20    5.10
  -4   1   5   30.40    3.60
   3  -1  -5  685.03   60.29
   3  -1  -5  649.64   59.09
   3  -1  -5  658.23   60.49
   3  -1  -5  702.13   59.89
   3  -1  -5  744.03   61.39
  -3   1   5  644.44   59.09
  -3   1   5  762.92   62.39
  -3   1   5  658.53   59.29
  -3   1   5  688.53   60.09
   2  -1  -5    4.70    2.40
   2  -1  -5    6.10    1.20
   2  -1  -5    7.40    2.90
   2  -1  -5    2.20    1.10
   2  -1  -5    3.20    1.70
  -2   1   5    4.20    4.60
  -2   1   5    2.60    0.90
  -2   1   5    1.40    0.70
  -2   1   5    2.60    1.80
  -2   1   5    3.70    0.70
  -2   1   5    5.60    3.00
   1  -1  -5 1091.29   92.79
   1  -1  -5 1063.99   93.59
   1  -1  -5 1036.90   93.39
   1  -1  -5 1084.69   93.99
  -1   1   5 1030.30   92.89
  -1   1   5 1087.29   96.19
  -1   1   5 1079.59   94.29
   0  -1  -5   72.89    6.80
   0  -1  -5   67.69    6.90
   0  -1  -5   74.59    6.30
   0  -1  -5   67.79    8.00
   0  -1  -5   69.09    7.70
   0   1   5   78.49    6.80
   0   1   5   63.39    6.40
   0   1   5   71.39    8.70
   0   1   5   82.09   12.50
  -1  -1  -5   17.60    3.00
  -1  -1  -5   15.80    2.00
  -1  -1  -5   19.30    3.50
  -1  -1  -5   18.30    3.10
   1   1   5   24.50    8.90
   1   1   5    8.20    5.20
   1   1   5   15.50    3.70
   1   1   5   16.10    2.30
  -2  -1  -5  228.48   21.10
  -2  -1  -5  236.08   21.60
  -2  -1  -5  236.48   21.10
  -2  -1  -5  232.68   20.30
   2   1   5  224.38   27.30
   2   1   5  173.18   25.40
   2   1   5  214.68   20.30
   2   1   5  245.18   22.40
  -3  -1  -5  303.77   28.30
  -3  -1  -5  290.27   27.30
  -3  -1  -5  318.87   28.10
   3   1   5  336.47   29.40
   3   1   5  298.77   33.10
   3   1   5  300.97   27.30
  -4  -1  -5  155.58   14.50
  -4  -1  -5  139.19   14.50
  -4  -1  -5  147.09   15.20
  -4  -1  -5  144.59   13.60
   4   1   5  131.79   16.00
   4   1   5  130.79   19.70
   4   1   5   85.89   16.90
   4   1   5  141.09   13.40
  -5  -1  -5  101.29   12.80
  -5  -1  -5  120.99   11.50
  -5  -1  -5  107.39   12.40
  -5  -1  -5  115.09   12.20
   5   1   5  112.99   11.60
   5   1   5   97.59   17.10
   5   1   5  133.39   15.50
  -6  -1  -5   -0.40    3.00
  -6  -1  -5    3.90    3.60
   6   1   5  -17.10    6.40
   6   1   5   -0.40    6.80
  -7  -1  -5    2.40    3.50
  -7  -1  -5   -1.60    3.80
   7   1   5   -6.60    7.90
   7   1   5   -3.30    7.80
  10  -2  -5   -4.50   10.20
  10  -2  -5   -4.20    7.00
 -10   2   5    6.20    6.20
 -10   2   5   -9.70    8.30
   9  -2  -5   94.09   14.70
   9  -2  -5  132.39   17.20
  -9   2   5  109.79   15.40
  -9   2   5  107.49   12.50
   8  -2  -5    1.40    5.40
   8  -2  -5    4.30    7.50
   8  -2  -5   -1.70    3.60
  -8   2   5    4.10    5.00
  -8   2   5    1.50    4.40
   7  -2  -5  229.68   22.70
   7  -2  -5  190.38   20.80
   7  -2  -5  209.38   20.30
  -7   2   5  235.88   22.30
  -7   2   5  211.78   20.10
  -7   2   5  217.68   26.70
  -7   2   5  192.08   19.40
   6  -2  -5   13.40    5.00
   6  -2  -5   24.80    4.90
   6  -2  -5   21.00    5.80
   6  -2  -5   22.70    3.80
  -6   2   5   24.80    8.30
  -6   2   5   28.00    5.40
  -6   2   5   20.60    4.10
  -6   2   5   16.60    3.30
   5  -2  -5   91.79   11.00
   5  -2  -5  101.49   12.10
   5  -2  -5   83.39   10.10
   5  -2  -5   91.19    9.50
  -5   2   5  102.99   11.00
  -5   2   5   88.69   14.60
  -5   2   5   86.19    9.50
  -5   2   5   92.69    9.40
   4  -2  -5  118.59   13.40
   4  -2  -5  117.09   11.00
   4  -2  -5  113.69   11.90
   4  -2  -5  106.29   10.10
   4  -2  -5  106.59   11.40
  -4   2   5   98.49   11.50
  -4   2   5  107.19   11.40
  -4   2   5  107.09   14.50
  -4   2   5  107.79   10.40
   3  -2  -5  398.36   37.00
   3  -2  -5  403.16   37.50
   3  -2  -5  421.16   37.00
   3  -2  -5  413.96   36.30
  -3   2   5  393.66   36.20
  -3   2   5  411.26   36.80
  -3   2   5  420.26   39.70
  -3   2   5  457.35   39.10
   2  -2  -5   73.19    8.30
   2  -2  -5   76.19    8.30
   2  -2  -5   78.89    8.60
   2  -2  -5   70.79    7.10
   2  -2  -5   77.39    6.70
  -2   2   5   65.49    6.90
  -2   2   5   76.69    7.50
  -2   2   5   71.19    6.70
  -2   2   5   84.99    9.60
  -2   2   5   86.79   12.30
   1  -2  -5  404.06   32.90
   1  -2  -5  353.56   33.10
   1  -2  -5  387.36   34.10
   1  -2  -5  403.96   34.30
   1  -2  -5  376.06   33.40
  -1   2   5  394.96   37.90
  -1   2   5  374.26   34.70
  -1   2   5  369.66   33.10
  -1   2   5  352.26   32.80
   0  -2  -5   51.89    6.30
   0  -2  -5   47.00    4.70
   0  -2  -5   47.80    5.70
   0  -2  -5   62.59    6.80
   0  -2  -5   54.69    4.90
   0   2   5   47.80    4.70
   0   2   5   63.69   11.20
   0   2   5   54.59    7.20
   0   2   5   42.30   11.20
  -1  -2  -5  238.38   21.90
  -1  -2  -5  241.58   20.40
  -1  -2  -5  219.08   21.60
  -1  -2  -5  233.08   21.10
  -1  -2  -5  225.28   20.20
   1   2   5  188.58   27.30
   1   2   5  228.58   20.20
   1   2   5  226.78   22.20
   1   2   5  242.58   28.10
  -2  -2  -5   -6.20    2.80
  -2  -2  -5    1.60    1.80
  -2  -2  -5    3.40    2.90
  -2  -2  -5   -0.30    2.00
   2   2   5    2.30    1.30
   2   2   5   -5.20    6.80
   2   2   5   -0.10    2.90
   2   2   5   13.40    7.10
  -3  -2  -5   48.60    7.30
  -3  -2  -5   49.70    6.90
  -3  -2  -5   59.49    5.80
  -3  -2  -5   43.80    6.10
   3   2   5   26.90    9.90
   3   2   5   47.10    5.40
   3   2   5   43.20   12.40
   3   2   5   53.59    8.40
  -4  -2  -5   -1.00    3.00
  -4  -2  -5   -0.40    3.60
  -4  -2  -5   -1.70    3.90
   4   2   5   -3.40    5.10
   4   2   5   -5.90    6.00
   4   2   5   -2.90    7.80
  -5  -2  -5    0.30    3.80
  -5  -2  -5   -4.60    3.00
   5   2   5    3.50    4.60
   5   2   5    2.10    8.50
  -6  -2  -5   64.69    9.90
  -6  -2  -5   68.49    8.40
   6   2   5   74.69   11.60
   6   2   5   54.19   14.00
  10  -3  -5    1.90    5.30
  10  -3  -5   -6.80    9.10
 -10   3   5    7.40   13.20
 -10   3   5   15.50    6.70
 -10   3   5   10.30    9.20
   9  -3  -5   24.70   10.20
   9  -3  -5   14.30    7.00
  -9   3   5    6.40    5.50
  -9   3   5   21.70   13.60
  -9   3   5   34.30    9.40
   8  -3  -5    2.90    5.30
   8  -3  -5   -1.70    3.70
   8  -3  -5    6.60    5.30
  -8   3   5    4.50    6.90
  -8   3   5   -1.60    4.20
  -8   3   5    5.10   10.00
   7  -3  -5   13.30    6.70
   7  -3  -5    7.60    3.50
   7  -3  -5    6.30    2.90
  -7   3   5    4.80    4.30
  -7   3   5   12.50    4.20
  -7   3   5    3.30    2.90
  -7   3   5    1.40    8.60
   6  -3  -5  136.89   16.90
   6  -3  -5  155.38   14.60
   6  -3  -5  121.89   15.20
   6  -3  -5  132.49   14.60
  -6   3   5  157.28   20.50
  -6   3   5  138.69   14.90
  -6   3   5  154.38   16.10
  -6   3   5  148.99   14.00
   5  -3  -5   69.69    9.50
   5  -3  -5   63.09    6.80
   5  -3  -5   59.59    8.60
   5  -3  -5   62.39    8.10
   5  -3  -5   70.69    8.30
  -5   3   5   60.49    9.40
  -5   3   5   59.79    8.10
  -5   3   5   59.79    7.40
  -5   3   5   74.59   11.10
   4  -3  -5  136.09   12.50
   4  -3  -5  127.59   13.70
   4  -3  -5  131.89   13.30
   4  -3  -5  112.19   13.10
   4  -3  -5  140.79   14.10
   4  -3  -5  124.29   11.90
  -4   3   5  136.29   16.00
  -4   3   5  122.09   12.40
  -4   3   5  134.29   13.20
  -4   3   5  149.88   18.10
   3  -3  -5    0.40    2.20
   3  -3  -5    2.30    3.30
   3  -3  -5    1.80    3.10
   3  -3  -5   -0.10    2.00
   3  -3  -5   -0.40    1.30
  -3   3   5    1.40    2.00
  -3   3   5    2.00    1.70
  -3   3   5   -8.90    4.80
  -3   3   5    0.30    2.70
   2  -3  -5  335.07   31.30
   2  -3  -5  358.16   31.40
   2  -3  -5  351.26   30.00
   2  -3  -5  329.07   30.50
  -2   3   5  360.36   36.80
  -2   3   5  340.77   31.80
  -2   3   5  324.87   34.40
  -2   3   5  329.17   30.10
   1  -3  -5   23.10    4.70
   1  -3  -5   24.30    2.80
   1  -3  -5   13.70    4.50
   1  -3  -5   19.40    3.20
  -1   3   5   18.50    9.70
  -1   3   5   19.50    9.00
  -1   3   5   21.10    2.10
  -1   3   5   27.30    5.00
  -1   3   5   20.60    2.10
   0  -3  -5  628.24   57.39
   0  -3  -5  600.34   56.59
   0  -3  -5  650.03   57.59
   0  -3  -5  683.33   56.19
   0   3   5  759.12   63.49
   0   3   5  657.03   57.59
   0   3   5  527.35   61.89
  -1  -3  -5   54.09    7.10
  -1  -3  -5   47.10    5.90
  -1  -3  -5   45.30    5.30
   1   3   5   30.00   12.00
   1   3   5   50.69    7.60
   1   3   5   54.39   14.00
  -2  -3  -5  227.08   19.50
  -2  -3  -5  222.98   20.90
  -2  -3  -5  220.78   20.40
   2   3   5  260.77   28.80
   2   3   5  126.99   25.30
   2   3   5  193.38   21.40
  -3  -3  -5    3.90    2.90
  -3  -3  -5    5.10    4.00
  -3  -3  -5    1.60    4.40
   3   3   5    1.50    9.00
   3   3   5  -12.10    7.50
   3   3   5   13.40    5.30
  -4  -3  -5    6.00    3.80
  -4  -3  -5   13.00    5.00
  -4  -3  -5   11.40    5.10
   4   3   5   17.80   10.50
   4   3   5    3.30    8.70
   4   3   5   10.60    6.20
  -5  -3  -5   19.40    6.50
  -5  -3  -5   15.10    5.30
   5   3   5   26.50    7.00
   5   3   5   35.30   11.80
  -6  -3  -5   50.69    8.30
  -6  -3  -5   66.59    8.80
   6   3   5   47.80   11.80
   6   3   5   63.39   14.70
  10  -4  -5   -5.80    6.10
  10  -4  -5   -1.70    6.40
 -10   4   5    7.10    6.90
 -10   4   5   -2.30    5.80
 -10   4   5   -1.00    9.50
   9  -4  -5   11.40    6.50
   9  -4  -5   -4.20    5.50
  -9   4   5    1.30    7.50
  -9   4   5   -1.10    5.00
  -9   4   5    2.60    8.10
   8  -4  -5   48.40    8.80
   8  -4  -5   63.09    8.80
   8  -4  -5   75.19   12.70
   8  -4  -5   77.09   10.00
  -8   4   5   63.09    9.30
  -8   4   5   71.29   15.60
  -8   4   5   78.39    9.50
  -8   4   5   78.19   10.70
   7  -4  -5   -1.10    3.90
   7  -4  -5   -6.00    4.10
   7  -4  -5   -5.50    4.60
   7  -4  -5   -1.60    4.10
   7  -4  -5   -2.70    3.80
  -7   4   5   -6.70    3.30
  -7   4   5   -0.80    5.80
  -7   4   5   -1.90    4.00
  -7   4   5    3.00    6.10
  -7   4   5    7.40    5.90
   6  -4  -5  276.87   29.80
   6  -4  -5  311.57   29.00
   6  -4  -5  282.57   29.30
   6  -4  -5  309.27   29.30
   6  -4  -5  296.07   28.90
   6  -4  -5  303.77   28.00
  -6   4   5  314.27   28.70
  -6   4   5  326.97   31.00
  -6   4   5  365.36   33.00
  -6   4   5  340.07   30.00
   5  -4  -5   23.60    5.60
   5  -4  -5   28.90    4.50
   5  -4  -5   19.90    5.50
   5  -4  -5   29.10    5.90
   5  -4  -5   45.80    7.70
   5  -4  -5   24.00    3.60
   5  -4  -5   29.60    4.70
  -5   4   5   31.40    5.10
  -5   4   5   24.70    7.30
  -5   4   5   26.40    5.00
  -5   4   5   26.00    9.10
  -5   4   5   19.30    7.90
   4  -4  -5  143.49   13.70
   4  -4  -5  131.29   12.70
   4  -4  -5  154.38   14.80
   4  -4  -5  140.49   14.40
   4  -4  -5  131.19   13.20
   4  -4  -5  114.29   14.40
  -4   4   5  121.59   13.50
  -4   4   5  133.99   13.70
  -4   4   5  152.28   15.60
  -4   4   5  144.29   19.20
  -4   4   5  155.58   22.60
   3  -4  -5    0.20    2.90
   3  -4  -5   -1.10    3.60
   3  -4  -5    2.00    1.90
   3  -4  -5    2.40    3.70
  -3   4   5    2.00    4.00
  -3   4   5   -0.40    4.40
  -3   4   5   -1.50    8.20
  -3   4   5   -0.20    2.10
   2  -4  -5   88.49    8.60
   2  -4  -5  101.09   10.90
   2  -4  -5   97.39    9.80
   2  -4  -5   82.79   10.70
  -2   4   5   80.29    8.00
  -2   4   5  108.69   10.40
  -2   4   5   86.79    8.20
  -2   4   5  122.49   16.60
  -2   4   5   80.09   16.90
   1  -4  -5   36.50    4.30
   1  -4  -5   34.60    5.90
   1  -4  -5   31.70    6.40
   1  -4  -5   32.60    5.20
  -1   4   5   44.10   12.20
  -1   4   5   22.20   11.40
  -1   4   5   31.50    5.10
   0  -4  -5  144.59   14.20
   0  -4  -5  129.59   14.70
   0  -4  -5  158.08   13.40
   0   4   5  136.99   14.80
   0   4   5  168.98   22.30
   0   4   5   79.09   20.60
  -1  -4  -5   19.30    5.60
  -1  -4  -5    2.80    2.80
  -1  -4  -5   11.30    3.00
   1   4   5   -1.40   10.40
   1   4   5   -3.10   10.20
   1   4   5   13.40    4.60
  -2  -4  -5    6.30    3.30
  -2  -4  -5    5.60    3.10
  -2  -4  -5    0.50    4.80
   2   4   5    2.30    9.60
   2   4   5   -3.90    9.10
   2   4   5   -1.40    2.90
  -3  -4  -5    1.50    3.50
  -3  -4  -5   -3.10    3.50
  -3  -4  -5   -2.20    3.60
   3   4   5    2.10    7.40
   3   4   5    5.50    7.60
   3   4   5   -6.70    4.50
  -4  -4  -5   18.10    5.10
  -4  -4  -5   22.00    5.30
   4   4   5   15.00   12.40
   4   4   5   15.80   11.60
   4   4   5   17.70    7.10
  -5  -4  -5    6.00    5.10
  -5  -4  -5   -2.30    4.20
   5   4   5    7.70   10.70
  10  -5  -5    2.80    4.50
  10  -5  -5   -3.80    9.00
  10  -5  -5   -5.50    7.80
 -10   5   5  -10.10   10.90
 -10   5   5    0.40    8.90
 -10   5   5    3.70    4.60
   9  -5  -5    4.50    5.70
   9  -5  -5   -9.00    6.70
   9  -5  -5    2.00    6.10
  -9   5   5   -6.70    4.90
  -9   5   5    6.30    8.10
  -9   5   5   30.20    8.90
   8  -5  -5    9.90    5.80
   8  -5  -5   17.60    5.80
   8  -5  -5   10.70    6.50
   8  -5  -5   14.90    6.10
  -8   5   5   23.80    5.80
  -8   5   5    8.20    6.10
  -8   5   5   18.10    8.60
  -8   5   5   18.90    7.90
   7  -5  -5   -0.10    3.40
   7  -5  -5   -3.50    4.90
   7  -5  -5   -0.10    3.30
   7  -5  -5    3.30    4.10
   7  -5  -5    2.80    4.80
   7  -5  -5    5.40    5.10
  -7   5   5    2.30    6.00
  -7   5   5    1.60    5.50
  -7   5   5    1.20    4.00
  -7   5   5    6.40    6.90
  -7   5   5   -0.90    7.50
  -7   5   5   10.50   11.60
  -7   5   5    5.50    5.90
   6  -5  -5  134.99   12.50
   6  -5  -5  109.59   11.60
   6  -5  -5  126.19   13.10
   6  -5  -5  109.49   12.60
   6  -5  -5  107.59   13.80
   6  -5  -5   98.19   13.20
   6  -5  -5  144.89   15.60
  -6   5   5  108.99   16.80
  -6   5   5   51.19   15.60
  -6   5   5  127.99   18.30
  -6   5   5  133.49   17.30
  -6   5   5  139.29   13.20
  -6   5   5  122.89   14.00
  -6   5   5  112.89   19.60
   5  -5  -5  166.28   15.90
   5  -5  -5  159.58   16.40
   5  -5  -5  164.48   18.10
   5  -5  -5  159.58   17.70
   5  -5  -5  160.48   17.60
   5  -5  -5  179.88   16.90
   5  -5  -5  162.68   18.30
  -5   5   5  142.39   24.60
  -5   5   5  218.08   20.30
  -5   5   5  167.08   22.40
  -5   5   5  177.38   17.40
  -5   5   5  161.88   17.10
   4  -5  -5   51.39    7.90
   4  -5  -5   38.00    7.60
   4  -5  -5   47.60    6.70
   4  -5  -5   43.40    5.50
   4  -5  -5   39.50    5.40
  -4   5   5   42.20   14.70
  -4   5   5   30.10   10.70
  -4   5   5   39.10    5.90
  -4   5   5   63.99    9.00
   3  -5  -5   16.70    3.30
   3  -5  -5    9.50    4.10
   3  -5  -5   10.90    4.30
   3  -5  -5   12.50    4.20
  -3   5   5   10.10    2.80
  -3   5   5   18.80    7.90
  -3   5   5    7.20    4.40
  -3   5   5    4.20    8.20
   2  -5  -5  164.48   17.60
   2  -5  -5  174.18   16.70
   2  -5  -5  165.78   17.80
   2  -5  -5  177.98   16.10
  -2   5   5  117.69   23.60
  -2   5   5  193.78   17.40
  -2   5   5  160.18   24.00
   1  -5  -5    4.60    5.10
   1  -5  -5   -2.10    2.60
   1  -5  -5    5.50    3.90
  -1   5   5   -5.00    6.60
  -1   5   5   11.10   11.10
  -1   5   5   -1.50    2.90
   0  -5  -5   10.40    6.10
   0  -5  -5   12.60    3.00
   0  -5  -5   16.60    4.00
   0   5   5   11.40    5.00
   0   5   5   12.90    9.20
   0   5   5   11.50   12.00
  -1  -5  -5  125.49   15.20
  -1  -5  -5  108.59   12.60
  -1  -5  -5  135.59   12.40
   1   5   5   58.99   20.10
   1   5   5  124.59   13.50
   1   5   5  115.39   21.40
  -2  -5  -5  107.99   12.40
  -2  -5  -5  128.39   13.20
  -2  -5  -5  120.69   15.40
   2   5   5  112.49   23.80
   2   5   5  130.59   22.40
  -3  -5  -5   87.99   11.60
  -3  -5  -5   73.99    8.70
  -3  -5  -5   65.09    9.50
   3   5   5   75.19   17.90
   3   5   5   34.50   17.30
  -4  -5  -5   23.90    5.20
  -4  -5  -5   27.50    6.50
   4   5   5   42.20   14.70
   4   5   5   28.40   15.60
  10  -6  -5   17.20    8.70
  10  -6  -5   32.40    8.30
  10  -6  -5   33.30    8.30
 -10   6   5   33.40    7.30
 -10   6   5   31.50    9.10
 -10   6   5   20.00   14.00
   9  -6  -5   11.80    6.20
   9  -6  -5   11.00    8.70
   9  -6  -5   -2.30    5.10
  -9   6   5   -8.90    9.30
  -9   6   5    6.40    4.60
  -9   6   5   10.10    6.50
  -9   6   5    7.10   11.60
   8  -6  -5   31.50    7.80
   8  -6  -5   32.70    6.50
   8  -6  -5   34.50    8.50
   8  -6  -5   38.70    7.80
   8  -6  -5   37.30    7.20
   8  -6  -5   28.30    7.30
  -8   6   5   34.10   11.80
  -8   6   5   20.70    9.10
  -8   6   5   32.40    7.30
  -8   6   5   22.30   11.00
  -8   6   5   45.90   15.60
  -8   6   5   47.20    8.60
  -8   6   5   32.20   10.70
   7  -6  -5    5.30    5.80
   7  -6  -5   12.50    5.50
   7  -6  -5    6.60    6.50
   7  -6  -5   10.30    4.10
   7  -6  -5    5.20    4.30
   7  -6  -5   10.90    6.70
   7  -6  -5   12.00    4.80
  -7   6   5    8.40    8.40
  -7   6   5   14.50    8.50
  -7   6   5    5.00    9.00
  -7   6   5   10.20    6.10
  -7   6   5    3.00    8.30
  -7   6   5   11.60    5.30
  -7   6   5   16.50   13.10
   6  -6  -5    7.90    6.40
   6  -6  -5   11.60    4.50
   6  -6  -5    4.50    4.70
   6  -6  -5    8.20    5.90
   6  -6  -5    3.40    5.30
   6  -6  -5    9.00    5.20
   6  -6  -5    5.40    3.90
  -6   6   5   13.50    7.30
  -6   6   5    7.40    7.20
  -6   6   5   10.10    8.60
  -6   6   5    1.00    4.20
  -6   6   5   -0.60   12.50
  -6   6   5    1.20    7.00
  -6   6   5    3.20    3.60
   5  -6  -5  454.05   37.90
   5  -6  -5  410.36   38.50
   5  -6  -5  443.26   40.30
   5  -6  -5  391.86   39.00
   5  -6  -5  419.66   38.00
  -5   6   5  390.26   42.50
  -5   6   5  434.56   40.30
  -5   6   5  329.37   44.90
  -5   6   5  440.76   38.70
   4  -6  -5   57.99   10.10
   4  -6  -5   65.29    7.50
   4  -6  -5   54.99    8.80
   4  -6  -5   66.59    8.20
   4  -6  -5   56.59    6.90
  -4   6   5   77.69   14.90
  -4   6   5   63.49   15.80
  -4   6   5   52.99    7.30
  -4   6   5   65.99    9.30
   3  -6  -5  175.58   16.20
   3  -6  -5  169.88   17.40
   3  -6  -5  150.08   17.60
   3  -6  -5  174.48   19.10
  -3   6   5  171.38   17.10
  -3   6   5  111.09   24.10
  -3   6   5  191.08   25.30
   2  -6  -5   77.29    9.30
   2  -6  -5   66.89    8.50
   2  -6  -5   82.69   11.00
  -2   6   5   52.89   16.40
  -2   6   5   44.30   17.80
  -2   6   5   85.69    9.70
   1  -6  -5   11.80    3.30
   1  -6  -5    6.60    4.90
   1  -6  -5   13.40    7.10
  -1   6   5    1.10   12.30
  -1   6   5    2.70   11.30
   0  -6  -5   23.90    5.00
   0  -6  -5   18.90    6.40
   0  -6  -5   21.40    5.00
   0   6   5   16.50   11.70
   0   6   5   30.30   14.50
  -1  -6  -5   92.99   12.30
  -1  -6  -5  105.29   11.30
  -1  -6  -5  102.19   14.60
   1   6   5   65.89   19.10
   1   6   5  123.29   20.10
  -2  -6  -5   13.90    6.50
  -2  -6  -5    9.40    5.30
  -2  -6  -5    9.60    6.10
   2   6   5   22.50   13.50
   2   6   5    2.10    9.10
  -3  -6  -5    6.20    5.20
  -3  -6  -5   18.70    6.30
   3   6   5   11.40    9.50
   3   6   5   24.60   17.40
  10  -7  -5   26.50    7.70
  10  -7  -5   28.00    8.00
  10  -7  -5   22.60   10.40
 -10   7   5    5.20   12.60
 -10   7   5   12.80    6.20
 -10   7   5   17.90   14.00
 -10   7   5   14.00    7.70
   9  -7  -5    7.50    4.80
   9  -7  -5    2.50    5.20
   9  -7  -5    2.50    7.90
  -9   7   5   15.30   11.00
  -9   7   5    8.00    6.00
  -9   7   5    5.40   10.60
  -9   7   5   13.20    6.80
  -9   7   5    3.60    6.50
   8  -7  -5    4.80    5.70
   8  -7  -5   13.50    7.30
   8  -7  -5   12.10    6.00
   8  -7  -5   17.90    6.70
   8  -7  -5   18.20    8.20
   8  -7  -5    8.60    8.00
   8  -7  -5   24.60    6.00
  -8   7   5   15.10    7.60
  -8   7   5   11.60   10.70
  -8   7   5    7.50    9.40
  -8   7   5    9.70    7.10
  -8   7   5   15.20   11.10
  -8   7   5    9.20   12.80
  -8   7   5    7.40    6.10
   7  -7  -5   -2.00    5.50
   7  -7  -5   -1.40    4.80
   7  -7  -5   -0.40    4.60
   7  -7  -5   -0.10    4.90
   7  -7  -5    5.80    6.80
   7  -7  -5    5.60    3.90
   7  -7  -5   -4.60    3.30
  -7   7   5   -2.60    5.50
  -7   7   5    0.00    5.90
  -7   7   5   -4.70    5.40
  -7   7   5    1.80   12.10
  -7   7   5    5.40    5.90
  -7   7   5    8.80    7.10
  -7   7   5    6.10    5.80
   6  -7  -5   38.30    6.40
   6  -7  -5   41.20    9.80
   6  -7  -5   51.09    9.70
   6  -7  -5   41.20    6.80
   6  -7  -5   32.30    7.70
  -6   7   5   29.70   11.30
  -6   7   5   36.20   16.70
  -6   7   5   45.60    7.70
  -6   7   5   22.20   12.60
  -6   7   5   48.90    9.40
  -6   7   5   37.80    8.30
   5  -7  -5    5.40    5.10
   5  -7  -5    3.50    4.20
   5  -7  -5    0.20    4.70
   5  -7  -5    4.30    4.10
  -5   7   5   -7.30    7.80
  -5   7   5    4.70    5.00
  -5   7   5    2.90    6.50
  -5   7   5   13.80    7.90
   4  -7  -5    6.40    4.30
   4  -7  -5   17.30    8.00
   4  -7  -5   16.70    4.80
  -4   7   5    2.40    9.00
  -4   7   5    1.50    9.50
  -4   7   5    5.10   14.00
   3  -7  -5    5.90    3.30
   3  -7  -5    1.40    5.30
   3  -7  -5   -1.20    4.80
  -3   7   5  -13.90   12.40
  -3   7   5   -4.80    6.50
  -3   7   5   -9.90   10.00
   2  -7  -5   33.00    5.70
   2  -7  -5   20.30    6.70
   2  -7  -5   29.80    8.90
  -2   7   5   15.20   13.90
  -2   7   5    0.80    9.30
  -2   7   5   30.30   13.10
   1  -7  -5  106.89   14.00
   1  -7  -5   85.09    9.70
   1  -7  -5   65.89    9.30
  -1   7   5   18.80   14.60
  -1   7   5   58.19   18.90
  -1   7   5   92.89   19.80
   0  -7  -5    8.90    5.60
   0  -7  -5    4.40    6.10
   0  -7  -5    2.70    6.10
   0   7   5    7.00    8.90
   0   7   5   25.80   16.30
   0   7   5   -1.10   12.70
  -1  -7  -5    6.20    8.80
  -1  -7  -5   10.70    5.40
  -1  -7  -5   16.60    6.10
   1   7   5    4.30    9.10
   1   7   5    8.20   12.50
   1   7   5  -15.10   13.00
   9  -8  -5   19.90    8.20
   9  -8  -5   11.90    8.80
   9  -8  -5    7.50    5.00
   9  -8  -5    8.70    5.20
  -9   8   5    2.00    6.90
  -9   8   5    4.70    9.10
  -9   8   5   13.30    8.40
  -9   8   5   10.90    5.80
  -9   8   5   -3.80    7.50
   8  -8  -5   -0.30    6.70
   8  -8  -5    5.70    6.10
   8  -8  -5   11.10    6.80
   8  -8  -5    3.20    6.60
   8  -8  -5    5.20    8.00
  -8   8   5    4.50    9.90
  -8   8   5    7.70    8.80
  -8   8   5  -10.30   13.30
  -8   8   5   15.10    7.30
  -8   8   5    5.90   10.30
  -8   8   5    0.40    6.60
   7  -8  -5   65.19    8.10
   7  -8  -5   40.30    9.10
   7  -8  -5   53.09   10.10
  -7   8   5   35.10    9.00
  -7   8   5    9.60   11.90
  -7   8   5   42.30   15.10
  -7   8   5   38.90   13.10
  -7   8   5   23.80    9.90
   6  -8  -5    3.80    6.70
   6  -8  -5   -4.70    5.00
   6  -8  -5    8.80    6.70
  -6   8   5   -5.40    9.70
  -6   8   5    2.60    6.60
  -6   8   5   -7.60    9.20
   5  -8  -5   31.60    9.90
   5  -8  -5   26.70    6.40
   5  -8  -5   32.20    8.10
  -5   8   5   33.60   13.10
  -5   8   5    4.90   14.90
  -5   8   5    6.80   10.70
   4  -8  -5   13.90    5.30
   4  -8  -5   10.80    8.70
   4  -8  -5   11.10    4.20
  -4   8   5  -10.50    9.60
  -4   8   5   32.20   13.40
  -4   8   5    6.50    9.70
   3  -8  -5   23.20    9.40
   3  -8  -5    7.60    6.90
   3  -8  -5   11.90    5.70
  -3   8   5   -4.70   15.10
  -3   8   5   -1.30    7.10
  -3   8   5    9.80   12.30
   2  -8  -5   42.90    9.30
   2  -8  -5   30.50    6.80
   2  -8  -5   24.00    6.20
  -2   8   5   36.50   20.00
  -2   8   5    9.20   13.40
  -2   8   5    4.90    9.30
   1  -8  -5   24.60    6.30
   1  -8  -5   22.80    5.60
   1  -8  -5   22.20   10.80
  -1   8   5    6.50   12.80
  -1   8   5   19.10   13.90
  -1   8   5   19.10   11.40
   0  -8  -5   -0.90    9.30
   0  -8  -5   -3.10    6.70
   0  -8  -5   -7.90    6.00
   0   8   5    7.30   13.40
   0   8   5   -8.20   11.80
   0   8   5  -13.40    9.90
   8  -9  -5    7.80    7.00
   8  -9  -5    0.30   10.20
   8  -9  -5   11.80    6.20
  -8   9   5   31.70   15.90
  -8   9   5    5.80   15.20
  -8   9   5   -6.30    7.00
  -8   9   5   -4.30    7.30
   7  -9  -5   40.10    7.80
   7  -9  -5   18.70    9.00
   7  -9  -5   31.70    9.40
  -7   9   5   18.40   12.80
  -7   9   5    6.60   10.20
  -7   9   5   57.49   14.90
   6  -9  -5    2.40    9.30
   6  -9  -5   -2.10    6.00
   6  -9  -5   -7.20    7.60
  -6   9   5    1.00   11.90
  -6   9   5   -0.20   10.70
  -6   9   5  -20.40    8.20
   5  -9  -5   17.80    8.40
   5  -9  -5   -0.60    6.20
   5  -9  -5    3.40    8.90
  -5   9   5    5.00   11.80
  -5   9   5   -4.50   14.50
  -5   9   5    3.40   12.30
   4  -9  -5    4.90    6.30
   4  -9  -5    9.50    9.90
   4  -9  -5  -11.00    6.90
  -4   9   5   -1.10   11.90
  -4   9   5   -2.60   15.30
  -4   9   5  -10.50    9.80
   3  -9  -5   -6.20    8.90
   3  -9  -5  -17.90    6.00
   3  -9  -5  -10.10    7.00
  -3   9   5   12.80   14.00
  -3   9   5   10.60   13.40
  -3   9   5  -10.40   15.30
   2  -9  -5   -2.50    9.70
   2  -9  -5    3.40    7.50
  -2   9   5  -11.40   15.50
  -2   9   5    2.00   14.30
  -2   9   5    1.70   13.50
  -3  10  -6   14.20   18.10
  -3  10  -6    1.90   14.80
  -3  10  -6    8.30   12.20
   3 -10   6   -4.30    8.00
   3 -10   6    8.00    7.70
   3 -10   6   16.60    8.40
  -4  10  -6    4.30   13.90
  -4  10  -6   10.50   10.70
  -4  10  -6    8.60   11.90
   4 -10   6    3.60    5.80
   4 -10   6   10.70    6.10
   4 -10   6   -3.30    7.80
  -5  10  -6   36.50   17.10
  -5  10  -6   21.60   11.10
  -5  10  -6   22.60   14.20
   5 -10   6   27.60    7.70
   5 -10   6   30.20    9.60
   5 -10   6   28.20    7.50
  -6  10  -6    6.50    9.30
  -6  10  -6   37.60   17.90
   6 -10   6   13.90    9.00
   6 -10   6   47.30   10.40
   0   9  -6    1.10   11.50
   0   9  -6   33.00   12.60
   0   9  -6   24.50   13.30
   0  -9   6    6.40    6.50
   0  -9   6   19.60    8.30
   0  -9   6   23.80    8.00
  -1   9  -6    5.10   14.30
  -1   9  -6    9.30   12.00
  -1   9  -6   11.10   17.20
   1  -9   6    5.60    6.90
   1  -9   6    0.40    6.20
   1  -9   6    5.20    7.00
  -2   9  -6   27.20   15.20
  -2   9  -6    0.90   14.40
  -2   9  -6    4.90   11.80
   2  -9   6   14.60    7.60
   2  -9   6    6.20    6.80
   2  -9   6    0.20    6.20
  -3   9  -6    6.10   14.80
  -3   9  -6   20.80   14.50
  -3   9  -6   17.20   12.30
   3  -9   6   23.10    7.70
   3  -9   6   10.50    5.70
   3  -9   6   15.00    7.20
  -4   9  -6   20.80   12.90
  -4   9  -6   36.10   18.30
  -4   9  -6   45.90   12.30
   4  -9   6   13.60    7.30
   4  -9   6    9.80    7.70
   4  -9   6    9.50    7.70
  -5   9  -6   15.10   16.30
  -5   9  -6    1.30    9.60
  -5   9  -6   37.60   14.00
   5  -9   6    4.40    6.80
   5  -9   6    6.40    5.60
   5  -9   6   -6.20    7.00
  -6   9  -6   -3.10   11.10
  -6   9  -6   -2.30   15.50
   6  -9   6    8.70    8.00
   6  -9   6   -3.10    6.90
  -7   9  -6   66.99   21.30
  -7   9  -6   59.49   13.80
   7  -9   6   59.49   11.60
   7  -9   6   45.40   10.10
  -8   9  -6   14.90   11.90
  -8   9  -6   -4.60   13.30
  -8   9  -6   -2.00    6.90
   8  -9   6   -0.90    5.40
   8  -9   6   -6.90    8.20
   2   8  -6   38.00   14.10
  -2  -8   6   29.80    8.10
  -2  -8   6   38.70    7.60
   1   8  -6   10.60   13.70
   1   8  -6  -12.90    8.10
  -1  -8   6    2.40    4.60
  -1  -8   6   -1.30    5.70
   0   8  -6   -0.90    8.90
   0   8  -6   23.20   12.20
   0   8  -6   23.30   11.70
   0  -8   6   11.10    6.50
   0  -8   6   15.70    6.20
   0  -8   6   17.50    7.00
  -1   8  -6  118.69   23.10
  -1   8  -6  103.19   24.60
  -1   8  -6  101.19   17.60
   1  -8   6   88.29   12.70
   1  -8   6  124.09   13.00
   1  -8   6   93.79   12.50
  -2   8  -6   -5.00    8.70
  -2   8  -6   -3.30    7.00
  -2   8  -6  -13.60    7.10
   2  -8   6   -1.40    5.50
   2  -8   6    0.90    5.80
   2  -8   6   -2.70    5.40
  -3   8  -6  381.76   43.70
  -3   8  -6  429.76   50.09
  -3   8  -6  486.65   44.80
   3  -8   6  399.96   38.50
   3  -8   6  389.36   38.30
   3  -8   6  397.76   38.50
  -4   8  -6   48.30   13.10
  -4   8  -6   40.60   17.10
  -4   8  -6   41.90   12.20
   4  -8   6   27.00    7.90
   4  -8   6   42.50    7.90
   4  -8   6   11.90    7.40
  -5   8  -6   18.50   14.30
  -5   8  -6   29.00   11.50
  -5   8  -6   15.70    8.70
   5  -8   6   23.00    7.60
   5  -8   6   14.20    6.90
  -6   8  -6   25.70   11.10
  -6   8  -6   37.50   13.30
   6  -8   6   11.80    7.00
   6  -8   6   18.60    7.50
  -7   8  -6   34.40   12.20
  -7   8  -6   35.70   10.80
  -7   8  -6    5.50    9.50
   7  -8   6   37.70    8.20
   7  -8   6   32.60    9.30
   7  -8   6   33.80    7.20
  -8   8  -6    7.20   12.50
  -8   8  -6    5.20   10.10
  -8   8  -6   -2.10    6.90
   8  -8   6   -4.60    6.50
   8  -8   6    6.10    7.70
   8  -8   6    2.80    5.50
   3   7  -6   52.39   10.80
   3   7  -6   31.00   16.20
  -3  -7   6   55.49    9.20
  -3  -7   6   52.09    8.80
   2   7  -6   15.40    9.30
   2   7  -6    1.90    8.80
   2   7  -6    3.00    7.00
  -2  -7   6   -8.30    5.40
  -2  -7   6   10.80    5.80
   1   7  -6   23.50   10.50
   1   7  -6   11.50    9.40
   1   7  -6    4.70    6.00
  -1  -7   6    1.90    5.10
  -1  -7   6    8.30    5.90
  -1  -7   6    4.90    5.30
   0   7  -6  129.39   22.70
   0   7  -6   66.09   14.00
   0   7  -6  119.19   20.60
   0  -7   6   96.19   11.00
   0  -7   6   83.99   10.50
   0  -7   6   86.89   11.30
  -1   7  -6   17.80   12.80
  -1   7  -6   27.70   10.10
  -1   7  -6    4.20    6.50
   1  -7   6   17.10    4.50
   1  -7   6   22.20    5.00
   1  -7   6   12.30    4.30
  -2   7  -6  102.99   17.20
  -2   7  -6   96.49   20.60
  -2   7  -6   80.89   14.00
   2  -7   6   83.59    9.90
   2  -7   6   78.59   10.20
   2  -7   6   63.99    9.40
  -3   7  -6   70.19   14.40
  -3   7  -6   92.49   19.50
  -3   7  -6   58.29   14.00
   3  -7   6   69.39    9.90
   3  -7   6   71.59    9.10
   3  -7   6   71.49    9.90
  -4   7  -6   37.90   14.30
  -4   7  -6   44.90   10.30
  -4   7  -6   21.10   10.00
   4  -7   6   35.40    6.10
   4  -7   6   32.70    6.40
   4  -7   6   26.40    5.70
  -5   7  -6   81.39   14.40
  -5   7  -6   79.19   17.40
  -5   7  -6   79.59   11.90
   5  -7   6   65.29    9.10
   5  -7   6   63.69    9.60
   5  -7   6   51.69    8.80
  -6   7  -6    8.10    8.60
  -6   7  -6    0.00    7.10
   6  -7   6    0.60    5.70
   6  -7   6    0.10    5.30
   6  -7   6   -1.70    3.70
  -7   7  -6   99.59   19.80
  -7   7  -6  139.49   17.30
  -7   7  -6  129.59   18.20
   7  -7   6   95.59   13.20
   7  -7   6  119.29   12.80
   7  -7   6   95.89   14.70
  -8   7  -6    9.70    7.90
  -8   7  -6    5.20    6.80
  -8   7  -6   -6.80    8.20
   8  -7   6   -9.70    4.50
   8  -7   6    0.80    4.50
   8  -7   6    3.50    7.80
  -9   7  -6   -3.60    9.30
  -9   7  -6    1.70    7.20
   9  -7   6   -2.20    8.00
   9  -7   6   -8.90    6.70
   9  -7   6    9.80    7.20
   4   6  -6   -2.20    8.00
   4   6  -6    0.80    8.60
  -4  -6   6   -0.60    4.30
  -4  -6   6   -4.90    5.70
   3   6  -6   15.60   11.90
   3   6  -6   28.00    8.90
  -3  -6   6   20.30    6.40
  -3  -6   6   14.70    4.90
   2   6  -6   84.89   17.30
   2   6  -6   98.99   12.80
   2   6  -6   90.39   17.40
  -2  -6   6   67.69    9.30
  -2  -6   6   66.39    9.00
  -2  -6   6   68.59    9.50
   1   6  -6  415.66   43.90
   1   6  -6  475.95   43.90
  -1  -6   6  369.76   36.50
  -1  -6   6  393.66   36.70
  -1  -6   6  401.26   36.70
   0   6  -6   89.69   13.60
   0   6  -6  116.19   16.70
   0   6  -6   80.99   17.30
   0   6  -6   80.59   10.10
   0  -6   6   78.69   10.20
   0  -6   6   77.99    9.60
   0  -6   6   91.09   10.00
  -1   6  -6   54.89   12.20
  -1   6  -6   82.39   13.40
  -1   6  -6   73.69    7.90
  -1   6  -6   85.79   17.30
   1  -6   6   72.99    9.10
   1  -6   6   60.99    8.30
   1  -6   6   66.79    8.60
   1  -6   6   69.49    8.60
  -2   6  -6  100.09   15.00
  -2   6  -6  115.39   19.60
  -2   6  -6  104.79   15.60
   2  -6   6   95.99   10.80
   2  -6   6   84.89   10.70
   2  -6   6   94.39   10.60
   2  -6   6   99.29   10.80
  -3   6  -6  -11.20    6.50
  -3   6  -6    3.30    4.50
  -3   6  -6    0.40    5.40
   3  -6   6   -0.20    4.40
   3  -6   6    4.30    3.60
   3  -6   6    5.50    4.40
  -4   6  -6  575.14   51.39
  -4   6  -6  555.64   54.89
  -4   6  -6  564.94   49.90
   4  -6   6  537.85   48.70
   4  -6   6  509.35   48.50
   4  -6   6  485.55   47.90
  -5   6  -6  162.78   17.50
  -5   6  -6  203.88   25.80
  -5   6  -6  197.18   21.80
   5  -6   6  166.58   17.30
   5  -6   6  179.18   18.70
   5  -6   6  155.08   18.10
  -6   6  -6  247.18   24.60
  -6   6  -6  215.08   27.00
  -6   6  -6  242.98   24.10
   6  -6   6  175.68   18.80
   6  -6   6  190.68   21.40
   6  -6   6  175.08   20.60
  -7   6  -6   32.10   10.80
  -7   6  -6   16.00    8.50
  -7   6  -6   31.50    9.20
   7  -6   6   24.20    6.50
   7  -6   6   12.60    7.20
   7  -6   6   21.90    7.00
  -8   6  -6    9.60    8.60
  -8   6  -6    2.80    8.20
  -8   6  -6    1.20    5.70
   8  -6   6    4.00    5.30
   8  -6   6   -1.80    4.00
   8  -6   6   -2.60    6.90
  -9   6  -6   18.90    9.00
  -9   6  -6    5.30    6.60
   9  -6   6   -5.70    6.50
   9  -6   6   15.30    8.60
   5   5  -6   -3.70    5.70
   5   5  -6    4.30   11.00
  -5  -5   6   -3.90    5.50
  -5  -5   6   11.00    6.10
   4   5  -6   96.89   14.60
   4   5  -6   90.89   15.80
  -4  -5   6   81.79   10.60
  -4  -5   6   75.39   10.70
   3   5  -6    1.60    4.50
   3   5  -6    8.30    9.00
   3   5  -6    4.00    6.90
  -3  -5   6    7.90    3.60
  -3  -5   6    3.70    3.50
   2   5  -6  412.76   37.00
   2   5  -6  336.17   35.60
   2   5  -6  410.06   32.90
  -2  -5   6  313.87   30.40
  -2  -5   6  299.57   30.90
  -2  -5   6  326.87   30.70
  -2  -5   6  304.07   31.50
   1   5  -6   20.30    5.00
   1   5  -6   21.00    9.00
   1   5  -6   18.70    7.00
  -1  -5   6    4.10    4.30
  -1  -5   6   16.20    4.40
  -1  -5   6   25.70    5.00
  -1  -5   6   22.80    4.20
   0   5  -6   30.20    5.40
   0   5  -6   22.20    9.90
   0   5  -6   24.10    7.30
   0   5  -6   35.50    9.10
   0  -5   6   33.70    5.20
   0  -5   6   27.00    4.60
   0  -5   6   35.00    5.30
   0  -5   6   31.70    4.90
  -1   5  -6   46.10   11.10
  -1   5  -6   39.30    4.90
  -1   5  -6   48.00    8.80
  -1   5  -6   36.30    8.00
   1  -5   6   38.30    5.40
   1  -5   6   39.80    6.30
   1  -5   6   37.40    5.80
   1  -5   6   32.30    5.30
  -2   5  -6    8.30    7.10
  -2   5  -6   -1.40    2.80
  -2   5  -6    7.20    5.20
   2  -5   6   -0.60    2.40
   2  -5   6    2.00    1.90
   2  -5   6   -1.70    2.60
   2  -5   6    8.00    2.80
   2  -5   6    3.60    3.40
   2  -5   6    0.50    1.80
  -3   5  -6   88.79   14.80
  -3   5  -6   94.69   12.80
  -3   5  -6   99.39   12.10
   3  -5   6   87.29   10.70
   3  -5   6   78.79   10.10
   3  -5   6   78.79    9.30
  -4   5  -6   89.09   10.20
  -4   5  -6   77.19   11.40
  -4   5  -6   87.69   15.00
   4  -5   6   84.79   10.50
   4  -5   6   75.29    9.00
   4  -5   6   74.29   10.00
  -5   5  -6   96.99   12.60
  -5   5  -6   72.89   11.40
  -5   5  -6   70.99   12.70
   5  -5   6   79.19    9.50
   5  -5   6   67.39   10.50
   5  -5   6   64.59    8.60
  -6   5  -6    3.70    4.70
  -6   5  -6   -5.10    5.40
  -6   5  -6    1.40    6.60
   6  -5   6    6.90    6.20
   6  -5   6    2.80    3.00
   6  -5   6    1.70    3.80
  -7   5  -6    3.50    7.10
  -7   5  -6   10.60    5.20
  -7   5  -6    2.70    4.60
   7  -5   6    4.40    5.20
   7  -5   6   19.10    5.30
   7  -5   6    4.40    4.30
  -8   5  -6   81.19   12.20
  -8   5  -6   38.00   10.20
  -8   5  -6   50.59   11.40
   8  -5   6   60.19   12.20
   8  -5   6   67.49   10.70
  -9   5  -6    7.50    6.10
  -9   5  -6    7.60    8.00
   9  -5   6    4.60    7.20
   9  -5   6   11.30    9.80
   6   4  -6   10.50    7.00
   6   4  -6    5.50    7.60
  -6  -4   6   10.10    6.80
  -6  -4   6   11.60    4.50
   5   4  -6   12.10    9.80
   5   4  -6   11.80    6.80
   5   4  -6   14.40    8.40
  -5  -4   6   16.20    8.90
  -5  -4   6   24.90    5.70
  -5  -4   6   14.60    6.20
   4   4  -6   15.40    9.20
   4   4  -6    7.50    7.00
   4   4  -6    7.40    5.10
  -4  -4   6   10.50    5.20
  -4  -4   6    4.10    3.20
  -4  -4   6    9.70    6.70
   3   4  -6   32.90    8.20
   3   4  -6   39.50    8.60
   3   4  -6   26.00    7.20
  -3  -4   6   20.50    5.60
  -3  -4   6   29.70    4.70
  -3  -4   6   21.50    7.10
  -3  -4   6   35.40    5.50
   2   4  -6    5.40    5.60
   2   4  -6    3.60    4.00
   2   4  -6    2.90    6.30
  -2  -4   6    1.30    2.70
  -2  -4   6    1.80    3.30
  -2  -4   6   -0.10    2.10
  -2  -4   6   -2.90    4.10
   1   4  -6  133.19   15.60
   1   4  -6   80.79   11.40
   1   4  -6   96.09   10.20
   1   4  -6   94.29   13.10
  -1  -4   6   82.69    9.70
  -1  -4   6   75.99   10.30
  -1  -4   6   88.19    9.50
  -1  -4   6   80.39    8.80
   0   4  -6  550.84   51.09
   0   4  -6  562.34   52.19
   0   4  -6  576.04   48.60
   0   4  -6  507.65   49.99
   0  -4   6  561.44   48.50
   0  -4   6  512.65   48.90
   0  -4   6  567.94   48.80
   0  -4   6  519.55   48.10
  -1   4  -6   30.40    6.80
  -1   4  -6   43.90    9.50
  -1   4  -6   34.90    6.90
  -1   4  -6   42.00    4.50
   1  -4   6   31.00    5.60
   1  -4   6   33.90    5.00
   1  -4   6   25.60    4.40
  -2   4  -6  716.43   61.79
  -2   4  -6  694.93   59.19
  -2   4  -6  676.23   59.39
   2  -4   6  554.74   56.99
   2  -4   6  664.23   57.79
   2  -4   6  682.13   58.69
   2  -4   6  675.63   58.19
  -3   4  -6   14.20    6.40
  -3   4  -6    0.20    2.50
  -3   4  -6    7.30    4.30
   3  -4   6    6.70    1.40
   3  -4   6   11.20    3.10
   3  -4   6    5.70    4.10
   3  -4   6    7.40    2.50
   3  -4   6   14.90    3.40
  -4   4  -6   28.30    6.70
  -4   4  -6   19.70    7.40
  -4   4  -6   18.30    3.40
  -4   4  -6   17.00    5.50
   4  -4   6   20.70    4.30
   4  -4   6   16.20    3.80
   4  -4   6   14.30    4.70
   4  -4   6   19.10    3.30
  -5   4  -6  184.38   16.90
  -5   4  -6  156.98   18.10
  -5   4  -6  167.98   17.60
   5  -4   6  163.28   17.70
   5  -4   6  148.19   15.80
   5  -4   6  141.69   14.80
  -6   4  -6  208.28   22.10
  -6   4  -6  205.38   20.30
  -6   4  -6  193.38   20.30
   6  -4   6  198.58   19.80
   6  -4   6  172.98   20.40
   6  -4   6  180.48   18.20
  -7   4  -6   42.90    8.60
  -7   4  -6   39.60    7.50
  -7   4  -6   40.50    8.90
   7  -4   6   53.99   10.90
   7  -4   6   47.50    8.40
  -8   4  -6  121.59   15.60
  -8   4  -6  133.89   15.60
   8  -4   6  120.59   17.20
   8  -4   6  114.19   15.00
  -9   4  -6   -3.20    7.30
  -9   4  -6   -8.40    6.60
   9  -4   6   -3.30    4.60
   9  -4   6   -5.50    8.90
   7   3  -6   32.90   11.60
   7   3  -6   34.50   10.80
   7   3  -6   41.30   12.60
  -7  -3   6   47.60    9.30
  -7  -3   6   52.49   14.90
  -7  -3   6   35.50    6.70
   6   3  -6  197.58   20.00
   6   3  -6  182.38   23.10
   6   3  -6  189.38   21.40
  -6  -3   6  152.58   17.50
  -6  -3   6  165.18   18.10
  -6  -3   6  155.78   22.30
   5   3  -6   11.30    6.80
   5   3  -6   27.90    7.10
   5   3  -6   23.80    8.90
  -5  -3   6   20.70    4.20
  -5  -3   6   24.60    9.50
  -5  -3   6   24.90    6.30
   4   3  -6  275.37   26.10
   4   3  -6  280.77   27.20
   4   3  -6  290.87   28.80
   4   3  -6  298.47   26.70
  -4  -3   6  241.88   24.60
  -4  -3   6  253.27   25.10
  -4  -3   6  243.88   28.20
   3   3  -6    4.20    5.60
   3   3  -6   17.10    4.90
   3   3  -6   20.20    5.40
   3   3  -6   11.50    5.00
  -3  -3   6    9.20    5.80
  -3  -3   6   10.10    3.40
  -3  -3   6    8.20    2.10
  -3  -3   6   10.90    3.30
   2   3  -6   29.30    5.60
   2   3  -6   33.50    7.40
   2   3  -6   36.80    8.00
   2   3  -6   45.20    6.50
  -2  -3   6   32.10    5.10
  -2  -3   6   35.80    4.70
  -2  -3   6   44.60    7.70
  -2  -3   6   38.20    4.30
   1   3  -6  864.91   73.79
   1   3  -6  888.71   75.59
   1   3  -6  809.52   74.09
   1   3  -6  871.21   75.89
  -1  -3   6  830.62   73.19
  -1  -3   6  805.42   72.89
  -1  -3   6  837.32   73.59
  -1  -3   6  785.22   74.39
   0   3  -6  562.94   49.10
   0   3  -6  530.05   51.29
   0   3  -6  557.74   50.49
   0   3  -6  582.14   49.70
   0  -3   6  535.15   49.80
   0  -3   6  539.85   49.20
   0  -3   6  558.94   48.80
  -1   3  -6  533.95   46.00
  -1   3  -6  583.34   48.30
  -1   3  -6  536.15   46.40
  -1   3  -6  529.75   45.30
   1  -3   6  479.05   46.10
   1  -3   6  511.55   45.10
   1  -3   6  400.16   46.20
   1  -3   6  516.95   45.50
  -2   3  -6  220.18   20.00
  -2   3  -6  225.98   22.60
  -2   3  -6  221.98   20.40
   2  -3   6  227.38   19.90
   2  -3   6  230.88   21.00
   2  -3   6  202.08   19.20
   2  -3   6  156.58   20.50
  -3   3  -6    2.50    3.60
  -3   3  -6    5.10    4.70
  -3   3  -6    2.50    2.00
  -3   3  -6    1.80    3.30
   3  -3   6    1.90    2.10
   3  -3   6    9.10    3.50
   3  -3   6    4.70    3.10
   3  -3   6    0.50    3.90
  -4   3  -6   44.60    5.00
  -4   3  -6   44.60    8.70
  -4   3  -6   48.10    7.10
  -4   3  -6   40.90    7.10
   4  -3   6   48.50    7.50
   4  -3   6   43.10    8.00
   4  -3   6   40.30    5.40
   4  -3   6   44.70    6.60
  -5   3  -6    2.40    4.70
  -5   3  -6   -0.20    2.60
  -5   3  -6   11.80    4.20
   5  -3   6   -2.50    3.80
   5  -3   6    8.10    2.50
   5  -3   6    1.00    5.20
   5  -3   6    0.50    3.40
  -6   3  -6    3.50    3.30
  -6   3  -6    6.00    5.10
  -6   3  -6    7.40    5.50
   6  -3   6    2.20    4.10
   6  -3   6   -3.40    5.70
   6  -3   6    1.40    3.10
  -7   3  -6    6.00    5.20
  -7   3  -6   -4.10    4.80
  -7   3  -6   -4.20    5.40
   7  -3   6   -1.50    4.40
   7  -3   6   -3.70    3.40
   7  -3   6    4.00    7.10
  -8   3  -6   26.90    7.60
  -8   3  -6   34.70    8.50
   8  -3   6   37.60   10.30
   8  -3   6   29.00    7.70
  -9   3  -6   56.69   13.60
   9  -3   6   28.60    8.80
   8   2  -6    8.00    9.50
   8   2  -6   -2.40    8.80
   8   2  -6   12.50    9.60
  -8  -2   6   -2.20    5.60
  -8  -2   6   -1.10    5.20
  -8  -2   6    4.80    8.40
   7   2  -6  111.09   16.30
   7   2  -6   99.69   16.10
   7   2  -6  109.19   16.00
  -7  -2   6  112.39   13.50
  -7  -2   6   98.59   12.40
  -7  -2   6  115.99   20.60
   6   2  -6    1.70    6.50
   6   2  -6    2.20    4.70
   6   2  -6    4.90    5.10
  -6  -2   6   -5.10    6.00
  -6  -2   6    2.50    4.10
  -6  -2   6    0.40    5.40
   5   2  -6   45.70    8.60
   5   2  -6   27.60    6.90
   5   2  -6   27.20    7.70
  -5  -2   6   38.10    5.00
  -5  -2   6   25.80    5.40
  -5  -2   6   21.70    9.40
   4   2  -6   40.30    7.40
   4   2  -6   19.40    5.80
   4   2  -6   23.60    6.20
   4   2  -6   24.60    4.60
  -4  -2   6   28.00    8.50
  -4  -2   6   23.70    3.00
  -4  -2   6   23.20    4.00
  -4  -2   6   31.90    5.50
   3   2  -6   40.90    7.00
   3   2  -6   51.79    7.20
   3   2  -6   36.20    3.90
   3   2  -6   41.30    7.10
   3   2  -6   50.79    6.80
  -3  -2   6   46.10    5.10
  -3  -2   6   41.90    8.80
  -3  -2   6   41.80    6.10
  -3  -2   6   38.20    4.00
   2   2  -6  221.98   21.30
   2   2  -6  196.38   18.90
   2   2  -6  227.58   20.30
   2   2  -6  199.88   18.50
   2   2  -6  220.88   20.80
  -2  -2   6  212.78   21.80
  -2  -2   6  214.08   19.70
  -2  -2   6  218.38   19.10
   1   2  -6   23.50    5.20
   1   2  -6   27.30    3.60
   1   2  -6   31.00    3.30
   1   2  -6   25.20    4.40
   1   2  -6   31.90    6.00
  -1  -2   6   20.90    4.30
  -1  -2   6   31.70    5.50
  -1  -2   6   27.70    3.50
   0   2  -6    5.50    3.80
   0   2  -6    3.10    2.20
   0   2  -6    1.50    1.60
   0   2  -6    7.20    3.10
   0  -2   6    3.70    1.50
   0  -2   6    3.30    3.80
   0  -2   6    5.30    3.40
   0  -2   6    4.40    1.90
  -1   2  -6   33.70    6.50
  -1   2  -6   28.40    4.70
  -1   2  -6   36.10    4.40
   1  -2   6   29.40    3.70
   1  -2   6   30.50    6.50
   1  -2   6   31.60    5.20
   1  -2   6   34.80    4.40
  -2   2  -6  256.47   25.00
  -2   2  -6  266.07   23.70
  -2   2  -6  263.67   23.80
  -2   2  -6  267.27   23.40
   2  -2   6  268.37   24.80
   2  -2   6  249.38   22.80
   2  -2   6  206.98   25.30
   2  -2   6  256.07   23.50
  -3   2  -6 1132.59   95.69
  -3   2  -6 1115.99   95.19
  -3   2  -6 1144.59   96.09
  -3   2  -6 1101.59   97.09
   3  -2   6  931.21   97.49
   3  -2   6 1087.19   95.59
   3  -2   6 1071.39   94.99
   3  -2   6 1094.09   96.69
  -4   2  -6    1.10    3.00
  -4   2  -6    6.40    1.80
  -4   2  -6    1.90    4.10
  -4   2  -6    1.10    3.30
   4  -2   6   13.70    5.80
   4  -2   6   -8.60    4.20
   4  -2   6    2.40    4.10
   4  -2   6    6.00    3.50
  -5   2  -6  335.17   29.90
  -5   2  -6  358.86   31.00
  -5   2  -6  328.67   31.30
   5  -2   6  294.67   32.20
   5  -2   6  299.17   29.80
   5  -2   6  339.17   32.10
  -6   2  -6   19.00    5.10
  -6   2  -6   34.80    6.90
  -6   2  -6   26.00    6.30
   6  -2   6   19.10    5.50
   6  -2   6   30.60    7.20
   6  -2   6   18.70    6.80
  -7   2  -6   15.70    6.10
  -7   2  -6   16.70    4.40
   7  -2   6    7.10    6.50
   7  -2   6   -1.70    4.90
   7  -2   6   19.50    7.00
  -8   2  -6   66.79    9.90
  -8   2  -6   73.19   11.50
  -8   2  -6   66.49   13.00
   8  -2   6   54.79    9.90
   8  -2   6   62.19   12.00
   8  -2   6   64.89   13.30
   8   1  -6   61.19   11.00
   8   1  -6   70.89   13.80
   8   1  -6   61.89   11.20
  -8  -1   6   43.70   10.30
  -8  -1   6   59.69    8.80
  -8  -1   6   25.70   15.30
   7   1  -6    9.70    5.60
   7   1  -6   27.20    9.10
   7   1  -6   16.20    5.60
  -7  -1   6   -1.90   10.80
  -7  -1   6    6.20    3.50
  -7  -1   6   11.80    6.70
   6   1  -6    5.20    4.20
   6   1  -6   13.20    7.00
   6   1  -6    4.00    4.10
  -6  -1   6   10.40    5.60
  -6  -1   6   -3.40    9.20
  -6  -1   6    3.60    2.80
   5   1  -6  258.47   25.10
   5   1  -6  241.88   24.50
   5   1  -6  253.87   25.10
  -5  -1   6  257.57   24.10
  -5  -1   6  253.87   29.20
  -5  -1   6  233.48   22.80
   4   1  -6   47.40    8.10
   4   1  -6   53.99    6.50
   4   1  -6   61.99    8.50
   4   1  -6   76.19    9.90
  -4  -1   6   58.99    7.40
  -4  -1   6   64.69   11.10
  -4  -1   6   57.19    6.50
   3   1  -6  906.31   76.69
   3   1  -6  919.61   77.29
   3   1  -6  850.51   76.99
   3   1  -6  810.82   76.19
  -3  -1   6  832.02   78.19
  -3  -1   6  853.41   75.39
  -3  -1   6  880.51   76.19
   2   1  -6    2.90    2.20
   2   1  -6   -0.30    2.70
   2   1  -6    0.60    2.60
  -2  -1   6    2.30    2.50
  -2  -1   6    1.30    3.10
  -2  -1   6    1.90    1.20
   1   1  -6  246.48   21.10
   1   1  -6  270.87   22.50
   1   1  -6  249.58   22.40
   1   1  -6  240.88   22.70
  -1  -1   6  247.78   23.40
  -1  -1   6  251.27   21.80
  -1  -1   6  193.78   21.50
  -1  -1   6  229.58   21.10
   0   1  -6   14.20    3.50
   0   1  -6   20.40    2.90
   0   1  -6   16.40    3.60
   0   1  -6   24.80    2.30
   0   1  -6   23.60    4.70
   0  -1   6   17.20    3.20
   0  -1   6   15.80    5.90
   0  -1   6   22.10    4.80
   0  -1   6   18.80    2.30
  -1   1  -6   36.00    4.30
  -1   1  -6   28.10    3.50
  -1   1  -6   20.50    3.60
  -1   1  -6   21.70    4.50
   1  -1   6   24.40    4.80
   1  -1   6   27.50    7.10
   1  -1   6   20.30    3.60
   1  -1   6   25.80    2.80
  -2   1  -6  551.94   51.39
  -2   1  -6  573.84   49.90
  -2   1  -6  592.94   50.49
  -2   1  -6  601.94   50.19
   2  -1   6  515.35   53.19
   2  -1   6  562.44   50.19
   2  -1   6  528.95   51.39
  -3   1  -6  556.84   49.20
  -3   1  -6  593.34   50.79
  -3   1  -6  535.95   49.10
  -3   1  -6  594.44   49.99
   3  -1   6  509.65   52.89
   3  -1   6  542.35   50.79
   3  -1   6  546.05   49.40
  -4   1  -6    1.20    3.50
  -4   1  -6    0.70    1.50
  -4   1  -6    0.20    2.50
  -4   1  -6    2.80    3.40
   4  -1   6   -3.60    4.00
   4  -1   6   -1.00    3.60
   4  -1   6   -8.30    4.20
   4  -1   6    1.10    2.80
  -5   1  -6   16.40    5.00
  -5   1  -6   23.90    4.70
  -5   1  -6   19.60    3.80
   5  -1   6   24.00    7.90
   5  -1   6   15.40    6.90
   5  -1   6   15.50    4.30
  -6   1  -6    2.60    3.90
  -6   1  -6    4.80    3.90
  -6   1  -6   -2.60    4.50
   6  -1   6    7.50    6.90
   6  -1   6    8.50    5.40
   6  -1   6    8.10    4.20
  -7   1  -6    7.90    5.30
  -7   1  -6   12.30    8.00
  -7   1  -6   23.30    5.70
   7  -1   6   32.30   10.00
   7  -1   6    9.20    5.40
   7  -1   6   31.70    8.20
  -8   1  -6   16.60    6.30
  -8   1  -6   13.90    7.20
   8  -1   6    7.00    7.70
   8  -1   6   10.60    9.70
   8  -1   6   10.50    7.00
   9   0  -6   62.89   14.80
   9   0  -6   59.69   12.20
  -9   0   6   74.49   18.60
  -9   0   6   46.10    8.90
  -9   0   6   38.80   10.80
   8   0  -6   12.60    7.80
   8   0  -6   10.50    6.10
   8   0  -6   10.70    9.90
  -8   0   6   19.90    6.20
  -8   0   6   14.10    5.70
  -8   0   6   17.20   13.70
   7   0  -6   14.90    6.70
   7   0  -6   16.50    6.00
   7   0  -6    6.20    6.20
  -7   0   6   34.00   10.40
  -7   0   6   20.10    5.70
  -7   0   6   16.80    5.00
   6   0  -6   66.39    9.70
   6   0  -6   48.10    8.00
   6   0  -6   47.70    9.10
  -6   0   6   53.99    7.00
  -6   0   6   52.69    7.90
  -6   0   6   74.79   13.30
   5   0  -6   -2.00    1.80
   5   0  -6    6.60    4.30
   5   0  -6    4.80    4.10
   5   0  -6    1.70    2.90
  -5   0   6    1.40    4.90
  -5   0   6   -1.10    2.50
  -5   0   6    1.10    2.50
   4   0  -6  280.87   26.00
   4   0  -6  257.97   23.50
   4   0  -6  258.07   24.70
   4   0  -6  268.17   24.90
  -4   0   6  252.47   27.50
  -4   0   6  251.37   24.30
  -4   0   6  252.07   23.20
   3   0  -6  161.78   16.00
   3   0  -6  137.49   14.10
   3   0  -6  148.39   14.70
   3   0  -6  144.99   14.90
  -3   0   6  147.29   13.30
  -3   0   6  167.98   17.40
  -3   0   6  140.49   14.30
   2   0  -6  130.39   12.60
   2   0  -6  136.59   11.10
   2   0  -6  122.99   10.70
   2   0  -6  114.99   12.30
   2   0  -6  120.89   12.00
  -2   0   6  142.19   15.00
  -2   0   6   98.69   10.70
  -2   0   6  126.19   11.90
  -2   0   6  124.19   10.80
   1   0  -6   75.89    8.60
   1   0  -6   75.49    8.30
   1   0  -6   73.59    6.60
   1   0  -6   68.49    7.60
   1   0  -6   68.39    6.20
  -1   0   6   69.59    6.20
  -1   0   6   72.29   11.30
  -1   0   6   64.59    7.30
  -1   0   6   71.69    9.40
   0   0  -6    8.70    3.20
   0   0  -6    6.70    0.90
   0   0  -6    6.70    0.90
   0   0  -6    3.60    1.70
   0   0  -6    8.10    2.70
   0   0   6    5.80    4.40
   0   0   6    8.20    2.00
   0   0   6    0.30    2.50
  -1   0  -6  263.37   23.90
  -1   0  -6  262.77   23.80
  -1   0  -6  266.17   25.30
  -1   0  -6  269.57   24.50
  -1   0  -6  284.07   24.80
   1   0   6  303.67   29.20
   1   0   6  269.67   24.30
   1   0   6  279.47   26.00
  -2   0  -6   13.60    2.30
  -2   0  -6   16.10    2.80
  -2   0  -6   10.70    3.20
  -2   0  -6   17.60    4.30
   2   0   6   15.00    2.80
   2   0   6   15.80    7.90
   2   0   6    8.30    4.60
  -3   0  -6   65.79    8.20
  -3   0  -6   60.59    6.70
  -3   0  -6   62.79    7.00
  -3   0  -6   69.89    7.60
   3   0   6   48.10   10.70
   3   0   6   62.09    6.90
   3   0   6   49.20    8.40
   3   0   6   62.99   12.90
  -4   0  -6  208.88   19.50
  -4   0  -6  203.38   18.20
  -4   0  -6  200.68   19.70
   4   0   6  202.28   24.60
   4   0   6  177.88   18.40
   4   0   6  196.68   21.20
  -5   0  -6    6.80    3.20
  -5   0  -6   -1.90    4.20
  -5   0  -6   -0.30    3.20
   5   0   6    1.90    5.30
   5   0   6    0.90    3.20
   5   0   6    6.00    5.80
  -6   0  -6  163.98   16.20
  -6   0  -6  190.98   18.20
  -6   0  -6  145.49   18.50
   6   0   6  183.38   20.90
   6   0   6  143.79   21.50
   6   0   6  159.88   16.60
  -7   0  -6   24.80    6.10
  -7   0  -6   30.20    6.50
   7   0   6   16.20    9.20
   7   0   6   31.20   10.80
   9  -1  -6   18.80   10.60
   9  -1  -6    4.90    7.40
  -9   1   6   -6.80    7.60
  -9   1   6   13.80    5.80
  -9   1   6   29.60   15.20
   8  -1  -6   71.69   13.80
   8  -1  -6   65.09   10.80
   8  -1  -6   47.30    8.80
  -8   1   6   63.19    8.10
  -8   1   6   64.59    9.90
  -8   1   6   72.39   16.60
   7  -1  -6   47.40    9.00
   7  -1  -6   55.69    8.30
   7  -1  -6   53.69   11.20
  -7   1   6   59.09    7.00
  -7   1   6   40.90    8.80
  -7   1   6   53.79   12.50
   6  -1  -6   67.49   10.10
   6  -1  -6   87.19   11.30
   6  -1  -6  101.79   13.20
  -6   1   6   96.59   11.30
  -6   1   6   85.69    9.20
  -6   1   6   91.59   16.10
   5  -1  -6   53.29    6.00
   5  -1  -6   59.19    8.20
   5  -1  -6   74.49   10.40
   5  -1  -6   54.69    7.20
  -5   1   6   49.60    5.00
  -5   1   6   47.40    6.00
  -5   1   6   55.49    7.70
  -5   1   6   55.99   11.30
   4  -1  -6   69.39    7.50
   4  -1  -6   78.59    9.00
   4  -1  -6   71.89    8.60
   4  -1  -6   96.99   11.00
  -4   1   6   76.69    8.60
  -4   1   6   75.59   11.70
  -4   1   6   63.69    6.50
  -4   1   6   66.89    6.20
  -4   1   6   71.79    7.00
   3  -1  -6    5.80    3.50
   3  -1  -6    8.80    1.40
   3  -1  -6    9.60    2.40
   3  -1  -6    9.60    3.40
  -3   1   6    4.50    3.70
  -3   1   6    8.80    1.50
  -3   1   6    7.30    1.20
  -3   1   6    7.40    2.80
   2  -1  -6 1381.26  119.39
   2  -1  -6 1388.76  120.39
   2  -1  -6 1383.96  120.29
   2  -1  -6 1432.56  120.89
  -2   1   6 1307.17  119.09
  -2   1   6 1289.47  119.09
  -2   1   6 1380.16  121.59
  -2   1   6 1490.55  123.49
  -2   1   6 1386.86  119.79
   1  -1  -6  104.39   11.40
   1  -1  -6  103.39   11.00
   1  -1  -6  111.19   10.10
   1  -1  -6  109.59   10.90
  -1   1   6  117.79   12.60
  -1   1   6  106.99   10.30
  -1   1   6  109.79   15.40
   0  -1  -6  821.92   72.49
   0  -1  -6  875.51   71.29
   0  -1  -6  802.52   72.79
   0  -1  -6  832.92   71.29
   0  -1  -6  840.22   71.99
   0   1   6  844.52   71.79
   0   1   6  725.83   71.39
   0   1   6  814.22   76.39
   0   1   6  827.82   73.19
  -1  -1  -6   60.39    7.30
  -1  -1  -6   60.09    6.40
  -1  -1  -6   61.09    7.90
  -1  -1  -6   58.89    5.70
   1   1   6   63.89   12.20
   1   1   6   61.79   12.10
   1   1   6   52.19    6.00
   1   1   6   73.39    9.00
  -2  -1  -6   80.99    9.00
  -2  -1  -6   95.49    8.70
  -2  -1  -6   77.99    9.60
  -2  -1  -6   81.09    7.80
   2   1   6   81.69   10.60
   2   1   6   43.90   12.30
   2   1   6   75.39    7.90
   2   1   6   87.59   14.60
  -3  -1  -6   54.99    6.10
  -3  -1  -6   64.49    8.10
  -3  -1  -6   55.89    7.20
   3   1   6   22.50   10.00
   3   1   6   53.79    6.00
   3   1   6   88.29   15.10
   3   1   6   51.89    9.00
  -4  -1  -6  144.79   14.90
  -4  -1  -6  148.79   14.20
  -4  -1  -6  141.59   13.30
   4   1   6   74.19   17.10
   4   1   6  134.09   20.70
   4   1   6  153.48   13.50
   4   1   6  125.29   16.00
  -5  -1  -6   24.20    4.60
  -5  -1  -6   17.30    4.50
  -5  -1  -6   12.70    5.50
   5   1   6   19.00    9.60
   5   1   6   16.90    7.30
  -6  -1  -6   32.00    7.30
  -6  -1  -6   23.80    5.80
   6   1   6   35.50    8.70
   6   1   6   39.50   11.60
  -7  -1  -6    8.00    6.40
  -7  -1  -6    8.40    5.60
   7   1   6    8.50    9.70
   7   1   6    1.00    6.50
   9  -2  -6    1.70    6.60
   9  -2  -6   -7.70    8.70
  -9   2   6   15.30   12.90
  -9   2   6    5.30    4.00
  -9   2   6   -5.80    7.50
   8  -2  -6  129.79   16.30
   8  -2  -6  175.78   18.70
   8  -2  -6  159.58   20.90
  -8   2   6  155.18   18.10
  -8   2   6  179.88   25.50
  -8   2   6  152.98   16.10
   7  -2  -6   22.60    8.00
   7  -2  -6   11.50    4.80
   7  -2  -6   18.60    6.10
  -7   2   6    1.70    9.70
  -7   2   6   20.20    6.50
  -7   2   6   11.40    4.20
   6  -2  -6   91.49   12.20
   6  -2  -6   91.99   11.20
   6  -2  -6   83.09    9.80
   6  -2  -6   94.59    9.80
  -6   2   6  111.09   15.90
  -6   2   6   76.89    8.50
  -6   2   6   76.09    9.30
  -6   2   6   91.79   11.20
   5  -2  -6   22.10    6.30
   5  -2  -6   11.40    3.40
   5  -2  -6   13.10    4.00
   5  -2  -6   15.40    3.70
  -5   2   6   13.90    3.10
  -5   2   6    9.80    7.50
  -5   2   6   15.60    4.80
  -5   2   6   18.00    3.40
   4  -2  -6   32.40    6.40
   4  -2  -6   32.40    5.60
   4  -2  -6   37.00    5.80
   4  -2  -6   29.40    5.00
   4  -2  -6   34.70    3.90
  -4   2   6   31.10    5.40
  -4   2   6   34.60    4.10
  -4   2   6   34.70    5.40
  -4   2   6   38.80    7.80
   3  -2  -6  210.48   19.80
   3  -2  -6  226.18   20.20
   3  -2  -6  213.28   18.90
   3  -2  -6  197.88   20.20
  -3   2   6  198.98   18.60
  -3   2   6  231.58   23.30
  -3   2   6  228.58   21.70
  -3   2   6  197.88   19.40
   2  -2  -6  142.19   13.70
   2  -2  -6  144.09   12.90
   2  -2  -6  140.49   14.00
   2  -2  -6  148.99   14.70
  -2   2   6  125.49   12.10
  -2   2   6  157.48   15.50
  -2   2   6  173.48   19.90
  -2   2   6  130.79   12.20
  -2   2   6  149.09   12.90
   1  -2  -6    9.70    3.00
   1  -2  -6    7.90    2.00
   1  -2  -6    9.50    3.70
   1  -2  -6   10.20    1.30
  -1   2   6   13.10    6.20
  -1   2   6   10.40    1.70
  -1   2   6    9.00    3.60
  -1   2   6    8.00    1.10
   0  -2  -6   36.40    3.70
   0  -2  -6   41.00    5.40
   0  -2  -6   33.00    3.60
   0  -2  -6   39.20    4.40
   0  -2  -6   29.20    5.10
   0   2   6   41.90   11.40
   0   2   6   31.60    3.60
   0   2   6   43.40    6.80
   0   2   6   27.10    8.80
  -1  -2  -6   36.80    5.40
  -1  -2  -6   47.10    4.40
  -1  -2  -6   47.20    6.80
  -1  -2  -6   42.60    6.00
   1   2   6   29.80    9.90
   1   2   6   30.20   11.90
   1   2   6   38.20    4.20
   1   2   6   39.80    7.50
  -2  -2  -6  203.78   17.60
  -2  -2  -6  195.68   18.60
  -2  -2  -6  183.68   19.00
  -2  -2  -6  189.38   19.30
   2   2   6  145.29   24.70
   2   2   6  195.58   17.40
   2   2   6  197.88   20.20
   2   2   6  213.98   26.40
  -3  -2  -6    6.00    3.40
  -3  -2  -6    5.30    2.70
  -3  -2  -6   12.20    3.30
   3   2   6   11.70    9.20
   3   2   6   26.70   11.20
   3   2   6    4.60    5.40
  -4  -2  -6    9.50    3.80
  -4  -2  -6    8.50    4.70
  -4  -2  -6   10.10    2.90
   4   2   6    4.10    7.70
   4   2   6   12.40    4.90
   4   2   6   17.20    9.70
  -5  -2  -6   19.90    4.90
  -5  -2  -6   15.30    6.20
   5   2   6   17.60    7.80
   5   2   6   26.10   11.90
  -6  -2  -6    3.20    4.20
  -6  -2  -6   11.60    5.10
   6   2   6   -3.50    9.30
   6   2   6   -9.90    7.40
  10  -3  -6   12.70    8.00
  10  -3  -6   -9.70    9.40
 -10   3   6   -9.00    5.60
 -10   3   6   -9.20    8.40
 -10   3   6   13.30   14.10
   9  -3  -6    0.70    6.10
   9  -3  -6   12.00    9.90
  -9   3   6   16.50    8.30
  -9   3   6    4.60    5.30
  -9   3   6   24.70   13.50
   8  -3  -6   21.70    5.70
   8  -3  -6   12.60    6.30
   8  -3  -6   16.40    8.90
  -8   3   6   25.20    5.60
  -8   3   6   32.60   13.00
  -8   3   6   26.00    8.20
   7  -3  -6   53.59    8.60
   7  -3  -6   72.39   11.50
   7  -3  -6   47.90    8.00
  -7   3   6   56.29   14.30
  -7   3   6   70.09   10.10
  -7   3   6   61.09    7.70
   6  -3  -6  121.09   14.50
   6  -3  -6   90.29   12.10
   6  -3  -6  111.29   11.40
   6  -3  -6   80.99   11.20
  -6   3   6  103.79   12.30
  -6   3   6   91.99   10.50
  -6   3   6   95.89   11.60
  -6   3   6  143.39   17.90
   5  -3  -6  117.79   13.50
   5  -3  -6   88.29   10.60
   5  -3  -6   91.99    9.20
   5  -3  -6   92.29   11.50
   5  -3  -6   79.59   10.10
  -5   3   6   90.39   11.00
  -5   3   6   87.89    9.60
  -5   3   6  112.89   12.90
  -5   3   6  140.29   16.30
   4  -3  -6  209.98   18.50
   4  -3  -6  188.98   19.10
   4  -3  -6  175.38   19.80
   4  -3  -6  210.28   19.40
  -4   3   6  241.88   22.50
  -4   3   6  174.68   18.90
  -4   3   6  199.98   18.30
  -4   3   6  235.28   24.10
   3  -3  -6   59.89    7.70
   3  -3  -6   50.39    5.30
   3  -3  -6   56.29    8.20
   3  -3  -6   56.69    7.20
   3  -3  -6   55.49    6.40
  -3   3   6   56.39    8.70
  -3   3   6   57.49    6.00
  -3   3   6   44.00   10.80
  -3   3   6   57.59    6.40
   2  -3  -6   41.00    6.30
   2  -3  -6   46.80    6.90
   2  -3  -6   45.10    4.70
   2  -3  -6   46.60    5.40
  -2   3   6   51.49   12.00
  -2   3   6   46.80    5.00
  -2   3   6   53.39    8.20
   1  -3  -6  319.67   30.80
   1  -3  -6  354.16   31.90
   1  -3  -6  366.86   32.10
   1  -3  -6  340.47   30.30
  -1   3   6  389.06   38.00
  -1   3   6  335.87   30.00
  -1   3   6  337.67   30.10
  -1   3   6  320.67   37.80
  -1   3   6  384.86   32.60
   0  -3  -6   99.89   10.30
   0  -3  -6   93.09    9.30
   0  -3  -6   99.89   11.70
   0  -3  -6   98.29   11.00
   0   3   6  101.79   11.70
   0   3   6  104.59   18.20
   0   3   6  109.69   19.40
  -1  -3  -6  630.24   58.39
  -1  -3  -6  655.23   57.79
  -1  -3  -6  644.64   58.69
  -1  -3  -6  661.13   56.99
   1   3   6  649.14   58.89
   1   3   6  671.63   65.29
  -2  -3  -6  166.68   17.60
  -2  -3  -6  157.38   15.40
  -2  -3  -6  181.98   16.60
   2   3   6  168.58   24.30
   2   3   6  107.59   23.10
   2   3   6  178.18   18.20
  -3  -3  -6   30.70    4.80
  -3  -3  -6   33.00    7.00
  -3  -3  -6   44.00    6.60
   3   3   6   65.29   14.50
   3   3   6    7.40    8.20
   3   3   6   39.80    7.00
  -4  -3  -6    0.10    4.70
  -4  -3  -6    2.30    3.60
  -4  -3  -6    0.10    3.70
   4   3   6    3.50    4.50
   4   3   6   -8.90    8.90
   4   3   6   10.60   10.50
  -5  -3  -6    7.50    6.30
  -5  -3  -6   24.60    5.60
   5   3   6   15.30    8.30
   5   3   6   27.90   12.60
  10  -4  -6   30.90    9.80
  10  -4  -6   12.80    7.70
 -10   4   6   24.40   10.10
 -10   4   6   14.20   11.80
 -10   4   6   15.30    6.80
   9  -4  -6    3.40    6.00
   9  -4  -6    9.80    9.30
  -9   4   6    4.60    3.70
  -9   4   6    8.70   12.60
  -9   4   6   -5.50    7.40
   8  -4  -6    3.00    3.80
   8  -4  -6    0.70    4.50
   8  -4  -6    5.20    7.60
  -8   4   6    8.80   11.30
  -8   4   6   -3.50    6.40
  -8   4   6    3.50    4.40
   7  -4  -6  191.68   20.80
   7  -4  -6  237.78   21.80
   7  -4  -6  196.18   21.40
   7  -4  -6  201.78   22.90
  -7   4   6  239.18   28.00
  -7   4   6  218.38   20.80
  -7   4   6  204.78   22.10
  -7   4   6  259.67   23.30
   6  -4  -6   -0.60    5.70
   6  -4  -6    3.90    2.90
   6  -4  -6    3.90    3.40
   6  -4  -6    3.00    4.40
   6  -4  -6    3.60    3.50
  -6   4   6    4.00    3.70
  -6   4   6   -7.60    4.90
  -6   4   6   -3.10    3.00
  -6   4   6    3.20    4.70
  -6   4   6    6.40    5.60
   5  -4  -6  334.97   34.10
   5  -4  -6  344.17   34.90
   5  -4  -6  349.47   33.70
   5  -4  -6  378.26   32.80
   5  -4  -6  365.26   33.90
   5  -4  -6  363.96   32.20
  -5   4   6  418.56   37.00
  -5   4   6  349.67   32.80
  -5   4   6  347.17   37.80
  -5   4   6  371.06   33.60
   4  -4  -6  113.49   12.40
   4  -4  -6   96.39   11.00
   4  -4  -6  102.69   10.10
   4  -4  -6  108.39   12.90
   4  -4  -6  102.99   12.30
  -4   4   6   92.39   10.60
  -4   4   6  104.79   11.00
  -4   4   6  106.09   16.90
  -4   4   6  131.89   14.80
   3  -4  -6    3.10    3.00
   3  -4  -6    2.20    2.90
   3  -4  -6    2.10    1.80
   3  -4  -6    0.80    2.90
  -3   4   6   -3.30    3.90
  -3   4   6    3.20    7.60
  -3   4   6   -1.60    6.90
  -3   4   6    0.80    1.80
   2  -4  -6   10.60    2.60
   2  -4  -6   11.00    3.90
   2  -4  -6    6.50    3.60
   2  -4  -6    8.40    3.50
  -2   4   6   10.60    1.70
  -2   4   6   11.70    1.60
  -2   4   6   -1.70    6.60
  -2   4   6   11.90    7.40
  -2   4   6   10.20    4.70
   1  -4  -6   62.49    9.30
   1  -4  -6   58.89    7.80
   1  -4  -6   64.99    6.80
   1  -4  -6   72.59    9.60
  -1   4   6   67.99    9.00
  -1   4   6   46.60   15.00
  -1   4   6   68.49   16.00
   0  -4  -6    3.80    2.40
   0  -4  -6   -1.50    3.30
   0  -4  -6    0.70    4.70
   0  -4  -6    1.10    3.60
   0   4   6    2.80    4.40
   0   4   6   -8.90    9.90
   0   4   6   -4.50    6.60
  -1  -4  -6   51.89    6.30
  -1  -4  -6   47.30    8.00
  -1  -4  -6   59.69    7.70
   1   4   6   62.19    8.20
   1   4   6   54.69   16.10
   1   4   6   43.70   15.50
  -2  -4  -6   35.50    6.80
  -2  -4  -6   49.99    7.80
  -2  -4  -6   38.10    5.10
   2   4   6   49.60   15.40
   2   4   6   34.40    7.60
   2   4   6   50.99   15.60
  -3  -4  -6   18.10    4.50
  -3  -4  -6   26.50    7.60
  -3  -4  -6   16.30    4.70
   3   4   6   15.60    6.60
   3   4   6   16.50   11.30
   3   4   6    7.60   12.30
  -4  -4  -6    7.40    6.10
  -4  -4  -6   -7.50    4.20
   4   4   6   18.00   19.30
   4   4   6  -17.80    8.90
   4   4   6   10.70    6.90
  10  -5  -6   10.80    7.50
  10  -5  -6   14.50    8.60
 -10   5   6   11.40    5.40
 -10   5   6   32.90   16.00
 -10   5   6   27.80    8.30
   9  -5  -6    1.20    8.50
   9  -5  -6    5.90    4.50
  -9   5   6   16.60    6.00
  -9   5   6    4.70    8.40
  -9   5   6  -10.30   10.70
   8  -5  -6   -3.40    5.00
   8  -5  -6    5.40    5.50
   8  -5  -6    9.40    7.80
  -8   5   6    0.00    9.50
  -8   5   6    2.70    4.60
  -8   5   6    1.90    6.50
   7  -5  -6   -9.90    4.30
   7  -5  -6    3.30    4.90
   7  -5  -6    4.10    3.70
   7  -5  -6    8.30    5.40
   7  -5  -6    1.60    4.00
   7  -5  -6   -4.00    6.10
  -7   5   6   -0.50    8.50
  -7   5   6    4.30    5.80
  -7   5   6   -8.60    5.10
  -7   5   6    0.80    4.90
  -7   5   6   -2.10    3.70
  -7   5   6   -0.10    8.50
   6  -5  -6   10.20    4.10
   6  -5  -6   12.40    3.00
   6  -5  -6   11.50    5.60
   6  -5  -6   13.00    5.90
   6  -5  -6   10.30    4.30
   6  -5  -6   11.60    6.30
  -6   5   6   -1.00    3.50
  -6   5   6    6.40    9.40
  -6   5   6    5.20    8.00
  -6   5   6   17.50    7.50
  -6   5   6    3.90    7.50
  -6   5   6   13.90    5.50
   5  -5  -6   10.70    4.20
   5  -5  -6    1.50    3.90
   5  -5  -6    3.50    5.20
   5  -5  -6    7.20    2.90
   5  -5  -6   -0.20    4.70
  -5   5   6    2.00    8.00
  -5   5   6    6.50    6.60
  -5   5   6    3.90   12.00
  -5   5   6    6.60    3.90
  -5   5   6    2.00    3.50
   4  -5  -6   98.99   12.80
   4  -5  -6   98.49   13.10
   4  -5  -6   99.39   11.20
   4  -5  -6  110.69   10.50
  -4   5   6  110.59   18.50
  -4   5   6  131.79   14.60
  -4   5   6  101.99   21.40
  -4   5   6  108.79   11.40
   3  -5  -6  126.49   14.40
   3  -5  -6  150.28   15.70
   3  -5  -6  170.08   14.00
   3  -5  -6  148.49   15.90
  -3   5   6  136.79   13.50
  -3   5   6  149.49   16.40
  -3   5   6  152.68   22.60
  -3   5   6  139.49   23.80
   2  -5  -6   42.20    8.10
   2  -5  -6   34.50    5.80
   2  -5  -6   44.80    8.30
   2  -5  -6   42.00    5.20
  -2   5   6   45.00   15.10
  -2   5   6   51.69   12.60
  -2   5   6   36.30    6.90
   1  -5  -6   54.49    6.20
   1  -5  -6   52.79    7.40
   1  -5  -6   41.30    8.50
   1  -5  -6   42.40    8.00
  -1   5   6   30.80   15.30
  -1   5   6   51.89   15.70
  -1   5   6   51.69    7.70
   0  -5  -6    4.50    3.30
   0  -5  -6    5.80    6.10
   0  -5  -6    9.40    4.70
   0   5   6    2.80    4.20
   0   5   6  -10.90   12.10
   0   5   6   -2.40    8.10
  -1  -5  -6    2.80    2.70
  -1  -5  -6    9.80    5.00
  -1  -5  -6    2.70    4.60
   1   5   6    2.70    8.30
   1   5   6    1.30    4.40
   1   5   6    1.30    8.70
  -2  -5  -6   80.49    8.90
  -2  -5  -6   72.39   11.10
  -2  -5  -6   63.79    9.90
   2   5   6   92.29   19.50
   2   5   6   43.20   18.40
  -3  -5  -6   12.50    8.10
  -3  -5  -6   10.70    5.20
  -3  -5  -6   16.50    5.30
   3   5   6    8.60   12.10
   3   5   6    7.60   11.10
  10  -6  -6   10.80    5.60
  10  -6  -6   11.60    7.70
 -10   6   6   37.10    8.80
 -10   6   6    1.90    9.30
 -10   6   6   27.40    6.20
   9  -6  -6   45.90    9.80
   9  -6  -6   51.89   10.40
   9  -6  -6   40.60   10.20
  -9   6   6   58.59   15.10
  -9   6   6   68.69   14.30
  -9   6   6   71.49   12.10
  -9   6   6   44.50    7.80
   8  -6  -6    3.00    6.10
   8  -6  -6    8.00    8.00
   8  -6  -6    2.90    6.50
   8  -6  -6    0.80    5.80
   8  -6  -6    4.20    3.30
   8  -6  -6    1.40    5.60
  -8   6   6   -3.10   12.10
  -8   6   6   -6.60    6.30
  -8   6   6   14.50   10.20
  -8   6   6   -5.70    6.30
  -8   6   6   -1.30    4.60
  -8   6   6   12.20   10.10
  -8   6   6    7.40    8.40
   7  -6  -6   81.99   11.50
   7  -6  -6   72.99   11.20
   7  -6  -6   65.59   11.20
   7  -6  -6   88.09    9.00
   7  -6  -6   80.09   10.70
   7  -6  -6   87.79   10.20
   7  -6  -6   67.89   10.60
  -7   6   6   91.29   16.00
  -7   6   6   70.89   20.00
  -7   6   6  110.29   15.10
  -7   6   6   47.60   15.00
  -7   6   6   82.49   14.70
  -7   6   6   64.49    9.50
  -7   6   6   99.59   12.10
   6  -6  -6    4.90    3.70
   6  -6  -6   11.90    6.00
   6  -6  -6    1.90    6.50
   6  -6  -6    6.00    4.80
   6  -6  -6    8.90    6.40
   6  -6  -6    1.20    3.90
  -6   6   6    0.30    4.70
  -6   6   6   11.00    7.50
  -6   6   6    2.30    8.50
  -6   6   6   17.10    9.50
  -6   6   6    9.20    7.70
  -6   6   6    8.40    4.70
  -6   6   6   10.60   13.30
   5  -6  -6   37.60    7.40
   5  -6  -6   34.90    7.20
   5  -6  -6   45.20    5.80
   5  -6  -6   36.20    8.80
  -5   6   6   44.50    8.20
  -5   6   6   44.60    7.10
  -5   6   6   42.90   12.80
  -5   6   6   41.00   13.20
   4  -6  -6  154.08   15.80
   4  -6  -6  130.49   16.10
   4  -6  -6  151.28   14.20
   4  -6  -6  157.98   16.30
  -4   6   6   71.29   22.50
  -4   6   6  156.48   17.00
  -4   6   6  125.89   20.70
   3  -6  -6   88.19   11.80
   3  -6  -6   88.29   11.50
   3  -6  -6   80.89    9.20
   3  -6  -6   90.89   10.80
  -3   6   6   86.69   11.20
  -3   6   6   35.80   15.90
  -3   6   6   95.99   19.10
   2  -6  -6   32.10    5.10
   2  -6  -6   27.30    6.40
   2  -6  -6   37.20    8.50
  -2   6   6   27.80   13.40
  -2   6   6   12.20   14.00
  -2   6   6   25.50    6.50
   1  -6  -6   41.30    7.10
   1  -6  -6   28.50    8.80
   1  -6  -6   25.80    5.40
  -1   6   6   41.60   15.70
  -1   6   6   24.70   12.30
   0  -6  -6    9.10    7.80
   0  -6  -6   -0.80    4.00
   0  -6  -6    5.80    5.20
   0   6   6   -4.50    8.70
   0   6   6  -12.10   11.90
  -1  -6  -6    1.00    5.70
  -1  -6  -6   11.30    4.90
  -1  -6  -6   14.30    8.60
   1   6   6   15.40   10.50
   1   6   6    6.80   10.10
  -2  -6  -6   20.20    9.20
  -2  -6  -6   19.60    7.10
   2   6   6    8.40   13.70
   2   6   6   -1.20   10.80
   9  -7  -6   42.30    9.70
   9  -7  -6   30.10    8.60
   9  -7  -6   24.50    6.60
  -9   7   6   25.10    6.20
  -9   7   6   16.30    8.90
  -9   7   6   25.30    9.50
  -9   7   6    4.20    8.00
   8  -7  -6    2.30    7.90
   8  -7  -6   -9.60    6.50
   8  -7  -6    4.80    5.30
   8  -7  -6    5.80    5.60
   8  -7  -6    4.10    4.00
   8  -7  -6   12.00    6.60
   8  -7  -6    9.70    6.60
  -8   7   6   -8.10    8.00
  -8   7   6   16.80    7.60
  -8   7   6   -2.80    9.70
  -8   7   6    8.30    5.90
  -8   7   6   -7.50   12.60
  -8   7   6    0.60    6.00
  -8   7   6    3.00    6.00
   7  -7  -6    2.00    5.50
   7  -7  -6    0.70    4.40
   7  -7  -6    4.70    5.10
   7  -7  -6    1.30    4.10
   7  -7  -6   -1.70    5.30
   7  -7  -6    5.90    7.30
  -7   7   6    2.90    5.10
  -7   7   6    2.50    5.50
  -7   7   6    6.50    6.30
  -7   7   6    6.00    6.10
  -7   7   6   13.70   10.90
  -7   7   6   -4.30   12.80
  -7   7   6    8.30    7.60
   6  -7  -6    0.40    5.80
   6  -7  -6   -5.70    4.00
   6  -7  -6    4.40    7.40
   6  -7  -6   -1.50    4.90
  -6   7   6    4.90    3.60
  -6   7   6    6.60    7.40
  -6   7   6    5.90    5.00
  -6   7   6    3.60   14.00
  -6   7   6    6.50   10.30
   5  -7  -6    8.80    5.90
   5  -7  -6   10.70    7.50
   5  -7  -6    4.70    3.00
   5  -7  -6    6.20    7.20
  -5   7   6   -9.60    9.40
  -5   7   6    2.30    8.70
  -5   7   6    5.90   14.80
  -5   7   6    2.90    5.40
   4  -7  -6    3.90    5.20
   4  -7  -6    6.80    4.20
   4  -7  -6    4.10    4.10
   4  -7  -6   -4.00    6.50
  -4   7   6   31.40   16.00
  -4   7   6   15.90   11.30
   3  -7  -6    0.80    5.70
   3  -7  -6    2.20    7.10
   3  -7  -6    5.40    4.30
  -3   7   6    3.70   14.00
  -3   7   6   -9.80   11.20
   2  -7  -6   42.30    6.00
   2  -7  -6   19.70    6.60
   2  -7  -6    9.80    6.10
  -2   7   6   40.10   17.10
  -2   7   6   12.30   10.10
   1  -7  -6    2.90    5.10
   1  -7  -6   10.40    6.40
   1  -7  -6    1.00    8.20
  -1   7   6   -2.20   13.30
  -1   7   6   -6.90    9.40
   0  -7  -6   68.99   13.60
   0  -7  -6   71.69   10.00
   0   7   6   73.79   17.20
   0   7   6   51.99   20.10
  -1  -7  -6    1.60    6.50
  -1  -7  -6    7.80    9.30
   1   7   6   20.00   17.80
   1   7   6    7.80   14.00
   1   7   6   11.60   13.10
   9  -8  -6   15.80    9.80
   9  -8  -6    7.30    7.70
   9  -8  -6   -5.10    7.80
   9  -8  -6   12.50    8.90
  -9   8   6    1.10    6.80
  -9   8   6    7.10    8.20
  -9   8   6   -4.20   11.60
  -9   8   6    3.50   10.60
   8  -8  -6   57.19   10.20
   8  -8  -6   70.79    9.80
   8  -8  -6   71.59   10.80
  -8   8   6   29.60   14.70
  -8   8   6   29.00   13.70
  -8   8   6   29.70   15.50
  -8   8   6   91.79   11.50
  -8   8   6   63.29   16.50
   7  -8  -6   -4.80    8.10
   7  -8  -6   -2.70    5.90
   7  -8  -6   -0.80    5.50
   7  -8  -6    7.60    7.00
  -7   8   6   -1.90    7.40
  -7   8   6  -11.60   12.60
  -7   8   6   -3.20    9.70
  -7   8   6    1.00    6.00
  -7   8   6    2.30    9.60
   6  -8  -6   26.10    8.20
   6  -8  -6   42.90   11.30
   6  -8  -6   35.50    8.70
  -6   8   6    8.00   16.30
  -6   8   6   36.60   14.00
  -6   8   6   37.30   14.80
   5  -8  -6    3.40    6.70
   5  -8  -6   -3.80    5.70
  -5   8   6    1.90    7.40
  -5   8   6    4.30   11.40
  -5   8   6    3.00    9.80
   4  -8  -6   -0.60    8.60
   4  -8  -6    1.90    6.70
  -4   8   6   -1.10    8.20
  -4   8   6  -14.80   12.60
  -4   8   6    0.70   10.60
   3  -8  -6   23.40    8.10
   3  -8  -6   40.30    8.40
  -3   8   6   13.70   17.40
  -3   8   6   16.30   14.50
  -3   8   6    5.80    9.20
   2  -8  -6   27.70   10.60
   2  -8  -6   22.60    6.30
  -2   8   6   41.50   14.30
  -2   8   6   36.00   18.80
  -2   8   6   25.50   15.00
   1  -8  -6    8.80    7.20
   1  -8  -6    5.40    7.60
  -1   8   6   20.90   15.10
  -1   8   6    9.50   12.70
  -1   8   6    4.20    9.00
   7  -9  -6    3.10    9.70
   7  -9  -6    2.40    8.10
  -7   9   6  -16.30    8.50
  -7   9   6    2.20   12.50
  -7   9   6   18.10   14.40
  -7   9   6   -1.70   10.40
   6  -9  -6    5.70    7.80
   6  -9  -6   12.00    6.90
  -6   9   6    9.30    9.00
  -6   9   6    7.90    9.10
  -6   9   6   18.60   13.50
   5  -9  -6    3.10    6.90
   5  -9  -6   33.00    9.10
  -5   9   6    7.90    9.70
  -5   9   6   -0.10   11.00
  -5   9   6    5.90   13.60
   4  -9  -6  -11.60    4.40
   4  -9  -6    8.30    9.50
  -4   9   6  -13.30   12.80
  -4   9   6   -1.10   16.70
  -4   9   6    2.90   11.90
   3  -9  -6  -13.40    6.90
   3  -9  -6   -4.30    6.80
  -3   9   6   -4.90   16.50
  -3   9   6   -2.90    9.80
  -3   9   6    4.20    9.90
  -3  10  -7  -13.60   12.10
  -3  10  -7   40.20   20.30
   3 -10   7  -10.80    7.20
  -4  10  -7   31.90   12.00
  -4  10  -7   19.70   14.80
  -4  10  -7   36.50   13.70
   4 -10   7   13.00    9.00
   4 -10   7   13.10    8.80
   4 -10   7   13.40    8.40
  -5  10  -7   41.80   15.10
  -5  10  -7   11.90   14.10
   5 -10   7   29.90    9.60
   5 -10   7    6.80    9.30
   0   9  -7   21.20   12.50
   0   9  -7   26.70   17.60
   0  -9   7   13.20    7.10
   0  -9   7    5.20    5.90
  -1   9  -7    4.80    8.30
  -1   9  -7    3.50   13.20
  -1   9  -7    9.20   16.10
   1  -9   7    4.30    6.60
   1  -9   7    2.40    4.90
   1  -9   7    2.20    7.50
  -2   9  -7   47.10   13.90
  -2   9  -7   31.40   19.50
  -2   9  -7   30.40   14.00
   2  -9   7   35.10    8.40
   2  -9   7   25.90    8.60
   2  -9   7   34.30    8.40
  -3   9  -7   66.69   19.70
  -3   9  -7   64.09   15.20
  -3   9  -7   68.29   17.30
   3  -9   7   33.60    9.10
   3  -9   7   47.80   10.00
   3  -9   7   53.49    8.80
  -4   9  -7   13.90   15.30
  -4   9  -7    7.00   10.90
  -4   9  -7   19.20    9.20
   4  -9   7    8.30    7.60
   4  -9   7    4.50    5.50
   4  -9   7   -5.80    4.20
  -5   9  -7   27.90   17.70
  -5   9  -7  -10.10   10.70
   5  -9   7   22.90    6.50
   5  -9   7   28.10    7.20
  -6   9  -7    5.30   10.90
  -6   9  -7   -6.00    9.80
   6  -9   7    2.20    7.40
   6  -9   7   -0.70    5.50
  -7   9  -7    2.90   11.30
  -7   9  -7   16.40   15.30
   7  -9   7    2.10    5.30
   7  -9   7    3.80    8.70
   1   8  -7   13.20   14.10
   1   8  -7   13.00   14.30
  -1  -8   7   26.30    8.00
  -1  -8   7   20.80    7.10
   0   8  -7   62.09   15.70
   0   8  -7   48.50   13.40
   0   8  -7   42.30   17.30
   0  -8   7   52.29    9.00
   0  -8   7   53.39    8.90
   0  -8   7   39.00    9.10
  -1   8  -7   -1.20    8.60
  -1   8  -7    0.60   11.40
  -1   8  -7   13.30   14.30
   1  -8   7   18.40    6.20
   1  -8   7    8.80    6.60
   1  -8   7    5.30    6.10
  -2   8  -7  160.48   23.70
  -2   8  -7  171.98   29.90
  -2   8  -7  207.48   27.10
   2  -8   7  163.38   18.00
   2  -8   7  127.29   17.50
   2  -8   7  179.98   18.20
  -3   8  -7   12.70    8.60
  -3   8  -7   13.00   11.00
  -3   8  -7   27.50    9.20
   3  -8   7   13.00    6.80
   3  -8   7    7.10    6.10
   3  -8   7   13.80    7.30
  -4   8  -7   44.50   17.40
  -4   8  -7   43.60   12.60
  -4   8  -7   83.99   15.10
   4  -8   7   27.80    8.20
   4  -8   7   32.60    8.30
  -5   8  -7   14.50   10.40
  -5   8  -7   14.90   10.80
   5  -8   7    7.10    6.80
   5  -8   7    0.40    5.00
  -6   8  -7   25.00   13.70
  -6   8  -7   -5.40    9.10
   6  -8   7    2.30    5.20
   6  -8   7   -2.40    6.10
  -7   8  -7   17.20   13.60
  -7   8  -7   -3.60    9.70
  -7   8  -7    7.80    7.70
   7  -8   7    6.70    7.60
   7  -8   7    3.10    7.70
   7  -8   7   14.60    6.90
  -8   8  -7   48.00   12.60
  -8   8  -7   31.00    9.60
  -8   8  -7   34.50   15.50
   8  -8   7   16.70    9.10
   8  -8   7   24.30    7.80
   8  -8   7   24.20    6.50
   3   7  -7    3.50    8.40
   3   7  -7   19.40   10.80
  -3  -7   7   23.80    7.20
  -3  -7   7    6.80    6.50
   2   7  -7    2.10   10.40
   2   7  -7   10.10    9.10
  -2  -7   7    3.80    6.20
  -2  -7   7    5.60    6.00
   1   7  -7   -2.90   10.40
   1   7  -7   18.20   11.80
  -1  -7   7    3.70    6.10
  -1  -7   7   10.10    6.00
   0   7  -7   -0.20    7.80
   0   7  -7   -0.50    7.40
   0   7  -7    1.00   10.50
   0  -7   7   -6.80    5.10
   0  -7   7    2.70    4.40
   0  -7   7    0.00    3.70
  -1   7  -7   23.20    8.40
  -1   7  -7   67.69   14.50
  -1   7  -7   22.90   11.10
   1  -7   7   38.60    6.50
   1  -7   7   35.50    6.00
   1  -7   7   35.70    6.40
  -2   7  -7    1.70    5.50
  -2   7  -7    6.00   10.30
  -2   7  -7   -1.60    8.10
   2  -7   7    3.00    5.20
   2  -7   7   -3.80    4.30
   2  -7   7   -4.00    3.40
  -3   7  -7   14.40    7.20
  -3   7  -7   14.00    8.20
  -3   7  -7   10.00    7.80
   3  -7   7    7.90    4.20
   3  -7   7    7.40    5.70
  -4   7  -7   26.90    9.40
  -4   7  -7   21.40   13.60
  -4   7  -7   46.00    9.30
   4  -7   7   49.20    7.70
   4  -7   7   45.80    8.30
   4  -7   7   40.50    6.80
  -5   7  -7   81.39   13.40
  -5   7  -7   89.99   19.10
   5  -7   7   78.69   10.20
   5  -7   7   53.29   10.20
   5  -7   7   70.29   10.50
  -6   7  -7   25.40   12.40
  -6   7  -7   44.00   12.00
  -6   7  -7   47.60   10.90
   6  -7   7   19.70    7.80
   6  -7   7   34.80    8.60
   6  -7   7   26.90    5.90
  -7   7  -7    1.00    8.50
  -7   7  -7    3.20    6.20
  -7   7  -7    3.00   10.20
   7  -7   7   -1.40    6.90
   7  -7   7    1.70    6.70
   7  -7   7    4.80    4.40
  -8   7  -7    5.80    6.70
  -8   7  -7   -5.80    9.00
  -8   7  -7  -10.00    8.60
   8  -7   7    1.20    7.40
   8  -7   7   -1.40    8.10
   8  -7   7  -12.80    5.90
   4   6  -7    8.50    9.30
   4   6  -7    0.20    8.10
  -4  -6   7   -1.30    6.60
  -4  -6   7   -5.90    5.70
   3   6  -7   17.80   12.20
   3   6  -7   36.00    8.10
  -3  -6   7   31.40    6.20
  -3  -6   7   32.30    6.30
   2   6  -7  136.29   21.10
   2   6  -7  149.99   16.20
   2   6  -7  139.29   20.80
  -2  -6   7  108.79   13.20
  -2  -6   7  106.79   13.00
   1   6  -7    6.20    9.30
   1   6  -7    8.30    7.40
   1   6  -7    9.80    4.90
   1   6  -7    4.90    7.00
  -1  -6   7    3.30    3.90
  -1  -6   7   11.70    5.20
  -1  -6   7    4.90    5.20
   0   6  -7  391.86   41.40
   0   6  -7  372.26   38.30
   0   6  -7  335.17   37.20
   0   6  -7  385.06   34.20
   0  -6   7  355.96   33.80
   0  -6   7  372.06   34.50
   0  -6   7  369.06   34.20
  -1   6  -7   -1.10    5.20
  -1   6  -7   -4.80    8.30
  -1   6  -7    3.60    5.30
   1  -6   7   -0.90    3.30
   1  -6   7    3.40    4.50
   1  -6   7   -1.50    3.30
   1  -6   7   -3.30    3.30
  -2   6  -7    5.20    6.80
  -2   6  -7   12.00    7.10
  -2   6  -7    7.80    6.60
   2  -6   7    6.80    3.90
   2  -6   7    8.40    4.40
   2  -6   7   15.70    5.00
   2  -6   7   12.70    4.10
  -3   6  -7  245.88   26.30
  -3   6  -7  255.87   29.80
  -3   6  -7  264.37   26.00
   3  -6   7  245.98   24.10
   3  -6   7  251.67   24.60
   3  -6   7  246.28   24.10
  -4   6  -7   87.19   16.60
  -4   6  -7   64.09    9.80
  -4   6  -7   70.69   10.80
   4  -6   7   58.39    8.40
   4  -6   7   57.09    9.30
   4  -6   7   49.80    8.30
  -5   6  -7  157.78   22.50
  -5   6  -7  170.38   18.40
   5  -6   7  118.69   15.00
   5  -6   7  117.49   14.40
   5  -6   7  155.68   15.80
  -6   6  -7  107.19   13.60
  -6   6  -7  101.49   14.60
  -6   6  -7   87.69   16.30
   6  -6   7   67.59   10.40
   6  -6   7   74.09    9.60
   6  -6   7   93.19   13.10
  -7   6  -7    7.00    5.80
  -7   6  -7   -0.50    8.00
  -7   6  -7   12.60    7.90
   7  -6   7   -3.50    3.50
   7  -6   7   -6.90    6.80
   7  -6   7    1.50    6.40
  -8   6  -7    8.30    9.10
  -8   6  -7    4.40    8.20
  -8   6  -7   -0.60    5.70
   8  -6   7    8.60    5.70
   8  -6   7    9.50    8.80
   8  -6   7    8.20    6.10
   5   5  -7    5.30    8.50
   5   5  -7   -1.10    8.60
  -5  -5   7    9.80    4.80
  -5  -5   7    7.30    4.60
   4   5  -7   11.00    8.10
   4   5  -7    7.20   10.00
  -4  -5   7   -1.90    5.00
  -4  -5   7    2.50    4.10
   3   5  -7  275.97   29.20
   3   5  -7  255.57   24.20
   3   5  -7  224.28   26.30
  -3  -5   7  216.58   22.00
  -3  -5   7  215.78   23.20
   2   5  -7   85.49   14.20
   2   5  -7   65.69   13.00
   2   5  -7   49.30   11.80
   2   5  -7   76.09   10.60
  -2  -5   7   61.49    9.00
  -2  -5   7   61.59    9.50
  -2  -5   7   76.99    8.80
  -2  -5   7   56.69    8.30
   1   5  -7  146.39   14.80
   1   5  -7  145.99   17.50
   1   5  -7  160.78   20.90
   1   5  -7  194.08   20.80
  -1  -5   7  126.29   14.60
  -1  -5   7  125.29   14.80
  -1  -5   7  123.89   13.40
  -1  -5   7  128.29   13.60
   0   5  -7  182.08   19.30
   0   5  -7  178.58   22.60
   0   5  -7  149.19   17.90
   0  -5   7  155.18   15.10
   0  -5   7  121.69   15.10
   0  -5   7  138.19   14.40
   0  -5   7  160.38   15.70
  -1   5  -7  169.88   15.70
  -1   5  -7  196.28   20.20
  -1   5  -7  160.98   19.30
  -1   5  -7  190.08   23.80
   1  -5   7  156.68   16.90
   1  -5   7  154.18   15.90
   1  -5   7  161.38   16.40
   1  -5   7  175.48   17.10
  -2   5  -7   81.89   11.70
  -2   5  -7   76.49   11.30
  -2   5  -7   89.09   15.00
   2  -5   7   69.09    8.90
   2  -5   7   77.89    9.90
   2  -5   7   68.69    9.30
  -3   5  -7   -1.50    7.00
  -3   5  -7    7.00    5.20
  -3   5  -7    2.00    2.90
   3  -5   7    2.40    3.50
   3  -5   7   13.60    4.70
   3  -5   7   -3.80    2.70
  -4   5  -7   -0.50    6.20
  -4   5  -7    3.60    3.80
  -4   5  -7    9.30    5.60
   4  -5   7   -3.60    3.20
   4  -5   7   -0.10    4.90
   4  -5   7    6.40    3.70
  -5   5  -7   20.70    7.10
  -5   5  -7   35.90    8.50
  -5   5  -7   31.70    9.90
   5  -5   7   23.00    7.30
   5  -5   7   20.00    5.00
   5  -5   7   25.40    6.70
  -6   5  -7  179.98   19.30
  -6   5  -7  176.58   22.70
  -6   5  -7  191.28   20.80
   6  -5   7  198.78   19.70
   6  -5   7  141.39   17.10
   6  -5   7  178.78   18.90
  -7   5  -7  215.88   23.20
  -7   5  -7  241.28   23.80
  -7   5  -7  194.38   24.50
   7  -5   7  214.28   24.60
   7  -5   7  199.38   20.60
   7  -5   7  197.28   22.10
  -8   5  -7    2.80    5.60
  -8   5  -7   -0.30    7.30
  -8   5  -7   -1.60    7.20
   8  -5   7   -5.40    6.70
   8  -5   7    1.80    6.10
   6   4  -7   17.70    9.50
   6   4  -7   -6.10    9.90
  -6  -4   7   -1.50    3.90
  -6  -4   7    6.60    6.80
   5   4  -7   50.19    9.40
   5   4  -7   32.90    9.70
   5   4  -7   51.09   12.80
  -5  -4   7   26.40   10.00
  -5  -4   7   28.70    6.60
  -5  -4   7   30.10    7.80
   4   4  -7   78.39   14.80
   4   4  -7   95.49   13.00
  -4  -4   7   69.99   12.40
  -4  -4   7   75.69    9.00
  -4  -4   7   66.89   10.10
   3   4  -7   16.80    6.60
   3   4  -7   11.50    6.10
   3   4  -7   18.90    8.70
  -3  -4   7   16.00    4.30
  -3  -4   7   15.20    5.20
  -3  -4   7    6.80    6.00
   2   4  -7    5.70    4.30
   2   4  -7   10.20    5.90
   2   4  -7    2.20    4.40
   2   4  -7    9.00    4.10
  -2  -4   7    8.60    2.30
  -2  -4   7   12.80    5.40
  -2  -4   7    9.10    3.60
  -2  -4   7    7.40    3.50
   1   4  -7   32.70    5.00
   1   4  -7   38.20    9.10
   1   4  -7   24.10    5.70
   1   4  -7   30.50    6.90
  -1  -4   7   25.80    4.70
  -1  -4   7   27.90    5.30
  -1  -4   7   27.40    3.90
  -1  -4   7   26.70    5.90
   0   4  -7  282.57   29.20
   0   4  -7  361.46   32.80
   0   4  -7  319.57   28.30
   0   4  -7  331.97   30.80
   0  -4   7  302.47   28.70
   0  -4   7  292.87   29.10
   0  -4   7  292.67   28.10
  -1   4  -7 1016.90   86.89
  -1   4  -7  959.30   84.69
  -1   4  -7  949.90   82.89
  -1   4  -7  928.61   84.19
   1  -4   7  882.81   83.89
   1  -4   7  947.11   82.99
   1  -4   7  944.01   83.49
  -2   4  -7    3.20    3.60
  -2   4  -7    4.60    4.20
  -2   4  -7    3.10    2.60
   2  -4   7    1.20    3.40
   2  -4   7   -0.10    3.40
   2  -4   7    3.20    3.10
   2  -4   7    3.30    2.10
  -3   4  -7  172.18   16.80
  -3   4  -7  172.28   16.20
  -3   4  -7  177.58   19.90
   3  -4   7  150.38   15.20
   3  -4   7  168.18   16.60
   3  -4   7  165.78   17.00
   3  -4   7  137.49   16.10
  -4   4  -7   74.59    8.30
  -4   4  -7   70.79   10.90
  -4   4  -7   88.69   11.20
  -4   4  -7   88.19   12.60
   4  -4   7   81.89   11.40
   4  -4   7   77.89    9.80
   4  -4   7   70.69    8.30
   4  -4   7   76.89    9.40
  -5   4  -7   -3.50    3.00
  -5   4  -7   -0.90    4.30
  -5   4  -7   -4.40    5.90
   5  -4   7   -3.40    3.70
   5  -4   7   -4.80    4.20
   5  -4   7    5.00    2.70
  -6   4  -7  265.77   26.50
  -6   4  -7  266.17   25.40
  -6   4  -7  273.77   27.20
   6  -4   7  264.57   25.60
   6  -4   7  268.97   27.40
   6  -4   7  230.28   23.80
  -7   4  -7  121.49   15.30
  -7   4  -7  119.49   15.00
  -7   4  -7  136.69   17.40
   7  -4   7  134.29   15.10
   7  -4   7   93.49   16.50
  -8   4  -7   11.60    7.70
  -8   4  -7   11.90    5.30
   8  -4   7    9.60    5.50
   8  -4   7   -1.40    6.40
   7   3  -7   39.30   11.50
   7   3  -7   24.20   11.50
   7   3  -7   23.80   10.70
  -7  -3   7   23.90    5.60
  -7  -3   7   20.00   12.10
  -7  -3   7   23.90    8.30
   6   3  -7   26.50   10.40
   6   3  -7   24.50    9.10
   6   3  -7   38.90    9.90
  -6  -3   7   20.10   10.80
  -6  -3   7   27.10    6.30
  -6  -3   7   30.00    6.60
   5   3  -7  267.57   25.50
   5   3  -7  232.38   26.50
   5   3  -7  235.78   24.80
  -5  -3   7  243.28   22.20
  -5  -3   7  214.68   27.10
  -5  -3   7  198.78   22.50
   4   3  -7   -2.80    6.30
   4   3  -7   -3.70    5.20
   4   3  -7   -3.30    4.50
   4   3  -7   -2.40    3.30
  -4  -3   7    2.40    3.40
  -4  -3   7    2.20    4.80
  -4  -3   7   -1.70    4.40
   3   3  -7   10.80    4.90
   3   3  -7    9.30    4.90
   3   3  -7    7.00    4.60
  -3  -3   7   10.20    3.30
  -3  -3   7   -0.20    4.00
  -3  -3   7    6.80    5.90
   2   3  -7   87.29   10.90
   2   3  -7   94.09    9.70
   2   3  -7   99.39   12.50
   2   3  -7   98.39   12.50
  -2  -3   7   89.59   10.30
  -2  -3   7   90.49    8.50
  -2  -3   7   85.59    9.10
  -2  -3   7   78.29   11.80
   1   3  -7  112.59   14.10
   1   3  -7   97.39   12.90
   1   3  -7   87.09   10.20
   1   3  -7  105.39   11.00
  -1  -3   7  110.29   10.70
  -1  -3   7  103.59   12.20
  -1  -3   7   99.59   10.10
   0   3  -7  154.58   15.90
   0   3  -7  157.98   14.90
   0   3  -7  151.48   14.90
   0   3  -7  164.08   17.70
   0  -3   7  158.58   14.50
   0  -3   7  144.79   14.90
   0  -3   7  140.79   16.10
  -1   3  -7  235.18   20.90
  -1   3  -7  216.68   20.40
  -1   3  -7  232.58   21.50
  -1   3  -7  222.98   22.90
   1  -3   7  197.38   21.70
   1  -3   7  240.68   21.00
   1  -3   7  220.88   20.00
   1  -3   7  190.48   22.10
  -2   3  -7   -2.60    1.50
  -2   3  -7   -0.10    2.80
  -2   3  -7   -2.30    2.90
   2  -3   7   -1.90    3.50
   2  -3   7   -1.00    3.00
   2  -3   7    4.50    2.20
   2  -3   7    5.70    4.30
  -3   3  -7   22.70    3.90
  -3   3  -7   29.40    5.10
  -3   3  -7   20.70    4.40
  -3   3  -7   15.00    6.20
   3  -3   7   14.30    4.80
   3  -3   7   24.10    6.20
   3  -3   7   30.60    5.20
   3  -3   7   20.10    3.10
  -4   3  -7   65.09    8.50
  -4   3  -7   53.09    6.20
  -4   3  -7   56.39    7.80
  -4   3  -7   54.79    9.70
   4  -3   7   49.00    9.40
   4  -3   7   47.80    7.50
   4  -3   7   50.99    6.30
   4  -3   7   48.20    9.10
  -5   3  -7   34.40    7.30
  -5   3  -7   39.00    7.50
  -5   3  -7   46.50    7.00
   5  -3   7   33.60    6.50
   5  -3   7   29.50    7.20
   5  -3   7   37.70    7.70
  -6   3  -7    7.40    5.50
  -6   3  -7   14.70    6.60
  -6   3  -7    3.80    3.50
   6  -3   7   -3.30    6.10
   6  -3   7    9.20    5.40
   6  -3   7   10.00    5.30
  -7   3  -7   26.60    5.50
  -7   3  -7   20.60    6.00
  -7   3  -7   20.90    7.30
   7  -3   7    7.30    8.10
   7  -3   7   24.40    6.80
  -8   3  -7   29.00    8.40
  -8   3  -7   23.20    5.90
   8  -3   7   30.40    9.40
   8  -3   7   19.60    7.30
   7   2  -7   -6.50    7.20
   7   2  -7   -3.50    8.30
   7   2  -7    0.70    7.50
  -7  -2   7    2.70    4.90
  -7  -2   7    1.90    6.50
  -7  -2   7  -12.20    9.80
   6   2  -7   33.40    9.60
   6   2  -7   29.20    9.20
   6   2  -7   15.80    8.00
  -6  -2   7   23.30    5.30
  -6  -2   7   23.70    6.90
  -6  -2   7   18.70   10.50
   5   2  -7   24.40    7.40
   5   2  -7   29.40    8.00
   5   2  -7   22.70    6.40
  -5  -2   7   21.80    4.60
  -5  -2   7   20.90    5.90
  -5  -2   7   19.90    7.60
   4   2  -7   76.79   11.00
   4   2  -7   67.09   10.80
   4   2  -7   78.39    9.20
   4   2  -7   73.89   10.20
  -4  -2   7   66.19   12.30
  -4  -2   7   66.99    8.50
  -4  -2   7   57.69    7.20
   3   2  -7   92.19   12.10
   3   2  -7   82.99   10.70
   3   2  -7   82.79   10.60
  -3  -2   7   90.89   10.40
  -3  -2   7  100.79   13.50
  -3  -2   7   91.19    8.80
   2   2  -7  147.49   13.50
   2   2  -7  154.98   16.20
   2   2  -7  141.59   13.30
   2   2  -7  149.39   15.80
   2   2  -7  174.68   15.70
  -2  -2   7  150.98   17.60
  -2  -2   7  168.28   15.20
  -2  -2   7  151.98   14.10
   1   2  -7  111.59   11.00
   1   2  -7  123.89   13.60
   1   2  -7  136.79   12.50
   1   2  -7  116.59   13.00
  -1  -2   7  103.29   12.10
  -1  -2   7  122.19   11.10
  -1  -2   7  118.49   13.20
   0   2  -7   32.70    4.40
   0   2  -7   35.90    6.90
   0   2  -7   33.00    5.70
   0   2  -7   38.10    5.30
   0  -2   7   33.70    4.00
   0  -2   7   43.40    8.10
   0  -2   7   29.70    6.40
   0  -2   7   33.40    4.70
  -1   2  -7   21.50    5.20
  -1   2  -7   30.80    4.30
  -1   2  -7   21.10    4.30
   1  -2   7   22.60    6.70
   1  -2   7   22.00    4.10
   1  -2   7   31.00    5.30
   1  -2   7   22.30    3.00
  -2   2  -7  754.22   63.29
  -2   2  -7  734.53   63.39
  -2   2  -7  731.63   63.39
  -2   2  -7  739.13   65.09
   2  -2   7  725.33   63.19
   2  -2   7  754.52   64.59
   2  -2   7  683.73   62.39
   2  -2   7  563.14   65.19
  -3   2  -7    5.00    2.90
  -3   2  -7    2.80    2.10
  -3   2  -7    6.40    3.60
  -3   2  -7    6.30    3.80
   3  -2   7    4.50    2.60
   3  -2   7    8.60    2.30
   3  -2   7    5.00    3.70
   3  -2   7    6.20    6.30
  -4   2  -7  428.36   38.40
  -4   2  -7  416.36   39.90
  -4   2  -7  461.45   39.30
  -4   2  -7  415.86   37.80
   4  -2   7  416.26   38.60
   4  -2   7  430.76   40.60
   4  -2   7  413.56   41.40
  -5   2  -7    6.80    3.00
  -5   2  -7   14.90    5.50
  -5   2  -7   11.80    4.10
   5  -2   7    9.10    3.40
   5  -2   7   22.10    7.20
   5  -2   7   -2.00    5.60
  -6   2  -7   41.40    6.30
  -6   2  -7   45.20    8.50
  -6   2  -7   44.10    8.00
   6  -2   7   58.49   10.40
   6  -2   7   29.60    6.60
   6  -2   7   39.80    9.70
  -7   2  -7   39.20    7.30
  -7   2  -7   33.90    8.50
   7  -2   7   35.50    7.30
   7  -2   7   57.89   10.20
   7  -2   7   33.80    9.70
  -8   2  -7   30.30    6.10
  -8   2  -7   30.90    7.50
   8  -2   7   21.40    8.70
   8  -2   7   13.40   10.10
   8  -2   7   20.90    7.30
   8   1  -7   18.40   10.90
   8   1  -7   15.60    7.90
   8   1  -7    6.30    5.80
  -8  -1   7   -2.50    4.90
  -8  -1   7   12.90   12.80
  -8  -1   7    0.10    5.30
   7   1  -7   11.50    5.70
   7   1  -7   12.40    7.00
   7   1  -7    8.80    6.60
  -7  -1   7    6.30    4.50
  -7  -1   7   20.20    9.30
  -7  -1   7   -1.40    4.30
   6   1  -7   38.10    8.70
   6   1  -7   45.30    8.90
   6   1  -7   24.60    7.60
  -6  -1   7   33.10    5.60
  -6  -1   7   32.60    7.30
  -6  -1   7   40.80   10.50
   5   1  -7   49.90    9.30
   5   1  -7   35.30    7.60
   5   1  -7   36.30    7.10
  -5  -1   7   33.40    5.20
  -5  -1   7   36.90    6.90
  -5  -1   7   34.10   10.30
   4   1  -7  671.73   57.59
   4   1  -7  600.34   56.49
   4   1  -7  646.24   56.49
   4   1  -7  598.94   55.29
  -4  -1   7  639.84   54.69
  -4  -1   7  614.44   58.89
  -4  -1   7  596.64   55.49
   3   1  -7    4.50    3.10
   3   1  -7    0.70    3.60
   3   1  -7    0.50    2.60
  -3  -1   7   -0.80    3.20
  -3  -1   7    4.70    4.10
  -3  -1   7   -0.30    1.60
   2   1  -7  524.25   46.90
   2   1  -7  554.64   48.80
   2   1  -7  551.44   48.90
   2   1  -7  551.14   49.00
   2   1  -7  523.95   46.90
  -2  -1   7  532.85   49.90
  -2  -1   7  568.94   48.30
  -2  -1   7  536.85   47.30
   1   1  -7    3.00    2.10
   1   1  -7    1.50    2.40
   1   1  -7    1.20    1.10
   1   1  -7   -3.70    2.50
  -1  -1   7    5.50    3.90
  -1  -1   7    1.20    1.00
  -1  -1   7   -1.60    2.80
  -1  -1   7    6.20    2.70
   0   1  -7    7.80    2.10
   0   1  -7    8.30    3.20
   0   1  -7    7.00    1.20
   0   1  -7    5.20    2.50
   0   1  -7    7.20    3.20
   0  -1   7    6.20    1.30
   0  -1   7    9.70    2.90
   0  -1   7   10.10    4.70
   0  -1   7    9.80    5.60
  -1   1  -7  228.18   20.90
  -1   1  -7  197.78   19.90
  -1   1  -7  233.48   20.60
  -1   1  -7  229.38   21.90
   1  -1   7  215.38   21.80
   1  -1   7  228.88   19.60
   1  -1   7  213.58   23.70
   1  -1   7  227.28   20.50
  -2   1  -7  263.37   23.10
  -2   1  -7  252.87   23.50
  -2   1  -7  249.48   24.70
  -2   1  -7  277.47   23.70
   2  -1   7  236.48   25.20
   2  -1   7  252.97   23.50
   2  -1   7  235.08   27.90
  -3   1  -7   41.50    7.40
  -3   1  -7   46.90    5.50
  -3   1  -7   50.59    6.30
  -3   1  -7   48.90    5.90
   3  -1   7   39.00    5.70
   3  -1   7   37.40    9.70
   3  -1   7   31.70    6.90
  -4   1  -7   25.10    5.30
  -4   1  -7   32.20    5.10
  -4   1  -7   48.50    7.70
  -4   1  -7   42.90    5.20
   4  -1   7   44.70    5.50
   4  -1   7   31.90    8.10
   4  -1   7   19.30    8.10
   4  -1   7   40.70   10.70
  -5   1  -7    4.10    4.50
  -5   1  -7    2.50    3.40
  -5   1  -7    3.90    3.50
   5  -1   7    3.40    4.60
   5  -1   7    3.90    3.70
   5  -1   7    6.40    5.50
  -6   1  -7   58.39    9.10
  -6   1  -7   45.10    8.40
  -6   1  -7   53.59    7.10
   6  -1   7   76.19   12.10
   6  -1   7   37.60   10.80
   6  -1   7   53.59    7.70
  -7   1  -7    2.70    3.70
  -7   1  -7   -2.70    3.90
   7  -1   7    2.40    5.00
   7  -1   7    3.90    6.00
   7  -1   7   -2.90    8.40
   9   0  -7   -7.00    9.80
   9   0  -7    2.20    8.10
  -9   0   7    8.10    6.00
  -9   0   7   -0.10    5.70
  -9   0   7   -4.60   14.40
   8   0  -7   15.20    7.10
   8   0  -7   18.50    8.30
   8   0  -7   19.60    8.30
  -8   0   7   16.30    5.60
  -8   0   7    6.40    9.60
  -8   0   7   16.60    7.80
   7   0  -7    2.50    4.30
   7   0  -7    2.80    5.60
   7   0  -7   -0.60    7.60
  -7   0   7   -0.90    2.70
  -7   0   7   10.20   11.10
  -7   0   7   14.60    6.20
   6   0  -7    0.30    4.70
   6   0  -7    8.20    5.50
   6   0  -7    4.30    4.00
  -6   0   7    0.70    6.20
  -6   0   7    2.80    4.00
  -6   0   7    4.60    2.50
   5   0  -7   41.50    8.30
   5   0  -7   41.10    5.40
   5   0  -7   45.90    8.00
   5   0  -7   45.00    7.70
  -5   0   7   45.00    9.90
  -5   0   7   39.10    5.40
  -5   0   7   51.99    6.90
   4   0  -7   28.60    4.70
   4   0  -7   38.80    5.90
   4   0  -7   38.50    7.70
   4   0  -7   27.60    6.10
  -4   0   7   32.00    9.10
  -4   0   7   34.00    3.90
  -4   0   7   27.30    5.00
   3   0  -7   49.10    7.40
   3   0  -7   61.59    8.10
   3   0  -7   63.19    7.30
  -3   0   7   65.49   10.20
  -3   0   7   57.59    7.00
  -3   0   7   55.69    5.70
   2   0  -7   11.30    3.70
   2   0  -7   18.10    4.40
   2   0  -7    8.10    3.40
   2   0  -7   13.20    1.70
   2   0  -7   11.90    1.60
  -2   0   7   10.10    6.00
  -2   0   7    5.00    2.90
  -2   0   7    7.60    4.00
  -2   0   7    8.70    1.70
  -2   0   7   11.90    1.60
   1   0  -7  954.80   75.19
   1   0  -7  820.62   74.69
   1   0  -7  847.32   73.39
   1   0  -7  784.32   72.89
   1   0  -7  900.01   74.59
  -1   0   7  829.72   72.89
  -1   0   7  825.72   77.49
  -1   0   7  821.82   73.79
  -1   0   7  827.32   75.49
   0   0  -7  432.46   39.40
   0   0  -7  450.35   41.30
   0   0  -7  473.65   40.10
   0   0  -7  469.25   40.90
   0   0  -7  443.16   39.40
   0   0   7  464.95   40.20
   0   0   7  455.25   41.90
   0   0   7  456.85   44.30
  -1   0  -7   33.20    5.60
  -1   0  -7   35.70    3.60
  -1   0  -7   30.30    4.30
  -1   0  -7   35.50    5.20
   1   0   7   32.60    6.10
   1   0   7   35.80    4.40
   1   0   7   36.60   10.20
  -2   0  -7   25.40    4.20
  -2   0  -7   21.70    4.00
  -2   0  -7   17.90    2.70
  -2   0  -7   17.50    4.40
   2   0   7    3.00    8.40
   2   0   7   17.60    3.40
   2   0   7   14.50    4.90
  -3   0  -7   61.09    7.10
  -3   0  -7   66.99    8.80
  -3   0  -7   60.19    6.20
  -3   0  -7   55.49    7.10
   3   0   7   70.19    9.40
   3   0   7   49.20   11.40
   3   0   7   47.00    6.50
   3   0   7   23.40    9.90
  -4   0  -7    9.20    2.40
  -4   0  -7    6.90    4.20
  -4   0  -7   10.50    4.80
   4   0   7    9.80    8.90
   4   0   7    4.40    6.10
   4   0   7    4.30    6.20
   4   0   7    8.00    3.20
  -5   0  -7  286.87   24.40
  -5   0  -7  263.87   25.50
  -5   0  -7  245.08   25.10
   5   0   7  238.28   30.20
   5   0   7  270.17   27.80
   5   0   7  257.77   24.40
  -6   0  -7   46.00    6.40
  -6   0  -7   29.70    7.40
   6   0   7   26.20    9.60
   6   0   7   27.50   10.90
  -7   0  -7   19.10    7.50
  -7   0  -7   18.60    5.60
   7   0   7    1.10    8.10
   7   0   7   25.70   10.70
   9  -1  -7   15.10    8.20
   9  -1  -7   20.80   11.30
  -9   1   7   22.70   16.00
  -9   1   7   13.40    6.20
  -9   1   7   29.60    7.50
   8  -1  -7    2.80    6.30
   8  -1  -7    7.70    6.70
   8  -1  -7    3.90    5.20
  -8   1   7   -1.30    4.30
  -8   1   7   -0.40    6.90
  -8   1   7   -3.60    7.70
   7  -1  -7  108.59   13.90
   7  -1  -7   83.39   12.30
   7  -1  -7  111.99   15.20
  -7   1   7  124.69   11.60
  -7   1   7   85.69   12.90
  -7   1   7  109.29   18.80
   6  -1  -7  208.78   20.90
   6  -1  -7  188.38   20.50
   6  -1  -7  209.18   24.00
  -6   1   7  201.98   20.40
  -6   1   7  217.98   26.30
  -6   1   7  208.58   18.90
   5  -1  -7   46.10    7.30
   5  -1  -7   42.50    7.60
   5  -1  -7   48.00    5.90
   5  -1  -7   58.49    9.60
  -5   1   7   39.20    6.30
  -5   1   7   37.90    5.20
  -5   1   7   66.29   12.00
   4  -1  -7    3.70    4.00
   4  -1  -7    7.80    3.80
   4  -1  -7    4.70    2.90
  -4   1   7    0.60    5.90
  -4   1   7    5.50    2.80
  -4   1   7    5.20    1.10
  -4   1   7    5.80    1.70
  -4   1   7    6.10    0.90
   3  -1  -7  522.05   47.70
   3  -1  -7  525.95   48.40
   3  -1  -7  548.15   46.60
   3  -1  -7  572.94   48.20
  -3   1   7  566.24   51.29
  -3   1   7  481.25   46.50
  -3   1   7  530.05   46.50
  -3   1   7  542.05   49.99
  -3   1   7  553.54   47.60
   2  -1  -7   26.40    4.90
   2  -1  -7   20.00    4.00
   2  -1  -7   23.90    3.00
   2  -1  -7   28.20    5.60
  -2   1   7   24.60    6.60
  -2   1   7   22.30    3.80
  -2   1   7   32.00    9.00
   1  -1  -7 1086.49   96.79
   1  -1  -7 1140.19   96.59
   1  -1  -7 1063.49   95.59
  -1   1   7 1155.78   97.79
  -1   1   7 1110.69  100.59
  -1   1   7 1052.09   95.69
   0  -1  -7  108.89   10.70
   0  -1  -7  101.19    9.60
   0  -1  -7  114.89    9.60
   0  -1  -7  119.69   11.30
   0  -1  -7  122.69   11.90
   0   1   7  103.69   13.00
   0   1   7  105.79   16.30
   0   1   7  100.09   10.30
  -1  -1  -7   84.19    9.80
  -1  -1  -7   83.99    8.50
  -1  -1  -7   79.19    8.60
  -1  -1  -7   72.79    7.00
   1   1   7   71.29    7.60
   1   1   7   68.89    9.90
   1   1   7   88.59   16.00
  -2  -1  -7    3.40    3.10
  -2  -1  -7    6.50    3.60
  -2  -1  -7    2.40    4.00
  -2  -1  -7    4.00    1.80
   2   1   7    4.30    7.80
   2   1   7    3.80   10.00
   2   1   7    3.70    5.30
   2   1   7    7.40    2.30
  -3  -1  -7    1.00    4.00
  -3  -1  -7    1.10    2.20
  -3  -1  -7    0.50    3.10
  -3  -1  -7    0.40    3.50
   3   1   7    6.40    8.00
   3   1   7    1.80    2.10
   3   1   7    4.20    5.60
   3   1   7   10.70    9.80
  -4  -1  -7   40.90    5.70
  -4  -1  -7   50.09    7.40
  -4  -1  -7   42.20    7.60
   4   1   7   59.29   14.00
   4   1   7   51.19    8.70
   4   1   7   27.50   10.40
  -5  -1  -7  117.79   11.10
  -5  -1  -7   81.09   11.30
  -5  -1  -7   93.49   12.10
   5   1   7   92.09   17.50
   5   1   7   96.29   14.50
  -6  -1  -7    1.40    4.40
  -6  -1  -7    5.90    4.30
   6   1   7   -0.40    9.40
   6   1   7   -5.90    5.10
   9  -2  -7   59.49   13.50
   9  -2  -7   56.29   11.40
  -9   2   7   74.49   18.60
  -9   2   7   54.99    7.90
  -9   2   7   48.00    9.70
   8  -2  -7    7.60    5.50
   8  -2  -7    0.80    5.90
   8  -2  -7   -7.90    7.90
  -8   2   7    2.40    4.20
  -8   2   7    0.20    6.70
  -8   2   7    4.80    7.80
   7  -2  -7  146.89   17.10
   7  -2  -7  193.28   21.30
   7  -2  -7  137.09   17.70
  -7   2   7  160.18   17.90
  -7   2   7  159.88   15.70
  -7   2   7  187.08   24.50
   6  -2  -7  115.69   13.40
   6  -2  -7  109.89   13.80
   6  -2  -7  121.79   12.10
   6  -2  -7  124.89   15.70
  -6   2   7  155.88   18.80
  -6   2   7   96.89   11.40
  -6   2   7  109.59   13.00
   5  -2  -7   -2.50    5.10
   5  -2  -7    1.20    4.00
   5  -2  -7    1.70    3.00
   5  -2  -7   -1.60    3.90
  -5   2   7   -1.50    1.70
  -5   2   7    0.60    3.80
  -5   2   7   -4.90    6.30
  -5   2   7    3.40    2.00
   4  -2  -7    0.40    1.80
   4  -2  -7   -3.20    2.30
   4  -2  -7    1.90    2.80
   4  -2  -7   -0.40    2.90
  -4   2   7    1.50    1.30
  -4   2   7   -5.10    3.80
  -4   2   7    0.10    5.60
  -4   2   7    0.50    3.10
   3  -2  -7   25.40    5.10
   3  -2  -7   19.10    4.50
   3  -2  -7   28.10    3.40
   3  -2  -7   18.70    4.60
  -3   2   7   22.30    6.20
  -3   2   7   25.20    7.50
  -3   2   7   21.20    2.50
  -3   2   7   25.50    4.00
  -3   2   7   21.20    2.50
   2  -2  -7   20.20    5.60
   2  -2  -7   27.90    3.70
   2  -2  -7   21.50    5.00
   2  -2  -7   22.80    4.40
  -2   2   7   26.20    5.60
  -2   2   7   26.40    3.80
  -2   2   7   39.30   10.30
   1  -2  -7   78.89    9.70
   1  -2  -7   80.09    8.20
   1  -2  -7   73.79    9.20
  -1   2   7   75.09   14.70
  -1   2   7   78.99    7.60
  -1   2   7   79.09   10.70
   0  -2  -7  402.26   36.50
   0  -2  -7  399.46   34.50
   0  -2  -7  402.46   35.30
   0  -2  -7  420.36   36.40
   0   2   7  426.56   37.10
   0   2   7  358.36   34.80
   0   2   7  375.36   34.70
   0   2   7  442.96   42.60
  -1  -2  -7  201.18   16.50
  -1  -2  -7  187.78   18.00
  -1  -2  -7  188.58   18.30
  -1  -2  -7  192.18   17.30
   1   2   7  164.48   16.30
   1   2   7  151.28   24.20
   1   2   7  178.08   19.60
   1   2   7  170.68   25.50
  -2  -2  -7   31.90    5.80
  -2  -2  -7   31.90    5.40
  -2  -2  -7   29.30    3.90
  -2  -2  -7   40.60    5.80
   2   2   7   14.50    8.00
   2   2   7   31.30   12.70
   2   2   7   17.20    7.00
  -3  -2  -7  131.99   12.20
  -3  -2  -7  148.09   13.90
  -3  -2  -7  126.49   14.30
   3   2   7   99.39   15.00
   3   2   7   79.99   18.40
   3   2   7  111.29   20.90
  -4  -2  -7    5.20    5.20
  -4  -2  -7    3.60    3.30
  -4  -2  -7    7.10    5.10
   4   2   7   10.80   10.80
   4   2   7    1.00    9.60
   4   2   7   13.60    6.90
  -5  -2  -7   10.00    6.10
  -5  -2  -7    2.90    3.00
   5   2   7    2.30    7.20
   5   2   7    8.50    7.30
  -6  -2  -7   57.89    9.90
  -6  -2  -7   49.30    7.90
   6   2   7   58.49   12.40
   6   2   7   42.20   12.10
  10  -3  -7   -2.30   10.30
 -10   3   7   12.50    9.30
 -10   3   7   28.20   16.00
   9  -3  -7    6.20    5.10
   9  -3  -7    3.80    6.50
  -9   3   7    4.00    7.90
  -9   3   7   -7.90    4.40
  -9   3   7    3.90    9.60
   8  -3  -7    3.40    5.90
   8  -3  -7   -3.30    5.40
   8  -3  -7    0.50    4.70
  -8   3   7    7.50    3.30
  -8   3   7   11.60    5.30
  -8   3   7   -4.40   10.60
   7  -3  -7    1.50    3.30
   7  -3  -7   18.70    8.30
   7  -3  -7    9.20    4.40
  -7   3   7    3.60    4.40
  -7   3   7   -2.00    6.40
  -7   3   7   13.70    3.20
   6  -3  -7  164.68   16.60
   6  -3  -7  152.48   19.00
   6  -3  -7  138.59   15.80
   6  -3  -7  160.88   17.10
  -6   3   7  139.29   15.80
  -6   3   7  198.18   22.60
  -6   3   7  180.78   17.10
  -6   3   7  147.89   14.60
   5  -3  -7  232.78   21.20
   5  -3  -7  239.58   22.50
   5  -3  -7  245.58   23.70
   5  -3  -7  222.98   22.10
   5  -3  -7  255.87   24.90
  -5   3   7  240.28   22.60
  -5   3   7  278.27   28.50
  -5   3   7  180.48   22.90
  -5   3   7  312.87   27.40
  -5   3   7  218.28   21.20
   4  -3  -7   39.40    6.70
   4  -3  -7   40.70    6.90
   4  -3  -7   38.50    5.30
   4  -3  -7   48.60    6.70
  -4   3   7   46.20    9.70
  -4   3   7   45.50    5.00
  -4   3   7   36.00    9.70
  -4   3   7   37.30    5.90
   3  -3  -7  130.29   15.80
   3  -3  -7  148.09   14.60
   3  -3  -7  148.79   12.30
   3  -3  -7  153.18   14.80
   3  -3  -7  129.19   13.20
  -3   3   7  156.68   21.00
  -3   3   7  121.89   12.50
  -3   3   7  120.99   13.20
  -3   3   7  145.89   16.90
   2  -3  -7   60.69    6.70
   2  -3  -7   59.69    8.40
   2  -3  -7   65.19    5.60
   2  -3  -7   58.29    8.20
  -2   3   7   50.59    5.40
  -2   3   7   68.39    9.90
  -2   3   7   65.49    6.30
  -2   3   7   52.19   12.00
   1  -3  -7   14.80    4.30
   1  -3  -7   16.60    3.70
   1  -3  -7   18.70    5.30
   1  -3  -7   19.10    2.40
  -1   3   7   22.80    5.90
  -1   3   7   30.40   10.90
  -1   3   7   15.80    2.10
  -1   3   7   26.50   11.80
   0  -3  -7  454.55   36.80
   0  -3  -7  392.56   38.70
   0  -3  -7  411.96   37.60
   0  -3  -7  404.16   38.50
   0   3   7  437.46   44.60
   0   3   7  305.27   45.40
   0   3   7  446.16   39.10
  -1  -3  -7   66.69    7.00
  -1  -3  -7   72.99    8.40
  -1  -3  -7   79.79    9.90
  -1  -3  -7   68.59    9.80
   1   3   7   82.69   18.30
   1   3   7   49.30    8.90
   1   3   7   48.20   15.60
  -2  -3  -7  174.58   16.80
  -2  -3  -7  157.28   15.30
  -2  -3  -7  174.88   18.10
   2   3   7  154.08   24.40
   2   3   7  115.79   23.60
   2   3   7  174.68   18.80
  -3  -3  -7    4.90    4.70
  -3  -3  -7   11.20    3.30
  -3  -3  -7    2.20    5.40
   3   3   7    3.00   10.20
   3   3   7    6.90    7.80
   3   3   7    9.70    6.40
  -4  -3  -7    4.50    4.30
  -4  -3  -7   -3.40    5.20
  -4  -3  -7    5.90    3.70
   4   3   7   -3.40    9.50
   4   3   7   -0.80    6.70
  -5  -3  -7   10.00    5.00
  -5  -3  -7   15.20    4.10
   5   3   7   25.20   12.30
   5   3   7    8.60    8.60
  10  -4  -7    4.30    5.50
  10  -4  -7    1.80    7.80
 -10   4   7   11.50    9.20
 -10   4   7    4.70    6.00
 -10   4   7   16.80   11.80
   9  -4  -7   11.60    5.40
   9  -4  -7   26.80   10.70
   9  -4  -7    5.70    6.70
  -9   4   7    6.50   12.50
  -9   4   7   23.60    9.00
  -9   4   7   15.00    5.60
   8  -4  -7   19.20    7.60
   8  -4  -7    8.70    5.60
   8  -4  -7   -1.40    5.70
  -8   4   7   -6.10    9.70
  -8   4   7   -2.20    6.70
  -8   4   7   15.20    4.00
   7  -4  -7   13.90    7.70
   7  -4  -7    1.70    5.20
   7  -4  -7    3.30    5.10
   7  -4  -7    1.70    4.90
  -7   4   7    7.20    3.70
  -7   4   7   -4.90    5.30
  -7   4   7    6.70    9.30
   6  -4  -7  134.99   16.30
   6  -4  -7  129.09   15.30
   6  -4  -7  131.69   17.00
   6  -4  -7  138.69   15.60
   6  -4  -7  142.49   13.50
  -6   4   7  149.49   19.20
  -6   4   7  161.58   22.00
  -6   4   7  117.69   16.70
  -6   4   7  130.09   13.70
  -6   4   7  155.68   15.80
   5  -4  -7   83.29   11.00
   5  -4  -7   73.59   10.20
   5  -4  -7   89.49   11.90
   5  -4  -7   97.29    9.70
  -5   4   7   62.99   15.00
  -5   4   7  102.09   10.60
  -5   4   7   78.29    9.10
  -5   4   7   78.59   13.40
   4  -4  -7   18.90    3.10
   4  -4  -7   18.50    4.70
   4  -4  -7   14.70    4.00
   4  -4  -7   21.60    5.80
   4  -4  -7   12.40    5.70
  -4   4   7   15.70    3.50
  -4   4   7   18.20    3.80
  -4   4   7   26.80   10.40
  -4   4   7   16.70    5.80
   3  -4  -7   33.80    5.70
   3  -4  -7   40.70    7.40
   3  -4  -7   47.80    4.60
   3  -4  -7   47.70    7.60
  -3   4   7   38.60    4.90
  -3   4   7   26.70   14.10
  -3   4   7   42.70    8.10
  -3   4   7   38.60   12.70
   2  -4  -7   11.40    2.20
   2  -4  -7    8.80    5.00
   2  -4  -7    9.70    5.30
   2  -4  -7   10.40    3.80
  -2   4   7   11.60    4.60
  -2   4   7    3.80   11.00
  -2   4   7   -1.30    9.40
  -2   4   7   10.50    2.00
   1  -4  -7   70.79   10.30
   1  -4  -7   68.19    8.30
   1  -4  -7   75.79    9.80
   1  -4  -7   81.29    7.50
  -1   4   7   91.09   16.50
  -1   4   7   64.89   10.20
  -1   4   7   49.70   16.70
   0  -4  -7    7.00    4.20
   0  -4  -7    4.20    3.90
   0  -4  -7    0.60    5.10
   0  -4  -7    5.40    2.50
   0   4   7    0.10    7.80
   0   4   7    7.20    5.10
   0   4   7   -3.40   11.40
  -1  -4  -7   -1.20    4.10
  -1  -4  -7   -1.40    3.80
  -1  -4  -7   -4.10    2.50
   1   4   7   -3.00    3.30
   1   4   7  -13.70    6.50
   1   4   7    9.60   11.70
  -2  -4  -7    7.20    4.70
  -2  -4  -7    6.40    2.60
  -2  -4  -7    9.00    5.10
   2   4   7    1.80    8.00
   2   4   7    1.70   11.60
   2   4   7    5.90    4.20
  -3  -4  -7   11.70    4.50
  -3  -4  -7   15.00    7.50
   3   4   7    5.80   12.70
   3   4   7    5.90    6.50
   3   4   7   27.30   13.80
  -4  -4  -7   64.19    9.50
   4   4   7   71.79   18.30
  10  -5  -7   -4.20    4.30
  10  -5  -7  -10.50    6.40
 -10   5   7    7.80   10.10
 -10   5   7   -8.60    5.40
 -10   5   7   -3.00    6.00
   9  -5  -7   -3.60    6.40
   9  -5  -7   -0.70    5.90
   9  -5  -7    3.20    6.40
  -9   5   7   -5.00    8.00
  -9   5   7   -2.00    5.00
  -9   5   7    7.00    7.70
   8  -5  -7   23.20    7.00
   8  -5  -7   21.30    7.70
   8  -5  -7   22.70   10.40
  -8   5   7   26.00   12.10
  -8   5   7   28.30    5.80
  -8   5   7   29.70   12.20
  -8   5   7   18.40    7.80
   7  -5  -7   -4.00    5.30
   7  -5  -7    0.90    3.50
   7  -5  -7   -9.20    5.30
   7  -5  -7  -15.50    5.80
   7  -5  -7    4.30    4.30
  -7   5   7    0.10    6.30
  -7   5   7    9.40    6.20
  -7   5   7    9.50    9.40
  -7   5   7    2.20    5.40
  -7   5   7   -0.10    3.70
  -7   5   7    1.70    7.20
   6  -5  -7   23.00    7.10
   6  -5  -7   26.00    5.40
   6  -5  -7   27.50    6.30
   6  -5  -7   26.70    4.60
   6  -5  -7   19.90    6.90
  -6   5   7   30.30    6.50
  -6   5   7   33.10    9.70
  -6   5   7   31.30    9.20
  -6   5   7   30.60    5.30
  -6   5   7   23.00    7.90
   5  -5  -7   91.79   10.00
   5  -5  -7   89.79    8.60
   5  -5  -7   83.09   11.80
   5  -5  -7   76.49   11.30
   5  -5  -7   69.59   10.30
  -5   5   7   70.59   17.70
  -5   5   7   93.29   13.60
  -5   5   7   62.99   13.90
  -5   5   7   66.69    9.10
  -5   5   7   85.49    9.90
   4  -5  -7  129.79   12.20
   4  -5  -7  120.19   13.40
   4  -5  -7  138.19   15.40
   4  -5  -7  119.99   15.10
  -4   5   7  151.98   16.50
  -4   5   7  120.59   12.40
  -4   5   7  115.09   23.00
  -4   5   7  126.59   19.70
  -4   5   7  112.19   12.80
   3  -5  -7   35.70    7.80
   3  -5  -7   33.80    4.70
   3  -5  -7   27.00    6.20
   3  -5  -7   27.70    5.10
  -3   5   7   33.90    7.60
  -3   5   7   40.30   13.60
  -3   5   7   27.50   12.40
   2  -5  -7  236.28   19.70
   2  -5  -7  209.48   21.90
   2  -5  -7  190.58   20.40
   2  -5  -7  238.48   22.90
  -2   5   7  169.38   27.10
  -2   5   7  167.28   30.90
  -2   5   7  222.58   22.20
   1  -5  -7    1.00    3.10
   1  -5  -7    6.60    3.60
   1  -5  -7    6.40    6.50
   1  -5  -7    8.80    4.80
  -1   5   7   19.70   13.30
  -1   5   7   12.00    5.30
  -1   5   7   14.00   13.30
   0  -5  -7   22.10    6.30
   0  -5  -7   17.50    4.70
   0   5   7   18.50   13.90
   0   5   7   23.70    6.30
   0   5   7   36.90   15.80
  -1  -5  -7   40.50    7.40
  -1  -5  -7   41.00    9.40
   1   5   7   13.10   10.80
   1   5   7   45.60    8.30
   1   5   7   42.10   16.50
  -2  -5  -7    3.00    5.30
  -2  -5  -7    0.40    5.70
   2   5   7   -0.20   13.40
   2   5   7   -3.50   12.50
  -3  -5  -7   50.09   11.00
  -3  -5  -7   30.50    6.80
   3   5   7   13.40   11.40
   3   5   7   44.90   13.40
   9  -6  -7   15.90   10.20
   9  -6  -7    2.00    7.10
   9  -6  -7    9.30    7.10
  -9   6   7   18.00    6.20
  -9   6   7   12.70   12.20
  -9   6   7    1.80   11.80
  -9   6   7    9.10    8.10
  -9   6   7   12.10   15.10
   8  -6  -7   55.29   11.50
   8  -6  -7   55.79   10.50
   8  -6  -7   33.00    8.50
   8  -6  -7   49.60    9.50
  -8   6   7   31.50    7.10
  -8   6   7   10.60   15.70
  -8   6   7   24.30   12.40
  -8   6   7   43.70   14.10
  -8   6   7   46.60   13.70
  -8   6   7   49.20    9.80
   7  -6  -7    1.30    4.40
   7  -6  -7    3.20    4.00
   7  -6  -7    8.60    7.30
   7  -6  -7   11.50    6.50
   7  -6  -7    6.60    6.80
  -7   6   7    0.80    4.20
  -7   6   7   -8.50   12.90
  -7   6   7   19.10   11.30
  -7   6   7    2.50    7.10
  -7   6   7    6.80    8.60
  -7   6   7   -3.60    5.50
  -7   6   7   -1.80    8.70
   6  -6  -7    8.30    7.10
   6  -6  -7    9.00    5.30
   6  -6  -7   11.20    6.50
   6  -6  -7   16.00    4.20
   6  -6  -7   13.90    7.20
  -6   6   7   11.00    6.20
  -6   6   7   10.20   14.40
  -6   6   7   14.90    4.50
  -6   6   7    6.50    9.10
  -6   6   7   15.10    5.20
   5  -6  -7   41.10    7.30
   5  -6  -7   44.60    6.80
   5  -6  -7   30.00    7.30
   5  -6  -7   45.60    9.60
  -5   6   7   54.09    9.90
  -5   6   7   45.10   13.80
  -5   6   7   35.00   13.80
  -5   6   7   50.69    7.40
   4  -6  -7   14.70    5.50
   4  -6  -7   17.80    5.80
   4  -6  -7   14.40    7.20
  -4   6   7   12.30    5.10
  -4   6   7   20.30   12.40
  -4   6   7    1.20    9.80
   3  -6  -7   28.60    7.00
   3  -6  -7   28.20    6.40
   3  -6  -7   16.60    7.50
  -3   6   7   45.00   14.40
  -3   6   7   15.20   11.50
  -3   6   7   29.10    6.90
   2  -6  -7   22.30    6.90
   2  -6  -7   29.40    6.60
   2  -6  -7   22.80    8.20
  -2   6   7   44.10   16.20
  -2   6   7   35.30    6.70
  -2   6   7   18.60   14.30
   1  -6  -7   -1.70    3.70
   1  -6  -7   -2.70    4.80
  -1   6   7  -19.00   11.70
  -1   6   7    2.50    9.40
   0  -6  -7   16.10    8.70
   0  -6  -7    6.50    5.50
   0   6   7    7.20   10.80
   0   6   7   12.70   12.20
  -1  -6  -7   -0.10    8.10
  -1  -6  -7   -2.80    3.90
   1   6   7    6.30    9.70
   1   6   7   13.80   14.80
  -2  -6  -7   -4.80    8.20
  -2  -6  -7   -2.80    4.60
   2   6   7  -12.40    9.00
   2   6   7    6.10   14.80
   9  -7  -7   -4.90    8.20
   9  -7  -7   -5.10    4.90
   9  -7  -7    7.40    5.30
  -9   7   7    0.10    7.40
  -9   7   7    2.90    8.50
  -9   7   7    2.20   11.30
  -9   7   7    9.80   11.40
   8  -7  -7   28.20    8.50
   8  -7  -7   28.00    9.30
   8  -7  -7   49.30   11.10
   8  -7  -7   36.80   10.40
  -8   7   7   13.10   12.50
  -8   7   7   50.29   12.90
  -8   7   7   39.10   14.00
  -8   7   7   34.50   18.40
  -8   7   7   40.90    9.20
   7  -7  -7   49.30   10.20
   7  -7  -7   42.20    7.30
   7  -7  -7   42.70   10.80
   7  -7  -7   41.00    9.50
  -7   7   7   45.90   19.40
  -7   7   7   41.80   14.40
  -7   7   7   25.00    9.10
  -7   7   7   71.79   12.70
  -7   7   7   17.90   12.60
   6  -7  -7   -2.40    7.20
   6  -7  -7   17.40    8.30
   6  -7  -7    1.40    5.80
  -6   7   7   15.80    7.60
  -6   7   7  -14.30   13.50
  -6   7   7   11.00   10.70
  -6   7   7    0.80    9.70
   5  -7  -7    4.70    5.90
   5  -7  -7    7.50    5.80
   5  -7  -7    3.20    7.60
  -5   7   7  -10.60   10.10
  -5   7   7   -2.40    9.20
  -5   7   7    4.50    5.70
   4  -7  -7    0.10    7.10
   4  -7  -7    1.00    4.00
   4  -7  -7    4.50    7.60
  -4   7   7   10.90   12.60
  -4   7   7   -7.30   13.10
   3  -7  -7   13.00    6.00
   3  -7  -7    3.80    5.50
  -3   7   7    0.50    9.00
  -3   7   7  -12.30   12.30
   2  -7  -7    3.10    5.90
   2  -7  -7    7.20    4.50
  -2   7   7   -3.40   13.50
  -2   7   7    5.00   14.50
   1  -7  -7   75.99   12.10
   1  -7  -7   65.49    9.30
  -1   7   7   14.20   14.30
  -1   7   7  115.69   21.20
   0  -7  -7    9.10    9.80
   0  -7  -7    8.90    6.90
   0   7   7   -6.50   14.70
   0   7   7    8.50   16.30
   8  -8  -7   25.50    6.40
   8  -8  -7   17.00    7.50
   8  -8  -7   21.70   11.10
  -8   8   7   14.70   13.50
  -8   8   7    9.70   12.50
  -8   8   7   30.50   10.40
  -8   8   7   20.10   13.40
   7  -8  -7  108.49   12.90
   7  -8  -7  102.09   15.70
   7  -8  -7   73.79   13.50
  -7   8   7   50.79   14.70
  -7   8   7   26.00   15.90
  -7   8   7   87.29   25.30
  -7   8   7   96.29   19.30
   6  -8  -7   -3.40    6.70
   6  -8  -7    1.70    6.30
   6  -8  -7   -2.20    6.40
  -6   8   7    1.60    8.30
  -6   8   7    1.10    7.80
  -6   8   7   15.80   17.60
   5  -8  -7   24.00    8.30
   5  -8  -7   34.00    8.60
  -5   8   7   30.90   18.90
  -5   8   7    9.40    9.40
  -5   8   7   55.39   16.90
   4  -8  -7   -6.90    6.50
   4  -8  -7    2.60    5.90
  -4   8   7  -23.10   10.70
  -4   8   7   -2.80    8.00
  -4   8   7    3.00   11.40
   3  -8  -7   -2.20    4.60
   3  -8  -7    8.40    8.90
  -3   8   7    3.70   11.10
  -3   8   7  -13.70   13.10
  -3   8   7    3.60   15.40
   2  -8  -7   24.90   11.20
   2  -8  -7    7.20    7.80
  -2   8   7   66.79   19.20
  -2   8   7   26.80   19.50
  -2   8   7   12.50   14.10
   6  -9  -7    7.30   10.50
   6  -9  -7   -9.70    7.60
  -6   9   7   -9.00   10.20
  -6   9   7   -4.50   11.40
  -6   9   7   -3.80    8.10
   5  -9  -7   -1.40    6.60
   5  -9  -7    2.10    5.60
  -5   9   7    8.10   12.80
  -5   9   7   -9.20   15.10
  -5   9   7   -2.80   13.20
  -1   9  -8  -11.60    8.20
  -1   9  -8  -12.20   13.20
   1  -9   8   15.50    8.50
   1  -9   8   -6.80    6.50
  -2   9  -8   29.70   13.70
  -2   9  -8    3.60   12.80
  -2   9  -8   13.80   11.40
   2  -9   8    6.00    7.70
   2  -9   8    7.00    5.40
   2  -9   8   12.00    7.10
  -3   9  -8   57.09   22.10
  -3   9  -8   58.59   14.10
  -3   9  -8   62.99   16.80
   3  -9   8   51.19   10.00
   3  -9   8   55.69   10.80
   3  -9   8   48.80   10.50
  -4   9  -8   84.39   17.50
  -4   9  -8   65.69   19.50
  -4   9  -8  101.69   18.20
   4  -9   8   57.59   11.40
   4  -9   8   54.79    9.70
  -5   9  -8   -0.20   11.50
  -5   9  -8   31.20   12.60
   5  -9   8    3.30    7.80
   5  -9   8   16.50    8.80
  -6   9  -8   -2.80    7.50
  -6   9  -8   13.90   12.30
   6  -9   8   13.40    8.70
   6  -9   8   17.70    8.20
   1   8  -8  -11.10   11.90
   1   8  -8   20.30   14.30
  -1  -8   8   -2.40    6.50
  -1  -8   8    5.40    7.00
   0   8  -8   -7.50   10.40
   0   8  -8   -2.00    8.20
   0  -8   8    5.70    6.70
   0  -8   8   -3.00    6.60
  -1   8  -8   88.29   21.80
  -1   8  -8   68.19   15.90
  -1   8  -8  117.69   18.40
   1  -8   8   90.89   11.50
   1  -8   8   59.29   11.10
   1  -8   8   65.89   10.30
  -2   8  -8    4.70    7.20
  -2   8  -8    7.20    9.90
  -2   8  -8   -7.00   11.30
   2  -8   8   -7.70    3.30
   2  -8   8   -5.30    6.20
   2  -8   8   -2.90    4.20
  -3   8  -8  131.19   20.00
  -3   8  -8  124.89   19.20
  -3   8  -8  158.58   27.10
   3  -8   8   94.59   13.80
   3  -8   8  102.09   13.30
  -4   8  -8    7.20    7.20
  -4   8  -8   32.60   13.70
  -4   8  -8   29.90    8.70
   4  -8   8   23.30    8.20
   4  -8   8   28.30    7.60
  -5   8  -8    3.40    9.40
  -5   8  -8    4.60   12.70
   5  -8   8   -5.60    6.10
   5  -8   8   -8.40    6.90
  -6   8  -8    2.20    6.40
  -6   8  -8   11.60   13.10
   6  -8   8    8.10    7.40
   6  -8   8    7.70    6.70
  -7   8  -8  -10.10    6.50
  -7   8  -8   -0.20   12.40
  -7   8  -8   23.90   10.80
   7  -8   8   -3.60    4.40
   7  -8   8   -5.60    8.10
   7  -8   8   -6.20    7.80
   3   7  -8   19.00   10.90
  -3  -7   8   31.60    8.00
  -3  -7   8   21.80    7.80
   2   7  -8    9.90    8.90
   2   7  -8    2.70   11.40
  -2  -7   8    9.90    6.60
  -2  -7   8    1.00    6.30
   1   7  -8   33.80   13.70
   1   7  -8   40.20   14.20
  -1  -7   8   27.50    7.50
  -1  -7   8   23.90    7.30
   0   7  -8   39.40   11.30
   0   7  -8   21.40    9.20
   0   7  -8   14.60   12.40
   0  -7   8   14.10    4.90
   0  -7   8   10.20    4.90
   0  -7   8   21.00    6.60
  -1   7  -8   25.10   10.00
  -1   7  -8   58.79   15.90
  -1   7  -8   53.29   11.30
   1  -7   8   39.00    6.90
   1  -7   8   30.70    6.40
   1  -7   8   30.20    7.60
  -2   7  -8    2.40    6.90
  -2   7  -8    5.70    5.30
  -2   7  -8   -2.20    7.30
   2  -7   8   -3.60    5.30
   2  -7   8   -2.40    5.40
  -3   7  -8   20.30    8.40
  -3   7  -8   30.20   13.20
  -3   7  -8   12.60    8.60
   3  -7   8   18.40    6.60
   3  -7   8    8.00    6.00
  -4   7  -8  150.38   18.00
  -4   7  -8  151.78   24.20
  -4   7  -8  152.88   19.50
   4  -7   8  117.09   15.00
   4  -7   8  134.59   16.00
   4  -7   8  126.69   15.70
  -5   7  -8  232.48   24.30
  -5   7  -8  217.58   28.40
   5  -7   8  184.68   19.90
   5  -7   8  173.08   20.10
   5  -7   8  198.28   21.40
  -6   7  -8   34.30   11.40
  -6   7  -8   38.40   11.00
  -6   7  -8   35.70   11.30
   6  -7   8   24.20    8.50
   6  -7   8   26.70    8.70
   6  -7   8   23.60    7.00
  -7   7  -8   93.79   15.40
  -7   7  -8   77.09   15.90
  -7   7  -8   86.29   13.60
   7  -7   8   61.59   10.30
   7  -7   8   68.09   12.10
   7  -7   8   68.69   11.70
  -8   7  -8   -4.60    8.40
  -8   7  -8   -6.30    9.70
  -8   7  -8   -0.90    9.20
   8  -7   8   -0.50    5.40
   8  -7   8    0.40    6.50
   8  -7   8   -7.40    8.10
   4   6  -8    8.10   11.90
   4   6  -8    7.30    8.30
  -4  -6   8   -3.30    5.90
  -4  -6   8    2.20    6.60
   3   6  -8   14.00   11.50
   3   6  -8    5.30    5.60
  -3  -6   8   10.00    6.50
  -3  -6   8    5.50    4.20
   2   6  -8  138.79   21.10
   2   6  -8  166.38   23.10
   2   6  -8  187.88   18.80
  -2  -6   8  161.08   16.30
  -2  -6   8  113.09   16.00
   1   6  -8  195.48   18.20
   1   6  -8  187.48   24.60
   1   6  -8  165.18   24.10
  -1  -6   8  140.89   17.10
  -1  -6   8  168.58   17.00
   0   6  -8   63.19   13.00
   0   6  -8   53.49   10.70
   0   6  -8   58.89   14.70
   0  -6   8   45.20    8.00
   0  -6   8   53.89    8.80
   0  -6   8   61.09    7.50
  -1   6  -8  360.46   35.80
  -1   6  -8  392.66   40.30
  -1   6  -8  400.46   37.50
   1  -6   8  347.07   33.20
   1  -6   8  330.17   33.30
   1  -6   8  351.36   32.80
  -2   6  -8   25.60    9.00
  -2   6  -8   39.20    8.70
  -2   6  -8   19.40    7.90
   2  -6   8   16.00    6.00
   2  -6   8   25.60    6.30
   2  -6   8   17.50    5.70
  -3   6  -8    8.50    9.30
  -3   6  -8    8.50    6.20
  -3   6  -8    8.00    5.70
   3  -6   8    4.30    4.90
   3  -6   8    4.30    4.70
   3  -6   8    1.60    5.10
  -4   6  -8  264.07   25.20
  -4   6  -8  243.98   23.20
  -4   6  -8  230.68   27.20
   4  -6   8  207.58   23.10
   4  -6   8  220.38   23.60
   4  -6   8  211.68   21.60
  -5   6  -8   36.40    8.60
  -5   6  -8   26.00   11.10
  -5   6  -8   26.00    9.30
   5  -6   8   42.50    6.90
   5  -6   8   41.10    8.20
   5  -6   8   36.50    8.50
  -6   6  -8   38.80   12.10
  -6   6  -8   31.70    8.30
  -6   6  -8   22.40    8.90
   6  -6   8   17.00    7.40
   6  -6   8   30.40    8.80
   6  -6   8   26.70    5.40
  -7   6  -8   43.00    9.60
  -7   6  -8   62.09   14.40
  -7   6  -8   86.59   11.80
   7  -6   8   58.09   10.60
   7  -6   8   45.80    7.50
   7  -6   8   48.60    8.90
  -8   6  -8   24.70   11.00
  -8   6  -8    4.50    8.40
  -8   6  -8   25.50    9.50
   8  -6   8   32.50    9.10
   8  -6   8   17.10    6.70
   8  -6   8    7.70    9.80
   5   5  -8    5.50    8.90
   5   5  -8    8.30   10.90
  -5  -5   8    2.70    4.30
  -5  -5   8    9.50    6.80
   4   5  -8   14.80    8.00
   4   5  -8   -3.20    9.80
  -4  -5   8    4.70    5.60
  -4  -5   8    0.60    4.40
   3   5  -8   53.29   12.00
   3   5  -8   42.60   10.90
   3   5  -8   57.69   10.30
  -3  -5   8   49.60    8.70
  -3  -5   8   49.10    7.80
   2   5  -8  160.78   21.00
   2   5  -8  180.98   22.20
   2   5  -8  172.28   17.40
  -2  -5   8  147.89   17.40
  -2  -5   8  133.69   15.10
  -2  -5   8  145.49   16.50
   1   5  -8   26.60    6.10
   1   5  -8    9.10    5.80
   1   5  -8   30.70    9.40
   1   5  -8   31.20    9.50
  -1  -5   8    8.10    5.40
  -1  -5   8   19.70    5.60
  -1  -5   8    8.70    4.80
  -1  -5   8   18.90    3.60
   0   5  -8   43.20    7.80
   0   5  -8   38.10   10.50
   0   5  -8   45.50    9.90
   0   5  -8   37.80    5.70
   0  -5   8   24.00    6.10
   0  -5   8   29.40    5.00
   0  -5   8   31.70    5.90
  -1   5  -8   12.40    5.70
  -1   5  -8   24.70    4.30
  -1   5  -8   34.40    8.20
  -1   5  -8   24.20    9.30
   1  -5   8   23.30    5.00
   1  -5   8   19.10    6.20
   1  -5   8   38.70    6.60
   1  -5   8   29.00    6.20
  -2   5  -8   64.09   12.60
  -2   5  -8   61.59    9.10
  -2   5  -8   67.09    9.60
   2  -5   8   48.00    8.40
   2  -5   8   53.09    7.90
   2  -5   8   36.20    6.80
  -3   5  -8   48.00    9.10
  -3   5  -8   57.89   12.40
  -3   5  -8   58.79    8.80
   3  -5   8   57.99    7.10
   3  -5   8   70.19    9.00
   3  -5   8   46.20    8.20
  -4   5  -8   14.10    4.80
  -4   5  -8    2.50    5.70
  -4   5  -8   21.50    5.50
   4  -5   8    5.80    3.90
   4  -5   8    2.60    4.40
   4  -5   8   21.60    6.30
  -5   5  -8   30.40    7.80
  -5   5  -8   29.60    7.80
  -5   5  -8   27.10    9.90
   5  -5   8   10.50    7.10
   5  -5   8   30.90    5.30
   5  -5   8   12.00    6.30
  -6   5  -8   39.90    8.30
  -6   5  -8   67.59   10.40
  -6   5  -8   33.80    9.20
   6  -5   8   35.30    7.50
   6  -5   8   44.90   10.10
   6  -5   8   39.30    6.70
  -7   5  -8   58.79   10.10
  -7   5  -8   70.59   13.00
  -7   5  -8   49.90   10.70
   7  -5   8   54.09   12.10
   7  -5   8   58.19    8.50
   7  -5   8   42.90    9.80
  -8   5  -8  145.59   17.80
  -8   5  -8  118.79   15.30
  -8   5  -8   92.19   16.90
   8  -5   8  123.79   15.60
   8  -5   8  128.99   17.70
   6   4  -8   20.10   11.70
   6   4  -8   17.30    9.70
  -6  -4   8   10.10    4.60
  -6  -4   8   17.70    7.80
   5   4  -8    9.10    7.30
   5   4  -8   18.20    8.70
  -5  -4   8    5.30    3.90
  -5  -4   8    9.40    8.90
  -5  -4   8   27.80    7.30
   4   4  -8  116.89   16.10
   4   4  -8  155.18   19.70
  -4  -4   8   93.99   16.00
  -4  -4   8  142.09   14.70
  -4  -4   8  118.09   13.40
   3   4  -8  133.69   17.10
   3   4  -8  136.79   18.40
   3   4  -8  154.88   16.20
  -3  -4   8  127.69   16.50
  -3  -4   8  120.89   13.40
  -3  -4   8  104.89   14.00
   2   4  -8  223.78   21.70
   2   4  -8  196.08   22.30
   2   4  -8  217.48   19.90
  -2  -4   8  166.78   17.90
  -2  -4   8  179.98   20.50
  -2  -4   8  178.78   18.80
   1   4  -8   70.59    9.10
   1   4  -8   85.69   12.20
   1   4  -8   75.89   12.80
   1   4  -8   69.09    9.00
  -1  -4   8   64.29   10.10
  -1  -4   8   73.69    8.40
  -1  -4   8   57.99    8.80
   0   4  -8  340.57   32.30
   0   4  -8  346.57   30.20
   0   4  -8  357.76   34.10
   0   4  -8  325.27   30.60
   0  -4   8  300.17   31.20
   0  -4   8  309.97   29.80
   0  -4   8  323.67   30.30
  -1   4  -8  159.98   19.30
  -1   4  -8  148.49   14.80
  -1   4  -8  166.28   15.50
   1  -4   8  138.59   15.70
   1  -4   8  114.69   16.10
   1  -4   8  128.49   13.50
   1  -4   8  132.09   14.70
  -2   4  -8  785.02   68.59
  -2   4  -8  796.42   68.59
  -2   4  -8  797.12   71.29
   2  -4   8  703.33   67.19
   2  -4   8  746.83   68.99
   2  -4   8  770.82   67.99
  -3   4  -8   10.30    3.80
  -3   4  -8   16.20    5.30
  -3   4  -8   16.40    6.00
   3  -4   8   14.80    5.10
   3  -4   8   12.10    3.40
   3  -4   8   10.30    5.40
   3  -4   8   11.20    5.70
  -4   4  -8  214.88   18.60
  -4   4  -8  196.68   22.50
  -4   4  -8  202.18   19.70
  -4   4  -8  212.58   20.50
   4  -4   8  183.78   18.10
   4  -4   8  170.48   21.00
   4  -4   8  162.58   18.80
  -5   4  -8   70.39   10.20
  -5   4  -8   65.69   12.00
  -5   4  -8   71.59    9.30
   5  -4   8   53.69    9.00
   5  -4   8   66.49   10.40
   5  -4   8   48.50    6.80
  -6   4  -8    6.00    5.70
  -6   4  -8    2.00    6.90
  -6   4  -8    2.00    6.00
   6  -4   8   17.80    7.70
   6  -4   8    8.90    4.50
  -7   4  -8   32.90    8.30
  -7   4  -8   56.99   10.40
  -7   4  -8   53.39   11.00
   7  -4   8   42.20   11.30
   7  -4   8   49.40    9.30
  -8   4  -8   13.80    7.20
  -8   4  -8   20.20    8.60
   8  -4   8   11.10    7.60
   8  -4   8   22.10    8.20
   7   3  -8   22.20   11.00
   7   3  -8   27.90    9.40
   7   3  -8   23.60    8.50
  -7  -3   8   17.50   10.50
  -7  -3   8   29.20    7.00
  -7  -3   8   19.70    8.50
   6   3  -8  114.39   15.50
   6   3  -8  139.59   17.30
   6   3  -8  127.29   17.10
  -6  -3   8   84.19   16.00
  -6  -3   8   86.59   13.40
  -6  -3   8  101.09   12.20
   5   3  -8   13.20    7.50
   5   3  -8    7.10    6.20
   5   3  -8   19.80    6.50
  -5  -3   8    8.60    4.60
  -5  -3   8    9.10    8.80
  -5  -3   8   24.60    6.80
   4   3  -8  168.38   20.10
   4   3  -8  166.98   17.20
   4   3  -8  183.58   18.40
  -4  -3   8  144.89   15.30
  -4  -3   8  146.49   19.70
  -4  -3   8  131.39   16.50
   3   3  -8   26.40    7.80
   3   3  -8   25.20    6.30
   3   3  -8   29.10    6.60
  -3  -3   8   15.00    5.90
  -3  -3   8   17.90    4.20
  -3  -3   8   24.00    5.70
   2   3  -8    1.20    4.60
   2   3  -8    4.90    1.90
   2   3  -8    2.10    4.10
   2   3  -8    9.10    5.80
  -2  -3   8    0.10    4.00
  -2  -3   8    6.20    4.30
  -2  -3   8    2.80    2.80
   1   3  -8  240.18   23.80
   1   3  -8  243.28   21.30
   1   3  -8  234.78   22.30
   1   3  -8  217.08   23.70
  -1  -3   8  241.48   22.10
  -1  -3   8  202.78   22.90
  -1  -3   8  231.18   21.30
   0   3  -8    3.40    2.40
   0   3  -8    0.20    3.60
   0   3  -8    0.00    2.70
   0   3  -8    0.30    3.80
   0  -3   8   -1.90    4.30
   0  -3   8   -1.10    2.10
   0  -3   8    3.70    5.00
   0  -3   8    3.90    3.70
  -1   3  -8   72.09   11.10
  -1   3  -8   72.69    9.10
  -1   3  -8   68.69    8.10
   1  -3   8   64.09    7.00
   1  -3   8   65.59    9.10
   1  -3   8   43.30    9.60
   1  -3   8   59.49    7.80
  -2   3  -8   88.09   10.40
  -2   3  -8   85.39    9.60
  -2   3  -8   84.19   12.60
   2  -3   8   89.19   12.10
   2  -3   8   79.19   12.70
   2  -3   8   91.99   10.30
   2  -3   8   94.59    9.00
  -3   3  -8  177.48   18.10
  -3   3  -8  160.28   15.50
  -3   3  -8  168.78   16.50
  -3   3  -8  168.38   16.40
   3  -3   8  148.99   16.90
   3  -3   8  153.88   14.70
   3  -3   8  120.49   18.20
   3  -3   8  152.98   15.60
  -4   3  -8   22.50    5.70
  -4   3  -8    4.70    6.20
  -4   3  -8   11.90    3.80
  -4   3  -8   19.40    3.50
   4  -3   8   19.20    6.80
   4  -3   8   19.40    3.20
   4  -3   8   19.30    5.30
   4  -3   8   12.30    6.30
  -5   3  -8   -5.60    2.90
  -5   3  -8    5.10    4.60
  -5   3  -8    0.40    4.20
   5  -3   8    2.60    4.70
   5  -3   8    8.80    5.40
   5  -3   8    5.40    3.70
  -6   3  -8   21.60    4.80
  -6   3  -8   17.40    5.30
  -6   3  -8   12.90    7.00
   6  -3   8   18.10    7.40
   6  -3   8   12.20    7.40
   6  -3   8    9.80    5.70
  -7   3  -8    6.30    6.50
  -7   3  -8    2.90    4.60
  -7   3  -8    5.60    4.20
   7  -3   8    3.10    8.10
   7  -3   8    6.00    5.90
  -8   3  -8    2.90    7.80
  -8   3  -8    7.10    6.30
   8  -3   8    2.70    6.70
   8  -3   8   18.90    7.20
   7   2  -8    3.20    6.40
   7   2  -8    4.50    6.10
   7   2  -8    0.10    8.00
  -7  -2   8   11.90    8.80
  -7  -2   8   11.70    5.20
  -7  -2   8   10.30    7.10
   6   2  -8    2.30    4.90
   6   2  -8    2.50    7.00
   6   2  -8   -8.00    4.20
  -6  -2   8   -0.20    2.80
  -6  -2   8    0.50    4.20
  -6  -2   8    3.80    7.30
   5   2  -8    1.90    6.10
   5   2  -8    4.10    6.90
   5   2  -8    5.00    4.20
  -5  -2   8    0.40    8.10
  -5  -2   8    2.50    3.90
  -5  -2   8    2.90    2.40
   4   2  -8    5.70    3.80
   4   2  -8   -3.50    4.60
   4   2  -8   13.90    6.40
  -4  -2   8    5.70    2.40
  -4  -2   8    2.80    4.40
  -4  -2   8    1.50    7.10
   3   2  -8  298.77   28.60
   3   2  -8  299.27   27.80
   3   2  -8  301.17   27.80
  -3  -2   8  218.98   29.20
  -3  -2   8  272.27   26.70
  -3  -2   8  298.07   25.90
   2   2  -8  316.77   29.20
   2   2  -8  317.07   28.20
   2   2  -8  312.07   26.20
   2   2  -8  310.67   28.90
   2   2  -8  251.87   26.30
  -2  -2   8  288.97   29.40
  -2  -2   8  316.47   26.90
  -2  -2   8  313.67   28.00
   1   2  -8  146.09   14.20
   1   2  -8  127.29   12.40
   1   2  -8  118.99   15.00
   1   2  -8  143.59   14.30
  -1  -2   8  136.59   13.70
  -1  -2   8  131.89   17.90
  -1  -2   8  132.59   12.40
  -1  -2   8  134.09   15.60
   0   2  -8   65.59    6.90
   0   2  -8   59.69    9.50
   0   2  -8   77.49    8.60
   0   2  -8   66.69    8.50
   0  -2   8   61.39    7.50
   0  -2   8   61.69    6.30
   0  -2   8   43.30   10.40
   0  -2   8   53.59    9.10
  -1   2  -8  241.98   23.40
  -1   2  -8  234.38   21.50
  -1   2  -8  236.78   22.00
   1  -2   8  225.28   20.60
   1  -2   8  229.38   21.50
   1  -2   8  179.28   23.80
   1  -2   8  262.77   23.70
  -2   2  -8   76.29    8.40
  -2   2  -8   71.49    8.20
  -2   2  -8   82.19   11.10
  -2   2  -8   65.69    8.40
   2  -2   8   77.29   12.70
   2  -2   8   64.89   10.30
   2  -2   8   67.69    8.30
   2  -2   8   66.39    6.90
  -3   2  -8  394.76   37.80
  -3   2  -8  405.86   36.20
  -3   2  -8  403.66   35.50
  -3   2  -8  420.16   35.60
   3  -2   8  382.46   34.80
   3  -2   8  329.37   39.10
   3  -2   8  397.36   35.90
   3  -2   8  375.66   37.60
  -4   2  -8   65.89   10.80
  -4   2  -8   74.29    7.80
  -4   2  -8   68.89    8.40
  -4   2  -8   77.89    9.30
   4  -2   8   78.59   11.70
   4  -2   8   65.19   12.50
   4  -2   8   62.89    8.80
  -5   2  -8  106.99   13.10
  -5   2  -8   83.09    9.90
  -5   2  -8   73.39   10.90
   5  -2   8   90.19   13.50
   5  -2   8   86.99   10.50
   5  -2   8   65.69   13.20
  -6   2  -8   34.30    8.10
  -6   2  -8   40.50    7.90
  -6   2  -8   32.80    5.40
   6  -2   8   21.40    6.00
   6  -2   8   24.90    9.00
   6  -2   8   24.60    8.90
  -7   2  -8   -0.30    5.00
  -7   2  -8   -3.50    6.30
   7  -2   8    3.40    5.40
   7  -2   8   16.20    8.00
   7  -2   8   12.10    7.10
   8   1  -8   28.60    9.70
   8   1  -8   41.70    9.30
   8   1  -8   40.70   13.50
  -8  -1   8   17.40   14.30
  -8  -1   8   24.00    8.90
  -8  -1   8   38.90    7.40
   7   1  -8   34.30   11.00
   7   1  -8   45.50    9.80
   7   1  -8   36.00    9.70
  -7  -1   8   50.89   14.60
  -7  -1   8   41.60    6.50
  -7  -1   8   20.70    8.30
   6   1  -8    1.20    4.10
   6   1  -8    8.40    4.90
   6   1  -8   22.00    8.40
  -6  -1   8   -6.70    8.30
  -6  -1   8    8.50    3.90
  -6  -1   8   -3.10    3.50
   5   1  -8   84.79   11.70
   5   1  -8  112.69   14.30
   5   1  -8   86.49   12.10
  -5  -1   8   58.39   14.30
  -5  -1   8   82.79    9.20
  -5  -1   8   89.79   10.50
   4   1  -8   10.20    4.30
   4   1  -8    6.80    3.50
   4   1  -8    9.90    5.20
  -4  -1   8   11.90    2.70
  -4  -1   8   12.70    3.90
  -4  -1   8    4.10    5.30
   3   1  -8  790.82   71.19
   3   1  -8  828.12   71.69
   3   1  -8  842.82   71.59
  -3  -1   8  799.32   73.49
  -3  -1   8  762.72   69.69
  -3  -1   8  776.92   70.79
   2   1  -8   80.99    7.50
   2   1  -8   85.29    9.90
   2   1  -8   85.79   10.60
   2   1  -8   95.59   10.80
  -2  -1   8   84.79    9.60
  -2  -1   8   86.69   12.30
  -2  -1   8   79.39    7.90
   1   1  -8  319.37   29.00
   1   1  -8  325.67   29.60
   1   1  -8  317.17   27.30
   1   1  -8  327.07   29.00
  -1  -1   8  300.37   28.20
  -1  -1   8  276.27   27.10
  -1  -1   8  317.07   32.10
  -1  -1   8  312.07   30.30
   0   1  -8    3.70    3.40
   0   1  -8    0.00    3.70
   0   1  -8    4.00    2.10
   0   1  -8    1.50    1.00
   0  -1   8   -0.70    2.70
   0  -1   8    1.20    0.90
   0  -1   8    2.10    4.40
   0  -1   8    5.20    6.30
  -1   1  -8    3.40    2.60
  -1   1  -8    5.00    1.80
  -1   1  -8    4.90    2.40
  -1   1  -8    5.90    4.40
   1  -1   8    3.80    2.10
   1  -1   8    2.90    1.30
   1  -1   8    6.10    3.90
   1  -1   8   -2.20    6.80
  -2   1  -8  104.39   11.00
  -2   1  -8  119.29   13.20
  -2   1  -8  103.89   10.20
  -2   1  -8  107.49   11.40
   2  -1   8   96.59   13.40
   2  -1   8  102.29   11.00
   2  -1   8   93.09   16.60
  -3   1  -8    9.90    2.80
  -3   1  -8    9.90    3.30
  -3   1  -8    8.80    4.20
  -3   1  -8   13.50    4.30
   3  -1   8   14.20    5.00
   3  -1   8   14.30    3.80
   3  -1   8    6.60    8.70
  -4   1  -8   17.00    3.70
  -4   1  -8   12.50    4.00
  -4   1  -8   23.00    6.40
   4  -1   8   14.90    7.20
   4  -1   8   19.00    9.10
   4  -1   8   14.50    4.30
  -5   1  -8    0.70    4.70
  -5   1  -8   -0.30    3.40
  -5   1  -8   -6.40    3.00
   5  -1   8    5.40    3.90
   5  -1   8   10.60    8.00
   5  -1   8   -3.60    4.40
  -6   1  -8   41.60    8.40
  -6   1  -8   37.50    8.30
  -6   1  -8   45.70    6.20
   6  -1   8   41.60   11.40
   6  -1   8   49.80   11.30
   6  -1   8   39.00    7.00
  -7   1  -8   45.80    9.00
  -7   1  -8   43.20    7.20
   7  -1   8   18.00    8.20
   7  -1   8   27.50   11.00
   8   0  -8    3.70    6.60
   8   0  -8   -2.40    7.10
   8   0  -8    6.00   10.10
  -8   0   8   16.90    7.40
  -8   0   8   -1.40   11.90
  -8   0   8    2.00    3.40
   7   0  -8    5.40    6.50
   7   0  -8    2.20    4.30
   7   0  -8    0.40    6.40
  -7   0   8    8.80    6.40
  -7   0   8   -1.80    3.60
  -7   0   8    7.90    7.90
   6   0  -8   -8.90    4.90
   6   0  -8   -6.30    6.00
   6   0  -8   -2.90    5.10
  -6   0   8   10.40    9.50
  -6   0   8   -1.00    2.90
  -6   0   8   -1.10    3.40
   5   0  -8   18.10    7.30
   5   0  -8    3.00    5.20
   5   0  -8   -5.70    4.50
   5   0  -8    8.20    3.10
  -5   0   8   12.60    8.80
  -5   0   8    4.30    2.50
  -5   0   8    1.60    4.60
   4   0  -8   21.60    5.20
   4   0  -8   27.00    4.80
   4   0  -8   22.50    5.80
  -4   0   8   27.60    3.50
  -4   0   8   20.70    5.20
  -4   0   8   24.10    8.70
   3   0  -8   24.00    4.80
   3   0  -8   14.20    4.20
   3   0  -8   15.70    4.40
  -3   0   8   23.80    7.60
  -3   0   8   18.60    2.50
  -3   0   8   21.60    4.50
   2   0  -8  106.49   11.00
   2   0  -8   99.19    8.70
   2   0  -8   98.79   11.00
   2   0  -8   88.09    8.50
   2   0  -8  102.99   10.60
  -2   0   8  112.99   15.50
  -2   0   8   94.39   10.20
  -2   0   8   84.39    8.50
  -2   0   8  121.29   13.90
   1   0  -8   29.50    5.50
   1   0  -8   25.30    5.20
   1   0  -8   22.60    4.80
   1   0  -8   27.40    3.40
  -1   0   8   27.00    3.90
  -1   0   8   30.60    8.20
  -1   0   8   22.60    6.50
   0   0  -8  494.45   42.70
   0   0  -8  472.75   42.10
   0   0  -8  442.26   40.20
   0   0  -8  487.85   41.20
   0   0  -8  446.96   40.20
   0   0   8  442.86   45.80
   0   0   8  470.75   41.30
   0   0   8  476.85   43.40
  -1   0  -8  512.55   45.10
  -1   0  -8  496.85   45.90
  -1   0  -8  506.65   44.60
  -1   0  -8  495.75   43.60
   1   0   8  494.65   46.60
   1   0   8  490.95   44.30
   1   0   8  500.95   50.39
  -2   0  -8   89.59   10.80
  -2   0  -8   77.29    7.60
  -2   0  -8   68.89    8.80
  -2   0  -8   70.99    8.50
   2   0   8   81.29   11.50
   2   0   8   73.59    8.30
   2   0   8   87.59   16.30
  -3   0  -8   32.00    5.80
  -3   0  -8   39.60    7.00
  -3   0  -8   48.40    6.30
  -3   0  -8   41.10    5.20
   3   0   8   41.30   13.00
   3   0   8   47.00    5.70
   3   0   8   37.70    8.70
   3   0   8   36.50   10.60
  -4   0  -8  230.08   20.80
  -4   0  -8  211.78   19.20
  -4   0  -8  200.48   20.70
   4   0   8  189.88   19.30
   4   0   8  212.68   26.80
   4   0   8  193.88   23.10
  -5   0  -8   -1.50    5.00
  -5   0  -8   -1.30    3.30
  -5   0  -8    3.30    3.90
   5   0   8    8.20    6.70
   5   0   8   -7.70    6.50
  -6   0  -8  116.39   13.10
  -6   0  -8   90.49   11.50
   6   0   8  128.39   17.20
   6   0   8   92.89   18.20
   9  -1  -8    7.60    6.00
   9  -1  -8  -13.50   10.40
  -9   1   8   10.50   13.80
  -9   1   8   -7.70    7.40
  -9   1   8    5.80    5.30
   8  -1  -8   51.99   10.50
   8  -1  -8   42.70    8.20
   8  -1  -8   65.69   14.20
  -8   1   8   65.49   10.60
  -8   1   8   69.19   17.50
  -8   1   8   46.20    7.50
   7  -1  -8   75.59   11.50
   7  -1  -8   65.09   10.10
   7  -1  -8   99.49   14.90
  -7   1   8   60.99   10.40
  -7   1   8   58.09    8.10
  -7   1   8   69.29   15.60
   6  -1  -8  155.18   17.50
   6  -1  -8  112.89   14.30
   6  -1  -8  118.99   14.90
  -6   1   8  140.99   14.70
  -6   1   8  139.89   19.00
  -6   1   8  106.49   12.10
   5  -1  -8  115.09   13.50
   5  -1  -8  114.09   11.40
   5  -1  -8  115.59   15.10
   5  -1  -8  102.59   12.80
  -5   1   8   96.29   10.40
  -5   1   8  109.49   12.60
  -5   1   8  128.49   17.70
   4  -1  -8  108.19   10.50
   4  -1  -8   74.49    8.80
   4  -1  -8   79.29   10.20
  -4   1   8   91.99   13.80
  -4   1   8   68.09    7.50
  -4   1   8   96.99    9.90
   3  -1  -8    7.00    4.10
   3  -1  -8   17.50    5.30
   3  -1  -8    2.70    1.40
   3  -1  -8    4.20    1.70
   3  -1  -8    1.40    2.40
  -3   1   8    3.30    3.10
  -3   1   8    3.20    5.70
  -3   1   8    1.50    1.00
  -3   1   8   -2.10    6.20
  -3   1   8    2.20    1.10
   2  -1  -8  332.77   31.30
   2  -1  -8  313.17   28.90
   2  -1  -8  321.87   30.40
   2  -1  -8  314.97   30.40
  -2   1   8  331.27   29.50
  -2   1   8  355.86   35.30
  -2   1   8  354.36   32.40
   1  -1  -8    2.00    2.80
   1  -1  -8    0.00    1.80
   1  -1  -8    1.70    2.60
  -1   1   8    8.40    8.00
  -1   1   8    7.70    5.60
  -1   1   8   -0.60    1.90
   0  -1  -8  360.56   34.50
   0  -1  -8  357.86   33.30
   0  -1  -8  369.76   34.10
   0   1   8  406.16   35.80
   0   1   8  375.56   33.20
   0   1   8  403.76   40.50
  -1  -1  -8  135.69   11.80
  -1  -1  -8  122.39   13.70
  -1  -1  -8  143.89   14.80
  -1  -1  -8  140.89   12.90
   1   1   8  134.59   21.20
   1   1   8  110.59   12.50
   1   1   8  133.99   15.50
  -2  -1  -8    3.70    4.50
  -2  -1  -8    0.90    2.60
  -2  -1  -8    1.20    2.00
  -2  -1  -8   -0.20    2.30
   2   1   8    6.80    7.10
   2   1   8    2.80    4.20
   2   1   8    6.20   10.70
   2   1   8    5.10    2.10
  -3  -1  -8    0.20    2.80
  -3  -1  -8    3.50    2.70
  -3  -1  -8    0.10    3.80
  -3  -1  -8    3.00    4.80
   3   1   8   -2.10    8.10
   3   1   8   -5.90    9.10
   3   1   8    1.10    4.20
  -4  -1  -8   -1.40    3.20
  -4  -1  -8    0.10    2.90
  -4  -1  -8   -2.10    3.30
   4   1   8    7.00   10.10
   4   1   8   -1.80    4.60
  -5  -1  -8    6.30    5.70
  -5  -1  -8    5.30    5.50
  -5  -1  -8   11.40    4.10
   5   1   8    9.90    7.90
   5   1   8   13.40   10.50
  -6  -1  -8    9.40    6.60
   6   1   8   16.40   11.10
   6   1   8    6.70    7.00
   9  -2  -8    1.00    6.30
   9  -2  -8    0.20   10.00
   9  -2  -8   -6.70    6.70
  -9   2   8    8.60    8.50
  -9   2   8   -5.40    4.50
  -9   2   8   -7.40   12.00
   8  -2  -8   70.19   14.30
   8  -2  -8   52.29    9.20
   8  -2  -8   37.30    9.40
  -8   2   8   45.20    7.10
  -8   2   8   51.39   15.30
  -8   2   8   49.30   10.00
   7  -2  -8    1.30    5.60
   7  -2  -8    2.40    5.40
   7  -2  -8   -2.40    5.50
  -7   2   8    2.10    3.20
  -7   2   8   -1.40    6.70
  -7   2   8  -11.00    5.40
   6  -2  -8   38.20    7.70
   6  -2  -8   42.60    6.50
   6  -2  -8   60.09   11.10
   6  -2  -8   40.20    8.30
  -6   2   8   41.30    5.50
  -6   2   8   47.20    7.90
  -6   2   8   57.09   13.10
   5  -2  -8   28.00    6.60
   5  -2  -8   19.10    6.30
   5  -2  -8   29.80    5.00
  -5   2   8   34.20    4.10
  -5   2   8   48.10   10.90
  -5   2   8   36.90    6.20
   4  -2  -8   55.69    9.30
   4  -2  -8   62.19    6.60
   4  -2  -8   69.89    8.40
   4  -2  -8   63.09    8.80
  -4   2   8   64.49   10.90
  -4   2   8   55.99    5.90
  -4   2   8   72.19    8.20
  -4   2   8   52.59   12.90
   3  -2  -8   16.70    4.40
   3  -2  -8   18.60    6.00
   3  -2  -8   18.30    4.90
   3  -2  -8   19.10    3.10
  -3   2   8   16.40    2.10
  -3   2   8   22.50    3.60
  -3   2   8   27.80    9.80
  -3   2   8   18.90    2.00
  -3   2   8   27.10    7.40
   2  -2  -8    4.70    2.30
   2  -2  -8    4.60    4.20
   2  -2  -8    8.70    4.00
  -2   2   8   -1.10    5.20
  -2   2   8    8.10    5.90
  -2   2   8    2.10    2.20
   1  -2  -8   -1.20    2.70
   1  -2  -8    0.30    2.60
   1  -2  -8    1.30    2.40
  -1   2   8    0.00    1.90
  -1   2   8   -3.20    4.60
  -1   2   8    6.00    8.60
   0  -2  -8   22.80    2.60
   0  -2  -8   19.60    4.70
   0  -2  -8   25.40    5.10
   0  -2  -8   26.40    4.00
   0   2   8   11.30    8.10
   0   2   8   24.50    3.20
   0   2   8   19.40    6.80
   0   2   8   31.10   10.30
  -1  -2  -8  196.58   17.30
  -1  -2  -8  184.48   18.30
  -1  -2  -8  200.98   20.00
  -1  -2  -8  203.18   19.70
   1   2   8  192.28   20.40
   1   2   8  137.09   25.30
   1   2   8  203.08   27.20
  -2  -2  -8  150.58   14.60
  -2  -2  -8  133.09   16.00
  -2  -2  -8  150.88   15.20
  -2  -2  -8  149.49   13.40
   2   2   8  149.79   17.40
   2   2   8   86.69   19.80
   2   2   8  157.18   25.20
  -3  -2  -8   27.40    4.10
  -3  -2  -8   15.90    5.60
  -3  -2  -8   29.30    6.00
   3   2   8   17.90   10.00
   3   2   8   22.70    8.10
   3   2   8   23.80   11.70
  -4  -2  -8   59.19    9.50
  -4  -2  -8   53.99    8.60
   4   2   8   48.20   15.20
   4   2   8   27.90    9.70
  -5  -2  -8    0.50    4.40
   5   2   8    6.50   11.40
   5   2   8    7.10    8.20
   9  -3  -8    4.10    4.60
   9  -3  -8   -2.90    6.80
   9  -3  -8   14.20   11.30
  -9   3   8    0.90    8.40
  -9   3   8   -7.60    4.40
  -9   3   8    7.50    5.70
   8  -3  -8    8.70    6.00
   8  -3  -8    2.40    9.10
   8  -3  -8   14.30    5.40
  -8   3   8   18.80    9.80
  -8   3   8    7.50    5.20
  -8   3   8    8.90    4.30
   7  -3  -8   29.70    6.60
   7  -3  -8   23.60    5.70
   7  -3  -8   28.10    9.40
  -7   3   8   23.70    4.60
  -7   3   8   29.80   12.10
  -7   3   8   29.70    7.40
   6  -3  -8   51.99    7.60
   6  -3  -8   49.10    9.50
   6  -3  -8   43.60    7.30
   6  -3  -8   41.00    8.40
  -6   3   8   55.09    8.30
  -6   3   8   34.30    5.40
  -6   3   8   76.19   12.60
  -6   3   8   49.10   13.60
   5  -3  -8  118.99   13.10
   5  -3  -8  125.69   11.20
   5  -3  -8  126.69   14.60
   5  -3  -8  110.09   12.80
  -5   3   8  113.39   12.20
  -5   3   8  106.99   11.10
  -5   3   8   85.99   13.30
  -5   3   8  105.89   18.70
  -5   3   8  121.79   16.30
   4  -3  -8  348.37   33.80
   4  -3  -8  327.37   32.40
   4  -3  -8  357.46   31.50
   4  -3  -8  368.36   32.80
  -4   3   8  382.36   38.60
  -4   3   8  321.37   30.80
  -4   3   8  386.46   35.00
  -4   3   8  368.46   32.00
   3  -3  -8    6.70    4.90
   3  -3  -8   19.30    5.30
   3  -3  -8   16.00    3.50
   3  -3  -8   18.80    5.10
  -3   3   8   13.20    3.20
  -3   3   8   24.00    7.50
  -3   3   8   15.80    8.10
   2  -3  -8  123.49   13.00
   2  -3  -8  104.89   13.40
   2  -3  -8  121.89   11.90
  -2   3   8  121.39   19.30
  -2   3   8  139.09   15.70
  -2   3   8  114.09   11.20
   1  -3  -8   48.30    5.80
   1  -3  -8   48.60    8.00
   1  -3  -8   52.39    8.10
  -1   3   8   32.70   11.50
  -1   3   8   48.60    8.50
  -1   3   8   26.20   13.40
  -1   3   8   42.90    5.00
   0  -3  -8    9.90    4.00
   0  -3  -8    9.60    4.30
   0  -3  -8    9.80    5.50
   0   3   8   11.50    9.10
   0   3   8    7.70    4.60
   0   3   8   11.90   12.70
  -1  -3  -8  154.98   15.10
  -1  -3  -8  153.48   15.70
  -1  -3  -8  132.79   15.50
   1   3   8   96.79   21.20
   1   3   8  155.88   17.70
   1   3   8  165.28   26.50
  -2  -3  -8   61.99    8.30
  -2  -3  -8   50.39    8.50
   2   3   8   26.30   12.60
   2   3   8   85.09   18.70
   2   3   8   65.39   10.50
  -3  -3  -8    2.50    3.70
  -3  -3  -8   12.60    6.60
   3   3   8    4.10   11.10
   3   3   8    4.80   12.20
   3   3   8    8.70    5.10
  -4  -3  -8    3.60    6.30
  -4  -3  -8   -0.60    4.00
   4   3   8   -4.20    7.50
   4   3   8    9.20    5.90
   9  -4  -8   -3.30    4.10
   9  -4  -8    4.40    8.20
   9  -4  -8   -7.60    6.00
  -9   4   8    4.20    7.70
  -9   4   8   -1.70    8.20
  -9   4   8   -5.20    4.20
   8  -4  -8    2.10    4.20
   8  -4  -8    6.00    6.20
   8  -4  -8  -10.40    7.70
  -8   4   8    1.80    3.90
  -8   4   8   -0.60    6.50
  -8   4   8    7.80   11.50
   7  -4  -8   14.10    6.00
   7  -4  -8   17.80    7.10
   7  -4  -8   29.40    8.20
   7  -4  -8   17.30    6.50
  -7   4   8   19.00    8.50
  -7   4   8   23.20    7.00
  -7   4   8   27.60    4.70
  -7   4   8   24.70   12.00
   6  -4  -8    5.60    5.70
   6  -4  -8   13.20    5.80
   6  -4  -8    6.10    5.80
  -6   4   8   12.80    3.30
  -6   4   8    7.90    9.60
  -6   4   8    8.90    8.80
  -6   4   8   22.70    5.80
   5  -4  -8   76.39   12.10
   5  -4  -8   78.29   10.90
   5  -4  -8   83.09   11.40
   5  -4  -8   88.39    9.80
  -5   4   8  101.69   10.70
  -5   4   8   80.69   16.80
  -5   4   8  128.09   15.30
   4  -4  -8   48.70    6.30
   4  -4  -8   42.10    7.20
   4  -4  -8   37.80    7.70
   4  -4  -8   42.00    8.90
  -4   4   8   27.20   12.00
  -4   4   8   45.00    6.30
  -4   4   8   39.60    9.50
   3  -4  -8   15.40    4.90
   3  -4  -8   17.30    4.80
   3  -4  -8   21.70    4.40
  -3   4   8   12.10    6.70
  -3   4   8    4.60    7.60
  -3   4   8   17.90   10.10
  -3   4   8   17.40    3.20
   2  -4  -8    4.60    5.20
   2  -4  -8    1.00    2.50
   2  -4  -8    9.40    5.60
  -2   4   8  -10.30    9.80
  -2   4   8   -1.70   11.00
  -2   4   8   -7.90    4.80
   1  -4  -8   14.20    6.20
   1  -4  -8   14.80    4.90
   1  -4  -8    7.50    4.30
  -1   4   8   29.30   14.30
  -1   4   8    1.70    8.60
  -1   4   8   16.20    6.70
   0  -4  -8   25.70    7.60
   0  -4  -8   19.50    6.00
   0  -4  -8   29.60    4.90
   0   4   8   30.40    6.80
   0   4   8   15.80   14.00
   0   4   8   12.70   10.20
  -1  -4  -8   -1.90    6.10
  -1  -4  -8    0.20    4.70
   1   4   8   -7.80    5.10
   1   4   8  -19.50    9.80
   1   4   8    2.20   12.90
  -2  -4  -8    3.50    6.70
  -2  -4  -8    2.80    5.30
   2   4   8   23.80   14.80
   2   4   8    9.70   14.10
   2   4   8   13.70    6.90
  -3  -4  -8   32.70    9.00
  -3  -4  -8   29.10    6.40
   3   4   8    5.10   13.50
   3   4   8   35.50    8.90
   3   4   8   41.60   14.20
   9  -5  -8   15.70    7.60
   9  -5  -8   15.00   11.00
   9  -5  -8   36.60    7.80
  -9   5   8   33.70   11.80
  -9   5   8   17.40    8.50
  -9   5   8   11.40   10.30
   8  -5  -8   -0.80    8.30
   8  -5  -8    9.20    5.20
   8  -5  -8    2.60    4.80
  -8   5   8    2.50   11.40
  -8   5   8   -1.50    8.00
  -8   5   8   -4.90    6.30
   7  -5  -8   17.80    7.30
   7  -5  -8   29.20    8.10
   7  -5  -8   28.20    7.80
  -7   5   8    3.30    9.80
  -7   5   8   32.80    7.20
  -7   5   8   42.00   10.30
   6  -5  -8   -0.70    2.60
   6  -5  -8    5.00    4.70
   6  -5  -8    2.70    5.70
   6  -5  -8    3.00    4.30
  -6   5   8    1.70    4.50
  -6   5   8    0.40    4.20
  -6   5   8   10.30   10.10
  -6   5   8   -3.80    5.00
   5  -5  -8   24.60    7.50
   5  -5  -8   30.20    5.80
   5  -5  -8   21.40    7.10
   5  -5  -8   38.40    7.70
  -5   5   8   11.70    8.70
  -5   5   8   42.40   10.10
  -5   5   8   32.70    6.00
  -5   5   8   26.10   17.00
   4  -5  -8   49.20    8.90
   4  -5  -8   42.50    6.80
   4  -5  -8   32.70    8.20
  -4   5   8   60.39   15.40
  -4   5   8   52.39    9.90
  -4   5   8   21.50   15.00
   3  -5  -8  215.98   22.40
   3  -5  -8  196.08   20.40
   3  -5  -8  209.48   22.30
  -3   5   8  167.98   27.10
  -3   5   8  249.78   23.10
  -3   5   8  171.08   30.50
   2  -5  -8   -0.50    4.20
   2  -5  -8   -0.10    4.30
   2  -5  -8   -4.30    4.10
  -2   5   8    2.60    8.80
  -2   5   8    0.30    5.40
  -2   5   8   -9.00    7.50
   1  -5  -8  168.38   19.00
   1  -5  -8  151.98   16.60
   1  -5  -8  163.38   17.80
  -1   5   8  151.48   17.90
  -1   5   8  136.19   27.30
  -1   5   8  144.39   26.50
   0  -5  -8    0.20    5.00
   0  -5  -8   -3.30    6.50
   0   5   8    1.80    5.40
   0   5   8   -3.00    9.30
   0   5   8  -14.10   13.00
  -1  -5  -8    2.40    5.30
  -1  -5  -8    1.50    5.50
   1   5   8   -3.70    9.60
   1   5   8    2.70    6.20
   1   5   8   -1.80    9.20
  -2  -5  -8   11.70    6.30
  -2  -5  -8    6.30    6.00
   2   5   8  -12.50   12.60
   2   5   8   -3.00   12.90
   9  -6  -8   72.59   14.90
   9  -6  -8   60.79   11.10
   9  -6  -8   40.50   10.80
  -9   6   8   72.69   17.60
  -9   6   8   70.19   18.10
  -9   6   8   63.99   11.80
  -9   6   8   32.50   20.00
   8  -6  -8    9.10    9.30
   8  -6  -8    0.10    5.20
   8  -6  -8   -4.10    6.50
   8  -6  -8   10.40    6.00
  -8   6   8    5.30    5.00
  -8   6   8   18.40   12.00
  -8   6   8   15.30   11.20
  -8   6   8   12.90   13.30
  -8   6   8   -0.60    6.70
   7  -6  -8   54.19   10.40
   7  -6  -8   46.00    9.80
   7  -6  -8   44.50    8.90
  -7   6   8   73.09   14.10
  -7   6   8   30.60   14.20
  -7   6   8   50.09    8.90
  -7   6   8   31.00   18.50
   6  -6  -8   -5.20    4.60
   6  -6  -8   10.30    5.30
   6  -6  -8    3.90    6.40
   6  -6  -8    0.80    4.60
  -6   6   8   -4.60    7.20
  -6   6   8  -11.70    8.40
  -6   6   8  -10.10    9.30
   5  -6  -8   -0.20    4.80
   5  -6  -8   -0.10    7.00
   5  -6  -8   -0.60    6.90
  -5   6   8  -11.10   13.10
  -5   6   8   -8.80    6.00
  -5   6   8    6.60    8.10
   4  -6  -8   14.30    4.60
   4  -6  -8   23.30    8.10
   4  -6  -8   22.10    6.50
  -4   6   8   24.50    7.60
  -4   6   8   31.70   13.30
  -4   6   8  -12.10   13.50
   3  -6  -8   30.80    8.90
   3  -6  -8   41.00    6.50
   3  -6  -8   31.40    9.20
  -3   6   8   42.40    8.20
  -3   6   8   32.30   15.30
  -3   6   8   27.40   15.50
   2  -6  -8    2.70    5.10
   2  -6  -8    1.00    7.10
   2  -6  -8   -0.40    3.70
  -2   6   8  -20.70   11.60
  -2   6   8   -7.20   13.20
  -2   6   8   -4.80    4.80
   1  -6  -8    6.10    5.80
   1  -6  -8    5.40    5.80
  -1   6   8   13.60   11.30
  -1   6   8   16.20   15.40
   0  -6  -8   47.90   10.70
   0  -6  -8   23.00    6.10
   0   6   8   37.40   18.10
   0   6   8   24.70   14.60
  -1  -6  -8    2.40    4.50
  -1  -6  -8   -4.70    8.30
   1   6   8   -9.20   10.00
   1   6   8   10.20   12.30
  -9   7   8  -11.60    9.70
  -9   7   8  -11.40    7.10
   8  -7  -8  -11.20    6.60
   8  -7  -8  -17.60    7.30
   8  -7  -8    2.80    6.30
  -8   7   8    7.40    8.10
  -8   7   8  -10.20   11.10
  -8   7   8    9.30    7.60
  -8   7   8   12.70   17.80
   7  -7  -8   -0.90    8.00
   7  -7  -8    6.00    8.90
   7  -7  -8    6.60    6.00
  -7   7   8   -5.70   10.50
  -7   7   8    3.00    6.50
  -7   7   8   -4.80    9.40
  -7   7   8   -2.30   14.50
  -7   7   8   21.80    9.80
   6  -7  -8   27.20    7.50
   6  -7  -8   24.30    7.80
   6  -7  -8   31.00    9.70
  -6   7   8   46.60   15.20
  -6   7   8   -2.30   15.50
  -6   7   8   40.70    9.70
   5  -7  -8   -8.40    7.40
   5  -7  -8    6.10    4.40
   5  -7  -8    0.60    5.70
  -5   7   8   13.20   13.10
  -5   7   8   12.50   12.90
   4  -7  -8   19.90    6.80
   4  -7  -8   29.80    9.60
   4  -7  -8   14.60    6.60
  -4   7   8    2.80   12.40
  -4   7   8   10.70   12.50
   3  -7  -8    1.00    6.10
   3  -7  -8   -1.20    5.60
  -3   7   8    4.20    9.10
  -3   7   8   -0.80   10.40
   2  -7  -8    5.90    7.00
   2  -7  -8    6.10    6.60
  -2   7   8   21.30   13.30
  -2   7   8   11.70   15.00
   1  -7  -8   10.50    7.00
   1  -7  -8    2.40    6.80
  -1   7   8   11.00   16.10
  -1   7   8    1.20   16.40
   0  -7  -8   39.90   12.20
   7  -8  -8   -1.90    9.60
   7  -8  -8   -1.40    7.00
   7  -8  -8    5.90    6.90
  -7   8   8   -3.80   10.70
  -7   8   8    2.40   11.50
  -7   8   8    9.50    9.50
  -7   8   8  -11.00   11.80
   6  -8  -8   37.90    8.90
   6  -8  -8   29.00   11.50
   6  -8  -8   24.00    8.40
  -6   8   8   18.50   14.30
  -6   8   8   44.30   16.40
  -6   8   8   -1.70   11.70
   5  -8  -8    6.70    9.20
   5  -8  -8    2.90    5.40
   5  -8  -8   13.90    9.80
  -5   8   8   12.80   16.30
  -5   8   8   -4.30   12.90
  -5   8   8   -6.00   10.90
   4  -8  -8   -0.50    6.40
   4  -8  -8   -1.70    4.70
  -4   8   8   -0.90   14.10
  -4   8   8    7.80   12.80
   3  -8  -8   -9.70    8.80
   3  -8  -8    3.90    7.10
  -3   8   8   14.40   12.80
  -3   8   8    4.60   11.00
  -2   9  -9   62.49   21.60
  -2   9  -9   30.60   13.20
  -2   9  -9   15.50   14.00
   2  -9   9   33.70    8.70
   2  -9   9   24.10    9.30
   2  -9   9   35.60    7.30
  -3   9  -9   69.49   16.60
  -3   9  -9   69.09   15.90
  -3   9  -9   74.29   22.80
   3  -9   9   51.09   10.80
   3  -9   9   31.30   10.10
  -4   9  -9   56.09   14.30
  -4   9  -9   34.00   14.80
  -4   9  -9   51.49   14.20
   4  -9   9   36.40    9.90
   4  -9   9   20.40    7.20
  -5   9  -9   67.59   18.80
  -5   9  -9   72.39   14.30
   5  -9   9   66.19   11.20
   5  -9   9   45.00    9.70
   1   8  -9   69.59   18.40
   1   8  -9   46.40   14.90
  -1  -8   9   33.40    9.30
  -1  -8   9   13.30    8.20
   0   8  -9    0.00   13.20
   0   8  -9   -4.20   12.10
   0  -8   9    8.10    7.20
   0  -8   9    4.70    7.10
  -1   8  -9   25.70   12.90
  -1   8  -9   10.90   12.10
   1  -8   9    2.30    6.90
   1  -8   9   11.60    7.40
  -2   8  -9  122.29   22.70
  -2   8  -9  143.09   19.90
  -2   8  -9  142.69   20.80
   2  -8   9   88.99   12.70
   2  -8   9   89.99   13.50
  -3   8  -9   32.70   11.20
  -3   8  -9   19.20   10.70
  -3   8  -9    6.70   13.80
   3  -8   9   11.10    5.90
   3  -8   9   45.30    8.50
  -4   8  -9   41.40    9.30
  -4   8  -9   39.90   12.10
  -4   8  -9   60.19   18.40
   4  -8   9   27.00    8.20
   4  -8   9   26.10    7.40
  -5   8  -9   35.70   15.70
  -5   8  -9   50.79   12.40
   5  -8   9   21.80    6.70
   5  -8   9   21.20    7.80
  -6   8  -9   34.80   10.70
  -6   8  -9   56.89   15.70
   6  -8   9   37.70    9.00
   6  -8   9   51.89   10.70
  -7   8  -9    1.00   11.80
  -7   8  -9    6.90   10.20
  -7   8  -9   -2.50    7.40
   7  -8   9   -2.20    4.70
   7  -8   9    1.80    8.50
   2   7  -9   -2.20    7.50
  -2  -7   9    9.10    7.20
  -2  -7   9    2.80    4.90
   1   7  -9    1.00   10.60
   1   7  -9  -10.50    9.70
  -1  -7   9   -4.40    4.10
  -1  -7   9   -0.60    4.30
   0   7  -9  130.39   22.40
   0   7  -9  133.39   20.20
   0  -7   9   94.69   12.20
   0  -7   9   92.29   13.20
  -1   7  -9   52.79   13.90
  -1   7  -9   70.59   15.60
  -1   7  -9   52.89   11.40
   1  -7   9   33.50    8.60
   1  -7   9   48.90    8.50
  -2   7  -9   -1.50   10.70
  -2   7  -9    6.20    5.60
  -2   7  -9    0.60    7.60
   2  -7   9    8.80    6.00
   2  -7   9   -3.40    5.50
  -3   7  -9   -2.70    6.80
  -3   7  -9   17.50    8.20
  -3   7  -9    5.60    7.10
   3  -7   9    3.60    4.10
   3  -7   9    2.40    6.20
  -4   7  -9   28.90    8.50
  -4   7  -9   42.50    9.40
  -4   7  -9   43.00   12.20
   4  -7   9   47.00    8.50
   4  -7   9   26.60    6.80
   4  -7   9   34.50    7.50
  -5   7  -9   77.59   13.40
  -5   7  -9   64.69   17.20
   5  -7   9   47.40    8.60
   5  -7   9   62.89   10.70
   5  -7   9   47.20   10.10
  -6   7  -9  216.68   28.50
  -6   7  -9  247.98   25.90
  -6   7  -9  237.68   26.40
   6  -7   9  191.08   21.60
   6  -7   9  190.18   23.30
   6  -7   9  190.88   20.10
  -7   7  -9    2.40    6.50
  -7   7  -9   -2.50    7.20
  -7   7  -9   -0.80    9.70
   7  -7   9    9.10    6.30
   7  -7   9    3.50    5.90
   7  -7   9   -1.10    7.70
   3   6  -9   32.40   13.30
   3   6  -9   21.10    8.50
  -3  -6   9   17.20    6.60
  -3  -6   9    7.00    6.80
   2   6  -9  138.79   20.50
   2   6  -9  128.49   19.40
   2   6  -9  133.39   17.00
  -2  -6   9  106.19   13.40
  -2  -6   9   95.99   13.90
   1   6  -9  123.79   18.90
   1   6  -9  130.09   19.90
  -1  -6   9   99.49   12.80
  -1  -6   9  104.99   13.60
   0   6  -9  177.68   23.10
   0   6  -9  195.98   21.90
   0   6  -9  188.28   19.60
   0  -6   9  120.29   17.20
   0  -6   9  131.19   16.40
   0  -6   9  139.79   16.00
  -1   6  -9    2.80    7.10
  -1   6  -9   10.70    7.80
  -1   6  -9   12.80    6.40
   1  -6   9    8.40    4.00
   1  -6   9   -0.70    5.20
   1  -6   9   16.10    5.40
  -2   6  -9    8.40    4.60
  -2   6  -9    8.10    6.70
  -2   6  -9   13.20    9.50
   2  -6   9    1.80    3.90
   2  -6   9    5.30    5.00
   2  -6   9    4.60    5.30
  -3   6  -9    0.80    6.40
  -3   6  -9   21.60    8.90
  -3   6  -9   27.60    7.40
   3  -6   9   18.20    6.60
   3  -6   9   24.30    5.80
   3  -6   9   22.30    6.90
  -4   6  -9    8.00    5.20
  -4   6  -9    7.70    5.30
  -4   6  -9    5.50    9.20
   4  -6   9    9.40    5.10
   4  -6   9   10.70    5.10
   4  -6   9   10.50    6.40
  -5   6  -9   40.60   11.70
  -5   6  -9   47.50   11.20
  -5   6  -9   29.70    8.40
   5  -6   9   45.30    9.20
   5  -6   9   50.19   10.10
   5  -6   9   49.30    7.40
  -6   6  -9   66.09   11.00
  -6   6  -9   73.49   15.40
  -6   6  -9   55.29   11.60
   6  -6   9   52.79    7.60
   6  -6   9   44.00   11.10
   6  -6   9   54.39    9.10
  -7   6  -9   10.20    6.50
  -7   6  -9   10.70    9.90
  -7   6  -9   17.40    9.10
   7  -6   9   14.70    6.20
   7  -6   9    5.20    7.50
   7  -6   9   16.80    7.40
   5   5  -9   -3.70   10.40
   5   5  -9   -7.40    8.00
  -5  -5   9    6.50    6.30
  -5  -5   9  -12.50    6.60
   4   5  -9    6.70   10.30
   4   5  -9    2.90    7.50
  -4  -5   9   11.90    6.90
  -4  -5   9   12.70    5.90
   3   5  -9   44.80   11.10
   3   5  -9   48.60   11.60
   3   5  -9   66.99   10.30
  -3  -5   9   37.80   10.40
  -3  -5   9   36.80    8.40
  -3  -5   9   39.80    7.30
   2   5  -9    7.60    5.20
   2   5  -9   -7.20    7.10
   2   5  -9   -3.40    4.70
  -2  -5   9   -0.70    5.30
  -2  -5   9   12.60    6.30
  -2  -5   9    2.50    4.40
   1   5  -9    4.60    7.80
   1   5  -9   14.30    5.00
   1   5  -9   17.60    9.20
  -1  -5   9   13.70    5.00
  -1  -5   9   11.70    5.50
  -1  -5   9   13.30    5.70
   0   5  -9    6.50    6.70
   0   5  -9   -0.80    3.60
   0   5  -9    3.50    3.40
   0   5  -9    1.20    5.20
   0  -5   9    6.60    3.20
   0  -5   9    8.10    5.00
   0  -5   9    8.70    5.00
  -1   5  -9  130.19   15.60
  -1   5  -9  131.39   18.60
  -1   5  -9  125.49   14.00
   1  -5   9   98.99   12.60
   1  -5   9  112.69   13.90
   1  -5   9  102.19   12.10
  -2   5  -9   40.60    7.90
  -2   5  -9   36.40    7.50
  -2   5  -9   30.60    9.00
   2  -5   9   40.70    7.20
   2  -5   9   38.10    5.40
   2  -5   9   25.70    5.90
  -3   5  -9  125.49   14.10
  -3   5  -9  147.89   18.70
  -3   5  -9  128.29   14.80
   3  -5   9  124.59   13.80
   3  -5   9  122.39   15.20
   3  -5   9   99.29   12.50
  -4   5  -9    6.60    4.90
  -4   5  -9   -0.40    3.70
  -4   5  -9    3.10    5.00
  -4   5  -9   -2.40    5.10
   4  -5   9    0.40    2.60
   4  -5   9   -1.40    4.20
   4  -5   9    3.90    5.70
  -5   5  -9   15.00    6.70
  -5   5  -9   13.50    6.70
  -5   5  -9   11.20    6.90
   5  -5   9    1.00    4.10
   5  -5   9    5.40    5.90
   5  -5   9   -4.10    6.50
  -6   5  -9   18.30    8.40
  -6   5  -9   37.10    7.40
  -6   5  -9   45.50   10.30
   6  -5   9   30.20    6.40
   6  -5   9   43.10    8.90
   6  -5   9   42.10   10.30
  -7   5  -9  143.19   19.30
  -7   5  -9  106.49   16.10
  -7   5  -9  120.99   15.40
   7  -5   9   95.59   16.80
   7  -5   9  119.19   15.40
   5   4  -9  104.79   16.00
   5   4  -9  114.79   15.40
  -5  -4   9   83.49   11.20
  -5  -4   9   80.99   12.40
  -5  -4   9   77.69   14.00
   4   4  -9   54.29   10.70
   4   4  -9   72.29   12.30
  -4  -4   9   45.00    8.90
  -4  -4   9   32.30   11.00
  -4  -4   9   57.49    7.40
   3   4  -9   27.70    9.80
   3   4  -9   19.80    5.80
   3   4  -9   37.70    8.60
  -3  -4   9   21.30    6.70
  -3  -4   9   23.70    5.40
  -3  -4   9   36.10    7.20
   2   4  -9   82.89   12.60
   2   4  -9   96.69   14.10
   2   4  -9   86.09   11.10
  -2  -4   9   75.19   11.80
  -2  -4   9   65.39    9.50
  -2  -4   9   79.49    9.00
   1   4  -9   20.60    4.90
   1   4  -9   14.40    4.00
   1   4  -9   18.50    6.50
   1   4  -9   19.90    7.20
  -1  -4   9   16.70    4.30
  -1  -4   9   17.30    5.50
  -1  -4   9   14.80    4.40
   0   4  -9  135.89   13.90
   0   4  -9  137.99   16.60
   0   4  -9  139.29   14.20
   0   4  -9  150.88   17.30
   0  -4   9  117.59   14.50
   0  -4   9  139.79   16.00
   0  -4   9  114.89   17.00
   0  -4   9  141.39   13.60
  -1   4  -9  580.34   50.09
  -1   4  -9  597.74   53.09
  -1   4  -9  577.24   50.89
  -1   4  -9  586.94   49.70
   1  -4   9  541.85   49.90
   1  -4   9  423.36   51.59
   1  -4   9  576.74   51.19
   1  -4   9  524.65   49.20
  -2   4  -9   -3.20    4.00
  -2   4  -9    1.30    3.70
  -2   4  -9    2.30    4.10
   2  -4   9    1.20    2.00
   2  -4   9    7.50    5.00
   2  -4   9   -0.20    4.40
   2  -4   9    7.50    5.80
  -3   4  -9  146.39   14.60
  -3   4  -9  128.19   13.50
  -3   4  -9  135.79   17.30
   3  -4   9  116.09   15.60
   3  -4   9  108.79   12.40
   3  -4   9  132.89   14.40
  -4   4  -9    6.20    7.20
  -4   4  -9    1.60    4.80
  -4   4  -9   -0.90    3.40
   4  -4   9    2.80    4.90
   4  -4   9    5.70    3.30
   4  -4   9    5.20    6.50
  -5   4  -9   -0.50    6.60
  -5   4  -9   -2.10    4.70
  -5   4  -9    0.10    4.00
   5  -4   9    6.20    5.50
   5  -4   9   -1.70    5.20
   5  -4   9    3.10    3.70
  -6   4  -9   70.19   13.00
  -6   4  -9   71.69   10.30
  -6   4  -9   67.19   10.00
   6  -4   9   44.90    9.50
   6  -4   9   66.59   12.70
  -7   4  -9   24.40    8.50
  -7   4  -9   20.80    7.40
  -7   4  -9   15.20    6.90
   7  -4   9   22.20    9.70
   7  -4   9   30.60    8.10
   6   3  -9   56.99   11.20
   6   3  -9   27.60   11.20
  -6  -3   9   28.20   12.10
  -6  -3   9   34.80    5.90
  -6  -3   9   26.10    8.40
   5   3  -9  200.68   24.10
   5   3  -9  216.78   22.40
  -5  -3   9  187.88   20.70
  -5  -3   9  192.08   18.80
  -5  -3   9  141.79   22.90
   4   3  -9   17.70    8.60
   4   3  -9   24.80    7.40
   4   3  -9   18.70    6.00
  -4  -3   9   22.30    5.30
  -4  -3   9   16.50    8.60
  -4  -3   9   24.80    5.00
   3   3  -9   76.39   10.60
   3   3  -9   50.89    9.20
   3   3  -9   61.49   11.00
  -3  -3   9   47.90   10.50
  -3  -3   9   54.89    7.10
  -3  -3   9   44.40    7.40
   2   3  -9   25.80    6.40
   2   3  -9   32.80    8.10
   2   3  -9   41.60    7.60
  -2  -3   9   33.20    5.00
  -2  -3   9   34.20    7.40
  -2  -3   9   35.90    5.90
   1   3  -9  161.08   17.20
   1   3  -9  196.78   19.90
   1   3  -9  182.08   18.70
   1   3  -9  161.08   15.80
  -1  -3   9  170.88   17.20
  -1  -3   9  162.88   19.30
  -1  -3   9  161.98   15.70
   0   3  -9   88.19   11.40
   0   3  -9   87.49   10.10
   0   3  -9   82.49    9.20
   0   3  -9  106.89   13.70
   0  -3   9   67.19   12.50
   0  -3   9   80.09   11.60
   0  -3   9   82.39    8.80
   0  -3   9   76.29   10.00
  -1   3  -9   13.20    4.10
  -1   3  -9   20.30    4.00
  -1   3  -9   12.30    5.10
   1  -3   9   17.50    6.40
   1  -3   9   25.90    8.00
   1  -3   9   18.40    3.10
   1  -3   9    0.70    4.30
  -2   3  -9   38.20    6.40
  -2   3  -9   46.70    6.90
  -2   3  -9   53.19    9.80
   2  -3   9   48.30    8.10
   2  -3   9   39.90    5.10
   2  -3   9   54.69    7.20
   2  -3   9   22.70    8.60
  -3   3  -9   12.90    4.80
  -3   3  -9   11.20    4.30
  -3   3  -9   15.10    5.70
  -3   3  -9   10.80    3.80
   3  -3   9   15.40    3.20
   3  -3   9   19.10    5.10
   3  -3   9   10.50    8.40
   3  -3   9   17.00    7.00
  -4   3  -9  414.86   38.00
  -4   3  -9  428.06   40.70
  -4   3  -9  439.96   38.80
   4  -3   9  353.36   40.20
   4  -3   9  410.06   40.30
   4  -3   9  426.06   38.10
   4  -3   9  410.56   37.00
  -5   3  -9  185.38   21.10
  -5   3  -9  191.48   19.40
  -5   3  -9  163.98   18.10
   5  -3   9  158.48   18.70
   5  -3   9  203.08   21.90
  -6   3  -9   21.90    5.80
  -6   3  -9    7.90    7.00
  -6   3  -9   22.80    7.30
   6  -3   9   15.80    6.40
   6  -3   9   17.50    8.80
  -7   3  -9    0.30    3.90
  -7   3  -9   -4.10    6.80
  -7   3  -9   -3.30    4.40
   7  -3   9   -1.40    8.20
   7  -3   9    2.10    6.20
   7   2  -9    7.60    8.70
   7   2  -9   25.50   10.00
   7   2  -9   43.30   12.00
  -7  -2   9   13.30   12.60
  -7  -2   9   17.10    4.50
  -7  -2   9   10.60    5.90
   6   2  -9   -1.70    7.90
   6   2  -9    5.00    7.70
   6   2  -9   11.40    8.00
  -6  -2   9    4.70    4.30
  -6  -2   9    9.40    6.70
  -6  -2   9   14.20   10.80
   5   2  -9    6.00    6.50
   5   2  -9    7.70    7.00
  -5  -2   9   -1.60    5.20
  -5  -2   9    0.70    2.30
  -5  -2   9   -5.10    8.00
   4   2  -9  154.38   18.50
   4   2  -9  184.18   18.00
   4   2  -9  155.38   16.40
  -4  -2   9  152.78   20.40
  -4  -2   9  140.69   16.60
  -4  -2   9  140.79   14.70
   3   2  -9    5.30    4.70
   3   2  -9    2.10    4.90
   3   2  -9    6.90    5.60
  -3  -2   9    8.70    4.80
  -3  -2   9    5.70    2.90
  -3  -2   9   17.80    6.10
   2   2  -9  480.05   42.60
   2   2  -9  429.46   42.30
   2   2  -9  494.25   42.10
  -2  -2   9  421.36   42.90
  -2  -2   9  440.86   40.20
  -2  -2   9  457.45   41.30
   1   2  -9  297.77   25.80
   1   2  -9  299.57   27.60
   1   2  -9  310.67   28.90
   1   2  -9  289.67   27.60
  -1  -2   9  305.07   26.80
  -1  -2   9  291.77   30.90
  -1  -2   9  255.57   25.70
  -1  -2   9  267.07   29.00
   0   2  -9  117.99   12.10
   0   2  -9  104.19   13.50
   0   2  -9   92.79    9.90
   0   2  -9  107.49   12.00
   0  -2   9  108.59   10.70
   0  -2   9  102.39   13.10
   0  -2   9   86.49    9.20
   0  -2   9   79.79   14.50
  -1   2  -9    0.00    2.60
  -1   2  -9    1.50    3.50
  -1   2  -9    3.30    3.70
  -1   2  -9    0.20    2.30
   1  -2   9    2.30    5.30
   1  -2   9   10.30    7.70
   1  -2   9   -2.60    3.20
   1  -2   9    1.60    1.50
  -2   2  -9  345.47   29.80
  -2   2  -9  336.67   31.50
  -2   2  -9  342.67   29.70
   2  -2   9  296.37   28.30
   2  -2   9  331.27   31.90
   2  -2   9  305.57   29.60
   2  -2   9  278.27   33.60
  -3   2  -9   93.29   13.10
  -3   2  -9   89.59   10.00
  -3   2  -9   97.79    9.80
  -3   2  -9   86.79   10.80
   3  -2   9   77.49   11.80
   3  -2   9   78.79   15.30
   3  -2   9   93.39   10.80
  -4   2  -9  429.46   36.80
  -4   2  -9  398.26   35.40
  -4   2  -9  394.06   37.60
   4  -2   9  399.46   36.10
   4  -2   9  290.47   39.20
   4  -2   9  396.66   37.90
  -5   2  -9   74.29    8.30
  -5   2  -9   58.89    9.60
  -5   2  -9   53.59    9.40
   5  -2   9   43.90   11.70
   5  -2   9   62.39    8.60
   5  -2   9   42.30   11.00
  -6   2  -9    7.40    6.50
  -6   2  -9    8.00    4.70
  -6   2  -9    6.90    4.50
   6  -2   9   13.00    5.60
   6  -2   9   -8.70    6.00
   6  -2   9    2.10    6.00
  -7   2  -9    4.00    6.70
  -7   2  -9    5.70    5.10
   7  -2   9    0.20    6.30
   7  -2   9   -6.60    5.10
   8   1  -9   37.10    9.30
   8   1  -9   41.00   13.40
   8   1  -9   27.30    8.10
  -8  -1   9    8.00   14.40
  -8  -1   9   23.70    9.00
  -8  -1   9   20.30    6.30
   7   1  -9   31.40   11.00
   7   1  -9   30.00    9.50
   7   1  -9   35.50    8.20
  -7  -1   9   33.40   14.00
  -7  -1   9   14.50    6.00
  -7  -1   9   31.90    5.80
   6   1  -9   31.20    8.30
   6   1  -9   22.00    7.80
   6   1  -9   11.50    7.10
  -6  -1   9   15.80    3.50
  -6  -1   9   13.70    6.50
  -6  -1   9   16.70    8.60
   5   1  -9   57.69    9.90
   5   1  -9   47.00    8.20
  -5  -1   9   35.30   10.10
  -5  -1   9   48.20    7.40
  -5  -1   9   44.60    5.90
   4   1  -9  149.88   15.60
   4   1  -9  150.68   17.20
   4   1  -9  166.38   17.20
  -4  -1   9  143.59   14.10
  -4  -1   9  129.79   19.60
  -4  -1   9  155.78   16.20
   3   1  -9   12.70    5.00
   3   1  -9   17.70    5.80
   3   1  -9   15.90    5.70
  -3  -1   9   12.50    5.70
  -3  -1   9   18.30    5.00
  -3  -1   9   20.80    3.00
   2   1  -9  158.98   15.10
   2   1  -9  149.19   15.00
   2   1  -9  142.19   15.50
   2   1  -9  136.59   12.50
  -2  -1   9  128.49   17.20
  -2  -1   9  155.18   19.90
  -2  -1   9  131.29   14.60
  -2  -1   9  136.29   12.80
   1   1  -9   75.49   10.20
   1   1  -9   78.99   10.00
   1   1  -9   79.69    7.60
   1   1  -9   92.99   10.90
  -1  -1   9   77.39    8.70
  -1  -1   9   71.69    7.20
  -1  -1   9   63.69   10.50
  -1  -1   9   81.09   14.30
   0   1  -9    6.80    2.10
   0   1  -9   11.60    2.80
   0   1  -9    6.90    3.90
   0   1  -9    4.10    3.90
   0  -1   9   12.50    1.60
   0  -1   9    7.70    5.70
   0  -1   9   15.90    8.40
   0  -1   9   15.30    3.30
  -1   1  -9    1.90    4.70
  -1   1  -9    1.70    3.50
  -1   1  -9    2.40    1.60
  -1   1  -9   -3.70    2.40
   1  -1   9    1.70    3.10
   1  -1   9    3.20    5.60
   1  -1   9    7.00    7.60
  -2   1  -9   14.20    4.00
  -2   1  -9    6.60    2.00
  -2   1  -9    3.30    5.20
  -2   1  -9    2.40    3.40
   2  -1   9   14.10    9.80
   2  -1   9    1.00    5.50
   2  -1   9    7.40    3.60
  -3   1  -9   -0.60    2.20
  -3   1  -9    2.20    4.00
  -3   1  -9    0.80    3.60
  -3   1  -9   -1.80    3.00
   3  -1   9    4.40    6.30
   3  -1   9    5.70    3.60
   3  -1   9   -6.90    8.40
  -4   1  -9   23.30    5.90
  -4   1  -9   11.40    6.20
  -4   1  -9   15.40    3.40
   4  -1   9    6.00    7.00
   4  -1   9    7.40    4.10
   4  -1   9    5.40    8.60
  -5   1  -9  110.69   12.10
  -5   1  -9   73.59    9.30
  -5   1  -9  103.89   13.00
   5  -1   9   68.39    9.70
   5  -1   9  103.09   14.70
   5  -1   9   64.69   14.00
  -6   1  -9   39.20    9.10
  -6   1  -9   34.20    8.00
   6  -1   9   39.60    9.20
   6  -1   9   29.40   11.20
   8   0  -9    8.20    7.20
   8   0  -9    7.90   10.60
   8   0  -9   -0.10    7.90
  -8   0   9   12.80   13.70
  -8   0   9    0.00    4.50
  -8   0   9   -3.20    6.70
   7   0  -9   12.00    8.00
   7   0  -9   13.30    9.40
   7   0  -9    9.20    5.20
  -7   0   9   11.10    4.30
  -7   0   9   22.30   12.60
  -7   0   9    8.00    5.20
   6   0  -9   61.39   10.70
   6   0  -9   63.59   10.30
   6   0  -9   49.50    8.60
  -6   0   9   35.80   10.80
  -6   0   9   46.80    7.80
  -6   0   9   48.20    6.10
   5   0  -9    6.50    3.50
   5   0  -9   12.40    4.60
   5   0  -9    7.90    5.70
  -5   0   9    7.80    5.10
  -5   0   9    3.10    7.90
  -5   0   9    6.10    2.60
   4   0  -9   25.10    6.70
   4   0  -9   26.40    5.60
   4   0  -9   30.30    5.90
  -4   0   9   33.40    3.80
  -4   0   9   22.70    5.70
  -4   0   9   35.00    8.50
   3   0  -9   11.00    5.40
   3   0  -9   14.80    5.10
   3   0  -9   12.90    4.50
  -3   0   9   14.10    2.30
  -3   0   9   19.70    4.70
  -3   0   9   12.90    8.50
  -3   0   9   16.80    6.20
   2   0  -9    7.40    4.40
   2   0  -9    4.70    3.50
   2   0  -9    3.50    4.10
   2   0  -9    5.30    1.70
  -2   0   9    8.10    1.10
  -2   0   9    7.50    3.00
  -2   0   9    9.20    6.10
  -2   0   9    2.00    5.80
   1   0  -9  320.17   29.70
   1   0  -9  335.07   30.40
   1   0  -9  303.67   28.30
   1   0  -9  345.37   30.80
  -1   0   9  325.07   34.80
  -1   0   9  277.17   31.30
  -1   0   9  317.47   29.00
   0   0  -9  429.66   39.90
   0   0  -9  412.56   38.20
   0   0  -9  442.06   39.40
   0   0   9  429.26   38.60
   0   0   9  454.45   41.10
   0   0   9  409.36   44.60
  -1   0  -9   29.90    3.30
  -1   0  -9   42.40    6.40
  -1   0  -9   28.60    6.90
  -1   0  -9   29.80    5.00
   1   0   9   35.30   10.10
   1   0   9   28.50    7.90
   1   0   9   28.80    4.70
  -2   0  -9   96.49    9.00
  -2   0  -9  103.69   10.30
  -2   0  -9   83.89   10.40
  -2   0  -9   95.59   12.50
   2   0   9  106.29   19.00
   2   0   9  117.09   14.40
   2   0   9   88.09   10.10
  -3   0  -9  175.08   16.00
  -3   0  -9  151.58   14.60
  -3   0  -9  172.58   17.80
  -3   0  -9  165.28   16.10
   3   0   9  153.78   15.20
   3   0   9  136.49   18.10
   3   0   9  118.29   22.40
   3   0   9  123.89   21.60
  -4   0  -9    2.20    5.60
  -4   0  -9    6.10    5.00
   4   0   9    8.20    9.90
   4   0   9   -1.10    5.10
  -5   0  -9  134.39   15.90
  -5   0  -9  130.69   14.40
   5   0   9  116.09   17.40
   5   0   9   89.39   19.00
  -6   0  -9   -1.40    6.20
   6   0   9   10.20    7.20
   6   0   9   17.20   10.30
   8  -1  -9   16.50   11.10
   8  -1  -9    0.50    6.40
   8  -1  -9   -0.40    6.80
  -8   1   9    2.30    4.30
  -8   1   9   -3.50   12.20
  -8   1   9    7.30    5.50
   7  -1  -9   89.79   13.60
   7  -1  -9  161.88   18.80
   7  -1  -9   82.19   12.90
  -7   1   9   91.89   12.80
  -7   1   9   99.09   10.60
  -7   1   9   89.69   18.30
   6  -1  -9  201.38   21.50
   6  -1  -9  262.37   26.00
   6  -1  -9  207.38   22.00
  -6   1   9  178.68   18.70
  -6   1   9  210.98   21.30
  -6   1   9  222.08   26.80
   5  -1  -9   26.90    6.00
   5  -1  -9   17.40    4.70
   5  -1  -9   16.30    6.20
  -5   1   9   19.60    4.80
  -5   1   9   30.60    3.80
  -5   1   9   35.10    9.10
   4  -1  -9   23.80    6.90
   4  -1  -9   31.60    5.70
   4  -1  -9   35.90    6.90
  -4   1   9   37.80    8.70
  -4   1   9   39.50    6.20
  -4   1   9   24.80    3.40
  -4   1   9   32.30   11.00
   3  -1  -9   83.59    8.20
   3  -1  -9   69.99   10.60
   3  -1  -9  107.99   12.50
   3  -1  -9   88.79   10.70
  -3   1   9   89.09   13.00
  -3   1   9  118.59   17.20
  -3   1   9   94.59   10.20
   2  -1  -9   13.10    2.60
   2  -1  -9   17.20    5.20
   2  -1  -9   22.20    5.40
   2  -1  -9   14.20    4.90
  -2   1   9   22.10    7.30
  -2   1   9    7.20    6.60
  -2   1   9   12.20    3.70
   1  -1  -9  299.87   29.30
   1  -1  -9  325.77   29.20
   1  -1  -9  304.67   27.50
  -1   1   9  287.77   27.70
  -1   1   9  271.77   35.70
  -1   1   9  351.96   31.30
   0  -1  -9  119.59   11.70
   0  -1  -9  127.89   13.80
   0  -1  -9  122.29   13.10
   0   1   9  102.69   13.90
   0   1   9   93.79   18.20
   0   1   9  107.69   11.20
  -1  -1  -9   31.90    6.40
  -1  -1  -9   38.40    5.70
  -1  -1  -9   32.60    6.50
   1   1   9   38.20    7.60
   1   1   9   35.50    4.90
   1   1   9   24.70   12.60
  -2  -1  -9    5.70    3.00
  -2  -1  -9    6.60    4.10
  -2  -1  -9    2.70    4.30
   2   1   9   16.40   10.50
   2   1   9    6.80    3.40
   2   1   9    0.20    4.60
   2   1   9   13.70   11.60
  -3  -1  -9    8.70    4.80
  -3  -1  -9    5.00    5.70
  -3  -1  -9   16.20    5.10
   3   1   9    5.20    9.50
   3   1   9   17.70    8.10
   3   1   9    5.10    8.70
  -4  -1  -9   47.90    7.20
  -4  -1  -9   41.20    7.70
   4   1   9   41.00   14.50
   4   1   9   41.20   10.50
  -5  -1  -9   -0.60    6.00
  -5  -1  -9    4.70    5.90
   5   1   9    4.80    8.30
   5   1   9    8.00    6.20
   9  -2  -9    1.90    5.50
   9  -2  -9   -4.20    6.50
   9  -2  -9    3.10    8.20
  -9   2   9   -9.40    8.50
  -9   2   9    4.90    8.40
   8  -2  -9   -3.60    6.20
   8  -2  -9    2.80    9.60
   8  -2  -9   -3.80    4.30
  -8   2   9   12.00    7.00
  -8   2   9    7.50   11.80
  -8   2   9    0.50    4.10
   7  -2  -9   13.20    6.90
   7  -2  -9   19.10    9.90
   7  -2  -9   16.00    6.90
  -7   2   9   11.50    5.50
  -7   2   9   30.60   12.70
  -7   2   9   30.10    4.50
   6  -2  -9   40.30    6.90
   6  -2  -9   33.20    5.90
   6  -2  -9   29.30    7.60
  -6   2   9   25.90    4.20
  -6   2   9   24.00   10.80
  -6   2   9   27.70    5.80
   5  -2  -9   71.09    9.30
   5  -2  -9   73.49   10.90
   5  -2  -9   62.79    8.60
  -5   2   9   76.69   15.40
  -5   2   9   62.09    8.90
  -5   2   9   49.50   11.40
   4  -2  -9   -0.70    1.80
   4  -2  -9    1.40    3.70
   4  -2  -9   -3.00    3.80
   4  -2  -9   -0.60    4.40
  -4   2   9   -0.10    5.10
  -4   2   9    3.10    3.60
  -4   2   9   -5.00    6.40
   3  -2  -9  329.97   31.50
   3  -2  -9  297.87   29.70
   3  -2  -9  314.37   28.50
   3  -2  -9  320.07   30.40
  -3   2   9  348.37   32.80
  -3   2   9  341.97   36.30
  -3   2   9  316.07   29.10
   2  -2  -9   28.60    4.00
   2  -2  -9   20.40    5.00
   2  -2  -9   29.90    5.40
  -2   2   9   30.20    8.20
  -2   2   9   21.30    4.00
  -2   2   9   13.70    8.30
   1  -2  -9   16.60    4.50
   1  -2  -9   14.00    4.40
   1  -2  -9   16.10    3.60
  -1   2   9   14.90    6.80
  -1   2   9   11.20    8.50
  -1   2   9   11.90    3.10
   0  -2  -9   97.39    9.90
   0  -2  -9   98.69   11.60
   0  -2  -9   94.19   11.00
   0   2   9  101.39   19.80
   0   2   9   79.69   12.10
   0   2   9   77.99    8.80
   0   2   9   82.69   17.20
  -1  -2  -9   41.40    6.80
  -1  -2  -9   53.69    8.30
  -1  -2  -9   52.19    8.80
   1   2   9   51.49   15.80
   1   2   9   49.10    9.20
   1   2   9   59.29   15.30
  -2  -2  -9   91.09   10.30
  -2  -2  -9   88.99   11.90
  -2  -2  -9   82.79   11.00
   2   2   9   59.19   18.60
   2   2   9   37.00   15.30
   2   2   9   80.19   12.70
  -3  -2  -9  140.69   16.30
  -3  -2  -9  163.58   16.40
   3   2   9   93.19   22.20
   3   2   9  159.18   19.20
   3   2   9  186.88   27.80
  -4  -2  -9    7.90    5.80
  -4  -2  -9    2.60    6.20
   4   2   9    1.50   11.60
   4   2   9   -7.50    4.90
  -5  -2  -9   -1.80    6.10
   5   2   9    0.90    8.10
   5   2   9   -3.70   10.40
   9  -3  -9   26.60   12.20
   9  -3  -9   22.70    8.10
   9  -3  -9   26.90    9.30
  -9   3   9   31.90   15.20
  -9   3   9   32.70    8.20
   8  -3  -9    1.00    4.70
   8  -3  -9   14.70    6.80
   8  -3  -9    2.10    9.50
  -8   3   9   13.80    7.30
  -8   3   9   -3.40   10.90
   7  -3  -9    8.60    7.00
   7  -3  -9   18.70    7.00
   7  -3  -9    7.40    6.40
  -7   3   9    9.80    6.30
  -7   3   9   19.70    8.80
   6  -3  -9   87.69   11.30
   6  -3  -9   91.99   13.20
   6  -3  -9   77.99   11.90
  -6   3   9   95.29   11.20
  -6   3   9  119.89   17.40
  -6   3   9   97.09   19.00
   5  -3  -9  167.88   20.20
   5  -3  -9  212.58   20.90
   5  -3  -9  172.78   18.70
  -5   3   9  197.28   24.30
  -5   3   9  209.48   27.30
  -5   3   9  212.28   19.30
   4  -3  -9   36.50    6.20
   4  -3  -9   35.10    4.90
   4  -3  -9   26.90    6.00
   4  -3  -9   27.80    6.80
  -4   3   9   59.59   12.90
  -4   3   9   31.60    5.40
  -4   3   9   34.50   10.00
   3  -3  -9  288.77   26.40
   3  -3  -9  292.77   28.30
   3  -3  -9  265.27   27.50
  -3   3   9  301.37   35.80
  -3   3   9  291.77   26.50
  -3   3   9  328.07   30.60
   2  -3  -9   -0.20    2.90
   2  -3  -9   -0.30    3.40
   2  -3  -9    2.10    3.60
  -2   3   9   -2.50    9.50
  -2   3   9   -1.90    6.00
  -2   3   9    1.60    2.20
   1  -3  -9   -1.70    3.30
   1  -3  -9   -2.80    2.10
   1  -3  -9    1.00    3.70
  -1   3   9    2.30    8.10
  -1   3   9   -2.50    3.80
  -1   3   9    0.30   10.80
   0  -3  -9   63.19    8.90
   0  -3  -9   47.70    7.40
   0  -3  -9   57.99    9.40
   0   3   9   64.69   10.80
   0   3   9   49.99   14.60
   0   3   9   28.90   16.00
  -1  -3  -9   -2.60    5.60
  -1  -3  -9   -1.50    2.90
  -1  -3  -9   -7.30    5.00
   1   3   9    4.50   11.90
   1   3   9  -12.20    5.80
   1   3   9   27.50   15.20
  -2  -3  -9   17.70    7.30
  -2  -3  -9   19.80    5.10
   2   3   9   26.00   13.00
   2   3   9   25.80   14.70
   2   3   9   20.90    6.70
  -3  -3  -9   34.90    7.60
  -3  -3  -9   49.70    8.10
   3   3   9   33.50   13.50
   3   3   9   -4.70   12.50
   3   3   9   61.79   11.00
  -4  -3  -9   -1.10    6.90
  -4  -3  -9   15.70    6.80
   4   3   9   33.10   16.10
   4   3   9    2.00    8.40
   9  -4  -9   39.50   11.20
   9  -4  -9   33.40    9.40
   9  -4  -9   22.20    6.70
  -9   4   9   19.10    9.20
  -9   4   9   52.79   14.00
   8  -4  -9   12.60    5.40
   8  -4  -9    8.70   10.10
   8  -4  -9    9.60    5.20
  -8   4   9    1.60    5.00
  -8   4   9    3.10   10.70
  -8   4   9   17.00   10.20
   7  -4  -9   -5.70    5.10
   7  -4  -9    1.30    6.30
   7  -4  -9   -4.20    4.10
  -7   4   9   -2.00    5.60
  -7   4   9    6.10    8.00
  -7   4   9   11.80   10.40
   6  -4  -9    3.40    4.60
   6  -4  -9   12.30    6.60
   6  -4  -9    4.80    5.50
  -6   4   9    8.90    6.70
  -6   4   9    9.90    5.10
  -6   4   9    9.90    7.70
   5  -4  -9   37.20    7.30
   5  -4  -9   24.80    6.30
   5  -4  -9   28.20    6.20
   5  -4  -9   35.10    5.40
  -5   4   9   32.50    6.00
  -5   4   9   35.80   11.30
  -5   4   9   42.50   10.40
   4  -4  -9    5.60    5.30
   4  -4  -9    0.60    3.30
   4  -4  -9   -6.50    5.10
  -4   4   9    1.20    6.70
  -4   4   9   -1.30    3.30
  -4   4   9   -6.90    6.10
   3  -4  -9   35.20    7.00
   3  -4  -9   42.30    8.30
   3  -4  -9   44.80    6.40
  -3   4   9   68.69   11.10
  -3   4   9   31.00   13.10
  -3   4   9   29.30   11.20
   2  -4  -9  185.38   20.20
   2  -4  -9  173.98   19.30
   2  -4  -9  184.28   18.10
  -2   4   9  173.18   29.70
  -2   4   9  174.08   26.50
  -2   4   9  217.78   22.20
   1  -4  -9   38.30    8.30
   1  -4  -9   28.60    7.90
   1  -4  -9   34.60    6.20
  -1   4   9   32.30    8.70
  -1   4   9   47.90   16.20
  -1   4   9   30.50   16.10
   0  -4  -9   25.80    7.70
   0  -4  -9   29.30    5.20
   0  -4  -9   25.70    6.40
   0   4   9   26.70   14.60
   0   4   9   -5.50   13.80
   0   4   9   27.50    7.30
  -1  -4  -9   -5.20    6.20
  -1  -4  -9   -5.70    4.70
   1   4   9    1.60    8.10
   1   4   9    5.40    4.80
   1   4   9   -5.30   13.80
  -2  -4  -9   10.40    4.70
  -2  -4  -9   21.70    8.30
   2   4   9    1.40   10.70
   2   4   9   16.10    8.20
   2   4   9    3.40   14.00
  -3  -4  -9   11.10    6.40
  -3  -4  -9    6.60    6.70
   3   4   9   -4.40   13.50
   3   4   9   -1.90    7.40
   9  -5  -9   24.50   11.80
   9  -5  -9    6.00    7.80
   9  -5  -9   -1.50    7.50
  -9   5   9   28.00    9.20
  -9   5   9   10.60   13.70
  -9   5   9    2.70   13.00
   8  -5  -9   45.20   10.50
   8  -5  -9   45.80    8.80
  -8   5   9   55.19   16.40
  -8   5   9   64.09   10.40
  -8   5   9   54.59   13.50
   7  -5  -9    3.30    4.70
   7  -5  -9   12.10    7.10
   7  -5  -9   19.30    8.00
  -7   5   9   17.00    6.50
  -7   5   9    9.80   10.50
  -7   5   9    6.80   11.90
   6  -5  -9   18.30    7.80
   6  -5  -9   16.30    7.20
   6  -5  -9    7.00    6.70
  -6   5   9   -5.10    7.60
  -6   5   9    3.60    4.70
  -6   5   9   16.20   11.80
   5  -5  -9    1.60    6.10
   5  -5  -9    1.20    4.10
   5  -5  -9    7.60    5.10
  -5   5   9    2.90   10.20
  -5   5   9    6.40    5.50
  -5   5   9    7.20    8.50
   4  -5  -9   41.80    8.30
   4  -5  -9   54.29    9.90
   4  -5  -9   52.99    7.20
  -4   5   9   69.29   11.30
  -4   5   9   41.00   15.20
  -4   5   9   66.29   17.30
   3  -5  -9   64.69    9.80
   3  -5  -9   58.99    8.60
   3  -5  -9   71.29   11.10
  -3   5   9   72.49   11.80
  -3   5   9   57.29   17.20
  -3   5   9   52.09   17.70
   2  -5  -9  153.88   17.90
   2  -5  -9  155.48   16.20
   2  -5  -9  174.88   19.40
  -2   5   9  148.49   29.20
  -2   5   9   96.09   24.00
  -2   5   9  198.58   19.70
   1  -5  -9   -3.40    4.60
   1  -5  -9  -11.40    6.30
   1  -5  -9    6.50    5.30
  -1   5   9   -6.30   13.30
  -1   5   9  -16.70   12.80
  -1   5   9   -4.40    3.80
   0  -5  -9   37.90    9.60
   0  -5  -9   33.20    7.30
   0   5   9   32.40    8.60
   0   5   9    1.10   14.70
   0   5   9   38.10   14.90
  -1  -5  -9    4.50    5.90
  -1  -5  -9    5.70    8.10
   1   5   9   23.40   16.20
   1   5   9   12.00   16.00
  -2  -5  -9   -6.20    6.00
  -2  -5  -9   -9.30    7.60
   2   5   9   11.50   11.60
   2   5   9   20.30   14.00
  -9   6   9    7.80    8.20
  -9   6   9    4.80    9.10
   8  -6  -9   31.20    9.50
   8  -6  -9   23.80    7.30
  -8   6   9   16.90   11.70
  -8   6   9   24.60    8.20
  -8   6   9   41.30   21.10
  -8   6   9   24.20   10.00
   7  -6  -9    0.90    7.80
   7  -6  -9    6.50    7.70
   7  -6  -9    3.00    7.30
  -7   6   9   -3.30   16.00
  -7   6   9   11.00   10.00
  -7   6   9   23.80   12.50
   6  -6  -9   -6.30    7.10
   6  -6  -9    1.60    7.40
   6  -6  -9   -4.00    5.10
  -6   6   9    7.50    8.10
  -6   6   9   -2.60   16.30
  -6   6   9   18.30   12.90
   5  -6  -9    0.30    5.10
   5  -6  -9   -0.70    4.90
   5  -6  -9   -1.50    4.90
  -5   6   9   13.90    7.40
  -5   6   9    3.70   12.00
  -5   6   9    7.20   12.30
   4  -6  -9    8.50    5.40
   4  -6  -9   -2.70    4.80
   4  -6  -9   -1.20    6.80
  -4   6   9   -7.10   11.40
  -4   6   9    3.50   15.00
  -4   6   9    5.00    6.70
   3  -6  -9    7.30    5.60
   3  -6  -9   14.30    6.40
   3  -6  -9    1.70    7.40
  -3   6   9   11.60    6.60
  -3   6   9   -2.70   10.40
  -3   6   9   -2.40   12.80
   2  -6  -9    6.20    8.00
   2  -6  -9    5.60    5.90
   2  -6  -9   11.20    6.20
  -2   6   9    4.90   15.10
  -2   6   9    9.90   10.90
   1  -6  -9   10.90    8.80
   1  -6  -9    9.00    6.20
  -1   6   9   21.90   16.70
  -1   6   9    6.80   11.70
   0  -6  -9   -3.30    4.20
   0  -6  -9    8.40    6.60
   0   6   9   16.50   16.80
   0   6   9  -17.00   14.50
   8  -7  -9   -2.20    7.50
   8  -7  -9    9.50    9.50
   8  -7  -9    3.40    8.50
  -8   7   9   -2.80   10.30
  -8   7   9   -8.20   10.00
  -8   7   9    6.00   13.20
  -8   7   9  -17.90   16.80
   7  -7  -9   31.10    8.50
   7  -7  -9   45.70   11.20
  -7   7   9   -0.20   11.30
  -7   7   9   58.49   19.80
  -7   7   9   52.49   17.10
  -7   7   9   50.79   12.40
   6  -7  -9   -4.40    6.20
   6  -7  -9    5.60    8.50
   6  -7  -9   -5.60    8.00
  -6   7   9   12.80    9.90
  -6   7   9   22.40   14.70
  -6   7   9    2.70    7.70
   5  -7  -9   12.20    9.10
   5  -7  -9   11.20    6.80
   5  -7  -9   11.70    8.80
  -5   7   9   25.70   16.30
  -5   7   9   -2.70   17.50
   4  -7  -9   10.10    6.60
   4  -7  -9    5.20    8.40
   4  -7  -9   -0.60    8.20
  -4   7   9   20.80   18.40
  -4   7   9   -9.20   13.20
   3  -7  -9   13.10    8.90
   3  -7  -9    4.50    4.70
   3  -7  -9   16.50    9.20
  -3   7   9    8.70   16.30
  -3   7   9   10.20   11.80
   2  -7  -9    8.30    7.10
   2  -7  -9    7.10    7.10
  -2   7   9   20.20   16.70
  -2   7   9    2.20   16.40
   1  -7  -9   25.40    8.00
   1  -7  -9   21.90   10.90
  -1   7   9   -3.00   11.40
  -1   7   9   17.30   18.80
   6  -8  -9   -4.20    9.40
   6  -8  -9    9.00    7.80
   6  -8  -9   -3.10    9.40
  -6   8   9    5.30   15.00
  -6   8   9  -12.50   15.50
  -6   8   9    9.90   13.10
   5  -8  -9   -3.70    6.40
   5  -8  -9    9.00    7.50
   5  -8  -9   10.30    9.60
  -5   8   9    0.50   10.70
  -5   8   9   12.90   14.80
   4  -8  -9    4.20    7.30
   4  -8  -9    2.50    6.80
  -4   8   9   21.10   18.40
  -4   8   9    6.10   11.70
   0   8 -10   25.70   14.80
   0   8 -10    3.70   12.30
   0  -8  10   16.60    7.80
   0  -8  10   10.80    5.80
  -1   8 -10   -1.00   13.40
  -1   8 -10    9.90   11.80
   1  -8  10    9.90    7.30
   1  -8  10    4.00    7.20
  -2   8 -10    2.80   10.00
  -2   8 -10   11.20   14.10
  -2   8 -10   20.30   11.30
   2  -8  10   20.30    6.40
   2  -8  10   14.40    6.10
  -3   8 -10   31.60   11.00
  -3   8 -10   29.50   11.00
  -3   8 -10   19.40   15.10
   3  -8  10   27.00    8.20
   3  -8  10   17.00    6.50
  -4   8 -10   13.60    7.50
  -4   8 -10   17.10   13.70
   4  -8  10   10.90    5.90
   4  -8  10   19.20    7.30
  -5   8 -10   -4.70   12.60
  -5   8 -10   -0.80    6.00
   5  -8  10    3.70    5.90
   5  -8  10    1.20    6.60
  -6   8 -10   -1.40   10.80
  -6   8 -10   14.10    8.30
  -6   8 -10   10.90    9.90
   6  -8  10    8.90    6.40
   6  -8  10   10.40    6.90
   2   7 -10   -1.40    8.30
  -2  -7  10    1.20    7.10
  -2  -7  10   -7.00    6.40
   1   7 -10  101.19   18.50
   1   7 -10   76.99   17.40
  -1  -7  10   65.59   10.70
  -1  -7  10   50.49   10.40
   0   7 -10   12.10   11.10
   0   7 -10    2.70   10.20
   0  -7  10   11.50    6.50
   0  -7  10   10.60    7.00
  -1   7 -10  143.79   19.20
  -1   7 -10  138.19   23.40
   1  -7  10   95.49   13.70
  -2   7 -10   11.40    7.00
  -2   7 -10   30.70   13.30
  -2   7 -10   16.70    6.90
   2  -7  10    8.00    6.70
   2  -7  10   21.20    6.70
  -3   7 -10   22.70    9.10
  -3   7 -10   46.80   10.00
  -3   7 -10   63.99   16.40
   3  -7  10   28.70    7.50
   3  -7  10   35.50    8.70
  -4   7 -10   26.20   13.40
  -4   7 -10   31.60    9.60
   4  -7  10   16.20    6.30
   4  -7  10   15.60    7.60
   4  -7  10   13.50    5.90
  -5   7 -10   98.09   15.90
  -5   7 -10  133.79   22.50
   5  -7  10  101.49   14.40
   5  -7  10   90.19   14.40
   5  -7  10   90.59   11.50
  -6   7 -10   38.20   11.00
  -6   7 -10   27.00    9.10
  -6   7 -10   31.60   10.80
   6  -7  10   20.40    9.10
   6  -7  10   17.80    9.10
   6  -7  10   26.20    5.90
   3   6 -10    1.10   11.00
  -3  -6  10    6.20    6.20
  -3  -6  10    9.60    5.60
   2   6 -10   75.89   15.70
   2   6 -10  110.19   16.50
  -2  -6  10   46.70   10.40
  -2  -6  10   69.49    9.50
   1   6 -10  161.18   19.80
   1   6 -10  148.29   21.00
  -1  -6  10   93.49   13.20
  -1  -6  10  102.99   13.60
   0   6 -10   20.10   11.30
   0   6 -10   22.20   10.20
   0  -6  10   36.70    7.90
   0  -6  10   30.80    5.50
   0  -6  10   10.10    6.00
  -1   6 -10   98.19   18.50
  -1   6 -10  115.69   15.40
  -1   6 -10  108.79   13.10
   1  -6  10   89.39   11.70
   1  -6  10   89.99   11.50
   1  -6  10   89.89   12.10
  -2   6 -10   -2.40    8.90
  -2   6 -10    9.70    4.40
  -2   6 -10    5.90    6.50
   2  -6  10   -1.00    4.10
   2  -6  10    9.00    6.30
   2  -6  10    0.30    3.30
  -3   6 -10   12.70    6.60
  -3   6 -10   16.00   10.70
  -3   6 -10   11.80    6.80
   3  -6  10   16.50    6.80
   3  -6  10   27.70    7.40
   3  -6  10   23.00    4.70
  -4   6 -10   50.89   14.10
  -4   6 -10   56.59   10.60
   4  -6  10   52.99   10.10
   4  -6  10   48.60   10.50
   4  -6  10   60.19    8.20
  -5   6 -10   -6.20    5.80
  -5   6 -10    9.80    8.00
  -5   6 -10    1.30    6.90
   5  -6  10   -2.20    4.60
   5  -6  10    4.70    4.90
   5  -6  10    0.70    6.90
  -6   6 -10   -0.20    7.20
  -6   6 -10    4.80    8.00
  -6   6 -10   -2.40    9.00
   6  -6  10   14.10    5.60
   6  -6  10    5.30    8.40
   6  -6  10    7.60    7.90
  -7   6 -10    6.20    8.40
  -7   6 -10    9.90    6.70
  -7   6 -10   17.10   10.80
   7  -6  10    8.60    8.10
   7  -6  10   11.50    4.90
   7  -6  10   17.30    7.50
   4   5 -10    3.20    7.70
   4   5 -10    3.30   10.30
  -4  -5  10    0.80    5.60
  -4  -5  10    4.30    7.20
   3   5 -10   54.09   10.20
   3   5 -10   47.40   11.40
  -3  -5  10   24.50   14.00
  -3  -5  10   46.90    9.10
  -3  -5  10   49.50    8.00
   2   5 -10    5.20    5.70
   2   5 -10   12.50    8.60
   2   5 -10    9.30    9.30
  -2  -5  10   -3.00    6.20
  -2  -5  10   10.60    6.00
  -2  -5  10   10.90    5.10
   1   5 -10   16.40    5.50
   1   5 -10   23.20    9.50
   1   5 -10   26.80    8.10
  -1  -5  10   12.30    4.80
  -1  -5  10   20.70    5.40
  -1  -5  10   10.70    6.40
   0   5 -10   29.10    8.90
   0   5 -10   38.60   11.50
   0  -5  10   34.30    5.40
   0  -5  10   30.10    6.20
   0  -5  10   28.00    7.50
  -1   5 -10    2.90    4.00
  -1   5 -10   -1.80    3.80
  -1   5 -10   -3.00    7.20
   1  -5  10    3.00    3.90
   1  -5  10   17.10    5.80
   1  -5  10    7.20    6.10
  -2   5 -10  409.16   36.80
  -2   5 -10  430.26   36.70
  -2   5 -10  393.56   39.70
   2  -5  10  364.46   36.80
   2  -5  10  344.87   36.10
   2  -5  10  375.16   35.10
  -3   5 -10  105.99   13.40
  -3   5 -10   99.59   12.60
  -3   5 -10  127.39   17.20
   3  -5  10  115.99   14.70
   3  -5  10   94.99   13.00
   3  -5  10   96.49   11.30
  -4   5 -10   99.49   12.90
  -4   5 -10   92.29   16.40
  -4   5 -10  118.79   14.30
   4  -5  10   88.09   10.30
   4  -5  10   82.29   12.40
   4  -5  10   89.59   13.70
  -5   5 -10    4.80    6.40
  -5   5 -10   16.40    7.40
  -5   5 -10   -2.20    6.10
   5  -5  10   14.50    8.40
   5  -5  10    3.70    6.40
   5  -5  10    6.00    4.40
  -6   5 -10   25.30   10.40
  -6   5 -10   17.00    7.70
  -6   5 -10   17.20    7.40
   6  -5  10   21.10    7.90
   6  -5  10   14.50    4.30
   6  -5  10   -1.90    5.60
  -7   5 -10    3.70    7.20
  -7   5 -10   14.60    7.80
  -7   5 -10    8.40    6.10
   7  -5  10   19.20    6.40
   7  -5  10   -2.10    8.70
   5   4 -10   -3.70    9.60
   5   4 -10    6.10    8.10
  -5  -4  10    5.50    7.00
  -5  -4  10    3.10    8.90
  -5  -4  10   -0.50    5.30
   4   4 -10  208.08   24.30
   4   4 -10  247.88   22.90
  -4  -4  10  217.48   25.10
  -4  -4  10  192.18   20.40
  -4  -4  10  180.88   21.10
   3   4 -10   41.10    9.30
   3   4 -10   45.30    7.80
   3   4 -10   22.80    8.60
  -3  -4  10   38.20    7.90
  -3  -4  10   22.10    5.60
  -3  -4  10   35.10    8.30
   2   4 -10  115.79   15.90
   2   4 -10  118.59   16.40
   2   4 -10  149.79   14.10
  -2  -4  10  116.39   12.80
  -2  -4  10  104.29   13.20
  -2  -4  10  106.89   15.70
   1   4 -10   45.40    9.30
   1   4 -10   22.60    6.10
   1   4 -10   23.80    8.80
  -1  -4  10   21.00    7.70
  -1  -4  10   27.60    5.80
  -1  -4  10   26.80    5.00
   0   4 -10  151.48   14.60
   0   4 -10  148.49   18.90
   0   4 -10  154.78   15.20
   0   4 -10  155.58   16.50
   0  -4  10  107.79   17.90
   0  -4  10  133.19   16.90
   0  -4  10  149.09   16.10
   0  -4  10  133.29   13.90
  -1   4 -10   32.40    7.40
  -1   4 -10   23.10    9.10
  -1   4 -10   51.49    6.60
   1  -4  10   36.70    5.20
   1  -4  10   29.40    6.80
   1  -4  10   35.70    9.00
   1  -4  10   25.90    6.60
  -2   4 -10  347.87   33.20
  -2   4 -10  310.87   29.80
  -2   4 -10  345.77   30.70
   2  -4  10  307.27   28.90
   2  -4  10  298.57   29.80
   2  -4  10  306.07   31.80
  -3   4 -10    2.80    4.90
  -3   4 -10    3.30    5.10
  -3   4 -10   -0.10    4.30
  -3   4 -10    1.60    3.90
   3  -4  10   -9.40    4.70
   3  -4  10    1.10    2.90
   3  -4  10   -6.60    5.70
  -4   4 -10   29.10    9.50
  -4   4 -10   30.20    6.90
  -4   4 -10   18.10    6.10
   4  -4  10   23.50    4.60
   4  -4  10   21.90    6.80
   4  -4  10   24.90    6.90
  -5   4 -10   30.60    7.70
  -5   4 -10   19.90    6.20
  -5   4 -10   19.30    8.80
   5  -4  10    8.80    4.20
   5  -4  10   15.30    6.50
   5  -4  10   28.30    9.30
  -6   4 -10    4.30    5.90
  -6   4 -10    2.40    7.80
  -6   4 -10    6.30    6.90
   6  -4  10    9.70    9.00
   6  -4  10    6.80    6.60
  -7   4 -10    7.70    6.10
  -7   4 -10    2.00    8.80
  -7   4 -10    8.30    5.70
   7  -4  10   14.00    9.80
   7  -4  10    2.50    7.10
   6   3 -10   19.40    7.60
   6   3 -10  -13.20    5.40
  -6  -3  10   14.30    5.30
  -6  -3  10    0.70    7.20
  -6  -3  10   20.50   11.80
   5   3 -10   58.49   11.30
   5   3 -10   41.80   11.70
  -5  -3  10   55.59    6.90
  -5  -3  10   40.20    8.90
  -5  -3  10   35.60   10.80
   4   3 -10   80.69   12.90
   4   3 -10   60.39   10.50
  -4  -3  10   40.50    8.70
  -4  -3  10   51.79   12.20
  -4  -3  10   47.10    7.20
   3   3 -10   11.20    6.30
   3   3 -10   10.90    6.30
   3   3 -10   13.00    7.20
  -3  -3  10   22.80    6.40
  -3  -3  10   27.20    8.80
  -3  -3  10   16.40    4.10
   2   3 -10    5.30    6.00
   2   3 -10   -0.90    4.10
   2   3 -10    2.20    4.70
  -2  -3  10    0.10    3.30
  -2  -3  10   -0.30    2.90
  -2  -3  10   -5.80    4.20
   1   3 -10    7.70    6.40
   1   3 -10    7.30    4.80
   1   3 -10    7.10    4.50
  -1  -3  10   12.30    3.50
  -1  -3  10   12.70    5.00
  -1  -3  10    5.70    5.00
  -1  -3  10    4.00    7.30
   0   3 -10   20.50    5.10
   0   3 -10   22.00    3.90
   0   3 -10   27.70    8.20
   0   3 -10   22.90    6.40
   0  -3  10   14.60    3.50
   0  -3  10   13.80    7.80
   0  -3  10   22.90    5.80
   0  -3  10   12.70    6.80
  -1   3 -10    4.40    4.60
  -1   3 -10    8.20    4.40
  -1   3 -10    1.70    2.90
   1  -3  10    5.00    3.50
   1  -3  10    3.80    5.90
   1  -3  10    0.70    2.00
   1  -3  10   15.40    7.80
  -2   3 -10    0.00    6.10
  -2   3 -10    4.00    3.70
  -2   3 -10   -0.30    3.40
  -2   3 -10    1.40    2.90
   2  -3  10   -0.10    4.20
   2  -3  10    6.30    2.40
   2  -3  10    3.10    3.30
   2  -3  10    2.80    6.90
  -3   3 -10   37.40    6.10
  -3   3 -10   36.70    6.30
  -3   3 -10   31.80    8.90
  -3   3 -10   36.70    6.70
   3  -3  10   43.50    9.60
   3  -3  10   41.50    6.40
   3  -3  10   32.80    4.70
   3  -3  10   18.80    8.90
  -4   3 -10   41.40    6.90
  -4   3 -10   40.00    7.10
  -4   3 -10   59.69   11.10
   4  -3  10   44.60    8.10
   4  -3  10   47.90    9.40
  -5   3 -10  108.69   12.80
  -5   3 -10  119.89   14.60
  -5   3 -10  136.69   16.50
   5  -3  10  105.49   13.50
   5  -3  10   96.19   16.00
  -6   3 -10   84.59   13.40
  -6   3 -10   65.69   11.10
   6  -3  10   64.89   10.20
   6  -3  10   51.59   11.30
  -7   3 -10    8.90    8.20
  -7   3 -10    9.50    7.80
   7  -3  10   14.20    5.40
   7  -3  10    5.80    6.90
   7   2 -10    6.00    6.60
   7   2 -10    7.50    9.20
  -7  -2  10    4.90    5.00
  -7  -2  10   26.80   13.20
  -7  -2  10   -6.70    6.80
   6   2 -10   37.50   10.50
   6   2 -10   44.80   10.80
  -6  -2  10   43.20    6.40
  -6  -2  10   28.60    6.80
  -6  -2  10   12.90   12.30
   5   2 -10    4.80    5.10
   5   2 -10    0.40    5.30
  -5  -2  10    2.60    9.20
  -5  -2  10    4.30    3.60
  -5  -2  10    0.70    4.20
   4   2 -10   63.99   10.10
   4   2 -10   59.39    9.30
   4   2 -10   62.59    9.70
  -4  -2  10   58.29    7.20
  -4  -2  10   55.39    8.40
  -4  -2  10   58.89   11.60
   3   2 -10  380.76   35.40
   3   2 -10  383.86   34.50
   3   2 -10  370.96   34.50
  -3  -2  10  348.67   36.00
  -3  -2  10  366.36   34.00
  -3  -2  10  327.97   32.30
   2   2 -10  137.49   16.60
   2   2 -10  150.78   15.30
   2   2 -10  130.39   16.40
  -2  -2  10  137.69   15.20
  -2  -2  10  138.69   13.40
  -2  -2  10  128.39   17.70
  -2  -2  10  152.78   20.50
   1   2 -10  309.07   28.10
   1   2 -10  296.77   29.40
   1   2 -10  318.87   28.20
   1   2 -10  301.57   26.10
  -1  -2  10  276.47   27.40
  -1  -2  10  294.87   29.30
  -1  -2  10  267.67   25.80
  -1  -2  10  237.98   32.30
   0   2 -10  234.28   22.00
   0   2 -10  247.88   23.60
   0   2 -10  247.08   22.10
   0   2 -10  225.48   20.30
   0  -2  10  207.88   26.90
   0  -2  10  192.88   23.20
   0  -2  10  216.18   20.90
   0  -2  10  193.18   19.40
  -1   2 -10   37.80    8.50
  -1   2 -10   35.70    6.80
  -1   2 -10   30.30    5.30
  -1   2 -10   39.50    5.40
   1  -2  10   37.80    4.00
   1  -2  10   24.50   10.50
   1  -2  10   41.40    7.80
   1  -2  10   24.70    5.90
  -2   2 -10   15.40    4.50
  -2   2 -10   21.10    4.40
  -2   2 -10   19.40    6.90
  -2   2 -10   15.40    3.40
   2  -2  10   16.60    2.80
   2  -2  10   18.10    8.00
   2  -2  10   17.50    7.40
   2  -2  10   11.80    4.80
  -3   2 -10  299.67   26.30
  -3   2 -10  289.67   28.80
  -3   2 -10  243.28   25.60
  -3   2 -10  280.87   26.10
   3  -2  10  274.77   28.90
   3  -2  10  290.97   26.40
   3  -2  10  212.88   31.60
  -4   2 -10    3.40    3.60
  -4   2 -10   -4.10    6.10
   4  -2  10    5.00    7.20
   4  -2  10    3.60    4.50
   4  -2  10    5.30    8.50
  -5   2 -10   49.99   10.60
  -5   2 -10   45.40    7.60
   5  -2  10   54.29   12.80
   5  -2  10   38.50    9.20
   5  -2  10   35.70    7.40
  -6   2 -10   11.70    7.50
  -6   2 -10    5.70    4.90
   6  -2  10    2.20    5.20
   6  -2  10   21.60    9.80
   7   1 -10   16.10    9.00
   7   1 -10   13.20    8.70
  -7  -1  10   23.40    8.20
  -7  -1  10   17.60    9.90
  -7  -1  10   18.30    4.90
   6   1 -10   15.20    6.30
   6   1 -10    5.30    7.20
  -6  -1  10   12.40    6.80
  -6  -1  10   12.30   11.10
  -6  -1  10    4.90    3.70
   5   1 -10   45.80    9.00
   5   1 -10   24.20    7.00
  -5  -1  10   22.90   11.50
  -5  -1  10   34.80    7.60
  -5  -1  10   40.30    5.20
   4   1 -10   66.49    9.40
   4   1 -10   73.59   10.90
   4   1 -10   76.79   10.30
  -4  -1  10   55.19    9.50
  -4  -1  10   67.39    7.40
  -4  -1  10   77.69   12.90
   3   1 -10  222.78   23.00
   3   1 -10  251.87   23.20
   3   1 -10  241.08   22.80
  -3  -1  10  219.98   21.90
  -3  -1  10  200.98   20.00
  -3  -1  10  221.68   25.80
   2   1 -10    4.70    4.90
   2   1 -10    5.80    5.20
   2   1 -10    5.70    3.90
  -2  -1  10    7.30    3.40
  -2  -1  10   12.50    7.20
  -2  -1  10    3.00    7.90
   1   1 -10    9.90    3.90
   1   1 -10   10.50    5.40
   1   1 -10    4.80    2.00
   1   1 -10    5.10    4.80
  -1  -1  10   12.50    8.80
  -1  -1  10   19.40    7.20
  -1  -1  10    2.90    3.90
   0   1 -10   51.29    7.80
   0   1 -10   47.20    6.00
   0   1 -10   39.90    8.50
   0  -1  10   53.89    6.70
   0  -1  10   53.99    9.10
   0  -1  10   29.70   11.70
  -1   1 -10  109.89   13.90
  -1   1 -10  129.29   12.50
  -1   1 -10  135.29   13.60
   1  -1  10   75.29   17.80
   1  -1  10  110.19   12.60
   1  -1  10  126.99   15.30
  -2   1 -10    5.80    4.10
  -2   1 -10    5.20    3.00
  -2   1 -10    5.40    5.70
   2  -1  10    9.60    3.90
   2  -1  10    8.40   10.20
   2  -1  10    3.90    6.70
  -3   1 -10    3.80    4.20
  -3   1 -10   -0.50    2.90
  -3   1 -10   -0.10    2.60
   3  -1  10  -13.20    8.60
   3  -1  10    5.60    7.10
   3  -1  10   -1.40    3.60
  -4   1 -10    6.20    5.40
  -4   1 -10    3.10    6.30
   4  -1  10    4.30    9.50
   4  -1  10    3.80    7.40
   4  -1  10   13.20    4.40
  -5   1 -10    8.70    6.80
  -5   1 -10   12.00    6.30
   5  -1  10    5.00    6.30
   5  -1  10   -9.20    8.70
  -6   1 -10   84.49   11.70
  -6   1 -10   77.79   12.40
   6  -1  10   50.29   14.00
   6  -1  10   53.99   13.60
   8   0 -10    8.00    7.70
   8   0 -10    2.80   11.00
   8   0 -10   10.80    9.00
  -8   0  10    1.90    7.70
  -8   0  10  -15.10   12.40
   7   0 -10   13.90    7.90
   7   0 -10   25.80    8.80
  -7   0  10   24.10   12.90
  -7   0  10   22.80    7.60
   6   0 -10   17.50    6.00
   6   0 -10   18.80    5.90
  -6   0  10    8.40   10.40
  -6   0  10   11.00    6.60
   5   0 -10  123.79   15.70
   5   0 -10  113.89   15.30
   5   0 -10  133.69   14.00
  -5   0  10  138.59   20.10
  -5   0  10  137.19   15.10
   4   0 -10   16.70    6.20
   4   0 -10   17.30    5.10
   4   0 -10    8.80    4.60
  -4   0  10   24.50    9.30
  -4   0  10    8.70    5.30
   3   0 -10   36.20    6.20
   3   0 -10   30.50    7.60
   3   0 -10   28.00    7.00
  -3   0  10   35.90    8.40
  -3   0  10   43.50   11.70
  -3   0  10   35.00    6.30
   2   0 -10  109.79   12.80
   2   0 -10   92.19   12.00
   2   0 -10   98.39    9.30
   2   0 -10   94.19   11.50
  -2   0  10   89.09   10.70
  -2   0  10   91.59   16.30
  -2   0  10  110.79   14.40
   1   0 -10  155.68   16.70
   1   0 -10  127.99   15.20
   1   0 -10  154.58   13.90
  -1   0  10  152.48   18.50
  -1   0  10  154.38   23.00
  -1   0  10  142.69   14.80
   0   0 -10  317.67   28.90
   0   0 -10  300.27   29.50
   0   0 -10  322.47   27.50
   0   0  10  269.67   27.60
   0   0  10  305.77   30.70
   0   0  10  270.67   36.10
  -1   0 -10  171.48   18.20
  -1   0 -10  183.28   17.90
  -1   0 -10  170.68   16.80
   1   0  10  160.08   16.60
   1   0  10  193.28   26.80
   1   0  10  169.28   20.00
  -2   0 -10    0.90    4.20
  -2   0 -10   -1.10    3.80
  -2   0 -10    7.50    3.20
   2   0  10   11.20    3.50
   2   0  10    7.20   11.20
   2   0  10   20.60    7.70
  -3   0 -10    8.30    4.70
  -3   0 -10   13.60    6.60
  -3   0 -10   11.40    4.10
   3   0  10   13.40   11.50
   3   0  10   13.10    8.00
   3   0  10   18.20   11.00
  -4   0 -10    6.60    5.50
  -4   0 -10    5.30    4.70
   4   0  10   -5.30    7.70
   4   0  10  -16.40    9.20
  -5   0 -10   -3.10    4.10
  -5   0 -10   -5.10    5.80
   5   0  10   -4.60    9.70
   5   0  10   -2.80    6.20
   8  -1 -10   28.50   12.60
   8  -1 -10   24.50    8.90
   8  -1 -10   19.00    8.10
  -8   1  10   -3.00   12.70
  -8   1  10   13.60    7.80
   7  -1 -10   30.00    7.70
   7  -1 -10   29.20    8.60
  -7   1  10   38.80   11.30
  -7   1  10   39.90    8.60
   6  -1 -10   24.60    7.90
   6  -1 -10   17.60    7.50
  -6   1  10   31.80    9.80
  -6   1  10   36.50    7.60
   5  -1 -10  203.98   21.30
   5  -1 -10  209.58   21.00
   5  -1 -10  190.68   19.70
  -5   1  10  196.88   25.10
  -5   1  10  188.28   20.20
   4  -1 -10    0.50    5.00
   4  -1 -10   -1.50    4.00
   4  -1 -10    0.50    5.40
  -4   1  10    1.10    4.20
  -4   1  10   22.10   10.30
  -4   1  10   -1.30    7.20
   3  -1 -10   33.00    6.10
   3  -1 -10   40.10    8.60
   3  -1 -10   45.40    8.00
  -3   1  10   45.40   13.20
  -3   1  10   34.50    6.10
  -3   1  10   49.00    9.30
   2  -1 -10   30.40    5.90
   2  -1 -10   27.80    6.50
   2  -1 -10   25.80    3.90
   2  -1 -10   32.00    7.90
  -2   1  10   30.30    5.10
  -2   1  10   20.90    8.40
  -2   1  10   23.70   11.60
   1  -1 -10   -0.40    2.40
   1  -1 -10   -3.10    4.50
   1  -1 -10   -7.00    4.40
  -1   1  10   -4.70    9.10
  -1   1  10   -2.50    4.00
  -1   1  10   -1.20    2.60
   0  -1 -10   63.69    7.30
   0  -1 -10   63.19    9.10
   0  -1 -10   55.49    8.70
   0   1  10   55.99    6.90
   0   1  10   53.19   15.00
   0   1  10   54.79   10.90
  -1  -1 -10   17.00    5.70
  -1  -1 -10   22.30    4.80
  -1  -1 -10   19.00    6.60
   1   1  10   31.50   13.90
   1   1  10   15.90    3.60
   1   1  10   19.80    8.10
  -2  -1 -10   41.60    7.70
  -2  -1 -10   40.00    6.90
  -2  -1 -10   37.30    8.30
   2   1  10   37.20    8.60
   2   1  10   26.70   13.60
   2   1  10   43.10   15.60
  -3  -1 -10    0.50    6.20
  -3  -1 -10    2.30    5.00
  -3  -1 -10    3.50    5.10
   3   1  10   12.70   10.60
   3   1  10  -14.60   11.00
   3   1  10    1.70    5.70
  -4  -1 -10   21.10    7.70
  -4  -1 -10   25.10    7.00
   4   1  10   20.30    7.80
   4   1  10   15.60   13.40
  -5  -1 -10    2.40    4.70
  -5  -1 -10    8.70    7.10
   5   1  10    2.90    9.50
   5   1  10    3.20   11.60
   8  -2 -10    8.90    5.90
   8  -2 -10    1.60    5.20
   8  -2 -10  -11.50    6.10
  -8   2  10   -2.60    6.80
  -8   2  10    9.10    9.60
   7  -2 -10   12.40    6.80
   7  -2 -10    1.80    4.80
  -7   2  10    0.40    4.20
  -7   2  10   -0.10   10.10
   6  -2 -10   -3.00    4.00
   6  -2 -10   -0.90    6.10
   6  -2 -10   -1.50    6.30
  -6   2  10  -13.80    8.60
  -6   2  10   -3.00   10.20
  -6   2  10   -7.80    4.90
   5  -2 -10   39.70    8.80
   5  -2 -10   37.60    6.90
   5  -2 -10   28.10    7.60
  -5   2  10   56.69   12.40
  -5   2  10   31.00    6.70
  -5   2  10   33.10   12.50
   4  -2 -10  121.79   14.10
   4  -2 -10   89.39   12.00
   4  -2 -10   96.29   11.40
  -4   2  10   97.19   15.70
  -4   2  10   99.19   11.40
  -4   2  10  103.19   18.50
   3  -2 -10    2.30    2.40
   3  -2 -10    3.40    3.60
   3  -2 -10    2.40    5.70
   3  -2 -10    4.80    4.00
  -3   2  10   -3.40    3.00
  -3   2  10    0.20    8.90
  -3   2  10    1.40    7.00
   2  -2 -10  178.98   18.80
   2  -2 -10  159.78   18.00
   2  -2 -10  183.28   16.70
  -2   2  10  169.68   16.70
  -2   2  10  171.18   25.50
  -2   2  10  207.28   20.60
   1  -2 -10   10.40    5.60
   1  -2 -10   15.00    4.80
   1  -2 -10   13.90    3.80
  -1   2  10   13.90    7.30
  -1   2  10   14.00    3.40
  -1   2  10   16.40   12.60
   0  -2 -10   92.89   11.70
   0  -2 -10   86.79   11.80
   0  -2 -10   85.39    9.90
   0   2  10  110.49   21.40
   0   2  10   80.89   13.40
   0   2  10   67.99   19.40
  -1  -2 -10   29.40    7.20
  -1  -2 -10   31.70    5.30
  -1  -2 -10   32.00    8.00
   1   2  10   12.20   12.60
   1   2  10   38.90    9.40
   1   2  10   17.50   11.80
  -2  -2 -10  143.69   17.20
  -2  -2 -10  147.19   15.50
  -2  -2 -10  150.68   15.50
   2   2  10  163.58   26.80
   2   2  10  120.19   17.80
   2   2  10   81.79   21.00
  -3  -2 -10   15.90    5.90
  -3  -2 -10    9.50    4.50
   3   2  10    4.70   13.10
   3   2  10   20.40    9.30
  -4  -2 -10   39.70    9.40
  -4  -2 -10   42.10    7.30
   4   2  10   36.10   13.90
   4   2  10   24.30   10.00
   9  -3 -10    2.00   12.30
  -9   3  10   -1.90   13.80
  -9   3  10    1.30    5.50
   8  -3 -10   24.60    8.60
   8  -3 -10   19.30    8.00
  -8   3  10   22.40    8.40
  -8   3  10   26.80   13.50
   7  -3 -10    9.50    7.10
   7  -3 -10   -5.20    4.10
  -7   3  10   -7.70   10.00
  -7   3  10  -10.20   10.60
  -7   3  10    6.90    6.00
   6  -3 -10   26.10    7.20
   6  -3 -10   32.20    8.40
   6  -3 -10   31.80    7.10
  -6   3  10   32.50    7.20
  -6   3  10   45.60   12.40
  -6   3  10   50.29   11.30
   5  -3 -10   76.69   11.40
   5  -3 -10   64.29   10.00
   5  -3 -10   63.69    9.80
  -5   3  10   79.09   16.00
  -5   3  10   74.59    9.40
  -5   3  10   76.69   14.70
   4  -3 -10  172.28   19.00
   4  -3 -10  196.18   20.50
   4  -3 -10  169.78   18.50
  -4   3  10  228.68   23.30
  -4   3  10  152.98   16.90
  -4   3  10  130.69   24.30
   3  -3 -10    4.40    3.30
   3  -3 -10    3.60    5.10
   3  -3 -10    6.70    6.10
  -3   3  10   -2.40   10.40
  -3   3  10    4.50    3.00
  -3   3  10    8.30    8.10
   2  -3 -10   54.19    8.80
   2  -3 -10   66.89    7.90
   2  -3 -10   63.19    9.10
  -2   3  10   77.59   18.30
  -2   3  10   73.79   11.10
   1  -3 -10   -1.70    2.50
   1  -3 -10    1.10    5.50
   1  -3 -10    0.40    4.00
  -1   3  10   -1.20    7.80
  -1   3  10    7.30    9.70
  -1   3  10    5.40    5.00
   0  -3 -10    4.80    6.00
   0  -3 -10    2.40    4.20
   0  -3 -10   -0.20    4.00
   0   3  10   -2.40    6.70
   0   3  10    9.00   13.90
   0   3  10   -3.40    8.60
  -1  -3 -10    1.10    6.30
  -1  -3 -10   -3.40    4.70
  -1  -3 -10    2.80    4.40
   1   3  10    2.50    7.30
   1   3  10   11.80   14.90
   1   3  10   14.80   10.30
  -2  -3 -10   -0.20    5.30
  -2  -3 -10    2.20    6.70
   2   3  10    1.30    7.60
   2   3  10  -13.80    7.90
   2   3  10   -2.20   12.70
  -3  -3 -10    7.00    4.70
  -3  -3 -10   -5.60    4.70
   3   3  10    1.60   14.40
   3   3  10    4.60    6.10
   9  -4 -10   -0.50   10.60
  -9   4  10    0.80    5.40
  -9   4  10    2.50   13.60
   8  -4 -10   -6.60    7.00
   8  -4 -10    5.50    7.70
  -8   4  10    2.80   12.00
  -8   4  10    4.30    6.90
  -8   4  10   34.40   13.40
   7  -4 -10    6.50    7.10
   7  -4 -10   -1.30    6.70
   7  -4 -10    9.00    6.30
  -7   4  10   13.70   10.70
  -7   4  10    5.60    6.10
  -7   4  10    8.30   11.20
   6  -4 -10   -0.90    6.60
   6  -4 -10    3.30    6.70
   6  -4 -10    1.20    4.10
  -6   4  10   21.70   10.50
  -6   4  10    6.90   11.00
  -6   4  10    3.20    4.80
   5  -4 -10    5.40    4.70
   5  -4 -10    4.10    6.60
   5  -4 -10   -1.70    3.80
  -5   4  10    5.70    8.30
  -5   4  10   13.20   12.70
  -5   4  10    1.10    4.00
   4  -4 -10   30.30    7.60
   4  -4 -10   11.80    6.80
   4  -4 -10   19.70    4.70
  -4   4  10   13.80    8.60
  -4   4  10   13.00    9.50
   3  -4 -10   27.10    6.70
   3  -4 -10   24.00    7.60
   3  -4 -10   31.60    5.50
  -3   4  10   22.10   13.20
  -3   4  10   21.40   13.10
  -3   4  10   36.70    9.50
   2  -4 -10   -4.50    6.10
   2  -4 -10   -4.00    3.80
   2  -4 -10   -4.50    5.70
  -2   4  10    7.20    7.00
  -2   4  10  -11.60   10.90
  -2   4  10    7.40   14.30
   1  -4 -10  115.79   13.90
   1  -4 -10  121.39   12.60
   1  -4 -10  109.59   14.50
  -1   4  10   55.09   18.70
  -1   4  10  107.89   15.50
  -1   4  10   86.29   22.20
   0  -4 -10   19.10    7.40
   0  -4 -10   14.10    7.60
   0  -4 -10    2.00    5.20
   0   4  10    7.50    7.80
   0   4  10   14.00   15.50
   0   4  10   -2.00   15.20
  -1  -4 -10   11.70    4.70
  -1  -4 -10  -14.90    6.60
   1   4  10   25.30   16.90
   1   4  10    9.30   14.10
   1   4  10   11.80    6.10
  -2  -4 -10   -4.30    7.30
  -2  -4 -10   -4.10    3.90
   2   4  10   -5.80    7.30
   2   4  10   10.00   11.10
   2   4  10  -12.80   13.90
   8  -5 -10    4.50    5.70
   8  -5 -10   -3.90    7.10
  -8   5  10   -7.80   11.40
  -8   5  10   -9.90   10.80
  -8   5  10   15.10    7.70
   7  -5 -10   45.30    9.90
   7  -5 -10   40.00    9.00
   7  -5 -10   44.80   10.20
  -7   5  10   41.00   13.50
  -7   5  10   43.20   13.70
  -7   5  10   48.70    8.50
   6  -5 -10   13.20    7.30
   6  -5 -10   16.00    7.90
   6  -5 -10    2.40    7.50
  -6   5  10   19.00   10.50
  -6   5  10   21.10   13.70
   5  -5 -10   19.30    7.70
   5  -5 -10   14.50    6.10
  -5   5  10   29.60    8.40
  -5   5  10   23.20   11.00
  -5   5  10    8.30   11.40
   4  -5 -10    2.30    4.50
   4  -5 -10    1.00    6.40
   4  -5 -10    3.00    6.80
  -4   5  10   20.00   16.20
  -4   5  10    2.10    5.20
  -4   5  10  -17.60   10.40
   3  -5 -10   45.30    8.80
   3  -5 -10   45.60    7.70
   3  -5 -10   51.39    9.10
  -3   5  10   76.49   17.50
  -3   5  10   54.29   18.20
  -3   5  10   64.69   11.70
   2  -5 -10    5.20    3.80
   2  -5 -10   -1.00    6.80
   2  -5 -10   -6.80    6.60
  -2   5  10    1.80    6.80
  -2   5  10    0.20   13.40
  -2   5  10    5.80   13.80
   1  -5 -10   47.10   11.00
   1  -5 -10   60.79    8.90
   1  -5 -10   62.59   10.00
  -1   5  10   38.90   18.40
  -1   5  10   52.79   11.00
  -1   5  10   48.70   17.40
   0  -5 -10    3.80    6.20
   0  -5 -10   18.60    7.10
   0   5  10   31.30   14.90
   0   5  10   21.90   17.20
   0   5  10   18.30    8.40
  -1  -5 -10    0.30    6.00
  -1  -5 -10   -4.20    6.30
   1   5  10    3.80   11.40
   1   5  10  -20.60   13.70
   8  -6 -10   -5.40    5.10
   8  -6 -10   -1.30    8.40
  -8   6  10   10.20   10.70
  -8   6  10    4.00   18.90
  -8   6  10    3.40    8.10
   7  -6 -10    4.70    8.20
   7  -6 -10   -3.60    7.70
   7  -6 -10   15.50    8.60
  -7   6  10    3.10   12.10
  -7   6  10  -17.60   16.60
  -7   6  10   25.90   11.30
   6  -6 -10    3.30    7.80
   6  -6 -10    3.10    7.90
  -6   6  10   16.50   12.90
  -6   6  10   13.10   18.70
  -6   6  10    0.10    9.00
   5  -6 -10    9.30    5.70
   5  -6 -10    7.40    7.80
   5  -6 -10    2.70    7.90
  -5   6  10    0.40    7.90
  -5   6  10   10.90   13.40
  -5   6  10  -12.50   15.40
   4  -6 -10   -4.90    7.60
   4  -6 -10    7.50    5.80
   4  -6 -10    4.40    7.70
  -4   6  10  -10.80   13.20
  -4   6  10   13.60   16.70
  -4   6  10    5.10    5.50
   3  -6 -10   -9.00    7.30
   3  -6 -10    7.30    5.80
   3  -6 -10   -6.00    5.00
  -3   6  10    8.80   15.80
  -3   6  10   -8.80    6.40
  -3   6  10    7.60   14.10
   2  -6 -10    8.80    8.40
   2  -6 -10   -4.10    5.80
   2  -6 -10   -0.40    5.70
  -2   6  10  -19.40   12.40
  -2   6  10   -2.40   15.00
   1  -6 -10    1.10    6.20
   1  -6 -10    9.40    6.70
  -1   6  10  -23.50   13.30
  -1   6  10   -1.70   11.60
   7  -7 -10   11.30    9.10
   7  -7 -10    1.50    9.10
  -7   7  10   -4.90    8.90
  -7   7  10   -9.70    8.30
  -7   7  10   -6.00   18.00
   6  -7 -10   50.79   10.40
  -6   7  10   48.50   17.10
  -6   7  10   27.40   16.70
  -6   7  10   42.90   11.40
   5  -7 -10   37.70   11.00
   5  -7 -10   25.60    6.40
   5  -7 -10   25.00   10.30
  -5   7  10   24.10   16.10
  -5   7  10   30.70   21.30
   4  -7 -10    0.90    6.50
   4  -7 -10    4.90    6.70
   4  -7 -10    8.00    6.60
  -4   7  10   13.40   14.20
  -4   7  10   -2.80    9.50
   3  -7 -10   12.10    9.80
   3  -7 -10   -1.40    6.30
   3  -7 -10    1.90    7.00
  -3   7  10  -16.40   10.50
  -3   7  10   24.90   17.70
  -1   8 -11   15.50   14.40
  -1   8 -11   22.20   10.00
   1  -8  11   13.50    5.90
   1  -8  11   17.90    8.40
  -2   8 -11   12.70   10.80
  -2   8 -11   21.40   15.30
   2  -8  11    4.90    7.40
   2  -8  11    5.20    7.70
  -3   8 -11   26.20   12.00
  -3   8 -11    1.80    8.30
  -3   8 -11   23.80    8.50
   3  -8  11   11.50    6.20
   3  -8  11   18.00    7.70
  -4   8 -11   11.80    9.60
  -4   8 -11  -24.60   11.10
   4  -8  11    2.00    4.80
   4  -8  11    4.80    5.90
   1   7 -11    5.40   11.20
   1   7 -11   18.50   12.00
  -1  -7  11    9.70    5.50
  -1  -7  11   -1.90    4.50
   0   7 -11  180.18   21.90
   0   7 -11  152.88   23.00
   0  -7  11  109.09   16.40
   0  -7  11  137.59   15.60
  -1   7 -11   29.00   11.50
  -1   7 -11   46.70   15.60
   1  -7  11   34.50    7.90
   1  -7  11   28.50    7.00
  -2   7 -11   72.59   13.00
  -2   7 -11   69.99   15.80
   2  -7  11   53.39    9.40
   2  -7  11   52.09   10.30
  -3   7 -11   -2.40   11.10
  -3   7 -11   -7.10    6.80
  -3   7 -11    3.10    7.00
   3  -7  11   19.20    7.80
   3  -7  11    7.60    4.40
  -4   7 -11   14.70    8.10
  -4   7 -11    2.40   11.40
   4  -7  11   -7.00    5.50
   4  -7  11    5.50    5.20
   4  -7  11    8.00    5.50
  -5   7 -11   47.10   11.10
  -5   7 -11   31.70   11.60
  -5   7 -11   38.00   15.00
   5  -7  11   44.90    7.90
   5  -7  11   27.50    8.40
   5  -7  11   40.80   10.30
  -6   7 -11   91.89   15.70
   6  -7  11   85.19   11.60
   3   6 -11   -4.80   10.60
  -3  -6  11   -5.30    6.90
   2   6 -11    4.70    7.70
   2   6 -11   11.70   10.30
  -2  -6  11   20.70    6.60
  -2  -6  11    0.60    6.90
   1   6 -11   76.89   15.00
   1   6 -11   84.39   14.30
  -1  -6  11   79.69   10.50
  -1  -6  11   54.79   11.00
   0   6 -11  167.28   20.50
   0   6 -11  201.38   24.80
   0  -6  11  113.69   14.60
   0  -6  11  113.29   16.80
   0  -6  11  123.79   16.00
  -1   6 -11   15.20    8.70
  -1   6 -11   26.40   12.10
   1  -6  11    4.00    6.80
   1  -6  11    7.50    5.40
   1  -6  11   16.90    7.10
  -2   6 -11   22.80    7.90
  -2   6 -11   12.30    8.40
  -2   6 -11   13.80    6.10
   2  -6  11    6.40    5.30
   2  -6  11    4.60    6.50
   2  -6  11   11.20    5.40
  -3   6 -11   14.70    6.60
  -3   6 -11   23.00    7.50
  -3   6 -11   20.90   11.70
   3  -6  11    7.60    5.40
   3  -6  11   27.40    8.00
   3  -6  11   15.90    5.50
  -4   6 -11   80.19   16.00
  -4   6 -11   50.89   10.50
   4  -6  11   53.99   11.30
   4  -6  11   57.69    8.20
   4  -6  11   48.80   10.20
  -5   6 -11    5.50    8.00
  -5   6 -11  -12.20    6.30
  -5   6 -11    0.70    7.80
   5  -6  11   -3.10    6.90
   5  -6  11    0.60    4.90
   5  -6  11   -1.50    5.50
  -6   6 -11    1.30    5.70
  -6   6 -11   -4.50    9.10
  -6   6 -11   -4.60    7.20
   6  -6  11   -0.40    8.60
   6  -6  11    0.70    7.70
   6  -6  11   -1.90    5.00
   4   5 -11   27.10    9.90
   4   5 -11   22.20    9.60
  -4  -5  11    3.40    7.50
  -4  -5  11   26.40    7.00
   3   5 -11    2.60    5.00
   3   5 -11   -2.10    8.90
  -3  -5  11    5.90    5.30
  -3  -5  11   -7.90    6.00
   2   5 -11   86.69   15.20
   2   5 -11   85.89   15.20
   2   5 -11   80.59   12.70
  -2  -5  11   57.79   10.70
  -2  -5  11   78.79   10.00
  -2  -5  11   60.39   11.10
   1   5 -11    0.60    7.50
   1   5 -11    1.90    5.90
  -1  -5  11    1.10    4.20
  -1  -5  11   -1.10    6.40
  -1  -5  11   -1.90    5.80
   0   5 -11   10.20    9.10
   0   5 -11    9.00    5.60
   0  -5  11    8.60    6.60
   0  -5  11    1.70    4.20
   0  -5  11    7.50    6.10
  -1   5 -11  110.49   13.40
  -1   5 -11  149.88   16.60
  -1   5 -11  139.99   19.60
   1  -5  11  118.09   12.60
   1  -5  11   97.09   14.10
   1  -5  11   91.39   12.90
  -2   5 -11   35.50    7.80
  -2   5 -11   29.30   10.40
  -2   5 -11   30.10    6.60
   2  -5  11   20.00    4.30
   2  -5  11   18.60    6.60
   2  -5  11   15.50    7.10
  -3   5 -11  210.58   21.40
  -3   5 -11  203.68   21.50
  -3   5 -11  226.28   24.80
   3  -5  11  197.38   23.10
   3  -5  11  205.48   21.90
   3  -5  11  185.28   19.50
  -4   5 -11  110.39   17.20
  -4   5 -11  108.39   13.40
  -4   5 -11  136.19   14.70
   4  -5  11   81.09   13.20
   4  -5  11   75.49   10.20
   4  -5  11   87.99   12.90
  -5   5 -11   26.90    8.20
  -5   5 -11   29.70    8.80
  -5   5 -11   15.10    9.90
   5  -5  11   17.10    7.80
   5  -5  11    8.50    4.80
   5  -5  11   14.20    9.50
  -6   5 -11    6.20    5.30
  -6   5 -11    1.50    9.20
   6  -5  11    5.70    7.20
   6  -5  11    0.60    8.70
   5   4 -11   93.39   15.20
   5   4 -11   96.59   13.60
  -5  -4  11   52.79   14.50
  -5  -4  11   69.79   10.00
  -5  -4  11   64.29   11.80
   4   4 -11   36.10    9.70
   4   4 -11   49.60   12.60
  -4  -4  11   30.20    7.40
  -4  -4  11   45.50   11.50
  -4  -4  11   35.50    6.90
   3   4 -11  147.19   17.80
   3   4 -11  137.49   17.90
   3   4 -11  125.09   15.50
  -3  -4  11   99.89   12.30
  -3  -4  11   84.29   15.50
  -3  -4  11  102.89   13.30
   2   4 -11   25.50    7.30
   2   4 -11   10.70    6.50
   2   4 -11   23.10    5.70
  -2  -4  11   16.60    6.60
  -2  -4  11   19.90    4.70
  -2  -4  11   18.10    6.60
   1   4 -11   34.80   10.10
   1   4 -11   52.39    8.10
   1   4 -11   39.50    8.40
  -1  -4  11   36.00    9.40
  -1  -4  11   35.50    6.80
  -1  -4  11   31.50    5.70
  -1  -4  11   26.60   10.30
   0   4 -11   31.00    6.40
   0   4 -11   30.20   10.00
   0   4 -11   32.50    7.20
   0  -4  11   41.20    7.60
   0  -4  11   22.40    8.00
   0  -4  11   26.70   10.10
   0  -4  11   32.00    5.20
  -1   4 -11  111.59   11.90
  -1   4 -11  117.69   16.80
  -1   4 -11  123.19   14.20
   1  -4  11   82.49   10.50
   1  -4  11  108.39   14.80
   1  -4  11   96.19   12.70
  -2   4 -11    4.10    4.20
  -2   4 -11    0.80    3.50
  -2   4 -11    7.50    5.70
   2  -4  11    0.70    6.70
   2  -4  11    0.40    5.40
   2  -4  11    6.20    3.20
  -3   4 -11   53.69    8.90
  -3   4 -11   66.09   12.00
  -3   4 -11   61.59    8.60
   3  -4  11   56.19   11.20
   3  -4  11   68.39   10.10
  -4   4 -11   53.89   12.60
  -4   4 -11   58.79   10.00
   4  -4  11   67.99    9.60
   4  -4  11   77.79   12.80
  -5   4 -11   41.90    9.90
  -5   4 -11   44.00    9.10
   5  -4  11   51.99   10.50
   5  -4  11   43.20    9.20
  -6   4 -11    0.40    8.20
  -6   4 -11   -1.80    4.60
   6  -4  11    6.40    6.80
   6  -4  11    3.10    9.30
   6   3 -11   27.50   11.30
   6   3 -11   36.50   11.20
  -6  -3  11   16.30    6.50
  -6  -3  11   33.10   13.90
   5   3 -11   40.30    9.70
   5   3 -11   38.30   10.30
  -5  -3  11   27.10    5.80
  -5  -3  11   23.20   11.90
  -5  -3  11   21.10    6.30
   4   3 -11    8.20    6.00
   4   3 -11    4.80    6.70
  -4  -3  11    4.90    4.10
  -4  -3  11   10.20    8.90
  -4  -3  11    5.60    6.50
   3   3 -11   -0.90    7.00
   3   3 -11    0.50    6.10
   3   3 -11   -0.10    3.80
  -3  -3  11   -0.30    6.00
  -3  -3  11    1.40    3.40
  -3  -3  11   18.50    8.50
   2   3 -11   28.10    7.60
   2   3 -11   32.50    7.40
   2   3 -11   35.30    7.70
  -2  -3  11   28.80    5.60
  -2  -3  11   32.30   11.00
  -2  -3  11   19.50    8.80
  -2  -3  11   31.40    7.00
   1   3 -11  150.98   16.60
   1   3 -11  152.78   19.30
   1   3 -11  139.89   16.60
  -1  -3  11  168.18   19.40
  -1  -3  11  115.69   20.20
  -1  -3  11  158.38   16.70
   0   3 -11    1.50    2.80
   0   3 -11    7.80    4.60
   0   3 -11   -0.20    3.50
   0   3 -11    3.60    6.60
   0  -3  11   -7.30    7.20
   0  -3  11    0.00    4.90
   0  -3  11    4.20    6.40
  -1   3 -11   18.70    7.90
  -1   3 -11   21.90    4.80
  -1   3 -11   40.40    7.30
   1  -3  11   15.80    6.20
   1  -3  11   27.10   10.10
   1  -3  11   27.80    8.60
  -2   3 -11   85.49   11.00
  -2   3 -11   83.39   13.90
  -2   3 -11   88.29   10.40
   2  -3  11   99.29   16.50
   2  -3  11   94.79   14.10
   2  -3  11   86.09   11.10
  -3   3 -11   10.40    5.00
  -3   3 -11   -4.70    6.50
  -3   3 -11    5.60    4.40
   3  -3  11    3.70    7.50
   3  -3  11    2.90    5.10
  -4   3 -11  239.68   23.20
  -4   3 -11  255.17   26.30
   4  -3  11  210.28   22.20
   4  -3  11  199.38   24.10
  -5   3 -11  111.29   16.20
  -5   3 -11  105.49   12.80
   5  -3  11   84.29   12.60
   5  -3  11   89.59   15.80
  -6   3 -11   34.30    7.60
  -6   3 -11   24.30    9.90
   6  -3  11   30.30    7.90
   6  -3  11   30.00   11.40
   6   2 -11   -3.10    8.70
   6   2 -11    3.00    6.10
  -6  -2  11   13.30    7.10
  -6  -2  11   13.20   11.50
   5   2 -11   -5.80    6.50
   5   2 -11    3.70    7.60
  -5  -2  11   -4.30    6.10
  -5  -2  11    5.50   10.10
   4   2 -11   -2.90    6.00
   4   2 -11    4.30    5.50
   4   2 -11    9.50    7.30
  -4  -2  11   12.30    6.20
  -4  -2  11    3.70    6.70
   3   2 -11    5.50    5.50
   3   2 -11    1.70    6.40
   3   2 -11   10.40    6.30
  -3  -2  11    2.80    5.60
  -3  -2  11   -3.60    5.00
   2   2 -11  345.87   33.20
   2   2 -11  341.07   33.70
   2   2 -11  338.57   33.00
  -2  -2  11  324.17   32.00
  -2  -2  11  342.47   37.50
  -2  -2  11  344.57   35.30
   1   2 -11  260.37   24.50
   1   2 -11  224.68   24.50
   1   2 -11  237.58   23.70
  -1  -2  11  233.28   23.40
  -1  -2  11  229.98   29.90
  -1  -2  11  236.58   26.40
   0   2 -11   12.40    5.60
   0   2 -11   20.70    3.90
   0   2 -11   13.50    5.80
   0  -2  11   33.20    8.60
   0  -2  11   17.70    9.70
   0  -2  11   10.20    4.10
  -1   2 -11    6.80    3.60
  -1   2 -11    4.70    4.60
  -1   2 -11   -3.90    5.50
   1  -2  11   -7.70    8.30
   1  -2  11    5.10    3.50
   1  -2  11   -2.60    6.70
  -2   2 -11   12.90    4.80
  -2   2 -11   18.70    6.30
  -2   2 -11    9.60    4.90
   2  -2  11   15.10    5.30
   2  -2  11    2.30    8.70
   2  -2  11   -0.10    6.90
  -3   2 -11    6.10    4.90
  -3   2 -11    5.90    5.40
  -3   2 -11    1.20    4.30
   3  -2  11    1.60    9.10
   3  -2  11    7.00    4.90
   3  -2  11   -1.30    7.30
  -4   2 -11   94.29   12.90
  -4   2 -11  117.99   15.70
   4  -2  11  104.99   12.70
   4  -2  11  105.49   16.20
   4  -2  11  107.89   18.70
  -5   2 -11   16.80    8.70
  -5   2 -11   29.90    7.80
   5  -2  11   19.30   10.20
   5  -2  11   28.60    6.60
  -6   2 -11    9.30    7.10
  -6   2 -11    3.80    8.00
   6  -2  11    0.30    6.40
   7   1 -11   43.50   11.30
   7   1 -11   48.40   11.90
  -7  -1  11   50.69    9.00
  -7  -1  11   62.59   14.60
   6   1 -11    6.10    5.50
   6   1 -11    4.90    7.60
  -6  -1  11    0.70   10.80
  -6  -1  11   -2.60    4.10
   5   1 -11    2.50    6.40
   5   1 -11    4.30    6.70
  -5  -1  11   -2.10    5.70
  -5  -1  11   -6.20   10.10
   4   1 -11   -5.90    4.50
   4   1 -11    6.80    4.90
   4   1 -11    2.40    5.90
  -4  -1  11   10.10    7.00
  -4  -1  11    0.30    5.20
   3   1 -11   63.09    9.20
   3   1 -11   56.69    9.30
   3   1 -11   54.59   10.10
  -3  -1  11   71.39   13.20
  -3  -1  11   57.19   14.80
  -3  -1  11   59.29    8.50
   2   1 -11   26.80    6.30
   2   1 -11   24.70    6.90
   2   1 -11   34.00    7.60
  -2  -1  11   26.00   10.90
  -2  -1  11   29.00    8.10
  -2  -1  11   23.30    5.70
   1   1 -11   52.99   10.00
   1   1 -11   71.69   10.40
   1   1 -11   63.79    6.70
   1   1 -11   62.99    9.50
  -1  -1  11   42.20   13.50
  -1  -1  11   61.49    8.10
  -1  -1  11   48.70   10.00
   0   1 -11   82.99   12.50
   0   1 -11   93.89    9.50
   0   1 -11   92.59   11.80
   0  -1  11   85.99   10.60
   0  -1  11   80.09   16.10
   0  -1  11   78.19   12.40
  -1   1 -11    5.60    4.80
  -1   1 -11    3.70    3.50
  -1   1 -11    8.80    5.00
   1  -1  11    0.10    9.90
   1  -1  11    8.90    3.30
   1  -1  11   15.40    7.80
  -2   1 -11  365.76   31.50
  -2   1 -11  362.86   32.00
  -2   1 -11  329.27   32.90
   2  -1  11  308.47   40.10
   2  -1  11  313.47   34.40
   2  -1  11  307.07   30.80
  -3   1 -11   35.30    7.90
  -3   1 -11   35.60    7.00
   3  -1  11   47.60   14.50
   3  -1  11   39.00   10.70
   3  -1  11   26.00    6.00
  -4   1 -11    0.30    6.90
  -4   1 -11   16.60    4.80
   4  -1  11    6.60   11.10
   4  -1  11   -7.10    5.10
  -5   1 -11   38.20    9.50
  -5   1 -11   26.00    7.70
   5  -1  11   10.50   10.00
   5  -1  11   17.60    9.70
   7   0 -11   22.90    8.70
   7   0 -11   16.70    9.10
  -7   0  11   11.90    9.50
  -7   0  11   13.40    7.70
   6   0 -11  104.89   15.00
   6   0 -11  112.09   14.90
  -6   0  11  112.39   19.90
  -6   0  11  111.19   14.10
   5   0 -11    5.30    6.20
   5   0 -11    5.30    6.40
   5   0 -11    3.20    4.70
  -5   0  11    5.40    5.80
  -5   0  11    5.60    7.10
   4   0 -11  157.28   17.30
   4   0 -11  130.79   17.20
   4   0 -11  159.48   16.10
  -4   0  11  154.48   23.10
  -4   0  11  135.79   20.30
  -4   0  11  155.78   16.70
   3   0 -11    3.80    5.60
   3   0 -11    3.80    4.10
   3   0 -11    1.70    5.00
  -3   0  11    1.50    5.50
  -3   0  11    6.60    9.50
  -3   0  11    8.90    4.90
   2   0 -11   32.60    7.30
   2   0 -11   39.30    7.90
   2   0 -11   36.20    7.70
  -2   0  11   20.70    9.70
  -2   0  11   35.70    5.50
  -2   0  11   30.80    9.60
   1   0 -11  181.58   17.30
   1   0 -11  180.68   20.20
   1   0 -11  189.48   19.60
  -1   0  11  199.38   18.50
  -1   0  11  198.38   21.20
  -1   0  11  138.29   24.90
   0   0 -11  191.38   20.50
   0   0 -11  207.78   18.90
   0   0 -11  184.48   21.20
   0   0  11  211.38   22.00
   0   0  11  191.58   28.00
   0   0  11  194.58   19.10
  -1   0 -11  175.88   18.50
  -1   0 -11  189.18   17.60
  -1   0 -11  174.38   19.40
   1   0  11  163.68   21.50
   1   0  11  183.68   17.80
   1   0  11  201.08   28.30
  -2   0 -11  155.88   16.90
  -2   0 -11  140.09   17.20
  -2   0 -11  159.38   16.20
   2   0  11  157.68   20.10
   2   0  11  157.38   26.40
  -3   0 -11    3.80    5.10
  -3   0 -11    5.10    3.90
   3   0  11    2.10   11.70
   3   0  11    2.20    7.90
  -4   0 -11    4.70    7.20
  -4   0 -11    3.20    5.90
   4   0  11    5.30    8.90
   4   0  11    3.70   11.60
  -5   0 -11   15.60    7.40
  -5   0 -11    9.80    8.00
   5   0  11   15.10   12.80
   5   0  11    1.50    9.60
   8  -1 -11    3.90    8.20
   8  -1 -11    5.30    8.20
  -8   1  11    3.30    7.80
  -8   1  11   19.30   14.30
   7  -1 -11   54.39   11.30
   7  -1 -11   65.19   11.50
  -7   1  11   57.59   10.60
  -7   1  11   55.39   13.60
   6  -1 -11   58.69   11.00
   6  -1 -11   56.19   10.50
  -6   1  11   35.30   11.40
  -6   1  11   55.59    9.10
   5  -1 -11    1.60    4.60
   5  -1 -11    7.30    4.80
   5  -1 -11    5.10    6.40
  -5   1  11   -1.10    4.90
  -5   1  11   -3.30    7.90
  -5   1  11    9.50    7.70
   4  -1 -11   28.10    6.80
   4  -1 -11   46.90    9.00
   4  -1 -11   21.30    7.50
  -4   1  11   14.20    9.40
  -4   1  11   26.00   11.30
  -4   1  11   40.20    6.90
   3  -1 -11    9.10    5.40
   3  -1 -11    7.30    5.90
   3  -1 -11   13.60    5.70
  -3   1  11   11.20    3.80
  -3   1  11   14.50    8.80
  -3   1  11    2.30    5.90
   2  -1 -11    5.20    5.60
   2  -1 -11   12.00    2.90
   2  -1 -11    6.90    5.70
  -2   1  11    9.30    3.00
  -2   1  11    3.90    5.60
  -2   1  11    0.00    7.00
   1  -1 -11   13.10    6.20
   1  -1 -11    5.00    2.40
   1  -1 -11   11.30    4.40
  -1   1  11    4.90    5.50
  -1   1  11   15.70   11.80
  -1   1  11    3.10    3.30
   0  -1 -11   15.90    4.10
   0  -1 -11    9.90    6.20
   0  -1 -11    9.10    5.80
   0   1  11    3.20    3.10
   0   1  11    1.00   12.10
   0   1  11   -5.80    7.00
  -1  -1 -11   40.70    7.80
  -1  -1 -11   38.20    7.10
  -1  -1 -11   32.30    6.30
   1   1  11   55.69   15.10
   1   1  11   36.70   10.50
  -2  -1 -11   11.60    6.10
  -2  -1 -11   17.40    5.60
  -2  -1 -11   15.30    5.80
   2   1  11   37.60   16.20
   2   1  11   11.50   12.70
   2   1  11   15.50    6.70
  -3  -1 -11  111.09   13.00
  -3  -1 -11  109.59   13.90
   3   1  11   76.79   21.10
   3   1  11   85.69   14.70
  -4  -1 -11   12.10    7.90
  -4  -1 -11   -7.00    6.00
   4   1  11    8.70    9.40
   4   1  11   11.20   13.90
   8  -2 -11   27.10    8.80
   8  -2 -11    1.10    7.00
  -8   2  11    0.60    7.60
  -8   2  11    7.80    9.10
   7  -2 -11    7.70    5.60
   7  -2 -11   -0.10    6.90
  -7   2  11  -21.50    9.80
  -7   2  11    7.70    6.70
  -7   2  11    0.80   10.30
   6  -2 -11   11.30    7.40
   6  -2 -11    8.80    7.30
   6  -2 -11    7.50    5.10
  -6   2  11    2.10    7.60
  -6   2  11    4.20    5.50
  -6   2  11    9.20   11.30
   5  -2 -11   49.80    9.70
   5  -2 -11   45.80    9.90
   5  -2 -11   48.70    8.40
  -5   2  11   45.60    7.40
  -5   2  11   66.29   14.00
  -5   2  11   43.80   14.20
   4  -2 -11    7.40    7.00
   4  -2 -11    4.00    6.10
   4  -2 -11    5.20    4.10
  -4   2  11    2.60    4.40
  -4   2  11    9.30    8.90
  -4   2  11   13.20   11.10
   3  -2 -11  230.88   22.60
   3  -2 -11  200.38   20.80
   3  -2 -11  195.88   21.70
  -3   2  11  164.38   27.90
  -3   2  11  251.97   26.20
  -3   2  11  190.88   19.90
   2  -2 -11   41.50    8.20
   2  -2 -11   31.10    6.80
   2  -2 -11   36.80    5.30
  -2   2  11   13.20   13.00
  -2   2  11   36.80   10.70
  -2   2  11   39.20    5.90
   1  -2 -11   25.40    4.90
   1  -2 -11   23.20    6.10
   1  -2 -11   19.20    7.00
  -1   2  11   14.00   14.20
  -1   2  11   31.20    9.40
   0  -2 -11    8.10    6.70
   0  -2 -11   -0.80    4.10
   0  -2 -11    9.40    4.70
   0   2  11   -0.90    7.90
   0   2  11    4.30   10.60
   0   2  11   12.10   10.90
  -1  -2 -11  123.89   16.40
  -1  -2 -11  159.98   15.30
  -1  -2 -11  135.39   16.10
   1   2  11  138.29   26.30
   1   2  11  144.99   26.40
   1   2  11  121.09   18.50
  -2  -2 -11   20.70    8.30
  -2  -2 -11   38.10    8.30
  -2  -2 -11   33.00    6.10
   2   2  11   27.60   10.40
   2   2  11    8.80   14.10
   2   2  11   61.59   19.50
  -3  -2 -11   78.09   11.70
  -3  -2 -11   93.79   11.70
   3   2  11   79.09   14.80
   3   2  11   52.69   16.70
   8  -3 -11   26.80    9.00
   8  -3 -11   18.50    6.80
  -8   3  11   13.90   10.10
  -8   3  11   -2.40   12.20
  -8   3  11   14.60    8.10
   7  -3 -11   10.10    7.60
   7  -3 -11   17.70    8.20
  -7   3  11   14.70    6.80
  -7   3  11   18.30   12.70
  -7   3  11    5.70   12.40
   6  -3 -11    6.30    7.40
   6  -3 -11    0.40    6.60
   6  -3 -11   13.40    6.20
  -6   3  11   12.40    8.40
  -6   3  11   19.90    6.30
  -6   3  11   28.40   13.70
   5  -3 -11   46.10   10.50
   5  -3 -11   57.19    9.30
   5  -3 -11   54.69   10.20
  -5   3  11   38.20    7.60
  -5   3  11   73.29   12.80
  -5   3  11   53.89   16.00
   4  -3 -11   24.20    6.30
   4  -3 -11   17.50    6.60
   4  -3 -11   17.80    8.20
  -4   3  11   44.40   11.10
  -4   3  11    3.60   11.40
  -4   3  11   25.10    5.20
   3  -3 -11   97.89   10.90
   3  -3 -11   95.59   13.20
   3  -3 -11   98.49   12.80
  -3   3  11  117.69   15.80
  -3   3  11   87.49   20.10
   2  -3 -11   20.20    7.30
   2  -3 -11   17.50    7.20
   2  -3 -11   17.70    4.60
  -2   3  11   36.00   15.50
  -2   3  11   27.10    9.20
   1  -3 -11    8.90    4.40
   1  -3 -11   11.80    5.20
   1  -3 -11   16.00    6.90
  -1   3  11    1.10    7.80
  -1   3  11   18.90   14.10
  -1   3  11   17.40   12.60
   0  -3 -11   -2.40    4.50
   0  -3 -11    2.60    3.40
   0  -3 -11   -1.40    6.30
   0   3  11   -3.90   13.80
   0   3  11    4.90    8.30
   0   3  11   -1.10   13.30
  -1  -3 -11   -0.70    6.60
  -1  -3 -11   -7.20    4.80
  -1  -3 -11   -2.00    6.80
   1   3  11   -1.20   14.40
   1   3  11   -0.60    8.40
   1   3  11  -12.60   13.70
  -2  -3 -11   16.20    6.80
  -2  -3 -11    8.30    7.50
  -2  -3 -11   21.10    8.80
   2   3  11   13.40    8.90
   2   3  11   -4.30   10.50
   2   3  11   34.30   16.50
   8  -4 -11   14.90    6.30
   8  -4 -11   16.80    8.60
  -8   4  11   13.00    7.70
  -8   4  11    1.70    9.20
  -8   4  11   14.60   11.10
   7  -4 -11    5.80    5.80
   7  -4 -11    1.50    6.60
   7  -4 -11    6.20    7.80
  -7   4  11    8.30    4.70
  -7   4  11   11.20    8.70
  -7   4  11  -15.70   10.10
   6  -4 -11   -0.40    6.00
   6  -4 -11   13.60    7.80
   6  -4 -11   -0.50    5.00
  -6   4  11   -1.80    9.50
  -6   4  11   -8.50    4.40
  -6   4  11    5.70   11.80
   5  -4 -11   31.40    9.50
   5  -4 -11   35.20    8.30
   5  -4 -11   28.60    8.60
  -5   4  11   18.00   13.30
  -5   4  11   24.80   10.70
   4  -4 -11   -1.70    5.90
   4  -4 -11    4.70    5.10
  -4   4  11    1.40    8.70
  -4   4  11    2.80    8.30
   3  -4 -11    1.80    6.70
   3  -4 -11    6.20    4.30
   3  -4 -11    9.40    5.30
  -3   4  11   14.40    8.70
  -3   4  11   -3.30   10.80
  -3   4  11   16.70   12.90
   2  -4 -11  106.99   15.00
   2  -4 -11   97.09   12.40
   2  -4 -11  126.89   14.50
  -2   4  11  104.79   24.00
  -2   4  11  114.69   25.50
  -2   4  11  117.19   16.50
   1  -4 -11    0.40    4.80
   1  -4 -11    4.80    5.00
   1  -4 -11    4.90    5.40
  -1   4  11   10.10    8.80
  -1   4  11   -4.90    9.80
  -1   4  11    2.90    9.50
   0  -4 -11   48.80   11.00
   0  -4 -11   55.59    9.60
   0  -4 -11   50.79    8.50
   0   4  11   57.79   11.90
   0   4  11   47.10   19.90
   0   4  11   19.00   13.40
  -1  -4 -11    8.30    6.50
  -1  -4 -11   24.80    8.90
  -1  -4 -11   16.10    6.80
   1   4  11   -5.80    5.80
   1   4  11   14.10   17.90
   1   4  11   24.70   16.80
   8  -5 -11   37.60    9.00
   8  -5 -11   40.20    8.80
  -8   5  11   51.19   15.50
  -8   5  11   31.00    8.90
  -8   5  11   41.20   14.50
   7  -5 -11   18.40    8.40
   7  -5 -11   14.00    8.80
   7  -5 -11   11.00    8.30
  -7   5  11   26.00   12.50
  -7   5  11   22.50   14.70
   6  -5 -11   27.90    9.30
   6  -5 -11   14.70    7.40
   6  -5 -11   17.80    8.40
  -6   5  11    6.60   10.40
  -6   5  11    9.30    9.90
   5  -5 -11   12.70    5.80
   5  -5 -11   15.20    6.30
  -5   5  11    7.20    9.50
  -5   5  11    3.30   10.20
  -5   5  11   21.50   14.60
   4  -5 -11    2.40    5.10
   4  -5 -11   -2.30    7.10
  -4   5  11   19.40   17.90
  -4   5  11   16.80   14.80
  -4   5  11    2.00    8.30
   3  -5 -11   26.20    8.80
   3  -5 -11   10.60    5.50
   3  -5 -11    9.10    8.20
  -3   5  11   -6.60   13.50
  -3   5  11   20.00   18.40
  -3   5  11    2.90    8.50
   2  -5 -11   28.40    7.70
   2  -5 -11   20.80    8.90
   2  -5 -11   29.30    5.90
  -2   5  11   24.90   13.50
  -2   5  11   36.60   10.10
  -2   5  11   25.70   13.80
   1  -5 -11   -7.40    5.40
   1  -5 -11   -9.80    7.90
   1  -5 -11    4.70    8.00
  -1   5  11   -7.10    5.20
  -1   5  11   -9.90   16.40
  -1   5  11   -4.70   14.90
   0  -5 -11   -0.60    4.40
   0  -5 -11    4.10    8.80
   0  -5 -11   11.30    9.00
   0   5  11    5.20    8.40
   0   5  11   -6.80   14.10
   0   5  11   -3.00   10.60
   7  -6 -11   17.20   10.10
   7  -6 -11   21.80    7.80
   7  -6 -11   15.70    9.20
  -7   6  11    8.10   11.60
  -7   6  11   28.00   16.30
  -7   6  11   29.80   17.30
   6  -6 -11    2.00    7.80
   6  -6 -11   -9.00    7.90
  -6   6  11   -4.00   17.90
  -6   6  11   22.40   14.60
  -6   6  11    7.20    8.80
   5  -6 -11   18.30    9.40
   5  -6 -11   12.10    9.20
  -5   6  11   35.60   20.90
  -5   6  11   15.00   15.70
  -5   6  11   29.50   11.00
   4  -6 -11   35.40   10.40
   4  -6 -11   23.90   10.10
   4  -6 -11   24.70    7.40
  -4   6  11   46.50   20.20
  -4   6  11   38.30   10.90
  -4   6  11   41.30   18.40
   3  -6 -11    9.20    8.80
   3  -6 -11   -3.20    5.60
   3  -6 -11   -9.70    7.70
  -3   6  11    0.70    7.90
  -3   6  11   -4.60   14.80
  -3   6  11   -4.50   15.90
   2  -6 -11   -5.80    6.30
   2  -6 -11   15.00    9.50
   2  -6 -11   -9.80    8.20
  -2   6  11   -7.70   10.80
  -2   6  11    3.70   16.80
   0   7 -12    5.50    8.50
   0   7 -12   12.60    8.30
   0  -7  12    8.10    6.90
   0  -7  12    5.90    5.80
  -1   7 -12  182.68   26.20
  -1   7 -12  139.69   20.70
   1  -7  12  145.89   17.80
   1  -7  12  123.09   16.10
  -2   7 -12   35.80    9.40
  -2   7 -12   33.50   12.20
   2  -7  12   27.60    7.70
   2  -7  12   43.70    9.90
  -3   7 -12   29.70   14.50
  -3   7 -12   34.40   13.50
   3  -7  12   26.00    7.70
   3  -7  12   19.80    7.40
  -4   7 -12    3.30    5.60
  -4   7 -12  -12.30   10.30
   4  -7  12   -0.90    7.30
   4  -7  12   11.30    8.30
   2   6 -12   13.70    8.50
   2   6 -12    7.10    7.80
  -2  -6  12   15.30    8.10
   1   6 -12   29.90   10.00
   1   6 -12   20.00   10.70
  -1  -6  12   10.20    7.70
  -1  -6  12   15.90    7.80
   0   6 -12    5.30   10.90
   0   6 -12   19.70    7.80
   0  -6  12   16.20    8.20
   0  -6  12   17.70    6.10
  -1   6 -12   10.00   11.00
  -1   6 -12   21.90    7.50
   1  -6  12    2.90    7.00
   1  -6  12   12.60    5.60
  -2   6 -12   31.40    9.00
  -2   6 -12   28.50   10.10
   2  -6  12   26.10    6.90
   2  -6  12   16.00    6.80
  -3   6 -12   11.80    6.50
  -3   6 -12    2.00    9.90
   3  -6  12    3.40    7.70
   3  -6  12   22.50    8.40
  -4   6 -12    4.40    7.40
  -4   6 -12   -3.00    9.90
   4  -6  12    7.70    7.70
   4  -6  12   10.50    8.70
  -5   6 -12   34.70    9.60
  -5   6 -12   21.90   12.10
   5  -6  12   36.70    9.70
   5  -6  12   17.70   10.30
   3   5 -12   88.49   16.20
  -3  -5  12   70.89   12.00
   2   5 -12  -10.90    8.10
   2   5 -12    3.80    9.00
  -2  -5  12    2.50    7.00
  -2  -5  12    2.90    7.70
   1   5 -12   43.80   11.20
   1   5 -12   54.79   11.60
  -1  -5  12   35.30    8.90
  -1  -5  12   33.90    9.80
   0   5 -12   41.10   12.00
   0   5 -12   34.00    9.90
   0  -5  12   26.40    7.20
   0  -5  12   18.10    7.70
  -1   5 -12    1.80    9.10
  -1   5 -12    8.30    5.50
   1  -5  12   13.40    8.00
   1  -5  12    0.20    6.30
  -2   5 -12  192.58   19.70
  -2   5 -12  191.68   20.00
  -2   5 -12  211.28   26.10
   2  -5  12  167.08   21.20
   2  -5  12  167.48   20.20
  -3   5 -12   88.79   11.80
  -3   5 -12   70.89   14.20
   3  -5  12   90.09   14.00
   3  -5  12   82.49   11.40
  -4   5 -12  110.99   16.30
  -4   5 -12   81.39   12.50
   4  -5  12   69.09   12.90
   4  -5  12   84.49   12.90
  -5   5 -12   16.70    7.90
  -5   5 -12   33.50   11.70
   5  -5  12   18.80    8.20
   5  -5  12   22.30    8.20
   4   4 -12  117.49   17.90
   4   4 -12  128.69   16.40
  -4  -4  12   71.69   14.60
  -4  -4  12  100.29   14.20
   3   4 -12   30.30   10.70
   3   4 -12   30.70    9.80
   3   4 -12   27.00    8.30
  -3  -4  12   20.60   10.00
  -3  -4  12   21.30    6.10
   2   4 -12   21.10    7.30
   2   4 -12   18.20    7.50
   2   4 -12   27.90    8.10
  -2  -4  12   19.60    7.60
  -2  -4  12   30.40   10.10
  -2  -4  12   16.90   10.80
   1   4 -12   10.60    5.40
   1   4 -12    5.50    5.50
   1   4 -12   11.00    9.10
  -1  -4  12   17.90    8.60
  -1  -4  12   15.30    9.30
  -1  -4  12    7.30    5.00
   0   4 -12   11.20    6.70
   0   4 -12    2.40    6.40
   0  -4  12    5.70    6.00
   0  -4  12    2.40    7.10
  -1   4 -12   59.79   13.10
  -1   4 -12   62.79   10.10
   1  -4  12   47.40    9.90
   1  -4  12   51.59    8.40
  -2   4 -12  116.99   14.10
  -2   4 -12  100.19   12.60
  -2   4 -12   96.59   15.50
   2  -4  12  115.29   13.10
   2  -4  12   95.29   15.40
  -3   4 -12   12.80    8.80
  -3   4 -12   14.90    4.60
   3  -4  12    3.90    8.40
   3  -4  12   11.10    5.30
  -4   4 -12   -0.70    5.90
  -4   4 -12    1.10    4.20
   4  -4  12   10.50    8.50
   4  -4  12    2.30    6.30
  -5   4 -12    9.00    9.10
  -5   4 -12   20.50    7.70
   5  -4  12   13.30    7.40
   5  -4  12   24.40    8.20
   5   3 -12   19.00    7.50
   5   3 -12   15.30   10.30
  -5  -3  12   13.60    8.00
  -5  -3  12   30.80   12.40
   4   3 -12   -5.80    4.40
   4   3 -12    6.70    8.30
  -4  -3  12   -4.60    8.70
  -4  -3  12    7.10    5.50
   3   3 -12    1.50    6.70
   3   3 -12    5.80    6.70
   3   3 -12   11.70    6.10
  -3  -3  12   11.20    5.00
  -3  -3  12   12.10    6.70
   2   3 -12   92.59   14.40
   2   3 -12   98.19   13.20
   2   3 -12   93.09   13.10
  -2  -3  12   87.69   12.10
  -2  -3  12   80.99   13.90
  -2  -3  12   88.89   17.20
   1   3 -12   14.10    5.20
   1   3 -12   15.80    6.30
   1   3 -12    7.30    5.60
  -1  -3  12    0.00    5.70
  -1  -3  12   -1.70    8.20
  -1  -3  12    6.60    8.00
   0   3 -12  297.87   28.60
   0   3 -12  285.17   30.10
   0  -3  12  269.67   30.20
   0  -3  12  259.87   34.20
   0  -3  12  306.57   28.40
  -1   3 -12   -3.90    3.30
  -1   3 -12    1.10    5.30
  -1   3 -12   -4.30    6.50
   1  -3  12    0.30    5.40
   1  -3  12    4.00    5.60
   1  -3  12   -4.50    8.70
  -2   3 -12   37.70    8.90
  -2   3 -12   42.90    8.10
  -2   3 -12   40.20    6.90
   2  -3  12   31.10    6.30
   2  -3  12   24.70    9.80
  -3   3 -12   47.60    8.00
  -3   3 -12   44.30    9.60
   3  -3  12   33.40    8.00
   3  -3  12   45.30   11.30
  -4   3 -12   21.50    6.80
  -4   3 -12   16.00    9.10
   4  -3  12   -6.10    8.50
   4  -3  12    3.80    6.20
  -5   3 -12   57.39   12.70
  -5   3 -12   78.09   11.30
   5  -3  12   49.70   11.70
   5  -3  12   56.49   10.10
   6   2 -12   66.79   11.40
   6   2 -12   58.59   11.60
  -6  -2  12   78.19   17.20
  -6  -2  12   33.90   10.00
   5   2 -12   -2.10    7.20
   5   2 -12   13.40    6.30
  -5  -2  12    3.60    5.10
  -5  -2  12    5.30   10.50
   4   2 -12   38.70    8.60
   4   2 -12   32.30    9.30
   4   2 -12   43.00    8.20
  -4  -2  12   16.40    6.10
  -4  -2  12   19.80    8.90
   3   2 -12   35.30    7.90
   3   2 -12   38.00    7.80
   3   2 -12   29.30    8.30
  -3  -2  12   36.10    9.50
  -3  -2  12   23.70   10.00
  -3  -2  12   29.20    7.70
   2   2 -12   93.29   12.40
   2   2 -12   96.99   13.70
   2   2 -12   58.99   11.50
  -2  -2  12   90.89   11.40
  -2  -2  12   66.79   16.10
  -2  -2  12   99.39   14.30
   1   2 -12  115.79   13.60
   1   2 -12   87.59   13.70
   1   2 -12   81.69   11.80
  -1  -2  12  109.39   18.90
  -1  -2  12   88.59   11.20
  -1  -2  12   83.79   14.60
   0   2 -12  105.39   14.90
   0   2 -12  107.39   13.00
   0  -2  12   92.79   12.20
   0  -2  12   86.89   14.90
   0  -2  12  112.89   19.80
  -1   2 -12    9.70    4.20
  -1   2 -12    8.40    7.20
  -1   2 -12    5.30    5.40
   1  -2  12   -2.30    7.30
   1  -2  12   13.90    5.30
   1  -2  12    0.40   10.10
  -2   2 -12    0.40    3.60
  -2   2 -12    6.10    6.90
  -2   2 -12    2.00    4.30
   2  -2  12    0.40    7.10
   2  -2  12   -7.00    5.00
   2  -2  12    3.70    5.10
  -3   2 -12   -0.60    4.70
  -3   2 -12   -2.10    7.60
   3  -2  12    2.90    5.20
   3  -2  12    6.40    8.30
   3  -2  12    2.70    9.60
  -4   2 -12    1.00    5.80
  -4   2 -12   14.80    8.50
   4  -2  12    7.10    8.80
   4  -2  12   11.40    6.00
  -5   2 -12   -1.80    6.60
  -5   2 -12   -7.30    7.70
   5  -2  12   -2.10    8.90
   6   1 -12    6.00    6.00
   6   1 -12    5.70    8.00
  -6  -1  12    4.60    7.20
  -6  -1  12    5.60   12.00
   5   1 -12    4.50    5.20
   5   1 -12   11.50    5.80
  -5  -1  12    3.70    4.70
  -5  -1  12    3.90    9.80
   4   1 -12    3.70    6.70
   4   1 -12   -4.50    5.20
   4   1 -12    1.70    6.20
  -4  -1  12   -6.70    6.20
  -4  -1  12   -3.90    3.80
  -4  -1  12   -5.70   10.10
   3   1 -12    1.00    4.10
   3   1 -12   10.50    6.50
   3   1 -12   -4.00    5.70
  -3  -1  12    3.80    5.60
  -3  -1  12    1.40    6.00
  -3  -1  12   -0.40    9.90
   2   1 -12    5.10    4.60
   2   1 -12    2.00    4.10
   2   1 -12   -2.80    5.60
  -2  -1  12    5.60    8.10
  -2  -1  12   11.60    5.30
  -2  -1  12    2.20   10.20
   1   1 -12    5.20    4.20
   1   1 -12    3.10    6.10
  -1  -1  12   13.00   10.90
  -1  -1  12    6.30    5.90
  -1  -1  12    4.00    4.90
   0   1 -12   18.50    3.40
   0   1 -12   19.30    7.60
   0   1 -12   18.60    6.50
   0  -1  12   10.30    5.00
   0  -1  12    3.50   10.60
   0  -1  12    5.60    5.50
  -1   1 -12   77.59   12.10
  -1   1 -12   78.39   10.80
  -1   1 -12   99.39   10.40
   1  -1  12   78.69   12.80
   1  -1  12   84.69   10.30
   1  -1  12   82.99   18.60
  -2   1 -12    2.00    4.50
  -2   1 -12    3.60    5.20
  -2   1 -12    2.80    5.30
   2  -1  12   -4.20    4.20
   2  -1  12    6.70    8.80
   2  -1  12   16.90   13.00
  -3   1 -12   76.89   11.90
  -3   1 -12   71.29   10.10
   3  -1  12   78.69   19.20
   3  -1  12   63.39   13.30
  -4   1 -12   -1.20    3.90
  -4   1 -12   -4.10    7.10
   4  -1  12    0.70   11.30
   4  -1  12   -0.30    6.20
   7   0 -12   38.30   10.20
   7   0 -12   16.30    9.20
  -7   0  12   15.10    8.30
  -7   0  12   26.80   11.30
   6   0 -12    0.50    7.20
   6   0 -12    7.30    7.90
  -6   0  12   -7.70    6.20
  -6   0  12   -5.10   10.50
   5   0 -12  242.88   24.60
   5   0 -12  261.77   26.20
   5   0 -12  225.98   23.80
  -5   0  12  221.08   28.50
  -5   0  12  224.68   24.30
  -5   0  12  236.78   32.90
   4   0 -12   -4.60    6.60
   4   0 -12    9.60    5.20
   4   0 -12    1.00    5.50
  -4   0  12    6.40    5.40
  -4   0  12  -21.90    8.20
  -4   0  12    5.30    9.00
   3   0 -12   92.19   14.00
   3   0 -12   84.49   13.00
   3   0 -12   95.89   13.10
  -3   0  12  134.59   17.40
  -3   0  12   98.19   12.00
  -3   0  12   93.09   19.60
   2   0 -12   -2.40    6.00
   2   0 -12    1.30    4.10
   2   0 -12   -0.20    5.70
  -2   0  12    4.40    4.20
  -2   0  12    1.60    5.20
  -2   0  12   -2.30    9.40
   1   0 -12   34.30    7.90
   1   0 -12   31.20    8.20
  -1   0  12   33.70    6.40
  -1   0  12   35.50   12.00
  -1   0  12   34.60    8.80
   0   0 -12   21.60    7.00
   0   0 -12   36.20    8.40
   0   0 -12   28.80    5.10
   0   0  12   22.20    5.40
   0   0  12   13.90   13.60
   0   0  12   22.40    7.70
  -1   0 -12  216.98   22.30
  -1   0 -12  181.88   22.30
  -1   0 -12  236.68   20.90
   1   0  12  241.48   24.60
   1   0  12  181.98   31.00
   1   0  12  201.08   22.00
  -2   0 -12    2.10    4.70
  -2   0 -12   -1.40    6.90
  -2   0 -12    4.10    4.30
   2   0  12   -2.70    8.90
   2   0  12   -9.20    5.30
  -3   0 -12    8.00    8.20
  -3   0 -12   11.60    4.70
   3   0  12   28.30   14.50
   3   0  12   11.00    9.80
  -4   0 -12    1.80    7.50
  -4   0 -12   -3.70    6.10
   4   0  12  -11.10   11.90
   4   0  12    2.50    7.20
   7  -1 -12   17.00    9.00
   7  -1 -12   11.50    8.80
  -7   1  12    8.00   13.10
  -7   1  12   11.90    7.50
   6  -1 -12   66.79   11.70
   6  -1 -12   50.39   11.40
  -6   1  12   29.40   15.70
  -6   1  12   47.30    9.40
  -6   1  12   74.19   14.50
   5  -1 -12   73.99   12.40
   5  -1 -12   99.59   13.20
   5  -1 -12   80.79   11.30
  -5   1  12  100.19   18.60
  -5   1  12   72.39   16.20
  -5   1  12   80.19   11.40
   4  -1 -12    8.00    5.60
   4  -1 -12   13.10    6.00
   4  -1 -12   18.70    7.30
  -4   1  12   23.20    9.70
  -4   1  12    6.00    5.20
  -4   1  12    2.10    7.50
   3  -1 -12    1.50    5.50
   3  -1 -12   -1.90    6.40
   3  -1 -12    0.60    6.30
  -3   1  12    5.40    8.80
  -3   1  12   -2.30    4.20
  -3   1  12    8.00   11.10
   2  -1 -12    9.70    5.20
   2  -1 -12   11.30    6.70
  -2   1  12   20.30    5.00
  -2   1  12   11.30    9.00
  -2   1  12   16.50   11.70
   1  -1 -12   20.40    6.10
   1  -1 -12   23.80    7.20
   1  -1 -12   17.30    4.30
  -1   1  12   19.20    8.80
  -1   1  12   16.20    4.50
  -1   1  12    4.30   12.00
   0  -1 -12    2.10    4.10
   0  -1 -12    2.40    4.60
   0  -1 -12    1.40    2.70
   0   1  12  -13.50   12.40
   0   1  12    6.40    8.20
  -1  -1 -12   24.40    5.90
  -1  -1 -12   24.80    8.60
  -1  -1 -12   30.00    7.90
   1   1  12    7.60   14.90
   1   1  12   22.40   15.60
   1   1  12   28.10   10.60
  -2  -1 -12   42.40   10.40
  -2  -1 -12   48.10    9.60
  -2  -1 -12   59.39    8.70
   2   1  12   36.30   18.00
   2   1  12   62.29   19.30
   2   1  12   42.60   12.10
  -3  -1 -12    3.20    6.20
  -3  -1 -12    1.60    7.50
   3   1  12   28.50   16.10
   3   1  12   -2.80    6.30
   7  -2 -12    0.40    8.20
   7  -2 -12    6.70    8.20
  -7   2  12   15.70   12.80
  -7   2  12   14.60    7.50
  -7   2  12   18.30   10.70
   6  -2 -12    1.60    5.50
   6  -2 -12    5.40    7.10
   6  -2 -12   -1.20    7.40
  -6   2  12   -0.40    7.80
  -6   2  12   -0.80    3.80
  -6   2  12    4.80   12.00
   5  -2 -12   16.80    6.20
   5  -2 -12    3.60    5.40
   5  -2 -12   -1.00    4.80
  -5   2  12   -0.80    7.90
  -5   2  12    8.00   10.50
  -5   2  12   -8.40    4.70
   4  -2 -12  106.89   15.30
   4  -2 -12  119.29   14.00
   4  -2 -12  121.79   16.20
  -4   2  12  139.39   19.50
  -4   2  12  120.99   13.70
  -4   2  12  123.19   21.30
   3  -2 -12    2.90    4.70
   3  -2 -12    8.20    6.80
  -3   2  12   13.60    7.30
  -3   2  12   19.00   13.10
  -3   2  12    5.50    4.00
   2  -2 -12  180.38   20.40
   2  -2 -12  180.08   20.40
  -2   2  12  190.18   23.40
  -2   2  12  165.18   28.70
   1  -2 -12    7.20    5.00
   1  -2 -12    6.60    4.10
   1  -2 -12    3.50    6.50
  -1   2  12   -5.90   11.70
  -1   2  12    2.80    8.50
   0  -2 -12   -0.20    3.20
   0  -2 -12   -2.00    6.30
   0  -2 -12    3.90    6.90
   0   2  12   14.60    6.80
   0   2  12   -6.40   12.80
   0   2  12   -0.60   14.40
  -1  -2 -12   11.20    5.90
  -1  -2 -12    8.00    7.10
  -1  -2 -12    7.80    5.50
   1   2  12   -7.30   13.60
   1   2  12   17.50    7.60
   1   2  12   13.30   15.60
  -2  -2 -12   12.50    7.40
  -2  -2 -12   12.10    6.40
  -2  -2 -12   15.60    6.40
   2   2  12   20.20   17.00
   2   2  12  -15.50   13.50
   2   2  12    4.50    7.00
   7  -3 -12   13.70    6.70
   7  -3 -12   13.70    6.30
  -7   3  12    0.80    6.80
  -7   3  12    6.80   12.20
  -7   3  12    8.90   13.10
   6  -3 -12    3.50    5.60
   6  -3 -12    7.60    6.30
   6  -3 -12    6.90    7.70
  -6   3  12   -1.20    7.50
  -6   3  12   -6.70    5.60
  -6   3  12   10.50    9.90
   5  -3 -12    0.50    5.10
   5  -3 -12    5.00    5.20
   5  -3 -12    0.80    5.80
  -5   3  12   -6.70    4.40
  -5   3  12   -6.40    7.50
  -5   3  12    7.40   10.20
   4  -3 -12   21.40    6.20
   4  -3 -12   32.50    8.80
  -4   3  12   23.00    9.30
  -4   3  12   32.00   11.70
   3  -3 -12   -6.60    6.00
   3  -3 -12    4.90    7.10
  -3   3  12  -11.40    7.80
  -3   3  12   -6.20   11.40
   2  -3 -12    7.60    7.40
   2  -3 -12   17.70    4.80
   2  -3 -12    6.90    7.10
  -2   3  12    2.50    8.50
  -2   3  12   -1.10   14.10
   1  -3 -12   14.70    5.20
   1  -3 -12    5.10    7.20
   1  -3 -12   16.80    7.80
  -1   3  12    3.10    9.60
  -1   3  12   37.30   17.90
  -1   3  12   39.30   14.10
   0  -3 -12   13.80    5.80
   0  -3 -12    4.40    5.50
   0  -3 -12   15.60    7.90
   0   3  12   23.30   17.40
   0   3  12   13.30    9.60
   0   3  12   21.50   13.40
  -1  -3 -12   -0.10    5.80
  -1  -3 -12    4.20    7.90
  -1  -3 -12    4.60    7.50
   1   3  12   -1.40    6.40
   1   3  12   23.10   17.70
   1   3  12    2.20   16.40
   7  -4 -12   29.90    9.70
   7  -4 -12   24.20    9.50
  -7   4  12   22.20   10.50
  -7   4  12   16.80    7.20
  -7   4  12   21.00   15.50
   6  -4 -12   11.20    6.50
   6  -4 -12   17.00    9.00
   6  -4 -12    0.50    6.80
  -6   4  12    6.10    9.70
  -6   4  12   22.80   12.20
   5  -4 -12    4.20    5.10
   5  -4 -12    9.20    8.00
  -5   4  12   -0.60    9.00
  -5   4  12    9.40    9.90
   4  -4 -12   17.80    8.60
   4  -4 -12    9.20    5.50
  -4   4  12    1.80    9.30
  -4   4  12    7.20    7.50
   3  -4 -12    9.90    7.80
   3  -4 -12   18.90    6.50
  -3   4  12   37.70   16.60
  -3   4  12   11.30   12.70
  -3   4  12   11.50    9.80
   2  -4 -12   22.20    8.90
   2  -4 -12   11.80    5.30
   2  -4 -12    6.20    5.70
  -2   4  12    3.50   16.50
  -2   4  12   10.20    9.10
  -2   4  12    1.00   10.10
   1  -4 -12   30.20    6.40
   1  -4 -12   37.70    8.70
   1  -4 -12   46.80    9.00
  -1   4  12   35.00   19.80
  -1   4  12   18.00   14.30
  -1   4  12   44.90    9.80
   0  -4 -12   30.60    9.90
   0  -4 -12   20.40    7.50
   0  -4 -12   23.70    5.90
   0   4  12   27.10   15.20
   0   4  12   31.10    9.10
   0   4  12   38.70   16.50
   7  -5 -12   28.70    9.60
   6  -5 -12   19.60    7.70
   6  -5 -12   18.30    6.90
  -6   5  12   23.50   12.10
  -6   5  12   27.80   16.20
   5  -5 -12    6.60    8.00
   5  -5 -12    1.10    8.00
  -5   5  12    3.70    9.70
  -5   5  12   -5.60   18.60
  -5   5  12   -7.20    8.90
   4  -5 -12    2.10    5.90
   4  -5 -12   16.80    8.60
  -4   5  12   -5.00    8.50
  -4   5  12    9.50   11.60
  -4   5  12    6.40   13.80
   3  -5 -12    1.70    5.60
   3  -5 -12    1.60    5.60
   3  -5 -12    1.00    6.20
  -3   5  12   15.70    7.20
  -3   5  12    0.40   12.30
  -3   5  12   -0.70   14.90
   2  -5 -12    1.70    5.80
   2  -5 -12    0.80    6.40
   2  -5 -12    2.70    6.00
  -2   5  12  -14.00   14.50
  -2   5  12    1.80    9.00
  -2   5  12    0.20   12.60
   1  -5 -12    3.00    6.20
   1  -5 -12    5.40    4.60
  -1   5  12  -19.60   10.20
  -1   5  12   -6.20   17.10
  -1   5  12    9.50    9.90
   1   6 -13   25.90   10.20
   1   6 -13   27.30   11.60
  -1  -6  13    8.60    7.80
   0   6 -13   11.50    7.30
   0   6 -13    6.50   11.00
   0  -6  13    7.50    8.20
  -1   6 -13   -0.20    7.80
  -1   6 -13   19.70   12.10
   1  -6  13   -1.70    7.20
   1  -6  13   -5.50    5.30
  -2   6 -13   -2.30    4.80
  -2   6 -13    7.00    8.50
   2  -6  13  -12.10    7.30
   2  -6  13    0.20    7.40
  -3   6 -13   50.19   14.90
   3  -6  13   29.90    9.70
   3  -6  13   49.90   11.10
  -4   6 -13  105.09   18.90
  -4   6 -13   72.99   11.40
   4  -6  13   89.39   14.70
   4  -6  13   61.29   11.40
   2   5 -13  119.09   18.90
   2   5 -13  145.09   19.30
  -2  -5  13   91.19   16.40
  -2  -5  13  102.59   14.90
   1   5 -13    1.30    8.50
   1   5 -13   -1.60    6.20
  -1  -5  13   -4.90    7.40
  -1  -5  13    7.60    7.60
   0   5 -13   16.00   10.20
   0   5 -13   11.10    8.40
   0  -5  13    4.20    7.50
   0  -5  13    8.20    6.70
  -1   5 -13   51.09   13.50
  -1   5 -13   55.59    9.70
   1  -5  13   33.70   10.40
   1  -5  13   33.70    9.30
  -2   5 -13    4.90    6.90
  -2   5 -13    2.50    6.60
   2  -5  13   -8.40    6.40
   2  -5  13    7.30    8.60
  -3   5 -13  104.59   19.10
  -3   5 -13  116.39   13.80
   3  -5  13  114.59   17.20
   3  -5  13  114.69   15.40
  -4   5 -13   71.79   15.80
  -4   5 -13   84.99   11.10
   4  -5  13   74.39   11.40
   4  -5  13   56.09   13.70
   3   4 -13   76.09   12.70
   3   4 -13   99.39   15.70
   3   4 -13   80.69   13.40
  -3  -4  13   55.99   14.60
  -3  -4  13   57.29   11.70
   2   4 -13   59.89   11.50
   2   4 -13   69.29   13.60
  -2  -4  13   61.89   11.90
  -2  -4  13   55.69   11.00
   1   4 -13   20.20    9.40
   1   4 -13   17.50    6.70
  -1  -4  13   14.60    7.30
  -1  -4  13    9.10    7.20
   0   4 -13   -1.30    6.50
   0   4 -13    1.40    6.30
   0  -4  13   -9.10    5.90
   0  -4  13    4.70    8.30
  -1   4 -13    4.30    6.40
  -1   4 -13   -2.40    6.20
   1  -4  13   -1.90    8.10
   1  -4  13   18.90    7.20
  -2   4 -13    8.10    9.20
  -2   4 -13   27.80    7.40
   2  -4  13    6.10    6.70
   2  -4  13    0.70    6.20
  -3   4 -13    1.00    5.30
  -3   4 -13    7.10    9.10
   3  -4  13    7.90    7.10
   3  -4  13   -0.40    8.20
  -4   4 -13   20.80    5.80
  -4   4 -13   16.40   10.00
   4  -4  13   19.70    9.90
   4  -4  13    7.10    7.30
   4   3 -13    5.40    9.40
   4   3 -13   -3.50    7.40
  -4  -3  13   -2.50    6.40
  -4  -3  13    0.70    7.10
   3   3 -13    3.00    5.90
   3   3 -13   -4.10    6.50
   3   3 -13    5.20    7.90
  -3  -3  13    8.10   11.30
  -3  -3  13   -2.70    9.40
  -3  -3  13    7.20    6.90
   2   3 -13   77.69   12.50
   2   3 -13   69.49   11.10
   2   3 -13   58.09   12.40
  -2  -3  13   58.59    9.40
  -2  -3  13   55.99   13.30
  -2  -3  13   48.00   15.50
   1   3 -13  137.39   16.10
   1   3 -13  181.88   17.40
   1   3 -13  132.89   18.30
  -1  -3  13   87.69   16.80
  -1  -3  13   76.19   18.10
  -1  -3  13  118.09   14.60
   0   3 -13   12.00    8.40
   0   3 -13   -1.80    4.30
   0  -3  13   -3.70    6.50
   0  -3  13   -3.50    6.10
   0  -3  13    3.10    5.90
  -1   3 -13  127.69   17.60
  -1   3 -13  148.09   16.60
   1  -3  13  114.49   15.30
   1  -3  13  129.09   18.50
  -2   3 -13    2.50    4.60
  -2   3 -13    5.80    5.80
  -2   3 -13   -1.10    7.70
   2  -3  13    5.10    6.40
   2  -3  13   -1.80    5.90
  -3   3 -13   -3.40    5.30
  -3   3 -13    3.70    8.40
   3  -3  13    1.80    6.20
   3  -3  13    5.00    9.00
  -4   3 -13   50.29    8.00
  -4   3 -13   38.60   11.80
   4  -3  13   33.90   10.00
   4  -3  13   44.40    9.00
   5   2 -13   10.80    9.50
   5   2 -13   35.00    8.50
  -5  -2  13   35.30   13.30
  -5  -2  13   33.80    9.00
   4   2 -13   15.70    8.10
   4   2 -13   14.30    7.70
   4   2 -13   11.30    6.30
  -4  -2  13    7.20   12.00
  -4  -2  13   17.10   11.10
  -4  -2  13   19.20    7.70
   3   2 -13   21.00    8.00
   3   2 -13    7.80    5.70
   3   2 -13    9.10    8.00
  -3  -2  13   10.80   10.80
  -3  -2  13   11.70    6.70
  -3  -2  13   35.20   11.40
   2   2 -13  105.19   13.80
   2   2 -13   94.09   13.90
   2   2 -13   87.49   12.90
  -2  -2  13   96.89   12.90
  -2  -2  13  101.39   16.60
  -2  -2  13   93.49   18.50
   1   2 -13   63.49   10.90
   1   2 -13   54.19   11.80
   1   2 -13   91.09   12.40
  -1  -2  13   59.59   16.00
  -1  -2  13   46.30   10.90
  -1  -2  13   77.99   10.30
   0   2 -13   10.90    6.50
   0   2 -13    1.80    7.20
   0  -2  13   -3.60    5.40
   0  -2  13   -7.30    7.80
   0  -2  13   -4.70   10.10
  -1   2 -13   16.50    5.00
  -1   2 -13   18.30    6.70
  -1   2 -13   13.90    6.30
   1  -2  13    7.90    5.90
   1  -2  13    9.30   11.70
   1  -2  13   16.70    7.80
  -2   2 -13   53.29    9.10
  -2   2 -13   28.80   10.20
  -2   2 -13   47.80    7.00
   2  -2  13   38.80   11.90
   2  -2  13   25.70   14.20
   2  -2  13   46.40    8.30
  -3   2 -13   13.20    9.30
  -3   2 -13   27.10    5.70
   3  -2  13   15.70    7.60
   3  -2  13   21.80    6.70
  -4   2 -13    1.00    6.20
  -4   2 -13    0.80    6.00
   4  -2  13   -4.70    8.70
   6   1 -13   13.60    6.90
   6   1 -13   16.20    7.20
  -6  -1  13   22.60   13.30
  -6  -1  13    7.70    5.70
   5   1 -13   -4.60    5.00
   5   1 -13   -6.70    7.00
  -5  -1  13   -2.90    7.50
  -5  -1  13   -7.30    6.10
  -5  -1  13  -17.00   10.40
   4   1 -13   31.50    7.60
   4   1 -13   23.10    7.90
   4   1 -13   19.80    8.70
  -4  -1  13   31.20    8.50
  -4  -1  13   19.70   13.00
  -4  -1  13   25.90    9.90
   3   1 -13   29.60    7.20
   3   1 -13   38.00    9.60
   3   1 -13   27.00    7.00
  -3  -1  13   21.80    6.90
  -3  -1  13   24.30   11.20
  -3  -1  13   17.80   12.90
   2   1 -13    7.20    7.00
   2   1 -13    5.10    6.80
   2   1 -13   -1.20    6.30
  -2  -1  13   -0.60    3.90
  -2  -1  13   -6.50    5.00
  -2  -1  13    6.40   10.50
   1   1 -13   23.00    7.60
   1   1 -13   23.00    7.00
  -1  -1  13   20.00    5.10
  -1  -1  13   11.20   12.80
  -1  -1  13   27.30   10.20
   0   1 -13  141.89   17.50
   0   1 -13  148.69   16.50
   0  -1  13  145.69   19.20
   0  -1  13  126.99   24.20
   0  -1  13  151.48   16.20
  -1   1 -13   10.00    8.00
  -1   1 -13    7.30    6.50
  -1   1 -13   14.00    4.00
   1  -1  13    5.10    5.10
   1  -1  13   21.10    9.70
   1  -1  13   23.20   14.10
  -2   1 -13  190.28   20.00
  -2   1 -13  192.18   21.80
  -2   1 -13  209.48   19.80
   2  -1  13  173.88   23.10
   2  -1  13  149.88   26.80
  -3   1 -13    9.50    6.50
  -3   1 -13   12.70    4.80
   3  -1  13    6.80   13.30
   3  -1  13   15.00   10.00
   6   0 -13   16.80    9.40
   6   0 -13   15.20    9.10
  -6   0  13   14.30    8.10
  -6   0  13   20.90   12.30
  -6   0  13   26.00   13.40
   5   0 -13   25.10    9.20
   5   0 -13    6.20    8.10
   5   0 -13   15.40    5.40
  -5   0  13   -2.80   10.80
  -5   0  13    8.20   12.50
  -5   0  13   23.20    6.00
   4   0 -13  143.39   17.10
   4   0 -13  179.58   18.80
   4   0 -13  138.99   17.00
  -4   0  13   97.59   19.10
  -4   0  13  124.19   15.90
  -4   0  13  126.69   22.80
   3   0 -13   19.70    6.20
   3   0 -13   10.70    8.00
   3   0 -13   20.30    8.00
  -3   0  13   16.50   10.30
  -3   0  13   11.70    5.70
  -3   0  13   16.80   12.40
   2   0 -13    3.20    6.90
   2   0 -13   12.50    6.90
  -2   0  13    8.30    5.20
  -2   0  13   23.30    9.90
  -2   0  13   -3.20   10.70
   1   0 -13   17.20    7.30
   1   0 -13   12.00    6.00
  -1   0  13   19.70    5.50
  -1   0  13   18.30   14.10
  -1   0  13   29.30    8.20
   0   0 -13   21.50    5.60
   0   0 -13   19.30    7.40
   0   0 -13    3.50    7.50
   0   0  13   14.00    7.70
   0   0  13   23.80   14.90
  -1   0 -13   21.70    7.40
  -1   0 -13   18.20    5.50
  -1   0 -13    7.90    8.20
   1   0  13   21.30   16.20
   1   0  13    9.20    9.40
  -2   0 -13   72.99   13.10
  -2   0 -13   70.69   10.10
  -2   0 -13   69.09   11.60
   2   0  13   71.79   20.70
   2   0  13   51.79   20.20
   2   0  13   76.69   14.90
  -3   0 -13   14.70    9.00
  -3   0 -13   17.40    7.10
   3   0  13   20.10   15.70
   3   0  13   27.20   11.50
   6  -1 -13    5.40    8.30
   6  -1 -13    6.20    7.80
  -6   1  13  -10.00    7.10
  -6   1  13   -2.30    6.60
  -6   1  13  -12.80   10.40
   5  -1 -13   12.60    6.30
   5  -1 -13    4.70    6.00
   5  -1 -13   -5.00    7.20
  -5   1  13   -0.20    9.90
  -5   1  13    8.80    6.10
  -5   1  13    1.60    8.00
   4  -1 -13    0.80    7.80
   4  -1 -13    7.10    6.50
   4  -1 -13   16.60    8.00
  -4   1  13   15.70    6.30
  -4   1  13    0.80    6.60
  -4   1  13   13.90   13.50
   3  -1 -13   40.80    8.30
   3  -1 -13   49.20   10.20
   3  -1 -13   55.69   10.30
  -3   1  13   52.89    8.00
  -3   1  13   60.89   13.70
  -3   1  13   43.90   14.10
   2  -1 -13   34.90    8.90
   2  -1 -13   32.80    8.80
  -2   1  13   30.40   10.90
  -2   1  13   24.30    6.00
  -2   1  13   44.30   16.20
   1  -1 -13   13.00    7.70
   1  -1 -13   23.00    8.10
  -1   1  13    7.30   13.90
  -1   1  13   29.70   10.80
   0  -1 -13   69.09   11.70
   0  -1 -13   70.69    8.60
   0  -1 -13   64.39   11.90
   0   1  13   67.09   17.90
   0   1  13   75.89   13.40
  -1  -1 -13    4.00    5.60
  -1  -1 -13  -10.40    4.60
  -1  -1 -13   -3.10    4.70
   1   1  13   -9.40    9.30
   1   1  13    6.90   11.00
   1   1  13   12.60    9.80
  -2  -1 -13    7.80    6.10
  -2  -1 -13   -0.60    5.50
   2   1  13   20.20   11.00
   2   1  13    0.80   10.70
  -7   2  13   18.10   13.60
   6  -2 -13    6.00    6.10
   6  -2 -13    1.10    5.50
  -6   2  13    3.50    6.50
  -6   2  13   19.10   10.60
  -6   2  13    7.00    8.50
   5  -2 -13   12.60    7.10
   5  -2 -13   19.50    6.90
   5  -2 -13   28.00    9.80
  -5   2  13   33.10   14.90
  -5   2  13   24.50   12.50
  -5   2  13   34.40    7.30
   4  -2 -13  -11.60    6.70
   4  -2 -13    0.10    4.40
   4  -2 -13    3.00    8.10
  -4   2  13  -12.40    8.90
  -4   2  13   16.20   12.40
  -4   2  13   -3.10    4.70
   3  -2 -13  139.19   18.00
   3  -2 -13  152.98   17.70
  -3   2  13  129.39   24.20
  -3   2  13  194.38   23.30
   2  -2 -13   20.60    6.70
   2  -2 -13   14.60    7.90
  -2   2  13   46.60   17.60
  -2   2  13   28.80    8.80
   1  -2 -13   80.69   13.00
   1  -2 -13   86.19   13.00
  -1   2  13   47.50   18.80
  -1   2  13   87.09   15.50
   0  -2 -13    4.20    5.00
   0  -2 -13    8.70    5.70
   0  -2 -13   -5.50    6.60
   0   2  13   28.60   17.50
   0   2  13   11.20    9.90
   0   2  13    2.80   16.60
  -1  -2 -13    4.70    7.90
  -1  -2 -13    1.50    5.30
  -1  -2 -13   -1.80    5.50
   1   2  13   -9.90    9.70
   1   2  13   24.10   11.00
   1   2  13   -1.20   10.40
   6  -3 -13   -0.10    8.10
   6  -3 -13    0.00    4.50
   6  -3 -13    2.60    8.50
  -6   3  13   -6.70    7.20
  -6   3  13    1.20    6.90
  -6   3  13    2.20   12.70
   5  -3 -13   -3.20    6.30
   5  -3 -13  -10.50    7.70
   5  -3 -13   -1.30    7.30
  -5   3  13   11.80   11.50
  -5   3  13    6.50   12.60
   4  -3 -13    0.00    5.40
   4  -3 -13    1.40    4.90
  -4   3  13    5.70   12.80
  -4   3  13   10.00   11.00
   3  -3 -13    2.80    7.10
   3  -3 -13   11.20    6.20
  -3   3  13   28.50   15.80
  -3   3  13    5.50    7.40
   2  -3 -13   18.20    6.90
   2  -3 -13   25.00    7.40
  -2   3  13   43.00   15.10
  -2   3  13   21.40   10.50
   1  -3 -13   24.00    6.40
   1  -3 -13   29.60    9.50
   1  -3 -13   20.30    7.20
  -1   3  13   11.80   18.70
  -1   3  13   48.60   18.90
  -1   3  13   30.70   11.70
   0  -3 -13   22.10    8.90
   0  -3 -13   14.80    9.00
   0  -3 -13   23.60    6.80
   0   3  13  -13.90   15.50
   0   3  13   29.30   11.90
   0   3  13    7.30   17.90
   6  -4 -13    0.50    7.10
   6  -4 -13    7.20    8.90
   6  -4 -13    5.60    8.90
  -6   4  13   17.60   12.00
  -6   4  13   -1.00   12.80
   5  -4 -13   27.50    7.80
   5  -4 -13   23.00    8.80
  -5   4  13   22.40   12.20
  -5   4  13    6.00   14.00
   4  -4 -13   -0.90    8.10
   4  -4 -13   11.50    8.10
  -4   4  13    6.60   10.30
  -4   4  13   -0.80   10.20
   3  -4 -13    2.20    8.10
   3  -4 -13   -0.70    7.70
  -3   4  13   -7.80   13.30
  -3   4  13   -0.10    6.60
  -3   4  13   37.20   20.00
   2  -4 -13   28.70   10.10
   2  -4 -13   33.40    8.40
  -2   4  13   36.40   12.40
  -2   4  13   28.10   17.90
  -2   4  13   43.80   22.20
   1  -4 -13   36.80    7.60
   1  -4 -13   16.50    7.30
   1  -4 -13   26.10   10.00
  -1   4  13   20.50   19.90
  -1   4  13   24.00   11.80
  -1   4  13   66.59   19.20
   4  -5 -13   10.60    8.60
   1   5 -14   65.69   13.70
   1   5 -14   84.59   16.00
  -1  -5  14   55.29   13.00
  -1  -5  14   40.40   11.00
   0   5 -14   -4.20    9.80
   0   5 -14    1.50    7.90
   0  -5  14   -8.70    8.30
   0  -5  14   -0.90    7.60
  -1   5 -14   11.00    8.10
  -1   5 -14    8.00   10.50
   1  -5  14   20.90   10.10
   1  -5  14    2.40    7.70
  -2   5 -14   35.70    9.50
  -2   5 -14   48.90   13.60
   2  -5  14   45.40   10.00
   2  -5  14   36.70   12.10
   2   4 -14   -1.60    8.60
   2   4 -14   -3.70    9.20
  -2  -4  14    3.10    7.90
  -2  -4  14    8.10    9.90
   1   4 -14    3.80    8.50
   1   4 -14    4.30    6.80
  -1  -4  14    9.50    7.50
  -1  -4  14    0.80    6.50
   0   4 -14   30.70    9.50
   0   4 -14   32.50   11.50
   0  -4  14   16.30   10.60
   0  -4  14   32.90    9.00
  -1   4 -14   -1.30    6.60
  -1   4 -14    9.30   10.10
   1  -4  14   21.50    8.00
   1  -4  14   12.20   10.30
  -2   4 -14    5.80    9.40
  -2   4 -14   -0.10    7.40
   2  -4  14   13.00    7.70
   2  -4  14    5.20   10.10
  -3   4 -14   -2.10    6.60
   3  -4  14   11.60   10.20
   3  -4  14    1.90    5.10
   3   3 -14    4.00    8.60
   3   3 -14    4.60    8.50
   3   3 -14    5.50    7.60
  -3  -3  14    9.20   10.60
  -3  -3  14   19.80   13.20
  -3  -3  14    5.10    7.50
   2   3 -14   71.89   12.50
   2   3 -14   49.40   12.50
   2   3 -14   85.99   12.70
  -2  -3  14   47.60   11.50
  -2  -3  14   31.20   15.60
  -2  -3  14   47.10   10.40
   1   3 -14   18.20    8.20
   1   3 -14   22.90   10.30
  -1  -3  14   19.30    7.70
  -1  -3  14   23.80    9.00
   0   3 -14  203.78   25.20
   0   3 -14  191.48   22.70
   0  -3  14  211.68   22.30
   0  -3  14  200.88   24.60
  -1   3 -14    5.80    6.90
  -1   3 -14   12.40    9.00
   1  -3  14   10.20    6.70
   1  -3  14    8.10   10.00
  -2   3 -14   46.90   10.20
   2  -3  14   26.60    8.40
   2  -3  14   40.60   12.40
  -3   3 -14    0.50    6.30
  -3   3 -14   14.00    6.50
   3  -3  14   10.80    8.00
   3  -3  14   -5.00    6.70
   4   2 -14    0.70    7.70
   4   2 -14   -4.90    7.50
   4   2 -14   -4.40    7.70
  -4  -2  14    0.30   10.70
  -4  -2  14    2.80    5.30
  -4  -2  14    4.80   12.70
   3   2 -14   20.10    8.90
   3   2 -14   24.60    9.00
   3   2 -14   13.10    8.20
  -3  -2  14    3.70   12.50
  -3  -2  14   15.00    7.50
  -3  -2  14   14.80    8.90
   2   2 -14    0.00    7.90
   2   2 -14    2.40    7.30
   2   2 -14   -1.40    4.90
  -2  -2  14    7.60    8.30
  -2  -2  14    7.00    6.80
  -2  -2  14   -5.60    8.00
   1   2 -14   41.10    9.50
   1   2 -14   52.99    9.30
  -1  -2  14   38.90   10.50
  -1  -2  14   56.79    9.50
  -1  -2  14   46.20   16.10
   0   2 -14   65.99   12.10
   0   2 -14   83.99   12.60
   0  -2  14   95.59   20.00
   0  -2  14   79.69   11.20
   0  -2  14   72.39   14.80
  -1   2 -14   23.70    7.80
  -1   2 -14   16.20    9.10
   1  -2  14   20.30   10.50
   1  -2  14   13.80    6.60
   1  -2  14   18.40   14.20
  -2   2 -14   -5.00    5.20
  -2   2 -14   -8.20    4.90
   2  -2  14    1.40    5.80
   2  -2  14    4.00    7.20
  -3   2 -14   -5.20    5.90
  -3   2 -14   11.40    7.30
   3  -2  14   18.50   10.70
   5   1 -14   19.50    8.10
   5   1 -14   20.10    9.60
  -5  -1  14   26.90   13.70
  -5  -1  14   24.80    9.10
  -5  -1  14   30.10   12.70
   4   1 -14    7.80    8.70
   4   1 -14   26.70    8.90
   4   1 -14   41.30   10.40
  -4  -1  14   17.60    7.70
  -4  -1  14   30.30   13.00
  -4  -1  14   47.80   16.40
   3   1 -14    8.20    8.90
   3   1 -14   21.50    8.90
   3   1 -14   18.20    6.70
  -3  -1  14   -2.30   12.00
  -3  -1  14   20.30    7.30
  -3  -1  14   -0.90    9.50
   2   1 -14   67.39   11.70
   2   1 -14   29.40    8.00
   2   1 -14   38.60   10.30
  -2  -1  14   30.60    8.00
  -2  -1  14   59.99   13.60
  -2  -1  14   28.10   14.80
   1   1 -14   32.20    8.70
   1   1 -14   21.80    7.40
  -1  -1  14   19.80    6.70
  -1  -1  14   46.70   16.10
  -1  -1  14   16.30   10.40
   0   1 -14    1.80    5.60
   0   1 -14    9.20    7.00
   0  -1  14    8.70   13.20
   0  -1  14    6.70    4.20
   0  -1  14   -7.10    6.50
  -1   1 -14   81.89   12.90
  -1   1 -14   83.69   14.40
   1  -1  14  101.69   22.90
   1  -1  14   87.39   15.60
  -2   1 -14    6.80    5.70
  -2   1 -14   -6.40    5.30
   2  -1  14   -9.20    9.70
   2  -1  14    0.40   13.30
   5   0 -14   38.50   11.20
   5   0 -14   43.70   11.00
  -5   0  14   36.50    9.50
  -5   0  14   61.19   15.20
  -5   0  14   20.10   15.30
   4   0 -14   10.40    6.50
   4   0 -14   10.30    5.60
   4   0 -14   15.10    8.90
  -4   0  14    0.50    9.40
  -4   0  14   15.70    9.40
  -4   0  14    7.00    6.70
   3   0 -14   32.00    9.50
   3   0 -14   31.80    8.70
   3   0 -14   36.80    9.30
  -3   0  14   34.40    7.60
  -3   0  14   10.60   11.60
  -3   0  14   17.60    8.80
   2   0 -14   11.80    7.60
   2   0 -14    5.60    7.80
  -2   0  14   11.40    5.80
  -2   0  14    4.40    7.10
  -2   0  14    1.40   12.80
   1   0 -14   15.70    7.80
   1   0 -14   -4.50    5.20
  -1   0  14   -5.10    8.70
  -1   0  14   22.20   14.60
   0   0 -14    5.80    6.00
   0   0 -14   -7.70    6.60
   0   0  14   18.90   15.60
   0   0  14   17.00   10.50
  -1   0 -14   11.00    7.50
  -1   0 -14    7.70    8.50
  -1   0 -14    8.40    5.60
   1   0  14    6.00   11.20
   1   0  14   21.90    8.90
  -2   0 -14    9.00    6.20
  -2   0 -14   -5.70    8.00
   2   0  14    0.90   11.60
   2   0  14  -15.00    9.20
   5  -1 -14    5.80    8.40
   5  -1 -14   13.30    9.10
   5  -1 -14   -2.60    6.50
  -5   1  14    6.70   13.40
  -5   1  14   -2.40    7.40
  -5   1  14   -1.30    6.30
   4  -1 -14   33.20   10.20
   4  -1 -14   41.20   10.90
   4  -1 -14   28.60    8.60
  -4   1  14   17.20   12.10
  -4   1  14   23.40    7.30
  -4   1  14   22.20   14.90
   3  -1 -14    0.30    7.10
   3  -1 -14   -7.10    7.30
  -3   1  14    2.30   10.00
  -3   1  14    8.30   13.70
  -3   1  14   -3.60    5.80
   2  -1 -14   30.10    7.50
   2  -1 -14   17.10    8.60
  -2   1  14   24.40   12.80
  -2   1  14   13.90    7.80
   1  -1 -14   17.20    6.80
   1  -1 -14   18.50    8.60
  -1   1  14   43.60   15.00
  -1   1  14    9.40   10.40
   0  -1 -14    2.60    8.30
   0  -1 -14    4.30    7.50
   0   1  14    1.30    7.40
   0   1  14  -16.70   14.00
  -1  -1 -14   -3.50    7.20
  -1  -1 -14    3.10    5.70
  -1  -1 -14    5.60    8.70
   1   1  14    4.10   15.60
   1   1  14   -0.50   10.50
   1   1  14  -15.90   15.00
   5  -2 -14   -0.90    6.80
   5  -2 -14   -4.80    5.40
   5  -2 -14    2.10    6.00
  -5   2  14    9.80    8.50
  -5   2  14   -5.40    8.60
   4  -2 -14   14.40    8.00
   4  -2 -14   23.60    7.60
  -4   2  14   30.80   10.20
  -4   2  14   29.20   13.70
   3  -2 -14    5.50    5.90
   3  -2 -14   -4.50    7.30
  -3   2  14   -4.40   14.20
  -3   2  14   -9.00    6.90
   2  -2 -14   27.20    7.80
   2  -2 -14   32.50    9.60
  -2   2  14   22.90   16.90
  -2   2  14   41.10   12.70
   1  -2 -14   43.70   10.70
   1  -2 -14   42.50    9.20
  -1   2  14   51.19   14.10
  -1   2  14   53.49   21.00
   0  -2 -14   -8.00    7.50
   0  -2 -14   -4.10    7.50
   0  -2 -14    7.30    7.70
   0   2  14   -9.60    9.50
   0   2  14    2.60   17.30
   0   2  14  -12.20   15.80
   5  -3 -14   -8.00    5.20
   5  -3 -14   -5.30    6.80
  -5   3  14   -2.90   10.50
  -5   3  14    8.10   14.70
   4  -3 -14   -1.80    8.30
   4  -3 -14   -4.50    5.00
  -4   3  14  -12.20   13.40
  -4   3  14   -6.80   10.20
   3  -3 -14   -2.90    8.30
   3  -3 -14   -8.20    7.20
  -3   3  14    0.80   10.40
  -3   3  14    1.00   14.00
   2  -3 -14    0.80    8.50
   2  -3 -14    0.30    5.60
  -2   3  14   -9.00   17.90
  -2   3  14    0.50    7.50
  -2   3  14  -11.50   10.60
   2   3 -15    7.00    6.40
   2   3 -15   19.90   10.00
  -2  -3  15   15.10   11.30
  -2  -3  15    2.00    7.80
   1   3 -15   87.99   15.30
   1   3 -15   73.89   13.00
  -1  -3  15   61.09   13.30
  -1  -3  15   60.09   11.60
   0   3 -15   -5.90    9.00
   0   3 -15   21.90    8.40
   0  -3  15    6.60    8.00
   0  -3  15    5.90    7.50
  -1   3 -15   80.29   13.70
  -1   3 -15   65.59   12.00
   1  -3  15   64.59   13.50
   1  -3  15   63.89   11.40
   3   2 -15    0.60    8.30
   3   2 -15    7.60    9.00
   3   2 -15    9.50    8.90
  -3  -2  15    9.20    8.00
  -3  -2  15    9.60   14.50
  -3  -2  15   -0.70   11.10
   2   2 -15    4.70    8.50
   2   2 -15    2.10    6.00
   2   2 -15    2.20    5.60
  -2  -2  15    7.60    9.70
  -2  -2  15  -10.50   10.50
  -2  -2  15    2.40    7.10
   1   2 -15   15.40    9.30
   1   2 -15   -0.80    7.60
  -1  -2  15   16.60   14.10
  -1  -2  15    0.20    4.60
  -1  -2  15   -5.60    7.30
   0   2 -15   -5.20    4.80
   0   2 -15    2.70    8.40
   0  -2  15   -1.90    6.30
   0  -2  15  -12.70    9.50
  -1   2 -15    6.80    9.40
  -1   2 -15   11.80    7.70
   1  -2  15   -2.80    9.80
   1  -2  15    0.60    6.40
   3   1 -15   42.00   10.70
   3   1 -15   22.80    7.90
   3   1 -15   39.00   11.10
  -3  -1  15   43.40   13.90
  -3  -1  15   10.10    7.90
  -3  -1  15   46.20   18.10
   2   1 -15   20.30    8.80
   2   1 -15   13.00    9.40
  -2  -1  15   12.70   10.90
  -2  -1  15   20.40    7.70
  -2  -1  15    9.30   11.50
   1   1 -15    9.40    6.30
   1   1 -15    1.70    5.90
  -1  -1  15   17.40    5.50
  -1  -1  15    3.50   10.30
  -1  -1  15  -12.30   11.90
   0   1 -15   22.50    8.90
   0   1 -15   16.90    7.40
   0  -1  15   18.50   17.70
   0  -1  15   23.60   12.00
  -1   1 -15    8.90    9.10
  -1   1 -15   10.20    8.20
   1  -1  15    4.80   15.10
   1  -1  15   21.70    9.00
   4   0 -15   46.70   10.70
   4   0 -15   42.90   11.50
   4   0 -15   38.60   11.90
  -4   0  15   44.60   15.10
  -4   0  15   54.89    9.70
  -4   0  15   37.20   17.90
   3   0 -15   34.60   10.00
   3   0 -15   25.10    7.90
  -3   0  15    6.20   11.30
  -3   0  15   38.00   17.60
  -3   0  15   23.10    7.50
   2   0 -15    2.20    6.10
   2   0 -15    7.60    8.40
  -2   0  15   -5.80   13.00
  -2   0  15    8.50   11.10
   1   0 -15   -3.40    5.70
   1   0 -15   -3.00    8.00
  -1   0  15  -18.60   13.10
  -1   0  15    2.80   10.20
   0   0 -15    8.90    8.30
   0   0 -15    7.90    6.90
   0   0  15   -6.30   14.00
   0   0  15    3.50   10.90
   4  -1 -15    2.40    7.50
  -4   1  15   -8.10   10.30
   3  -1 -15   71.09   12.70
   3  -1 -15   35.20   10.70
  -3   1  15   41.20   15.30
  -3   1  15   80.39   15.00
   2  -1 -15   42.60    9.00
   2  -1 -15   30.10    8.70
  -2   1  15   36.10   13.00
  -2   1  15   58.29   21.20
   1  -1 -15   25.70   10.20
   1  -1 -15   23.00    9.60
  -1   1  15   38.40   14.00
  -1   1  15   20.20   14.80
   0   0   0    0.00    0.00






_computing_structure_solution     'SHELXT 2014/5 (Sheldrick, 2014)'
_computing_structure_solution     'SHELXT 2018/2 (Sheldrick, 2018)'
_computing_structure_solution     'SHELXT 2018/2 (Sheldrick, 2018)'
_computing_structure_solution     'SHELXT 2018/2 (Sheldrick, 2018)'
_computing_structure_solution     'SHELXT 2018/2 (Sheldrick, 2018)'
_computing_structure_solution     'SHELXT 2018/2 (Sheldrick, 2018)'
;
_shelx_hkl_checksum              53694
loop_
_space_group_symop_operation_xyz
'x, y, z'
'-x, -y, -z'
loop_
_atom_site_label
_atom_site_type_symbol
_atom_site_fract_x
_atom_site_fract_y
_atom_site_fract_z
_atom_site_U_iso_or_equiv
_atom_site_adp_type
_atom_site_occupancy
_atom_site_site_symmetry_order
_atom_site_calc_flag
_atom_site_refinement_flags_posn
_atom_site_refinement_flags_adp
_atom_site_refinement_flags_occupancy
_atom_site_disorder_assembly
_atom_site_disorder_group
Br1 Br 1.23630(6) 0.35798(6) 0.18591(3) 0.04500(16) Uani 1 1 d . . . . .
Br2 Br 1.28917(6) 0.82034(6) 0.28504(4) 0.04849(16) Uani 1 1 d . . . . .
Cu1 Cu 1.09767(6) 0.52295(7) 0.29024(4) 0.03318(16) Uani 1 1 d . . . . .
O1 O 0.9041(3) 0.4729(4) 0.1687(2) 0.0371(7) Uani 1 1 d . . . . .
N1 N 1.2050(4) 0.5148(4) 0.4369(2) 0.0319(8) Uani 1 1 d . . . . .
N2 N 0.9054(4) 0.3129(4) 0.3182(2) 0.0304(8) Uani 1 1 d . . . . .
N3 N 0.7508(4) 0.2284(4) 0.2429(3) 0.0328(8) Uani 1 1 d . . . . .
N4 N 0.3067(4) 0.0534(5) 0.0230(3) 0.0414(9) Uani 1 1 d . . . . .
H4 H 0.210715 -0.032922 0.032684 0.050 Uiso 1 1 calc R . . . .
C8 C 0.7674(5) 0.3265(5) 0.1704(3) 0.0308(9) Uani 1 1 d . . . . .
C6 C 0.9255(5) 0.2510(5) 0.4009(3) 0.0322(10) Uani 1 1 d . . . . .
C5 C 1.0996(5) 0.3675(6) 0.4716(3) 0.0315(10) Uani 1 1 d . . . . .
C9 C 0.6074(5) 0.2573(5) 0.0861(3) 0.0317(10) Uani 1 1 d . . . . .
C10 C 0.4511(5) 0.1189(5) 0.0987(3) 0.0360(10) Uani 1 1 d . . . . .
H10 H 0.446389 0.071197 0.159844 0.043 Uiso 1 1 calc R . . . .
C1 C 1.3638(6) 0.6274(6) 0.4955(3) 0.0450(12) Uani 1 1 d . . . . .
H1 H 1.436728 0.728088 0.471212 0.054 Uiso 1 1 calc R . . . .
C4 C 1.1535(6) 0.3312(6) 0.5662(3) 0.0435(11) Uani 1 1 d . . . . .
H4A H 1.080147 0.229163 0.589117 0.052 Uiso 1 1 calc R . . . .
C13 C 0.6078(6) 0.3225(6) -0.0061(3) 0.0472(12) Uani 1 1 d . . . . .
H13 H 0.711594 0.414932 -0.017152 0.057 Uiso 1 1 calc R . . . .
C7 C 0.7898(6) 0.0832(5) 0.4256(3) 0.0446(12) Uani 1 1 d . . . . .
H7A H 0.686143 0.029727 0.370464 0.067 Uiso 1 1 calc GR . . . .
H7B H 0.760748 0.106041 0.492492 0.067 Uiso 1 1 calc GR . . . .
H7C H 0.835312 0.005773 0.429873 0.067 Uiso 1 1 calc GR . . . .
C2 C 1.4240(6) 0.5995(7) 0.5912(4) 0.0491(12) Uani 1 1 d . . . . .
H2 H 1.534643 0.681623 0.631492 0.059 Uiso 1 1 calc R . . . .
C11 C 0.3033(6) 0.1143(6) -0.0662(4) 0.0498(13) Uani 1 1 d . . . . .
H11 H 0.199495 0.064471 -0.116743 0.060 Uiso 1 1 calc R . . . .
C3 C 1.3198(6) 0.4509(7) 0.6258(4) 0.0527(13) Uani 1 1 d . . . . .
H3 H 1.359837 0.429362 0.689453 0.063 Uiso 1 1 calc R . . . .
C12 C 0.4550(6) 0.2516(7) -0.0827(4) 0.0565(14) Uani 1 1 d . . . . .
H12 H 0.455446 0.296772 -0.144491 0.068 Uiso 1 1 calc R . . . .
H2A H 1.111880 0.138998 0.277459 0.35(7) Uiso 1 1 d . . . . .
O2 O 1.0277(4) -0.0046(6) 0.2880(3) 0.1074(16) Uani 1 1 d G . . . .
H2B H 1.127969 0.002357 0.273998 0.40(8) Uiso 1 1 d G . . . .
H3A H -0.062401 -0.270940 -0.021058 0.094(19) Uiso 1 1 d G . . . .
O3 O 0.0123(4) -0.2305(5) 0.0475(3) 0.0843(13) Uani 1 1 d G . . . .
H3B H -0.014140 -0.312890 0.089442 0.19(4) Uiso 1 1 d G . . . .
loop_
_atom_site_aniso_label
_atom_site_aniso_U_11
_atom_site_aniso_U_22
_atom_site_aniso_U_33
_atom_site_aniso_U_23
_atom_site_aniso_U_13
_atom_site_aniso_U_12
Br1 0.0526(3) 0.0609(4) 0.0337(3) 0.0135(2) 0.0093(2) 0.0370(3)
Br2 0.0419(3) 0.0395(3) 0.0511(3) 0.0217(2) 0.0073(2) 0.0090(2)
Cu1 0.0298(3) 0.0360(3) 0.0308(3) 0.0157(2) 0.0041(2) 0.0131(2)
O1 0.0284(15) 0.0370(18) 0.0385(17) 0.0197(14) 0.0022(13) 0.0098(14)
N1 0.0317(19) 0.036(2) 0.0285(19) 0.0086(16) 0.0022(16) 0.0184(17)
N2 0.0307(19) 0.034(2) 0.0261(18) 0.0102(16) 0.0033(15) 0.0160(16)
N3 0.0336(19) 0.029(2) 0.032(2) 0.0128(16) 0.0059(16) 0.0127(16)
N4 0.0270(19) 0.040(2) 0.048(2) 0.0018(19) 0.0043(17) 0.0115(17)
C8 0.029(2) 0.033(3) 0.031(2) 0.0097(19) 0.0088(18) 0.015(2)
C6 0.044(3) 0.032(3) 0.032(2) 0.012(2) 0.014(2) 0.025(2)
C5 0.039(2) 0.039(3) 0.028(2) 0.011(2) 0.0085(19) 0.027(2)
C9 0.027(2) 0.038(3) 0.029(2) 0.009(2) 0.0028(18) 0.016(2)
C10 0.034(2) 0.042(3) 0.031(2) 0.006(2) 0.0055(19) 0.020(2)
C1 0.040(3) 0.055(3) 0.040(3) 0.010(2) 0.002(2) 0.025(2)
C4 0.058(3) 0.050(3) 0.034(3) 0.019(2) 0.012(2) 0.034(3)
C13 0.035(3) 0.050(3) 0.046(3) 0.023(2) 0.005(2) 0.012(2)
C7 0.050(3) 0.037(3) 0.043(3) 0.020(2) 0.010(2) 0.017(2)
C2 0.049(3) 0.058(4) 0.040(3) -0.002(3) -0.011(2) 0.034(3)
C11 0.034(3) 0.060(4) 0.048(3) 0.002(3) -0.008(2) 0.024(3)
C3 0.063(3) 0.070(4) 0.035(3) 0.015(3) -0.002(2) 0.043(3)
C12 0.052(3) 0.065(4) 0.045(3) 0.020(3) -0.005(2) 0.026(3)
O2 0.136(4) 0.106(4) 0.138(4) 0.064(3) 0.081(3) 0.086(3)
O3 0.057(2) 0.078(3) 0.058(2) 0.030(2) -0.0185(19) -0.007(2)
loop_
_atom_type_symbol
_atom_type_description
_atom_type_scat_dispersion_real
_atom_type_scat_dispersion_imag
_atom_type_scat_source
C C 0.0033 0.0016 'International Tables Vol C Tables 4.2.6.8 and 6.1.1.4'
H H 0.0000 0.0000 'International Tables Vol C Tables 4.2.6.8 and 6.1.1.4'
Br Br -0.2901 2.4595 'International Tables Vol C Tables 4.2.6.8 and 6.1.1.4'
Cu Cu 0.3201 1.2651 'International Tables Vol C Tables 4.2.6.8 and 6.1.1.4'
N N 0.0061 0.0033 'International Tables Vol C Tables 4.2.6.8 and 6.1.1.4'
O O 0.0106 0.0060 'International Tables Vol C Tables 4.2.6.8 and 6.1.1.4'
loop_
_geom_angle_atom_site_label_1
_geom_angle_atom_site_label_2
_geom_angle_atom_site_label_3
_geom_angle
_geom_angle_site_symmetry_1
_geom_angle_site_symmetry_3
Br2 Cu1 Br1 103.09(2) . .
O1 Cu1 Br1 97.22(8) . .
O1 Cu1 Br2 97.93(8) . .
O1 Cu1 N1 156.70(12) . .
N1 Cu1 Br1 93.88(9) . .
N1 Cu1 Br2 99.41(10) . .
N2 Cu1 Br1 95.23(10) . .
N2 Cu1 Br2 161.68(10) . .
N2 Cu1 O1 79.33(12) . .
N2 Cu1 N1 79.31(13) . .
C8 O1 Cu1 108.8(2) . .
C5 N1 Cu1 112.6(3) . .
C1 N1 Cu1 128.2(3) . .
C1 N1 C5 119.0(4) . .
N3 N2 Cu1 117.2(2) . .
C6 N2 Cu1 120.6(3) . .
C6 N2 N3 122.1(3) . .
C8 N3 N2 108.0(3) . .
C11 N4 C10 123.5(4) . .
O1 C8 N3 126.2(4) . .
O1 C8 C9 119.2(3) . .
N3 C8 C9 114.6(3) . .
N2 C6 C5 112.2(4) . .
N2 C6 C7 124.8(4) . .
C5 C6 C7 123.0(4) . .
N1 C5 C6 114.8(3) . .
N1 C5 C4 121.6(4) . .
C4 C5 C6 123.6(4) . .
C10 C9 C8 119.1(4) . .
C13 C9 C8 123.1(4) . .
C13 C9 C10 117.8(4) . .
N4 C10 C9 119.9(4) . .
N1 C1 C2 122.0(5) . .
C5 C4 C3 118.3(4) . .
C9 C13 C12 120.6(4) . .
C3 C2 C1 119.2(4) . .
N4 C11 C12 118.9(4) . .
C2 C3 C4 119.8(4) . .
C11 C12 C13 119.2(4) . .
loop_
_geom_bond_atom_site_label_1
_geom_bond_atom_site_label_2
_geom_bond_distance
_geom_bond_site_symmetry_2
Br1 Cu1 2.6979(7) .
Br2 Cu1 2.3654(7) .
Cu1 O1 2.015(3) .
Cu1 N1 2.037(3) .
Cu1 N2 1.930(3) .
O1 C8 1.282(4) .
N1 C5 1.352(5) .
N1 C1 1.329(5) .
N2 N3 1.381(4) .
N2 C6 1.284(5) .
N3 C8 1.320(5) .
N4 C10 1.335(5) .
N4 C11 1.326(5) .
C8 C9 1.486(5) .
C6 C5 1.480(6) .
C6 C7 1.493(5) .
C5 C4 1.383(5) .
C9 C10 1.379(5) .
C9 C13 1.377(5) .
C1 C2 1.380(6) .
C4 C3 1.387(6) .
C13 C12 1.386(6) .
C2 C3 1.356(7) .
C11 C12 1.369(6) .
loop_
_geom_hbond_atom_site_label_D
_geom_hbond_atom_site_label_H
_geom_hbond_atom_site_label_A
_geom_hbond_distance_DH
_geom_hbond_distance_HA
_geom_hbond_distance_DA
_geom_hbond_angle_DHA
_geom_hbond_site_symmetry_A
_geom_hbond_publ_flag
N4 H4 O3 0.86 1.83 2.692(5) 174.7 . yes
O2 H2A Br1 1.16 2.264(11) 3.356(5) 156.0(18) . yes
O2 H2B Br2 0.91 2.65 3.382(4) 138.9 1_545 yes
O3 H3A Br1 0.95 2.28 3.230(3) 178.0 2_655 yes
O3 H3B O1 0.91 2.11 3.021(5) 172.7 1_445 yes
