#------------------------------------------------------------------------------
#$Date: 2021-08-31 11:41:37 +0300 (Tue, 31 Aug 2021) $
#$Revision: 268319 $
#$URL: file:///home/coder/svn-repositories/cod/cif/1/56/44/1564475.cif $
#------------------------------------------------------------------------------
#
# This file is available in the Crystallography Open Database (COD),
# http://www.crystallography.net/
#
# All data on this site have been placed in the public domain by the
# contributors.
#
data_1564475
loop_
_publ_author_name
'Yu, Ji-Ming'
'Cai, Ting'
'Ma, Zhong-Jie'
'Wang, Fei'
'Wang, Huan'
'Yu, Ji-Peng'
'Xiao, Lu-Lu'
'Cheng, Fang-Fang'
'Xiong, Wei-Wei'
_publ_section_title
;
 Using thiol-amine solvent mixture to prepare main group heterometallic
 chalcogenides
;
_journal_name_full               'Inorganica Chimica Acta'
_journal_page_first              119698
_journal_paper_doi               10.1016/j.ica.2020.119698
_journal_volume                  509
_journal_year                    2020
_chemical_formula_moiety         'In2.60 S2 Se6 Sn1.40'
_chemical_formula_sum            'In2.6 S2 Se6 Sn1.4'
_chemical_formula_weight         1002.58
_space_group_crystal_system      tetragonal
_space_group_IT_number           137
_space_group_name_Hall           '-P 4ac 2a'
_space_group_name_H-M_alt        'P 42/n m c :2'
_atom_sites_solution_hydrogens   .
_cell_angle_alpha                90
_cell_angle_beta                 90
_cell_angle_gamma                90
_cell_formula_units_Z            2
_cell_length_a                   7.8752(3)
_cell_length_b                   7.8752(3)
_cell_length_c                   25.283(2)
_cell_measurement_reflns_used    870
_cell_measurement_temperature    293(2)
_cell_measurement_theta_max      23.7550
_cell_measurement_theta_min      3.5310
_cell_volume                     1568.02(15)
_computing_cell_refinement       'CrysAlisPro 1.171.38.41 (Rigaku OD, 2015)'
_computing_data_collection       'CrysAlisPro 1.171.38.41 (Rigaku OD, 2015)'
_computing_data_reduction        'CrysAlisPro 1.171.38.41 (Rigaku OD, 2015)'
_computing_molecular_graphics    'DIAMOND. Version 3.0. Crystal Impact'
_computing_publication_material  'Bruker SHELXTL'
_computing_structure_refinement  'SHELXL-2016/6 (Sheldrick, 2016)'
_computing_structure_solution    'SHELXL-2016/6 (Sheldrick, 2016)'
_diffrn_ambient_temperature      293(2)
_diffrn_measured_fraction_theta_full 0.993
_diffrn_measured_fraction_theta_max 0.987
_diffrn_measurement_device_type  'Xcalibur, Eos, Gemini'
_diffrn_measurement_method       '\w scans'
_diffrn_radiation_type           MoK\a
_diffrn_radiation_wavelength     0.71073
_diffrn_reflns_av_R_equivalents  0.1113
_diffrn_reflns_av_unetI/netI     0.0669
_diffrn_reflns_Laue_measured_fraction_full 0.993
_diffrn_reflns_Laue_measured_fraction_max 0.987
_diffrn_reflns_limit_h_max       9
_diffrn_reflns_limit_h_min       -9
_diffrn_reflns_limit_k_max       9
_diffrn_reflns_limit_k_min       -9
_diffrn_reflns_limit_l_max       29
_diffrn_reflns_limit_l_min       -32
_diffrn_reflns_number            7753
_diffrn_reflns_point_group_measured_fraction_full 0.993
_diffrn_reflns_point_group_measured_fraction_max 0.987
_diffrn_reflns_theta_full        25.242
_diffrn_reflns_theta_max         26.978
_diffrn_reflns_theta_min         3.659
_exptl_absorpt_coefficient_mu    10.066
_exptl_absorpt_correction_T_max  1.00000
_exptl_absorpt_correction_T_min  0.11480
_exptl_absorpt_correction_type   multi-scan
_exptl_crystal_colour            yellow
_exptl_crystal_density_diffrn    2.123
_exptl_crystal_description       flake
_exptl_crystal_F_000             867
_exptl_crystal_size_max          0.15
_exptl_crystal_size_mid          0.12
_exptl_crystal_size_min          0.06
_refine_diff_density_max         0.752
_refine_diff_density_min         -0.832
_refine_diff_density_rms         0.180
_refine_ls_extinction_coef       .
_refine_ls_extinction_method     none
_refine_ls_goodness_of_fit_ref   1.003
_refine_ls_hydrogen_treatment    undef
_refine_ls_matrix_type           full
_refine_ls_number_parameters     20
_refine_ls_number_reflns         973
_refine_ls_number_restraints     0
_refine_ls_restrained_S_all      1.003
_refine_ls_R_factor_all          0.1142
_refine_ls_R_factor_gt           0.0630
_refine_ls_shift/su_max          0.000
_refine_ls_shift/su_mean         0.000
_refine_ls_structure_factor_coef Fsqd
_refine_ls_weighting_details
'w=1/[\s^2^(Fo^2^)+(0.0838P)^2^] where P=(Fo^2^+2Fc^2^)/3'
_refine_ls_weighting_scheme      calc
_refine_ls_wR_factor_gt          0.1705
_refine_ls_wR_factor_ref         0.1967
_reflns_Friedel_coverage         0.000
_reflns_Friedel_fraction_full    .
_reflns_Friedel_fraction_max     .
_reflns_number_gt                478
_reflns_number_total             973
_reflns_threshold_expression     'I > 2\s(I)'
_cod_data_source_file            ICA_2020-509-119698.cif
_cod_data_source_block           compound-1
_cod_original_cell_volume        1568.00(18)
_cod_original_sg_symbol_H-M      'P 42/n m c'
_cod_original_formula_sum        'In2.60 S2 Se6 Sn1.40'
_cod_database_code               1564475
_shelx_space_group_comment
;
The symmetry employed for this shelxl refinement is uniquely defined
by the following loop, which should always be used as a source of
symmetry information in preference to the above space-group names.
They are only intended as comments.
;
_shelx_res_file
;
TITL x in P4(2)/nmc
    x_sq.res
    created by SHELXL-2016/6 at 15:26:29 on 09-Aug-2019
CELL 0.71073   7.8752   7.8752  25.2827  90.000  90.000  90.000
ZERR   2.00   0.0003   0.0003   0.0021   0.000   0.000   0.000
LATT  1
SYMM 0.5-X, 0.5-Y, Z
SYMM 0.5-Y, X, 0.5+Z
SYMM Y, 0.5-X, 0.5+Z
SYMM -X, 0.5+Y, -Z
SYMM 0.5+X, -Y, -Z
SYMM 0.5+Y, 0.5+X, 0.5-Z
SYMM -Y, -X, 0.5-Z
SFAC C H N S SE IN SN
UNIT 0 0 0 4 12 5.2 2.8

omit -2 54
omit 0 2 0
omit 0 1 3

eadp sn1 in1
exyz sn1 in1
eadp se1 s1
exyz se1 s1
eadp se2 s2
exyz se2 s2
eadp se3 s3
exyz se3 s3

L.S. 10
acta
BOND
FMAP 2
PLAN 20

ABIN
ACTA
WGHT    0.083800
FVAR       0.18369
PART   1
SN1   7    0.499119    0.750000    0.195178    10.17500    0.05015    0.05284 =
         0.08704    0.00000    0.00986    0.00000
PART   2
IN1   6    0.499119    0.750000    0.195178    10.32500    0.05015    0.05284 =
         0.08704    0.00000    0.00986    0.00000
PART   0
SE1   5    0.750000    0.750000    0.132371    10.18750    0.04419    0.10787 =
         0.06205    0.00000    0.00000    0.00000
S1    4    0.750000    0.750000    0.132371    10.06250    0.04419    0.10787 =
         0.06205    0.00000    0.00000    0.00000
SE2   5    0.516612    0.483388    0.250000    10.37500    0.06625    0.06625 =
         0.13705    0.01964    0.01964    0.00806
S2    4    0.516612    0.483388    0.250000    10.12500    0.06625    0.06625 =
         0.13705    0.01964    0.01964    0.00806
SE3   5    0.250000    0.750000    0.132059    10.18750    0.05060    0.10524 =
         0.07078    0.00000    0.00000    0.00000
S3    4    0.250000    0.750000    0.132059    10.06250    0.05060    0.10524 =
         0.07078    0.00000    0.00000    0.00000

REM  x in P4(2)/nmc
REM R1 =  0.0914 for     479 Fo > 4sig(Fo)  and  0.1542 for all     974 data
REM     25 parameters refined using      0 restraints

HKLF 4




REM  x in P4(2)/nmc
REM R1 =  0.0630 for     478 Fo > 4sig(Fo)  and  0.1142 for all     973 data
REM     20 parameters refined using      0 restraints

END

WGHT      0.0829      0.0000

REM Highest difference peak  0.752,  deepest hole -0.832,  1-sigma level  0.180
Q1    1   0.4946  0.6296  0.2396  11.00000  0.05    0.75
Q2    1   0.5918  0.5405  0.1963  11.00000  0.05    0.66
Q3    1   0.2500  0.6512  0.1433  10.50000  0.05    0.59
Q4    1   0.5011  0.5901  0.1331  11.00000  0.05    0.56
Q5    1   0.3972  0.5720  0.2525  11.00000  0.05    0.55
Q6    1   0.3045  0.6575  0.1362  11.00000  0.05    0.54
Q7    1   0.4207  0.5208  0.1953  11.00000  0.05    0.52
Q8    1   0.6023  0.6635  0.1947  11.00000  0.05    0.52
Q9    1   0.7500  0.6809  0.1988  10.50000  0.05    0.51
Q10   1   0.4061  0.6353  0.1931  11.00000  0.05    0.50
Q11   1   0.7500  0.6746  0.1407  10.50000  0.05    0.49
Q12   1   0.2500  0.7049  0.1101  10.50000  0.05    0.48
Q13   1   0.7021  0.6743  0.1330  11.00000  0.05    0.48
Q14   1   0.2500  0.6400  0.1930  10.50000  0.05    0.48
Q15   1   0.7500  0.3712  0.2419  10.50000  0.05    0.47
Q16   1   0.3022  0.2500  0.0623  10.50000  0.05    0.46
Q17   1   0.3438  0.7500  0.1623  10.50000  0.05    0.45
Q18   1   0.7500  0.6988  0.1165  10.50000  0.05    0.45
Q19   1   0.7500  0.5800  0.1869  10.50000  0.05    0.43
Q20   1   0.6521  0.5666  0.1294  11.00000  0.05    0.40
;
_shelx_res_checksum              293
_shelx_hkl_file
;
   0   0   5   -2.25    2.03
   0   0   6  203.55   19.34
   0   0   7    0.43    1.39
   0   0   8  281.33   25.57
   0   0   9   -3.66    2.87
   0   0  10   90.00   14.66
   0   0  11   -1.12    1.51
   0   0  12  749.68   45.03
   0   0  13    3.16    4.70
   0   0  14   22.31    8.35
   0   0  15   14.82    8.74
   0   0  16 2109.95   76.74
   0   0  17   69.08   17.58
   0   0  18 1754.98   71.53
   0   0 -18 1779.49   88.51
   0   0  19   31.48   11.20
   0   0 -19   64.17   20.83
   0   0 -20  159.06   26.68
   0   0  20  152.31   21.39
   0   0  21    4.00    4.05
   0   0 -21    8.22    7.07
   0   0  22   11.58    7.18
   0   0 -22    4.45    6.53
   0   0 -23    0.99    3.51
   0   0  23    6.88    5.81
   0   0 -24    8.54    6.55
   0   0  24    4.93    3.72
   0   0 -25    6.57    5.96
   0   0 -26    1.59    3.29
   0   0 -27   10.84    9.89
   0   0 -28   34.50   14.40
   0   0 -29   13.91   10.35
   0   0 -30   18.98   12.08
   0   0 -31    2.80    2.14
   0   0 -32   -0.28    3.78
   1   0  -3   74.47   10.77
   0  -1  -3   82.70   17.29
   0   1   3   78.21   15.36
  -1   0   3   92.68    7.99
   0   1  -3   78.11   14.66
   1   0  -4 1422.42   37.15
   0   1   4 1269.91   60.12
   0   1  -4 1246.86   53.29
   1   0  -4 1297.08   48.57
  -1   0   4 1424.12   33.12
  -1   0   5  648.52   23.85
   1   0  -5  603.17   36.04
   0   1  -5  620.16   33.80
  -1   0   5  555.09   36.01
   0   1   5  619.36   40.64
   1   0  -6   50.33   11.25
   0   1  -6   57.58    9.25
   1   0  -6   69.07    8.82
  -1   0   6   65.34    8.28
  -1   0   6   46.64   11.78
   0   1   6   46.36   10.72
   0  -1  -6   49.53    8.32
  -1   0   7  200.98   16.37
   0  -1  -7  233.16   14.86
   0   1   7  195.48   22.56
   1   0  -7  208.96   19.07
   1   0  -7  223.26   25.18
   0   1  -7  187.39   14.50
   1   0  -7  220.93   17.51
  -1   0   7  162.44   22.34
   0   1   8   30.98    7.18
   0  -1  -8   26.12    4.92
  -1   0   8   26.34    6.07
   1   0   8   34.11    7.98
  -1   0   8   29.19   10.32
   1   0  -8   22.16    7.90
   1   0  -8   32.05    7.73
   1   0  -8   23.60    6.01
   0   1   8   29.94    8.52
   1   0  -9  202.88   17.67
   0  -1  -9  203.52   15.28
   1   0  -9  198.93   20.10
   1   0   9  194.40   18.17
   0   1  -9  212.04   18.62
   0   1   9  205.17   17.33
   0   1   9  193.80   21.83
  -1   0   9  180.72   24.78
   1   0  10   33.57    7.16
   0  -1 -10   41.28    7.61
   0   1 -10   37.50    7.18
   0   1  10   44.23   10.26
   1   0 -10   33.00    6.58
   0   1  10   35.52    6.96
  -1   0  10   34.09   11.47
   1   0 -10   38.90   10.16
  -1   0  10   35.07    6.95
  -1   0 -10   36.98    7.76
  -1   0 -11  403.62   22.88
   0   1  11  452.32   32.75
  -1   0  11  433.13   39.34
   1   0 -11  409.96   22.31
   0   1 -11  414.17   22.69
   1   0  11  399.38   23.18
  -1   0  11  399.59   22.09
   1   0 -11  446.13   34.92
   0  -1 -11  409.71   22.56
   0   1  11  423.20   22.16
   0  -1 -11  503.80   29.64
   0  -1 -12   97.39   14.15
  -1   0 -12   68.25    9.81
   1   0 -12   84.67   16.95
   0   1  12   76.13    8.75
   1   0  12   70.71    9.09
   0  -1  12   73.92    9.36
   0   1  12   86.53   14.13
   0  -1 -12   67.62    8.38
  -1   0 -12   70.99    8.87
   1   0  12   89.64   11.79
   0   1 -12   74.70    9.05
   1   0 -12   68.95    8.62
  -1   0  12   95.81   18.93
  -1   0  12   70.93    8.64
  -1   0  13  265.13   32.46
   1   0 -13  184.48   25.73
   0  -1  13  179.40   13.43
   0   1 -13  197.88   13.80
   0  -1 -13  194.31   13.11
   1   0  13  250.11   20.50
   0   1  13  189.76   12.76
  -1   0 -13  213.33   16.44
  -1   0  13  197.23   13.13
  -1   0 -13  177.78   12.90
   1   0  13  175.02   13.32
  -1   0 -14  529.26   25.46
   0   1 -14  823.42   65.43
   1   0  14  668.10   34.15
   1   0 -14  438.85   41.99
  -1   0  14  656.73   51.60
   1   0  15   52.93    9.96
   1   0 -15   23.37    9.69
  -1   0  15   64.62   17.92
  -1   0 -15   35.29    6.49
   0   1 -15   83.18   25.10
   1   0  16  258.84   21.84
  -1   0  16  251.45   31.99
   0   1 -16  306.92   40.73
  -1   0 -16  185.40   13.40
   0  -1  16  261.51   32.77
   1   0 -16  191.38   29.90
   1   0 -17  222.44   32.99
  -1   0  17  293.40   33.89
   1   0  17  264.90   22.20
   0   1 -17  363.44   43.02
   0  -1  17  281.06   34.06
   1   0  18   19.38    6.45
   1   0 -18   17.15   10.06
  -1   0  18   38.01   13.21
   0  -1  18   14.33    8.21
   0   1 -19   90.19   22.34
   1   0  19   70.71   11.75
   0  -1  19   79.28   17.62
   1   0 -19   61.56   18.79
  -1   0  19   77.54   18.70
   0  -1 -19   89.45   20.39
   1   0 -20   84.41   21.76
   1   0  20   80.10   12.59
   0  -1  20   87.81   18.82
   0  -1 -20  100.15   21.11
  -1   0  20   74.26   17.47
   0   1 -20  104.38   24.40
   1   0 -21    6.92    4.93
  -1   0  21    9.63    7.69
   0  -1  21   11.25    7.03
   0  -1 -21   13.50    9.49
   0   1 -21   16.67   11.91
   1   0  21    6.86    4.35
   0  -1  22   17.73    8.68
   1   0 -22    1.70    3.14
   1   0  22    7.77    4.20
   0  -1 -22   11.37    8.83
  -1   0  22    5.17    6.17
   0   1 -22   12.73   10.72
   1   0  23   -2.37    4.14
   1   0 -23   -5.12    8.14
   0  -1 -23    6.33    6.80
  -1   0  23   10.03    6.59
   0   1 -23    8.18    7.03
   0  -1  23    4.47    5.39
   0  -1  24    2.71    1.93
   1   0 -24   -6.54    8.50
  -1   0  24    0.86    3.50
   0  -1 -24   -2.18    2.77
   0   1 -24   -3.58    0.90
  -1   0  25   -2.58    3.68
   0  -1  25   10.80    6.74
   0  -1 -25    6.46    6.69
   0   1 -25   -3.51    5.27
   1   0 -25   -8.19    7.37
  -1   0  26   -7.55    6.23
   0  -1 -26    5.45    5.51
   0   1 -26   12.24    9.98
   1   0 -26    7.46    6.96
  -1   0 -26   14.23    8.71
   1   0 -27   10.11    8.48
   0  -1 -27    2.49    6.16
  -1   0 -27   18.19   10.81
   0   1 -27    7.14    6.53
   1   0 -28   -2.62    7.27
  -1   0 -28   10.08    9.79
   0  -1 -28   13.86    9.38
   0   1 -28   11.74   10.95
   0   1 -29    8.89    6.09
   1   0 -29    5.16    6.21
   0  -1 -29   16.61   10.21
  -1   0 -29    9.36    8.18
  -1   0 -30    9.95    9.33
   0   1 -30    2.93    5.56
   1   0 -30   -0.45    4.69
  -1   0 -31    0.54    8.27
   0   1 -31    8.30    7.05
   1   0 -31   -3.77    2.27
  -1   0 -32    7.50    9.42
   0   1 -32   12.13    9.86
   0   1 -33    0.16    1.05
   0   1 -34   -0.41    1.74
  -1  -1   0    3.73    4.29
   1   1   1   -2.27    3.81
   1   1  -1    3.28    2.02
  -1  -1   1    0.99    2.04
  -1  -1   2    5.14    4.56
   1   1   2    0.60    3.15
  -1  -1  -2    0.86    1.59
   1   1  -2   -0.20    1.96
   1   1  -3    5.79    2.90
   1   1  -3    0.32    2.78
   1   1   3    1.38    2.06
  -1  -1   3    1.28    2.61
   1   1  -3   -0.10    2.02
  -1  -1  -3    3.53    2.92
  -1  -1   3    0.79    1.83
   1   1  -3    1.08    1.46
   1   1   3   -0.66    3.77
  -1  -1  -3    2.51    3.51
  -1  -1  -4   10.48    4.92
   1   1   4   11.50    5.60
   1   1  -4   17.72    6.89
  -1  -1  -4    9.99    5.08
  -1  -1   4   15.53    7.02
   1   1   4   11.88    6.78
   1   1  -4   10.30    3.69
  -1   1   4   10.00    2.04
  -1  -1   4   10.97    5.15
   1   1  -4    6.74    3.59
   1   1  -4    9.97    3.90
  -1  -1  -5    3.47    4.70
   1   1   5   11.31    6.48
  -1  -1   5    0.58    1.32
   1   1  -5    2.74    1.65
   1   1  -5    3.53    1.82
  -1  -1   5    8.01    4.84
   1   1  -5    0.60    1.16
  -1  -1  -5    1.08    1.27
   1  -1  -5    5.14    3.66
   1   1   5    1.85    4.05
  -1   1   5    2.54    1.24
   1   1  -5    2.26    2.02
  -1  -1  -6    1.58    3.34
  -1   1   6    0.75    0.32
   1   1  -6    0.48    2.49
   1   1   6    2.77    3.12
   1  -1  -6    1.09    1.07
   1   1   6    0.29    3.08
   1   1  -6    1.95    1.37
  -1  -1  -6    1.13    2.84
  -1  -1   6    2.85    3.84
  -1  -1  -6    3.56    3.75
  -1  -1   6    0.61    2.67
   1   1  -6    2.50    2.95
   1  -1  -6   -0.21    0.33
   1  -1  -7    0.19    0.36
   1   1  -7    5.05    4.55
  -1  -1   7   -2.23    0.93
  -1  -1  -7    3.88    4.99
  -1  -1  -7    0.39    1.77
  -1  -1   7    1.48    2.79
   1   1  -7   -0.21    2.48
   1   1  -7    1.02    0.89
   1   1   7   -2.51    3.33
   1  -1  -7    0.43    1.65
  -1  -1  -7   -0.23    2.39
  -1  -1   7   -0.40    1.30
  -1  -1   8   -0.36    2.60
   1   1   8   -1.61    2.03
  -1  -1   8   -3.98    3.52
   1   1  -8    0.07    2.41
  -1  -1  -8    2.82    2.81
  -1  -1  -8    2.01    2.04
   1  -1  -8    4.06    2.62
  -1  -1   8   -1.14    1.39
  -1  -1  -8    2.90    2.14
   1  -1  -8    2.67    2.94
   1   1  -8    6.43    5.52
  -1  -1   9    1.20    1.51
   1  -1  -9    0.79    2.67
  -1  -1   9   -1.38    2.41
   1   1  -9    2.33    4.28
  -1  -1  -9   -1.05    1.45
   1   1  -9    4.68    5.53
   1  -1  -9   -1.85    2.62
  -1  -1  -9    0.59    2.44
  -1  -1  -9   -1.23    1.12
   1   1 -10    1.69    3.14
  -1  -1  10    2.21    2.20
  -1  -1 -10    6.94    5.17
  -1  -1  10    4.11    3.99
  -1  -1  10   -0.77    1.51
  -1  -1 -10    1.27    0.52
   1  -1 -10    2.23    3.18
  -1  -1  10    1.86    4.64
   1  -1 -10    3.97    3.54
  -1  -1 -10   -1.75    0.57
   1  -1 -11    1.28    2.36
   1  -1 -11   -0.22    3.08
  -1   1  11   -8.25   11.48
  -1  -1 -11    1.63    2.51
  -1  -1  11    1.42    2.34
  -1  -1  11    0.32    1.23
  -1  -1 -11    0.74    2.62
   1   1 -11    2.17    3.51
  -1  -1  11   -0.06    3.24
  -1  -1 -11    0.17    0.79
   1  -1 -12   -0.20    2.33
  -1  -1  12    1.16    4.21
   1  -1 -12    0.62    1.17
   1   1 -12    1.43    5.02
  -1   1  12   -3.70    9.45
  -1  -1 -12    2.15    2.03
  -1  -1  12   -0.03    0.38
   1  -1 -13    1.40    2.26
  -1   1  13    2.06    1.97
  -1  -1 -13   -1.76    2.36
  -1  -1  13    0.30    2.24
   1   1 -13   -2.54    5.21
   1  -1 -13   -0.14    1.41
   1  -1 -14   -3.48    5.96
   1   1 -14   -8.20    6.21
   1  -1 -14    1.83    3.21
  -1  -1  14   -1.34    5.55
  -1  -1 -14    4.25    3.61
  -1   1  14    3.51    3.08
   1  -1 -15   -3.01    5.92
  -1  -1 -15    1.85    1.86
   1  -1 -15   -3.28    4.02
  -1  -1  15   -1.98    2.41
  -1   1  15   -0.66    2.04
  -1  -1 -16    2.46    2.87
   1  -1 -16   -0.21    0.85
  -1   1  16   -0.34    1.57
   1  -1 -16    0.72    3.71
  -1  -1  16    1.48    4.03
  -1  -1  17    1.78    2.21
   1  -1  17   -0.13    1.10
  -1   1  17   -1.42    1.18
   1  -1 -17   -4.13    5.43
   1   1 -17   -7.44    7.00
  -1   1 -17   -0.18    0.29
   1  -1 -18   -1.97    4.22
   1   1 -18    1.68    8.47
  -1  -1  18    6.39    5.10
  -1   1  18   -1.50    2.15
   1   1 -19  -14.30    9.24
  -1  -1  19    2.30    4.66
   1  -1 -19   -0.75    5.01
   1  -1  19   -2.75    4.72
  -1   1  19    0.17    1.47
   1  -1  20   -1.58    3.58
  -1  -1  20    3.45    4.84
   1   1 -20   -5.90    5.99
   1  -1 -20   -1.60    5.41
  -1  -1  21   -7.30    6.31
   1   1 -21    2.98    5.47
   1  -1  21    1.60    2.41
   1  -1 -21    0.87    2.05
   1  -1 -22   -4.58    5.94
   1   1 -22    3.21    4.47
   1  -1  22   -0.39    0.72
  -1  -1  22   -5.07    5.98
  -1  -1  23   -0.56    1.19
   1  -1  23    2.29    1.75
  -1   1 -24    3.60    4.77
   1   1 -24   -4.14    7.10
   1  -1  24    4.35    4.03
   1  -1 -24   -1.31    6.30
  -1  -1  24    4.58    3.64
   1   1 -25    4.53    6.15
   1  -1 -25   -0.90    1.01
  -1  -1  25    6.77    7.30
  -1   1 -25    2.93    5.28
  -1  -1  26    0.24    1.39
  -1   1 -26    6.64    8.63
   1   1 -26    0.58    1.52
   1  -1 -26   -3.54    4.87
  -1  -1 -27    1.65    1.87
   1  -1 -27   -7.23    6.73
   1   1 -27    2.91    0.38
  -1  -1  27    0.87    4.43
  -1   1 -27   -1.78    6.30
   1  -1 -28   -3.97    6.78
  -1   1 -28    3.44    6.24
   1   1 -28   -2.04    4.83
  -1  -1 -28    3.71    2.44
   1   1 -29   -5.41    9.25
  -1   1 -29   -2.48    3.87
  -1  -1 -29   -0.18    5.24
  -1  -1 -30   -0.24    4.97
   1   1 -30    2.76    5.57
  -1   1 -30   -2.27    5.79
   1   1 -31    0.99    3.06
  -1   1 -31   -1.64    3.32
   1   1 -32   -1.57    2.25
  -1   1 -32   -5.25    6.14
   1   1 -33    9.81    9.77
  -1   1 -33    4.36    6.86
  -1   1 -34    7.53   12.94
  -2   0   0  179.18   16.75
   0  -2   0  162.96   13.45
   0   2   0  153.83   11.59
   2   0   0  149.99   16.28
  -2   0   0  131.56   11.10
   0   2   0  135.05   30.78
   2   0  -1  643.31   26.05
   2   0  -1  615.53   34.68
   0   2  -1  543.69   61.12
   0  -2  -1  644.67   23.68
   0   2  -1  628.42   26.28
   2   0   1  663.86   33.37
   0  -2   1  658.00   30.40
  -2   0   1  646.46   26.20
  -2   0  -1  648.10   31.84
   0   2   1  659.40   65.76
   0   2   1  651.72   21.13
   2   0  -2  741.17   29.88
   0   2   2  732.63   68.31
   0  -2  -2  705.22   21.97
   2   0   2  733.49   33.85
   0   2  -2  709.42   67.12
   2   0  -2  692.38   38.44
   0   2  -2  715.96   32.02
  -2   0   2  691.43   28.92
   0   2   3 2437.93  119.52
   0  -2  -3 2282.62   35.61
   0  -2   3 2248.60   41.29
   2   0  -3 2235.53   71.47
  -2   0   3 2290.34   55.99
   2   0   3 2247.06   58.39
   2   0  -3 2380.20   56.65
   0   2  -3 2185.09  114.48
   0   2  -3 2186.02   63.45
   2   0   4 4773.40   84.47
   0  -2   4 4598.60   62.91
   0  -2  -4 4615.73   48.22
   2   0  -4 4409.64  106.61
   0   2  -4 4545.26  104.20
   2   0  -4 4630.01   85.44
   0   2  -4 4803.65  157.88
   0   2  -5 2689.63   50.13
   2   0   5 2913.24   67.82
   0   2  -5 2818.16  113.34
  -2   0   5 2694.05   59.20
   0   2   5 2929.43  121.11
   0  -2   5 2713.99   51.61
   0   2  -5 2680.55   88.27
   2   0  -5 2608.52   67.36
   2   0  -5 2590.60   85.30
   0   2   6 1375.76   81.28
   2   0  -6 1192.27   60.73
  -2   0   6 1256.00   41.07
   0   2  -6 1320.91   71.06
   2   0  -6 1249.53   49.85
   0   2  -6 1268.94   37.52
   2   0   6 1276.93   47.31
   0   2  -6 1310.07   68.13
   0   2  -7 1120.83   60.12
   2   0  -7 1051.61   59.70
   2   0  -7  985.84   47.15
  -2   0   7  984.76   60.64
   2   0   7  858.93   40.10
  -2   0   7 1073.71   38.39
   0   2   7 1074.73   68.46
   0   2  -7 1062.09   66.79
   0   2  -7 1050.83   37.70
   0   2   8   14.27    8.01
  -2   0   8   16.21    9.99
   0   2  -8   13.60    4.72
   0   2  -8   -2.70    6.95
  -2   0   8   10.47    4.51
   0   2  -8   16.26    6.91
   2   0  -8   12.39    6.16
  -2   0   9    8.67    3.58
  -2   0   9   10.60    7.22
   0   2  -9    5.65    2.37
   0   2  -9   20.79    5.63
   0   2  -9    8.63    4.44
   2   0  -9   14.34    5.90
   2   0  -9   15.71    6.59
   0   2   9   17.37    8.22
   2   0  -9   12.05    6.88
   0   2  10   29.48   10.11
   0   2 -10    9.82    6.67
   2   0 -10   29.31    9.10
   0   2  10   37.66   10.46
   0  -2 -10   14.74    4.90
   2   0 -10   41.42   10.21
   0   2 -10   49.18   10.08
  -2   0  10   26.82    7.41
   2   0 -10   27.00   10.46
   2   0  10   32.00   11.25
  -2   0  10   26.66   11.40
   2   0 -11  478.62   46.74
   0   2 -11  393.53   49.15
   0   2 -11  476.43   28.42
   0   2  11  511.33   43.79
   2   0 -11  512.72   38.60
   0  -2 -11  555.51   30.35
   2   0 -11  555.74   36.33
  -2   0  11  459.39   30.47
  -2   0  11  449.41   45.56
   0   2  11  557.82   39.63
   2   0  11  514.09   41.15
   0   2 -11  507.00   39.11
   0   2 -12 1001.06   53.23
   2   0 -12 1057.97   52.83
   0   2 -12 1058.64   80.80
   0   2  12 1039.15   53.19
   0  -2 -12 1010.75   38.99
  -2   0  12 1000.43   47.93
   0   2  12  956.69   60.31
  -2   0  12  995.05   68.96
   2   0 -12 1015.83   53.22
   2   0  12  968.92   54.23
   0   2  13  833.04   46.82
   2   0  13  795.08   46.95
  -2   0  13  763.96   45.55
  -2   0  13  870.26   65.82
   0   2 -13  872.79   47.10
   0   2  13  893.87   57.95
   2   0 -13  845.48   48.00
  -2   0  13  854.90   46.68
   2   0 -13  865.24   51.64
   0  -2 -13  867.25   37.24
   0   2 -13  996.86   78.80
  -2   0  14  547.59   52.34
  -2   0  14  442.20   33.62
   0   2  14  490.49   34.55
   2   0 -14  499.80   41.15
   2   0  14  439.38   34.01
   0  -2 -14  487.46   29.70
   2   0 -14  496.47   35.73
   0   2  14  424.28   39.67
   0   2 -14  452.83   32.70
  -2   0 -14  409.55   32.62
   0   2 -14  548.05   62.31
  -2   0  15  445.49   32.85
   0   2  15  449.31   31.90
  -2   0 -15  411.19   31.66
   0   2 -15  574.81   58.68
   0  -2 -15  433.67   31.69
   0  -2 -15  479.41   31.55
  -2   0  15  506.33   49.68
   2   0  15  445.38   33.09
   0   2  15  449.94   40.63
   2   0  15  386.51   18.64
   2   0 -15  467.44   33.25
   0   2 -15  397.96   28.90
   2   0 -15  429.09   39.73
   0  -2 -16   -0.29    1.77
   2   0 -16   10.42    7.62
  -2   0  16    3.43    7.29
   0   2 -16    5.44    3.84
   2   0  16    4.46    2.25
   0  -2 -16    2.31    3.22
  -2   0  16    7.05    4.47
   0   2 -16   16.90   15.99
   2   0 -16    4.83    3.76
   0   2  16    4.85    4.23
   0   2  16    8.44    5.82
   2   0  16    4.96    3.92
  -2   0 -16    8.35    5.11
   0  -2  16    5.77    3.76
  -2   0 -17   51.17   10.26
  -2   0 -17   51.13   10.17
   0   2  17   57.44   10.45
   0   2 -17   90.31   23.00
   0   2 -17   43.22    8.46
  -2   0  17   56.84   10.58
   2   0 -17   69.98   11.76
   0  -2  17   53.21    9.88
   0  -2 -17   61.01   12.28
   0  -2 -17   56.84   10.22
   2   0 -17   48.51   13.70
   2   0  17   56.05   10.79
   2   0  17   49.98    6.33
  -2   0  17   71.40   20.04
   0   2 -18   17.06   12.33
  -2   0 -18    3.57    2.06
   0  -2 -18    6.43    3.77
   0   2  18    6.97    3.35
  -2   0  18    9.22    7.87
   2   0  18    4.39    3.21
   0  -2  18    2.35    1.18
  -2   0 -18    3.25    2.29
  -2   0  18    4.85    3.18
   0   2 -18    1.20    2.08
   0   2 -19   26.86   15.11
   2   0 -19    2.36    4.27
   0  -2 -19   11.19    4.21
  -2   0 -19    8.93    3.17
  -2   0  19   12.83    4.26
  -2   0  19   28.48   13.84
   0  -2  19   11.02    4.38
  -2   0 -19   10.73    4.62
   0   2 -19    9.17    3.88
  -2   0  20  127.59   26.55
  -2   0  20   63.14    7.99
   0  -2  20   75.60    9.47
   0  -2 -20  160.35   25.02
   2   0 -20   50.79   15.69
   0   2 -20  145.67   29.82
  -2   0 -20   93.68   14.01
   0  -2  21  116.38   26.33
   0  -2 -21  130.08   22.70
   0   2 -21  137.57   29.09
   2   0 -21   72.79   20.26
  -2   0  21  141.34   28.36
  -2   0 -21  122.86   16.61
   0  -2  22   85.34   23.12
   0   2 -22   88.59   25.43
   0  -2 -22  110.59   21.74
   2   0 -22   81.74   22.19
  -2   0  22   97.31   23.33
   0   2 -23  104.43   25.07
   0  -2  23  115.91   28.06
   0  -2 -23  115.70   21.95
  -2   0  23  114.63   24.75
   2   0 -23   78.63   22.76
   2   0 -24   15.08   12.54
  -2   0  24    3.44    5.39
   0  -2  24    3.80    4.21
   0   2 -24    6.17    8.06
   0  -2 -24    5.78    6.85
   0  -2 -25   26.53   10.68
   0  -2  25   23.68   11.55
   0   2 -25   23.70   13.51
   2   0 -25   44.20   17.92
  -2   0  25   25.43   12.69
   0   2 -26    9.82    5.59
  -2   0  26   -3.71    4.41
   0  -2  26   11.97    9.98
   0  -2 -26    7.26    5.94
   0   2 -27    0.40    2.38
   2   0 -27    3.26    2.98
  -2   0  27   -9.87   13.41
   2   0 -28    6.15    6.92
   0   2 -28   -1.17    4.90
   0   2 -29    9.04    9.59
   2   0 -29   12.84   11.27
   2   0 -30   18.61   11.03
   0   2 -30   10.75   10.72
  -2   0 -31    7.46   11.09
   0   2 -31   16.38   13.88
  -2   0 -32   13.60   17.19
   0   2 -32   -2.16    3.83
  -2   0 -33    2.33    8.13
   0   2 -33    7.89   10.50
   0   2 -33    7.64    7.22
  -2  -1   0   -0.67    4.23
   1   2   0    6.04    7.20
   2  -1   0   -0.21    1.03
  -1  -2   0   -1.49    1.81
  -2  -1   0    0.20    1.66
  -2   1   0   -0.76    1.34
  -1  -2   1  129.83   13.30
  -2  -1   1  105.95   24.45
  -2  -1  -1  129.06   26.71
  -2  -1   1  124.51   21.98
   1   2  -1   91.44   22.37
   1   2   1   96.18   22.16
  -2  -1  -1  134.21   19.72
  -2   1  -1  123.10    9.39
   2  -1  -1  129.71   10.84
   1   2   2   15.97   11.01
   1   2  -2    3.94    2.60
  -1  -2   2    4.45    2.58
   2  -1  -2    3.97    2.40
  -2   1  -2    2.51    1.37
   1   2  -2    9.38    4.60
  -2  -1   2    6.47    7.37
  -2  -1  -2    0.70    1.69
  -1  -2   2    3.89    6.58
   2  -1  -2    0.30    3.78
  -2  -1  -2    5.63    5.97
  -1  -2   3  447.04   43.16
   2  -1  -3  566.91   40.38
   2   1   3  426.12   48.40
   2  -1  -3  465.58   24.71
  -1  -2   3  465.53   46.03
   2   1  -3  519.24   51.85
  -2  -1   3  443.29   48.40
   1   2  -3  428.61   46.74
  -1  -2  -3  408.85   44.08
  -2  -1   3  444.72   46.50
  -2  -1  -3  479.68   49.78
   1   2   3  481.19   48.09
   1   2  -3  442.86   26.06
  -1  -2   3  442.01   22.68
  -2  -1  -3  553.44   32.52
  -2  -1  -3  485.19   49.36
   2   1  -3  430.14   25.36
   2  -1  -4  732.48   44.64
   1   2  -4  583.41   31.64
   1   2  -4  573.52   53.47
   1   2   4  599.19   52.03
  -2  -1  -4  664.86   31.44
  -2  -1  -4  630.48   56.72
  -1  -2   4  589.85   51.60
  -1  -2   4  560.02   47.60
  -1  -2  -4  558.07   49.42
   2   1  -4  681.13   57.59
   2   1  -4  585.67   31.62
  -1  -2  -4  650.49   54.56
  -2  -1  -4  566.71   52.03
  -1  -2  -4  581.44   52.12
  -2  -1   4  566.48   51.44
   2   1   4  568.85   53.83
  -2  -1   4  542.79   52.82
  -1  -2   4  612.47   28.21
  -2  -1  -5   48.91   15.50
   1   2  -5   41.70    8.40
   2   1  -5   58.96   16.66
  -1  -2   5   39.69   14.94
  -1  -2  -5   41.34   13.92
  -1  -2  -5   37.36   12.71
  -2  -1   5   45.16   15.62
  -2  -1  -5   53.72   17.57
   1   2   5   43.87   15.61
  -2  -1   5   42.01    8.40
   2   1   5   44.53   16.13
  -1  -2   5   42.79    7.82
   2   1  -5   36.83    9.16
   1   2  -5   44.71   16.03
   1   2  -5   39.98    8.98
  -2  -1  -5   43.76    6.80
   2  -1  -5   39.41   10.68
  -1  -2  -5   46.57   15.87
  -1  -2   5   53.97   14.83
  -1   2  -5   32.78    4.01
  -2  -1   5   43.51   14.63
   1   2   6 1247.08   70.77
  -2  -1   6 1314.76   47.41
  -2  -1   6 1261.17   77.61
  -2  -1   6 1202.21   70.00
  -1  -2   6 1328.06   68.15
   2   1   6 1188.41   72.52
   2  -1  -6 1357.58   59.59
   2   1  -6 1242.09   49.88
   1   2  -6 1177.77   51.07
   2   1  -6 1366.86   76.44
   1   2  -6 1253.73   44.46
  -2  -1  -6 1236.83   30.45
  -1  -2  -6 1299.32   73.07
  -1  -2   6 1185.04   72.51
  -2  -1  -6 1413.24   82.05
  -1  -2   6 1270.63   45.91
  -1  -2  -6 1283.76   76.92
  -2   1   6 1270.85   35.87
  -2  -1  -6 1220.44   71.22
   1   2  -6 1359.65   76.61
   2   1  -7  717.55   39.83
  -2   1   7  661.72   26.07
  -1  -2  -7  682.68   50.99
   2   1   7  728.04   55.06
  -1  -2  -7  744.98   57.27
   1   2  -7  772.54   56.13
   1   2  -7  713.69   35.33
   2  -1  -7  763.75   44.87
  -2  -1  -7  746.87   22.28
  -1  -2   7  822.23   51.82
  -2  -1   7  716.08   35.90
  -2  -1  -7  704.39   52.98
  -2  -1   7  771.45   58.43
   2   1  -7  777.45   55.75
   1   2  -7  673.85   41.30
   2   1  -7  713.54   39.56
  -1  -2   7  694.98   53.62
   1   2   7  726.45   52.90
  -2  -1   7  701.46   52.46
  -2  -1  -8  101.57   19.26
   2  -1  -8  111.58   17.71
   1   2  -8  139.14   23.23
   2   1  -8  132.39   18.03
  -1  -2   8  125.83   21.88
  -2   1   8  133.37   12.21
  -1  -2   8  139.13   20.65
  -2  -1   8  129.65   15.77
   1   2  -8  150.63   17.38
   2   1  -8  143.37   23.23
   2   1   8  117.14   21.86
   2   1  -8  135.76   18.52
   1   2  -8  160.93   22.30
  -1  -2  -8  135.91   22.48
  -2  -1   8  122.57   21.18
   1   2   8  139.01   22.85
  -2   1   8   61.07   17.34
  -1  -2  -8  128.13   23.93
  -2  -1  -9 1048.93   59.97
  -2   1   9 1060.46   35.95
   2   1   9 1081.43   63.45
   1   2  -9 1112.38   62.72
   1  -2  -9  945.73   52.05
  -2  -1   9 1116.53   47.58
   2  -1  -9 1113.55   56.31
  -1  -2  -9 1090.01   61.78
  -1  -2  -9 1045.67   65.69
   1   2  -9 1041.58   57.86
   2   1  -9 1121.65   64.33
   2   1  -9 1077.91   53.40
  -1  -2   9 1054.93   62.11
  -2  -1   9 1275.63   84.13
   1  -2  -9  987.98   24.81
   1   2  -9 1113.71   49.91
   2   1  -9 1103.46   52.95
  -1  -2   9 1181.84   57.52
  -2  -1   9 1095.79   61.60
   1   2   9 1135.27   62.80
   2   1  10  318.19   33.69
  -1  -2  10  320.93   33.36
  -2  -1 -10  332.45   33.05
  -2  -1  10  335.72   33.03
  -2   1  10  330.62   21.56
  -1  -2 -10  356.15   38.28
  -2  -1  10  333.45   27.05
   1   2 -10  309.04   34.45
   1  -2 -10  291.82   15.67
   2   1 -10  355.42   35.14
  -1  -2 -10  337.99   33.62
  -2   1  10  211.10   35.41
   1   2 -10  347.94   33.93
  -1  -2  10  364.68   30.74
   1  -2 -10  385.12   30.67
   1   2 -10  335.68   29.30
   1   2  10  316.55   32.42
   2   1 -10  328.74   31.14
  -2  -1  10  371.05   46.67
   2   1 -10  348.80   31.59
   2  -1 -10  389.22   34.13
   1   2 -11  125.21   23.20
   1  -2 -11  152.27   19.05
   2   1 -11  131.38   20.23
  -2  -1  11  140.37   18.63
  -2   1  11  139.99   15.01
   1   2  11  136.14   20.88
  -1  -2  11  145.55   19.05
  -1  -2 -11  107.85   10.31
  -1  -2 -11  123.64   19.78
   1  -2 -11  116.60   11.39
  -1  -2  11  136.02   21.00
   2  -1 -11  134.23   20.89
  -2   1  11   57.92   18.29
   2   1 -11  145.28   22.05
  -1   2  11  155.40   23.97
  -2  -1  11  137.03   20.44
  -2  -1  11  149.35   29.80
  -1  -2 -11  154.19   24.87
   1   2 -11  128.09   19.70
   2   1  11  129.77   21.17
  -2  -1 -11  129.61   20.22
   2   1 -11  138.75   21.70
   1   2 -11  151.37   20.74
  -2  -1  12  353.50   30.89
  -1  -2 -12  352.87   37.26
   2   1 -12  342.54   34.81
   1   2 -12  378.79   34.69
  -2  -1  12  348.67   32.35
   1   2 -12  274.33   36.23
   2  -1 -12  370.58   36.57
   2   1 -12  401.19   35.83
  -1  -2  12  354.83   26.83
   2   1 -12  363.65   35.11
  -1   2  12  344.74   35.45
  -1  -2 -12  342.79   32.34
  -1  -2  12  331.99   31.72
  -1  -2 -12  330.65   15.87
   1  -2 -12  304.29   20.36
  -2  -1 -12  350.55   32.55
  -2  -1  12  436.63   49.21
   1   2  12  348.73   33.21
   2   1  12  350.47   34.24
   1  -2 -12  375.54   29.36
   1   2 -12  359.48   32.96
   2  -1 -12  421.47   29.47
   2  -1 -13   22.73    8.18
  -1  -2  13    7.27    4.26
  -2  -1  13   14.61    7.39
  -1  -2 -13   15.30    3.77
  -1  -2 -13   20.41    8.23
   2   1  13    6.66    4.90
  -2  -1  13   19.83    7.34
  -2  -1 -13   11.65    5.91
   1   2 -13   15.13    7.68
   2   1 -13   18.98    8.17
   1   2 -13   15.77    6.80
  -2  -1 -13   18.04    8.21
  -2  -1  13   15.76   10.57
   1   2  13   20.63    8.61
  -1  -2 -13   11.14    5.61
  -1   2  13   18.98    7.39
   1  -2 -13   13.44    6.31
   2  -1 -13   19.01    8.20
   1  -2 -13   10.96    4.84
   2   1 -13   14.49    5.31
   1   2 -13    4.34    3.29
   2   1 -13   -2.41    5.36
   1  -2 -14   24.98    6.74
   2   1 -14   39.67   12.97
   2   1 -14   23.34    9.27
  -2  -1  14   31.77    9.53
  -2  -1 -14   26.87    8.57
  -1  -2 -14   36.96    9.88
  -2  -1 -14   39.03   11.37
   2  -1 -14   34.40   11.68
   2   1  14   31.50    9.13
  -1   2  14   39.96   11.72
   1   2 -14   23.92   10.46
   1   2 -14   20.76   10.00
   2  -1 -14   38.73   10.31
  -2  -1  14   30.93   13.34
  -1   2 -14   29.38    6.30
   1   2 -14   37.55   10.49
  -1  -2  14   30.80    9.35
  -1  -2 -14   33.61    5.77
  -1  -2 -14   67.28   15.94
   1  -2 -14   34.96    9.40
   1   2  14   30.93    8.45
   1  -2 -15    1.45    2.71
   1   2 -15    4.33    4.03
  -2  -1 -15    6.16    3.65
  -2  -1  15   11.41   10.00
  -2  -1  15    8.61    4.60
  -1  -2 -15    7.82    4.50
  -2  -1 -15    6.28    3.92
   2  -1 -15    8.85    5.66
   1   2 -15    3.46    4.76
  -1   2  15    6.01    4.40
   1   2  15    6.21    2.40
  -1   2 -15    4.52    2.09
   1   2 -15    9.14    4.11
   1  -2 -15   12.20    6.59
   2  -1 -15   11.71    6.47
  -1  -2  15    4.92    3.66
   2   1 -15    4.23    3.32
   2   1 -15   -5.23    5.69
  -1  -2 -15    7.22    6.29
  -1  -2  16    2.24    1.51
   2  -1 -16    6.26    4.34
   2   1 -16    6.45    6.47
  -2  -1  16   14.59   11.39
   1  -2 -16   10.60    5.94
   1   2 -16    1.55    3.36
   1   2 -16    5.38    4.76
  -2  -1  16    3.91    0.96
  -1   2 -16    3.71    1.85
   1   2 -16   -4.93    7.47
  -2  -1 -16    6.96    5.08
  -1  -2 -16    8.88    4.09
  -1   2  16    3.64    3.80
  -2  -1 -16    2.82    2.41
   1  -2 -16    2.55    1.77
  -1   2 -17    3.16    1.66
  -2  -1  17    2.84    2.50
   1   2 -17    0.65    5.57
   2  -1 -17    2.08    2.63
  -1  -2 -17    2.57    2.93
   2   1 -17    0.62    4.59
  -2  -1 -17    0.73    1.05
  -1   2  17    3.47    3.72
   1  -2 -17   -1.81    4.55
   1  -2 -17    4.70    4.73
   2  -1 -17    3.47    3.60
   1   2 -17   -6.46   11.39
  -2  -1 -17    2.30    1.50
  -1  -2  17   -0.06    5.47
  -2  -1  17   14.13   10.25
  -1  -2  17    0.53    2.04
   1  -2 -18    7.97    2.37
   2  -1 -18   31.47    8.25
  -1   2  18   18.86    7.70
  -1   2  18   23.92    6.62
  -2  -1 -18   23.58    7.91
  -1   2 -18   29.19    8.49
  -2  -1  18   23.79    5.67
   2   1 -18   19.26    8.76
  -2   1  18  -16.38   23.72
   2  -1 -18   26.80    9.76
   1   2 -18   27.71   13.27
  -1  -2  18   24.17   11.74
   1   2 -18   22.58   10.26
   2  -1  18   29.42    8.18
  -1  -2  18   35.35    9.65
  -2  -1  18   19.51   10.80
   1  -2 -18   29.18   10.74
  -1   2 -19   37.57    8.85
   2  -1  19   37.57    8.55
   1  -2 -19   58.18   15.61
  -2  -1 -19   35.19   10.44
   2  -1 -19   25.88   10.11
   2   1 -19   19.70    9.35
  -1   2  19   36.42   11.00
  -1   2  19   35.12    7.67
   2  -1 -19   40.21    9.03
  -1  -2  19   33.43   13.92
  -2   1  19   32.74    8.94
  -2  -1  19   50.27   17.16
   1   2 -19   42.00   17.33
  -2   1  19   41.23    9.40
   1  -2 -19   16.36    5.52
  -2  -1  20    4.44    6.12
  -2   1 -20    1.07    0.60
   1   2 -20   -2.08    6.15
  -2   1 -20    1.60    1.18
  -1  -2  20   -7.57    7.72
   1  -2 -20   -0.31    1.74
  -2   1  20    4.83    3.97
   2  -1 -20    1.21    2.15
  -1   2  20    3.16    3.22
   2   1 -20   -6.33    8.28
   2  -1 -20    0.63    1.56
  -2  -1 -20   -3.10    3.14
   1  -2 -20   -8.42    7.06
   1  -2 -20   -2.88    6.77
  -1   2 -20    2.12    2.06
  -2   1  20    1.05    1.54
  -1   2  20    2.08    2.24
  -2  -1  21   47.18   15.43
   2  -1  21   46.43   11.00
   2   1 -21   28.91   13.43
   1  -2 -21   34.16   11.03
  -2  -1 -21   73.86   16.14
  -1  -2  21   42.78   18.05
   1   2 -21   34.71   14.18
   2  -1 -21   35.11   12.18
  -1   2 -21   31.07    5.80
  -1  -2  22   58.56   20.64
   1   2 -22   49.28   19.27
   2   1 -22   49.06   19.87
   1  -2 -22   33.61   11.20
  -1   2 -22   60.33   17.76
  -2  -1  22   53.02   16.45
   2  -1 -22   32.16   12.54
   2  -1  22   34.79    9.01
   1  -2  23   -2.33    5.13
   1  -2 -23   -0.13    4.79
   2  -1 -23    4.85    6.60
  -1   2 -23   16.72   10.16
   1   2 -23   -1.86    8.07
   2   1 -23   14.28   10.49
  -1  -2  23    1.80    6.72
  -2  -1  23    7.66    7.01
  -1  -2  24   64.27   21.08
   1  -2 -24   38.99   13.12
   2  -1 -24   26.44   12.04
   2   1 -24   50.14   21.21
   1   2 -24   26.06   12.72
  -2  -1  24   59.93   19.16
  -1   2 -24   42.90   15.81
   1  -2  24   37.55   13.21
  -1   2 -25   27.51   13.69
   1  -2  25   16.78    9.32
   2   1 -25   17.90   12.83
  -2  -1  25   32.92   13.64
   1   2 -25   27.27   16.41
   1  -2 -25   14.10    6.62
  -1  -2  25   29.18   14.24
   2  -1 -25   22.94   11.40
   1   2 -25    8.87    5.23
   1   2 -26   -0.31    8.66
   2   1 -26    9.25   11.68
  -1  -2  26   22.39   12.74
   1   2 -26   10.61    9.08
   2  -1 -26    5.74    5.52
  -1   2 -26    9.48   10.16
  -2  -1  26   11.86    9.85
  -1  -2  27   19.24   11.96
   1   2 -27    4.30    7.36
   1   2 -27   18.67   18.41
   2  -1 -27    9.85    8.86
  -1   2 -27   25.42   12.88
  -1  -2 -27   14.30    9.46
   2   1 -27   34.82   18.84
  -2  -1  27   17.30   11.52
   1   2 -28    0.75    2.93
  -2  -1  28    5.66    7.44
  -1   2 -28   12.15   11.23
   1   2 -28    7.37    8.37
   2   1 -28    7.37    8.36
   2   1 -29   18.68   14.65
   1   2 -29   15.93   16.39
   1   2 -29   -4.15    5.42
   2   1 -29   -3.84    6.20
  -1   2 -29    2.19    6.01
  -1   2 -30    0.39    2.74
   1   2 -30   -8.87    7.97
   2   1 -30    9.19   10.60
  -2   1 -30    4.25    8.17
   2   1 -30    4.40    4.72
  -1   2 -31    4.67    4.51
  -2  -1 -31    3.97    5.88
   1   2 -31   -8.05    7.69
   1   2 -31   12.60   16.89
   2   1 -31   -2.91    4.60
   2   1 -31   21.66   16.76
  -2   1 -31   -6.27    7.29
   1   2 -32   20.27   17.71
  -2   1 -32  -18.19   12.95
   2   1 -32   -0.92    5.58
   1   2 -32    7.05    9.12
  -1   2 -32   -6.77    6.84
   1   2 -33    2.68    7.25
  -2   1 -33    2.80    6.08
   2  -2   0   68.54    6.73
  -2  -2   0   46.71   17.10
   2   2   0   57.48   18.58
  -2  -2  -1    2.46    4.93
   2   2   1   -0.36    5.94
  -2  -2   1    4.34    7.65
   2  -2   1    1.00    0.79
   2   2  -1   -5.61    7.92
  -2  -2  -2   72.63   19.95
  -2  -2   2   74.12   19.89
   2   2   2   84.74   21.51
   2   2  -2   59.53   18.61
   2   2   3    3.17    5.71
  -2  -2  -3    4.11    6.14
   2   2   3    8.32    7.85
  -2  -2   3   -2.02    4.62
   2   2  -3    1.60    5.57
   2   2  -3   -4.05    1.28
  -2  -2  -3    1.62    1.96
  -2  -2   3    3.20    4.03
  -2  -2   3    1.06    2.22
   2   2   4  215.74   35.45
  -2  -2   4  195.22   18.07
   2   2   4  192.90   31.40
  -2  -2  -4  182.25   30.92
  -2  -2   4  189.62   32.41
  -2  -2   4  195.16   30.78
  -2  -2  -4  239.56   34.90
   2   2  -4  169.03   31.69
   2   2  -4  230.20   37.08
   2   2   5   -0.26    2.78
   2   2  -5   -2.93    2.55
  -2  -2  -5    2.99    7.04
  -2  -2   5    9.22    9.35
   2   2   5   -0.47    6.22
   2   2  -5    1.39    6.03
  -2  -2   5    4.75    5.70
  -2  -2  -5    0.72    5.65
   2   2  -6 1120.15   51.75
  -2  -2  -6 1029.96   70.78
  -2  -2   6 1124.48   47.87
  -2  -2   6 1099.63   70.96
   2   2   6 1141.15   75.07
   2   2  -6  995.81   46.45
   2   2   6  994.15   76.44
   2   2  -6 1130.91   78.06
  -2  -2   6 1054.94   74.45
   2   2  -6 1211.67   80.77
  -2  -2  -6 1062.62   72.54
  -2  -2  -7   18.02   16.89
  -2  -2   7   33.32   16.08
   2  -2  -7   14.28    8.68
  -2  -2   7   21.61   13.46
   2   2   7   28.00   14.60
  -2  -2  -7   17.13   15.35
  -2  -2   7   25.61    9.99
   2   2  -7   44.12   14.75
  -2  -2  -7   31.02   15.56
   2   2  -7   21.39    9.70
   2   2  -7   14.54   14.73
   2   2   8 5427.79  162.21
  -2  -2  -8 5772.92  161.15
   2   2  -8 5718.92  119.11
  -2  -2  -8 5748.57  165.36
  -2  -2   8 5603.19  156.84
   2   2  -8 5408.11  124.71
  -2  -2   8 5973.47  121.88
   2   2  -8 5980.09  174.76
  -2  -2  -8 5891.63  160.19
  -2  -2   8 5609.22  166.95
   2  -2  -8 5818.18  139.43
  -2   2   8 5493.34   61.98
  -2  -2  -9   32.45   17.36
  -2  -2  -9   31.85   15.42
   2   2  -9   56.28   20.90
   2   2  -9   63.88   21.32
   2   2  -9   70.68   21.17
  -2  -2   9   34.27   17.96
  -2  -2   9   29.98   16.73
  -2  -2  -9   45.16   19.70
   2   2   9   73.42   23.42
   2  -2  -9   46.82   18.82
   2   2 -10 3477.56   99.05
   2   2 -10 3756.83  132.53
  -2  -2 -10 3470.03  120.46
  -2  -2 -10 3386.84  123.39
  -2  -2  10 3459.77  119.74
  -2   2  10 3576.08   61.66
   2   2  10 3586.88  125.65
  -2  -2  10 3345.93  125.97
  -2  -2 -10 3252.41   56.83
  -2  -2 -10 3154.71  121.36
   2  -2 -10 3686.16  105.62
   2   2 -10 3407.71  104.79
  -2  -2  11   14.84    9.55
  -2  -2 -11    5.65    6.93
  -2  -2 -11   10.15    9.17
   2   2 -11   24.76   13.94
   2   2 -11   22.23   12.05
  -2  -2 -11   10.85   10.75
  -2  -2  11    6.98    7.61
  -2  -2  11   12.50   10.32
   2   2 -11   12.33   12.11
   2  -2 -11    9.26    7.79
  -2  -2  12  202.72   29.43
  -2  -2 -12  186.22   28.49
  -2  -2  12  206.86   35.30
   2  -2 -12  205.63   25.27
  -2  -2  12  231.05   30.52
  -2  -2 -12  204.52   27.82
  -2  -2 -12  208.12   29.83
   2   2 -12  201.02   28.85
  -2  -2  12  211.42   25.68
   2   2 -12  203.28   26.27
  -2  -2 -13   -0.04    3.33
   2   2 -13    0.96    3.07
   2   2 -13    1.09    3.21
  -2  -2  13   -0.59    3.12
  -2  -2  13   -0.36    2.73
  -2  -2 -13    1.96    1.88
  -2  -2  13   -5.00    9.18
   2  -2 -13   -0.31    1.93
  -2  -2  13    2.66    4.46
  -2  -2 -13   -0.31    1.98
  -2  -2  14    4.77    3.90
   2  -2 -14    1.96    2.44
  -2  -2 -14    2.63    4.45
   2   2 -14   -2.05    4.15
  -2  -2  14    4.07    2.38
  -2  -2 -14    6.13    5.38
  -2  -2 -14    1.61    2.76
  -2  -2  14    0.44    8.17
   2   2 -14  -13.70    7.93
  -2  -2  14    3.83    4.41
   2   2 -15   -2.42    4.55
  -2  -2 -15    0.96    4.04
  -2  -2  15   -4.98    6.16
  -2  -2  15    3.84    4.24
   2   2 -15    2.66    3.61
  -2  -2  15   -0.62    2.06
  -2  -2  16    4.61    9.01
   2   2 -16    4.07    2.61
  -2  -2  16    6.59    3.82
   2   2 -16    5.09    5.18
  -2  -2 -16   14.26    6.84
   2   2 -17   -3.36    8.33
   2   2 -17   -2.45    3.15
   2  -2 -17    6.35    4.84
  -2  -2 -17    0.31    0.92
  -2  -2  17   -2.45    4.23
  -2  -2  17    1.35    2.39
   2  -2 -18    9.53    6.02
  -2  -2  18   11.07    7.01
  -2  -2 -18   23.83   10.39
   2   2 -18   10.33    4.24
   2   2 -18    7.31    6.17
  -2  -2  18    9.80    3.94
  -2   2  18   14.06    6.85
  -2   2  19   -8.32    5.36
   2   2 -19   -7.72    9.16
  -2  -2 -19    1.11    2.16
  -2  -2  19    6.87    9.41
   2  -2 -19    2.51    3.90
   2   2 -19   -8.31    9.20
   2  -2 -20   99.28   18.01
  -2  -2 -20  148.40   25.95
   2   2 -20   63.50   22.70
   2   2 -20   90.94   25.92
  -2  -2  20  147.27   31.50
   2   2 -21  -12.55    9.43
  -2  -2 -21    5.99    7.64
  -2  -2  21   10.03   12.21
   2   2 -21    2.66    6.39
   2  -2 -21   -0.26    1.00
  -2  -2  22   26.87   13.92
   2   2 -22   -7.25   10.03
   2  -2 -22   13.88    5.76
   2   2 -22    5.88    9.60
   2  -2 -23   -3.37    5.62
  -2  -2  23    1.95    5.61
   2   2 -23    1.64    8.66
   2   2 -24   33.94   16.92
  -2  -2  24   74.44   23.54
   2  -2 -24   29.75   10.69
   2   2 -24   81.12   27.45
  -2  -2  25   40.01   17.69
   2   2 -25   28.06   18.91
   2   2 -25   25.42   20.38
  -2  -2  26  153.76   32.31
   2   2 -26   99.03   31.66
   2   2 -26  105.20   32.68
   2   2 -27   18.53   15.82
  -2  -2  27   15.22   13.48
   2   2 -27   28.77   19.01
   2   2 -28   13.37   12.01
   2   2 -28   36.95   19.72
  -2   2 -28   16.80   12.30
  -2  -2  28   26.28   13.24
  -2   2 -29    3.53    6.02
   2   2 -29    8.42    9.19
   2   2 -29    0.61    3.44
   2   2 -30    3.29    7.67
  -2   2 -30   10.24    8.67
   2   2 -30    5.32    8.23
   2   2 -31   -0.54    6.26
  -2   2 -31    4.45    6.59
   2   2 -31   16.75   20.96
   2   2 -32    8.74   11.22
   2   2 -33    0.82    8.24
   0   3   0   -0.29   12.82
  -3   0   0    4.49    4.61
   0   3   0    0.18    1.72
   3   0   0    7.27    6.46
   0  -3   0    1.08    2.55
   0  -3  -1 1368.44   46.90
   0   3   1 1453.93  125.41
  -3   0  -1 1278.32   59.78
   0   3  -1 1435.03   46.55
  -3   0   1 1363.14   46.21
   0   3   1 1410.09   39.92
  -3   0   1 1460.32   62.28
   3   0   1 1384.60   63.16
   0   3  -1 1221.42  115.07
   3   0  -1 1390.95   66.63
   0   3   2  807.43   91.10
   0   3  -2  627.82   80.33
  -3   0  -2  468.25   37.28
  -3   0   2  650.71   33.07
   0   3  -2  640.98   34.32
   0   3   2  654.75   24.94
   3   0   2  644.36   42.59
   0  -3  -2  653.20   29.65
  -3   0   2  742.73   46.27
   3   0  -2  751.21   49.48
  -3   0   3  184.86   18.29
   0  -3  -3  188.44   14.73
   0   3   3  269.37   50.26
   3   0  -3  205.35   26.96
   0   3  -3  233.54   45.99
   3   0  -3  201.10   19.31
   3   0   3  178.78   21.68
   0   3  -3  202.31   20.99
   0  -3   4  709.68   28.24
  -3   0   4  673.17   36.72
   0   3   4  758.60   81.17
   3   0  -4  677.83   49.76
   0   3  -4  711.03   76.51
   3   0   4  621.72   39.68
   0  -3  -4  637.89   24.67
   0   3  -4  677.23   41.57
   3   0  -4  685.41   37.32
   0  -3  -5   22.70    4.33
   3   0  -5   30.47   11.28
   3   0   5   20.64    7.55
   0   3  -5   24.41    8.43
   0  -3   5   21.22    5.06
   0   3   5   38.21   19.40
  -3   0   5   20.38    6.74
   3   0  -5   19.94    7.07
   0   3  -5   28.16   13.89
   0  -3  -6   86.52    7.85
   3   0  -6   87.54   14.54
   0   3  -6  114.86   26.28
   0   3  -6   88.78   17.71
   3   0   6   79.18   13.60
   0  -3   6   89.82   10.76
   0   3   6   94.09   26.57
   3   0  -6   94.43   19.56
   3   0   7    9.59    4.39
  -3   0   7   10.45    4.54
   3   0  -7    8.43    4.46
   0   3  -7    1.73    3.63
   0  -3  -7   11.81    2.87
   0   3  -7    5.10    6.11
   0   3  -7   11.70    4.11
   3   0  -7   12.25    7.40
   0   3   7   10.55    9.46
   0   3  -8   26.53    6.40
  -3   0   8   24.91    6.81
   3   0  -8   30.16   12.13
   0   3  -8   14.84    6.56
   3   0  -8   24.21    8.01
   3   0   8   20.96    6.92
   0   3  -8   29.63   11.52
   0   3   8   28.70   14.25
  -3   0   9   19.24    5.80
   3   0  -9   14.54    7.12
   3   0  -9   21.20    7.81
   0   3  -9   17.10    6.02
   0   3  -9   19.53    8.85
   0   3   9   10.68    6.92
   0   3  -9    7.20    5.60
   3   0   9   16.86    6.07
   0   3 -10    9.27    6.66
   3   0  10   15.92    5.67
   3   0  10   28.75   12.50
   3   0 -10   15.49    9.68
   0   3 -10   28.09   10.35
   0   3  10   19.26    9.84
   0   3 -10   23.31    6.51
  -3   0  10   20.49    6.12
   3   0 -10   13.95    5.69
   0   3  11  143.52   25.28
   0   3  11  125.03   25.73
   3   0  11  148.12   28.09
   3   0 -11  106.56   19.67
  -3   0  11  112.71   15.37
  -3   0  11  124.36   26.97
   3   0 -11  120.08   23.36
   0   3 -11   95.90   24.31
   0   3 -11  114.25   19.19
   0   3 -11  128.05   17.21
   3   0  11   86.45   12.20
  -3   0  12   34.82    8.83
   0   3 -12   36.57   10.53
   3   0  12   50.57   17.11
   3   0 -12   40.71   12.59
   0   3  12   50.43   14.74
   0   3 -12   32.16   13.00
   0   3 -12   38.60   10.39
   0   3 -12   48.42   15.27
   3   0 -12   40.03   13.57
   0   3  12   58.41   17.17
  -3   0  12   60.06   19.91
   3   0  12   29.55    6.51
   0   3 -13   52.43   14.81
  -3   0  13   52.18   11.22
   0   3 -13   66.35   21.60
   3   0 -13   39.19   12.44
   0   3 -13   62.10   13.91
   0   3  13   60.14   15.75
   0   3 -13   46.59   11.41
  -3   0  13   57.54   20.04
   3   0 -13   61.78   15.78
   0   3  13   70.28   18.78
   3   0  13   41.22    7.52
   3   0  13   55.74   16.27
   3   0  14  209.59   15.47
   0   3 -14  240.44   30.58
   0   3 -14  261.97   29.89
   0   3 -14  257.28   43.08
   0   3 -14  231.19   23.29
   0   3  14  257.90   31.85
   3   0 -14  246.25   31.95
  -3   0  14  261.84   26.73
   0   3  14  255.10   35.83
  -3   0  14  289.09   43.04
   3   0 -14  214.35   32.51
   0  -3 -14  247.29   22.40
   3   0  14  255.97   33.19
   3   0  15   54.29   14.91
   0   3 -15   54.55   15.42
   3   0 -15   56.09   15.24
  -3   0  15   62.02   16.04
   0   3 -15   61.69   23.89
   3   0  15   44.03    6.34
  -3   0 -15   61.76   16.55
   0   3  15   50.68   17.00
  -3   0  15   77.38   23.75
   3   0 -15   39.33   13.74
   0   3 -15   67.52   16.18
   0  -3 -15   53.88   10.35
   0   3  15   58.59   15.49
   0   3 -16   83.38   17.33
   3   0  16   87.00   18.32
   3   0 -16   45.72   15.96
  -3   0  16   93.69   24.91
   0   3  16   79.86   17.38
   0   3 -16  114.22   30.76
  -3   0 -16   81.82   17.52
  -3   0  16   72.42   16.96
   0  -3 -16   87.20   12.84
   0   3 -16   89.52   19.54
   0   3  16   77.59   20.40
   3   0 -16  105.01   20.45
   0   3 -17  194.27   30.62
  -3   0 -17  195.17   26.66
  -3   0  17  186.26   27.00
   0   3 -17  175.59   24.11
   3   0  17  191.10   27.68
  -3   0  17  234.41   38.84
   3   0 -17  238.46   29.96
   0   3 -17  225.45   40.91
   0   3  17  194.14   30.70
   0  -3 -17  153.33   22.96
   0   3  17  217.41   27.86
   0  -3 -17  176.14   18.80
   0   3 -18   25.97    9.32
   3   0  18   26.03   10.35
   0   3  18   24.40    9.55
   0   3 -18   16.36    8.94
   0  -3 -18   27.66    9.28
  -3   0  18   51.46   19.90
   0  -3  18   21.02    8.46
   0   3  18   22.01   10.93
   0   3 -18   50.29   22.51
  -3   0  18   16.51    7.83
   3   0 -18   35.70   14.49
   0  -3 -18   31.10    8.72
   3   0 -18   18.48    8.86
  -3   0 -18   27.13    9.71
   3   0 -19   71.97   16.01
  -3   0  19   89.56   24.65
   0   3 -19  114.00   28.75
   3   0  19   85.31   17.63
   0  -3 -19  106.78   17.88
   0  -3  19   55.44   12.45
  -3   0  19   52.08   13.47
   3   0 -19   66.65   19.32
   0   3  19   68.65   15.19
   0   3 -19   33.97   12.67
   0   3 -19   60.32   13.44
  -3   0 -19   66.02   15.21
   0  -3 -19   72.47   13.82
   0  -3 -19   50.70   12.55
  -3   0  20  102.73   26.30
   3   0 -20   62.31   18.55
   0   3 -20   51.06   16.90
   0   3 -20   61.23   13.05
   0  -3 -20   98.21   17.00
   0   3  20   62.33   13.78
   0   3 -20   95.18   26.24
   3   0  20   69.91   15.43
   3   0 -20   64.56   14.65
   0   3 -21   10.46    9.74
  -3   0 -21    2.99    3.94
   0   3 -21    4.05    3.17
   0  -3 -21    4.11    5.39
   3   0 -21    5.00    4.25
   0   3  21    5.61    5.04
   0   3 -21   -4.87   10.12
   3   0  21    7.43    5.20
  -3   0  21   13.47   12.72
   3   0 -21  -10.97    8.56
   0   3 -22    3.16    2.42
   0  -3 -22   22.92    8.97
   0   3 -22    4.00    6.92
   3   0 -22   -3.30    7.21
  -3   0  22   16.85   13.83
  -3   0 -22   15.46    6.29
   0   3 -23   -4.14    8.28
   0   3 -23    9.46    8.38
  -3   0  23   -9.43   10.23
   3   0 -23   -1.40    5.38
   0  -3 -23    2.61    4.31
   0   3 -24   -3.11    3.03
   0  -3  24  -22.98   12.25
   0   3 -24   10.51    8.86
   3   0 -24  -26.03   13.19
  -3   0  24   -3.44    0.62
   0   3 -25    3.37    1.97
   0   3 -25    4.42   19.77
   3   0 -25  -20.90   12.08
   0  -3  25   -7.27   11.24
  -3   0  25  -11.10   12.80
   0  -3  26    1.84    3.33
   3   0 -26   13.14   10.83
   0   3 -26   -7.81   10.81
   3   0 -26   -3.61    9.34
   0   3 -26    5.39    8.55
   0   3 -27    0.14    2.84
   0   3 -27    1.81    4.17
   0  -3  27   -8.67   11.08
   3   0 -27  -18.88   15.95
   3   0 -27    4.43    6.02
   3   0 -28    2.46    5.99
   0   3 -28   17.04   13.90
   3   0 -28  -12.34   12.20
   0   3 -28    6.28    7.02
   0   3 -29    6.98    8.92
   0   3 -29    4.55    5.75
   3   0 -29   19.06   15.57
   0   3 -30   -2.88    5.91
   0   3 -30   15.96   16.87
   3   0 -30    8.09   12.38
   0   3 -31   -6.17    6.42
   0   3 -31   -1.84    1.54
   0   3 -32   14.03   17.38
  -3   1   0    4.16    2.86
   1   3   0    1.93    2.33
  -1  -3   0    4.29    3.42
   1   3   0    5.07    6.73
   3  -1   0    5.26    2.61
   3   1   0    5.61    5.34
  -3  -1   0    2.82    5.38
   3  -1  -1   -2.44    2.59
  -3  -1  -1    3.01    2.59
   3  -1   1   -2.21    6.52
  -1   3   1   -3.07    3.50
   1   3  -1   -1.62    2.90
   1   3   1    0.08    6.22
   1   3  -1   -0.13    5.34
  -1  -3   1    1.64    2.44
   1   3  -1   -2.53    6.75
   3  -1  -1   -1.08    2.28
  -3   1   1   -0.24    1.24
   3   1  -1   -6.20    9.36
  -1  -3  -1   -1.14    2.10
  -3   1  -1    1.35    1.66
  -3  -1   1    4.76    5.61
   1   3   1   -0.14    6.05
   3   1   1   -0.49    8.81
   1   3  -2   -0.82    5.72
  -3  -1  -2    3.12    3.03
   1   3  -2   -3.07    4.90
  -3  -1   2    0.90    1.50
   1   3   2    4.30    0.48
  -1  -3   2    1.51    2.42
   3  -1  -2    5.73    5.74
  -3   1  -2    1.35    1.51
  -1   3   2    0.76    0.90
   3   1   2   -0.81    8.72
   1   3   2   -3.57    3.26
  -3   1   2    0.45    1.92
   1   3  -2    1.43    2.15
  -1  -3  -2    1.26    1.66
  -1  -3   2    1.89    2.16
   3   1  -2   -1.35    9.39
   3  -1   2   -3.81    6.88
   3  -1  -2    2.05    2.15
   1  -3   3    1.31    0.88
  -1   3   3    1.48    1.50
  -3  -1  -3    0.49    2.91
   1   3   3    2.76    6.75
   3  -1  -3    0.98    2.25
   1   3  -3    0.78    1.21
   3  -1  -3    6.65    5.97
   1   3  -3   -1.26    5.76
  -1  -3  -3   -1.23    1.22
   1   3   3   -2.53    2.55
   3   1   3    1.15    4.64
  -1  -3   3   -4.57    6.48
   1   3  -3   -5.23    6.50
  -1  -3   3   -0.19    0.68
   1   3   4    4.27    7.61
   3   1  -4    6.24    8.25
   3  -1  -4   -0.23    1.63
  -1  -3   4    3.17    4.22
  -1  -3   4    7.47    6.01
   1   3  -4    6.12    6.60
   1   3  -4   -1.38    4.62
  -3  -1  -4    8.77    7.71
   3   1   4   -0.93    1.64
  -3  -1  -4    6.14    4.36
   1  -3   4    1.89    1.04
  -1  -3   4    1.28    2.37
   3   1   4   -9.86   12.52
   3   1  -4    1.89    3.25
   3  -1  -4    2.07    4.17
   1   3  -4    1.66    1.98
  -1   3   4    0.84    0.82
  -3  -1   4    0.29    6.00
   1   3   4   -3.91    6.16
   1   3   5    0.31    5.53
   3   1  -5    1.21    3.12
  -3  -1   5    8.05    6.97
   3   1   5    5.02    2.74
   3  -1  -5    1.01    1.24
  -1  -3   5    1.84    1.86
   1   3  -5    1.05    1.02
   3  -1  -5    1.14    2.52
   1   3  -5   -0.69    2.44
   1   3  -5    7.71    6.58
  -1  -3   5    6.38    9.26
  -3  -1  -5   -1.67    2.42
   1   3   5    4.36    5.66
   3   1  -5    2.81    5.10
  -3  -1  -5    0.99    1.63
   3   1  -6   -0.80    1.24
   3   1   6   -1.77    6.98
  -3  -1  -6   -0.73    3.41
  -3  -1  -6    2.58    2.70
  -3  -1   6   -2.00    2.37
  -1  -3   6   -0.28    1.79
  -3  -1   6    1.24    6.00
   3  -1  -6    0.84    0.79
   1   3  -6   -0.06    5.26
   1   3   6   -2.01    6.34
   3   1  -6    3.55    7.07
  -1  -3   6    1.68    4.31
  -1  -3  -6    3.59    6.82
   1   3  -6    0.29    3.41
   3  -1  -6    0.53    1.84
   1   3   6    3.18    6.89
  -1  -3   7    0.76    3.81
   1   3   7    3.52    6.04
  -1  -3   7    0.54    0.85
  -1   3  -7    0.24    0.55
  -1  -3  -7    0.84    5.27
  -3  -1   7   -2.36    1.99
  -3  -1  -7   -2.17    3.64
  -3  -1  -7   -1.29    2.31
   3  -1  -7    0.84    3.43
   1   3   7   -1.39    4.64
   1   3  -7    9.26    5.38
   3   1   7   -2.94    6.62
   3   1  -7    6.30    8.77
  -3  -1   7   -0.92    2.45
   3   1  -7    4.08    4.00
   1   3  -7   -2.02    5.71
  -1  -3   8   -1.71    2.97
  -1  -3   8   -2.00    4.51
   1   3  -8    1.44    3.90
   3  -1  -8   -3.95    8.24
   1   3   8   -4.83    6.76
   3  -1  -8   -2.26    5.85
  -3  -1  -8    2.71    4.70
  -3  -1   8   -0.56    3.00
   3   1   8   -7.34   10.22
   3   1  -8    2.39    4.22
   3   1  -8   -3.34    6.97
   1   3  -8    0.75    1.06
   1   3   8   -0.82    5.54
   1   3  -8    6.97    6.78
  -1   3  -8    1.53    1.39
  -3  -1   8    1.12    1.72
  -1  -3  -8   -2.44    5.01
  -3   1   8    0.18    0.97
  -1   3   8    0.70    1.87
  -3  -1  -9   -2.03    2.26
   1   3  -9    2.37    4.40
  -1   3  -9    2.33    2.07
   3   1  -9    2.69    2.60
  -1   3   9    1.15    5.37
   3   1  -9   -0.76    3.61
   1   3   9    2.52    4.18
   3  -1  -9   -3.63    4.70
   1   3  -9    4.48    6.26
   1   3  -9    2.08    2.52
   1   3   9   -1.26    2.81
  -3   1   9    1.77    2.65
  -3  -1   9    2.51    5.39
  -1  -3  -9   -3.27    6.98
  -3  -1   9    1.70    0.92
   3   1   9   -3.11    6.85
  -1  -3   9    2.54    3.72
  -1   3 -10    0.86    2.00
  -3  -1  10   -0.19    1.94
  -3  -1  10    5.99    8.12
  -1  -3 -10    0.35    5.27
   3   1 -10   -1.30    2.52
   3   1 -10   -0.44    3.38
   1   3 -10   -0.50    2.88
  -3  -1 -10   -0.16    4.17
   3   1  10   -5.14    7.57
   1   3  10    1.52    4.14
   1   3  10    5.04    3.84
   1   3 -10    1.86    1.50
  -1  -3  10   -5.53    6.14
  -1  -3 -10   -0.75    2.59
  -3   1  10   -1.11    1.84
   1   3 -10    6.71    7.45
  -1  -3  10   -0.85    4.09
  -1   3  10    5.27    5.72
  -1  -3 -11   -1.40    3.89
   1   3 -11    3.94    5.39
   1   3 -11   -0.64    2.12
  -3   1  11  -15.34   19.73
  -1   3 -11   -0.19    2.16
   1   3  11   -3.00    2.81
  -3  -1  11    1.56    3.44
  -1  -3  11    4.67    5.01
  -3   1  11   -0.62    1.47
  -3  -1 -11   -2.10    3.97
  -3  -1  11   -3.53    7.91
  -3  -1  11    2.16    3.60
   3   1 -11    5.27    4.09
  -1   3 -11    3.51    3.50
  -1  -3 -11    2.23    2.30
   3   1  11    7.17    6.41
  -1   3  11    1.09    2.70
  -1  -3  11   -0.59    5.16
   1   3 -11   -0.89    2.96
   3   1 -11    3.22    4.17
   3   1 -12   -0.02    1.52
  -3   1  12    1.21    1.08
  -3  -1 -12    3.42    0.47
  -3  -1  12   -0.65    4.87
  -1  -3 -12   -0.03    2.23
   1   3  12    4.71    5.91
  -1  -3 -12    1.61    4.84
  -1  -3  12    0.57    5.02
  -1   3 -12    0.16    1.72
  -3  -1  12    5.64    7.75
   1   3 -12    1.67    3.48
   1  -3 -12   -6.23    6.82
  -1   3  12   -4.28    4.83
   1   3 -12    2.22    2.63
  -1   3 -12   -1.15    2.85
   3   1  12   -2.86    3.64
   3   1 -12    5.49    5.54
   1   3 -12    4.34    4.99
  -1  -3 -13    2.57    5.68
   1  -3 -13   -0.47    2.27
   1   3 -13   -0.38    3.06
   3   1  13    1.30    3.17
   1   3 -13   -0.34    2.38
  -1  -3  13    2.32    3.32
  -1   3 -13    1.74    2.94
  -1  -3 -13    5.01    6.14
   1   3  13    5.82    5.49
  -1   3 -13   -0.68    0.80
   3   1 -13   -4.35    5.82
  -1   3  13   -0.53    2.64
   3   1 -13   -4.38    6.34
  -3  -1  13   -5.64    3.34
  -3   1  13  -20.49   23.58
  -3   1  13    1.17    0.44
  -3  -1  13   -2.08    3.20
  -3  -1 -13   -5.16    6.43
   1   3 -13  -15.64    9.51
  -1  -3 -14   -0.88    2.90
  -3  -1  14    3.61    8.18
  -3  -1  14   -1.66    3.10
   1  -3 -14    3.23    4.36
   1   3 -14   -0.46    2.08
  -1   3 -14   -1.22    4.84
  -1   3 -14   -2.39    3.44
   3   1 -14   -3.07    5.67
   3   1 -14   -3.48    4.87
  -1  -3 -14    4.32    3.25
  -3  -1 -14    3.73    4.27
  -1  -3 -14   -1.29    5.68
   1   3  14    1.17    4.94
   1   3 -14    5.20    2.68
  -1   3  14   -0.83    3.37
   1   3 -14   -0.87    3.02
  -1  -3  14    0.63    0.49
  -3   1  14   -0.99    2.55
   1  -3 -14    0.47    0.99
   1  -3 -15    1.76    2.73
  -3   1  15   -3.82    5.82
   1   3 -15   -0.94    2.57
  -3  -1 -15   -1.48    5.00
  -1  -3 -15   -0.77    1.36
   3   1 -15    6.94    8.42
   1   3 -15  -20.47   11.85
  -1  -3  15   -1.77    1.93
   3   1 -15   -0.50    2.03
   1  -3 -15    0.32    1.11
  -1  -3 -15    0.46    0.97
  -3  -1  15   -3.21    6.18
  -1   3  15    3.63    2.71
  -1   3 -15    1.13    1.73
   3   1 -15   -4.56    5.95
   1   3 -15    1.13    0.49
   3   1  15    1.13    0.42
  -3  -1  15   14.43   11.03
   1   3  15   -0.80    5.04
  -1  -3  16   -0.35    3.68
   1   3  16    6.20    5.97
   1   3 -16   -5.87    7.01
   3   1 -16   -2.78    5.59
   3   1 -16   -0.69    4.62
  -1   3  16    0.52    2.33
  -1  -3 -16    1.93    2.02
   1   3 -16   -1.65   11.05
   1   3 -16    0.46    0.61
   3   1 -16    6.21    8.21
   1  -3 -16   -2.61    2.48
  -1   3 -16    0.87    1.25
  -3  -1  16    2.21    2.29
  -3  -1  16   15.87   11.48
  -1  -3 -16   -1.53    1.87
   3   1  16   -4.36    6.69
   1  -3 -16   -1.51    1.20
  -3  -1 -16   -3.16    5.27
   1  -3 -17   -0.41    4.20
  -1  -3 -17    4.31    2.84
   3   1 -17   -3.66    6.24
   1   3 -17   -0.27    2.64
  -3  -1  17    0.73    5.20
  -3  -1  17   10.90   10.78
   1   3 -17  -15.14   18.69
   1   3  17    1.74    0.97
  -1  -3  17   -2.27    2.84
   3   1 -17  -11.51    8.01
   3   1 -17    6.78    9.74
  -3  -1 -17    6.27    6.20
  -1  -3 -17    3.88    2.85
   1   3 -17    0.28    1.20
  -1   3 -17    4.42    3.88
  -1   3  17    0.40    2.46
   1  -3 -17    0.59    1.08
   3   1  17    0.65    3.63
   1   3 -18    1.07    2.55
   1  -3 -18   -0.76    1.46
   1  -3 -18   -1.03    3.34
   1   3 -18   -0.54    0.55
   3   1 -18    4.39    7.83
  -3  -1 -18    3.64    5.63
  -1   3  18   -0.19    4.36
  -3  -1  18    4.36    1.95
  -1   3 -18   10.23    9.98
  -1  -3 -18   -1.94    5.30
  -3  -1 -18    3.37    2.90
   3  -1 -18    3.75    4.48
  -1  -3 -18   -1.23    0.81
   3   1  18   -0.90    5.42
  -3  -1  18    8.56    8.55
  -1  -3  18   -4.32    4.34
   3  -1  18    0.23    1.31
  -1   3  18   -2.70    5.59
   1   3  18   -0.27    3.51
  -1   3 -18   -0.17    1.39
   3   1 -18   -8.08   10.11
   1   3 -18  -12.07   11.90
   1   3  19    7.87    6.23
  -3  -1 -19    1.36    3.50
   1   3 -19   -3.00    4.94
   3   1 -19    9.00   10.85
  -3  -1  19   -6.85    7.18
  -1  -3 -19   -1.29    3.78
   1  -3 -19    3.86    2.96
   1   3 -19    4.38    2.55
  -1   3  19   -1.39    4.81
   3  -1 -19    2.04    4.15
  -3  -1  19    1.29    1.50
  -1  -3  19    2.11    3.20
  -3  -1 -19    0.62    3.57
  -1   3 -19    0.23    4.58
  -1   3 -19    1.65    0.87
  -1   3 -19    1.99    6.85
   1  -3 -19   -0.14    2.32
   3  -1  19    2.09    1.90
  -1   3 -20    5.10    9.20
   3  -1 -20   -3.90    3.27
   1   3 -20  -17.82   11.95
  -1   3  20    3.34    3.95
   1   3 -20    3.62    3.06
   1  -3 -20   -2.82    3.20
   3   1 -20  -25.30   13.36
  -1   3 -20   -3.51    5.74
   3  -1  20    1.19    2.69
  -3  -1 -20   -3.83    4.78
   3   1 -20   -2.44    3.76
   1   3 -20   -0.53    3.15
  -3  -1  20   -2.21    6.26
   3  -1 -21   -0.29    2.05
  -1   3 -21    8.19    9.28
   3   1 -21  -12.98    9.28
  -1   3 -21    0.84    0.88
  -3  -1  21   -2.21    4.18
   1   3 -21  -12.79   16.14
   1   3 -21   -3.33    7.53
  -3  -1 -21   -0.61    2.96
  -1   3  21   -1.20    0.63
   1  -3 -21   -1.40    3.12
   3  -1  21   -0.31    2.70
   3   1 -21   -4.98   12.60
   3   1 -22   -2.07    6.63
  -3  -1 -22    3.37    5.28
   1   3 -22   -8.39   11.18
   3   1 -22  -13.47   15.56
   1   3 -22   -3.76   12.76
  -1   3 -22   12.69    9.70
  -3  -1  22    2.82    5.36
   1  -3 -22    1.33    3.55
  -1  -3  22   -6.33    3.99
   3   1 -23  -29.79   15.93
   1   3 -23    2.41    5.48
  -1   3 -23    7.24    7.65
   3   1 -23   -9.28   14.00
  -3  -1  23    1.83    3.19
  -1  -3  23   -6.71    9.47
   1   3 -23   -5.71   14.74
   1   3 -24    1.14    6.55
  -1  -3  24   -3.10    8.24
  -3  -1  24   12.37   11.58
   1   3 -24  -10.92   14.67
  -1   3 -24   15.22    9.68
   3   1 -24  -13.75   14.54
   3   1 -24   -2.02   11.25
   1   3 -25  -13.80   14.26
   3   1 -25   -2.28    6.83
  -1   3 -25    4.83    7.31
  -1  -3  25   -7.83   10.46
   1   3 -25  -10.84    9.12
   3   1 -25  -12.19    9.96
  -3  -1  25    8.66    8.59
  -3  -1  26   -0.76    5.23
  -1  -3  26   -2.76    5.74
  -1   3 -26   -1.28    3.65
   3   1 -26   -8.36   11.93
   3   1 -26  -27.56   15.20
   1   3 -26  -10.87   11.99
   1   3 -26   -7.38    9.08
   1   3 -27  -15.53   10.82
   3   1 -27   -0.77    5.60
  -1   3 -27    2.60    4.38
   1   3 -27   -8.07    9.57
   3   1 -27  -26.17   14.99
  -3  -1  27    2.53    5.05
  -1  -3  27    4.75    8.82
   1   3 -28    2.82    4.68
  -1   3 -28   -4.04    4.80
  -1  -3  28   11.56    9.67
   3   1 -28    9.89   12.17
   1   3 -28  -12.15    9.55
  -3  -1  28    1.38    6.47
   3   1 -29    3.05   10.07
  -1   3 -29    4.82    8.20
   1   3 -29    0.09    4.58
  -1   3 -29    1.94    3.04
   1   3 -29   -5.55    6.45
  -3  -1  29    3.12    5.04
  -1   3 -30    3.82    8.73
   3   1 -30   12.07   14.95
   3   1 -30  -23.43   14.48
  -1   3 -30   -2.44    2.16
   1   3 -30  -18.73   11.93
   1   3 -30    7.45   13.00
   3   1 -31  -18.62   12.94
   1   3 -31    9.17   10.56
   1   3 -31    1.51    7.63
   1   3 -32   -2.78    6.83
  -3  -2   0   -5.75    8.31
  -2  -3   0    3.15    3.63
   3  -2   0    0.69    1.17
  -2  -3   0   -0.16    0.93
  -3  -2   0    0.14    4.82
   2   3   0   -4.21    4.25
   2   3  -1  265.70   46.34
  -2  -3  -1  319.48   49.83
  -2  -3   1  436.39   32.71
  -2  -3   1  263.17   45.49
   3  -2  -1  380.93   21.26
   2   3   1  291.94   48.33
  -3  -2   1  387.78   49.81
  -3  -2  -1  316.23   51.12
  -3  -2   1  282.48   48.29
  -3  -2  -1  433.82   47.72
   3  -2  -2    9.52    3.25
   2   3   2   22.94   14.98
   2   3  -2   22.95   14.13
  -3  -2   2   18.01   13.99
  -3   2  -2    9.16    2.49
  -3  -2   2    4.75    4.99
  -2  -3   2   14.35   10.22
  -3  -2  -2   19.70   16.14
  -2  -3   2   11.85    6.16
  -2  -3  -2   25.87   14.44
  -2  -3   2   17.65   14.52
  -3  -2  -2   19.07   10.88
   2   3  -3  464.24   61.81
  -3   2  -3  554.35   21.64
  -2  -3   3  497.42   57.00
   2   3   3  534.54   64.21
  -3  -2  -3  541.40   64.34
  -3  -2   3  513.41   64.59
   3  -2  -3  541.39   29.30
  -2  -3  -3  536.00   62.97
  -2  -3   3  483.05   60.88
  -2  -3   3  526.33   33.02
  -3  -2  -3  628.16   51.23
   2   3  -4  350.08   52.41
  -2  -3  -4  375.66   51.01
  -3   2  -4  364.56   17.29
  -3  -2  -4  403.65   53.00
   2   3   4  349.49   50.47
  -2  -3   4  359.91   48.30
  -3  -2   4  334.34   51.30
  -2  -3   4  352.42   27.03
  -2  -3  -4  346.79   48.54
  -3  -2  -4  390.72   53.80
  -2  -3   4  356.00   47.09
   3   2   4  411.60   58.05
   3   2  -4  410.49   57.47
  -2  -3   4  304.51   48.33
  -3  -2  -4  420.98   38.85
   3  -2  -4  218.04   28.70
  -3  -2   4  366.41   51.34
   3  -2  -4  365.56   25.99
  -2  -3   5  123.82   16.20
  -3   2  -5  108.22    9.46
   2   3   5  140.74   31.71
   3  -2  -5   98.15   19.54
   3   2   5  148.05   35.12
  -2  -3  -5  108.59   27.43
  -3  -2  -5  135.16   20.45
  -3  -2  -5  117.53   28.89
  -3  -2   5  119.37   30.14
   3   2  -5  138.37   33.90
  -2  -3  -5  119.03   28.81
  -2  -3   5  117.83   27.03
   3  -2  -5  112.08   15.46
  -2  -3   5   97.50   27.24
   2   3  -5  141.06   34.04
  -3  -2  -5  100.01   26.17
  -3  -2   5  123.64   28.94
  -2  -3   5  122.41   28.35
   2   3   6  771.88   71.95
   3   2  -6  888.64   79.77
  -2  -3   6  794.60   68.21
   2   3  -6  767.88   46.61
  -2  -3   6  734.35   68.11
  -3  -2   6  744.92   74.18
  -3  -2  -6  723.40   68.98
  -2  -3   6  756.64   41.24
   3   2   6  770.20   75.65
  -3  -2  -6  838.81   75.68
  -2  -3  -6  790.39   71.27
  -2  -3  -6  731.34   68.91
  -2  -3   6  719.60   70.12
  -3  -2  -6  814.67   45.85
   3  -2  -6  808.97   55.76
  -3  -2   6  821.47   72.35
   2   3  -6  793.24   75.14
  -2  -3  -7  172.82   33.31
  -2  -3  -7  190.53   35.00
   2   3   7  178.36   34.53
  -3  -2  -7  200.45   36.40
  -3  -2  -7  200.70   21.03
   2   3  -7  189.81   36.42
   3   2   7  203.12   38.89
   2   3  -7  181.62   24.00
  -3  -2   7  186.35   36.89
  -2  -3   7  211.65   34.23
  -2  -3  -7  193.76   36.71
  -2  -3   7  168.46   32.66
   3   2  -7  217.45   38.57
  -3  -2  -7  175.46   32.55
  -3  -2   7  200.09   35.03
  -2  -3   7  175.60   33.84
  -2  -3   7  164.09   19.84
   3   2  -7  189.43   22.95
  -2  -3   8  143.55   19.78
  -2  -3   8  122.14   27.17
   2   3   8  118.44   27.01
  -2  -3   8  149.41   29.92
  -2  -3  -8  143.02   28.64
   3   2   8  140.74   30.79
  -3  -2  -8  138.83   15.18
   2   3  -8  135.86   21.69
  -3  -2  -8  152.82   31.17
  -2  -3   8  178.46   30.76
  -2  -3  -8  136.13   30.10
   3   2  -8  175.40   34.40
  -3  -2  -8  122.71   26.61
  -2   3  -8  120.16    8.03
  -3  -2   8  132.45   29.58
  -2  -3  -8  154.22   30.61
   2   3  -8  148.32   31.35
  -3  -2   8  139.58   28.24
   3   2  -8  131.10   19.75
  -3  -2   9  408.98   51.71
   2   3   9  387.01   47.63
  -2  -3   9  415.75   48.39
   2   3  -9  370.88   47.11
   3   2  -9  358.19   34.01
  -2  -3  -9  392.27   47.86
  -2  -3   9  396.08   33.64
  -3   2   9  390.82   23.04
   2   3  -9  383.00   36.56
  -3  -2   9  356.29   44.62
  -2  -3   9  403.97   44.87
  -2  -3  -9  372.26   48.16
  -2  -3  -9  373.26   45.61
  -2  -3   9  330.25   43.71
   3   2   9  395.86   49.92
  -2   3  -9  361.55   18.15
   3   2  -9  411.10   50.68
   2   3  -9  360.01   31.54
  -3  -2  -9  366.01   45.83
  -3  -2  -9  417.83   51.77
  -3  -2  -9  366.41   21.67
  -3  -2  10  120.13   25.10
  -3   2  10   96.90   11.51
  -2  -3 -10  100.02   23.44
   3   2 -10   99.44   18.73
   2   3  10  110.48   26.56
   2   3 -10  116.34   26.10
  -3  -2 -10  100.11   10.03
   2   3 -10  107.59   18.25
  -2  -3  10   88.17   22.47
   3   2 -10  121.73   26.83
  -2  -3  10  122.79   24.03
  -2  -3 -10  120.37   27.00
  -3  -2 -10  122.98   26.75
   2   3 -10   84.16   18.31
  -3  -2  10  109.93   26.19
   3   2  10  119.65   26.92
  -3  -2 -10  126.98   26.10
  -3  -2  11   28.48   15.37
  -2  -3  11   15.35    9.29
   3   2 -11   30.37   15.40
   2   3 -11   30.89   10.29
   2   3  11   24.52   12.06
   2   3 -11   19.41   10.10
  -3  -2 -11   17.03    9.07
   3   2 -11   25.33   10.64
  -3   2  11   26.49    6.56
   3   2  11   17.88   13.38
  -3  -2 -11   18.21    3.92
  -3  -2  11   23.24   11.94
  -3  -2  11   14.93    8.78
  -2  -3  11   23.14   11.37
   2   3 -11   21.71   11.02
  -2  -3 -11   18.48   12.75
  -2  -3 -11   32.99   13.20
  -3  -2 -12  135.45   25.45
   2   3 -12  164.95   23.79
  -3  -2  12  142.79   26.51
   2   3  12  153.81   28.54
   3   2 -12  150.43   25.09
  -2  -3 -12  122.94   25.99
   2   3 -12  134.21   24.98
  -3   2  12  157.90   15.55
  -2  -3  12  125.88   24.98
   3   2  12  129.23   27.32
  -2  -3  12  149.61   25.17
  -2  -3 -12  146.51   28.20
   3   2 -12  167.50   31.40
   2   3 -12  148.54   28.18
  -3  -2  12  154.47   33.36
  -3  -2  13   58.83   16.98
   2   3 -13   62.65   17.18
  -3  -2 -13   41.41   14.36
  -3   2  13   45.59    8.84
   2   3 -13   67.22   16.56
   2   3 -13   54.83   16.95
   2   3  13   45.28   15.57
   3   2 -13   59.38   18.36
  -2  -3 -13   37.91   14.31
   3   2 -13   50.84   15.12
   3   2  13   47.62   16.39
  -2  -3  13   46.77   15.63
  -3  -2 -13   41.64   15.18
  -2  -3  13   47.22   13.42
  -2  -3 -13   42.37   14.83
  -3  -2  13   57.73   20.81
  -3  -2  14   16.81   12.86
  -3   2  14   11.73    3.01
   2   3 -14   18.73   10.66
   3   2 -14   18.20   11.26
  -2  -3 -14   19.29   10.62
   2   3  14   21.43   11.13
  -3  -2 -14   11.20    8.29
   3   2 -14   22.91   11.10
  -3  -2 -14   12.46    8.49
   2   3 -14   12.11    9.57
  -2  -3  14   13.39    8.68
  -3  -2  14   12.47    9.22
   2   3 -14   10.54    7.47
  -2  -3  14    7.91    6.83
  -2  -3 -14   15.76    8.73
   3   2 -15   35.06   13.25
   2   3 -15   41.46   16.36
  -3  -2  15   41.25   18.01
  -3  -2 -15   42.89   13.90
  -2  -3  15   38.47   13.62
  -3  -2  15   38.16   13.82
   2   3 -15   42.21   13.81
   3   2 -15   47.65   17.26
  -3  -2 -15   23.64   11.43
  -2  -3 -15   26.52   11.91
  -2  -3 -15   30.61   12.85
  -2  -3  15   35.31   10.93
   2   3  15   44.42   16.32
   2   3 -15   47.67   14.88
  -3  -2  16   -2.45    5.63
  -2  -3 -16    4.09    4.61
   2   3 -16    1.19    4.20
   3   2 -16    5.85    7.34
  -2  -3  16    4.26    4.67
  -3  -2 -16   -0.88    2.25
   2   3 -16   -0.95    1.93
   3   2 -16    8.39    9.14
  -3  -2 -16    2.63    3.96
   2   3 -16   -1.14    3.78
  -3  -2  16   -0.11    2.37
  -2  -3 -16    0.13    4.16
  -2  -3  16    3.87    3.70
   2   3  16   -0.81    3.58
  -2  -3  17   13.24    7.57
  -3  -2  17    9.00    6.00
  -2  -3 -17   27.97   12.98
  -2  -3  17   17.82    6.70
  -3  -2  17   25.76   10.62
   3   2 -17   15.24    8.16
   3   2 -17   27.57   14.01
  -3  -2 -17   18.59    8.39
   2   3 -17   23.88   11.04
   2   3 -17   28.90   12.87
  -3  -2 -17   18.82    9.33
   2   3 -17   13.35    7.82
  -2  -3 -17   22.02   11.53
  -3  -2  17   23.78   13.06
  -2  -3 -18   13.88    8.59
   3   2 -18   13.70    9.30
   2   3 -18   15.92   11.26
  -3  -2  18   14.66    9.14
  -2  -3  18    6.07    5.41
  -2  -3  18    9.71    6.53
  -3  -2 -18    9.62    5.33
  -2  -3 -18   13.82    7.22
  -3  -2  18   11.68    7.48
   3   2 -18   13.00   11.40
  -3  -2 -18   10.75    6.68
   2   3 -18   -3.93   10.57
  -3  -2  18   28.93   15.81
  -3  -2 -19   56.48   14.15
  -2  -3  19   52.98   20.04
   2   3 -19   31.10   13.67
  -3  -2  19   47.88   15.20
   2   3 -19   61.59   19.66
  -3  -2  19   54.81   12.89
   3   2 -19   42.99   18.03
  -3  -2 -19   46.76   15.27
  -3  -2  19   70.51   22.04
  -2  -3 -19   56.20   17.37
   3   2 -19   46.12   17.80
   3   2 -20   -1.92    5.63
  -3  -2  20   11.58   12.73
  -3  -2 -20    4.13    5.27
  -2  -3 -20    0.07    2.38
  -2  -3  20    4.86    7.32
   3   2 -20   -3.35    4.93
   2   3 -20   -0.67    3.89
  -3  -2  20   -0.37    1.57
   2   3 -20   -0.61    7.30
   3   2 -21   19.96   13.48
   3   2 -21    6.79    5.80
  -3  -2  21   39.46   18.11
   2   3 -21   28.33   13.31
  -2  -3  21   35.73   17.05
  -3  -2 -21   50.12   15.76
   2   3 -21   37.91   19.07
   2   3 -22   32.79   15.88
   3   2 -22   34.39   16.13
   3   2 -22   15.31    7.31
  -3  -2 -22   31.16   13.18
   2   3 -22   57.05   25.05
  -2  -3  22   31.32   14.95
  -3  -2  22   34.73   15.96
  -3  -2  23   20.76   12.75
   2   3 -23   -7.15    8.82
   3   2 -23   -8.75   14.46
   3   2 -23    4.20    5.68
  -2  -3  23   12.55   11.18
   2   3 -23    7.95   11.20
  -3  -2 -23   -1.87    4.00
   2   3 -24   20.26   13.78
   3   2 -24   10.85    8.76
   3   2 -24   -2.00    9.30
   2   3 -24   38.68   21.20
  -3  -2  24   32.65   17.38
  -2  -3  24   45.90   18.98
  -3  -2  25   29.00   15.29
   2   3 -25   12.22    6.59
  -2  -3  25   25.04   15.12
   3   2 -25    4.76    1.22
  -2   3 -25   10.54    8.29
   3   2 -25    4.24   12.35
   2   3 -25   36.88   20.20
   2   3 -26   -7.39   11.86
   3   2 -26  -17.58   13.10
  -2   3 -26    8.61    8.65
   3   2 -26  -23.79   15.10
   2   3 -26   24.07   17.11
  -2  -3  26    4.07    8.01
  -3  -2  26   13.37   11.71
  -2  -3  27   11.91   11.35
   3   2 -27   -0.32    5.40
   2   3 -27   -4.47    9.41
  -2   3 -27   10.63    8.54
   3   2 -27  -13.63   11.53
  -3  -2  27   21.60   15.40
   2   3 -27   17.15   14.22
   2   3 -28    6.67    9.67
   2   3 -28    6.18    7.62
  -3  -2  28   -0.53    4.53
  -2   3 -28    9.95    7.91
   3   2 -28   -6.35    7.91
   3   2 -28  -12.97   11.71
  -2  -3  28   12.66   10.84
   3   2 -29  -11.35   10.60
  -2  -3  29   -2.21    3.81
   2   3 -29    3.46   11.59
   3   2 -29   11.27   12.11
  -2   3 -29  -10.78    8.15
   2   3 -29  -11.17   11.04
  -3  -2  29    2.82    2.27
   3   2 -30    5.09    4.35
  -2   3 -30  -10.48    8.30
   2   3 -30    8.66   12.14
   2   3 -30    0.77    2.66
   3   2 -31  -15.38   12.34
   2   3 -31   -8.80   10.16
   2   3 -31    1.24    7.70
   3   2 -32  -21.20   14.50
   3   3   0   10.29   11.05
   3  -3   0   -0.34    0.91
   3   3  -1    8.13   10.33
   3  -3   1    0.11    0.77
   3   3   1    3.95    7.74
   3  -3  -2   -1.27    1.87
   3   3  -2   -6.41   10.43
   3   3   2   17.66   20.53
   3   3  -3    7.90   12.06
   3   3   3    1.45    5.76
   3   3  -4    6.27    9.92
   3   3   4   17.19   12.30
   3   3   5   -1.68   10.75
   3   3  -5   -3.06   10.69
   3   3   6    6.91    2.43
   3   3  -6    3.44    3.53
   3   3   7    1.49    3.21
   3   3  -7    4.63   10.52
  -3  -3  -7    1.86    7.19
   3   3  -8   11.68   11.07
  -3  -3  -8    6.84    7.76
   3   3   8   -2.03    1.12
   3   3  -9    4.50   11.54
  -3  -3   9    9.43    8.98
  -3  -3  -9    6.34    4.48
  -3   3   9   -0.06    1.07
   3   3   9    5.75    5.62
   3   3  10   -1.52    6.46
   3   3 -10   -0.36    2.41
  -3  -3 -10   -3.96    3.98
  -3  -3  10   -1.69    1.32
  -3  -3 -10    2.69    4.60
   3   3 -10   11.51   12.79
  -3   3  10    2.05    1.67
   3   3 -11    1.99    4.21
  -3  -3 -11    0.00    1.79
   3   3 -11    3.02    7.17
  -3  -3  11    1.87    4.29
  -3   3  11   -0.44    0.90
  -3  -3 -11   -6.36    5.92
   3   3  11    4.19    1.26
  -3   3  12   -1.31    2.04
  -3  -3  12    6.31    5.49
   3   3 -12   -0.55    1.79
   3   3 -12    7.03    6.94
  -3  -3 -12   -1.77    6.61
  -3  -3 -12   -1.65    2.40
   3   3 -13    5.36    6.26
  -3  -3 -13    2.34    3.70
  -3  -3 -13    2.56    2.03
   3   3 -13    5.34    8.54
  -3  -3  13   -2.45    2.33
  -3  -3  14    3.43    5.39
  -3  -3  14   -3.97   14.04
   3   3 -14   10.22   10.23
  -3  -3 -14   -1.44    7.48
   3   3 -14   -1.38    1.63
   3   3 -15    9.26    8.45
   3   3 -15    1.47    6.97
  -3  -3  15   -9.22    6.46
  -3  -3 -15    0.58    3.13
   3   3 -16    7.40    9.72
  -3  -3  16   -0.56    3.42
  -3  -3 -16   -0.16    4.12
   3   3 -16    8.46   10.21
  -3  -3  16    2.59    5.28
   3   3 -17    2.34    6.67
  -3  -3  17   -0.03    7.28
   3   3 -17   12.62   12.49
  -3  -3  17   -1.42    1.49
  -3  -3 -17   -0.16    3.11
   3   3 -18    4.40    5.95
  -3  -3  18   -7.94   10.72
   3   3 -18    2.60    6.35
  -3  -3  18    5.31    5.96
  -3  -3 -18    3.45    4.16
   3   3 -19   -2.37    2.10
  -3  -3  19    1.05    3.32
  -3  -3 -19   -2.06    4.96
  -3  -3  19   -6.41   11.11
   3   3 -19    9.48   10.49
   3   3 -20   17.02   12.55
  -3  -3  20   -5.21    8.85
   3   3 -20   -6.28    8.76
  -3  -3 -20   -6.11    5.80
   3   3 -21    0.69    7.60
   3   3 -21   -8.49   16.30
  -3  -3 -21   -0.04    7.00
  -3  -3  21   -5.21    4.91
  -3  -3  22   -3.26    4.99
   3   3 -22   -3.13   12.79
  -3  -3 -22   -1.87    2.64
   3   3 -22    2.45    2.65
  -3  -3  23    1.07    1.75
  -3  -3 -23    0.36    3.73
   3   3 -23    1.68    4.92
  -3  -3  24   10.44   10.73
   3   3 -24   -6.54   12.65
   3   3 -24   -5.78   14.74
   3   3 -25   -3.48    9.78
   3   3 -25  -13.89   13.21
  -3  -3  25    8.61    8.97
  -3  -3  26    7.08    3.19
   3   3 -26  -12.01   10.80
   3   3 -26  -21.17   21.46
   3   3 -27  -12.51   11.33
   3   3 -27   -1.88    9.38
  -3  -3  27    6.28    9.09
  -3  -3  28    6.43    9.13
   3   3 -28  -18.23   14.04
   3   3 -28  -20.81   15.11
   3   3 -29   -2.53    7.54
  -3  -3  29    2.89    2.62
   3   3 -29   -9.97   10.44
  -3  -3  30    2.24    5.91
   3   3 -30  -17.56   13.81
  -4   0   0 6416.73  114.13
   0   4   0 6654.55  108.60
   4   0   0 6585.71  173.05
  -4   0   1   39.95   14.85
  -4   0  -1   34.02   13.86
   0   4  -1   69.71   38.12
  -4   0   1   65.05   23.14
   0   4   1   29.95    9.16
   0   4   1   48.58   33.45
   0   4  -1   16.51    9.07
   4   0  -1   86.49   25.77
   4   0   1   55.83   21.20
  -4   0   2 2551.51   75.47
   4   0   2 2382.79  101.29
   0   4   2 2515.12   58.77
   0   4  -2 2475.72   74.64
   0  -4  -2 2261.43   74.49
   0   4  -2 2441.22  182.83
   4   0  -2 2706.60  113.93
  -4   0   3    8.21    5.39
   0  -4  -3    8.50    4.92
   0   4  -3   11.24    6.57
   4   0  -3   19.92   12.72
   4   0   3    5.60    6.90
   0   4  -3    4.34    6.36
   0   4  -4   20.93    8.34
   0  -4   4   14.59    4.76
  -4   0   4    9.55    4.04
   0  -4  -4   12.75    4.37
   4   0   4   13.04    6.07
   0   4  -4   10.62   10.21
   4   0  -4   15.06    6.63
   4   0   5   -0.85    4.56
   4   0  -5   -0.94    2.41
   0  -4  -5    0.27    0.18
  -4   0   5    2.70    2.90
   0   4  -5    3.48   10.19
   0   4  -5    2.75    5.09
   0  -4   5   -0.80    2.00
   4   0   6   31.67    8.51
  -4   0   6   37.87   10.21
   0   4  -6   46.68   13.70
   4   0  -6   47.31   11.82
   0  -4  -6   35.68    6.81
   0   4  -6   53.84   20.59
   0  -4   6   44.89    8.63
   4   0   7   -1.18    4.72
   4   0  -7    3.23    5.23
   0  -4  -7    0.30    0.96
   0  -4   7    1.03    1.38
   0   4  -7   -1.02    6.48
   0   4  -7   -3.43    3.77
   0   4  -8    1.14    4.14
   0  -4  -8    2.65    1.70
   4   0   8    1.37    2.89
  -4   0   8    9.96    5.15
   4   0  -8    8.00    5.78
   0   4  -8    4.54    6.32
   0   4  -9    3.32    6.60
   4   0  -9    0.99    2.50
  -4   0   9    3.90    3.40
   4   0  -9    8.82   11.70
   0   4  -9    1.77    5.12
   0  -4  -9    4.81    2.33
   4   0   9    2.98    1.70
   0  -4 -10   53.66    6.36
  -4   0  10   64.26   13.02
   0   4 -10   56.38   18.40
   4   0  10   87.76   26.34
   4   0 -10   55.16   14.23
   0   4 -10   68.73   18.27
   4   0 -10   75.34   21.66
   4   0  10   55.75   13.29
   0   4 -11   11.51    5.87
   4   0 -11    4.79    4.38
   0   4 -11   14.59   11.89
  -4   0  11   16.72   12.22
   0   4  11    9.27    7.26
   0  -4 -11    6.20    2.21
   0   4 -11    9.19    6.55
   4   0  11   10.99    6.10
   4   0  11    9.67    9.10
   4   0 -11    6.19    4.67
   4   0 -12  230.48   30.94
   4   0 -12  260.08   40.33
   4   0  12  276.43   44.78
   0   4 -12  159.88   34.23
   0   4  12  245.74   36.73
   0   4 -12  186.80   32.37
   0  -4 -12  175.98   11.17
   0   4 -12  178.67   26.98
  -4   0  12  218.65   40.33
   4   0  12  207.19   23.96
   0   4 -12  233.36   23.68
   0   4 -13    3.27    4.55
  -4   0  13    5.51   11.16
   4   0  13    8.38    8.42
   0   4 -13  -16.43   11.14
   0   4  13   -5.23    7.40
   4   0 -13    6.66    7.81
   0   4 -13    3.98    5.82
   0   4 -13    3.12    3.78
   4   0 -13    4.61    5.02
   4   0  13    4.11    4.51
   4   0  14   14.64    5.72
  -4   0  14    5.44    7.95
   4   0 -14   15.59    8.21
   0   4 -14   19.42    8.86
   4   0 -14   10.89    5.01
   4   0  14    0.99    1.84
   0   4  14   11.49    4.94
   0   4 -14   10.58    6.31
   0   4 -14   -0.43    5.63
  -4   0  15   15.76   15.70
   4   0  15    2.07    4.13
   4   0 -15    7.52    9.46
  -4   0  15   13.12   10.47
   4   0 -15   14.23   14.86
   0   4 -15   20.23   11.55
   0   4 -15    5.19    7.33
   0   4  15    6.24    6.02
   0   4 -15   10.51    7.14
   0   4 -15    1.33    3.81
   4   0  15    5.91    4.74
   0   4 -16  699.42   52.10
   4   0 -16  610.06   59.78
  -4   0  16  597.94   58.34
   4   0  16  556.76   53.97
   0   4 -16  672.78   58.47
   4   0 -16  647.55   59.98
   0   4 -16  574.77   70.56
   0   4  16  552.39   51.46
  -4   0 -16  619.33   57.63
  -4   0  16  712.55   74.60
   0  -4 -16  471.64   37.64
   4   0  16  568.05   28.01
   0  -4 -17   23.22    9.34
   4   0  17   18.26   12.43
   0   4 -17   73.05   20.16
  -4   0 -17   16.83   11.16
   0   4 -17   21.77   13.73
   4   0 -17   24.77   14.91
   0   4  17   19.97   12.11
   0  -4 -17   34.30    8.81
  -4   0  17   20.54   13.62
   4   0 -17   54.93   23.58
   0   4 -17   46.63   27.21
  -4   0  17   70.29   30.00
   0   4 -18  666.35   56.06
   4   0 -18  480.73   58.07
   0   4 -18  555.56   52.67
   0   4  18  502.94   47.80
  -4   0 -18  488.47   49.46
   4   0  18  521.92   51.74
   0   4 -18  577.22   69.75
   0  -4 -18  580.30   32.40
  -4   0  18  703.37   74.44
  -4   0  18  468.17   50.54
   4   0 -18  579.04   55.58
  -4   0  19   51.71   23.53
   4   0  19   12.89   11.29
   0  -4 -19   12.36    6.02
   0   4 -19   52.71   24.16
   4   0 -19   24.00   17.60
   0   4  19   13.55    9.20
   0   4 -19   11.02    7.96
   4   0 -19   10.80   11.32
   0   4 -19   34.02   16.60
   0   4 -20   81.98   27.83
  -4   0  20   80.12   25.16
   0   4 -20   51.48   17.66
   4   0 -20   29.57   15.86
   0   4  20   51.77   14.62
   0   4 -20   47.71   14.71
   4   0  20   57.17   17.29
   4   0 -20   59.29   17.03
   4   0  21    1.35    4.90
   4   0 -21   -1.89    4.06
   0   4  21    1.65    2.56
   0   4 -21   -1.72    5.43
   4   0 -21  -10.61   14.21
  -4   0  21   -1.81    5.93
   0   4 -21    5.33    6.59
   0   4 -21    2.35    0.87
   0   4 -22   -1.44    5.96
  -4   0  22    3.47    1.11
   0   4 -22   -1.15    3.61
   0   4 -23   -1.16    3.29
  -4   0  23   -6.42   12.11
   0   4 -23   -2.34    2.59
  -4   0  24  -17.43   15.84
   0   4 -24   -5.40   10.30
   0   4 -24    5.91    7.33
   4   0 -24  -23.97   15.25
   0   4 -25   -1.13    2.17
   4   0 -25  -14.70   12.11
   0   4 -25   -1.29    5.00
  -4   0  25   -6.96   13.55
   0   4 -26   -4.16    7.05
   4   0 -26    0.09    5.17
   0   4 -26   -0.67    6.73
  -4   0  26  -23.04   14.58
   0   4 -27   -3.11    9.03
   4   0 -27   -7.12    7.54
   0  -4  27   -8.02    9.21
   0   4 -28   25.07   13.86
   0   4 -28    9.94   10.49
   4   0 -28   16.66   12.08
   0   4 -29   -2.57    6.88
  -4  -1   0    6.15    5.06
   4  -1   0    7.54    7.86
   1   4   0   11.54   19.04
  -4   1   0    1.77    1.66
  -4  -1   0    2.37    2.54
   4   1   0   -5.39   14.22
  -1  -4   0    4.87    3.13
   4  -1  -1  735.30   55.75
  -4  -1   1  582.15   35.82
   1   4  -1  450.71   77.48
  -1  -4   1  613.58   39.78
  -1   4   1  632.84   32.55
   1   4  -1  545.14   34.11
  -4  -1  -1  687.83   46.93
  -1  -4  -1  608.62   36.98
  -1   4  -1  626.01   39.60
  -4   1   1  647.41   36.75
  -4  -1   1  660.63   50.94
   4   1   1  449.18   60.34
   1   4  -1  660.10   89.59
  -1   4  -1  661.44  102.67
   4   1  -1  549.65   66.21
  -4   1  -1  634.99   34.90
   4  -1   1  704.91   53.80
   1   4   1  510.67   79.87
  -4   1   2  549.65   34.52
   1   4  -2  456.67   77.42
   4   1  -2  490.30   62.04
   1   4   2  590.44   82.44
  -4  -1   2  567.07   49.79
   1   4  -2  486.67   34.15
  -1  -4  -2  534.23   33.69
  -1   4   2  545.32   27.26
  -1  -4   2  554.40   38.89
  -1   4  -2  579.05   41.75
   1   4  -2  519.97   76.74
  -1   4  -2  547.14   90.97
  -4   1  -2  545.57   31.71
  -4  -1  -2  549.52   41.05
   4   1   2  357.24   53.77
   4  -1   2  592.74   49.61
   4  -1  -2  540.09   33.35
  -1   4  -3   10.25   18.59
   1   4   3   13.74   16.66
   4  -1  -3    5.62    4.21
  -4  -1  -3    8.46    6.34
   4   1   3    9.95    9.15
   1   4  -3    5.49    8.32
  -4   1   3    3.94    1.28
   1   4  -3    4.73    2.19
   4  -1   3    4.12    8.01
  -1   4  -3    5.49    3.08
  -1  -4   3    6.16    5.59
   1   4  -3    6.30    6.29
  -4   1  -3    0.10    2.17
  -1  -4  -3    2.34    3.03
  -1   4   3    6.04    3.28
  -1  -4   3   22.11   17.67
   1  -4   4  399.61   18.83
  -1   4   4  376.49   18.05
   1   4   4  427.85   64.15
   1   4  -4  419.34   70.52
   1   4  -4  357.77   31.24
  -1  -4  -4  389.45   27.43
  -1  -4   4  365.07   33.67
   1   4  -4  449.89   64.59
  -1   4  -4  409.24   42.74
  -1  -4   4  427.02   58.19
  -1   4  -4  403.63   69.95
   4  -1  -4  396.10   30.46
   4   1   4  339.48   51.12
  -4  -1  -4  417.58   32.88
   4  -1   4  422.61   42.79
  -1  -4   4  400.02   28.90
  -1  -4   5  191.21   20.31
   1   4  -5  223.02   48.06
   1  -4   5  162.14   11.61
   4   1   5  208.57   47.58
   4   1  -5  166.28   37.24
  -4  -1  -5  209.14   23.32
  -4  -1   5  191.17   40.43
   4  -1   5  223.14   33.27
   1   4  -5  172.19   22.23
  -4  -1  -5  287.00   55.71
  -1  -4  -5  179.11   18.25
   1   4  -5  211.89   42.24
  -1  -4   5  175.07   23.69
  -1   4  -5  167.88   30.30
  -1  -4   5  206.53   39.90
  -1   4  -5  201.09   46.60
   4   1   5  183.09   36.13
   1   4   5  186.60   40.92
   4  -1  -5  188.26   21.88
  -1  -4  -6   23.85    6.29
  -1  -4   6   26.77    7.99
   1   4  -6   23.35   13.40
  -4  -1  -6   23.35   15.74
   4   1  -6   41.43   18.49
   4  -1  -6   21.56    8.16
  -4  -1   6   20.56   13.23
  -4  -1  -6   22.61    6.52
   4   1  -6   40.26   11.89
   1   4   6   14.50    8.75
  -1  -4   6   22.74   10.26
  -1   4  -6   17.96    8.35
   4   1   6   17.11   11.43
   4  -1   6   19.74   10.30
   1   4  -6   25.69   14.07
   4   1   6   17.17    8.77
   1   4  -6   22.44    7.44
  -1   4  -6   32.86   17.12
   4   1   7   91.39   22.30
   1   4  -7   74.37   15.62
  -4  -1  -7  105.81   31.81
  -1  -4  -7  112.07   33.38
   4   1  -7   73.56   23.42
  -4  -1   7   71.29   23.48
  -1   4  -7   79.65   20.84
  -1  -4   7   74.79   13.07
  -1  -4  -7   93.61   12.77
   1   4   7   80.18   23.38
   1   4  -7  107.57   32.43
  -1   4  -7   81.85   24.47
   1   4  -7   90.09   25.05
   4  -1   7   65.48   17.57
   4   1   7   86.67   28.57
   4  -1  -7   79.96   15.32
  -1  -4   7  106.97   25.93
   4   1  -7   90.42   17.14
   4  -1   8    5.05    3.65
   4   1  -8    3.40    2.68
   4   1   8    9.92    7.55
  -4  -1  -8    9.21   11.94
   4  -1  -8    6.56    4.56
   4   1  -8   11.57    6.12
  -4  -1   8   11.29   11.84
   1   4   8    9.02    7.08
   1   4  -8    4.13    1.61
  -1   4  -8   -5.37   13.04
   1   4  -8   13.61   10.23
  -1   4  -8   14.07   10.43
   1   4  -8    8.04    7.72
  -1  -4  -8    6.80    3.45
  -1  -4   8    3.08    2.54
  -1  -4   8    6.63    4.09
  -1  -4   9   64.11   12.98
  -4  -1   9   54.27   19.85
  -4  -1  -9   72.38   24.11
   4   1  -9   77.25   16.48
   4   1  -9   71.25   22.86
  -1  -4  -9   80.54   25.01
   1   4  -9   76.17   24.50
   4   1   9   55.34   20.22
  -1   4  -9   52.29   19.08
  -4   1   9   58.35   11.66
  -1  -4   9   57.52   17.12
   4  -1  -9   53.68   13.42
   1   4   9   64.27   20.59
   1   4  -9   65.73   16.98
   4  -1   9   30.67   11.33
  -1   4  -9   63.61   18.57
  -1   4 -10   12.99    7.32
  -4  -1  10   11.76   10.24
  -4  -1 -10   22.68   12.61
   4  -1  10    1.58    2.45
   4  -1 -10   16.94    6.40
   4   1 -10   22.78   12.21
  -1  -4 -10   17.09   12.23
  -1   4 -10   16.36   10.13
   1   4 -10   19.91   14.75
   1   4 -10   23.31   13.36
   4   1 -10   17.41    8.93
   1   4  10   13.97    9.51
  -4   1  10   18.21    6.58
   4   1  10   19.86   10.85
   4   1 -11  178.81   26.40
  -4   1  11   66.09   19.63
  -4  -1  11  167.45   31.72
   1   4  11  188.97   35.48
   1   4 -11  231.62   38.67
  -4   1  11  200.05   22.00
  -4  -1 -11  205.83   36.71
   1   4 -11  198.88   32.83
   4   1  11  183.34   35.33
   4   1 -11  178.30   33.16
  -1   4 -11  187.89   38.64
  -1   4 -11  136.63   23.98
  -1  -4 -11  239.44   42.15
  -1   4 -11  182.84   16.98
   4  -1 -11  172.64   25.90
  -4  -1  11  188.22   36.77
   1   4  12   39.72   15.14
   1   4 -12   41.58   12.06
   4   1 -12   50.22   15.63
  -4  -1 -12   27.57   13.55
  -1   4 -12   44.92   20.49
   4  -1 -12   34.28   13.31
   1   4 -12   50.34   18.07
  -4  -1  12   25.76   14.03
  -1  -4 -12   41.41   18.98
   4   1  12   50.10   20.32
  -1   4 -12   39.76    8.92
   4   1 -12   42.29   16.70
  -4   1  12   -6.62   25.85
  -4   1  12   34.79    9.53
  -1   4 -12   28.84    9.95
  -4  -1  12   59.65   23.18
   1   4 -12   58.13   21.26
  -4  -1  13  142.49   32.46
  -4  -1  13   95.78   23.71
   4  -1 -13   85.90   20.58
   1   4  13  115.25   26.12
  -1   4 -13   60.68   14.12
   1   4 -13   99.66   23.64
  -1   4 -13  127.43   31.95
   4   1 -13   82.67   22.75
   1   4 -13  118.11   19.43
  -4   1  13   -5.03   28.32
  -4   1  13  113.03   17.03
  -4  -1 -13   88.79   22.84
   4   1  13  100.28   25.32
  -1   4 -13  102.05   15.05
   4   1 -13   91.11   21.18
   1   4 -13  117.46   29.46
   1   4 -14  265.44   30.31
  -4  -1  14  277.07   45.80
  -1   4 -14  303.14   48.07
  -4  -1 -14  265.43   38.64
   4   1 -14  222.91   34.19
   4  -1 -14  225.90   34.35
   1   4  14  259.57   37.98
   1   4 -14  214.41   33.86
   1   4 -14  241.25   43.14
  -4   1  14  257.71   26.06
   4   1  14  261.52   38.47
   4   1 -14  270.55   39.84
  -1   4 -14  167.89   23.40
  -4  -1  14  231.69   36.57
  -1   4 -14  254.49   25.27
   1   4 -15   15.71   10.16
   4   1 -15   14.37   11.15
   1   4 -15   47.49   14.65
  -4   1  15   16.97    8.24
   4   1 -15   17.25   10.17
  -1   4 -15   25.36    9.66
  -4  -1 -15   24.67   11.95
  -4  -1  15    6.63    4.91
   1   4  15   17.13   10.70
   1   4 -15   15.96    9.79
  -1   4 -15   30.39   20.15
   4  -1 -15   13.14   10.70
  -1   4 -15   10.70    4.87
  -4  -1  15   33.02   17.14
   4   1  15   35.30   15.97
   4   1 -16  120.57   25.58
   4   1 -16  111.20   24.99
   1   4 -16  127.55   24.00
   4   1  16   80.38   22.01
  -4  -1 -16   81.34   20.43
   1   4  16   98.01   22.31
   1   4 -16   73.27   18.03
  -1   4 -16  125.73   30.12
  -4  -1  16  104.37   27.33
  -4  -1  16   64.78   18.63
  -1   4 -16   92.15   18.11
  -1   4 -16   77.05   15.48
   1   4 -16   59.06   20.17
   4  -1 -16   71.33   20.78
   4   1 -17  131.27   27.01
   4   1 -17  106.27   25.34
   1   4 -17  149.28   26.47
  -1  -4 -17   98.15   12.62
   1   4  17  135.98   26.49
   1   4 -17  114.17   23.18
   4   1  17  113.99   25.13
   1   4 -17   51.19   18.14
  -1   4 -17  114.43   30.09
  -4  -1  17  144.54   31.60
   4  -1 -17   60.50   18.46
  -1   4 -17  135.05   22.80
  -4  -1  17   92.10   21.84
  -1   4 -17  123.41   20.02
  -4  -1 -17  111.52   23.70
   4  -1 -17  132.89   27.17
   1   4 -18    8.65   10.13
  -1  -4 -18    4.71    6.29
   1   4 -18  -38.10   18.52
  -1   4 -18    7.70    6.70
   4   1 -18    7.23    8.91
   1   4  18    3.97    5.67
  -4  -1 -18   -4.73    8.47
  -1   4 -18   17.84   12.89
   4  -1 -18  -12.22   16.05
   4   1  18    0.23    4.68
   1   4 -18    7.95    8.50
  -4  -1  18  -12.38   11.39
   4  -1  18   -2.90    8.07
   4  -1 -18    3.13    2.72
   4   1 -18   -5.43    8.20
  -1   4  18    1.98    3.02
  -4  -1  18   11.60   10.60
   1   4 -19   41.09   16.99
   4   1 -19   38.55   16.70
   4  -1 -19   21.23   10.59
   4   1 -19   17.89   10.42
  -1   4 -19   44.73   15.46
   1   4  19   13.75    8.28
   4  -1 -19  -25.78   14.19
  -1   4  19   15.70    6.58
  -1   4 -19   24.28   10.44
   4   1  19   36.09   14.25
   4  -1  19   25.46   10.72
   1   4 -19   -1.74   11.83
   1   4 -19   31.04   12.10
  -4  -1  19   26.68   17.53
  -1   4 -19   37.41   16.82
   4  -1 -20   27.45   11.26
   4  -1  20   36.49   13.15
   4   1 -20   27.27   14.70
  -1   4  20   30.07    9.67
   1   4 -20   41.81   17.67
   4   1 -20   23.53   11.31
   1   4 -20   26.75   10.60
  -1   4 -20   65.58   22.30
   4   1  20   39.45   15.30
   4  -1 -20   -1.58   10.18
   1   4 -20   12.28   10.68
  -1   4 -20   31.95   13.37
   1   4  20   15.41    8.08
  -1   4 -20   27.29   12.76
  -4  -1  20   31.00   16.38
   4  -1 -21   -2.07    2.20
  -1   4  21    0.46    4.05
   4  -1  21   14.03    9.11
  -1   4 -21    7.83    6.66
   1   4 -21   18.84   12.99
  -1   4 -21   12.65   11.15
   1   4  21    3.18    4.33
   1   4 -21   -3.32    4.67
   4   1 -21    4.45    3.43
  -1   4 -21    0.90    2.27
   4   1  21   15.84    9.82
  -4  -1 -21   -1.42    2.85
  -4  -1  21    3.96    8.65
   1   4 -21  -16.88   16.94
  -4  -1  22   14.33   11.31
  -1   4 -22   13.35   10.55
   4   1 -22    3.02    5.05
  -1   4 -22   -0.16    0.52
   1   4 -22  -16.97   12.42
  -4  -1 -22   -4.17    5.59
   1   4 -22    1.49    6.40
  -1   4 -23    1.32    5.03
  -1   4 -23    3.42    6.53
   1   4 -23    9.21    8.38
   4   1 -23   -0.27    0.64
  -4  -1  23    4.92    8.87
  -4  -1  24    6.57   10.04
  -1   4 -24    6.84    7.54
   4   1 -24   -0.11    7.52
   1   4 -24   -6.67   11.02
  -1   4 -24   -5.47    5.66
   1   4 -24   -0.72    4.28
   1   4 -25   -6.81   10.00
  -1   4 -25   -2.32    4.00
   4   1 -25  -11.30   10.55
   1   4 -25  -20.09   13.12
   4  -1 -25  -27.97   16.36
  -1   4 -25   -7.35    7.17
  -1  -4  25  -15.83   13.71
  -4  -1  25    8.46    8.47
   1   4 -26    5.40    4.35
  -1   4 -26    0.54    7.18
   4   1 -26   -3.76    6.21
   4  -1 -26   -6.40   12.55
  -1  -4  26   -2.36    2.05
  -4  -1  26    9.69    9.62
   1   4 -26    0.58    5.65
   4   1 -27   -0.58    9.99
  -1   4 -27   -0.91    4.04
   1   4 -27    5.76    7.70
   1   4 -27   -5.72    6.87
   4  -1 -27   14.98   14.25
  -1  -4  27    3.53    6.27
  -4  -1  27   20.76   13.43
   4  -1 -28   14.09   13.37
  -4  -1  28   18.79   13.55
  -1   4 -28    2.18    4.27
   1   4 -28  -11.62   12.55
   4   1 -28    4.90    7.03
  -1  -4  28   -6.21    9.53
   1   4 -28    6.59    6.34
   1   4 -29   -7.30    8.41
  -1   4 -29    6.33    7.75
   1   4 -29    9.41   10.67
  -4  -1  29    5.28    6.70
  -4  -1  30   -5.59    6.88
   1   4 -30   -2.66    5.69
   1   4 -31    2.28    7.95
   2   4   0   25.03   17.62
  -2  -4   0   11.99    5.62
  -4  -2   0   18.00   10.93
  -4   2  -1  174.24   16.45
   2   4   1  155.59   42.14
   2   4  -1  133.52   39.63
  -2  -4  -1  191.06   23.15
  -2  -4   1  191.76   23.53
  -4  -2  -1  239.56   34.07
  -4  -2   1  202.06   35.69
   4  -2  -1  167.88   16.71
   4  -2  -2  197.80   19.02
  -2  -4  -2  215.48   24.88
  -2  -4   2  219.31   25.99
  -4   2  -2  186.80   16.89
  -4  -2  -2  249.96   32.69
   2   4  -2  189.89   48.31
   2   4   2  216.24   50.92
  -4  -2   2  229.00   39.19
   4  -2  -3  959.46   43.47
   2   4   3  915.81   97.90
   2   4  -3  860.68  102.56
  -2  -4  -3 1084.86   55.10
  -2  -4   3 1024.42   57.59
  -2  -4   3  941.26   88.16
  -4   2  -3  967.40   37.73
  -4  -2   3 1081.13   87.70
  -4  -2  -3 1067.60   64.15
  -4   2  -4 1183.71   42.00
   2   4   4 1119.95  104.46
   2   4  -4 1140.05  112.21
  -2  -4  -4 1167.58   56.85
  -4  -2  -4 1198.75   63.24
  -2  -4   4 1179.76   96.13
   4  -2  -4 1080.23   47.93
  -2  -4   4 1185.72   57.11
   4  -2  -5  934.83   47.05
   2   4   5 1009.32   98.02
  -4  -2  -5 1054.76   55.65
  -4   2  -5 1056.21   39.40
  -2   4   5  958.79   31.44
  -2  -4   5 1043.49   89.09
   4   2   5 1033.53  103.82
   4   2  -5 1049.18   99.67
   2   4  -5 1026.74  104.64
  -2  -4   5 1008.92   52.03
  -4   2  -6  356.51   22.52
   4   2  -6  433.51   62.13
   4  -2  -6  345.32   30.06
   2   4  -6  342.20   35.31
  -2   4   6  320.72   13.87
  -2  -4   6  358.42   51.56
   4   2   6  351.25   59.35
   2   4  -6  430.81   64.76
   2   4   6  312.60   55.47
  -4  -2  -6  362.94   31.00
  -2  -4   6  371.61   31.71
  -2  -4   7  363.58   31.84
   2   4   7  357.53   54.35
   2   4  -7  389.94   60.31
   4  -2  -7  322.37   29.86
  -4  -2  -7  344.77   28.31
   2   4  -7  284.46   31.92
  -2  -4   7  376.45   50.15
  -2  -4  -7  378.23   56.91
   4   2   7  382.29   58.67
   4   2  -7  331.08   53.91
   4   2   8   14.28   15.39
   4   2  -8   12.33    7.53
   4  -2  -8    0.13    1.91
   2   4   8   11.10   12.38
  -4  -2  -8    6.26    3.75
   2   4  -8    7.46    7.44
   2   4  -8    4.51    9.20
  -2  -4   8   21.26   14.41
  -2  -4  -8    3.01   10.66
   4   2  -8    4.27   12.06
   2   4  -9    2.31    5.95
   4   2   9   -0.93    3.14
   2   4   9    4.90    6.96
   2   4  -9   -0.77    3.02
   4  -2  -9    2.81    3.79
   4   2  -9    3.54    5.55
  -2  -4   9   14.12   11.50
  -2  -4  -9    7.35    9.33
   4   2  -9    3.97    3.88
  -4  -2  -9    7.14    4.45
  -4  -2 -10   22.88    6.57
   2   4 -10   15.72   10.42
   4   2 -10   19.28   12.99
   4  -2 -10   20.64    8.02
  -4   2  10   21.84    7.15
   2   4 -10   28.71   12.09
   2   4  10   19.09   10.41
  -4  -2  10   37.76   19.26
   4   2 -10   10.90    7.02
  -2  -4 -10   12.99   10.71
  -2  -4  10   21.57   13.10
   4   2  10   11.25   12.17
   4  -2 -11  149.86   25.44
   2   4  11  182.00   37.97
   2   4 -11  203.72   39.30
   2   4 -11  193.62   31.98
  -4   2  11  181.24   19.60
   4   2  11  188.18   37.28
  -2  -4 -11  209.84   40.16
  -2  -4  11  221.43   36.10
   4   2 -11  202.40   37.97
   4   2 -11  184.28   27.97
  -4  -2  11  243.31   44.77
  -2   4 -12  340.64   20.21
   4   2 -12  377.35   40.69
   2   4  12  358.32   49.76
  -4  -2  12  440.87   60.47
   4  -2 -12  326.34   39.14
   2   4 -12  365.57   45.09
  -4   2  12  346.15   27.17
  -2  -4 -12  354.15   52.09
  -2  -4  12  436.18   50.70
   4   2  12  318.51   48.20
   4   2 -12  365.58   51.14
   2   4 -12  348.11   47.47
   2   4 -12  365.99   35.44
   4   2 -13  449.82   47.33
   2   4  13  429.38   55.71
   2   4 -13  366.67   49.26
  -2   4 -13  415.65   25.18
  -4  -2  13  570.29   68.44
   2   4 -13  390.03   49.37
  -4   2  13  446.87   31.26
  -2  -4 -13  449.81   56.60
   4   2  13  415.64   53.59
   4   2 -13  465.88   56.47
   2   4 -13  442.32   40.46
  -2  -4  13  488.27   52.69
   2   4 -14  156.95   30.86
   4   2  14  151.48   33.11
   2   4 -14  198.71   28.93
  -2   4 -14  195.17   19.46
   4   2 -14  221.19   33.60
   2   4 -14  195.88   36.08
  -4  -2  14  258.40   46.16
   2   4  14  186.18   36.67
  -4   2  14  185.37   20.64
  -2  -4 -14  199.56   37.12
  -2  -4  14  185.89   31.77
   4   2 -14  192.26   37.38
  -4   2  15  286.74   26.40
   2   4  15  275.20   42.25
   2   4 -15  249.57   38.19
  -2   4 -15  288.48   26.17
   4   2 -15  321.78   41.05
   2   4 -15  261.41   43.44
  -2  -4 -15  279.88   43.34
  -2  -4  15  316.55   39.25
   4   2  15  282.50   44.73
   4   2 -15  324.47   47.08
   2   4 -15  290.58   36.31
  -4  -2  15  295.28   49.16
  -4  -2  16   20.07   14.19
   2   4 -16   12.24    9.22
   4   2 -16   16.93   13.33
   4   2 -16   10.44   11.97
  -2   4 -16    8.92    6.81
   2   4  16   13.15   11.33
   2   4 -16    5.03    7.67
  -4   2  16    0.71    1.54
   4   2  16    1.61    2.96
  -2   4 -16    3.53    3.62
   2   4 -16   -4.66    6.73
  -2  -4 -16   13.79   11.10
  -2  -4  16   12.54    9.28
  -4  -2  17   61.98   22.89
   2   4 -17   55.01   17.66
   4   2 -17   53.38   19.32
   2   4  17   41.49   16.58
  -2   4 -17   38.99   12.31
   2   4 -17   28.75   12.98
  -4   2  17   42.36   11.07
  -4  -2 -17   35.11   14.10
   4   2  17   35.09   15.94
   2   4 -17   23.34   12.40
  -2  -4 -17   41.52   16.42
   2   4 -18    0.32    6.51
   4   2 -18   11.79   11.89
   2   4 -18    2.70    4.12
  -2   4 -18    0.61    0.36
  -4  -2  18   18.42   12.62
  -2  -4 -18    9.01    3.97
   2   4  18   -1.74    6.32
  -4  -2 -18   -4.10    2.09
   2   4 -18  -10.40   15.05
   2   4 -19   21.86   14.32
  -4  -2  19   24.38   13.08
   4   2 -19   18.72   11.96
   2   4  19   15.90    9.86
   2   4 -19    7.28    6.03
  -4  -2 -19   11.25    9.06
   2   4 -19  -23.34   14.79
  -2   4 -19   14.10    8.82
  -2   4 -20   29.14   12.58
  -4  -2  20   74.57   24.78
   4   2 -20   43.52   19.74
   2   4 -20   43.42   18.90
   2   4 -20   35.35   13.89
  -4  -2 -20   47.06   16.68
  -4  -2  21  100.61   28.30
   2   4 -21   76.50   24.58
   4   2 -21   53.69   21.50
  -2   4 -21   53.81   17.08
   2   4 -21   19.93   14.79
  -4  -2 -21   38.49   15.69
   2   4 -22   45.09   19.97
   4   2 -22   47.54   22.05
  -2   4 -22   27.95   13.30
  -4  -2  22   58.45   22.29
  -2   4 -22   36.18   17.68
  -4  -2 -22   27.19   13.46
   2   4 -22   24.36   16.26
  -2  -4  22   31.80   17.65
  -4  -2  23   53.38   20.52
   4   2 -23   28.43   16.77
   2   4 -23   37.35   19.06
  -2  -4  23   35.16   17.51
  -2   4 -23   56.25   19.87
   2   4 -23   48.82   23.85
   4   2 -24   -7.88    8.46
   2   4 -24   13.39   12.22
  -2   4 -24   21.45   12.27
  -2  -4  24    3.19    4.24
   2   4 -24    4.78   10.37
  -4  -2  24   17.89   13.60
   2   4 -25   14.28   13.59
   4   2 -25   -1.23    5.40
  -2   4 -25   30.65   14.96
  -2  -4  25   12.85   10.37
  -4  -2  25   13.21   10.63
   2   4 -26    0.58    3.35
   4   2 -26  -15.94   12.75
  -2   4 -26   -4.19    4.99
   2   4 -26   13.07   13.35
  -2  -4  26    3.79    1.86
  -4  -2  26   -0.89    6.10
  -2  -4  27    8.91    6.14
   4   2 -27  -14.96   12.66
  -2   4 -27   -4.80    7.60
  -4  -2  27   13.60   11.10
   2   4 -27    1.58    6.89
   2   4 -27    2.34    8.27
  -2  -4  28    0.06    7.11
   2   4 -28   -4.16    2.98
   4   2 -28  -10.24   10.70
  -2   4 -28   -3.29    3.21
   2   4 -28    5.08    7.43
  -4  -2  28    5.19    7.66
  -4  -2  29   24.70   17.87
   2   4 -29    0.72    8.28
  -2  -4  29    3.39    7.56
   2   4 -29   17.90   14.11
   2   4 -30    2.77    5.11
  -4  -2  30    9.84   12.88
   3  -4   0    5.11    3.24
  -4  -3   0   22.28   14.90
   3   4   0    5.24   13.92
   3   4  -1  477.67   76.61
  -4  -3  -1  685.33   70.06
   3   4   1  473.62   75.97
  -4  -3   1  727.45   79.74
   4  -3  -1  589.47   29.37
   3  -4   1  562.82   18.01
   4  -3  -2  321.65   22.97
   3   4   2  274.18   56.76
   3   4  -2  298.47   60.61
  -4  -3  -2  383.38   50.47
  -3  -4   2  296.65   54.41
  -4  -3   2  309.02   53.04
   3   4   3   70.49   28.59
   3   4  -3   64.29   27.02
  -4  -3   3   61.09   26.49
  -4  -3  -3   66.44   22.20
  -3  -4   3   63.37   26.82
   4  -3  -3   64.47   10.91
   4  -3  -4  269.30   22.97
   3   4  -4  229.82   54.08
   4   3   4  354.48   64.41
  -4  -3  -4  337.33   42.58
  -3  -4   4  260.14   47.50
   4   3  -4  330.79   61.93
   3   4   4  280.61   56.06
  -4  -3   4  289.72   53.14
  -4  -3  -5   12.86    7.30
   4  -3  -5   13.06    6.15
   3   4   5   13.48   16.05
   3   4  -5    8.84    4.25
  -4  -3   5   27.36   20.78
  -3  -4   5   16.68   11.49
   4   3  -5   26.05   20.66
   4   3   6   23.60   11.41
   4   3  -6   50.68   23.61
   3   4   6   30.81   16.06
   3   4  -6   33.15   19.32
  -4  -3   6   41.60   21.67
   4  -3  -6   30.40    7.99
  -4  -3  -6   38.97   12.94
  -3  -4   6   30.49   16.03
  -3  -4  -6   30.08   17.19
   4   3   7   -5.80    4.12
   3   4   7   10.48   10.57
  -4  -3   7    2.47    5.56
   3   4  -7   -0.70    8.11
  -4   3  -7    5.92    2.14
   4  -3  -7    4.89    0.47
   4   3  -7    1.86    4.23
  -3  -4   7    7.88   10.41
  -4  -3  -7    3.62    2.38
  -3  -4  -7   16.30   11.46
  -4  -3  -8    8.80    5.86
   4   3  -8   24.34   12.09
   3   4   8   20.21   10.66
  -4   3  -8   10.61    3.14
   4  -3  -8    0.37    4.97
   3   4  -8   -0.88    9.99
   4   3   8   12.64   10.60
  -3  -4   8   18.37   11.42
  -3  -4  -8   24.16   16.60
  -4  -3   8   14.13   11.37
  -4  -3  -9   13.31    6.47
   3   4   9   18.05   12.84
  -4   3  -9    7.23    3.04
   4   3   9    5.68    4.60
   3   4  -9   15.65   10.79
  -3  -4   9    5.90    4.47
  -3  -4  -9    3.36    2.71
   4   3  -9    7.25   12.51
  -4  -3   9    0.89    2.10
   4   3  10   19.27   11.67
   3   4 -10   -0.99    8.00
   3   4  10    9.30    9.46
  -4  -3 -10   16.19    7.14
  -4   3  10    6.99    2.35
  -3  -4  10   12.56    9.35
  -3  -4 -10    7.49   10.72
   4   3 -10   21.52   15.45
  -4  -3  10   14.30   12.19
  -4  -3 -11   55.58   10.16
   4   3  11   69.36   23.40
  -3  -4  11   63.71   20.35
   3   4  11   46.26   21.50
  -4   3  11   67.27   10.75
  -4  -3 -11   52.25   20.63
  -3  -4 -11   55.45   20.83
   3   4 -11   62.74   21.90
  -4  -3  11   47.78   18.26
   3   4  12   28.16   16.75
   3   4 -12   26.68   14.58
   4   3 -12   34.70   13.23
  -4  -3 -12   22.65    5.90
   3   4 -12   15.85    7.64
  -4  -3 -12   22.17   12.98
  -4   3  12   17.24    5.31
  -3  -4  12   15.58    9.23
  -3  -4 -12   18.83   12.87
  -4  -3  12   15.86   11.62
  -4   3  13   29.38    7.01
   4   3 -13   20.99   10.79
  -4  -3 -13   32.06    6.45
   3   4  13   36.85   18.86
   3   4 -13   31.44   15.03
   3   4 -13   32.55   12.60
  -4  -3 -13   30.95   14.73
  -3   4 -13   25.36    4.90
  -3  -4  13   20.70   10.78
  -3  -4 -13   14.81   10.70
  -4  -3  13   51.56   22.21
   3   4 -14  129.57   30.59
   3   4  14  123.60   31.60
   3   4 -14  147.90   29.77
  -4   3  14  135.78   15.48
  -3  -4  14  139.77   29.37
  -3   4 -14  120.93   12.88
  -4  -3 -14  130.90   29.87
  -3  -4 -14  130.61   30.99
   3   4 -14  111.22   23.80
   4   3 -14  121.18   24.66
  -4  -3  14  138.06   34.75
   4   3 -15   37.30   17.18
   3   4  15   27.31   16.34
   3   4 -15   53.38   19.79
  -3  -4 -15   18.06    5.91
  -4  -3  15   42.85   19.75
  -3   4 -15   27.80    7.21
   3   4 -15   42.51   15.36
   3   4 -15   42.87   19.24
  -4  -3 -15   33.11   16.03
  -3  -4  15   14.50   10.29
  -3  -4 -15   31.78   15.49
  -4  -3  16   44.40   21.74
   3   4 -16   42.61   17.63
   4   3 -16   56.59   18.96
   3   4 -16   54.77   19.32
  -3   4 -16   37.97   10.06
  -4  -3  16   32.18   13.42
   3   4 -16   55.80   21.95
  -4  -3 -16   37.32   15.89
  -3  -4  16   41.32   15.95
  -3  -4 -16   43.76   19.21
  -3   4 -17   97.89   17.39
  -3  -4  17   81.31   25.16
  -4  -3  17  103.04   24.20
   3   4 -17  101.50   28.91
  -4  -3 -17  117.29   28.75
   4   3 -17   93.84   24.94
  -3  -4 -17   78.83   23.53
  -3  -4  17  107.85   24.02
  -4  -3  17  102.93   30.28
   3   4 -17  120.81   27.22
   3   4 -18   16.91   13.10
  -4  -3  18   17.55   13.78
  -3   4 -18    8.38    6.46
  -3  -4  18   -5.02    7.44
  -4  -3  18   17.43    8.92
   3   4 -18   23.01   18.13
  -4  -3 -18   14.18   11.51
   4   3 -18   18.44   13.33
  -3  -4 -18    7.42    8.51
  -3  -4  18   10.35    7.92
  -4  -3  19   60.19   22.69
   3   4 -19   41.59   17.46
   3   4 -19   40.77   18.66
  -4  -3  19   34.12   14.04
  -4  -3 -19   26.93   14.67
   4   3 -19   48.32   19.06
  -3  -4 -19   22.56   11.89
  -3  -4  19   39.77   13.77
  -3  -4  19   33.23   15.57
   4   3 -20   43.00   19.40
  -4  -3  20   52.19   23.83
   3   4 -20    1.34    7.35
  -4  -3 -20   32.22   14.61
   3   4 -20   24.02   15.94
  -3  -4 -20   40.42   17.98
  -3  -4  20   14.13    9.38
  -4  -3  21    6.15   10.27
   3   4 -21    3.97    3.24
   4   3 -21   13.42   11.50
   3   4 -21   -3.23   11.09
  -4  -3 -21    0.32    3.38
  -3  -4 -21    4.23    5.50
  -3  -4  21    2.77    5.33
   4   3 -22    8.80   10.33
  -4  -3  22    2.05    4.27
  -3  -4 -22    8.68    8.46
   3   4 -22  -16.00   13.26
   3   4 -22   25.32   15.50
  -4  -3 -22    4.89    6.53
  -3  -4  22    3.74    5.85
  -4  -3  23    4.45    8.36
   3   4 -23    0.38    4.94
   4   3 -23    5.23    7.07
  -3  -4  23    0.13    1.05
  -4  -3 -23    2.29    3.73
  -3  -4 -23   20.75   13.51
   4   3 -24    5.57    5.82
   3   4 -24    2.63    1.21
  -4  -3  24   11.91   11.27
  -3  -4  25   -2.52    5.93
   4   3 -25    6.68    8.72
  -4  -3  25   11.25   10.49
   3   4 -25  -22.39   16.46
   3   4 -25   -1.73    6.62
  -3  -4  26   -2.68    2.15
   3   4 -26    5.45    6.83
   4   3 -26    1.51    2.58
  -4  -3  26   -5.97    3.98
   3   4 -27   -0.07    0.86
   4   3 -27   -0.94    5.92
  -4  -3  27    4.99    5.93
  -3  -4  27    8.33   11.66
  -3   4 -27   13.62   10.80
   4   3 -28   -2.00    4.75
   3   4 -28  -15.07   12.86
  -3  -4  28    0.43    8.76
   3   4 -28   -0.15    7.42
  -4  -3  28   -6.55    8.02
  -3  -4  29    7.37    6.16
  -4  -3  29   -0.18    4.94
  -3  -4  30    9.84   10.54
  -4  -3  30   -0.11    4.91
  -4  -3  31    8.96    8.78
  -4  -4   0 2225.56  157.50
   4  -4   0 2325.01   49.48
   4   4   1   72.79   42.76
   4   4  -1   77.17   46.04
   4  -4  -1   31.48    8.84
  -4  -4   1  111.27   43.37
  -4  -4  -1   90.78   41.65
   4  -4  -2  892.54   36.39
   4   4  -2  799.31  108.80
   4   4   2  872.23  110.31
  -4  -4   2  909.43  101.61
  -4  -4  -2  986.41  103.69
   4   4   3   10.27   18.21
   4   4  -3   38.78   30.23
   4  -4  -3    2.92    4.02
  -4  -4   3   29.52   22.69
  -4  -4  -3   28.58   20.46
   4   4   4   18.14   13.36
   4   4  -4   15.81   19.12
   4  -4  -4   11.90    4.91
  -4  -4   4   17.03   15.41
  -4  -4  -4   11.83   14.03
   4   4  -5   -0.25   11.27
   4   4   5   25.79   20.23
   4  -4  -5   -2.33    2.35
  -4  -4   5   -4.24    6.38
  -4  -4  -5   12.64   11.77
   4   4   6   29.57   18.67
   4   4  -6   30.74   20.59
  -4  -4   6   30.11   17.98
  -4  -4  -6   14.82   11.47
   4   4   7   11.80   14.47
   4   4  -7    2.78    9.74
  -4  -4   7    2.55    7.94
  -4  -4  -7  -13.09   10.81
   4   4   8    0.57    6.70
   4   4  -8    8.38    1.38
  -4  -4  -8   10.93    3.28
  -4  -4  -8   11.84   11.94
  -4  -4   8   15.35   13.71
   4   4  -9    4.34   10.31
   4   4   9   -0.99    7.89
  -4  -4   9   14.86   16.22
  -4  -4  -9   -2.87    6.97
  -4  -4  -9   -3.27    6.81
  -4  -4   9    0.93    8.64
  -4  -4  10   44.70   17.88
  -4   4  10   59.36    8.83
  -4  -4  10   55.35   22.30
  -4  -4 -10   65.20   23.79
  -4  -4 -10   62.44   15.25
   4   4 -10   52.64   23.56
  -4  -4 -11   -5.11    4.47
  -4  -4  11    7.31    8.90
  -4  -4 -11  -10.06    9.15
  -4   4  11   -0.32    0.35
  -4  -4  11    3.71    3.45
  -4  -4  12  122.46   30.83
  -4  -4 -12  110.66   31.02
  -4  -4 -12  121.70   18.67
  -4  -4  12  104.56   31.99
  -4  -4  13   -4.65    4.87
  -4  -4  13   14.75   10.64
  -4  -4 -13    3.89    9.45
  -4  -4 -13    2.81    3.98
  -4  -4 -14   10.48    4.79
  -4  -4  14    5.68    5.46
  -4  -4 -14   11.48    8.98
  -4  -4  14    6.62   12.43
  -4  -4  15   16.52   13.90
  -4  -4 -15   14.31   13.53
  -4  -4  15    8.83   14.19
  -4  -4  16  318.23   45.93
  -4  -4 -16  264.74   48.87
  -4  -4  16  290.25   53.42
   4   4 -16  305.97   41.99
   4   4 -17   76.30   23.81
  -4  -4 -17   38.11   20.30
  -4  -4  17   26.45   16.44
  -4  -4  17   51.22   26.16
  -4  -4  18  274.65   41.72
  -4  -4 -18  239.88   44.97
  -4  -4  18  268.52   51.04
   4   4 -18  278.79   42.38
   4   4 -19   43.14   18.70
  -4  -4 -19   17.40   14.55
  -4  -4  19   10.15   14.89
  -4  -4  20   34.19   19.13
   4   4 -20   25.82   15.85
  -4  -4 -20   31.01   16.07
   4   4 -21    4.62   12.95
  -4  -4  21    1.87    4.73
  -4  -4 -21    3.48    6.23
  -4  -4  22    0.87    6.69
   4   4 -22   10.39   10.30
  -4  -4 -22    1.01    8.13
  -4  -4  23    7.23    9.90
   4   4 -23    4.03    8.38
  -4  -4 -23   -6.51    7.86
  -4  -4  24    4.62    6.89
   4   4 -24    7.12    8.91
  -4  -4  25    9.92    8.53
   4   4 -25    7.23    8.44
  -4  -4  26   -3.18    2.34
   4   4 -26   -0.02    3.36
  -4  -4  27    5.99   11.33
   4   4 -27    3.74    3.14
  -4  -4  28   17.56   14.91
  -4  -4  29   11.92   11.90
  -5   0   0  -18.78   14.35
   0   5   0    2.28    4.09
  -5   0  -1  107.84   16.97
  -5   0   1   73.25   18.72
   0   5  -1  105.70   16.28
   0   5   1  112.52   15.19
  -5   0  -2  203.95   22.77
   0   5  -2  234.39   25.22
  -5   0   2  165.00   31.11
  -5   0   3   17.80   13.13
  -5   0  -3   11.79    6.29
   0   5  -3   13.62    7.55
   5   0   4  168.31   31.91
   0   5  -4  216.17   26.74
   0  -5   4  192.80   19.83
  -5   0   4  220.05   39.16
   0  -5   5  203.13   20.12
   5   0   5  128.85   28.28
   0   5  -5  209.21   28.47
  -5   0   5  193.96   37.26
   5   0   6   18.00   11.80
   0  -5   6   32.89    8.08
   0   5  -6   61.35   16.65
  -5   0   6   43.74   18.90
   5   0  -6   39.98   12.68
   0  -5   7  207.23   20.09
   5   0   7  116.67   26.26
   0   5  -7  228.43   32.69
  -5   0   7  259.00   45.40
   5   0  -7  264.51   52.58
   5   0   7  246.06   57.70
   5   0  -7  201.85   27.00
   5   0   8    9.40    9.60
   0   5  -8   14.56   11.85
   5   0  -8   13.22    9.09
   0  -5   8    4.73    3.42
   5   0   8   18.91   20.69
   5   0  -8    8.87   12.42
  -5   0   8   14.71   14.24
   5   0  -9  170.91   25.91
   5   0   9  120.15   25.86
   5   0   9  265.42   53.33
   5   0  -9  208.31   43.97
   0   5  -9  208.61   34.91
  -5   0   9  225.74   44.42
   0   5 -10    5.96   11.41
  -5   0  10   11.08   14.20
   5   0 -10    7.80    7.64
   5   0  10    2.82    5.93
   0   5  10   -2.26    3.33
   0   5 -10   12.12   11.58
   5   0  10    9.93   13.65
   5   0 -10    7.18   10.63
  -5   0  11  208.24   45.49
   5   0 -11  206.82   42.52
   0   5  11  198.03   39.27
   0   5 -11  171.48   34.10
   5   0 -11  193.24   29.69
   0   5 -11  169.24   35.15
   5   0  11  202.01   43.64
   5   0  11  183.04   29.28
   5   0  12   47.57   14.38
   5   0 -12   64.58   17.76
   0   5 -12   49.58   21.85
   0   5  12   43.60   17.76
   0   5 -12   49.75   17.56
  -5   0  12   51.16   23.99
   5   0  12   60.16   27.00
   5   0 -12   45.65   21.13
   5   0  13   70.12   25.87
   5   0 -13   83.48   20.87
   0   5 -13   70.82   24.52
   5   0  13   85.99   18.55
   0   5  13   82.54   23.10
   0   5 -13   60.25   19.97
  -5   0  13   50.70   21.61
   5   0 -13   92.35   27.75
   5   0 -14  124.24   26.37
  -5   0  14  168.85   43.40
   0   5  14  150.24   31.72
   0   5 -14  141.96   28.97
   5   0 -14  182.68   38.13
   0   5 -14  131.90   33.96
   5   0  14  162.99   24.22
   5   0  14  160.57   34.75
  -5   0  15   16.68   11.39
   5   0 -15   17.00   11.58
   5   0 -15   14.34   12.00
   0   5  15    4.90    7.85
   0   5 -15    7.50   12.01
   0   5 -15   12.42   10.89
   5   0  15   13.48   10.60
   0   5 -16   42.97   20.24
  -5   0  16   83.19   30.01
   5   0  16   83.12   26.33
   5   0 -16   68.54   20.47
   0   5  16   57.81   18.47
   0   5 -16   74.70   15.59
   0   5 -16   65.16   20.55
   5   0 -16   84.72   25.49
   5   0 -17   34.58   16.43
   0   5 -17   30.06   11.08
   5   0  17   43.77   18.07
   5   0 -17   47.43   20.77
   0   5  17   43.21   16.25
   0   5 -17   35.58   14.99
   0   5 -17   22.96   14.46
  -5   0  17   34.10   17.82
  -5   0  18   -6.44   10.37
   5   0 -18   -2.05    5.18
   5   0  18   -1.00    2.83
   5   0 -18    3.99    6.63
   0   5  18   -1.55    2.29
   0   5 -18   -0.88    3.05
   0   5 -18   -0.99    2.56
   0   5 -18   -2.71    3.30
   0   5 -19   13.50    8.39
   5   0 -19    1.19    9.52
   5   0  19    5.60    6.96
   0   5  19   12.11    7.02
   0   5 -19    8.09    6.69
   0   5 -19    8.22   10.77
   5   0 -19   11.46    8.45
  -5   0  19   -0.24    6.15
   0   5 -20    2.14    3.54
   0   5 -20    8.55    6.96
  -5   0  20  -11.54   17.34
   5   0 -20    6.61    8.38
   0   5  20   12.12    8.27
   0   5 -20    9.02    9.57
   5   0  20   10.21    8.05
   5   0 -20   -1.32    2.54
   0   5 -21   11.64    9.74
   5   0 -21    3.64    0.61
   0   5 -21    2.32    3.93
   0   5 -21    7.83    6.88
   5   0  21    2.22    5.28
   5   0 -21   -1.47    3.15
   0   5 -22   -6.72    7.85
   0   5 -22    4.84    7.64
   5   0 -22    5.82    5.28
   0   5 -23   11.12   10.30
  -5   0  23  -12.28   16.40
   5   0 -23  -16.15   12.47
   0   5 -23   -6.11    8.50
   0   5 -24  -12.82   10.20
   5   0 -24   -2.61   11.07
   0   5 -25    1.54    6.87
   5   0 -25  -18.60   14.10
   0   5 -26  -20.19   12.52
   5   0 -26  -23.04   15.97
  -5   0  27  -75.38   30.27
   0   5 -27   -1.17    3.29
  -5  -1   0   -3.27    4.33
  -1  -5   0   -0.73    4.29
  -5   1   0   -0.11    1.14
  -1   5   0    5.96    5.70
   1   5   0    1.23   11.60
  -1  -5  -1    3.07    4.16
  -1  -5   1    0.81    0.67
  -5   1   1   -3.62    4.01
  -1   5  -1   -0.67    2.16
  -5  -1   1    6.25    6.46
   1   5   1    3.41    2.39
   1   5  -1    5.79    8.59
  -5  -1  -1   -1.45    2.91
  -5   1  -1   -0.33    1.32
  -1  -5   1    5.91    3.49
  -1   5   1    4.37    3.53
  -5  -1   2   -2.79    1.10
  -5  -1  -2   -1.21    3.52
  -5   1  -2    1.01    2.21
  -1  -5   2   -0.14    2.72
  -5   1   2    2.55    2.63
   1   5   2    5.86   20.75
   1   5  -2   -3.98   11.29
   1   5  -2   -1.71    3.13
  -1  -5  -2   -1.31    1.58
  -1   5  -2    1.49    2.92
  -1  -5   2   10.72   12.45
  -1   5   2   -1.38    1.56
  -5  -1   3    3.10    5.50
  -1   5  -3   -0.82    2.06
  -5   1   3    1.88    1.73
   1   5   3   -2.87   11.32
   1   5  -3    8.45   13.35
   1   5  -3   -3.99    4.71
  -1   5   3    1.60    2.43
  -1  -5  -3    0.83    1.62
  -5  -1  -3    8.02    7.60
  -1  -5   3    4.32   12.73
  -5   1  -3    3.47    4.69
   5   1   4    2.79   14.45
   5  -1  -4    1.70    1.83
  -1  -5   4    0.48    0.30
  -5   1  -4   -0.51    2.19
   1  -5   4   -0.69    1.19
  -5  -1  -4   -4.10    5.29
   5   1  -4   -0.94    7.03
  -1   5  -4   -3.68    4.47
  -5  -1   4    1.36    3.05
  -1  -5  -4    1.40    2.75
   1   5   4   -1.52    6.89
   1   5  -4  -10.83   19.11
  -1  -5   4    3.55    8.48
  -1   5   4   -1.60    1.98
   1   5  -4   -1.30    5.64
   5   1   4  -11.59   12.72
  -1  -5  -5   -0.74    1.51
   5  -1  -5    1.55    3.94
  -1  -5   5   -0.24    1.40
  -5   1  -5    0.93    1.69
   5   1   5  -15.35   20.24
   1  -5   5    0.56    1.34
  -1   5  -5   -0.31    5.05
   1   5   5   -3.30    4.63
   1   5  -5  -10.88   16.57
   5   1  -5    7.17    3.49
   5   1   5   -6.12    9.47
  -5  -1  -5   -1.50    7.41
   1   5  -5    1.38    1.09
  -5  -1   5   -3.90    5.16
  -1  -5  -5    6.07   10.69
   5   1   6   -2.18    7.74
   5  -1  -6    3.04    4.02
   5   1  -6    0.46    0.57
  -1  -5   6    0.77    2.39
  -1  -5  -6   -0.60    2.38
  -1   5  -6   -0.05    3.54
   1  -5   6   -0.03    0.59
   1   5   6   11.27   13.23
   1   5  -6    1.51    4.99
   5   1   6   -0.04    8.38
  -1  -5  -6    9.81   11.72
   1   5  -6    0.38    1.97
  -5  -1   6   -4.95    5.30
  -5  -1   7   -6.43    3.79
   5  -1  -7    3.35    5.01
   5   1  -7    1.20    4.75
  -1  -5   7   -0.69    1.26
   5   1   7    3.43   15.74
  -1   5  -7   -2.82    8.81
   1   5   7    1.93    7.02
   1   5  -7   -7.78    8.87
   5   1   7    9.70    6.77
  -1  -5  -7   -5.74    7.86
   1   5  -7   -1.27    4.35
  -1  -5  -7    0.31    2.61
   5  -1   8   -0.98    3.51
   5   1  -8    1.23    2.38
  -5  -1   8   -0.14    6.52
   5  -1  -8    3.49    4.77
   5   1   8  -12.05   14.38
   5   1  -8   -3.44    4.33
  -1   5  -8   -5.17   11.28
  -1  -5   8    0.85    2.15
   1   5   8   -2.95    5.21
   1   5  -8    5.29    8.12
   5   1   8   -3.02    9.00
   1   5  -8   -2.34    5.67
  -1  -5  -8   -0.89    1.57
  -1   5  -9   -4.46   12.62
   5   1  -9   -2.41    6.56
   5  -1  -9    0.40    3.49
  -1  -5   9    0.21    0.97
  -5  -1   9    1.78    5.91
   1   5   9   -0.63    6.13
   1   5  -9    3.21    6.46
   5  -1   9    0.37    5.64
   5   1  -9    1.09    3.60
   5   1   9   -0.21   12.30
  -1  -5  -9    1.99    2.55
   1   5  -9   -4.52    7.62
   5   1 -10    3.11    6.66
   5  -1  10   -2.14    4.12
   5   1 -10    6.33    2.62
   5  -1 -10    5.66    5.14
  -1   5 -10   -4.70   10.68
   5   1  10   -1.91    3.74
  -5  -1  10    9.94   12.20
   1   5  10   -3.30    8.90
   1   5 -10   -0.57    4.50
  -1  -5 -10    2.91    3.21
   1   5 -10  -18.89    9.91
   5  -1  11    1.30    4.69
   5   1 -11    9.80    8.10
   5  -1 -11    1.80    0.98
  -1   5 -11   -4.98   10.99
   5   1  11   -9.82    8.80
   5   1 -11   -0.45    1.00
   1   5  11   -2.44    7.80
   1   5 -11   -4.88    9.04
  -1  -5 -11    0.81    1.67
  -5  -1  11    4.57    7.25
   1   5 -11   -3.05    6.26
  -5  -1  12    1.03    4.36
   5   1 -12    0.57    1.92
  -1   5 -12  -15.63   14.68
   5   1  12    5.33    9.29
   1   5  12   -0.69    4.09
   1   5 -12    6.79    5.39
   5   1 -12   -6.54    4.61
  -1  -5 -12    0.38    1.96
   5  -1 -12    2.65    5.08
   1   5 -12   -4.30    8.09
   5  -1  12    2.95    3.80
   5   1 -13  -15.19    8.49
   5  -1 -13    4.62    5.50
  -1   5 -13    2.68    7.68
   5  -1  13    2.08    5.30
   1   5  13  -10.57   11.43
   1   5 -13   -1.41    0.86
   5   1  13    3.44    6.73
   5   1 -13    2.56    6.35
  -5  -1  13    8.48    9.88
   1   5 -13    8.74    3.04
   5   1 -14   -0.33    5.77
  -5  -1  14    0.75    5.66
   5  -1  14    6.46    5.74
   5  -1 -14   -0.68    1.92
  -1   5 -14   21.15   15.05
   1   5 -14    8.67    3.35
   1   5  14   -2.17    5.63
   5   1  14    4.21    3.74
   5   1 -14    4.03    9.07
   1   5 -14    2.68    2.96
   1   5 -15   -5.41    3.06
  -5  -1  15   17.58   15.32
   5   1 -15    2.12    6.14
   5   1 -15   -6.67    8.90
   1   5 -15    9.28   11.69
  -1   5 -15    8.09    7.72
   1   5  15   -6.51    8.29
   5  -1 -15   -3.37    7.21
   5   1  15    1.14    4.23
  -1   5 -16    3.28    3.75
   5   1 -16   -6.22    3.52
  -1   5 -16   -2.15    7.96
   5  -1 -16   -0.51    5.67
   1   5  16    1.95    6.20
   1   5 -16   -4.55    5.40
   5  -1 -16    5.51    3.18
  -5  -1  16    6.79    9.32
   5   1 -16  -13.22    9.49
   5   1  16   -4.15    6.44
   1   5 -17   -2.15   10.42
   1   5 -17   -5.33    5.64
  -5  -1  17    9.14   11.40
   5   1 -17    2.57    1.10
   5   1 -17    6.46    7.69
  -1   5 -17    5.72    5.61
   5  -1 -17   -1.57    6.08
   1   5  17   -6.54    3.43
  -1   5 -17   -2.60    2.45
   1   5 -17   -5.41    7.69
   5   1  17    0.38    4.18
   5  -1  17    6.56    5.82
   5  -1 -17   -3.20    3.39
  -5  -1  18    5.76   10.79
   5   1 -18    5.32    8.03
   5   1 -18   -5.71    8.81
  -1   5 -18    0.92    4.78
   5  -1 -18   -6.38    8.07
   1   5  18    2.12    6.42
   1   5 -18    2.86    5.94
  -1   5 -18   -0.54    2.35
   5   1  18   -0.30    7.13
  -1   5  18    0.47    3.25
  -1   5 -18    1.18    3.90
   5  -1  18   -2.37    5.32
   5  -1 -18    3.63    9.86
   1   5 -18    7.18    6.48
   1   5 -18   -5.51   14.55
   1   5 -19    2.25    4.57
  -5  -1  19    5.32   14.76
  -1   5 -19    3.49    3.50
   5   1 -19    2.90    7.70
  -1   5 -19   12.37   12.35
   5   1  19    7.72    8.53
   5  -1 -19   -9.15    8.42
   1   5  19   -4.38    5.21
   1   5 -19   -1.90    3.31
   5   1 -19    4.05    0.99
  -1   5  19    0.81    4.89
  -1   5 -19   -0.19    5.80
   1   5 -19  -21.82   22.93
   5  -1  19    0.95    2.61
   5  -1 -19    0.08    3.11
   5  -1 -20    8.88    9.08
  -1   5 -20   -0.88    1.92
   5   1 -20    1.93    3.00
  -1   5 -20   19.11   13.91
   5  -1 -20   -0.46    6.88
   1   5 -20   -2.85    4.07
   1   5 -20    1.77    3.36
  -5  -1  20   -5.34    6.30
   1   5  20    4.94    1.90
  -1   5  20    3.87    4.44
  -1   5 -20    1.43    2.97
   5   1  20    3.96    6.84
   5   1 -20   -2.61    7.02
   5  -1  20   -0.14    3.40
   5   1  21   -3.26    6.45
   5  -1  21    0.43    6.00
  -5  -1  21   -0.71    4.36
   1   5 -21   10.85    9.26
   5  -1 -21   -4.20    9.38
   5   1 -21   10.59   11.56
  -1   5 -21    6.48    8.19
   5   1 -21    1.15    4.04
   1   5 -21   -7.28    8.36
   5  -1 -21  -15.86   14.49
  -1   5 -21    7.98    8.84
  -5  -1  22    3.38    7.71
   1   5 -22    6.50    6.71
   5   1 -22    4.54    9.99
   5  -1 -22  -30.22   17.12
  -1   5 -22    8.74    7.41
   1   5 -22  -22.28   15.33
  -5  -1  23    6.70   10.59
  -1   5 -23    5.92    5.62
   5   1 -23   -4.62    7.43
   5  -1 -23  -20.02   16.38
   1   5 -23    0.89    2.59
   1   5 -23  -15.17   17.27
  -5  -1  24   -1.72    6.24
  -1   5 -24   -3.71    5.62
   5   1 -24    0.03   10.87
   1   5 -24    4.73    9.07
   1   5 -24  -14.21   11.59
  -5  -1  25    1.72    6.64
   1   5 -25   -8.82    8.61
  -1   5 -25    1.94    3.94
   5   1 -25   -3.35    6.66
   5  -1 -25  -22.66   15.78
   1   5 -25    6.32    9.15
  -1   5 -26    2.15    8.15
  -5  -1  26    1.02    2.23
   5   1 -26  -13.78   12.26
   5  -1 -26  -23.03   16.05
   1   5 -26    2.95    2.62
   1   5 -26   11.72    5.15
  -5  -1  27  -11.32   10.30
   1   5 -27   11.25   14.64
  -1  -5  27  -22.49   14.02
  -5  -1  28   -0.02    2.58
  -1  -5  28    0.08    9.04
  -5  -1  29   -6.31   10.12
  -5  -1  30  -26.04   17.17
  -2   5   0   -1.31    6.34
  -5  -2   0   -0.19    2.22
   2   5   0   -0.59    6.60
  -2  -5   0    6.94   11.33
  -5  -2   1   10.53    6.31
  -5  -2  -1    6.04    7.26
  -2   5  -1    0.03    5.51
  -2   5   1    7.44    3.30
  -5   2  -1    4.00    2.70
   2   5   1   -1.42   12.56
   2   5  -1    6.82   10.80
   5   2   1    9.86   16.52
  -2  -5  -1    5.32    5.41
  -2  -5   1    6.59   10.16
  -5  -2  -2   16.71    9.63
  -2   5   2    9.01    3.98
  -5   2  -2   11.59    5.17
   2   5   2   -1.23    4.02
   2   5  -2   -8.17   20.49
  -2   5  -2    5.84    4.61
   5   2   2   21.71   19.33
   5   2  -2   -1.69    6.38
  -5  -2   2   20.40   10.83
  -2  -5  -2   -3.95    8.95
  -2  -5   2   -4.85   10.78
  -2  -5  -2   11.21    6.63
  -5  -2   3   21.76   13.60
  -5  -2  -3   10.51    7.12
   2  -5   3   11.49    2.65
  -2   5   3   13.35    5.17
  -5   2  -3    8.86    3.80
   2   5   3   19.75   19.91
   2   5  -3   18.12   11.26
   5  -2  -3   11.59    5.08
   5   2   3   13.15   16.31
   5   2  -3   32.81   18.78
  -2  -5  -3   10.90    5.33
  -2  -5   3    4.48   11.26
   5  -2  -4  133.25   18.55
  -5   2  -4  149.87   18.11
  -5  -2   4  153.06   33.62
   2   5   4  130.63   40.36
   2   5  -4  110.49   42.21
  -2  -5  -4  142.83   20.96
  -2   5   4  144.14   14.54
   5   2   4  144.40   43.48
   5   2  -4  131.91   39.79
  -2  -5  -4  127.09   37.68
  -2  -5   4  117.12   34.89
  -5  -2  -4  144.87   22.82
  -5  -2   5   34.77   18.89
   5  -2  -5   23.72    9.00
  -5   2  -5   21.16    6.88
  -2   5   5   20.74    5.15
   2   5   5   36.50   22.26
   2   5  -5   30.45   22.51
  -5  -2  -5   21.11   10.13
  -2  -5  -5   17.86    6.95
   5   2   5   17.83   17.36
   5   2  -5   16.91   17.79
  -2  -5  -5   26.39   17.56
  -2  -5   5   36.38   20.39
  -5   2  -6  229.52   22.74
   5  -2  -6  226.99   25.64
   2   5  -6  268.93   58.33
  -5  -2   6  236.18   43.91
   2   5   6  210.03   47.95
   2   5  -6  218.19   29.16
  -2   5   6  206.02   12.77
  -2  -5  -6  222.36   25.60
  -2  -5  -6  250.84   53.34
  -2  -5   6  215.20   45.28
   5   2   6  251.09   56.55
   5   2  -6  215.32   47.72
  -5  -2  -6  245.92   28.06
   5  -2  -7  242.05   27.82
   2   5   7  263.29   51.39
   2   5  -7  307.83   59.36
  -5  -2  -7  289.94   30.21
   2   5  -7  264.22   33.19
  -2  -5  -7  263.87   27.62
   5   2   7  282.72   59.75
   5   2  -7  309.72   55.21
  -2  -5  -7  252.93   53.68
  -2  -5   7  270.68   50.29
  -5  -2   7  255.87   46.88
  -5   2  -7  248.80   23.54
   5   2  -8   30.39   21.44
  -5  -2   8   28.73   20.06
   5  -2  -8   27.24   10.61
   2   5   8   39.64   23.24
   2   5  -8   40.47   24.25
  -2  -5  -8   25.16   10.50
   2   5  -8   26.65   14.28
  -5  -2  -8   28.79   12.07
  -2  -5  -8   27.53   19.65
  -2  -5   8   20.06   14.75
   5   2   8   44.38   23.49
   5  -2  -9  318.11   33.42
  -5  -2   9  358.64   57.00
   2   5   9  366.82   57.97
   2   5  -9  408.61   65.43
   2   5  -9  378.86   43.07
   5   2   9  367.63   61.35
   5   2  -9  348.63   56.79
  -2  -5  -9  408.98   64.14
  -2  -5   9  418.63   58.64
  -5  -2  -9  381.36   36.24
   2   5 -10  113.87   24.94
   5  -2 -10   97.64   20.20
  -5  -2  10  154.05   37.41
   5   2  10   94.15   32.35
   2   5  10  123.13   33.74
   2   5 -10  133.96   36.91
  -2  -5 -10  127.40   36.43
  -2  -5  10  100.26   29.38
   5   2 -10  108.48   32.42
   5  -2 -11  104.33   21.11
  -5  -2  11  121.48   35.94
   5   2 -11  110.28   23.26
   5   2  11  126.38   35.06
   5   2 -11  101.69   32.20
   2   5  11  112.79   30.89
   2   5 -11  121.74   33.69
  -5   2  11  122.15   19.15
   2   5 -11  145.63   28.56
  -2  -5 -11  163.15   40.02
  -2  -5  11   99.72   27.13
  -5  -2  12  125.66   35.33
  -2  -5  12  129.97   31.41
   5   2  12  124.24   33.14
   5   2 -12  146.54   35.32
   5  -2 -12  112.12   22.49
   2   5  12  121.81   31.17
   2   5 -12  116.56   32.32
  -5   2  12  154.64   21.78
   2   5 -12  122.98   27.36
  -2  -5 -12  160.53   38.72
   5   2 -12  149.73   27.44
   5   2 -13   16.57    9.83
  -5  -2  13    8.98   10.40
   5  -2 -13    5.85    1.74
   2   5  13   14.13   11.23
   5   2  13    5.26    6.19
   2   5 -13    3.11    1.79
  -2  -5  13   16.20   11.03
   5   2 -13   16.59   10.97
   2   5 -13   24.83   16.32
  -5   2  13   11.46    4.77
  -2  -5 -13   17.51   13.01
  -5  -2  14   39.15   18.08
   2   5  14   40.77   18.69
   5  -2 -14   27.97   10.72
   2   5 -14   29.46   15.13
   5   2 -14   34.88   14.29
   5   2  14   28.82   15.51
   5   2 -14   34.33   14.69
   2   5 -14   49.24   19.84
  -5   2  14   37.21   10.71
  -2  -5 -14   41.82   19.56
   2   5 -15   -0.41    3.82
   5   2 -15   -4.82    5.57
   2   5  15    0.09    9.06
   5   2 -15    2.78    1.96
   5  -2 -15   -5.54    8.08
  -2   5 -15    8.75   12.03
  -5  -2  15   14.90   12.37
   2   5 -15    1.96    5.93
   5   2  15   14.81   15.55
  -2  -5 -15    3.06    5.89
  -5  -2  16   17.80   18.24
   5   2  16   17.32   15.35
   2   5  16   21.65   12.17
   2   5 -16    7.88    5.20
   5  -2 -16   -0.10    4.68
  -2   5 -16   26.31   18.11
  -2  -5 -16    9.01    2.71
   2   5 -16   14.40   11.54
   5   2 -16   16.08   11.99
   5   2 -16   13.96   10.36
  -5  -2  17   14.66   14.18
   5   2 -17    9.03   10.14
   2   5  17    9.04    8.64
   5   2  17    2.27    5.64
   2   5 -17    3.47    2.05
   5  -2 -17  -11.57    9.03
  -2   5 -17   15.67   14.75
   5   2 -17   10.21   11.38
   2   5 -17    5.98   12.80
   2   5 -18   30.74   14.29
  -5  -2  18   28.86   17.72
   5   2 -18   25.53   15.50
   2   5  18   -3.63    4.95
   2   5 -18   -5.87    8.73
   5   2 -18   10.67   10.40
   5  -2 -18   -2.07   11.97
  -2   5 -18   11.99   11.04
   2   5 -18    9.82    6.57
   5   2  18    7.14    7.92
  -5  -2  19   14.83   11.80
   5   2 -19   27.95   15.55
   2   5  19    3.64    5.60
   2   5 -19    8.19    7.06
   5  -2 -19   -9.26   12.66
  -2   5 -19   18.57   14.52
  -5  -2 -19   -2.40    6.79
   2   5 -19   14.16    9.89
   5   2  19   11.11    9.15
   2   5 -19   -4.64   13.71
   5   2 -19    5.09    7.86
   2   5 -20    6.51    7.10
   5   2 -20   22.66   16.80
   2   5 -20   -1.21    3.32
  -2   5 -20   10.40   10.86
  -5  -2 -20   -3.93    5.43
   2   5  20   17.76   13.21
   2   5 -20    0.81    4.67
  -5  -2  20    8.26    6.30
  -5  -2  21   35.13   18.29
   2   5 -21   12.62   12.84
   5   2 -21   34.04   18.47
   2   5 -21   10.65   10.45
  -2   5 -21   12.43   12.96
   5  -2 -21  -17.84   13.13
  -5  -2 -21    3.09    1.19
   5  -2 -21   11.10   10.80
   2   5 -21  -21.79   15.97
  -5  -2  22   13.33   11.25
   2   5 -22   19.68   14.74
   5   2 -22   23.34   17.26
  -2   5 -22   15.57   13.59
   5  -2 -22  -30.54   17.65
  -5  -2 -22    8.15    8.65
   2   5 -22   -4.89   11.30
  -5  -2  23   24.11   15.17
   2   5 -23    8.01    9.17
   5   2 -23   20.44   15.99
  -2   5 -23    5.08    7.35
   5  -2 -23  -13.85   12.12
   2   5 -23   18.49   17.42
  -5  -2  24   13.86   10.67
   5   2 -24   19.48   16.61
  -2   5 -24   17.84   10.25
   5  -2 -24   -0.60    7.23
   2   5 -24    1.26    6.75
   2   5 -24    4.92    7.15
  -2  -5  24    3.57    3.67
   2   5 -25   14.32   12.78
  -5  -2  25    8.38   12.08
   5   2 -25   18.66   16.81
  -2   5 -25   12.18    8.57
   5  -2 -25   -8.26    9.54
   2   5 -25    1.91    8.58
  -2  -5  25   -3.31    7.91
   2   5 -26    1.58   10.56
   5   2 -26    1.31    9.45
  -2   5 -26    0.46    4.17
   5  -2 -26   -3.02    6.26
  -5  -2  26   13.19   12.70
   2   5 -26    1.05    4.39
  -2  -5  26   -4.19    6.27
  -5  -2  27    6.61    9.40
   2   5 -27    9.70   11.42
  -2  -5  27   18.27   13.61
   2   5 -28   -5.92    7.65
  -2  -5  28   -3.14    3.17
  -5  -2  29   15.67   13.98
  -2  -5  29   -0.84    8.15
  -5  -2  30    4.69    6.72
  -5  -3   0   -2.75    7.56
   3   5   0    4.00   17.29
  -3  -5   0    4.85   11.21
   5   3   0    0.70    8.24
  -5  -3   1    1.28    5.05
  -5  -3  -1   -1.01    3.09
   3  -5   1    0.13    0.30
   3   5   1    6.15    5.53
   3   5  -1  -14.46   19.26
  -3  -5   1   10.04   13.22
  -3  -5  -1   15.34   18.10
   5   3   1   -2.59    7.23
   5   3  -1    8.37   11.92
  -5  -3  -2    6.90    7.97
   5  -3  -2    3.22    3.70
  -5  -3   2   11.50   10.08
   3   5   2    2.62    4.25
   3   5  -2   -9.28   18.75
  -3  -5   2   -2.98    5.81
  -3  -5  -2    0.06    7.43
   5   3   2  -14.52    8.68
   5   3  -2    3.21    5.10
  -5  -3   3    0.21    3.44
  -5  -3  -3   -3.33    5.15
   3   5   3    0.02   11.12
   3   5  -3  -15.00   19.54
   5  -3  -3   -1.60    1.39
  -3  -5   3   -4.77    4.39
  -3  -5  -3   12.74   14.29
   5   3   3   -4.69    6.99
   5   3  -3    4.83    5.53
  -5  -3  -4    3.06    5.87
   5  -3  -4    0.48    1.99
  -5  -3   4   -2.23    5.80
   3   5   4   -3.07    4.53
   3   5  -4   -1.10   11.49
   5   3  -4   -6.60   11.49
  -3  -5   4   -0.93    4.31
  -3  -5  -4    5.30    5.49
   5   3   4    8.24    5.35
   5   3  -5   -8.55   12.20
  -5  -3  -5    4.34    5.25
   5  -3  -5    1.28    4.17
   3   5   5    1.43   14.69
   3   5  -5    1.83   12.00
  -5  -3   5   -3.49    5.42
  -3  -5   5    0.32    3.35
  -3  -5  -5   -1.28    7.65
   5   3   5    9.93   13.08
  -5  -3   6   -0.17    3.04
  -5  -3  -6    7.72    6.97
   5   3   6   14.76   14.78
   5   3  -6    7.71    9.51
   5  -3  -6    6.53    5.15
   3   5   6  -11.12   14.34
   3   5  -6    2.15   12.44
  -3   5   6   -1.26    2.76
  -5   3  -6   -0.66    1.98
  -3  -5   6    3.36    7.77
  -3  -5  -6    2.21    4.09
  -5  -3  -7   -1.37    3.68
   5   3   7   -2.53    9.87
  -5   3  -7   -0.90    2.11
   5   3  -7    2.69    7.12
  -3   5   7    0.26    0.83
   5  -3  -7    2.44    3.82
   3   5  -7   -7.79   13.92
  -5  -3   7   -3.51    6.83
   3   5   7   -1.22    5.50
  -3  -5   7    4.12    1.82
  -3  -5  -7   -1.73    6.39
  -5  -3   8    3.84    7.68
  -5  -3  -8    4.45    1.94
   5   3   8   -4.74   12.25
  -5   3  -8    1.85    2.09
   5  -3  -8   -2.28    3.66
   5   3  -8   15.71   15.86
   3   5   8    1.13    2.09
   3   5  -8    5.11    3.07
  -3  -5   8    0.32    6.52
  -3  -5  -8   -2.32   12.24
  -5  -3   9   -5.79    7.52
  -5   3  -9    2.26    2.49
  -5  -3  -9   -1.10    2.08
   5  -3  -9   -1.31    4.03
   3   5   9    8.37   10.80
   3   5  -9    4.54    0.44
   5   3   9   -9.99   17.41
   5   3  -9   -0.16    9.66
  -3  -5   9   -2.75    3.12
  -3  -5  -9    2.75    2.48
  -5  -3 -10    3.11    1.67
  -5   3 -10    1.37    1.85
  -5  -3  10    7.41    9.54
   3   5  10   -1.22    5.77
   3   5 -10    4.02    6.60
   5  -3 -10   -0.85    3.30
   5   3  10    2.23    7.48
   5   3 -10   -6.33   10.57
  -3  -5  10    1.81    7.53
  -3  -5 -10  -17.74   15.30
  -5  -3  11    3.44    5.24
  -5   3 -11    2.27    1.62
  -5  -3 -11    5.14    3.70
   5   3 -11   -1.42    4.22
   3   5  11    6.23    4.34
   3   5 -11    0.03    9.62
   5  -3 -11   -2.62    5.59
  -5   3  11   -0.12    3.05
  -3  -5  11    2.12    4.72
  -3  -5 -11   -2.04    4.92
   5   3  11    4.21   11.27
  -5  -3  12    5.46    8.34
   5   3  12   10.51    7.08
   3   5  12  -15.84   12.22
   5  -3 -12   -4.92    5.72
   3   5 -12    4.34    2.56
   5   3 -12   -1.38    3.56
  -5   3  12   -3.98    3.25
  -3  -5 -12   -8.58    8.78
  -3  -5  12    2.21    3.46
  -5  -3 -12    0.71    1.40
   3   5  13   -3.01    5.45
   3   5 -13   -3.73    9.70
  -5  -3  13   10.99   13.43
   5  -3 -13   -7.88    9.14
   5   3 -13   12.14    4.89
   3   5 -13   13.62   11.35
  -3  -5 -13    8.32   10.32
  -3  -5  13    1.73    4.63
   5   3  13    1.70    8.36
   5   3 -14    4.97    7.48
   3   5  14   -1.91    9.09
   3   5 -14   -2.37    6.10
   5  -3 -14   -7.73   10.36
   3   5 -14    9.08    9.53
   5   3  14   -2.22    4.57
   5   3 -14    1.51    5.45
  -3  -5 -14  -13.09   10.67
  -3  -5  14   -5.77   10.00
  -5  -3  14   -4.75    3.50
   5   3 -15    6.97    7.50
   3   5  15   -5.03    5.31
   3   5 -15    0.61    4.99
   5  -3 -15    0.41    2.28
   3   5 -15   17.36   12.86
  -5  -3 -15  -17.29   11.87
  -5  -3  15    4.54    7.46
  -3  -5 -15    5.16    4.42
  -3  -5  15   -1.44    7.26
   3   5 -16    2.12    6.94
   5   3 -16    2.60    4.47
  -3  -5  16  -13.96    9.75
   3   5  16   -3.16    6.99
  -5  -3  16    3.24    2.34
   5  -3 -16   -4.95    9.80
   3   5 -16    5.02    9.93
  -5  -3 -16   -2.56   10.30
  -3  -5 -16  -12.41   14.60
  -5  -3  17    7.16    9.21
   5   3 -17    9.71    7.97
   3   5  17    7.72    9.12
   3   5 -17   15.08   12.85
   5  -3 -17  -22.45   12.98
   3   5 -17   20.31   16.65
  -5  -3 -17  -22.84   13.92
  -3  -5 -17  -19.66   12.69
  -3  -5  17   -3.53    5.97
  -5  -3  18   -4.09    6.48
   5   3 -18   -4.35    5.38
   3   5  18   11.41   13.03
   3   5 -18   -1.47    4.55
   3   5 -18    8.69   14.33
  -5  -3 -18   -9.68   10.21
  -3  -5 -18    2.79    2.17
  -3  -5  18   -7.38   11.03
   5   3 -19   11.86   10.04
  -5  -3  19    4.27    7.78
   3   5  19   15.49   13.69
   3   5 -19   -5.10    1.91
  -5  -3  19   -2.47    5.54
   3   5 -19    5.39    4.84
  -5  -3 -19   -1.27    7.18
  -3  -5 -19    3.87    4.14
  -5  -3  20    7.94   10.45
   3   5 -20   17.72   11.96
  -3  -5 -20   -1.79    6.42
   5   3 -20    9.95   10.24
  -3  -5  20  -12.93   13.94
   3   5 -20    1.75    6.63
  -5  -3 -20    4.12    4.21
  -5  -3  21    8.48    8.38
   3   5 -21   18.65   12.83
  -3  -5 -21   -8.08    8.01
  -3  -5  21    1.51    4.38
   3   5 -21   -5.10   12.34
  -5  -3 -21    1.29    2.51
   5   3 -21    6.11    8.78
  -5  -3  22    5.47    8.79
   5   3 -22    6.18    8.96
   3   5 -22    1.83    4.29
  -3  -5  22  -12.79   11.62
   3   5 -22   -5.01   11.29
  -5  -3 -22    5.86    7.80
   5   3 -23    7.90   13.13
   3   5 -23    7.75   11.28
  -3   5 -23   -2.05    0.87
  -5  -3  23  -13.32   10.78
   3   5 -23  -22.69   17.20
  -5  -3 -23   -0.48    3.62
  -3  -5  23   -1.12    2.76
  -5  -3  24    2.89    5.39
   3   5 -24   -0.52    6.04
   5   3 -24    1.64    5.22
   5  -3 -24  -31.76   18.64
  -3   5 -24   -1.76    4.71
   3   5 -24  -42.35   23.83
  -3  -5  24    7.17    4.50
  -3  -5  25   -1.35    3.58
  -5  -3  25   14.80   10.56
   3   5 -25    7.27   14.18
   5   3 -25   -1.38    5.61
  -3   5 -25   -6.26    3.63
   5  -3 -25  -27.98   17.51
   3   5 -25  -31.63   20.76
  -5  -3  26   -9.32    9.17
   3   5 -26   -5.24    7.18
  -3  -5  26   -3.81    8.23
  -3  -5  27    2.74   10.99
  -5  -3  27   -1.58    7.98
   3   5 -27    0.51    5.49
  -3  -5  28    8.35    7.08
  -5  -3  28    0.13    8.63
  -3  -5  29    2.33    9.98
  -5  -4   0    3.03    4.67
   5   4   0   23.62   35.86
   4   5   0   12.08    5.31
  -4  -5   0   14.33   15.74
   4  -5  -1   53.26    7.66
  -5  -4  -1   86.44   27.56
   4   5   1   37.93   26.16
   4   5  -1   40.69   26.67
   5   4   1   47.82   30.30
  -5  -4   1   57.61   23.99
   5   4  -1   94.65   40.88
  -4  -5   1   48.98   24.43
  -4  -5  -1   93.83   35.34
   4  -5  -2   87.60   10.99
  -5  -4   2  121.37   36.74
   4   5   2   86.14   38.39
   4   5  -2   95.08   38.51
   5   4  -2  103.74   44.07
  -4  -5   2   64.50   28.18
  -4  -5  -2  111.71   35.87
   5   4   2  120.81   49.88
  -5  -4  -2  122.71   32.48
   5  -4  -2   81.69   12.03
   5  -4  -3    3.64    3.74
   4   5   3   21.93   19.33
   4   5  -3    8.48   12.81
   4  -5  -3    3.98    2.73
  -5  -4   3    9.85    1.96
  -4  -5   3    3.56   13.62
  -4  -5  -3   -0.15    6.27
   5   4   3    1.26    8.53
   5   4  -3    8.20   25.39
  -5  -4  -3    5.49    5.50
   5  -4  -4   82.79   13.33
   4  -5  -4   64.62   11.60
   5   4   4  104.90   45.74
  -5  -4   4  113.20   36.45
   4   5   4  109.23   43.50
   4   5  -4  109.67   45.03
  -4  -5   4  105.70   36.60
  -4  -5  -4   90.14   33.05
  -5  -4  -4   95.49   25.93
   5  -4  -5   71.65   13.23
  -5  -4   5  102.72   35.32
   4   5   5   73.91   36.39
   4   5  -5  121.86   45.11
  -5  -4  -5   87.06   23.21
  -4  -5   5   90.08   32.41
  -4  -5  -5  112.31   37.13
  -5  -4   6   16.84   14.88
  -5  -4  -6   14.84   10.17
   5  -4  -6    9.49    4.76
   4   5   6   20.30   21.15
   4   5  -6   30.22   26.67
  -4  -5   6   12.97   13.73
  -4  -5  -6   23.69   17.30
   4   5   7   97.56   35.43
   4   5  -7  126.44   44.27
   5  -4  -7   72.16   14.12
  -5  -4  -7   95.34   31.65
  -4  -5   7   94.27   31.80
  -4  -5  -7   74.33   28.64
  -5  -4  -7  115.83   24.11
  -5  -4   7  107.05   36.98
   4   5   8   22.02   19.94
   4   5  -8    5.87   10.51
   5  -4  -8    6.13    3.93
  -5  -4  -8   12.40   10.47
  -5  -4  -8    6.01   12.56
  -4  -5   8    4.19   10.24
  -4  -5  -8   12.46    8.32
  -5  -4   8    0.52   11.53
   4   5   9   70.14   28.19
   4   5  -9   78.46   32.56
   5  -4  -9   63.97   14.85
  -5  -4  -9   78.83   27.79
  -4  -5   9  105.76   32.12
  -4  -5  -9   83.98   29.71
  -5  -4  -9  103.26   20.46
  -5  -4   9  103.09   36.05
  -5  -4 -10   15.24    8.69
   4   5  10    1.97    3.26
   4   5 -10   -2.26    8.90
   5  -4 -10   -1.88    3.90
  -5  -4 -10    1.14    8.97
  -4  -5  10    8.96   12.95
  -4  -5 -10   -5.18    7.19
  -5  -4  10   19.72   14.10
   4   5  11  109.23   36.58
   4   5 -11   65.95   26.02
   5  -4 -11   53.41   14.59
  -5  -4  11  112.11   33.32
  -5  -4 -11   88.97   28.42
  -4  -5  11   89.35   29.25
  -4  -5 -11   58.34   25.17
  -5  -4 -11  102.91   17.65
  -5  -4  11   94.49   33.52
  -5  -4 -12   28.17    8.63
   4   5  12   24.46   20.06
   4   5 -12   59.72   26.34
   5  -4 -12    8.83    5.28
  -5  -4  12   47.81   22.48
  -5  -4 -12   18.93   14.08
  -4  -5  12   30.96   17.50
  -4  -5 -12   33.24   18.39
  -5  -4  12   42.08   22.19
   4   5  13   58.57   26.47
   4   5 -13   31.73   18.08
  -4  -5 -13   23.98    9.40
   5  -4 -13   25.52    9.74
  -5  -4  13   37.29   19.26
  -5  -4 -13   38.39   19.79
  -4  -5  13   38.75   19.16
  -4  -5 -13   60.26   25.54
  -5  -4  13   29.80   19.20
  -5  -4  14   73.69   28.30
   4   5  14  104.57   34.56
   4   5 -14   83.13   28.76
   5  -4 -14   42.11   13.95
  -5  -4  14   87.97   27.04
  -5  -4 -14   61.57   26.01
  -4  -5  14   76.37   26.58
  -4  -5 -14   84.90   28.54
  -5  -4  15   14.68   19.53
   5  -4 -15   -3.76    8.04
  -5  -4  15    2.88    4.03
  -5  -4 -15   20.61   16.34
  -4  -5  15   14.84   11.47
  -4  -5 -15   21.26   16.31
  -4  -5  15    4.87    5.76
  -5  -4  16   37.54   21.14
  -5  -4  16   30.55   16.11
  -5  -4 -16   24.18   15.57
  -4  -5  16   19.53   13.26
  -4  -5 -16   27.68   17.66
  -4  -5  16   35.94   17.93
  -5  -4  17   25.31   14.86
  -5  -4 -17   15.67    8.78
  -4  -5 -17   39.18   20.63
  -4  -5  17   21.66   11.93
  -4  -5  17   23.90   14.26
  -5  -4  17   35.29   20.25
  -5  -4  18   -5.58    4.36
  -5  -4 -18    9.35   11.43
  -4  -5 -18   -2.94    4.51
  -4  -5  18    3.06    3.94
  -4  -5  18   -6.29    4.78
  -5  -4  19   12.45   11.78
  -4  -5  19    4.77    8.23
  -5  -4 -19    0.86    3.61
  -4  -5 -19    1.22    4.93
  -5  -4  20    5.63    9.13
   5   4 -20   14.29   12.38
  -4  -5  20   -5.55   13.80
  -5  -4 -20    4.43    8.74
  -4  -5 -20    0.78    4.97
  -5  -4  21    1.77   11.01
   5   4 -21    7.09    9.41
  -4  -5  21   -4.92   10.12
  -5  -4 -21   10.35    9.20
  -4  -5 -21   -1.14    2.62
  -5  -4  22    3.42    8.12
   5   4 -22    4.97   10.40
  -5  -4 -22  -12.16   10.45
  -4  -5 -22    0.68    2.47
  -4  -5  22   -2.16    2.20
  -5  -4  23   17.32   12.61
   5   4 -23   17.22   14.69
  -5  -4 -23    3.92    2.92
  -4  -5 -23    9.20   11.02
  -4  -5  23   -1.01    6.08
  -4  -5  24   -1.69    8.38
  -5  -4  24   10.20   13.06
   4   5 -24    5.56    5.86
   5   4 -24    3.59   10.96
  -4  -5  25   -6.19    7.70
  -5  -4  25    7.02   11.63
   4   5 -25    5.97   10.36
  -4  -5  26   14.23   17.17
   4   5 -26    5.90    5.64
  -5  -4  26    4.47    8.55
   5   5   0   -5.77   15.41
  -5  -5   0   14.11   21.92
  -5  -5   0  -38.83   21.97
  -5  -5   1  -27.77   19.02
  -5  -5  -1  -37.41   20.95
   5   5  -1    4.93   23.66
   5   5   1   -7.71   16.66
  -5  -5   1   13.84   15.08
  -5  -5  -1   -5.80   11.88
   5   5  -2    4.03    3.30
   5  -5  -2    1.50    2.01
   5   5   2   22.24   31.72
  -5  -5   2   12.05    7.64
  -5  -5  -2   -1.96    5.28
  -5  -5   2   -6.67   13.21
  -5  -5  -2  -13.32   18.01
   5  -5  -3    0.47    1.65
   5   5   3   -1.80   15.46
   5   5  -3   -4.43    7.32
  -5  -5   3    0.03   10.91
  -5  -5  -3    5.24    6.74
  -5  -5   3  -20.72   17.91
  -5  -5  -3   -1.82   15.07
   5  -5  -4   -2.05    0.46
   5   5   4   11.41   12.97
   5   5  -4   -9.97   19.74
  -5  -5   4  -34.32   22.29
  -5  -5  -4   -4.34    8.61
  -5  -5   4  -38.97   23.36
  -5  -5  -4   -4.41   14.76
   5   5  -5   -8.88   20.40
   5  -5  -5   -0.57    2.53
  -5  -5   5    0.38    6.70
  -5  -5  -5   -3.52   16.54
  -5  -5  -5   -8.16   11.34
  -5  -5   5  -18.58   19.59
   5  -5  -6   -4.40    3.77
  -5  -5  -6   -7.13   13.24
  -5  -5   6    4.38   11.35
  -5  -5  -6  -17.76   16.26
  -5  -5   6   -9.37   19.84
   5  -5  -7   -1.06    1.79
  -5  -5   7   -1.02    7.50
  -5  -5  -7    4.67    7.55
  -5  -5   7  -11.11   16.16
  -5  -5  -7  -10.25   14.09
   5  -5  -8   -4.16    3.81
  -5  -5   8    1.05    7.14
  -5  -5  -8   -7.16   13.05
  -5  -5  -8   -5.39    8.90
  -5  -5   8  -14.30   13.88
   5  -5  -9    1.37    2.51
  -5  -5   9   10.30   12.94
  -5  -5  -9   -6.73    9.11
  -5  -5   9   -2.31    8.14
  -5  -5  -9   -3.88    7.64
   5  -5 -10   -3.87    5.53
  -5  -5  10    5.78    7.90
  -5  -5 -10   -3.56   11.16
  -5  -5  10  -22.24   16.90
  -5  -5 -10   -1.37    4.51
  -5  -5 -11   -2.15    2.98
   5  -5 -11   -5.63    6.94
  -5  -5  11   -6.64   10.25
  -5  -5 -11   -5.48    3.88
  -5  -5  11   -0.19    4.25
   5  -5 -12   -3.24    7.41
  -5  -5  12    9.82    6.28
  -5  -5 -12   -9.57   10.12
  -5  -5  12   -4.34    8.57
  -5  -5  13  -10.29   11.36
  -5  -5  13   -8.67   14.21
  -5  -5 -13  -10.49   10.57
  -5  -5  14    6.03    7.87
  -5  -5 -14    2.89    7.26
  -5  -5  14    5.05    2.37
  -5  -5  15   -3.69   10.53
  -5  -5  15   -3.20    4.41
  -5  -5 -15   15.86   15.21
  -5  -5  16    4.92    8.70
  -5  -5 -16   -4.50   11.13
  -5  -5  16   -2.33    8.55
  -5  -5  17    2.97    6.72
  -5  -5 -17    7.35    1.71
  -5  -5 -18    4.61    4.88
  -5  -5  18   -0.42    4.24
  -5  -5  19   18.53   14.47
  -5  -5 -19   -5.25   10.59
  -5  -5  20   -1.69    6.82
  -5  -5 -20   -9.96   10.21
  -5  -5  21   -9.70    9.81
  -5  -5 -21  -16.88   11.77
  -5  -5  22    2.87    3.19
  -5  -5 -22   -3.35    7.66
  -5  -5  23   -2.28    6.21
  -5  -5 -23  -17.75   13.56
   0   6   0    1.38    2.82
   6   0   0   22.76   19.82
   0   6  -1   36.05   11.30
   6   0   1   57.30   33.59
   6   0  -1   41.54   28.40
   0   6  -2   92.03   17.16
   6   0   2   92.85   39.35
   6   0  -2   75.07   38.43
   6   0   3  318.85   74.75
   0   6  -3  343.09   34.82
   6   0  -3  247.45   66.45
  -6   0   3  200.72   41.71
   6   0   4  377.20   80.63
   6   0  -4  481.46   84.81
   0   6  -4  426.36   40.18
  -6   0   4  286.18   50.76
   0  -6   4  414.67   31.43
   0  -6   5  642.23   38.70
   6   0   5  811.36  113.36
   6   0  -5  674.82  100.47
   0   6  -5  599.65   49.45
  -6   0   5  545.85   70.27
   0  -6   6  135.92   18.13
  -6   0   6  125.00   36.73
   0   6  -6  136.24   26.42
   6   0   6  175.57   56.79
   6   0  -6  147.84   47.33
   0  -6   7  294.18   25.80
   0   6   7  403.84   74.64
   6   0   7  397.08   74.87
   6   0  -7  385.53   73.63
   0   6  -7  292.88   39.36
  -6   0   7  274.86   52.56
   6   0  -8   12.77    9.68
  -6   0   8   -8.43   16.17
   0  -6   8    4.00    3.35
   0   6   8   -3.40   17.33
   0   6  -8    3.59    4.25
   6   0   8   -0.86   14.25
   6   0  -8    9.96   14.56
   0   6  -8   16.00   12.78
   6   0  -9    7.79    7.70
  -6   0   9  -18.24   19.60
   0  -6   9   -2.32    3.59
   0   6   9   -3.92   10.60
   0   6  -9  -19.52   13.32
   6   0   9  -12.39   18.75
   6   0  -9   -0.22    6.77
   0   6  -9    2.53    7.45
   6   0 -10   12.11    8.95
   0   6  10   -4.85    8.62
   0   6 -10    0.43    7.22
   0   6 -10   26.13   15.01
  -6   0  10   -1.63   17.06
   6   0  10  -14.46   18.41
   6   0 -10   -0.10    6.50
   0   6 -11  134.90   32.63
   6   0 -11  137.49   26.02
   6   0  11  130.39   29.01
  -6   0  11  113.49   36.68
   0   6  11  151.35   38.34
   0   6 -11   93.41   27.43
   6   0  11  151.76   41.34
   6   0 -11  141.24   39.59
  -6   0  12  104.04   36.01
   0   6 -12  159.86   38.06
   0   6  12  166.77   38.80
   0   6 -12  104.45   28.37
   6   0 -12  135.55   27.64
   6   0  12  176.52   43.17
   6   0 -12  151.47   41.74
   6   0 -13  170.66   31.04
   0   6 -13  163.88   40.20
   6   0 -13  173.77   42.88
  -6   0  13  111.13   40.31
   0   6  13  165.74   39.88
   0   6 -13  119.65   29.20
   6   0  13  210.00   46.43
   0   6 -14   59.75   23.19
   6   0 -14   65.48   26.43
  -6   0  14   44.51   19.52
   6   0 -14   94.94   24.09
   0   6  14   80.46   26.40
   0   6 -14   54.57   19.05
   6   0  14   58.58   25.92
   6   0 -15   61.40   24.43
   0   6 -15   36.17   19.74
   6   0  15   71.51   26.81
   6   0 -15   73.95   22.70
   0   6  15   60.69   22.35
   0   6 -15   58.70   20.69
  -6   0  15   28.11   11.59
   6   0  16    7.05    9.84
   6   0 -16   17.72   12.59
   6   0 -16   11.53   14.14
   0   6  16    7.28    9.57
   0   6 -16    3.86    7.62
   0   6 -16   -5.68   11.11
   0   6 -17    4.77    6.69
  -6   0  17  -18.33   21.49
   6   0 -17   14.58   12.18
   6   0  17    5.04    5.57
   6   0 -17    5.34    7.20
   0   6  17   18.25   11.99
   0   6 -17    5.37    8.00
   0   6 -18  -15.11   18.62
  -6   0  18  -21.98   25.21
   6   0 -18   10.40   11.98
   6   0  18   -0.83    8.31
   6   0 -18   -0.20    5.73
   0   6  18    2.39    3.93
   0   6 -18    5.63    7.27
   6   0 -19    5.85   11.92
   6   0  19    3.04    1.36
   0   6  19    7.76    7.79
   0   6 -19    4.10    7.38
   6   0 -19    0.62    5.97
   0   6 -20   -6.06    8.04
  -6   0  20    0.23   19.19
   6   0 -20   37.97   19.41
   0   6  20   25.80   13.41
   0   6 -20    8.54    9.87
   6   0  20   11.65    9.21
   6   0 -20   17.47   14.05
   0   6 -21   31.17   19.32
  -6   0  21   -4.99   21.97
   6   0 -21   40.69   18.50
   0   6 -22    2.81    3.14
  -6   0  22  -39.79   24.08
   0   6 -23    7.94    9.94
  -6   0  23  -18.69   20.92
   6   0 -23   37.83   22.06
   0   6 -24    4.31   11.13
   6   0 -24   20.10   16.24
   6   1   0   -8.68   11.78
  -6  -1   0    8.19    7.49
   1   6   0    7.13   21.43
  -1   6   0   -3.08    4.81
   6   1  -1    0.57   11.79
  -6  -1   1   49.51   19.01
  -6  -1  -1   16.58    9.87
  -1   6  -1   26.44    8.74
   1   6   1   11.91   25.89
   1   6  -1    3.45    8.25
   6   1   1   39.25   30.44
  -1   6   1   21.67    7.46
   6   1   2    0.60   17.80
   6   1  -2   -7.67   11.54
  -6  -1   2    5.75    9.51
  -6  -1  -2   -2.34    5.89
  -1  -6  -2    2.30    0.57
  -1   6  -2    7.87    7.38
   1   6   2    0.36   12.04
   1   6  -2   -3.09   10.10
  -1   6   2    2.75    3.49
   6   1   3   59.62   30.84
   6   1  -3   65.24   31.21
  -6  -1   3   97.59   25.64
  -6  -1  -3   43.82   12.08
  -1  -6  -3   63.27   14.76
  -1   6   3   71.02   11.85
   1   6   3  112.45   50.09
   1   6  -3  108.53   51.17
  -1   6  -3  102.96   19.72
   1   6  -3   71.76   14.81
   1  -6   4   96.96   12.26
   6   1   4   88.21   39.10
  -6  -1   4  119.90   28.54
   6   1  -4   91.56   34.30
  -6  -1  -4   50.44   12.10
   1   6   4   98.34   40.34
   1   6  -4  120.17   48.84
  -1   6  -4  102.50   21.61
  -1  -6  -4   81.76   16.71
   1   6  -4   89.06   17.52
   6   1   5   17.30   19.66
  -1   6  -5   23.71   13.23
  -6  -1   5   13.16   12.38
   6   1  -5   22.39   20.85
   1  -6   5   10.51    3.76
  -1  -6  -5   10.08    6.66
   1   6   5    6.81   13.55
   1   6  -5   33.27   29.26
   1   6  -5    9.72    4.76
   1  -6   6  197.33   16.19
   6   1   6  264.89   66.20
   6   1  -6  245.77   56.25
   1   6  -6  234.10   31.78
   1   6   6  264.81   60.61
   1   6  -6  262.60   65.38
  -1   6  -6  250.62   36.28
  -1  -6  -6  190.00   23.70
  -6  -1   6  269.54   46.12
   6  -1  -6  230.99   28.39
  -6  -1   7  152.59   37.10
   6   1   7  147.83   51.19
   6   1  -7  133.97   40.97
   1  -6   7  105.93   11.92
   1   6  -7  120.00   25.29
   1   6   7  137.32   42.53
   1   6  -7  122.24   42.05
  -1   6  -7  152.57   30.38
  -1  -6  -7  100.70   16.91
   6  -1  -7  126.80   22.72
   6  -1  -8   40.57   13.99
  -6  -1   8   53.78   23.07
  -1  -6  -8   32.49    9.63
  -1   6  -8   31.77   14.44
   6   1   8   81.41   37.35
   1   6   8   46.17   22.62
   1   6  -8   38.53   22.83
   6   1  -8   28.27   19.17
   1   6  -8   35.81   14.79
   6  -1  -9  226.93   31.20
   1   6  -9  228.79   52.52
   6   1   9  263.95   58.71
   1   6   9  200.85   46.22
   1   6  -9  215.65   34.19
  -1  -6  -9  171.34   20.70
   6   1  -9  223.68   51.21
  -1   6  -9  245.95   41.49
  -6  -1   9  248.80   47.32
  -6  -1  10   65.25   24.98
   6  -1 -10   72.62   19.69
  -1   6 -10   64.23   22.25
   6   1  10   81.94   34.90
   6   1 -10   59.64   24.01
   1   6  10   46.55   20.45
   1   6 -10   63.18   24.57
  -1  -6 -10   54.66   11.78
   1   6 -10   64.17   19.89
   6   1 -11   40.07   15.67
  -6  -1  11   17.25   14.57
   6  -1 -11   52.87   16.41
   6   1  11   47.40   22.93
   6   1 -11   28.51   15.20
   1   6  11   37.51   18.67
   1   6 -11   21.07   14.33
  -1   6 -11   40.02   18.22
   1   6 -11   27.81   11.35
  -1   6 -12   67.25   24.78
   6   1 -12   79.67   20.82
  -6  -1  12   91.17   30.87
   6  -1 -12   85.36   20.90
   6   1  12   72.78   26.59
   1   6  12   76.72   25.68
   1   6 -12   60.11   22.32
   6   1 -12   60.25   23.99
   1   6 -12   71.31   22.50
  -6  -1  13    4.91    5.69
  -1   6 -13   -0.11    8.82
   6  -1 -13   20.01   12.55
   1   6  13   -5.40   10.67
   1   6 -13    4.89    0.94
   6   1  13    4.75    9.59
   6   1 -13    1.34   13.52
   1   6 -13   -0.04    3.67
   6   1 -13   17.32   13.50
   6   1 -14   20.31   11.07
  -6  -1  14    6.42    6.51
  -1   6 -14    1.28   10.24
   6  -1 -14   16.97   11.65
   1   6  14    7.58    3.10
   1   6 -14   18.79   13.73
   6   1  14   12.61   11.59
   6   1 -14   11.64   11.66
   6  -1 -14    7.81   11.50
   1   6 -14    4.34    6.95
  -6  -1  15   -5.46   11.49
   6   1 -15    3.06    8.71
  -1   6 -15   -2.63    6.68
   6  -1 -15    0.03    5.72
   1   6  15    2.01    5.38
   1   6 -15    0.25    6.02
   6   1  15   12.55   12.40
   6   1 -15   -2.88    0.62
   6  -1  15   -2.57   10.60
   6  -1 -15    8.68    9.04
   1   6 -15   -4.63    6.53
  -6  -1  16    8.77   12.31
   6   1 -16    8.43    7.87
  -1   6 -16   -1.03    4.15
   6  -1 -16    6.32    7.77
   1   6  16    0.24    4.80
   1   6 -16   -0.41    6.74
  -1   6  16    2.79    5.82
   6   1  16    8.88   10.82
   6  -1  16   -2.90    4.98
   6  -1 -16    7.09    7.95
   6   1 -16   -2.37    7.84
   1   6 -16  -31.09   17.62
  -6  -1  17   14.61   13.30
   6   1 -17   -2.91    6.79
  -1   6 -17    2.35    8.75
   6  -1 -17    1.07    3.21
   1   6  17    6.34    9.53
   1   6 -17   -1.55    7.16
  -1   6  17   -1.70    1.85
  -1   6 -17    4.50    5.85
   6  -1  17   -1.62    4.35
   6  -1 -17    0.75    5.98
   6   1  17    1.20    3.73
   1   6 -17   -4.69   14.00
   6   1 -17   13.14   11.39
   6   1  18   -1.31    1.66
   6   1 -18    1.55    1.60
  -6  -1  18   15.10   17.97
   6   1 -18   10.58   13.11
  -1   6 -18   15.42   15.46
   6  -1 -18    6.87    7.23
   1   6  18   -4.36    5.31
   1   6 -18    3.25    7.41
  -1   6  18   12.27    7.49
  -1   6 -18    2.82    5.55
   6  -1  18    5.86    9.79
   1   6 -18   -2.04   10.68
   6  -1 -18   11.91   11.87
   6  -1 -19   11.28   10.90
  -6  -1  19   11.40   10.04
   6   1  19    7.65    2.39
  -1   6 -19    2.41    3.40
   6   1 -19   22.04   18.18
   6   1 -19   -1.02    7.67
   6  -1 -19   15.82   13.60
   1   6  19   15.55   11.35
   1   6 -19   21.29   14.34
  -1   6  19    3.74    5.61
  -1   6 -19   11.70    8.34
   1   6 -19   -3.87   15.31
   6  -1  19    6.18    9.38
   6  -1  20   -4.74   10.76
  -6  -1  20   21.34   13.59
  -1   6 -20   23.76   15.41
   6  -1 -20    8.56   12.79
   6   1  20   -5.57    7.46
   6   1 -20   17.73   14.46
   1   6  20    5.87    5.42
   1   6 -20    9.39   11.38
   6   1 -20   -3.87    7.83
  -1   6  20    1.49    1.19
  -1   6 -20   -6.31    9.36
   6  -1 -20    4.40   11.76
   1   6 -20   -6.15   14.84
  -6  -1  21   22.42   15.57
  -1   6 -21    9.23   14.11
   6   1 -21   27.42   18.12
   6  -1 -21    5.67    7.37
   1   6 -21    2.23    7.96
  -6  -1  22   15.32   14.85
  -1   6 -22    7.06    2.90
   6   1 -22   44.01   22.11
   6  -1 -22   11.41   12.94
   1   6 -22   28.35   19.43
  -1   6 -23   -5.23    5.51
   6   1 -23   21.27   16.32
   6  -1 -23    0.60    7.47
  -6  -1  23    6.28    9.88
  -1   6 -24   16.20   13.29
  -6  -1  24   17.23   15.06
   6   1 -24   14.28   13.49
   6  -1 -24    4.17    8.49
   1   6 -24   14.08   15.50
  -6  -1  25  -16.58   13.35
  -6  -1  26   -2.18   11.65
  -6  -1  27  -32.47   20.11
  -1  -6  29  -17.22   13.68
  -6  -2   0   32.39   13.15
  -2   6   0   11.40    6.43
   2   6   0   15.17   16.62
   6   2   0    9.64   12.75
  -2  -6   0    9.67   10.27
  -6  -2   1    0.88    2.34
  -6  -2  -1   10.93    7.94
  -2   6  -1    9.27    5.68
  -6   2  -1   -0.37    3.76
   2   6   1    5.01    8.73
   2   6  -1    4.90    6.25
   6   2   1    3.54   18.25
   6   2  -1    7.20    7.35
  -2   6   1    0.30    3.16
  -2  -6  -1   -6.42    3.47
  -2  -6   1    5.52    8.46
  -6  -2   2   70.65   21.25
  -2   6  -2   50.28   13.29
  -6   2  -2   54.94   12.65
   2   6   2   43.16   29.54
   2   6  -2   29.41   22.34
  -6  -2  -2   67.36   18.96
  -2   6   2   67.46   13.22
   6   2   2   50.56   33.35
   6   2  -2   74.90   33.44
  -2  -6  -2   34.07   21.05
  -2  -6   2   74.23   31.66
  -6  -2   3   16.19   11.69
  -6  -2  -3   11.17    8.38
   2  -6   3    2.30    1.50
  -2   6  -3    3.77    4.74
  -6   2  -3    1.89    2.71
   2   6   3   -0.03   15.64
   2   6  -3   -2.07   13.16
   6   2   3   -0.33    5.74
   6   2  -3    5.29    7.17
  -2   6   3   10.45    6.19
  -2  -6  -3   23.95   15.97
  -2  -6   3    9.84   12.49
   2  -6   4   18.18    3.42
  -6  -2   4   36.53   15.73
  -6  -2  -4   32.26   12.81
  -6   2  -4   25.79    8.41
  -2   6  -4   30.03   12.07
   2   6   4   33.23   21.67
   2   6  -4   27.91   18.80
   6   2   4   37.86   26.33
   6   2  -4   56.62   29.83
  -2   6   4   28.03    6.67
  -2  -6  -4   39.65   21.69
  -2  -6   4   32.80   19.48
   6  -2  -5    3.97    4.43
  -6  -2   5    8.04   11.75
  -6  -2  -5    6.04    6.51
  -6   2  -5    0.93    0.66
  -2   6  -5    2.18    1.32
   2   6   5   -8.33   15.07
   2   6  -5    3.23   13.59
  -2   6   5    1.19    2.23
   6   2   5    8.90   19.46
   6   2  -5   12.17   11.15
  -2  -6  -5   -1.95    8.46
  -2  -6   5    9.49   13.95
  -6   2  -6  246.68   27.59
   2   6   6  215.11   55.79
   2   6  -6  221.36   60.61
  -2   6  -6  208.09   37.14
  -2  -6   6  208.61   48.16
   6   2   6  288.09   68.32
   6   2  -6  146.24   42.30
  -6  -2   6  222.52   42.96
  -2  -6  -6  245.65   59.46
  -6  -2  -6  257.84   34.45
   6  -2  -6  199.21   25.63
  -6  -2   7   37.12   22.51
   6  -2  -7   36.29   13.64
  -6  -2  -7   47.86   19.42
  -6   2  -7   35.36   12.86
  -2   6  -7   13.18   18.65
   2   6   7   67.78   34.29
   2   6  -7   32.21   29.95
   2   6  -7   41.17   17.77
   6   2   7   70.32   39.70
   6   2  -7   37.24   27.99
  -2  -6  -7   17.86   10.68
  -2  -6  -7   47.63   36.62
  -2  -6   7   41.68   29.78
  -6   2  -8  973.27   53.73
   6  -2  -8  902.62   58.16
   2   6   8  974.46  106.00
   2   6  -8 1030.78  117.61
   2   6  -8  927.75   68.41
  -2  -6  -8  778.75   49.98
  -2   6  -8  968.90   89.86
   6   2   8 1101.05  124.30
   6   2  -8  896.74   99.33
  -2  -6  -8 1165.95  123.19
  -2  -6   8 1140.08  106.11
  -6  -2   8  832.77   87.58
  -6  -2  -8  835.67   66.31
   6  -2  -9   75.44   22.93
  -6  -2   9   63.89   32.44
  -6   2  -9   30.26   12.20
  -2   6  -9   74.66   29.14
   2   6   9   88.74   37.74
   2   6  -9   86.83   37.67
   2   6  -9   61.06   25.99
  -2  -6  -9   33.12   12.75
   6   2   9   61.29   36.16
  -2  -6  -9   81.67   40.51
  -2  -6   9   86.47   34.07
   6   2  -9   61.68   30.26
   6  -2 -10  567.28   48.61
   2   6  10  568.61   77.67
   2   6 -10  588.69   80.98
   2   6 -10  498.06   55.79
  -2  -6 -10  503.62   39.50
  -2   6 -10  505.56   69.51
   6   2  10  586.80   84.04
   6   2 -10  586.06   76.84
  -2  -6 -10  756.25   94.27
  -2  -6  10  666.02   77.79
  -6  -2  10  543.36   73.06
   6   2  11   27.91   20.73
  -6  -2  11   21.67   22.38
   6   2 -11   12.63   13.87
   6  -2 -11   32.13   13.64
  -2   6 -11    1.26    9.96
   2   6  11   19.33   18.64
   2   6 -11   49.88   23.76
  -2  -6 -11   19.01   18.13
   2   6 -11   21.75   14.80
  -6  -2  12   78.02   28.72
   6   2  12   54.43   23.27
   6   2 -12   52.32   23.27
   6  -2 -12   35.53   13.65
  -2   6 -12   59.45   23.90
   2   6  12   44.37   20.56
   2   6 -12   40.40   19.83
   2   6 -12   37.68   17.75
  -2  -6 -12   58.47   27.35
  -6  -2  13   13.31   14.55
   6   2  13   -2.13    5.43
   6  -2 -13    4.98    6.02
   6   2 -13    0.98    2.86
  -2   6 -13   -6.33   11.29
   2   6  13   -4.01   11.87
   2   6 -13    5.24    6.55
   2   6 -13   -0.84    5.97
  -2  -6 -13    6.71    5.47
   6   2 -14   15.91   12.22
  -6  -2  14    6.01   10.54
   6  -2 -14    1.72    1.85
   6   2  14    6.43    9.41
  -2   6 -14    1.06    6.12
   2   6  14   -0.61    6.90
   6   2 -14   -7.44   10.56
   2   6 -14   -4.15    8.58
   2   6 -14    3.08    8.43
  -6  -2  15    3.55    8.30
   6   2 -15    7.76    7.67
   6  -2 -15   -0.06    5.58
  -2   6 -15    7.67   12.54
   2   6  15   -0.81    2.13
   2   6 -15   -5.24    7.22
   6   2  15    2.21   10.91
   6   2 -15   -0.13    8.10
   2   6 -15  -12.95    5.54
  -6  -2  16   19.77   16.42
   6   2 -16    0.82    2.30
   6  -2 -16    0.21    5.09
  -2   6 -16    6.58   10.68
   2   6  16    1.80    1.51
   2   6 -16   -1.09    6.62
   6   2  16   -1.44    9.70
   2   6 -16   -2.80    8.48
   6   2 -16   -1.54    8.80
   6   2 -17   -3.97    7.87
  -6  -2  17    7.61   14.89
   6   2 -17   15.06   12.61
   6  -2 -17    7.29    7.53
  -2   6 -17   13.00   12.39
   2   6  17  -11.95   10.27
   2   6 -17   -3.38    6.74
   2   6 -17    0.28   10.30
   6   2  17    4.08    6.73
  -6  -2  18    9.19   13.65
   6   2 -18   20.44   13.12
   6   2  18    8.05   11.82
   6  -2 -18    5.30    9.20
  -2   6 -18   19.00   16.00
   2   6  18   16.44   10.49
   2   6 -18    4.22    5.99
   6   2 -18    7.58   10.34
   2   6 -18   17.30   14.93
  -6  -2  19   24.20   17.58
   6   2 -19    6.21   10.40
   6  -2 -19    7.81    5.70
  -2   6 -19   20.80   15.40
   2   6  19   -1.69    5.81
   2   6 -19    1.16    2.11
   6   2  19   -7.00    3.78
   2   6 -19    9.52   15.73
   6   2 -19   11.02   11.66
   6   2  20   39.22   18.66
  -6  -2  20   28.77   21.40
   6   2 -20   39.49   20.30
  -2   6 -20   41.47   21.63
   2   6  20   26.04   14.29
   6  -2 -20   30.86   18.25
   2   6 -20   40.47   19.05
   6   2 -20   28.94   17.33
   6  -2 -20   34.02   18.08
   2   6 -20    9.60    8.65
  -6  -2  21   14.54   13.12
   6   2 -21   12.83   11.93
  -2   6 -21   12.28   14.66
   6  -2 -21   -0.90    2.56
  -6  -2 -21    6.77    9.72
   2   6 -21  -17.57   15.17
  -6  -2  22   15.80   12.94
   6   2 -22    6.45    5.90
  -2   6 -22   21.32   15.70
   6  -2 -22    0.85    7.39
  -6  -2 -22    4.39    8.95
  -6  -2  23    2.93    8.29
   6   2 -23   -2.38    3.47
  -2   6 -23   18.98   15.45
   6  -2 -23  -25.12   16.62
   2   6 -23  -25.86   18.77
  -6  -2  24   14.97   16.26
   6  -2 -24   -4.58   12.15
  -6  -2  25   18.04   16.25
  -6  -2  26   37.15   21.33
  -2  -6  26    6.33    5.53
  -2  -6  27    2.07    3.87
  -6  -3   0   12.21   13.22
   3   6   0    5.49   15.98
  -3   6   0   -1.50    5.98
   6   3   0    7.99   14.38
  -3  -6   0   -9.31   13.94
  -6  -3   1   78.54   24.32
  -6  -3  -1   93.46   24.09
   3   6   1   21.77   19.69
   3   6  -1   25.27   21.92
  -3   6   1   83.75   17.35
  -3   6  -1   70.84   18.21
   6   3   1   63.64   34.72
   6   3  -1   61.87   31.99
  -3  -6  -1   76.09   33.62
  -3  -6   1   75.49   31.62
  -6  -3   2   35.34   18.05
  -6  -3  -2    2.13    1.73
  -3   6   2   -0.28    1.78
   3   6   2   15.27   15.42
   3   6  -2   -9.57   16.77
   6   3   2   12.95   14.49
   6   3  -2   14.03   12.23
  -3  -6  -2    4.09   11.68
  -3  -6   2  -11.40   10.05
   3   6   3   85.70   36.74
   3   6  -3  124.63   50.00
   6   3   3   74.03   37.75
  -3   6   3  122.54   18.14
   6   3  -3  106.12   41.16
  -3  -6  -3   75.05   33.59
  -3  -6   3   91.24   33.69
  -6  -3   3  148.28   36.55
  -6  -3  -3  119.67   24.91
  -6  -3   4  100.77   32.04
  -6  -3  -4   84.18   19.72
   3   6   4   54.29   27.48
   3   6  -4   93.13   44.41
  -3   6   4   92.24   14.32
   6   3   4   81.16   40.95
   6   3  -4   84.64   37.62
  -3  -6  -4   76.61   31.60
  -3  -6   4   80.86   32.79
   6  -3  -4   76.85   14.56
  -6  -3   5   30.83   19.97
  -3   6   5   31.73    7.76
  -6  -3  -5   23.50   11.61
   6  -3  -5   37.33   11.21
   3   6   5   12.54    5.98
   3   6  -5   25.44   25.88
   6   3   5   40.18   30.25
   6   3  -5   49.59   31.20
  -3  -6  -5   35.20   24.28
  -3  -6   5   28.62   17.58
   6  -3  -6  146.41   20.93
   3   6   6  176.92   51.60
   3   6  -6  174.54   52.60
  -3   6   6  168.26   14.72
   6   3   6  194.88   59.97
   6   3  -6  162.46   49.14
  -3  -6  -6  145.89   44.39
  -3  -6   6  146.58   40.36
  -6  -3   6  190.22   44.02
  -6  -3  -6  188.81   28.30
  -6  -3   7   50.97   23.92
  -6  -3  -7   57.84   15.62
   6  -3  -7   58.93   14.57
   3   6   7   27.38   16.53
   3   6  -7   50.86   27.88
   6   3   7   46.59   33.19
   6   3  -7   40.51   27.42
  -3  -6  -7   54.60   28.83
  -3  -6   7   49.89   24.51
  -6  -3   8   68.31   27.49
  -6  -3  -8   43.69   13.98
   6  -3  -8   42.48   13.02
   3   6   8   51.42   25.31
   3   6  -8   27.59   19.93
   6   3   8   41.22   22.42
  -3  -6  -8   38.76   25.78
  -3  -6   8   24.41   17.25
   6   3  -8   12.58   10.03
   6  -3  -9  108.48   20.17
  -6  -3   9  102.23   33.29
   6   3  -9  100.55   34.54
   3   6   9   69.96   30.53
   3   6  -9  101.07   36.15
  -3  -6  -9  108.84   36.48
  -3  -6   9   77.47   27.73
  -6  -3  -9  115.54   20.66
   6   3   9   94.20   36.13
  -6  -3  10   22.51   15.08
   6   3  10   31.37   22.93
  -6  -3 -10   25.17   10.61
   6   3 -10   25.15   17.55
   6  -3 -10   25.89   11.19
   3   6  10   36.73   19.83
   3   6 -10   19.98   18.24
  -3  -6 -10   34.24   20.92
  -3  -6  10   16.54   11.75
  -6  -3  11   12.55   12.03
  -6  -3 -11    3.57    3.18
   6   3  11   11.73   10.04
   6  -3 -11    9.10    6.90
   6   3 -11   19.20   18.25
   3   6  11    4.40    6.67
   3   6 -11    4.90    8.52
  -3  -6 -11   17.57   14.78
  -3  -6  11    8.98   10.54
  -6  -3  12   35.84   19.16
   6  -3 -12   23.38   10.74
   3   6  12   44.37   19.26
   6   3  12   29.67   16.52
   3   6 -12   36.80   19.23
   6   3 -12   26.61   21.69
  -3  -6 -12   27.67   19.34
  -3  -6  12   18.08   10.82
  -6  -3  13   21.59   14.10
   6  -3 -13   10.48    8.06
   3   6  13   14.50   12.91
   3   6 -13   -3.81   10.47
   6   3  13    5.12    6.66
   6   3 -13   20.52   13.91
  -3  -6 -13   19.26   14.45
  -3  -6  13   12.40   12.60
  -6  -3  14    3.43   11.32
   6  -3 -14    5.97    7.61
   3   6  14    8.38   12.97
   3   6 -14   -3.50   11.43
   6   3 -14   -0.05   10.27
  -3  -6 -14    8.76   13.67
  -3  -6  14    6.73    5.37
   6   3  14    6.65    9.66
  -6  -3  15    7.26    9.40
   6   3 -15    7.98    9.31
   3   6  15   -2.06    3.49
   6  -3 -15    5.73    5.58
   3   6 -15   -0.21    7.47
   6   3  15   13.01   11.97
   3   6 -15   24.50   17.96
  -3  -6 -15   10.19   10.78
  -3  -6  15   12.77    8.29
  -6  -3  16   10.47   13.82
   3   6  16    6.42    4.38
   3   6 -16   11.85   11.68
   6  -3 -16   -1.83    4.74
   6   3  16    4.18   10.32
   6   3 -16    3.09   10.53
  -3   6 -16   14.74   14.90
   3   6 -16   15.94   14.01
  -3  -6 -16   -3.61    6.37
  -3  -6  16   23.37   13.66
   3   6  17    9.03    8.02
   3   6 -17    9.49    9.47
   6  -3 -17   -2.92    9.04
  -3   6 -17   19.50   18.28
   3   6 -17    8.19   13.71
  -6  -3 -17   -1.35    5.27
   6   3  17   16.54   15.47
  -6  -3  17   31.52   20.80
  -3  -6 -17    2.72    6.71
   6   3 -18   20.86   13.20
  -6  -3  18   -3.28    4.59
   3   6  18   13.03   11.62
   3   6 -18    9.60    9.50
   6  -3 -18    0.08    3.62
  -3   6 -18    8.31   10.27
   3   6 -18    1.54   11.53
  -6  -3 -18    9.10   10.76
  -3  -6 -18    9.68   11.50
  -6  -3  19   15.46   15.24
   6   3 -19   14.48   11.49
   3   6  19   21.83   15.94
   3   6 -19   12.35   12.31
   6  -3 -19    2.04    3.20
  -3   6 -19   32.24   19.55
   3   6 -19   29.71   19.15
  -6  -3 -19   24.48   16.24
  -3  -6 -19   13.24   12.19
  -6  -3  20   25.79   17.92
   6   3 -20   19.03   14.67
   3   6  20    5.55    8.91
   3   6 -20    3.41    6.90
   6  -3 -20  -13.61   11.22
  -3   6 -20    8.56   12.06
   3   6 -20   -3.47    8.45
  -6  -3 -20    5.61    9.13
  -6  -3  21   24.44   15.85
   6   3 -21   31.56   18.02
   6  -3 -21  -12.89   11.38
  -3   6 -21   16.59   14.19
   3   6 -21   -0.80    8.99
  -6  -3 -21   22.70   15.72
  -6  -3  22    6.96    8.57
   6   3 -22   25.58   17.81
   6  -3 -22  -11.69   11.24
  -3   6 -22   16.94   14.64
   3   6 -22  -12.23   17.70
  -6  -3 -22    1.11    4.94
  -6  -3  23    6.10    3.02
   6   3 -23   10.45   14.12
   6  -3 -23  -30.25   18.63
  -3  -6  23  -22.60   15.62
  -6  -3  24   20.05   13.41
  -3  -6  24   20.10   15.37
  -6  -3  25   11.98   10.88
  -3  -6  25  -12.03   11.69
  -6  -4   0    6.34   15.40
   4   6   0    2.54   22.80
   6   4   0   33.77   32.13
  -4  -6   0    9.77    6.71
  -6  -4   1   38.37   20.65
  -6  -4  -1   43.68   20.31
   4  -6  -1   16.07    3.94
   4   6   1   50.12   35.69
   4   6  -1   44.31   29.83
   6   4   1   44.31   34.94
   6   4  -1   12.81   18.59
  -4  -6   1   29.67   23.87
  -4  -6  -1   33.93   24.95
  -6  -4   2   44.82   22.61
  -6  -4  -2   61.11   22.19
   4   6   2   21.76   23.77
   4   6  -2   40.76   29.26
   4  -6  -2   18.89    5.32
   6   4   2   79.89   47.56
   6   4  -2   23.22   25.37
  -4  -6   2   27.90   22.12
  -4  -6  -2   43.46   25.63
   4  -6  -3  139.38   15.83
   4   6   3  212.00   66.05
   4   6  -3  155.50   57.52
   6   4   3  153.74   58.35
  -4  -6   3  158.98   47.84
  -4  -6  -3  155.95   47.40
  -6  -4  -3  197.25   37.87
   6   4  -3  176.77   61.29
  -6  -4   3  226.07   50.40
  -6  -4   4  160.34   45.14
   4   6   4  139.37   52.87
   4   6  -4  145.03   56.05
  -4  -6   4  134.17   43.18
  -4  -6  -4  153.05   47.79
   6   4   4  143.04   58.01
  -6  -4  -4  161.16   33.04
   6   4  -4  139.77   55.49
   6  -4  -4  113.86   17.33
   6   4   5  270.22   72.54
   6  -4  -5  229.89   25.19
   4   6   5  295.82   74.09
   4   6  -5  201.53   61.76
  -4  -6   5  255.78   58.88
  -4  -6  -5  288.49   64.70
   6   4  -5  357.22   80.17
  -6  -4   5  266.31   56.91
  -6  -4  -5  291.59   41.18
  -6  -4   6   47.34   26.84
  -6  -4  -6   88.92   22.19
   6  -4  -6   48.25   13.01
   6   4   6   45.12   35.03
   4   6   6   99.48   42.92
   4   6  -6   50.68   35.52
   6   4  -6   52.38   34.53
  -4  -6   6   54.81   27.98
  -4  -6  -6   74.86   35.08
   6  -4  -7  109.27   18.53
  -6  -4   7  139.98   41.77
   6   4  -7  141.12   47.31
   4   6   7  126.43   46.37
   4   6  -7  120.88   44.24
   6   4   7  124.32   44.82
  -4  -6   7  121.12   38.81
  -4  -6  -7  105.01   38.40
  -6  -4  -7  106.53   23.24
  -6  -4   8    2.64    6.10
  -6  -4  -8   -0.23    1.27
   6  -4  -8    5.74    4.81
   6   4   8    1.24   11.13
   4   6   8    1.78    9.71
   4   6  -8   21.25   22.79
   6   4  -8   17.73   20.52
  -4  -6   8   -2.26    2.07
  -4  -6  -8   -3.11   14.57
  -6  -4   9    5.34    9.59
   6   4   9   11.34   15.92
   6   4  -9    9.44   12.34
   6  -4  -9    3.93    5.17
   4   6   9   12.91   16.24
   4   6  -9   -0.08   13.99
  -4  -6   9   -0.59    4.50
  -4  -6  -9   18.68   16.04
  -6  -4  10   12.79   14.63
  -6  -4 -10    8.76    6.87
   6  -4 -10    6.25    4.75
   4   6  10   13.11   16.66
   4   6 -10   17.84   15.62
  -4  -6  10    4.37    5.01
  -4  -6 -10    4.17   13.27
  -6  -4  11   67.89   29.01
  -6  -4 -11   69.13   15.72
   6  -4 -11   44.03   14.43
   4   6  11   72.43   32.98
   4   6 -11   66.84   32.57
  -6  -4 -11   50.15   25.07
  -4  -6  11   65.40   26.62
  -4  -6 -11   41.44   24.30
  -6  -4  12   69.95   31.47
   4   6  12   80.99   33.93
   4   6 -12   70.65   31.58
   6  -4 -12   49.11   15.47
  -6  -4 -12   61.22   25.76
  -4  -6 -12   61.24   26.75
  -4  -6  12   63.57   27.68
  -6  -4  13  133.62   40.93
   4   6  13   84.79   34.54
   4   6 -13  103.29   37.85
   6  -4 -13   92.45   21.65
  -6  -4 -13  101.76   33.91
  -4  -6 -13  127.84   39.63
  -4  -6  13  101.33   32.69
  -6  -4  14   44.02   24.18
   4   6  14   33.98   25.30
   4   6 -14   32.97   22.26
   6  -4 -14   18.77    9.29
  -6  -4 -14   34.39   20.81
  -4  -6 -14   36.05   21.33
  -4  -6  14   32.41   17.71
  -6  -4  15   52.57   25.17
   4   6  15   37.73   17.82
   4   6 -15   58.97   26.18
   6  -4 -15   38.16   15.49
  -6  -4  15   36.34   20.12
  -6  -4 -15   33.81   18.52
  -4  -6 -15   30.51   20.81
  -4  -6  15   48.53   21.85
  -6  -4  16   11.09   15.75
   4   6  16   -9.90   10.70
   4   6 -16   20.52   15.31
   6  -4 -16   -1.18    4.37
  -6  -4  16    2.69   10.69
  -6  -4 -16   18.48   14.68
  -4  -6 -16   10.42    9.87
  -4  -6  16   -3.57    8.45
  -6  -4  17   24.06   17.74
   4   6  17   15.21   13.84
   4   6 -17    4.41    7.83
   6  -4 -17   -6.64    6.53
  -6  -4  17   19.33   13.10
  -6  -4 -17    7.25    8.88
  -4  -6 -17    1.29    4.06
  -4  -6  17   11.01   11.47
  -6  -4  18    4.25   12.42
  -6  -4  18    9.33    8.87
  -6  -4 -18   -1.35    3.72
  -4  -6 -18    6.48    6.69
  -4  -6  18   -9.36   12.46
  -6  -4  19   12.67   12.37
   6  -4 -19   -5.33   10.94
  -6  -4 -19    7.14   11.96
  -4  -6 -19    8.77   11.73
  -4  -6  19    3.10   11.98
  -6  -4  20   14.57   18.38
   6  -4 -20  -18.64   13.40
  -6  -4 -20   -1.51    5.83
  -4  -6 -20   14.09   14.66
  -4  -6  20    9.45    1.24
  -6  -4  21    6.58   14.15
   6  -4 -21  -12.22   11.29
  -6  -4 -21   17.97   15.49
  -4  -6 -21   18.90   16.61
  -4  -6  21   10.87    9.17
  -6  -4  22   23.50   16.11
   6  -4 -22  -21.75   15.58
  -4  -6  22   18.07   14.98
  -6  -4 -22    9.80   10.93
  -4  -6 -22   12.32    9.76
   6  -4 -23  -14.88   13.25
  -4  -6  23   31.85   19.27
   5   6   0   11.42   17.40
  -6  -5   0   21.09   19.14
  -5  -6   0    2.80   10.39
  -6  -5   0    4.65    8.72
  -6  -5  -1    0.02   11.39
   5   6   1   22.77   17.05
   5   6  -1    2.06   17.24
  -6  -5   1    9.37    7.25
  -6  -5  -1    3.58   11.38
  -5  -6   1   -0.73   15.32
  -5  -6  -1    3.80   16.01
  -6  -5   1   -5.80    9.16
  -6  -5  -2   -5.65   11.89
   5   6   2   14.55   25.29
   5   6  -2   31.64   33.36
  -6  -5   2   18.02   17.31
  -6  -5  -2    1.90    3.93
  -5  -6   2    4.90   12.44
  -5  -6  -2    7.97    7.69
  -6  -5   2    0.91    8.30
  -6  -5  -3   15.77   11.17
   5   6   3    6.82   18.89
   5   6  -3   30.92   33.78
  -6  -5   3   11.41    8.66
  -6  -5  -3   -4.37    9.24
  -5  -6   3  -11.22   18.94
  -5  -6  -3   -1.20   10.05
  -6  -5   3   -5.51   12.57
  -6  -5  -4   41.71   19.04
   5   6   4   46.74   35.16
   5   6  -4   58.39   38.99
  -6  -5   4   34.09   27.64
  -6  -5  -4   35.87   20.63
  -5  -6   4   41.77   25.64
  -5  -6  -4   12.45   15.03
  -6  -5   4   24.69   17.10
  -6  -5  -5    8.07    9.18
   6  -5  -5    4.32    4.11
   5   6   5   15.80   27.37
   5   6  -5   17.59   20.11
  -6  -5   5    7.76   12.41
  -6  -5  -5   15.56   13.07
  -5  -6   5   20.69   24.70
  -5  -6  -5    2.73   10.61
  -6  -5   5    1.90    6.56
  -6  -5  -6   44.10   18.31
   6  -5  -6   42.94   10.75
   5   6   6   84.92   42.53
   5   6  -6   74.83   43.93
  -6  -5   6   55.68   29.38
  -6  -5  -6   57.20   29.29
  -5  -6   6   40.08   25.32
  -5  -6  -6   76.93   34.22
  -6  -5   6   67.17   32.53
  -6  -5  -7   66.04   20.94
   6  -5  -7   54.90   13.20
   5   6   7   65.22   37.74
   5   6  -7  107.92   47.42
   5  -6  -7   41.43   10.20
  -6  -5   7   81.83   36.21
  -6  -5  -7   55.54   31.24
  -5  -6   7   85.84   34.63
  -5  -6  -7   61.99   31.95
  -6  -5   7  101.09   40.02
  -6  -5   8   12.30   19.00
  -6  -5  -8    0.94    2.67
   6  -5  -8   16.36    8.37
   5   6   8   33.46   30.27
   5   6  -8   18.46   27.61
   5  -6  -8    4.35    4.15
  -6  -5   8   35.14   23.76
  -6  -5  -8   -6.50   10.13
  -5  -6   8   22.23   20.73
  -5  -6  -8    7.79   14.78
  -5  -6  -8    0.13    5.51
  -6  -5  -9   78.59   20.21
   5   6   9   94.36   42.64
   5   6  -9   92.00   42.56
   6  -5  -9   70.00   15.91
   5  -6  -9   61.73   15.33
  -5  -6  -9   70.19   22.82
  -6  -5   9   86.40   37.25
  -6  -5  -9   89.39   34.84
  -5  -6   9  103.39   36.24
  -5  -6  -9  120.98   40.98
  -6  -5   9  117.39   42.44
  -5  -6   9   87.82   35.83
  -6  -5  10   20.39   20.57
   5   6  10   48.45   30.54
   5   6 -10   27.96   26.57
   6  -5 -10   23.44   10.83
   5  -6 -10    2.90    3.97
  -6  -5  10   65.58   29.68
  -6  -5 -10   45.99   23.13
  -5  -6  10   33.29   22.55
  -5  -6 -10   27.41   20.33
  -5  -6  10   12.68    8.09
  -5  -6 -10   21.35   10.39
  -6  -5  11   49.08   27.71
   5   6 -11   30.30   21.42
   6  -5 -11   20.56    9.61
  -6  -5  11   25.77   15.92
  -6  -5 -11   26.23   19.24
  -5  -6  11   46.58   23.90
  -5  -6 -11   37.84   23.79
  -5  -6  11   24.45   18.70
  -6  -5  12   33.07   26.08
   6  -5 -12   32.52   12.60
  -5  -6  12   20.88   12.97
  -6  -5  12   30.13   21.17
  -6  -5 -12   21.20   15.14
  -5  -6  12   35.60   20.16
  -5  -6 -12   24.74   21.07
  -6  -5  13   21.11   19.12
   6  -5 -13    4.76    4.03
  -6  -5  13   -5.72    3.14
  -6  -5 -13    3.64    6.07
  -5  -6  13    8.03   11.25
  -5  -6 -13    3.66   11.55
  -5  -6  13   -4.60    7.41
  -6  -5  14   13.08   16.07
   6  -5 -14   -4.80    7.71
  -6  -5  14   11.23   12.41
  -6  -5 -14   15.35   12.74
  -5  -6  14    6.41    6.75
  -5  -6 -14   23.70   16.92
  -5  -6  14   12.48   13.82
  -6  -5  15   11.89   14.29
   6  -5 -15   -1.60    4.03
  -6  -5  15    6.26   13.94
  -6  -5 -15  -13.21   14.37
  -5  -6  15    0.68    6.85
  -5  -6 -15   -9.74   10.85
  -5  -6  15   -6.24   10.71
  -6  -5  16   22.87   17.88
   6  -5 -16   -2.03    7.68
  -6  -5  16    7.74    1.79
  -6  -5 -16   15.93   14.90
  -5  -6  16    1.55    5.66
  -5  -6 -16  -11.00   11.66
  -5  -6  16   -3.52   11.61
  -6  -5  17    2.71    7.26
  -5  -6  17    0.79    4.28
   6  -5 -17   -9.96   11.69
  -6  -5  17   -2.11    2.05
  -6  -5 -17    5.97    7.31
  -5  -6 -17   -2.33    4.09
  -6  -5  18    9.56   13.83
   6  -5 -18  -13.24   12.80
  -6  -5 -18   -2.59    5.16
  -5  -6 -18   -6.22    9.84
  -5  -6  18    4.10    4.82
  -6  -5  19    0.43    6.60
   6  -5 -19  -25.76   15.21
  -6  -5 -19    7.94   14.70
  -5  -6 -19   11.50    9.01
  -5  -6  19  -19.20   14.60
  -6  -5  20    5.94   10.80
  -6  -5 -20    4.03    5.86
  -5  -6 -20  -10.26   11.25
  -5  -6  20   -1.39    6.92
  -6  -5 -21   10.94   10.72
  -5  -6 -21   -6.64    7.02
  -6  -5 -22   -0.53    3.76
  -5  -6 -22   14.02   14.70
  -5  -6 -23    5.51    5.89
  -6  -6   0   19.79   11.94
  -6  -6   0   14.04    2.29
  -6  -6  -1    5.63    5.18
  -6  -6  -1  -10.30   10.61
  -6  -6   1  -13.89   17.18
  -6  -6   2   11.66    7.90
  -6  -6  -2   20.65   15.31
  -6  -6   2   18.41   17.22
  -6  -6  -2   43.95   28.87
  -6  -6   3   -9.39   17.74
  -6  -6   3   16.24   20.83
  -6  -6  -3   -1.67   12.35
  -6  -6  -3    3.14    6.95
  -6  -6   4   13.89   16.32
  -6  -6  -4   12.80   16.79
  -6  -6   4   11.60   11.47
  -6  -6  -4   -0.49    5.82
  -6  -6   5   12.19   18.61
  -6  -6  -5    0.60   12.93
  -6  -6   5   -3.00    1.59
  -6  -6  -5   -8.35   12.42
  -6  -6   6   39.55   27.77
  -6  -6  -6   44.13   26.19
  -6  -6   6   46.18   27.84
  -6  -6  -6   66.72   24.63
  -6  -6   7   31.07   26.51
  -6  -6  -7   29.86   29.44
  -6  -6   7   25.64   22.80
  -6  -6  -7   15.28   14.68
  -6  -6   8  199.43   57.37
  -6  -6  -8  176.04   55.55
  -6  -6  -8  195.94   37.90
  -6  -6   8  258.94   67.12
  -6  -6   9   65.34   34.39
  -6  -6  -9   29.95   24.91
  -6  -6   9   30.72   23.77
  -6  -6  10  134.35   44.75
  -6  -6 -10  167.02   50.72
  -6  -6  10  134.57   47.36
  -6  -6  11   11.41   15.80
  -6  -6 -11   11.39   19.23
  -6  -6  11    5.14    2.21
  -6  -6  12   18.35   15.26
  -6  -6 -12    1.88    6.19
  -6  -6  12   32.99   18.85
  -6  -6  13    4.29    9.64
  -6  -6 -13    5.33    5.06
  -6  -6  13    2.43    7.47
  -6  -6  14    5.26   11.55
  -6  -6 -14    6.34    5.14
  -6  -6  14   10.09   12.73
  -6  -6  15   -7.22   11.47
  -6  -6  15  -13.70   12.54
  -6  -6 -15   -7.25    9.80
  -6  -6  16   -9.14   11.73
  -6  -6  16    0.78    4.52
  -6  -6 -16   -1.42    6.25
  -6  -6 -17   -0.09    1.12
   6  -6 -18  -28.46   15.39
  -6  -6 -18   -3.90    9.12
   6  -6 -19  -27.25   15.75
  -6  -6 -19    8.76    8.95
   6  -6 -20   -2.70   10.21
  -6  -6 -20    6.95   14.93
   6  -6 -21  -12.12   16.05
  -6  -6 -21    7.54   12.58
  -6  -6 -22   -5.03    8.45
   0   7   0    2.37   21.62
   7   0   0    8.56   23.92
   0   7  -1  224.20   28.91
   0   7   1  308.57  103.32
   0   7  -1  266.57   96.52
   7   0   1  137.36   48.41
   7   0  -1  155.02   55.05
   0   7   2  173.22   80.92
   0   7  -2  114.30   56.87
   0   7  -2   86.44   19.43
   7   0   2   91.67   44.27
   7   0  -2   75.98   43.18
   0   7   3  157.43   72.01
   0   7  -3  108.27   57.82
   0   7  -3   86.60   20.55
   7   0   3  100.93   45.73
   7   0  -3  101.08   43.20
   0  -7   3   76.07   14.78
   0   7   4  186.81   71.79
   0   7  -4  127.26   56.26
   0   7  -4  101.64   21.79
   7   0   4  109.83   46.32
   7   0  -4   63.41   35.17
   0  -7   4   79.08   14.42
   0   7   5   10.72   22.56
   0   7  -5   21.18   23.14
   0   7  -5    9.70    6.69
   7   0   5   26.25   32.48
   7   0  -5   14.37   19.31
   0   7   6   88.01   42.36
   0   7  -6   48.33   29.52
   0   7  -6   32.15   14.33
   7   0   6   25.58   21.15
   7   0  -6   80.73   35.99
   0   7   7   14.43   19.33
   0   7  -7    1.02    8.26
   0   7  -7    2.35    5.44
   7   0   7   12.87   19.77
   7   0  -7   -6.56   12.13
   0   7   8    3.55   13.75
   0   7  -8    2.88    8.78
   0   7  -8    1.64    1.67
   7   0   8   25.81   21.62
   7   0  -8   -1.21    6.15
   0   7   9    1.30    5.66
   0   7  -9  -10.91   13.45
   0   7  -9   -0.61    5.30
   7   0   9    4.38   12.71
   7   0  -9    7.93   15.80
   0   7  10  -16.12   14.35
   0   7 -10   -5.05   11.32
   0   7 -10   -3.22    6.31
   7   0  10   -0.63   10.25
   7   0 -10   17.87   17.66
   7   0  11   -9.59   14.36
   7   0 -11  -11.86   15.14
   7   0 -11    4.27    6.60
   0   7  11   -5.04   10.52
   0   7 -11    2.06    4.07
   0   7 -11    5.69    1.97
   7   0  12   11.24   11.98
   7   0 -12   19.41   18.55
   7   0 -12   16.88   11.82
   0   7  12    6.39    9.23
   0   7 -12    2.69    3.01
   0   7 -12    0.58    4.07
   7   0  13    3.28    6.90
   7   0 -13    5.92    4.39
   7   0 -13   11.67   10.90
   0   7  13    6.13    9.07
   0   7 -13   -0.81    4.98
   0   7 -13   21.60   13.00
   7   0  14   30.90   21.13
   7   0 -14   31.51   15.40
   7   0 -14   12.42   10.98
   0   7 -14   19.44   15.78
   0   7  14    6.94    9.78
   0   7 -14   19.67   11.02
   7   0 -15   18.49   13.25
   7   0  15   25.60   17.69
   7   0 -15   24.05   18.16
   0   7  15   11.99   12.83
   0   7 -15   16.76   11.83
   0   7 -15   38.60   21.48
   7   0 -16   12.32   11.32
   7   0  16   19.23   15.54
   7   0 -16   11.12    7.07
   0   7  16    1.71    7.70
   0   7 -16    3.39    5.41
   0   7 -16   11.77   12.36
   7   0 -17   26.15   15.60
   7   0  17   33.20   18.49
   7   0 -17   23.42   14.47
   0   7  17   39.91   19.51
   0   7 -17   23.20   13.28
   0   7 -17   -5.53    9.70
   7   0 -18   18.13   13.16
   7   0  18    5.94    8.74
   7   0 -18   22.35   18.44
   0   7  18    5.40    8.61
   0   7 -18    5.41    8.30
   0   7 -18  -12.97   16.45
   7   0 -19   23.84   16.82
   0   7  19   17.93   12.35
   0   7 -19   27.25   16.36
   7   0  19   20.95   16.45
   7   0 -19    6.21   11.84
   0   7 -19   -7.46   15.25
   7   0 -20   25.36   16.09
   0   7 -20   31.59   18.31
   7   0  20    7.40    9.91
   7   0 -20    8.45    7.65
   0   7 -20    2.98   10.27
   7   0 -21   40.75   19.97
   0   7 -21  -26.10   17.94
   7   0 -22   23.74   17.63
   0   7 -22  -31.19   19.47
   7   1   0  -19.23   27.43
  -7  -1   0  -35.94   16.69
   1   7   0   -5.47    5.81
  -1   7   0    2.07    3.22
  -7  -1   1   -7.03   11.10
   7   1   1  -21.56   31.11
   7   1  -1  -13.35   23.78
  -7  -1  -1  -36.56   17.28
   1   7   1  -17.07    8.06
   1   7  -1   11.06   26.99
  -1   7   1    5.02    4.34
  -1   7  -1    0.74    3.06
  -7  -1   2    4.29    2.81
   7   1   2  -14.40   21.73
   7   1  -2   -8.78   14.73
   1   7   2   -5.37   25.95
   1   7  -2   14.10   29.81
  -1   7   2    0.23    1.71
  -1   7  -2   -8.29    8.02
  -7  -1   3   -2.80    4.70
   7   1   3  -17.69   30.49
   7   1  -3   -0.57   21.41
   1   7   3  -12.57   26.51
   1   7  -3   -6.98   19.15
  -1   7  -3   -6.85    6.07
  -7  -1   4    1.28   12.04
   7   1   4   -4.11   17.33
   7   1  -4   -5.26   17.46
   1   7   4  -12.80   22.93
   1   7  -4   28.94   29.96
   1   7  -4    6.15    5.85
  -1   7  -4   -1.05    4.13
  -7  -1   5    5.98    5.18
   7   1   5   -7.22   13.26
   7   1  -5    4.30    4.48
   1   7   5  -15.73   23.01
   1   7  -5    1.58    9.27
   1   7  -5    6.40    7.63
  -1   7  -5    2.30    6.10
  -7  -1   6    3.60    8.59
   7   1   6   15.55   17.17
   7   1  -6  -28.08   20.64
   1   7   6    7.01   16.78
   1   7  -6    7.46   17.37
   1   7  -6    0.79    8.23
  -1   7  -6   -0.86    3.49
  -7  -1   7   17.07   16.39
   7   1   7    8.82   14.49
   7   1  -7   -5.03   10.15
   1   7   7    4.13   15.04
   1   7  -7   -6.96    7.17
   1   7  -7   17.17   10.58
  -1   7  -7    0.04    2.85
  -1   7  -8    4.88    7.28
  -7  -1   8   -0.46    6.85
   7   1   8   -5.84   13.69
   7   1  -8   17.50   19.01
   1   7   8  -15.36   20.28
   1   7  -8  -17.14   20.62
   1   7  -8    4.50    7.90
  -1   7  -9    1.92    8.80
   7  -1  -9    4.12    4.48
  -7  -1   9   10.25   12.23
   7   1   9  -10.35   15.70
   7   1  -9   13.51   16.92
   1   7   9   -7.87    5.46
   1   7  -9   -3.89   11.63
   1   7  -9    2.37    4.28
  -1   7 -10   11.68   12.25
   7  -1 -10   -0.24    5.27
  -7  -1  10   27.48   21.00
   7   1  10  -13.00   19.84
   7   1 -10   -1.76    8.71
   1   7  10   -4.95    8.51
   1   7 -10  -21.05   15.12
   1   7 -10    1.39    4.50
  -1   7 -11    5.50   11.78
   7  -1 -11   -2.82    3.23
  -7  -1  11   10.01   11.12
   7   1  11    9.37    6.62
   7   1 -11   -0.38    6.85
   1   7  11   -5.08    6.04
   1   7 -11   -7.26    8.85
   7  -1 -11  -13.63   20.32
   1   7 -11   -1.26    1.36
  -1   7 -12    0.81    5.51
   7  -1 -12    6.98    7.96
  -7  -1  12    9.15   10.59
   1   7  12    1.27    4.00
   7   1  12   -4.41    7.40
   1   7 -12   -0.68    7.41
   7   1 -12  -22.85   16.55
   7  -1  12   15.48   13.63
   7  -1 -12    1.83   10.27
   1   7 -12    1.76    3.96
  -1   7 -13   -7.36    9.13
   7  -1 -13    0.96    3.45
  -7  -1  13   -1.06    4.88
   1   7  13   -4.08    6.74
   1   7 -13    2.38    4.69
   7   1  13    7.08   10.16
   7   1 -13    9.28    9.07
   7  -1  13  -12.45   15.40
   7  -1 -13   -0.05    6.92
   1   7 -13   -2.57   10.50
   7   1 -14   16.76   11.70
  -1   7 -14    5.83    5.90
  -7  -1  14   15.93   15.67
   7  -1 -14   -0.95    3.40
   1   7  14  -12.71   11.88
   1   7 -14   -6.98    7.76
   7   1  14  -18.32   14.67
  -1   7  14   -3.56    7.11
   7   1 -14   13.71   15.93
   7  -1  14   -4.25    8.65
   1   7 -14   -2.52    4.71
   7  -1 -14   -3.40   12.76
   7   1 -15    6.70   12.15
  -1   7 -15    0.56    6.37
  -7  -1  15    1.75    9.84
   7  -1 -15    4.13    5.96
   1   7  15   -3.35    9.66
   1   7 -15   -1.26    7.90
  -1   7  15    0.35    5.28
  -1   7 -15   -2.50    4.42
   7   1  15    6.51   10.38
   7   1 -15   -9.66    7.45
   1   7 -15   -2.56   10.33
   7  -1  15  -17.21   15.07
   7  -1 -15   13.65   14.03
  -1   7 -16    5.17    6.02
   7   1 -16    4.83    7.40
  -7  -1  16   -3.15    9.73
   7  -1 -16   18.94   13.43
   1   7  16   -4.73    8.85
   1   7 -16   -2.12    7.01
  -1   7  16    3.55    7.36
  -1   7 -16   -4.70    6.82
   7   1  16    7.42   10.23
   1   7 -16   14.56   12.65
   7   1 -16   -4.20    9.82
   7  -1  16   -3.49    7.02
   7  -1 -16    1.02    9.68
   7   1 -17   11.55   10.44
  -7  -1  17    5.52    4.63
   7  -1 -17   12.96   12.17
   1   7  17    9.15    6.34
   1   7 -17    3.16    9.22
  -1   7  17    0.95    4.57
  -1   7 -17   -1.04    5.80
   7   1 -17  -17.35   13.54
   1   7 -17  -18.60   14.61
   7   1  17   -1.29    2.81
   7  -1  17   -8.37   11.30
   7  -1 -17    5.82   13.52
   7  -1 -18  -10.63   12.39
   7   1 -18   -2.68   11.16
  -1   7 -18   -3.91    9.99
   7   1 -18   11.82   11.46
  -7  -1  18   -4.13   14.20
   7  -1 -18    8.45   12.34
   1   7  18   -5.52    9.43
   1   7 -18   -3.69   10.45
  -1   7  18   -8.43    8.26
  -1   7 -18   -0.46    7.10
   1   7 -18    9.37   13.42
   7  -1  18  -10.11    9.39
   7   1  18   11.58   10.88
   7  -1  19    6.05    6.90
  -1   7 -19    3.25    5.57
   7  -1 -19   14.19   13.18
   7   1  19   -3.07   10.84
   7   1 -19    9.92    8.67
  -7  -1  19  -23.27   20.64
   7   1 -19    4.73    9.85
   7  -1 -19   25.87   16.48
   1   7  19    8.82    8.64
   1   7 -19   -3.02    4.06
  -1   7  19    6.30    7.55
  -1   7 -19   -5.93    5.38
   1   7 -19   -5.72   11.68
  -1   7 -20  -19.55   14.93
   7  -1  20   -4.41    7.34
   7   1 -20    5.29    8.92
  -7  -1  20  -16.54   16.87
   7  -1 -20   -5.54    6.21
   7  -1 -20   12.42   14.29
   7   1  20   -1.08    2.95
   7   1 -20    4.23    4.47
   1   7 -20    0.50    3.61
  -1   7 -20   -0.19    5.43
   1   7 -20   -9.28   19.94
  -1   7 -21   -2.45   10.22
   7   1 -21    8.40    8.74
  -7  -1  21   -8.40   14.48
   7  -1 -21   31.07   18.92
   1   7 -21   -2.92   11.62
  -7  -1  22  -38.25   22.02
   7  -1 -22    5.67    9.76
  -7  -1  23  -18.12   27.00
  -7  -2   0   39.05   17.47
   2   7   0   22.09   26.67
   7   2   0    7.83   20.73
  -2   7   0    3.45    7.04
  -2  -7   0   22.03   26.49
   2   7   1  100.78   50.67
   2   7  -1  114.31   54.65
  -2   7   1  144.79   21.46
  -2   7  -1  166.53   25.20
   7   2   1  120.13   46.14
   7   2  -1   79.00   40.25
  -7  -2   1  160.72   33.11
  -7  -2  -1  165.84   32.36
  -2  -7  -1  128.13   47.13
  -2  -7   1  186.90   54.48
  -2   7  -2   19.13   10.62
  -7  -2   2   18.49   13.65
  -7  -2  -2   27.21   14.30
   2   7   2   21.38   22.22
   2   7  -2   44.84   39.03
   7   2   2    2.74   11.89
   7   2  -2   15.08   21.55
  -2   7   2   13.43    7.10
  -2  -7  -2   16.36   20.08
  -2  -7   2   31.80   26.63
  -7  -2   3  108.38   29.36
  -7  -2  -3  104.01   26.48
   2   7   3  122.89   57.68
   2   7  -3  106.03   52.49
  -2   7   3  103.53   15.91
  -2   7  -3  110.92   23.38
   7   2   3  115.84   52.84
   7   2  -3   91.26   37.66
  -2  -7  -3  127.94   45.97
  -7  -2   4   93.87   28.49
  -2   7  -4   61.98   18.31
  -7  -2  -4   59.21   19.14
   2   7   4   74.90   46.17
   2   7  -4   96.70   46.08
  -2   7   4   59.09   11.10
   7   2   4   68.91   39.39
   7   2  -4   51.66   28.93
  -2  -7  -4   89.02   39.46
  -7  -2   5   28.45   18.59
  -2   7  -5   36.50   16.85
  -7  -2  -5   13.10    8.39
   2   7   5   23.48   24.10
   2   7  -5   22.44   23.55
   7   2   5   46.02   28.85
   7   2  -5   16.39   20.73
  -2  -7  -5   15.86    9.07
  -7  -2   6   78.27   27.87
  -2   7  -6   66.95   20.69
  -7  -2  -6   53.94   18.05
   2   7   6   89.93   41.48
   2   7  -6   95.74   39.00
   7   2   6   80.16   40.89
   7   2  -6   48.33   26.32
  -7  -2   7   11.71   11.23
  -2   7  -7   13.70   12.30
   2   7   7   12.50   14.47
   2   7  -7   10.42   22.68
   7   2   7   11.53   18.89
   7   2  -7    7.14    7.88
   7  -2  -8   22.84   10.20
  -7  -2   8   28.86   18.67
  -2   7  -8   19.87   12.20
   2   7   8   23.71   18.98
   2   7  -8   14.60   12.86
   7   2   8   28.41   21.93
   7   2  -8    6.20   12.70
   7  -2  -9   12.72    7.40
  -7  -2   9    6.84    7.78
  -2   7  -9   16.52   10.71
   2   7   9   14.87   12.35
   2   7  -9    4.77    7.59
   2   7  -9   21.75   11.36
   7   2   9  -17.00   18.19
   7   2  -9   23.56   18.76
   7   2 -10   -5.90    5.86
  -7  -2  10    5.32    9.91
   7  -2 -10   10.51    7.62
  -2   7 -10    7.68   11.06
   2   7  10   -4.59    8.88
   2   7 -10   -1.60    4.11
   7   2  10    2.48    9.44
   2   7 -10    4.61    5.88
   7   2  11    6.73    8.78
   7   2 -11    1.26    6.25
  -7  -2  11   -1.79    5.50
   7  -2 -11    5.26    7.57
  -2   7 -11    7.88    6.32
   2   7  11    8.80    8.62
   2   7 -11    2.66    8.00
   2   7 -11    7.29    9.40
   7   2  12   14.20   16.08
  -7  -2  12    2.28    3.32
   7   2 -12   13.89   11.37
   7  -2 -12   14.37    8.88
  -2   7 -12   15.18   12.91
   2   7  12   12.37   10.87
   2   7 -12   -5.02    8.64
   2   7 -12   26.36   15.76
  -7  -2  13   25.84   17.55
   7   2  13   -6.24   11.56
   7  -2 -13   19.43   10.77
   7   2 -13   -1.13    4.60
  -2   7 -13   16.20   11.48
   2   7  13    1.90    5.66
   2   7 -13    9.85   11.66
   2   7 -13   18.45   15.35
  -7  -2  14   23.34   18.58
   7  -2 -14   12.02   11.70
   7   2  14    3.24   12.70
  -2   7 -14   -3.48    4.01
   7   2 -14    9.34   12.19
   2   7  14    7.92    9.78
   2   7 -14    6.16    7.46
   2   7 -14   26.01   17.98
  -7  -2  15    4.91   12.40
   7  -2 -15   26.04   13.31
  -2   7 -15   37.90   23.03
   7   2  15    0.69   11.33
   2   7  15   22.31   14.04
   2   7 -15    3.41    5.03
   7   2 -15   19.28   12.23
   2   7 -15   27.25   18.25
  -7  -2  16   17.41   14.30
   7  -2 -16    9.66   11.38
  -2   7 -16    5.10   14.14
   2   7  16    0.34    3.16
   2   7 -16    2.73    7.29
   7   2  16   -0.40    6.28
   7   2 -16    6.66   11.06
   2   7 -16    0.76    7.26
  -7  -2  17   28.73   17.38
   7  -2 -17   34.68   16.40
  -2   7 -17   28.27   17.74
   2   7  17   13.31   11.28
   2   7 -17   17.85   11.18
   7   2  17    9.60    8.82
   2   7 -17    4.88   13.49
   7   2 -17   20.49   15.38
   7   2 -18   29.65   16.81
   7   2 -18   -6.06    7.75
  -7  -2  18   11.02   13.81
   7  -2 -18   25.59   16.19
  -2   7 -18    4.06    7.29
   2   7  18    8.60   11.10
   2   7 -18   -6.38    4.03
   2   7 -18   -6.91    7.32
   7  -2 -18    0.27    9.47
   7   2  18   10.79   15.05
   7   2 -19   22.46   15.22
  -7  -2  19   15.69   14.35
   7   2  19    5.74    3.71
  -2   7 -19    1.22    6.66
   7  -2 -19   49.83   21.53
   7   2 -19   -0.34    5.55
   2   7  19    6.16    4.96
   2   7 -19   12.23   11.12
   2   7 -19   12.74   15.27
   7  -2  19    6.77    7.90
   7  -2 -19   32.39   19.83
   7   2 -20   10.55   14.13
  -7  -2  20  -10.85   10.03
  -2   7 -20   15.41   16.14
   7  -2 -20   14.52   15.10
   2   7 -20   -4.07    3.84
   7   2  20   -3.61    8.11
  -2   7 -20    7.16    9.05
   7   2 -20   -3.72    8.36
   2   7 -20   -3.24   13.14
   7  -2  20    2.67    9.50
   7  -2 -20    0.56    3.40
  -7  -2  21   11.65   11.70
  -2   7 -21   28.06   20.36
   7  -2 -21   21.65   15.27
  -7  -2  22   27.66   21.03
   7  -2 -22    6.69   11.38
  -7  -3   0    4.06    6.83
  -3   7   0    3.51    5.99
   7   3   0    5.43    2.12
   3   7   0    9.47   25.72
  -3  -7   0   10.60   13.86
  -7  -3   1    7.80    8.13
  -7  -3  -1    2.24    6.21
  -3   7   1    3.40    3.55
  -3   7  -1   -0.33    3.70
   7   3   1  -10.72   14.78
   7   3  -1    8.59    2.63
   3   7   1   -2.68   12.03
   3   7  -1  -27.50   29.25
  -3  -7  -1    4.45   10.73
  -3  -7   1   -2.77   11.60
  -3   7   2    0.52    1.95
  -7  -3   2    1.02    4.11
  -7  -3  -2    4.74    3.31
  -3   7  -2    2.63    3.00
   7   3   2   12.24    9.76
   7   3  -2    4.13    6.57
   3   7   2  -10.08   22.52
   3   7  -2   -5.31   26.51
  -3  -7  -2   17.70   13.88
  -3  -7   2    3.55    5.11
  -7  -3   3    3.34    9.53
  -7  -3  -3    8.01    8.50
  -3   7  -3   -0.14    3.38
   7   3   3   -3.69   12.31
   3   7   3   -5.98   18.27
   3   7  -3   -7.29   24.18
   7   3  -3    6.23   12.71
  -3  -7  -3  -11.10   11.42
  -3  -7   3   13.61   16.17
  -3   7   3    2.41    2.88
  -7  -3   4   -3.39    5.38
  -7  -3  -4    7.63    6.23
  -3   7  -4    4.61    6.13
   3   7   4   -7.55   13.17
   3   7  -4  -14.64   27.65
   7   3   4    8.45   16.80
   7   3  -4   -6.14   12.11
  -3  -7  -4    1.70    6.10
  -3  -7   4   -9.59   19.44
  -7  -3   5   -1.55    6.04
  -7  -3  -5    1.85    2.28
  -3   7  -5   -5.58    8.22
   3   7   5    0.81   11.97
   3   7  -5   18.01   18.00
   7   3   5    5.78   10.35
   7   3  -5    0.28    9.74
  -3  -7  -5   -0.08    4.96
  -3  -7   5    0.83    4.07
  -7  -3   6   -1.80    3.34
  -7  -3  -6    1.18    4.69
  -3   7  -6   -0.01    9.02
   3   7   6   -1.62   15.30
   3   7  -6    3.70   13.58
   7   3   6   13.51    2.41
   7   3  -6   10.78   15.93
  -3  -7  -6    4.76    6.15
  -3  -7   6   -8.41   13.78
   7  -3  -7    2.05    4.03
  -7  -3   7    0.69    2.81
  -7  -3  -7    1.81    2.71
  -3   7  -7   -5.59   10.09
   3   7   7  -24.50   22.62
   3   7  -7    0.38   13.81
   7   3   7  -20.85   16.84
   7   3  -7  -12.59   18.99
  -3  -7  -7   17.56   13.27
  -3  -7   7   -5.61    7.62
  -7  -3   8   -3.05    9.44
   7  -3  -8    4.21    5.04
  -7  -3  -8    7.59    4.53
   3   7   8   -4.09   14.12
   3   7  -8  -15.65   20.91
  -3   7  -8  -15.25   15.56
   7   3   8   -5.08   13.76
   7   3  -8   13.65   16.59
  -3  -7  -8  -16.80   19.51
  -3  -7   8   -0.22    5.97
  -7  -3   9   -1.42    9.54
   7  -3  -9   -1.28    4.03
  -7  -3  -9  -10.37   11.10
   3   7   9   19.50   18.61
   3   7  -9    7.24   14.30
  -3   7  -9  -10.76   12.23
   7   3   9   -0.80    5.82
   7   3  -9   -1.57    8.85
  -3  -7  -9   -2.89   14.84
  -3  -7   9    0.08    3.96
  -7  -3  10    3.32    6.45
   7  -3 -10   -1.34    5.23
  -7  -3 -10  -42.02   15.58
   3   7  10   -0.85   10.29
   3   7 -10   -1.35    6.98
  -3   7 -10  -14.62   19.32
   7   3  10   -4.03    3.09
  -3  -7 -10    0.17    9.81
  -3  -7  10   -4.14    8.36
   7   3 -10   -3.87    8.41
   7   3  11   -6.13    5.44
  -7  -3  11    2.64    7.26
   7   3 -11    2.50    3.30
   7  -3 -11   -2.09    4.18
   3   7  11   -6.05   11.81
   3   7 -11   16.36   17.08
  -3   7 -11  -10.06   10.20
  -3  -7 -11  -14.90   17.82
  -3  -7  11  -18.87   14.18
  -7  -3  12    8.55    7.84
   7   3  12   -1.56    6.00
   7  -3 -12   -0.73    5.05
   7   3 -12    5.46    9.45
   3   7  12  -11.39   18.12
   3   7 -12   -1.04    7.15
  -3   7 -12    3.58   12.61
  -3  -7 -12    7.98   13.76
  -3  -7  12   -2.62    5.41
  -7  -3  13   10.82   16.97
   7  -3 -13   -5.27    5.17
   7   3  13    4.04    6.14
   3   7  13    4.31   12.40
   3   7 -13   16.31   16.09
   7   3 -13    8.04   10.29
  -3   7 -13    3.62   10.23
  -3  -7 -13    3.38    9.61
  -7  -3  14    3.98   14.58
   7  -3 -14   10.74    8.88
   3   7  14    4.82    5.18
   3   7 -14    0.58    6.26
  -3   7 -14   -0.57    8.17
   7   3  14    9.40    8.34
   7   3 -14    1.43    4.21
  -3  -7 -14   11.07   14.41
   7   3 -15  -13.43   14.60
  -7  -3  15    4.87   11.89
   7  -3 -15    6.02    7.67
   3   7  15    0.92    8.90
   3   7 -15   -3.58    7.81
  -3   7 -15    5.34   10.12
   7   3  15    5.77    3.94
  -3  -7 -15    5.41    8.97
  -7  -3  16   17.22   16.63
   7   3  16    4.85    7.78
   7  -3 -16   22.63   13.78
   3   7  16   -0.02    2.90
   3   7 -16   -5.12   10.20
  -3   7 -16   11.31   14.35
   7   3 -16   -3.07    3.78
  -7  -3  17    0.42    2.37
   7  -3 -17    5.52    7.94
   3   7  17  -13.37   11.96
   3   7 -17   -1.69    7.11
  -3   7 -17   -3.93    5.15
   7   3 -17    3.72    6.29
   7   3  17   -8.44   13.76
  -7  -3  18   -1.90    6.45
   7   3 -18   -2.99    5.61
   7  -3 -18    0.91    3.56
   3   7  18    3.51    6.22
  -3   7 -18   17.81   17.02
   7   3  18   -3.75    8.35
  -7  -3  19    8.40   10.04
   7  -3 -19    1.32    2.12
   3   7  19   -3.41    6.66
   3   7 -19    1.79    5.52
  -3   7 -19   18.81   20.12
   3   7 -19   11.05   15.49
  -7  -3 -19   -7.17    7.51
  -7  -3  20    8.89    9.77
   7  -3 -20    6.63    6.58
  -7  -3 -20   -4.08    3.94
  -7  -3  21   21.07   15.70
   7  -3 -21    0.84    4.01
  -7  -3 -21   16.71   15.42
   7  -3 -22    2.48    5.89
  -7  -3 -22   -5.90   10.36
  -7  -4   0   16.64   12.79
   4   7   0   -3.19    7.46
  -4   7   0   -1.77    4.13
   7   4   0   -0.29   19.16
  -4  -7   0   18.03   19.91
  -7  -4   1  109.52   32.13
  -7  -4  -1   81.83   23.81
   4   7   1   65.60   38.49
   4   7  -1   57.96   39.51
  -4   7   1  113.13   22.25
  -4   7  -1  112.75   25.84
   7   4   1  124.98   63.28
   7   4  -1  123.56   55.76
  -4  -7  -1  112.16   41.97
  -4  -7   1  107.13   42.32
  -7  -4   2   54.93   22.82
  -7  -4  -2   41.03   16.70
   4   7   2   73.75   38.80
   4   7  -2   65.36   40.45
  -4   7  -2   28.09   15.48
  -4  -7  -2   41.74   32.70
  -4  -7   2   50.31   29.51
   7   4   2   54.12   39.41
   7   4  -2   61.16   42.93
  -7  -4   3   52.49   26.63
  -7  -4  -3   41.88   16.19
   4   7   3   21.29   21.20
   4   7  -3   63.00   43.98
  -4   7  -3   34.79   14.89
  -4  -7  -3   33.74   26.36
  -4  -7   3   44.03   27.64
   7   4   3   44.92   29.36
   7   4  -3   32.24   29.26
   7   4   4   28.07   17.21
  -7  -4   4   74.61   29.14
  -7  -4  -4   52.94   17.70
   7   4  -4  133.43   54.50
   4   7   4   38.64   23.80
   4   7  -4   36.27   17.32
  -4  -7  -4   38.68   24.80
  -4  -7   4   48.15   26.13
  -7  -4   5   28.41   19.04
  -7  -4  -5    6.00    6.96
   7   4   5   17.26   22.65
   7   4  -5   12.61    6.92
   4   7   5   -1.20   13.84
   4   7  -5   34.49   31.48
  -4  -7  -5   -5.87   17.81
  -4  -7   5    4.87    5.96
  -7  -4   6   38.58   22.46
  -7  -4  -6   29.32   12.79
   7   4   6   23.36   35.53
   4   7   6   29.08   21.04
   4   7  -6   -7.39   18.23
   7   4  -6   18.09   13.89
  -4  -7  -6   28.11   17.11
  -4  -7   6   12.39    6.56
  -7  -4   7   -0.41    6.04
   7  -4  -7   -2.89    0.39
  -7  -4  -7   -0.69    3.43
   4   7   7    0.03   12.56
   4   7  -7  -16.12   17.23
   7   4   7   20.91   19.38
   7   4  -7   -8.50   12.30
  -4  -7  -7   -7.72    8.59
  -4  -7   7  -24.31   22.09
   7   4  -8   21.51   15.83
  -7  -4   8  -18.49   14.97
  -7  -4  -8    0.37    1.15
   7  -4  -8   -0.88    3.00
   4   7   8  -10.53   10.69
   4   7  -8  -20.01   25.01
   7   4   8    2.72   16.30
  -4  -7  -8   -3.94    6.05
  -4  -7   8   -5.18   12.12
  -7  -4   9   12.35   11.30
  -7  -4  -9    2.25    6.60
   7  -4  -9    2.94    4.57
   7   4   9   -9.25   20.80
   4   7   9   -0.22   11.17
   4   7  -9    1.80   10.81
   7   4  -9   10.40   12.82
  -4  -7  -9   -4.14    8.83
  -4  -7   9   -3.64   15.40
  -7  -4  10    0.28    5.26
   7   4 -10   -6.19   10.50
   7  -4 -10    2.49    3.76
   4   7  10    7.91   14.34
   4   7 -10   11.20   17.00
   7   4  10  -19.35   19.22
  -4  -7 -10   -4.52   13.87
  -4  -7  10  -15.00   13.44
  -7  -4  11    8.42    8.68
   7  -4 -11    3.96    4.62
   4   7  11    5.42   14.54
   4   7 -11   13.93   16.21
   7   4  11  -10.82    9.75
  -4  -7 -11    1.26    6.87
  -4  -7  11  -15.74   13.62
   7   4 -11   -3.31   10.75
  -7  -4  12   29.12   21.99
   7   4  12   -2.58    7.71
   7  -4 -12    2.37    7.24
   4   7  12    4.35    5.19
   4   7 -12   14.50    5.68
  -4  -7 -12   11.01   14.20
  -4  -7  12    2.80    3.36
  -7  -4  13   -1.06    8.73
   7  -4 -13    6.92    7.87
   4   7  13   21.94   18.51
   4   7 -13   21.83   19.38
  -7  -4 -13   10.89   14.13
  -4  -7 -13   11.26   11.94
  -7  -4  14   12.75   13.56
   7  -4 -14   18.03   10.71
   4   7  14    6.27    8.06
   4   7 -14   -1.27   13.84
  -4   7 -14   11.73   20.55
  -7  -4 -14   22.00   16.47
  -4  -7 -14   20.06   17.24
  -4  -7  14   22.98   16.73
  -7  -4  15   12.98   10.40
   7  -4 -15    7.68    8.15
   4   7  15   -1.48    6.05
   4   7 -15   15.67   15.89
  -4   7 -15   31.38   27.04
  -7  -4 -15    3.60    5.15
  -4  -7 -15   16.57   17.75
  -4  -7  15    3.71    2.81
  -7  -4  16    3.47   10.15
   7  -4 -16    5.46    7.11
   4   7  16    8.83   12.97
   4   7 -16    1.40    7.40
  -4   7 -16   27.42   17.69
  -7  -4 -16   15.80   15.69
  -4  -7 -16    0.26    4.70
  -4  -7  16    4.56   10.13
  -7  -4  17   23.54   18.04
   4   7  17   13.08   12.32
   4   7 -17   25.62   20.32
   7  -4 -17   17.56   10.77
  -4   7 -17   54.06   29.20
  -7  -4  17   12.51   12.38
  -7  -4 -17   20.85   17.52
  -4  -7 -17   20.20   17.00
  -7  -4  18   43.39   24.65
   4   7  18    9.17   11.52
   4   7 -18   -0.84    4.48
   7  -4 -18    8.52   13.43
  -4   7 -18   13.46   20.81
  -7  -4 -18   -5.23    7.72
  -4  -7 -18   15.24   16.64
   4   7 -19    4.79   10.43
  -7  -4 -19    7.41    9.32
   7  -4 -20    8.48    8.40
  -7  -4 -20   -8.87   10.44
  -4  -7 -20   12.86   15.41
   7  -4 -21    5.12    7.59
  -7  -4 -21   -2.52    1.67
  -7  -4 -22    6.17   11.16
  -7  -5   0   11.26   11.74
   5   7   0   -9.82   26.45
  -7  -5   0   20.21   25.07
  -5  -7   0    2.26    4.93
  -7  -5   1    7.29   13.70
  -7  -5  -1    7.04   13.09
   5   7   1  -10.37   12.20
   5   7  -1   -7.14   16.56
  -7  -5   1    1.36    6.33
  -7  -5  -1    8.18   20.64
  -5  -7   1  -11.41   21.88
  -5  -7  -1  -12.54   23.65
  -7  -5   2   21.52   17.55
  -7  -5  -2    3.73    5.38
   5   7   2   18.05   24.97
   5   7  -2   -9.56   17.66
  -7  -5  -2    6.66   16.11
  -5  -7   2    9.57    4.93
  -5  -7  -2  -12.59   21.25
  -7  -5   3   27.67   20.57
  -7  -5  -3   17.19   12.89
   5   7   3   24.11   22.69
   5   7  -3   -9.45   13.83
  -7  -5  -3   -2.11   14.44
  -5  -7   3   -8.53   13.76
  -5  -7  -3   -5.74   14.01
  -7  -5   4   10.23   14.98
  -7  -5  -4    8.28   11.00
   5   7   4    6.96    9.70
   5   7  -4   28.68   23.88
  -7  -5   4    6.97    2.68
  -7  -5  -4    2.28   17.91
  -5  -7   4   -3.55    3.88
  -5  -7  -4   -3.95    3.84
  -7  -5   5   10.85   15.99
  -7  -5  -5   -3.22    7.11
   5   7   5   22.97   20.75
   5   7  -5   16.37   21.29
  -7  -5   5   -1.73    3.78
  -7  -5  -5   12.05   19.15
  -5  -7   5  -15.22   17.37
  -5  -7  -5    8.90   10.78
  -7  -5   6   12.25   11.00
  -7  -5  -6   -3.62    5.66
   5   7   6   -8.81   13.07
   5   7  -6   13.04   29.59
  -7  -5   6  -13.81   13.53
  -7  -5  -6   19.78   20.19
  -5  -7   6   -9.33   13.57
  -5  -7  -6   -6.39   12.89
  -7  -5   7   -5.80   11.88
  -7  -5  -7    2.24    2.74
   5   7   7  -12.24   14.86
   5   7  -7   11.39   13.64
  -7  -5   7  -15.62   19.99
  -7  -5  -7  -11.75   13.31
  -5  -7   7   -5.28    7.14
  -5  -7  -7  -17.88   23.28
  -7  -5   8   18.38   15.33
   5   7   8    5.80   14.23
   5   7  -8   -4.39   11.85
  -7  -5   8   -1.64   13.85
  -7  -5  -8   -6.80   17.38
  -5  -7   8  -17.96   10.34
  -5  -7  -8   -4.66    6.19
  -7  -5   9   -2.56    7.64
   5   7   9    2.26    2.39
   5   7  -9   11.18   16.72
  -7  -5   9   -5.53    7.75
  -7  -5  -9    8.83   11.32
  -5  -7   9   -1.57   14.14
  -5  -7  -9   -5.60    9.32
  -7  -5  10   -0.35    8.03
   5   7  10   16.33   24.55
   5   7 -10    1.76    8.71
  -7  -5  10    2.18    5.14
  -7  -5 -10    2.07    0.79
  -5  -7 -10  -13.60   18.51
  -5  -7  10   -6.76   12.01
  -7  -5  11    5.63   10.13
   5   7  11    5.88   15.28
   5   7 -11   -2.19    8.10
  -7  -5  11    9.20    7.78
  -7  -5 -11    5.91   14.25
  -5  -7 -11   -7.25   16.55
  -5  -7  11    3.44    2.20
  -7  -5  12   10.15   15.03
   5   7  12   14.41   16.63
   5   7 -12   -5.95    9.43
  -7  -5  12    9.80   14.01
  -7  -5 -12   -5.07   10.02
  -5  -7 -12   -1.96    5.33
  -5  -7  12   -5.64   12.02
  -7  -5  13    9.43   14.11
   5   7  13    1.65    4.57
   5   7 -13   13.69   16.96
  -7  -5  13  -10.61   11.44
  -7  -5 -13  -16.16   14.39
  -5  -7 -13   -5.54    8.44
  -5  -7  13   -8.03   16.33
  -5  -7  13   -5.81    9.36
  -7  -5  14    0.41    2.46
   7  -5 -14    1.40    4.51
  -7  -5  14   -4.47    7.83
  -7  -5 -14   11.51   12.13
  -5  -7 -14  -18.45   16.31
  -5  -7  14    2.26    9.07
  -5  -7  14  -21.76   16.68
  -7  -5  15   10.24   13.96
   7  -5 -15    4.65    5.65
  -7  -5  15   10.07   14.30
  -7  -5 -15  -13.43   13.14
  -5  -7 -15   -1.25   10.74
  -5  -7  15   -8.59    8.85
  -5  -7  15    8.42   13.95
  -7  -5  16    5.17   11.97
   7  -5 -16    2.53    5.43
  -7  -5  16    1.72   12.67
  -7  -5 -16   -3.14   12.27
  -5  -7 -16   -3.54    7.09
  -5  -7  16   -6.24   11.95
   7  -5 -17   -7.66    7.27
  -7  -5 -17   -3.97    9.43
  -5  -7 -17   10.34    6.38
   7  -5 -18    2.59    2.49
  -7  -5 -18   11.97   13.17
  -5  -7 -18   -6.62    9.70
   7  -5 -19   -3.45    6.67
  -7  -5 -19   15.20   15.66
  -5  -7 -19    7.04    9.58
   7  -5 -20  -18.28   12.86
  -7  -5 -20   -8.16   10.65
  -5  -7 -20  -17.34   15.54
  -7  -5 -21   19.60   19.34
  -7  -6   0    3.68    2.70
  -7  -6   0   24.18   22.31
  -6  -7   0   20.78   27.16
  -6  -7   0   -0.94   15.35
  -7  -6   1   53.46   29.23
  -7  -6  -1   40.81   19.60
  -7  -6   1   43.83   29.51
  -7  -6  -1   42.90   28.51
  -6  -7   1   33.93   30.34
  -6  -7  -1   49.29   33.27
  -6  -7   1   48.44   25.83
  -6  -7  -1   16.45   11.85
  -7  -6   2    8.83   20.68
  -7  -6  -2   -0.93    2.94
  -7  -6   2   14.79   10.49
  -7  -6  -2   11.70   21.34
  -6  -7   2    9.83   14.86
  -6  -7  -2   19.15   20.58
  -6  -7   2  -10.46   19.44
  -6  -7  -2    3.79   10.31
  -7  -6   3   38.12   25.96
  -7  -6  -3   27.71   18.81
  -7  -6   3   25.07   26.62
  -7  -6  -3   49.00   33.44
  -6  -7   3    7.24   17.87
  -6  -7  -3   46.40   30.96
  -6  -7   3   24.38   15.34
  -6  -7  -3   15.95   19.55
  -7  -6   4   23.97   17.68
  -7  -6  -4   25.91   14.57
  -6  -7   4   49.00   29.80
  -7  -6   4   11.81   16.63
  -7  -6  -4   27.73   26.47
  -6  -7   4   26.25   23.94
  -6  -7  -4   32.45   24.70
  -6  -7  -4   -7.50   14.55
  -7  -6   5   12.53   19.14
  -7  -6  -5   18.53   14.13
  -7  -6   5  -14.62   17.31
  -7  -6  -5   26.24   22.06
  -6  -7   5   17.20   21.96
  -6  -7  -5   33.94   27.43
  -6  -7   5    6.67    8.00
  -6  -7  -5   -5.59   10.45
  -7  -6   6   25.27   17.76
  -7  -6  -6   42.93   17.58
  -7  -6   6   36.27   31.07
  -7  -6  -6    8.08   20.15
  -6  -7   6   31.88   23.73
  -6  -7  -6   31.38   22.39
  -6  -7   6   35.06   28.80
  -6  -7  -6   25.94   15.61
  -7  -6   7   17.09   15.31
  -7  -6   7  -27.86   22.54
  -7  -6  -7   -3.27   14.86
  -6  -7   7   19.01   20.10
  -6  -7  -7   24.25   23.20
  -6  -7   7   -4.80   14.89
  -6  -7  -7    8.45   10.01
  -7  -6   8   -3.12    9.18
  -7  -6   8   -6.59   16.47
  -7  -6  -8   17.39   18.43
  -6  -7   8    7.78   17.10
  -6  -7  -8   -0.67    9.20
  -6  -7   8  -21.31   19.91
  -7  -6   9   -0.76    5.22
  -7  -6   9   -2.31    5.45
  -7  -6  -9   -0.11    2.71
  -6  -7   9    5.50    8.17
  -6  -7  -9    1.90    4.26
  -7  -6  10  -22.26   19.27
  -7  -6  10   -8.70   15.36
  -7  -6 -10   -3.24    3.04
  -6  -7  10  -23.82   18.85
  -6  -7 -10   11.15   15.46
  -6  -7  10   13.25   14.20
  -7  -6  11    2.24    5.99
  -7  -6  11  -14.35   14.49
  -7  -6 -11   -1.25    9.20
  -6  -7  11  -15.79   15.01
  -6  -7 -11   -2.61    6.36
  -6  -7  11    6.60    6.95
  -7  -6  12    5.63   12.44
  -7  -6  12   -2.24    6.50
  -7  -6 -12   -1.48    8.89
  -6  -7  12  -20.77   16.89
  -6  -7 -12    2.01   10.59
  -6  -7  12   19.50   18.09
  -7  -6  13    6.70   11.18
  -7  -6 -13  -14.19    9.37
  -6  -7  13   -6.66   13.06
  -6  -7 -13   -3.38    7.31
  -7  -6  14    2.87    8.47
  -7  -6 -14    0.54    8.27
  -6  -7  14   -2.76    7.87
  -6  -7 -14   -4.95    8.71
  -7  -6  15    7.54    7.82
  -6  -7  15   -4.51    7.69
  -7  -7   0   11.18   13.77
  -7  -7   0    0.22   11.75
  -7  -7   1    9.95   13.04
  -7  -7  -1    0.89    3.80
  -7  -7   1   12.14   20.86
  -7  -7  -1   22.68   26.44
  -7  -7   2    6.30    8.16
  -7  -7  -2   -5.54   10.11
  -7  -7   2    4.35   10.43
  -7  -7  -2  -10.21   14.45
  -7  -7   3    4.24    7.48
  -7  -7  -3   12.59   12.21
  -7  -7   3    9.42    9.16
  -7  -7   4   -4.19   10.09
  -7  -7  -4    9.29   10.32
  -7  -7   4   10.34   14.75
  -7  -7   5   -7.01   21.39
  -7  -7   5   -0.76   13.97
  -7  -7   6  -29.02   23.91
  -7  -7   6    0.43   10.27
  -7  -7   7    3.98    2.59
  -7  -7   7    6.67   13.95
  -7  -7   8    2.95    9.82
  -7  -7   9   11.03   15.20
  -7  -7  10   -4.30    8.43
  -7  -7  11    7.79   13.80
  -7  -7  12   12.75   18.79
  -7  -7  13   10.90   10.32
  -7  -7  14   -5.09    5.55
   0   8   0  605.10  157.48
   8   0   0  252.04   77.90
   0   8   1   81.89   68.41
   0   8  -1   15.73   37.20
   8   0   1   28.82   37.14
   8   0  -1   13.11   26.03
   0   8   2  333.19  111.51
   0   8  -2  223.27   87.25
   8   0   2  177.15   69.21
   8   0  -2  158.58   64.74
   0   8   3   28.46   45.71
   0   8  -3    2.04   23.92
   0   8  -3   19.82   10.96
   8   0   3  -16.82   15.54
   8   0  -3   18.51   17.10
   0   8   4   38.82   40.80
   0   8  -4   -4.63   17.47
   0   8  -4    3.25    4.21
   8   0   4   -9.25   19.38
   8   0  -4  -11.05   11.39
   0   8   5    2.12   15.55
   0   8  -5   -1.33   18.49
   0   8  -5   -5.04    5.02
   8   0   5   -7.90   15.48
   8   0  -5   -5.79   19.87
   0   8   6    1.00   23.54
   0   8  -6   -8.61   20.63
   0   8  -6   22.42   11.67
   8   0   6  -17.74   19.09
   8   0  -6   11.34   20.91
   8   0  -7    2.22   11.48
   0   8   7    4.97   11.94
   0   8  -7   -7.11   16.41
   0   8  -7    5.70    5.54
   8   0   7  -22.64   23.77
   8   0   8   18.97   23.37
   8   0  -8   13.30   16.44
   0   8   8    0.65    8.38
   0   8  -8   28.14   23.06
   0   8  -8    6.69    3.59
   8   0   9   12.53   12.44
   8   0  -9    6.33   18.95
   0   8   9    8.49   12.00
   0   8  -9    0.38    7.30
   0   8  -9   21.17   13.72
   8   0  10   40.36   27.39
   8   0 -10   17.64   14.96
   0   8  10    2.31    3.94
   0   8 -10   12.09   10.59
   0   8 -10   37.39   18.15
   8   0  11   -1.59    6.02
   8   0 -11   10.21   12.34
   0   8  11    8.91   14.79
   0   8 -11   -6.83    8.51
   0   8 -11   10.53    9.39
   8   0  12   39.56   21.54
   8   0 -12   14.63    9.54
   0   8  12   43.46   24.62
   0   8 -12    5.10    7.62
   0   8 -12   23.15   12.94
   8   0  13    4.92    4.89
   8   0 -13   -5.30   19.32
   0   8  13    6.08    4.30
   0   8 -13    0.63   10.31
   0   8 -13   -2.74    6.54
   8   0  14  -26.28   18.53
   8   0 -14   -5.15    5.65
   0   8  14  -12.71   15.92
   0   8 -14   -2.12    1.86
   0   8 -14    0.47    9.00
   8   0  15   12.20   12.48
   8   0 -15   23.88   23.22
   0   8  15  -10.02   10.62
   0   8 -15   -1.39    7.31
   0   8 -15  -22.32   15.64
   8   0 -16   78.59   24.83
   8   0  16   36.67   20.63
   8   0 -16   77.24   33.67
   0   8  16   52.91   26.77
   0   8 -16   50.60   19.75
   0   8 -16   60.30   27.56
   8   0 -17   21.81   15.16
   8   0  17   10.80   13.39
   8   0 -17   10.15   12.92
   0   8  17   -1.18    7.47
   0   8 -17    4.82    7.49
   0   8 -17   17.72   16.91
   8   0 -18   57.99   24.11
   0   8  18   47.07   22.15
   0   8 -18   47.39   20.99
   8   0  18   47.33   22.14
   8   0 -18   52.59   29.41
   0   8 -18   42.76   23.16
   8   0 -19   24.92   16.25
   0   8  19    2.51    7.19
   0   8 -19    8.72   12.95
   8   0  19    1.85    9.69
   8   0 -19   12.56   17.14
   8   1   0  -22.51   22.57
   1   8   0   -2.17   25.16
  -1   8   0    8.47    8.13
   8   1   1   21.36   16.46
   8   1  -1   41.58   24.19
   1   8   1   90.16   50.20
   1   8  -1   88.83   58.22
  -1   8  -1   89.87   19.31
  -8  -1   2   -8.84   16.16
   8   1   2   35.02   27.03
   8   1  -2   39.96   25.84
   1   8   2   36.76   49.65
   1   8  -2   80.03   47.05
  -1   8  -2   59.03   16.19
  -8  -1   3  -37.12   20.87
   8   1   3    4.54    9.32
   8   1  -3  -52.42   33.06
   1   8   3    1.31   20.41
   1   8  -3   30.26   40.58
  -1   8  -3    3.03    5.53
  -8  -1   4   24.45    7.43
   8   1   4   13.90   11.95
   8   1  -4   17.06    9.44
   1   8  -4   53.35   38.63
  -1   8  -4   46.29   15.75
  -8  -1   5   -4.72   11.98
   8   1   5   31.55   20.96
   8   1  -5   13.99   11.10
   1   8   5  -16.98   25.09
   1   8  -5    0.16   14.68
  -1   8  -5   11.66    8.62
  -8  -1   6    0.02   14.25
   8   1   6   -5.97   16.12
   8   1  -6   -7.14   17.54
   1   8   6    9.12   15.84
   1   8  -6    2.94   14.49
   8  -1   6    5.31   11.61
   8  -1  -6   18.99   24.25
  -1   8  -6   -7.00    7.79
  -8  -1   7   13.10   12.71
   8   1   7   38.44   27.81
   8   1  -7    4.21   16.58
   1   8   7   19.65   22.22
   1   8  -7   -7.38    5.28
   1   8  -7   25.33   13.13
   8  -1   7   39.60   26.07
   8  -1  -7    9.59   10.27
  -8  -1   8   -7.41   14.01
   8   1   8  -13.43   20.94
   8   1  -8   13.28   18.90
   1   8   8    3.21   15.71
   1   8  -8   13.86   12.64
   1   8  -8   -0.71    5.31
   8  -1   8   -5.73    5.75
   8  -1  -8   16.36   20.64
  -1   8  -8   -9.15    5.55
  -8  -1   9   -0.88   16.95
   8   1   9    1.77    8.94
   8   1  -9   -1.55    7.58
   1   8   9  -25.70   20.24
   1   8  -9   -7.84    9.72
   1   8  -9   17.45   11.33
   8  -1   9   28.88   21.77
   8  -1  -9   24.97   25.31
  -1   8  -9   22.79   13.43
  -8  -1  10  -14.63   15.16
   8   1  10   -2.45    3.15
   1   8  10   -3.77    9.32
   1   8 -10    2.78   12.38
   8   1 -10   -2.99    8.19
   1   8 -10    3.34    9.38
   8  -1  10   -5.84    8.60
   8  -1 -10    0.61    6.38
  -1   8 -10   10.54   11.01
  -8  -1  11    0.20   12.79
   1   8  11   22.94    8.46
   1   8 -11   10.48   13.41
   8   1  11   39.67   23.19
   8   1 -11   40.68   26.99
  -1   8  11    9.61   20.48
  -1   8 -11    9.60   10.12
   1   8 -11   26.99   15.30
   8  -1  11   -9.18   15.14
   8  -1 -11   17.64   15.53
  -1   8 -11   29.70   18.55
  -8  -1  12  -11.70   22.26
   1   8  12    0.11    7.91
   1   8 -12   -5.51   10.25
   8   1  12   27.32   22.81
   8   1 -12   12.52   17.40
  -1   8  12    9.14   11.38
  -1   8 -12    5.01    8.66
   1   8 -12   21.59   14.40
   8  -1  12  -11.13   12.66
   8  -1 -12    8.74   15.63
  -1   8 -12   34.56   19.73
   8  -1 -13   21.26   13.59
  -8  -1  13  -29.88   22.73
   1   8  13    4.96    8.19
   1   8 -13   14.01   11.53
  -1   8  13   23.38   19.48
  -1   8 -13    9.45    9.90
   8   1  13   23.53   22.50
   8   1 -13   26.19   19.81
   1   8 -13   25.00   16.33
   8  -1  13    6.65   13.53
   8  -1 -13   14.94    4.05
  -1   8 -13   19.38   18.47
   8  -1 -14   28.47   15.27
  -8  -1  14  -55.66   31.29
   1   8  14   22.48   16.15
   1   8 -14   27.55   17.39
  -1   8  14   20.82   18.24
  -1   8 -14   10.01   10.35
   8   1  14   48.91   28.60
   8   1 -14   50.80   27.91
   1   8 -14   31.20   18.63
   8  -1  14   23.81   17.79
   8  -1 -14   33.79   23.07
  -1   8 -14   37.24   22.61
   8  -1 -15   22.24   15.03
   1   8  15  -10.91   14.41
   1   8 -15   -3.37    2.90
  -1   8  15   11.80   12.22
  -1   8 -15   -4.40    8.03
   8   1  15   18.85   17.52
   1   8 -15   12.01   13.56
   8   1 -15    6.93    7.59
   8  -1  15   14.06   12.82
   8  -1 -15   -9.17   16.20
  -1   8 -15   -1.60    6.84
   8  -1 -16   -8.80    8.48
   8  -1 -16   17.69   10.17
   1   8  16    7.43   12.18
   1   8 -16   13.07   11.18
  -1   8  16   -4.57    4.83
  -1   8 -16    4.14    1.45
   1   8 -16   15.67   14.06
   8   1  16   22.53   16.98
   8   1 -16    3.73    7.43
  -1   8 -16   -7.38   15.78
   8  -1  16    3.54    4.12
   8   1 -17   37.42   25.78
   8  -1  17    4.26    1.69
   8  -1 -17    7.10    9.28
   8  -1 -17   29.52   15.88
  -8  -1  17  -22.94   28.76
   1   8  17   11.45   14.22
   1   8 -17   20.39   14.06
  -1   8  17    8.37   13.40
  -1   8 -17    3.62    5.97
   1   8 -17    3.86    3.54
   8   1  17   11.79   13.46
  -1   8 -17  -11.93   15.37
   8   1  18  -26.57   16.79
   8  -1  18   -4.49   10.51
   8   1 -18   -3.01    7.75
   8  -1 -18   16.37   13.25
   8  -1 -18    1.83   16.44
  -8  -1  18  -45.07   28.26
   1   8  18  -15.54   12.36
   1   8 -18   -4.24    6.84
  -1   8  18    2.17    4.48
  -1   8 -18   -3.31    7.00
   1   8 -18  -24.59   18.01
  -1   8 -18   -5.85   14.60
   8   1  19   -2.93    8.45
   8  -1 -19   14.57   13.10
   8  -1  19    1.64    4.80
   8  -1 -19    2.79    6.36
   8   1 -19    0.02    1.66
   1   8  19    7.03    9.84
   1   8 -19    1.17    2.37
  -1   8  19   -1.30    2.26
  -1   8 -19    0.57    5.49
   2   8   0    0.18   23.68
   8   2   0   31.97   25.38
  -2   8   0    3.31    2.66
  -8  -2   1   24.65   16.34
  -8  -2  -1   11.88    8.46
   2   8   1   26.42   32.03
   2   8  -1    6.94    6.80
   8   2   1   14.56   19.89
   8   2  -1    1.71    9.18
  -2   8  -1   34.14   10.88
  -8  -2   2   15.74   16.54
  -8  -2  -2   -5.53   10.98
   2   8   2  -15.27   20.50
   2   8  -2   32.10   34.36
   8   2   2   10.04   24.70
   8   2  -2   -1.85   24.99
  -2   8  -2   23.64   11.46
  -8  -2  -3  105.23   30.58
   2   8   3  216.05   78.78
   2   8  -3  161.21   70.16
  -2   8  -3  153.13   29.19
   8   2   3  103.93   58.64
   8   2  -3   91.35   43.86
  -8  -2   3  180.20   41.66
  -8  -2   4   93.38   32.81
  -8  -2  -4   17.76   10.01
   2   8   4  110.47   53.70
   2   8  -4  100.37   55.81
   8   2   4   59.67   40.52
   8   2  -4   83.59   42.06
  -2   8  -4   99.16   23.84
  -8  -2   5  148.28   39.08
   2   8   5   99.97   51.98
   2   8  -5   90.70   46.17
   8   2   5  121.50   52.40
   8   2  -5  103.05   46.85
  -2   8  -5   99.00   24.29
  -2   8  -6   32.53   16.87
  -8  -2   6   54.81   26.25
   2   8   6   40.25   34.88
   2   8  -6   19.81   23.17
   8   2   6   29.40   24.57
   8   2  -6   33.65   28.75
  -2   8  -7   31.57   16.29
  -8  -2   7   47.61   24.85
   2   8   7   12.35   23.79
   2   8  -7   23.48   23.68
   8   2   7    9.72   19.35
   8   2  -7   40.83   27.71
  -2   8  -8    7.37    8.16
  -8  -2   8   12.96   14.97
   2   8   8   -5.26    3.00
   2   8  -8    2.26    8.33
   8   2   8   -7.33   16.34
   8   2  -8    0.51   11.84
   8   2  -9    9.74   13.95
  -2   8  -9    0.28    9.07
  -8  -2   9    0.94    3.58
   2   8   9    2.11   14.69
   2   8  -9   12.90   13.02
   8   2   9   -6.73    3.98
   8   2  10    7.91   17.91
   8   2 -10   15.73   17.70
  -2   8 -10   15.80   14.64
  -8  -2  10   12.32   15.97
   2   8  10   19.11   16.94
   2   8 -10    3.98    5.50
   8   2  11   15.81   16.08
  -2   8 -11   26.69   18.54
   8   2 -11   10.03   12.65
  -8  -2  11   12.68   11.79
   2   8  11   39.81   22.45
   2   8 -11   17.75   15.43
   8  -2 -12   29.59   14.25
  -2   8 -12   26.34   17.70
   8   2  12   42.94   24.40
  -8  -2  12   27.90   19.84
   8   2 -12   33.75   28.03
   2   8  12   56.50   28.50
   2   8 -12   23.51   17.01
   2   8 -12   42.50   20.28
   8  -2 -13   82.82   22.61
  -2   8 -13   64.49   27.78
  -8  -2  13   72.86   31.97
   8   2  13   51.10   28.77
   8   2 -13   88.79   36.07
   2   8  13   46.85   23.98
   2   8 -13   55.94   24.91
   2   8 -13   83.97   29.48
   8  -2 -14   22.68   15.22
  -2   8 -14   17.85   18.49
  -8  -2  14   47.85   25.88
   8   2  14   29.02   22.09
   8   2 -14   11.43   13.51
   2   8  14   31.28   21.60
   2   8 -14   25.44   18.78
   2   8 -14   38.95   22.32
  -2   8 -15   47.04   24.71
   8  -2 -15   63.62   21.46
  -8  -2  15   84.58   34.64
   8   2  15   28.76   22.42
   2   8  15   75.86   30.58
   2   8 -15   58.25   26.10
   8   2 -15   40.94   23.92
   2   8 -15   48.80   22.08
   8  -2 -15   82.92   34.17
  -2   8 -16   17.71   13.88
   8  -2 -16    6.55    7.75
  -8  -2  16    6.79   12.39
   2   8  16    0.89    4.11
   2   8 -16   -1.08    4.27
   8   2  16   -2.26    5.20
   8   2 -16   -2.92   11.81
   2   8 -16   24.21   19.03
   8  -2  16    1.50    5.53
   8  -2 -16   10.28    9.20
  -2   8 -17   12.68   12.94
   8  -2 -17   16.85   12.56
  -8  -2  17   25.28   18.83
   2   8  17   13.13   11.98
   2   8 -17   10.80   10.22
  -2   8  17   -4.30   12.55
   2   8 -17   12.81   15.09
   8   2  17    4.64    7.77
   8  -2  17   -5.04    7.48
   8   2 -17   -2.85    6.40
   8  -2 -17   11.99   12.95
   8   2 -18    4.29    4.36
  -2   8 -18    0.68    1.23
  -8  -2  18   15.86   14.74
   8  -2 -18   11.68   10.12
   2   8  18   -7.01    9.11
   2   8 -18   -6.08    8.44
  -2   8  18  -18.34   14.98
  -2   8 -18    4.08    5.94
   8  -2  18   -1.22    8.89
   8   2  18    7.19   11.80
   8  -2 -18   -4.78    7.69
   8   2  19   -2.39    5.46
   8  -2 -19   12.37   11.76
   8   2 -19    8.35   10.96
   2   8 -19    2.62    5.44
  -2   8 -19    5.43    4.28
   8  -2  19    8.91    9.49
   8  -2 -19   28.40   20.80
  -8  -3   0   19.93   14.14
   8   3   0   34.05   40.56
   3   8   0   66.51   47.33
  -3  -8   0   32.39   27.51
  -8  -3   1   80.43   26.47
  -8  -3  -1  102.44   27.39
   8   3   1   33.03   28.59
   8   3  -1   44.12   34.39
   3   8   1   71.92   45.71
   3   8  -1  106.81   56.11
  -3  -8  -1   46.21   29.79
  -3  -8   1   83.29   41.02
  -3   8  -2   54.05   18.13
  -8  -3   2   60.68   24.09
  -8  -3  -2   53.01   19.57
   8   3   2   80.46   46.36
   8   3  -2   30.97   24.93
   3   8   2   46.67   28.11
   3   8  -2   39.30   37.51
  -3  -8  -2   62.03   40.38
  -3  -8   2   69.74   36.70
  -3   8  -3   18.92   12.09
  -8  -3   3    3.01    7.16
  -8  -3  -3   19.79   12.68
   8   3   3   14.61   25.29
   3   8   3    5.91   29.81
   3   8  -3   17.55   26.62
   8   3  -3    1.21   13.20
  -3  -8  -3   14.56   21.50
  -3  -8   3    8.58   22.49
  -8  -3   4   55.57   23.49
  -3   8  -4   46.10   17.29
  -8  -3  -4   48.33   19.12
   3   8   4   10.25   19.61
   3   8  -4   22.93    7.73
   8   3   4   47.34   35.32
   8   3  -4   52.47   32.73
  -3  -8  -4   43.66   32.88
  -3  -8   4   41.39   25.72
  -8  -3   5    3.45    6.52
  -3   8  -5    7.49    5.58
  -8  -3  -5    6.63    7.26
   3   8   5   18.48   21.95
   3   8  -5    3.92   14.87
   8   3   5   24.56   30.44
   8   3  -5   19.38   14.63
  -3  -8  -5   29.06   27.11
  -3  -8   5   11.22   16.72
  -8  -3   6   17.60   15.19
  -3   8  -6    8.88    7.38
  -8  -3  -6    2.35    4.88
   3   8   6    8.47    1.69
   3   8  -6  -20.81   30.78
   8   3   6   10.24   15.90
   8   3  -6    8.30    4.44
  -3  -8  -6   15.00   18.23
  -8  -3   7    8.07   10.24
  -3   8  -7    1.45    8.59
  -8  -3  -7  -14.63   15.08
   3   8   7   -1.03   14.44
   3   8  -7    8.20   17.08
   8   3   7   33.62   32.15
   8   3  -7    7.02   20.37
  -3  -8  -7    7.55    9.21
  -8  -3   8   14.85   14.23
  -3   8  -8    8.52    7.89
   3   8   8   -4.00   12.71
   3   8  -8   16.27   17.89
   8   3   8  -21.08   20.32
   8   3  -8    5.68   15.93
  -3  -8  -8    4.26   12.01
  -8  -3   9   19.55   18.07
  -3   8  -9   -3.60    3.67
   3   8   9  -11.10   17.47
   3   8  -9   17.64   15.04
   8   3   9  -14.75   22.98
   8   3  -9    3.78    6.62
  -8  -3  10   -2.91    3.94
  -3   8 -10   -6.20    4.22
   3   8  10   -2.02    2.65
   3   8 -10   -0.11    7.42
   8   3  10   12.24   21.50
   8   3 -10   16.73   16.62
   8   3 -11    6.03   14.10
   8  -3 -11   10.83    8.78
  -8  -3  11    7.69    8.80
  -3   8 -11   -0.19    1.71
   3   8  11   12.68    8.98
   3   8 -11   -2.38    4.10
   8   3  11   23.80   21.43
   8   3  12   22.22   19.66
   8  -3 -12   12.82    8.33
  -8  -3  12    6.33    8.90
   8   3 -12   -1.04    6.97
  -3   8 -12   -3.72    6.79
   3   8  12   -5.30    3.97
   3   8 -12    5.11    6.94
  -8  -3  13    5.01   17.46
   8  -3 -13    2.10    7.65
   8   3  13    0.91    8.66
  -3   8 -13    0.02    3.53
   8   3 -13   12.50   11.94
   3   8  13   13.59   12.39
   3   8 -13   -5.02   12.95
  -8  -3  14   21.57   22.32
   8  -3 -14   18.41   11.29
  -3   8 -14   20.72   13.97
   8   3  14   21.74   15.63
   3   8  14    9.30   11.03
   3   8 -14    1.31    6.21
   8   3 -14   24.55   21.24
  -8  -3  15   12.99   15.23
   8  -3 -15    8.63    8.32
  -3   8 -15  -13.98   12.21
   3   8  15   -8.23   10.11
   3   8 -15   -0.28    1.87
   8   3  15   -5.86    8.87
   8   3 -15    8.45   14.22
  -8  -3  16   21.17   15.93
   8  -3 -16   -0.75    3.33
   8   3 -16   12.93   16.41
  -3   8 -16   14.55   15.22
   3   8  16    1.44    2.19
   3   8 -16    4.60    6.13
   8   3  16    4.24   15.10
   8  -3 -17   14.24   11.68
  -3   8 -17   12.10   16.27
   8   3  17    9.23    8.48
   3   8  17   -8.46   14.07
   3   8 -17    4.66    6.73
   8   3 -17   21.44   20.99
   8   3  18   -3.48    7.76
   8  -3 -18   21.84   14.09
   3   8  18   23.26   20.23
   3   8 -18   11.15    7.36
   8   3 -18   39.84   27.71
   8   3  19   36.70   23.82
   8  -3 -19   19.57   16.41
  -8  -3 -20    5.34   11.02
  -8  -3 -21   -1.14    3.50
   4   8   0  122.45   62.69
   8   4   0  223.06   79.50
  -4  -8   0  148.58   56.15
  -8  -4   0  255.11   45.77
  -8  -4   1   38.82   21.27
  -8  -4  -1   36.35   18.08
   4   8   1   12.09   22.91
   4   8  -1    7.03   33.57
   8   4   1   15.84   31.26
   8   4  -1   23.80   39.89
  -4  -8  -1   26.10   29.39
  -4  -8   1   25.80   25.35
  -8  -4   2  110.18   31.86
  -8  -4  -2   96.80   26.66
   4   8   2   56.84   41.45
   4   8  -2  100.89   62.28
   8   4   2  115.82   59.16
   8   4  -2   73.92   47.73
  -4  -8  -2  129.09   52.51
  -4  -8   2  133.41   51.79
  -8  -4   3    9.14   12.31
  -8  -4  -3   13.95   10.49
   4   8   3    1.68   19.01
   4   8  -3   -6.81   13.50
   8   4   3   18.92   30.97
   8   4  -3   13.23   24.66
  -4  -8  -3    4.47    6.52
  -4  -8   3    7.47   16.35
  -8  -4   4   -7.97    7.72
  -8  -4  -4    9.30   10.63
  -4   8  -4   -5.97    8.98
   4   8   4   15.77   15.29
   4   8  -4  -29.00   34.74
   8   4   4   27.83   33.31
   8   4  -4   14.20   14.55
  -4  -8  -4  -10.65   19.37
  -4  -8   4    2.43    3.62
  -8  -4   5    2.30    8.49
  -8  -4  -5   -2.74    1.27
  -4   8  -5    3.07    7.19
   4   8   5   12.90   16.61
   4   8  -5  -30.12   35.74
   8   4   5   21.30   23.51
   8   4  -5   -8.28   15.24
  -4  -8  -5    3.96    6.85
  -4  -8   5   -8.03   13.33
   8   4  -6   21.53   19.97
  -8  -4   6   12.94   11.29
  -8  -4  -6   10.53    8.97
  -4   8  -6    1.23    4.06
   4   8   6   -4.03    4.72
   4   8  -6  -16.35   20.69
  -4  -8  -6   13.28   18.91
  -4  -8   6   13.48   17.31
   8   4   6   -2.61    9.32
   8   4   7   -4.83   13.77
  -8  -4   7   -0.35    4.98
   8   4  -7  -17.54   19.42
  -4   8  -7    0.87    9.31
   4   8   7   12.41   15.92
   4   8  -7   -0.78   13.94
  -4  -8  -7  -31.73   24.15
  -4  -8   7   15.29   19.82
  -8  -4   8   10.82   14.80
   8   4   8   13.72   20.23
   4   8   8    8.64    4.85
   4   8  -8  -30.00   31.23
  -4   8  -8   -5.01   11.54
   8   4  -8   12.19    9.63
  -4  -8  -8   18.47   16.74
  -4  -8   8    8.86   11.20
  -8  -4   9   -6.06   11.77
   4   8   9    7.51   13.86
   4   8  -9  -23.26   10.24
  -4   8  -9  -17.65   14.15
   8   4   9   -2.96   10.65
   8   4  -9   -5.52    6.91
  -4  -8  -9    1.93    6.51
  -4  -8   9   10.68   13.11
  -8  -4  10   16.16   14.30
   8   4 -10   44.01   29.25
   4   8  10    5.83   22.06
   4   8 -10   28.87   18.62
  -4   8 -10    4.35   10.90
   8   4  10   10.42   17.48
  -4  -8 -10    9.93   15.20
  -4  -8  10   30.06   23.30
  -8  -4  11   14.74   15.04
   8   4  11   12.63   16.38
   4   8  11    9.03   19.37
   4   8 -11    9.96   19.53
  -4   8 -11  -16.46   20.43
   8   4 -11   12.54   15.78
  -4  -8 -11   13.22   23.03
  -4  -8  11    4.39    3.66
   8   4  12    4.70    4.72
  -8  -4  12   14.03   13.18
   8  -4 -12    9.60    8.64
   4   8  12   17.46   16.54
   4   8 -12   22.01   18.65
  -4   8 -12   14.07    9.17
   8   4 -12   36.70   25.75
  -4  -8 -12   11.30   12.85
  -4  -8  12   12.68   16.05
  -8  -4  13    2.91   15.18
   8  -4 -13    1.55    2.96
   4   8  13   18.96   19.01
   4   8 -13    1.73    8.22
  -4   8 -13    0.05    8.72
   8   4  13  -18.68   17.34
  -4  -8 -13   19.55   21.25
  -8  -4  14    1.91    7.08
   8  -4 -14    7.20    6.79
   4   8  14    0.81    4.11
   4   8 -14   -5.07    4.79
  -4   8 -14   -5.78   12.83
  -8  -4 -14   21.84   20.58
  -4  -8 -14   26.50   22.30
   8  -4 -15    4.95    8.92
   4   8  15    9.21   18.00
   4   8 -15    5.05   10.85
  -4   8 -15   12.84   17.31
  -8  -4 -15   12.99   11.73
  -4  -8 -15    9.84   17.78
   8  -4 -16   28.78   15.48
   4   8  16   38.41   27.15
   4   8 -16   32.55   23.04
  -4   8 -16   99.49   42.69
  -8  -4 -16   46.48   26.34
   8  -4 -17   25.33   16.32
   4   8  17   13.46   15.08
   4   8 -17   28.17   22.50
  -8  -4 -17   16.77   15.74
   8  -4 -18   37.81   18.16
   4   8  18   32.62   21.99
   4   8 -18   45.50   24.37
  -8  -4 -18   21.25   19.17
   8  -4 -19   18.97   13.42
  -8  -5   0    4.21    8.54
   5   8   0   40.53   40.89
  -5  -8   0    4.80   17.85
  -8  -5   1    7.30    8.95
  -8  -5  -1    7.29    6.66
   5   8   1   41.94   43.49
   5   8  -1   25.84   28.58
  -5  -8  -1    5.28   12.55
  -5  -8   1   18.49   23.58
  -8  -5   2   10.70    9.60
  -8  -5  -2    6.29    9.23
   5   8   2    4.28   12.58
   5   8  -2   45.39   50.51
  -5  -8  -2    6.35    8.89
  -5  -8   2    2.97   11.43
  -8  -5   3   -7.05    6.23
  -8  -5  -3    5.06    4.91
   5   8   3   13.86   21.53
   5   8  -3   10.50   34.83
  -5  -8  -3   -1.57   11.02
  -5  -8   3   15.08   15.49
  -8  -5   4    5.91    7.18
  -8  -5  -4   19.22   12.96
   5   8   4   10.43   23.09
   5   8  -4    1.82   18.46
  -5  -8  -4   31.50   28.53
  -5  -8   4   25.76   26.04
  -8  -5   5   -4.34   10.87
  -8  -5  -5    9.28   11.09
   5   8   5   12.25   24.29
   5   8  -5    7.34   10.98
  -8  -5  -5   14.76   19.54
  -5  -8  -5   12.02    7.76
  -5  -8   5   29.47   26.65
  -8  -5   6  -33.60   21.13
   5   8   6   23.93   26.22
   5   8  -6    4.54   12.88
  -8  -5  -6    1.61   14.62
  -5  -8  -6    8.23   14.81
  -5  -8   6   -1.58    7.22
  -8  -5   7   16.09    5.59
   5   8   7   38.17   31.66
   5   8  -7    7.98    6.20
  -5   8  -7    2.02   11.97
  -8  -5  -7    8.81   15.78
  -5  -8  -7   11.49   10.59
  -5  -8   7    6.15    2.14
  -8  -5   8   -8.10   15.68
   5   8   8    2.72    6.38
   5   8  -8   26.61   21.80
  -5   8  -8  -37.99   24.24
  -8  -5  -8   -5.06   26.25
  -5  -8  -8   -0.71    3.64
  -5  -8   8  -33.98   23.60
  -8  -5   9   21.34   12.86
   5   8   9   10.53   16.79
   5   8  -9   54.91   38.80
  -8  -5   9   16.16   16.23
  -8  -5  -9   -0.16    8.55
  -5  -8  -9   27.98   23.10
  -5  -8   9   14.99   16.89
  -8  -5  10    4.02    5.75
   5   8  10   -1.12    5.61
   5   8 -10   -8.82    3.41
  -5   8 -10   -3.18   16.51
  -8  -5  10    2.72   11.88
  -8  -5 -10   -4.22    8.02
  -5  -8 -10    0.64   11.34
  -5  -8  10    9.88   11.19
  -8  -5  11   17.38   19.42
   5   8  11   11.23   16.25
   5   8 -11   18.28   21.41
  -5   8 -11   28.00   19.16
  -8  -5  11   15.66   23.47
  -8  -5 -11   17.72   24.05
  -5  -8 -11   13.99   13.15
  -5  -8  11   11.57   14.34
   5   8  12   -5.32    9.68
   5   8 -12   34.96   31.46
  -5   8 -12   -0.23    8.58
  -8  -5  12   14.33   19.48
  -8  -5 -12    5.30   11.10
  -5  -8  12   -5.63    8.97
   5   8  13  -15.06   15.98
   5   8 -13   14.04   16.31
  -5   8 -13   11.85   20.98
  -8  -5  13   15.78   16.44
  -5  -8  13   15.53   10.08
  -5   8 -14   43.54   29.09
  -8  -5  14   18.99   17.27
  -5  -8  14   36.75   23.89
  -8  -5  15    4.73   15.95
  -8  -6   0    8.94   12.03
  -6  -8   0   18.20   18.18
  -6  -8   0  -30.51   24.30
  -8  -6   1    3.92   14.74
  -8  -6  -1   25.90   16.76
  -6  -8   1    7.84   15.78
  -6  -8   1  -32.06   25.53
  -6  -8  -1  -21.78   23.89
  -8  -6   2   17.60   22.58
  -8  -6  -2   -5.78   10.65
  -8  -6   2  -20.66   23.23
  -6  -8   2   16.87   18.79
  -6  -8   2  -13.88   18.65
  -6  -8  -2   -1.95    4.82
  -8  -6   3   58.13   29.52
  -8  -6  -3   30.37   16.46
  -8  -6   3    7.86   12.34
  -6  -8   3    6.41    7.65
  -6  -8   3   30.12   25.73
  -6  -8  -3   21.58   14.86
  -8  -6   4   23.32   23.29
  -8  -6   4    6.88   20.41
  -6  -8   4    1.74    9.12
  -6  -8   4    4.28   12.60
  -6  -8  -4   13.76   13.97
  -8  -6   5   33.99   24.51
  -8  -6   5   21.00   21.48
  -6  -8   5   34.60   27.39
  -6  -8   5   33.95   29.03
  -6  -8  -5   22.83   14.98
  -8  -6   6   10.74   22.49
  -8  -6   6   -7.69   13.16
  -6  -8   6   23.78   23.09
  -6  -8   6   -3.49    8.02
  -8  -6   7   31.07   22.83
  -8  -6   7  -10.14   13.73
  -6  -8   7   17.61   22.01
  -8  -6   8    3.01   12.05
  -6  -8   8   17.35   19.33
  -8  -6   9    5.63   16.67
  -6  -8   9   18.98   18.23
  -8  -6  10   11.84   16.56
  -6  -8  10   19.58   19.11
  -8  -6  11   -2.72    6.63
  -6  -8  11    8.09   11.55
  -6  -8  12    3.46    7.12
  -6  -8  13   15.62    9.48
  -8  -7   0   31.76   23.34
  -7  -8   0   -1.21    3.10
  -8  -7   1   39.96   24.41
  -8  -7  -1   37.20   22.43
  -7  -8   1   20.15   17.40
  -7  -8  -1    7.33    8.13
  -8  -7  -2   24.77   16.52
  -7  -8  -2    2.40   10.62
   9   0   0  -14.64   17.09
   0   9   0   18.48   51.29
   9   0   1   -2.51   16.61
   9   0  -1    5.85    4.55
   0   9   1    6.84   31.77
   0   9  -1  -25.76   19.14
   9   0   2    6.31   15.19
   9   0  -2   23.07   11.99
   0   9   2    5.07   36.82
   0   9  -2   29.04   36.73
   9   0   3   11.97   35.68
   9   0  -3   11.95   17.25
   0   9   3  -13.79   32.95
   0   9  -3   10.71   16.51
   9   0   4   -1.15   15.73
   9   0  -4   15.32   16.28
   0   9   4   34.30   36.42
   0   9  -4    4.50   11.19
   9   0   5   24.52   26.68
   9   0  -5   21.84   23.65
   0   9   5   23.97   40.91
   0   9  -5   22.33   29.03
   0   9  -5   29.48   13.74
   9   0   6    8.71   11.68
   9   0  -6    7.66   26.59
   0   9   6   12.34   24.52
   0   9  -6    1.78   14.22
   0   9  -6   11.73   10.39
   9   0   7   17.22   23.81
   9   0  -7   33.75   27.91
   0   9   7   34.72   38.15
   0   9  -7   37.54   25.98
   0   9  -7   42.99   17.98
   9   0   8   14.42   17.37
   9   0  -8   11.24   23.79
   0   9   8  -16.64   19.51
   0   9  -8    8.16   16.19
   0   9  -8    1.82    7.83
   9   0   9   55.70   31.54
   9   0  -9   58.57   36.39
   0   9   9   56.41   33.97
   0   9  -9   33.04   21.34
   0   9  -9   37.52   17.67
   9   0  10    0.60   14.25
   9   0 -10    4.89   14.04
   0   9  10    4.52   11.73
   0   9 -10    2.04    8.97
   0   9 -10   -3.43    5.28
   9   0  11    2.00    4.50
   9   0 -11   10.47    2.55
   0   9  11   12.55   15.02
   0   9 -11   15.79   13.93
   0   9 -11   30.55   16.50
   9   0  12   11.67   13.87
   9   0 -12   -4.36   13.21
   0   9  12   -7.11   10.69
   0   9 -12   11.25   11.19
   0   9 -12   15.25   13.99
   9   0  13    2.40   10.58
   9   0 -13    0.99   13.04
   0   9  13   -6.43   13.09
   0   9 -13    5.14    7.31
   0   9 -13    9.62   10.29
   9   0  14    5.40    6.33
   9   0 -14   11.37   17.48
   0   9  14    2.80    9.01
   0   9 -14   11.16    9.59
   0   9 -14   10.60   10.98
   9   0  15   -7.17    9.51
   9   0 -15   10.13   16.99
   0   9  15   -5.87    4.18
   0   9 -15    0.36    5.13
   0   9 -15    3.15    4.80
   9   0  16   11.23   11.83
   0   9  16  -23.70   17.53
   0   9 -16    3.84    8.73
   9   0 -16   19.12   21.73
   0   9  17   -6.34   13.28
   0   9 -17    5.73    9.20
   9   0  17   -1.39    4.22
   9   0 -17   25.56   23.44
   0   9  18    5.05    7.77
   0   9 -18   -2.77    3.48
   9   0  18   -9.21   10.63
   9   0 -18   -1.79   13.32
   9   1   0   -3.14    3.54
   1   9   0   -5.19   20.67
  -1   9   0    5.99    3.02
   9  -1   0    7.56   19.22
   9   1   1   10.30    3.21
   9   1  -1   17.30   26.10
   1   9   1   -3.28   28.21
   1   9  -1  -19.45   10.71
  -1   9   1    9.62   37.32
  -1   9  -1   16.58   30.20
   9  -1   1   10.62   21.88
   9  -1  -1   34.14   26.82
   9   1   2    3.27   14.70
   9   1  -2   -6.03   15.05
   1   9   2    4.43   10.52
   1   9  -2  -11.49   34.74
  -1   9   2   16.18   39.74
  -1   9  -2   22.74   25.97
   9  -1   2   12.72   23.95
   9  -1  -2   -8.85   16.10
   9   1   3  -11.19   16.33
   9   1  -3    9.99    8.68
   1   9   3    3.56   14.22
   1   9  -3   -4.27   14.04
  -1   9   3   41.43   48.86
  -1   9  -3   15.07   20.68
   9  -1   3   -1.74   12.12
   9  -1  -3  -12.25   22.22
   9   1   4   -4.07   12.70
   9   1  -4   -0.53    9.24
   1   9   4    7.01   15.76
   1   9  -4  -10.54    9.57
  -1   9   4    9.09   27.13
  -1   9  -4   -7.51    9.21
  -1   9  -4   -3.33    6.22
   9  -1   4   -3.33   17.42
   9  -1  -4  -10.83   26.09
   9   1   5    0.04   17.35
   9   1  -5    2.20   14.25
   1   9   5   -0.11   17.52
   1   9  -5   -9.78   18.22
  -1   9   5  -17.63   12.94
  -1   9  -5   -5.67    5.10
  -1   9  -5   -8.69    8.27
   9  -1   5    3.63   22.15
   9  -1  -5   -0.16   15.08
   9   1   6    3.62   15.21
   9   1  -6  -10.81   22.12
   1   9   6   16.13   11.24
   1   9  -6   -4.78   11.44
  -1   9   6    1.86   16.16
  -1   9  -6   21.16   22.40
  -1   9  -6   -1.68    6.08
   9  -1   6   13.63   17.17
   9  -1  -6  -18.68   19.35
   9   1   7    9.29   16.02
   1   9   7    6.44    6.30
   1   9  -7  -18.06   10.15
   9   1  -7   -1.84   18.01
  -1   9   7    9.35    8.55
  -1   9  -7   -6.40   12.22
  -1   9  -7    4.31    4.48
   9  -1   7   -1.18    8.96
   9  -1  -7    6.37   15.60
   1   9   8   -2.64    7.87
   1   9  -8  -17.18   16.73
   9   1   8   15.90   14.90
   9   1  -8  -26.53   23.67
  -1   9   8    7.31   10.89
  -1   9  -8    2.95   16.75
  -1   9  -8    4.21    7.35
   9  -1   8   -8.18   15.02
   9  -1  -8  -16.19   21.09
   1   9   9   -9.92   20.12
   1   9  -9   -2.65    8.56
   9   1   9   10.05   19.10
   9   1  -9   -0.91    3.03
  -1   9   9   -5.97   23.72
  -1   9  -9   -8.40   11.68
  -1   9  -9    4.71    5.35
   9  -1   9    3.87   11.80
   9  -1  -9    5.55    3.77
   1   9  10   -6.99   15.14
   1   9 -10    5.52    8.19
   9   1  10   -5.19   13.18
  -1   9  10   19.37   21.15
  -1   9 -10    3.39    8.20
   9   1 -10   19.89   17.94
   1   9 -10    3.18    8.54
  -1   9 -10    0.07   10.57
   9  -1  10   15.22   16.79
   9  -1 -10    3.17    8.98
   1   9  11   -2.93   13.70
   1   9 -11  -12.54   12.14
  -1   9  11    0.13   14.07
  -1   9 -11    2.21    3.24
   9   1  11   -4.95   11.02
   9   1 -11    7.55    7.25
   1   9 -11   13.42   13.30
  -1   9 -11   -3.04    4.39
   9  -1  11   27.06   25.63
   9  -1 -11    2.99   12.28
   1   9  12  -12.50   12.87
   1   9 -12  -12.02   11.44
  -1   9  12   -6.12    5.64
  -1   9 -12   -8.72    9.17
   9   1  12   -0.49    5.88
   9   1 -12   11.91   23.85
   1   9 -12    5.46   11.94
  -1   9 -12   -3.20    9.50
   9  -1  12  -19.32   17.33
   9  -1 -12   -3.58    6.78
   9  -1 -13  -11.79   15.91
   1   9  13    5.56   13.18
   1   9 -13   -1.20    4.39
  -1   9  13    8.34   15.19
  -1   9 -13   -6.16    8.22
   1   9 -13   14.35   13.74
   9   1  13    1.39   15.90
   9   1 -13   -2.80    7.09
  -1   9 -13   -8.60    9.69
   9  -1  13  -13.91   13.22
   9  -1  14    2.57   10.71
   9  -1 -14    3.48    6.78
   1   9  14    5.37   12.50
   1   9 -14    1.59    6.06
  -1   9  14   -1.06    4.56
  -1   9 -14   -0.99    5.36
   1   9 -14   11.69   11.16
   9   1  14   -1.12   12.74
   9   1 -14    7.73    4.95
  -1   9 -14    5.01    8.46
   9  -1  15  -11.52   12.72
   9  -1 -15    1.92    7.85
   1   9  15   -0.13    1.31
   1   9 -15   12.41   11.58
  -1   9  15    9.14   11.30
  -1   9 -15   -5.27    4.71
   9   1  15   17.31   17.53
  -1   9 -15  -12.30   14.69
   9   1 -15   -9.31    6.21
   9   1 -16  -12.89   14.65
   9  -1  16    7.36    9.25
   9  -1 -16    3.46   11.46
   1   9  16    2.94    7.80
   1   9 -16  -13.96   11.60
  -1   9  16   -0.58    3.84
  -1   9 -16    0.36    4.58
   9   1  16    0.30    6.11
   9   1  17   -2.38    9.20
   9   1 -17  -15.53   15.86
   9  -1  17  -12.07   12.51
   9  -1 -17    6.59   12.73
   1   9  17    0.46    6.05
   1   9 -17   -2.98    5.44
  -1   9  17    8.51   12.85
  -1   9 -17   -1.04    2.89
   9   1  18    4.99   14.16
   9   1 -18   -4.36    8.29
   9  -1  18   -8.81   10.54
   9  -1 -18  -15.13   15.33
   1   9  18    2.55    2.95
   1   9 -18    2.02    7.95
  -1   9  18   -7.40    9.86
  -1   9 -18    8.98    4.98
   2   9   0  -12.63   24.22
   9   2   0   23.23   21.12
  -9  -2   1  -52.87   25.42
   2   9   1   21.04   34.28
   2   9  -1   23.07   34.32
   9   2   1    1.75    3.90
   9   2  -1    8.85   26.40
  -9  -2   2   -9.75   17.97
   2   9   2   -4.97   14.11
   2   9  -2   -5.38   17.98
   9   2   2   -8.69   29.94
   9   2  -2   13.57   25.56
  -9  -2   3   -7.87   15.82
   2   9   3   -9.70    4.88
   2   9  -3    1.05   17.43
   9   2   3  -12.11   24.68
   9   2  -3   39.23   39.69
  -9  -2   4  -10.29   13.67
   2   9   4   -7.20   15.35
   2   9  -4   12.47   12.20
   9   2   4    9.77    7.90
   9   2  -4   11.90   18.75
  -9  -2   5   -8.95   16.47
   2   9   5    2.23   18.53
   2   9  -5   22.82   22.07
   9   2   5  -32.82   33.17
   9   2  -5  -28.65   24.88
  -9  -2   6    4.08    6.58
   2   9   6   20.85   33.35
   2   9  -6   28.11   22.91
  -2   9  -6   15.40    9.75
   9   2   6   14.83   16.64
   9   2  -6   -2.29   15.05
  -9  -2   7   18.38   11.64
   2   9   7   41.70   27.81
   2   9  -7    3.90   13.67
  -2   9  -7   24.50   13.66
   9   2   7  -11.24    8.27
   9   2  -7   42.36   31.50
   9   2   8    8.21   10.01
   9   2  -8   34.51   28.48
  -9  -2   8    0.81   15.36
   2   9   8   -2.38   15.38
   2   9  -8    9.42   17.24
  -2   9  -8    3.52   12.20
   9   2   9   20.93   14.35
   9   2  -9   28.82   24.40
  -9  -2   9   28.26   24.37
   2   9   9   52.43   33.71
   2   9  -9   28.08   23.92
  -2   9  -9   36.87   19.43
   9   2  10   18.42   22.06
   9   2 -10   22.52   26.32
  -9  -2  10    6.26    5.06
   2   9  10    3.71    4.25
   2   9 -10    9.13    8.79
   9  -2 -10   18.53   17.42
  -2   9 -10   36.97   21.75
   9   2  11   20.18   12.43
  -9  -2  11   21.11   12.71
   9   2 -11   32.99   20.00
   2   9  11   42.42   26.47
   2   9 -11   19.74   19.69
   9  -2  11   26.28   25.27
   9  -2 -11   12.96   17.84
  -2   9 -11   36.28   19.31
  -9  -2  12  -34.65   23.89
   9   2  12   26.23   20.28
   9   2 -12   38.81   27.36
   2   9  12    6.98   10.23
   2   9 -12    1.86   13.70
   9  -2  12   13.94   13.09
   9  -2 -12   14.34   12.48
  -2   9 -12   37.15   21.98
   9   2  13    9.99    3.66
   9   2 -13   13.51   13.52
   2   9  13   -1.64    9.63
   2   9 -13    2.84    4.21
   9  -2  13   21.79   22.95
   9  -2 -13    7.59   13.38
  -2   9 -13   -2.01    4.80
   9   2  14    0.58    2.86
   9   2 -14   -1.24   11.32
   2   9  14   10.65   11.44
   2   9 -14   -2.35    5.19
  -2   9  14    4.57   11.79
  -2   9 -14    5.72   11.18
   9  -2  14  -19.94   16.70
   9  -2 -14    9.55   14.49
  -2   9 -14   17.29   13.04
   2   9  15   -8.50   10.58
   2   9 -15    2.91    3.50
   9   2  15   17.72   18.64
   9   2 -15    6.73    9.66
  -2   9  15    1.92    4.83
  -2   9 -15    2.95    2.53
   9  -2  15   -7.70    9.54
   9  -2 -15   19.81   20.65
  -2   9 -15  -25.65   18.14
   2   9  16    0.35    2.11
   2   9 -16   14.20   15.77
  -2   9  16  -27.02   20.50
  -2   9 -16    2.69    4.75
   9   2  16   18.94   17.88
   9   2 -16    5.99    9.92
   9  -2  16   22.42   19.59
   9  -2 -16    0.07    3.75
   2   9  17    1.23    4.26
   2   9 -17   -8.18    9.80
  -2   9  17  -20.38   17.53
  -2   9 -17   -5.92    6.94
   9   2  17   12.87   15.83
   9   2 -17    3.84   11.13
   9  -2  17    8.74   12.15
   9  -2 -17    8.07   11.38
   9   2 -18    1.81    8.71
   2   9 -18    1.39    6.64
   9   2  18    3.12    6.95
   9  -2  18   -8.62   10.45
   9  -2 -18  -25.79   18.49
  -9  -3   0    5.40    3.46
   3   9   0  -17.95   12.50
   9   3   0    3.99   15.19
  -9  -3   1    5.56    3.29
  -9  -3  -1   -1.66   14.44
   3   9   1  -20.60   19.80
   3   9  -1   10.00   23.99
   9   3   1   -7.19   17.26
   9   3  -1   10.01    6.64
  -9  -3   2   -9.45   12.37
  -9  -3  -2   -7.48   16.13
   3   9   2   -2.23   18.96
   3   9  -2  -17.01   25.99
   9   3   2    7.90   19.86
   9   3  -2    2.04   13.89
  -9  -3   3   -6.01    8.52
  -9  -3  -3  -22.33   17.81
   3   9   3   -2.27   20.01
   3   9  -3  -15.58   28.92
   9   3   3   -5.51   30.74
   9   3  -3    2.82   12.88
  -9  -3   4   16.85   13.39
  -9  -3  -4  -44.34   21.38
   3   9   4   12.82   23.51
   3   9  -4   -6.27   27.22
   9   3   4   15.42   25.21
   9   3  -4    1.03   13.54
  -9  -3   5    4.39    6.27
   3   9   5  -16.15   34.16
   3   9  -5  -33.68   47.56
   9   3   5   34.77   29.76
   9   3  -5   -5.46    7.49
  -9  -3   6   17.64   16.14
   3   9   6   -3.60   17.00
   3   9  -6    2.94    7.52
   9   3   6   15.48   24.27
   9   3  -6  -11.01   20.75
  -9  -3   7    5.00   13.21
   3   9   7  -26.51   24.48
   3   9  -7   -9.94   19.57
   9   3   7    7.55   22.54
   9   3  -7   11.24   18.52
  -3   9  -8    2.54   12.45
  -9  -3   8    8.71   14.00
   3   9   8   -8.59   22.96
   3   9  -8   -1.69    8.01
   9   3   8   -1.74    6.47
   9   3  -8   -7.30   12.68
  -3   9  -9   -1.23    3.55
  -9  -3   9    5.75   12.83
   3   9   9   -8.63   11.34
   3   9  -9  -35.72   25.90
   9   3   9    4.39   15.06
   9   3  -9   -8.21   16.53
  -3   9 -10   -4.40    4.09
  -9  -3  10    1.85    4.56
   3   9  10   -7.93   11.84
   3   9 -10  -26.16   21.11
   9   3  10  -15.06   22.61
   9   3 -10   19.22   11.14
   9   3 -11   24.19   23.08
  -3   9 -11    5.08   10.70
   3   9  11   -0.66    8.50
   3   9 -11   -4.34   12.17
   9   3  11  -15.02   17.20
  -3   9 -12   11.17   15.05
   9   3  12   -0.70    3.58
   9   3 -12   23.35   23.34
   3   9  12    6.84    3.34
   3   9 -12    1.72   12.44
  -3   9 -13    3.94    8.99
   9   3  13    3.36   13.45
   9   3 -13   -3.86   12.22
  -3   9 -14   14.01   15.05
   9   3  14    6.58   10.82
   9   3 -14    9.20   13.55
   9  -3 -15   15.63   12.19
   9   3  15  -25.14   19.76
   9   3 -15   32.53   27.42
   9  -3 -16   11.90   10.33
  -9  -4   0   11.27   12.72
   9   4   0   -9.83   21.36
  -4  -9   0   30.84   25.65
  -9  -4   1   -0.13    2.96
  -9  -4  -1   19.92   13.21
   9   4  -1   28.48   25.38
  -4  -9  -1    5.82   16.99
  -4  -9   1   -7.40   12.58
  -9  -4  -2    8.68   10.66
   9   4   2  -17.40   28.91
   9   4  -2   28.83   29.33
  -4  -9  -2   27.99   28.46
  -4  -9   2   -6.06   19.83
  -9  -4   3    0.48    6.19
  -9  -4  -3   -1.66    3.22
   9   4   3    3.71   22.47
   9   4  -3   -5.95   16.33
  -4  -9  -3   11.84   23.87
  -4  -9   3    2.82    8.53
  -9  -4   4   -7.37   10.10
  -9  -4  -4   12.19   10.16
   9   4   4   -1.75   13.88
   9   4  -4   23.64   33.48
  -4  -9  -4   16.16   19.59
  -4  -9   4    8.08   20.71
  -9  -4   5    9.58    8.85
   9   4   5  -40.55   35.35
   9   4  -5   13.91   28.01
  -4  -9   5   28.69   31.82
   9   4  -6   26.64   20.50
  -9  -4   6   11.28   16.03
   9   4   6   -7.66   23.71
  -9  -4   7    9.97    6.07
  -9  -4   8    7.44   13.54
  -4   9 -11   25.02   17.65
  -4   9 -12   14.38   15.90
  -4   9 -13    2.94    7.03
  -9  -5   0   -0.98    3.14
  -9  -5   1   -2.39    1.31
  -9  -5  -1   -5.29    6.89
  -9  -5   2   13.48   13.62
  -9  -5  -2   11.34   10.13
  -9  -5   3    2.64    4.11
  -9  -5   4   -0.67    2.83
  -9  -6   0  -15.93   12.96
  -9  -6  -1    9.07   11.78
  -6  -9  -2  -32.25   24.78
  -6  -9  -3  -26.16   21.43
   0  10  -9    3.75    8.04
   0  10 -10   17.21   15.31
   0  10 -11   16.94   14.59
  -1  10 -11    2.29    7.45
 -10  -3   0  -71.52   31.23
 -10  -3   1  -33.06   21.61
 -10  -3   2  -30.21   21.06
 -10  -3   3   -6.50   17.39
 -10  -4   0   -1.58    9.22
 -10  -4  -1   -5.81    7.73
   0   0   0    0.00    0.00
;
_shelx_hkl_checksum              73912
_shelx_fab_file
;
    0    0    6     40.40      0.00
    0    0    8     23.78      0.00
    0    0   10     -0.88      0.00
    0    0   12     -1.69      0.00
    0    0   14      4.77      0.00
    0    0   16      6.67      0.00
    0    0   18     -0.75      0.00
    0    0   20      2.79      0.00
    0    0   22      2.42      0.00
    0    0   24      0.57      0.00
    0    0   26     -0.17      0.00
    0    0   28     -4.38      0.00
    0    0   30     -3.32      0.00
    0    0   32     -3.74      0.00
    0    1    4     -5.65      0.00
    0    1    5      5.02      0.00
    0    1    6      1.07      0.00
    0    1    7     -4.44      0.00
    0    1    8     -9.21      0.00
    0    1    9    -11.42      0.00
    0    1   10     -2.17      0.00
    0    1   11     -3.15      0.00
    0    1   12     -2.83      0.00
    0    1   13      2.53      0.00
    0    1   14     -0.59      0.00
    0    1   15      0.56      0.00
    0    1   16      0.95      0.00
    0    1   17     -2.10      0.00
    0    1   18      1.82      0.00
    0    1   19     -1.46      0.00
    0    1   20      0.47      0.00
    0    1   21     -4.48      0.00
    0    1   22     -1.68      0.00
    0    1   23     -4.34      0.00
    0    1   24     -0.18      0.00
    0    1   25     -0.91      0.00
    0    1   26     -1.80      0.00
    0    1   27      1.27      0.00
    0    1   28      0.53      0.00
    0    1   29     -0.37      0.00
    0    1   30      3.44      0.00
    0    1   31     -1.97      0.00
    0    1   32     -0.13      0.00
    1    1    0      1.38      0.00
    1    1    2     -1.53      0.00
    1    1    4     -8.63      0.00
    1    1    6     -7.72      0.00
    1    1    8     -2.88      0.00
    1    1   10     -6.39      0.00
    1    1   12     -5.34      0.00
    1    1   14      1.48      0.00
    1    1   16      1.59      0.00
    1    1   18     -1.26      0.00
    1    1   20     -2.67      0.00
    1    1   22     -2.87      0.00
    1    1   24     -3.03      0.00
    1    1   26     -1.12      0.00
    1    1   28      3.21      0.00
    1    1   30      0.53      0.00
    0    2    1    -28.57      0.00
    0    2    2     17.85      0.00
    0    2    3     -3.52      0.00
    0    2    4     16.38      0.00
    0    2    5      2.93      0.00
    0    2    6     -7.41      0.00
    0    2    7     -4.54      0.00
    0    2    8      7.08      0.00
    0    2    9     -7.25      0.00
    0    2   10      9.42      0.00
    0    2   11     -2.86      0.00
    0    2   12      0.04      0.00
    0    2   13      2.36      0.00
    0    2   14      0.23      0.00
    0    2   15     -0.43      0.00
    0    2   16      2.76      0.00
    0    2   17     -1.92      0.00
    0    2   18     -2.94      0.00
    0    2   19     -2.53      0.00
    0    2   20     -4.07      0.00
    0    2   21     -2.92      0.00
    0    2   22     -1.43      0.00
    0    2   23      3.06      0.00
    0    2   24     -7.48      0.00
    0    2   25      2.15      0.00
    0    2   26     -3.74      0.00
    0    2   27     -1.72      0.00
    0    2   28      0.27      0.00
    0    2   29      1.99      0.00
    0    2   30     -2.86      0.00
    0    2   31      1.58      0.00
    1    2    1     -4.78      0.00
    1    2    2      2.77      0.00
    1    2    3      0.52      0.00
    1    2    4     -7.24      0.00
    1    2    5      3.74      0.00
    1    2    6     -1.06      0.00
    1    2    7     -4.28      0.00
    1    2    8      3.57      0.00
    1    2    9     -1.03      0.00
    1    2   10     -3.68      0.00
    1    2   11      4.12      0.00
    1    2   12     -3.18      0.00
    1    2   13      1.20      0.00
    1    2   14      2.33      0.00
    1    2   15     -2.32      0.00
    1    2   16      0.32      0.00
    1    2   17     -0.03      0.00
    1    2   18     -0.79      0.00
    1    2   19     -1.24      0.00
    1    2   20      1.45      0.00
    1    2   21      2.07      0.00
    1    2   22     -2.23      0.00
    1    2   23      6.23      0.00
    1    2   24      0.39      0.00
    1    2   25     -0.69      0.00
    1    2   26      4.59      0.00
    1    2   27     -0.62      0.00
    1    2   28     -0.85      0.00
    1    2   29      2.74      0.00
    1    2   30     -0.03      0.00
    1    2   31      1.94      0.00
    2    2    0      8.28      0.00
    2    2    2     -5.66      0.00
    2    2    4     -5.85      0.00
    2    2    6     10.81      0.00
    2    2    8      3.61      0.00
    2    2   10     -7.00      0.00
    2    2   12     -0.10      0.00
    2    2   14      1.32      0.00
    2    2   16     -3.11      0.00
    2    2   18      4.03      0.00
    2    2   20     -1.44      0.00
    2    2   22     -4.39      0.00
    2    2   24      3.90      0.00
    2    2   26     -4.81      0.00
    2    2   28     -3.97      0.00
    2    2   30      5.81      0.00
    0    3    1      6.71      0.00
    0    3    2     11.39      0.00
    0    3    3      6.78      0.00
    0    3    4     -0.59      0.00
    0    3    5     -1.21      0.00
    0    3    6     -0.30      0.00
    0    3    7     -1.56      0.00
    0    3    8      2.77      0.00
    0    3    9      1.26      0.00
    0    3   10     -0.74      0.00
    0    3   11      0.57      0.00
    0    3   12      1.98      0.00
    0    3   13     -1.24      0.00
    0    3   14      1.91      0.00
    0    3   15      1.14      0.00
    0    3   16     -2.87      0.00
    0    3   17     -2.26      0.00
    0    3   18     -2.58      0.00
    0    3   19     -1.93      0.00
    0    3   20      2.42      0.00
    0    3   21      2.00      0.00
    0    3   22      2.37      0.00
    0    3   23     -1.71      0.00
    0    3   24     -1.18      0.00
    0    3   25      0.68      0.00
    0    3   26      0.45      0.00
    0    3   27      2.22      0.00
    0    3   28      3.10      0.00
    0    3   29     -0.52      0.00
    0    3   30      2.28      0.00
    1    3    0      0.70      0.00
    1    3    1     -0.30      0.00
    1    3    2     -0.59      0.00
    1    3    3      0.13      0.00
    1    3    4      0.36      0.00
    1    3    5     -2.68      0.00
    1    3    6      2.99      0.00
    1    3    7     -0.87      0.00
    1    3    8      0.37      0.00
    1    3    9      1.02      0.00
    1    3   10      1.49      0.00
    1    3   11      0.71      0.00
    1    3   12      3.70      0.00
    1    3   13      2.76      0.00
    1    3   14     -0.36      0.00
    1    3   15      2.50      0.00
    1    3   16      0.25      0.00
    1    3   17     -0.60      0.00
    1    3   18      0.61      0.00
    1    3   19     -0.77      0.00
    1    3   20      0.34      0.00
    1    3   21     -0.66      0.00
    1    3   22      0.32      0.00
    1    3   23     -0.83      0.00
    1    3   24     -2.02      0.00
    1    3   25      0.01      0.00
    1    3   26      0.84      0.00
    1    3   27      0.00      0.00
    1    3   28      3.25      0.00
    1    3   29      1.91      0.00
    1    3   30      2.69      0.00
    2    3    1     -1.90      0.00
    2    3    2     -3.61      0.00
    2    3    3     -0.57      0.00
    2    3    4      1.91      0.00
    2    3    5      1.88      0.00
    2    3    6      0.35      0.00
    2    3    7     -1.80      0.00
    2    3    8     -4.06      0.00
    2    3    9     -2.94      0.00
    2    3   10      2.01      0.00
    2    3   11      3.25      0.00
    2    3   12      3.57      0.00
    2    3   13      2.64      0.00
    2    3   14     -1.14      0.00
    2    3   15     -1.63      0.00
    2    3   16      1.29      0.00
    2    3   17      2.33      0.00
    2    3   18      1.52      0.00
    2    3   19      1.21      0.00
    2    3   20      0.00      0.00
    2    3   21      2.59      0.00
    2    3   22      2.03      0.00
    2    3   23      4.43      0.00
    2    3   24     -1.51      0.00
    2    3   25     -2.39      0.00
    2    3   26     -3.42      0.00
    2    3   27      1.48      0.00
    2    3   28      0.03      0.00
    2    3   29      3.77      0.00
    2    3   30     -0.13      0.00
    3    3    0      0.25      0.00
    3    3    2      1.84      0.00
    3    3    4      3.37      0.00
    3    3    6      0.13      0.00
    3    3    8     -1.36      0.00
    3    3   10     -1.75      0.00
    3    3   12     -2.07      0.00
    3    3   14      0.10      0.00
    3    3   16     -0.12      0.00
    3    3   18      2.48      0.00
    3    3   20      2.75      0.00
    3    3   22      2.69      0.00
    3    3   24      1.67      0.00
    3    3   26     -6.70      0.00
    3    3   28     -5.95      0.00
    0    4    0     21.99      0.00
    0    4    1    -12.01      0.00
    0    4    2      4.75      0.00
    0    4    3     -7.73      0.00
    0    4    4     -6.53      0.00
    0    4    5      0.54      0.00
    0    4    6      2.17      0.00
    0    4    7      4.68      0.00
    0    4    8      2.40      0.00
    0    4    9     -0.94      0.00
    0    4   10      0.67      0.00
    0    4   11     -3.83      0.00
    0    4   12      3.24      0.00
    0    4   13     -3.83      0.00
    0    4   14      3.10      0.00
    0    4   15    -10.93      0.00
    0    4   16     -3.55      0.00
    0    4   17    -10.81      0.00
    0    4   18     -3.49      0.00
    0    4   19     -0.13      0.00
    0    4   20      2.44      0.00
    0    4   21      0.43      0.00
    0    4   22      2.02      0.00
    0    4   23     -1.02      0.00
    0    4   24      1.78      0.00
    0    4   25      0.99      0.00
    0    4   26      0.14      0.00
    0    4   27     -0.78      0.00
    0    4   28     -3.91      0.00
    0    4   29      1.43      0.00
    1    4    1      4.74      0.00
    1    4    2     -4.45      0.00
    1    4    3      4.36      0.00
    1    4    4      1.87      0.00
    1    4    5      0.48      0.00
    1    4    6      1.42      0.00
    1    4    7      0.93      0.00
    1    4    8     -0.59      0.00
    1    4    9      1.28      0.00
    1    4   10      1.74      0.00
    1    4   11     -0.02      0.00
    1    4   12      0.33      0.00
    1    4   13     -1.61      0.00
    1    4   14      0.56      0.00
    1    4   15      1.89      0.00
    1    4   16     -0.64      0.00
    1    4   17      3.19      0.00
    1    4   18     -1.96      0.00
    1    4   19      1.02      0.00
    1    4   20     -0.92      0.00
    1    4   21     -1.08      0.00
    1    4   22     -4.02      0.00
    1    4   23      1.17      0.00
    1    4   24     -2.93      0.00
    1    4   25      3.65      0.00
    1    4   26     -0.59      0.00
    1    4   27      1.49      0.00
    1    4   28     -1.85      0.00
    1    4   29     -0.21      0.00
    2    4    0     -8.37      0.00
    2    4    1      0.27      0.00
    2    4    2      0.26      0.00
    2    4    3     -1.57      0.00
    2    4    4      4.25      0.00
    2    4    5     -0.04      0.00
    2    4    6     -1.23      0.00
    2    4    7     -0.47      0.00
    2    4    8      1.31      0.00
    2    4    9      0.05      0.00
    2    4   10      1.76      0.00
    2    4   11      0.36      0.00
    2    4   12     -3.39      0.00
    2    4   13     -0.60      0.00
    2    4   14     -3.66      0.00
    2    4   15      1.12      0.00
    2    4   16     -1.90      0.00
    2    4   17     -0.95      0.00
    2    4   18     -0.87      0.00
    2    4   19     -1.74      0.00
    2    4   20      1.51      0.00
    2    4   21      3.11      0.00
    2    4   22     -3.96      0.00
    2    4   23     -0.80      0.00
    2    4   24     -8.78      0.00
    2    4   25     -5.04      0.00
    2    4   26     -1.96      0.00
    2    4   27     -1.31      0.00
    2    4   28      0.59      0.00
    3    4    1     -2.73      0.00
    3    4    2      4.59      0.00
    3    4    3     -1.64      0.00
    3    4    4     -0.34      0.00
    3    4    5      0.20      0.00
    3    4    6     -0.32      0.00
    3    4    7     -0.33      0.00
    3    4    8      1.96      0.00
    3    4    9      1.11      0.00
    3    4   10      0.14      0.00
    3    4   11     -0.05      0.00
    3    4   12      0.27      0.00
    3    4   13     -0.92      0.00
    3    4   14     -1.39      0.00
    3    4   15      0.08      0.00
    3    4   16     -1.07      0.00
    3    4   17     -0.72      0.00
    3    4   18     -0.24      0.00
    3    4   19     -2.37      0.00
    3    4   20     -2.77      0.00
    3    4   21      0.64      0.00
    3    4   22      0.29      0.00
    3    4   23     -2.01      0.00
    3    4   24      2.96      0.00
    3    4   25     -7.45      0.00
    3    4   26      1.63      0.00
    3    4   27     -2.49      0.00
    3    4   28      0.54      0.00
    4    4    0      6.28      0.00
    4    4    2      0.92      0.00
    4    4    4      1.30      0.00
    4    4    6      2.97      0.00
    4    4    8     -2.55      0.00
    4    4   10     -0.33      0.00
    4    4   12     -0.33      0.00
    4    4   14     -2.71      0.00
    4    4   16     -1.28      0.00
    4    4   18     -2.68      0.00
    4    4   20      0.62      0.00
    4    4   22      8.26      0.00
    4    4   24      6.18      0.00
    4    4   26     -1.56      0.00
    0    5    1     -4.31      0.00
    0    5    2     -2.42      0.00
    0    5    3      1.13      0.00
    0    5    4      2.55      0.00
    0    5    5      5.42      0.00
    0    5    6      1.83      0.00
    0    5    7     -2.70      0.00
    0    5    8     -1.91      0.00
    0    5    9     -2.32      0.00
    0    5   10      3.72      0.00
    0    5   11      1.30      0.00
    0    5   12      3.83      0.00
    0    5   13      0.22      0.00
    0    5   14     -3.11      0.00
    0    5   15     -4.78      0.00
    0    5   16     -0.93      0.00
    0    5   17     -2.46      0.00
    0    5   18      3.25      0.00
    0    5   19      0.84      0.00
    0    5   20      1.28      0.00
    0    5   21     -2.39      0.00
    0    5   22      1.96      0.00
    0    5   23     -0.74      0.00
    0    5   24      0.53      0.00
    0    5   25     -3.06      0.00
    0    5   26     -4.31      0.00
    0    5   27     -4.59      0.00
    1    5    0      0.45      0.00
    1    5    1      2.98      0.00
    1    5    2      0.30      0.00
    1    5    3      4.50      0.00
    1    5    4      1.55      0.00
    1    5    5     -1.72      0.00
    1    5    6      0.69      0.00
    1    5    7     -2.40      0.00
    1    5    8      0.16      0.00
    1    5    9      0.14      0.00
    1    5   10     -2.10      0.00
    1    5   11      0.95      0.00
    1    5   12     -3.34      0.00
    1    5   13      3.30      0.00
    1    5   14      0.96      0.00
    1    5   15      0.30      0.00
    1    5   16     -1.42      0.00
    1    5   17      0.11      0.00
    1    5   18     -3.66      0.00
    1    5   19      1.58      0.00
    1    5   20     -2.55      0.00
    1    5   21      1.61      0.00
    1    5   22      1.96      0.00
    1    5   23      4.38      0.00
    1    5   24      6.73      0.00
    1    5   25      0.83      0.00
    1    5   26      3.70      0.00
    1    5   27     -2.37      0.00
    2    5    1      1.66      0.00
    2    5    2     -0.46      0.00
    2    5    3     -1.60      0.00
    2    5    4     -0.41      0.00
    2    5    5     -3.28      0.00
    2    5    6     -1.19      0.00
    2    5    7     -0.02      0.00
    2    5    8     -4.48      0.00
    2    5    9     -0.79      0.00
    2    5   10     -6.68      0.00
    2    5   11     -0.08      0.00
    2    5   12     -0.58      0.00
    2    5   13      1.05      0.00
    2    5   14      2.96      0.00
    2    5   15      1.70      0.00
    2    5   16     -0.94      0.00
    2    5   17      2.48      0.00
    2    5   18     -2.18      0.00
    2    5   19      2.10      0.00
    2    5   20     -1.69      0.00
    2    5   21     -4.49      0.00
    2    5   22     -2.79      0.00
    2    5   23    -10.52      0.00
    2    5   24     -1.71      0.00
    2    5   25     -2.29      0.00
    2    5   26      0.36      0.00
    2    5   27      4.03      0.00
    3    5    0     -2.10      0.00
    3    5    1      2.54      0.00
    3    5    2     -0.27      0.00
    3    5    3     -0.41      0.00
    3    5    4      0.39      0.00
    3    5    5      0.64      0.00
    3    5    6     -0.31      0.00
    3    5    7      2.03      0.00
    3    5    8     -1.59      0.00
    3    5    9     -0.70      0.00
    3    5   10      0.24      0.00
    3    5   11     -4.26      0.00
    3    5   12      3.91      0.00
    3    5   13     -4.62      0.00
    3    5   14      3.42      0.00
    3    5   15     -1.24      0.00
    3    5   16      1.75      0.00
    3    5   17      0.49      0.00
    3    5   18      0.43      0.00
    3    5   19      1.13      0.00
    3    5   20      7.17      0.00
    3    5   21      1.34      0.00
    3    5   22     10.05      0.00
    3    5   23      0.35      0.00
    3    5   24      2.99      0.00
    3    5   25      1.35      0.00
    3    5   26      1.16      0.00
    4    5    1     -1.85      0.00
    4    5    2     -1.20      0.00
    4    5    3      0.10      0.00
    4    5    4      0.37      0.00
    4    5    5      1.25      0.00
    4    5    6     -1.84      0.00
    4    5    7     -0.49      0.00
    4    5    8     -0.81      0.00
    4    5    9     -0.16      0.00
    4    5   10      1.97      0.00
    4    5   11     -1.44      0.00
    4    5   12      1.26      0.00
    4    5   13     -0.41      0.00
    4    5   14      1.07      0.00
    4    5   15     -0.48      0.00
    4    5   16     -2.57      0.00
    4    5   17     -1.14      0.00
    4    5   18     -2.80      0.00
    4    5   19      0.72      0.00
    4    5   20      0.88      0.00
    4    5   21      1.96      0.00
    4    5   22     -1.82      0.00
    4    5   23      2.47      0.00
    4    5   24     -3.85      0.00
    5    5    0     -0.66      0.00
    5    5    2     -1.84      0.00
    5    5    4     -1.97      0.00
    5    5    6     -1.32      0.00
    5    5    8     -0.05      0.00
    5    5   10      0.64      0.00
    5    5   12     -0.12      0.00
    5    5   14     -0.51      0.00
    5    5   16     -2.32      0.00
    5    5   18     -1.26      0.00
    5    5   20      0.10      0.00
    5    5   22      0.15      0.00
    0    6    0     -5.26      0.00
    0    6    1     -2.13      0.00
    0    6    2     -2.22      0.00
    0    6    3      0.60      0.00
    0    6    4     -0.75      0.00
    0    6    5     -5.27      0.00
    0    6    6     -2.92      0.00
    0    6    7     -2.17      0.00
    0    6    8     -2.40      0.00
    0    6    9      0.86      0.00
    0    6   10      0.21      0.00
    0    6   11     -2.11      0.00
    0    6   12      0.40      0.00
    0    6   13      0.95      0.00
    0    6   14     -1.56      0.00
    0    6   15      1.45      0.00
    0    6   16     -1.09      0.00
    0    6   17      0.20      0.00
    0    6   18     -1.01      0.00
    0    6   19     -1.23      0.00
    0    6   20      3.26      0.00
    0    6   21     -2.39      0.00
    0    6   22      3.40      0.00
    0    6   23     -4.37      0.00
    0    6   24     -7.62      0.00
    1    6    1      1.05      0.00
    1    6    2      3.80      0.00
    1    6    3     -1.22      0.00
    1    6    4     -0.51      0.00
    1    6    5     -1.66      0.00
    1    6    6     -6.00      0.00
    1    6    7      1.77      0.00
    1    6    8     -2.52      0.00
    1    6    9     -2.57      0.00
    1    6   10      1.18      0.00
    1    6   11     -2.42      0.00
    1    6   12     -0.01      0.00
    1    6   13      0.34      0.00
    1    6   14     -1.03      0.00
    1    6   15     -2.18      0.00
    1    6   16      0.84      0.00
    1    6   17     -0.83      0.00
    1    6   18      2.93      0.00
    1    6   19     -1.95      0.00
    1    6   20      3.82      0.00
    1    6   21     -0.09      0.00
    1    6   22      2.42      0.00
    1    6   23      0.56      0.00
    1    6   24     -1.19      0.00
    1    6   25     -4.39      0.00
    2    6    0      1.86      0.00
    2    6    1     -0.78      0.00
    2    6    2      0.11      0.00
    2    6    3     -0.99      0.00
    2    6    4     -0.94      0.00
    2    6    5     -2.87      0.00
    2    6    6     -1.28      0.00
    2    6    7    -14.79      0.00
    2    6    8     -1.54      0.00
    2    6    9    -16.09      0.00
    2    6   10      0.02      0.00
    2    6   11     -2.38      0.00
    2    6   12      2.41      0.00
    2    6   13      0.83      0.00
    2    6   14      3.26      0.00
    2    6   15     -2.60      0.00
    2    6   16     -0.92      0.00
    2    6   17     -2.67      0.00
    2    6   18     -1.35      0.00
    2    6   19     -0.77      0.00
    2    6   20     -0.15      0.00
    2    6   21      0.13      0.00
    2    6   22     -3.11      0.00
    2    6   23      2.44      0.00
    2    6   24     -1.84      0.00
    2    6   25      7.74      0.00
    3    6    1      1.45      0.00
    3    6    2      1.42      0.00
    3    6    3      1.48      0.00
    3    6    4      1.83      0.00
    3    6    5     -0.60      0.00
    3    6    6      1.92      0.00
    3    6    7     -1.81      0.00
    3    6    8      0.89      0.00
    3    6    9      1.40      0.00
    3    6   10      1.36      0.00
    3    6   11      1.73      0.00
    3    6   12      2.49      0.00
    3    6   13     -1.10      0.00
    3    6   14     -0.94      0.00
    3    6   15      2.07      0.00
    3    6   16     -3.46      0.00
    3    6   17      1.29      0.00
    3    6   18      2.79      0.00
    3    6   19     -1.09      0.00
    3    6   20      7.74      0.00
    3    6   21     -1.64      0.00
    3    6   22      4.95      0.00
    3    6   23     -2.87      0.00
    3    6   24      3.19      0.00
    4    6    0     -6.61      0.00
    4    6    1     -0.98      0.00
    4    6    2     -1.93      0.00
    4    6    3     -0.11      0.00
    4    6    4     -1.04      0.00
    4    6    5     -1.34      0.00
    4    6    6     -3.74      0.00
    4    6    7     -2.37      0.00
    4    6    8     -3.83      0.00
    4    6    9     -3.98      0.00
    4    6   10     -2.48      0.00
    4    6   11     -2.46      0.00
    4    6   12      0.81      0.00
    4    6   13      3.76      0.00
    4    6   14     -2.43      0.00
    4    6   15      2.80      0.00
    4    6   16     -1.51      0.00
    4    6   17     -0.49      0.00
    4    6   18      2.92      0.00
    4    6   19      1.59      0.00
    4    6   20      0.12      0.00
    4    6   21      3.40      0.00
    4    6   22     -1.19      0.00
    5    6    1     -2.64      0.00
    5    6    2      1.08      0.00
    5    6    3      0.51      0.00
    5    6    4     -0.54      0.00
    5    6    5      4.37      0.00
    5    6    6     -0.15      0.00
    5    6    7      1.71      0.00
    5    6    8      1.09      0.00
    5    6    9     -0.82      0.00
    5    6   10      0.42      0.00
    5    6   11     -1.22      0.00
    5    6   12     -1.32      0.00
    5    6   13      0.73      0.00
    5    6   14      0.82      0.00
    5    6   15     -1.69      0.00
    5    6   16      3.71      0.00
    5    6   17     -1.52      0.00
    5    6   18      1.07      0.00
    5    6   19      1.19      0.00
    5    6   20     -1.25      0.00
    6    6    0      3.82      0.00
    6    6    2     -2.99      0.00
    6    6    4     -3.31      0.00
    6    6    6      1.99      0.00
    6    6    8     -1.83      0.00
    6    6   10     -5.16      0.00
    6    6   12     -0.45      0.00
    6    6   14      7.97      0.00
    6    6   16      4.14      0.00
    0    7    1      0.11      0.00
    0    7    2     -3.39      0.00
    0    7    3     -0.22      0.00
    0    7    4     -4.43      0.00
    0    7    5      2.84      0.00
    0    7    6     -2.49      0.00
    0    7    7      1.61      0.00
    0    7    8     -1.01      0.00
    0    7    9     -1.21      0.00
    0    7   10      1.06      0.00
    0    7   11      2.09      0.00
    0    7   12      2.94      0.00
    0    7   13      3.76      0.00
    0    7   14     -0.53      0.00
    0    7   15      5.04      0.00
    0    7   16     -1.52      0.00
    0    7   17      0.68      0.00
    0    7   18     -1.25      0.00
    0    7   19     -2.69      0.00
    0    7   20     -3.25      0.00
    0    7   21     -5.41      0.00
    0    7   22     -3.63      0.00
    1    7    0     -1.79      0.00
    1    7    1     -2.33      0.00
    1    7    2     -2.29      0.00
    1    7    3     -4.29      0.00
    1    7    4     -2.76      0.00
    1    7    5     -4.95      0.00
    1    7    6      1.41      0.00
    1    7    7     -2.90      0.00
    1    7    8      2.86      0.00
    1    7    9      0.06      0.00
    1    7   10      0.74      0.00
    1    7   11      1.17      0.00
    1    7   12      0.12      0.00
    1    7   13      1.97      0.00
    1    7   14      0.25      0.00
    1    7   15      1.13      0.00
    1    7   16      1.93      0.00
    1    7   17      0.19      0.00
    1    7   18     -0.48      0.00
    1    7   19     -0.11      0.00
    1    7   20      0.81      0.00
    1    7   21     -3.88      0.00
    1    7   22      1.84      0.00
    2    7    1     -0.34      0.00
    2    7    2     -2.48      0.00
    2    7    3     -0.09      0.00
    2    7    4      0.39      0.00
    2    7    5     -2.32      0.00
    2    7    6      0.23      0.00
    2    7    7     -3.72      0.00
    2    7    8     -0.79      0.00
    2    7    9     -2.12      0.00
    2    7   10      0.88      0.00
    2    7   11     -0.63      0.00
    2    7   12      2.04      0.00
    2    7   13     -0.53      0.00
    2    7   14      1.48      0.00
    2    7   15     -1.79      0.00
    2    7   16     -1.23      0.00
    2    7   17      0.34      0.00
    2    7   18      1.58      0.00
    2    7   19     -4.25      0.00
    2    7   20      1.82      0.00
    2    7   21     -8.00      0.00
    2    7   22     -3.64      0.00
    3    7    0      1.20      0.00
    3    7    1      6.61      0.00
    3    7    2     -0.22      0.00
    3    7    3     -1.17      0.00
    3    7    4     -2.26      0.00
    3    7    5     -3.15      0.00
    3    7    6     -2.93      0.00
    3    7    7      0.54      0.00
    3    7    8     -0.44      0.00
    3    7    9      4.25      0.00
    3    7   10      0.26      0.00
    3    7   11      0.35      0.00
    3    7   12     -0.52      0.00
    3    7   13     -2.93      0.00
    3    7   14      0.15      0.00
    3    7   15      2.97      0.00
    3    7   16      0.26      0.00
    3    7   17      3.27      0.00
    3    7   18      3.71      0.00
    3    7   19      0.87      0.00
    3    7   20      2.23      0.00
    3    7   21      3.31      0.00
    4    7    1     -1.13      0.00
    4    7    2     -1.38      0.00
    4    7    3     -1.81      0.00
    4    7    4     -1.78      0.00
    4    7    5     -0.86      0.00
    4    7    6     -0.53      0.00
    4    7    7     -1.68      0.00
    4    7    8     -3.49      0.00
    4    7    9     -0.66      0.00
    4    7   10      0.04      0.00
    4    7   11      2.99      0.00
    4    7   12      4.39      0.00
    4    7   13      4.32      0.00
    4    7   14     -1.42      0.00
    4    7   15      2.08      0.00
    4    7   16     -1.97      0.00
    4    7   17     -2.89      0.00
    4    7   18     -0.99      0.00
    4    7   19     -2.34      0.00
    5    7    0     -2.29      0.00
    5    7    1     -0.19      0.00
    5    7    2     -0.29      0.00
    5    7    3     -0.25      0.00
    5    7    4      0.92      0.00
    5    7    5     -3.67      0.00
    5    7    6     -1.32      0.00
    5    7    7     -1.36      0.00
    5    7    8     -2.68      0.00
    5    7    9     -0.41      0.00
    5    7   10     -0.64      0.00
    5    7   11     -0.98      0.00
    5    7   12      0.36      0.00
    5    7   13      2.24      0.00
    5    7   14     -0.79      0.00
    5    7   15      1.75      0.00
    5    7   16      0.52      0.00
    6    7    1     -1.85      0.00
    6    7    2     -1.45      0.00
    6    7    3     -1.78      0.00
    6    7    4      1.12      0.00
    6    7    5     -1.34      0.00
    6    7    6     -3.49      0.00
    6    7    7     -4.86      0.00
    6    7    8     -5.36      0.00
    6    7    9     -6.49      0.00
    6    7   10     -0.45      0.00
    6    7   11     -1.07      0.00
    6    7   12      2.28      0.00
    7    7    0      0.80      0.00
    7    7    2      1.40      0.00
    7    7    4      1.49      0.00
    0    8    0     -2.41      0.00
    0    8    1    -12.82      0.00
    0    8    2     -5.29      0.00
    0    8    3      1.06      0.00
    0    8    4     -2.84      0.00
    0    8    5      1.02      0.00
    0    8    6      1.01      0.00
    0    8    7     -3.13      0.00
    0    8    8     -0.02      0.00
    0    8    9     -3.64      0.00
    0    8   10     -0.46      0.00
    0    8   11     -5.92      0.00
    0    8   12     -0.25      0.00
    0    8   13     -5.25      0.00
    0    8   14      4.53      0.00
    0    8   15     -4.90      0.00
    0    8   16      1.33      0.00
    0    8   17     -2.17      0.00
    0    8   18     -3.10      0.00
    0    8   19      1.02      0.00
    1    8    1      3.88      0.00
    1    8    2     -0.21      0.00
    1    8    3     -0.27      0.00
    1    8    4      1.11      0.00
    1    8    5     -4.88      0.00
    1    8    6      0.98      0.00
    1    8    7     -0.55      0.00
    1    8    8      0.44      0.00
    1    8    9      0.26      0.00
    1    8   10     -0.92      0.00
    1    8   11      1.09      0.00
    1    8   12      0.37      0.00
    1    8   13     -0.18      0.00
    1    8   14      0.77      0.00
    1    8   15      1.96      0.00
    1    8   16     -3.79      0.00
    1    8   17      4.33      0.00
    1    8   18     -2.42      0.00
    1    8   19     -1.23      0.00
    2    8    0     -5.02      0.00
    2    8    1     -6.00      0.00
    2    8    2     -1.01      0.00
    2    8    3     -1.84      0.00
    2    8    4      0.80      0.00
    2    8    5      1.91      0.00
    2    8    6     -2.79      0.00
    2    8    7     -1.07      0.00
    2    8    8     -7.82      0.00
    2    8    9     -1.08      0.00
    2    8   10     -5.58      0.00
    2    8   11      0.37      0.00
    2    8   12      0.93      0.00
    2    8   13     -0.52      0.00
    2    8   14     -5.26      0.00
    2    8   15      2.44      0.00
    2    8   16     -5.14      0.00
    2    8   17      0.26      0.00
    2    8   18      1.93      0.00
    3    8    1     -3.80      0.00
    3    8    2     -1.87      0.00
    3    8    3     -4.71      0.00
    3    8    4     -2.11      0.00
    3    8    5     -1.46      0.00
    3    8    6      0.88      0.00
    3    8    7      2.16      0.00
    3    8    8      3.05      0.00
    3    8    9     -0.94      0.00
    3    8   10      3.33      0.00
    3    8   11     -5.75      0.00
    3    8   12      0.13      0.00
    3    8   13      2.57      0.00
    3    8   14     -1.00      0.00
    3    8   15      2.56      0.00
    3    8   16      2.57      0.00
    3    8   17     -3.01      0.00
    4    8    0     -3.24      0.00
    4    8    1    -12.21      0.00
    4    8    2     -2.82      0.00
    4    8    3     -0.32      0.00
    4    8    4     -0.04      0.00
    4    8    5      1.59      0.00
    4    8    6     -1.32      0.00
    4    8    7     -1.47      0.00
    4    8    8     -0.62      0.00
    4    8    9      1.03      0.00
    4    8   10      2.16      0.00
    4    8   11      3.31      0.00
    4    8   12     -2.35      0.00
    4    8   13     -2.70      0.00
    4    8   14     -2.73      0.00
    5    8    1      2.25      0.00
    5    8    2     -3.57      0.00
    5    8    3     -0.83      0.00
    5    8    4     -1.53      0.00
    5    8    5     -2.49      0.00
    5    8    6     -0.47      0.00
    5    8    7      0.73      0.00
    5    8    8     -0.29      0.00
    5    8    9     -0.14      0.00
    5    8   10      1.47      0.00
    5    8   11     -1.87      0.00
    6    8    0     -5.57      0.00
    6    8    1      2.95      0.00
    6    8    2     -0.73      0.00
    6    8    3      2.24      0.00
    0    9    1      4.24      0.00
    0    9    2      0.70      0.00
    0    9    3      6.77      0.00
    0    9    4      1.68      0.00
    0    9    5     -1.34      0.00
    0    9    6      3.48      0.00
    0    9    7     -3.71      0.00
    0    9    8     -2.23      0.00
    0    9    9     -1.59      0.00
    0    9   10     -4.50      0.00
    0    9   11     -1.66      0.00
    0    9   12      1.06      0.00
    0    9   13      1.01      0.00
    0    9   14     -0.10      0.00
    1    9    0      3.04      0.00
    1    9    1      8.10      0.00
    1    9    2     -1.13      0.00
    1    9    3     -0.55      0.00
    1    9    4      0.07      0.00
    1    9    5     -0.61      0.00
    1    9    6      1.95      0.00
    1    9    7      5.08      0.00
    1    9    8     -3.58      0.00
    1    9    9      2.68      0.00
    1    9   10     -4.46      0.00
    1    9   11      1.03      0.00
    1    9   12     -3.86      0.00
    1    9   13      1.25      0.00
    1    9   14     -2.70      0.00
    2    9    1      2.40      0.00
    2    9    2      0.62      0.00
    2    9    3      2.65      0.00
    2    9    4      3.46      0.00
    2    9    5      0.49      0.00
    2    9    6     -2.38      0.00
    2    9    7     -1.15      0.00
    2    9    8     -5.01      0.00
    2    9    9      0.30      0.00
    2    9   10     -0.57      0.00
    2    9   11      0.89      0.00
    2    9   12     -0.42      0.00
    3    9    0     -0.27      0.00
    3    9    1      9.21      0.00
    3    9    2      2.81      0.00
    3    9    3      4.39      0.00
    3    9    4      2.85      0.00
    3    9    5      5.74      0.00
    3    9    6     -0.89      0.00
    3    9    7      6.08      0.00
    3    9    8     -2.46      0.00
    3    9    9      1.43      0.00
    3    9   10     -1.84      0.00
    4    9    1      0.48      0.00
    4    9    2      5.06      0.00
    4    9    3      0.95      0.00
    4    9    4      2.36      0.00
    4    9    5     -0.38      0.00
    4    9    6      2.21      0.00
    0    2    0     -8.86      0.00
    0    1    1    -38.88      0.00
    0    0    2    142.13      0.00
    0    1    2    -44.83      0.00
    0    1    3    -37.68      0.00
    0    0    4     10.52      0.00
    6    8    4     -0.63      0.00
    6    8    5      1.43      0.00
    7    7    6      2.40      0.00
    6    8    6     -3.72      0.00
    6    8    7      0.00      0.00
    4    9    7      0.43      0.00
    7    7    8      4.81      0.00
    4    9    8      4.68      0.00
    4    9    9      1.56      0.00
    3    9   11     -0.17      0.00
    5    8   12      3.09      0.00
    3    9   12      1.32      0.00
    6    7   13      4.28      0.00
    5    8   13     -2.76      0.00
    2    9   13     -2.28      0.00
    6    7   14      1.54      0.00
    2    9   14     -0.21      0.00
    4    8   15     -6.00      0.00
    0    9   15     -0.75      0.00
    1    9   15      0.56      0.00
    4    8   16     -1.87      0.00
    0    9   16     -2.88      0.00
    5    7   17      0.54      0.00
    6    6   18     -2.19      0.00
    5    7   18     -0.33      0.00
    3    8   18      2.54      0.00
    2    8   19     -4.45      0.00
    4    7   20     -3.55      0.00
    0    8   20      1.57      0.00
    1    8   20      0.37      0.00
    5    6   21      0.09      0.00
    3    7   22     -0.92      0.00
    4    6   23      3.48      0.00
    0    7   23     -9.83      0.00
    1    7   23     -3.40      0.00
    2    7   23     -0.77      0.00
    5    5   24      1.58      0.00
    0    7   24     -1.23      0.00
    1    7   24     -1.87      0.00
    4    5   25      1.62      0.00
    0    6   25     -7.17      0.00
    3    6   25     -2.92      0.00
    0    6   26     -5.52      0.00
    1    6   26     -2.37      0.00
    2    6   26     -0.80      0.00
    3    5   27      0.39      0.00
    0    5   28     -0.84      0.00
    1    5   28      1.56      0.00
    2    5   28     -0.59      0.00
    2    4   29     -1.14      0.00
    3    3   30     -1.16      0.00
    0    4   30     -2.97      0.00
    1    4   30     -1.38      0.00
    0    3   31     -0.04      0.00
    1    3   31      0.99      0.00
    1    1   32     -0.55      0.00
    0    2   32      0.08      0.00
    1    2   32      2.23      0.00
    0    0    0      0.00      0.00
# SQUEEZE RESULTS (Version = 120716)
# Note: Data are Listed for all Voids in the P1 Unit Cell
# i.e. Centre of Gravity, Solvent Accessible Volume,
# Recovered number of Electrons in the Void and
# Details about the Squeezed Material
loop_
  _platon_squeeze_void_nr
  _platon_squeeze_void_average_x
  _platon_squeeze_void_average_y
  _platon_squeeze_void_average_z
  _platon_squeeze_void_volume
  _platon_squeeze_void_count_electrons
  _platon_squeeze_void_content
   1 -0.038 -0.009  0.000       454       114 ' '
   2 -0.050 -0.021  0.500       454       114 ' '
# Missing Reflections Below sin(th)/lambda = 0.25
loop_
  _platon_missing_refln_index_h
  _platon_missing_refln_index_k
  _platon_missing_refln_index_l
  _platon_missing_refln_theta
    0    2    0     5.178
    0    1    1     2.709
    0    0    2     1.611
    0    1    2     3.048
    0    1    3     3.541
    0    0    4     3.223
_platon_squeeze_void_probe_radius                  1.20
_platon_squeeze_details
)
TITL x in P4(2)/nmc
CELL    7.8752    7.8752   25.2830     90.00     90.00     90.00
SPGR P42/nmc
# Solvent Accessible Volume =       903
# Electrons Found in S.A.V. =       220
# Note: Atoms in Void as Cxxx and Qxxx all others
C101 0.750 0.259 0.125 !       3.07 eA-3
C102 0.717 0.743 0.367 !       2.10 eA-3
C103 0.250 0.252 0.500 !       2.08 eA-3
C104 0.750 0.235 0.344 !       2.01 eA-3
Q105 0.750 0.258 0.203 !       1.95 eA-3
C106 0.773 0.697 0.339 !       1.88 eA-3
C107 0.515 0.906 0.012 !       1.79 eA-3
Q108 0.946 0.257 0.422 !       1.72 eA-3
C109 0.585 0.311 0.110 !       1.65 eA-3
C110 0.475 0.065 0.016 !       1.64 eA-3
C111 0.750 0.095 0.353 !       1.52 eA-3
C112 0.810 0.501 0.446 !       1.51 eA-3
C113 0.667 0.243 0.047 !       1.50 eA-3
C114 0.711 0.485 0.494 !       1.45 eA-3
C115 0.250 0.534 0.541 !       1.43 eA-3
Q116 0.487 0.753 0.812 !       1.40 eA-3
C117 0.750 0.245 0.469 !       1.40 eA-3
Q118 0.750 0.529 0.051 !       1.40 eA-3
C119 0.250 0.250 0.086 !       1.35 eA-3
C120 0.782 0.234 0.086 !       1.32 eA-3
C121 0.750 0.955 0.408 !       1.31 eA-3
C122 0.341 0.687 0.642 !       1.30 eA-3
Q123 0.250 0.854 0.336 !       1.27 eA-3
Q124 0.695 0.498 0.357 !       1.26 eA-3
Q125 0.421 0.759 0.422 !       1.25 eA-3
C126 0.316 0.181 0.548 !       1.20 eA-3
C127 0.543 0.598 0.872 !       1.19 eA-3
C128 0.914 0.683 0.019 !       1.18 eA-3
Q129 0.349 0.777 0.361 !       1.18 eA-3
C130 0.376 0.244 0.117 !       1.17 eA-3
C131 0.750 0.594 0.363 !       1.16 eA-3
C132 0.183 0.755 0.562 !       1.16 eA-3
Q133 0.809 0.511 0.303 !       1.16 eA-3
Q134 0.499 0.555 0.138 !       1.14 eA-3
Q135 0.910 0.743 0.344 !       1.14 eA-3
Q136 0.250 0.241 0.695 !       1.10 eA-3
Q137 0.061 0.411 0.302 !       1.09 eA-3
C138 0.424 0.872 0.980 !       1.06 eA-3
Q139 0.379 0.972 0.267 !       1.04 eA-3
Q140 0.427 0.977 0.799 !       1.04 eA-3
Q141 0.750 0.370 0.243 !       1.03 eA-3
Q142 0.318 0.036 0.410 !       1.02 eA-3
Q143 0.174 0.262 0.352 !       1.00 eA-3
C144 0.958 0.490 0.443 !       0.98 eA-3
Q145 0.032 0.494 0.407 !       0.95 eA-3
Q146 0.461 0.752 0.461 !       0.95 eA-3
Q147 0.750 0.879 0.594 !       0.94 eA-3
Q148 0.973 0.429 0.692 !       0.92 eA-3
Q149 0.922 0.477 0.806 !       0.92 eA-3
Q150 0.750 0.464 0.533 !       0.92 eA-3
Q151 0.282 0.036 0.375 !       0.92 eA-3
C152 0.632 0.879 0.000 !       0.91 eA-3
Q153 0.750 0.193 0.538 !       0.90 eA-3
Q154 0.384 0.743 0.312 !       0.90 eA-3
Q155 0.215 0.269 0.391 !       0.90 eA-3
C156 0.649 0.283 0.390 !       0.88 eA-3
C157 0.552 0.593 0.531 !       0.88 eA-3
Q158 0.130 0.498 0.446 !       0.87 eA-3
Q159 0.142 1.010 0.217 !       0.86 eA-3
Q160 0.997 0.411 0.332 !       0.83 eA-3
C161 0.909 0.277 0.492 !       0.83 eA-3
C162 0.632 0.250 0.070 !       0.82 eA-3
Q163 0.579 0.436 0.134 !       0.82 eA-3
C164 0.129 0.057 0.538 !       0.82 eA-3
Q165 0.106 0.443 0.746 !       0.82 eA-3
C166 0.463 0.246 0.500 !       0.81 eA-3
Q167 0.250 0.747 0.055 !       0.80 eA-3
C168 0.505 0.158 0.487 !       0.79 eA-3
Q169 0.518 0.161 0.641 !       0.79 eA-3
Q170 0.596 0.253 0.773 !       0.78 eA-3
C171 0.607 0.249 0.000 !       0.77 eA-3
Q172 0.942 0.756 0.422 !       0.76 eA-3
Q173 0.310 0.557 0.367 !       0.74 eA-3
Q174 0.941 0.156 0.254 !       0.74 eA-3
C175 0.059 0.911 0.548 !       0.73 eA-3
Q176 0.511 0.809 0.168 !       0.73 eA-3
Q177 0.445 0.525 0.321 !       0.73 eA-3
Q178 0.126 0.593 0.673 !       0.73 eA-3
Q179 0.080 0.125 0.663 !       0.71 eA-3
Q180 0.349 0.877 0.059 !       0.71 eA-3
Q181 0.816 0.230 0.602 !       0.71 eA-3
Q182 0.648 0.427 0.530 !       0.71 eA-3
Q183 0.750 0.949 0.173 !       0.70 eA-3
Q184 0.750 0.819 0.230 !       0.70 eA-3
C185 0.633 0.629 0.371 !       0.70 eA-3
C186 0.074 0.525 0.037 !       0.68 eA-3
C187 0.960 0.757 0.453 !       0.68 eA-3
Q188 0.750 0.562 0.815 !       0.67 eA-3
Q189 0.750 0.761 0.750 !       0.67 eA-3
Q190 0.161 0.626 0.709 !       0.66 eA-3
C191 0.910 0.998 0.405 !       0.66 eA-3
Q192 0.511 0.308 0.370 !       0.66 eA-3
Q193 0.410 0.626 0.111 !       0.65 eA-3
Q194 0.750 0.888 0.297 !       0.64 eA-3
Q195 0.750 0.035 0.877 !       0.64 eA-3
Q196 0.408 0.565 0.904 !       0.63 eA-3
Q197 0.750 0.937 0.236 !       0.62 eA-3
Q198 0.410 0.154 0.585 !       0.62 eA-3
Q199 0.600 0.642 0.633 !       0.62 eA-3
)
;
_shelx_fab_checksum              81695
loop_
_space_group_symop_operation_xyz
'x, y, z'
'-x+1/2, -y+1/2, z'
'-y+1/2, x, z+1/2'
'y, -x+1/2, z+1/2'
'-x, y+1/2, -z'
'x+1/2, -y, -z'
'y+1/2, x+1/2, -z+1/2'
'-y, -x, -z+1/2'
'-x, -y, -z'
'x-1/2, y-1/2, -z'
'y-1/2, -x, -z-1/2'
'-y, x-1/2, -z-1/2'
'x, -y-1/2, z'
'-x-1/2, y, z'
'-y-1/2, -x-1/2, z-1/2'
'y, x, z-1/2'
loop_
_atom_site_label
_atom_site_type_symbol
_atom_site_fract_x
_atom_site_fract_y
_atom_site_fract_z
_atom_site_U_iso_or_equiv
_atom_site_adp_type
_atom_site_occupancy
_atom_site_site_symmetry_order
_atom_site_calc_flag
_atom_site_refinement_flags_posn
_atom_site_refinement_flags_adp
_atom_site_refinement_flags_occupancy
_atom_site_disorder_assembly
_atom_site_disorder_group
Sn1 Sn 0.49912(16) 0.750000 0.19518(4) 0.0633(5) Uani 0.35 2 d S T P A 1
In1 In 0.49912(16) 0.750000 0.19518(4) 0.0633(5) Uani 0.65 2 d S T P A 2
Se1 Se 0.750000 0.750000 0.13237(9) 0.0714(9) Uani 0.75 4 d S T P . .
S1 S 0.750000 0.750000 0.13237(9) 0.0714(9) Uani 0.25 4 d S T P . .
Se2 Se 0.5166(2) 0.4834(2) 0.250000 0.0898(8) Uani 0.75 2 d S T P . .
S2 S 0.5166(2) 0.4834(2) 0.250000 0.0898(8) Uani 0.25 2 d S T P . .
Se3 Se 0.250000 0.750000 0.13206(9) 0.0755(10) Uani 0.75 4 d S T P . .
S3 S 0.250000 0.750000 0.13206(9) 0.0755(10) Uani 0.25 4 d S T P . .
loop_
_atom_site_aniso_label
_atom_site_aniso_U_11
_atom_site_aniso_U_22
_atom_site_aniso_U_33
_atom_site_aniso_U_23
_atom_site_aniso_U_13
_atom_site_aniso_U_12
Sn1 0.0501(8) 0.0528(8) 0.0870(9) 0.000 0.0099(5) 0.000
In1 0.0501(8) 0.0528(8) 0.0870(9) 0.000 0.0099(5) 0.000
Se1 0.0442(17) 0.108(3) 0.0620(16) 0.000 0.000 0.000
S1 0.0442(17) 0.108(3) 0.0620(16) 0.000 0.000 0.000
Se2 0.0662(10) 0.0662(10) 0.1370(18) 0.0196(9) 0.0196(9) 0.0081(14)
S2 0.0662(10) 0.0662(10) 0.1370(18) 0.0196(9) 0.0196(9) 0.0081(14)
Se3 0.0506(19) 0.105(3) 0.0708(17) 0.000 0.000 0.000
S3 0.0506(19) 0.105(3) 0.0708(17) 0.000 0.000 0.000
loop_
_atom_type_symbol
_atom_type_description
_atom_type_scat_dispersion_real
_atom_type_scat_dispersion_imag
_atom_type_scat_source
C C 0.0033 0.0016 'International Tables Vol C Tables 4.2.6.8 and 6.1.1.4'
H H 0.0000 0.0000 'International Tables Vol C Tables 4.2.6.8 and 6.1.1.4'
N N 0.0061 0.0033 'International Tables Vol C Tables 4.2.6.8 and 6.1.1.4'
S S 0.1246 0.1234 'International Tables Vol C Tables 4.2.6.8 and 6.1.1.4'
Se Se -0.0929 2.2259 'International Tables Vol C Tables 4.2.6.8 and 6.1.1.4'
In In -0.7276 1.3100 'International Tables Vol C Tables 4.2.6.8 and 6.1.1.4'
Sn Sn -0.6537 1.4246 'International Tables Vol C Tables 4.2.6.8 and 6.1.1.4'
loop_
_geom_angle_atom_site_label_1
_geom_angle_atom_site_label_2
_geom_angle_atom_site_label_3
_geom_angle
_geom_angle_site_symmetry_1
_geom_angle_site_symmetry_3
Se2 Sn1 Se2 112.88(5) 12_666 .
Se2 Sn1 Se3 112.93(4) 12_666 .
Se2 Sn1 Se3 112.93(4) . .
Se2 Sn1 Se1 107.58(5) 12_666 .
Se2 Sn1 Se1 107.58(5) . .
Se3 Sn1 Se1 102.09(6) . .
Se2 In1 Se2 112.88(5) 12_666 .
Se2 In1 Se3 112.93(4) 12_666 .
Se2 In1 Se3 112.93(4) . .
Se2 In1 Se1 107.58(5) 12_666 .
Se2 In1 Se1 107.58(5) . .
Se3 In1 Se1 102.09(6) . .
Sn1 Se1 Sn1 102.42(9) 2_665 .
Sn1 Se2 Sn1 102.21(9) 11_566 .
Sn1 Se3 Sn1 101.75(10) . 2_565
loop_
_geom_bond_atom_site_label_1
_geom_bond_atom_site_label_2
_geom_bond_distance
_geom_bond_site_symmetry_2
Sn1 Se2 2.5196(15) 12_666
Sn1 Se2 2.5196(15) .
Sn1 Se3 2.5289(18) .
Sn1 Se1 2.5348(17) .
In1 Se2 2.5196(15) 12_666
In1 Se2 2.5196(15) .
In1 Se3 2.5289(18) .
In1 Se1 2.5348(17) .
