#------------------------------------------------------------------------------
#$Date: 2021-09-28 01:09:40 +0300 (Tue, 28 Sep 2021) $
#$Revision: 269325 $
#$URL: file:///home/coder/svn-repositories/cod/cif/1/56/47/1564732.cif $
#------------------------------------------------------------------------------
#
# This file is available in the Crystallography Open Database (COD),
# http://www.crystallography.net/
#
# All data on this site have been placed in the public domain by the
# contributors.
#
data_1564732
loop_
_publ_author_name
'Hu, Shuaifeng'
'Truong, Minh Anh'
'Otsuka, Kento'
'Handa, Taketo'
'Yamada, Takumi'
'Nishikubo, Ryosuke'
'Iwasaki, Yasuko'
'Saeki, Akinori'
'Murdey, Richard'
'Kanemitsu, Yoshihiko'
'Wakamiya, Atsushi'
_publ_section_title
;
 Mixed lead--tin perovskite films with &gt;7 \ms charge carrier lifetimes
 realized by maltol post-treatment
;
_journal_name_full               'Chemical Science'
_journal_paper_doi               10.1039/D1SC04221A
_journal_year                    2021
_chemical_formula_moiety         SnBrC6H5O3
_chemical_formula_sum            'C6 H5 Br O3 Sn'
_chemical_formula_weight         323.70
_chemical_name_common            SnBrmaltol
_chemical_name_systematic        SnBrmaltol
_space_group_crystal_system      monoclinic
_space_group_IT_number           14
_space_group_name_Hall           '-P 2ybc'
_space_group_name_H-M_alt        'P 1 21/c 1'
_atom_sites_solution_hydrogens   geom
_audit_creation_method           SHELXL-2018/3
_audit_update_record
;
2021-04-27 deposited with the CCDC.	2021-09-21 downloaded from the CCDC.
;
_cell_angle_alpha                90
_cell_angle_beta                 98.096(2)
_cell_angle_gamma                90
_cell_formula_units_Z            4
_cell_length_a                   9.4057(12)
_cell_length_b                   7.3958(9)
_cell_length_c                   11.7318(14)
_cell_measurement_reflns_used    2772
_cell_measurement_temperature    100(2)
_cell_measurement_theta_max      27.14
_cell_measurement_theta_min      3.27
_cell_volume                     807.96(17)
_computing_cell_refinement       'Bruker SAINT'
_computing_data_collection       'Bruker APEX2'
_computing_data_reduction        'Bruker SAINT'
_computing_molecular_graphics    'Bruker SHELXTL'
_computing_publication_material  'Bruker SHELXTL'
_computing_structure_refinement  'SHELXL-2018/3 (Sheldrick, 2018)'
_computing_structure_solution    'SHELXT 2014/5 (Sheldrick, 2014)'
_diffrn_ambient_temperature      100(2)
_diffrn_measured_fraction_theta_full 0.990
_diffrn_measured_fraction_theta_max 0.904
_diffrn_measurement_device_type  '\f and \w scans'
_diffrn_radiation_type           MoK\a
_diffrn_radiation_wavelength     0.71073
_diffrn_reflns_av_R_equivalents  0.0195
_diffrn_reflns_av_unetI/netI     0.0249
_diffrn_reflns_Laue_measured_fraction_full 0.990
_diffrn_reflns_Laue_measured_fraction_max 0.904
_diffrn_reflns_limit_h_max       12
_diffrn_reflns_limit_h_min       -11
_diffrn_reflns_limit_k_max       8
_diffrn_reflns_limit_k_min       -9
_diffrn_reflns_limit_l_max       14
_diffrn_reflns_limit_l_min       -12
_diffrn_reflns_number            4139
_diffrn_reflns_point_group_measured_fraction_full 0.990
_diffrn_reflns_point_group_measured_fraction_max 0.904
_diffrn_reflns_theta_full        25.242
_diffrn_reflns_theta_max         27.352
_diffrn_reflns_theta_min         3.266
_diffrn_source                   'Bruker Apex-II CCD'
_exptl_absorpt_coefficient_mu    8.060
_exptl_absorpt_correction_T_max  0.447
_exptl_absorpt_correction_T_min  0.359
_exptl_absorpt_correction_type   multi-scan
_exptl_absorpt_process_details   SADABS
_exptl_crystal_colour            colorless
_exptl_crystal_density_diffrn    2.661
_exptl_crystal_density_meas      ?
_exptl_crystal_description       needle
_exptl_crystal_F_000             600
_exptl_crystal_size_max          0.370
_exptl_crystal_size_mid          0.110
_exptl_crystal_size_min          0.100
_exptl_transmission_factor_max   0.7455
_exptl_transmission_factor_min   0.5110
_refine_diff_density_max         0.455
_refine_diff_density_min         -0.425
_refine_diff_density_rms         0.095
_refine_ls_extinction_method     none
_refine_ls_goodness_of_fit_ref   1.039
_refine_ls_hydrogen_treatment    constr
_refine_ls_matrix_type           full
_refine_ls_number_parameters     101
_refine_ls_number_reflns         1662
_refine_ls_number_restraints     0
_refine_ls_restrained_S_all      1.039
_refine_ls_R_factor_all          0.0180
_refine_ls_R_factor_gt           0.0164
_refine_ls_shift/su_max          0.001
_refine_ls_shift/su_mean         0.000
_refine_ls_structure_factor_coef Fsqd
_refine_ls_weighting_details
'w=1/[\s^2^(Fo^2^)+(0.0129P)^2^+0.5566P] where P=(Fo^2^+2Fc^2^)/3'
_refine_ls_weighting_scheme      calc
_refine_ls_wR_factor_gt          0.0366
_refine_ls_wR_factor_ref         0.0371
_reflns_Friedel_coverage         0.000
_reflns_number_gt                1579
_reflns_number_total             1662
_reflns_threshold_expression     'I > 2\s(I)'
_cod_data_source_file            d1sc04221a2.cif
_cod_data_source_block           SnBrMaltol
_cod_depositor_comments
;
The following automatic conversions were performed:

data item '_exptl_absorpt_correction_type' value 'Multi-scan' was
changed to 'multi-scan' in accordance with the
/home/data/users/saulius/crontab/automatic-downloads/rss-feeds/RSC/lib/dictionaries/cif_core.dic
dictionary named 'cif_core.dic' version 2.4.2 last updated on
2011-04-26.

data item '_exptl_crystal_density_meas' value 'not measured' was
changed to '?' -- the value is perceived as not measured.

Automatic conversion script
Id: cif_fix_values 7556 2019-12-06 15:28:31Z antanas 
;
_cod_original_sg_symbol_H-M      'P 21/c'
_cod_database_code               1564732
_shelx_shelxl_version_number     2018/3
_shelx_space_group_comment
;
The symmetry employed for this shelxl refinement is uniquely defined
by the following loop, which should always be used as a source of
symmetry information in preference to the above space-group names.
They are only intended as comments.
;
_shelx_estimated_absorpt_t_min   0.154
_shelx_estimated_absorpt_t_max   0.500
_shelx_res_file
;
TITL SnBrMaltol_0m_a.res in P2(1)/c
    SnBrMaltol_0m.res
    created by SHELXL-2018/3 at 17:25:02 on 27-Apr-2021
CELL 0.71073 9.4057 7.3958 11.7318 90.000 98.096 90.000
ZERR 4.00 0.0012 0.0009 0.0014 0.000 0.002 0.000
LATT 1
SYMM -x, y+1/2, -z+1/2
SFAC C H O BR SN
UNIT 24 20 12 4 4
LIST 6 ! automatically inserted. Change 6 to 4 for CHECKCIF!!
TEMP -173
ACTA
L.S. 30
BOND $H
LIST 6
SIZE 0.10 0.11 0.37
FMAP 2
PLAN 2
WGHT    0.012900    0.556600
FVAR       0.46055
SN1   5    0.530627    0.232258    0.204527    11.00000    0.01158    0.01078 =
         0.01188    0.00001    0.00360    0.00041
BR1   4    0.709942    0.387696    0.380264    11.00000    0.01551    0.01599 =
         0.01730   -0.00017   -0.00136   -0.00250
O1    3    0.349505    0.391723    0.245057    11.00000    0.01282    0.01217 =
         0.01288    0.00143    0.00440    0.00107
O2    3    0.092587    0.315426    0.441763    11.00000    0.01236    0.02123 =
         0.01573    0.00144    0.00587   -0.00029
O3    3    0.450853    0.087386    0.350671    11.00000    0.01312    0.01220 =
         0.01435    0.00042    0.00466    0.00098
C1    1    0.280614    0.319853    0.326274    11.00000    0.01190    0.01188 =
         0.01123   -0.00245    0.00207   -0.00327
C2    1    0.158223    0.393878    0.357617    11.00000    0.01341    0.01695 =
         0.01269   -0.00075    0.00270   -0.00338
C3    1    0.148016    0.167620    0.495923    11.00000    0.01677    0.01841 =
         0.01574    0.00353    0.00390   -0.00262
AFIX  43
H1    2    0.101882    0.119606    0.556289    11.00000   -1.20000
AFIX   0
C4    1    0.265876    0.082649    0.469711    11.00000    0.01686    0.01461 =
         0.01300    0.00159    0.00144   -0.00017
AFIX  43
H2    2    0.300209   -0.024473    0.509003    11.00000   -1.20000
AFIX   0
C5    1    0.337356    0.157125    0.382026    11.00000    0.01183    0.01093 =
         0.01149   -0.00363    0.00021   -0.00345
C6    1    0.082576    0.559177    0.309604    11.00000    0.01416    0.02264 =
         0.02208    0.00441    0.00592    0.00571
AFIX 137
H5    2   -0.020667    0.534823    0.292781    11.00000   -1.50000
H4    2    0.119100    0.594159    0.238554    11.00000   -1.50000
H3    2    0.099373    0.657637    0.365791    11.00000   -1.50000

AFIX   0
HKLF 4 1 1 0 0 0 1 0 0 0 1




REM  SnBrMaltol_0m_a.res in P2(1)/c
REM wR2 = 0.0371, GooF = S = 1.039, Restrained GooF = 1.039 for all data
REM R1 = 0.0164 for 1579 Fo > 4sig(Fo) and 0.0180 for all 1662 data
REM 101 parameters refined using 0 restraints

END

WGHT      0.0129      0.5566

REM Highest difference peak  0.455,  deepest hole -0.425,  1-sigma level  0.095
Q1    1   0.2925  0.2127  0.3407  11.00000  0.05    0.45
Q2    1   0.7199  0.4925  0.3649  11.00000  0.05    0.44
;
_shelx_res_checksum              26367
_shelx_hkl_file
;
  -2   0   0  234.38    7.40
  -3   0   0  645.74   18.20
  -4   0   0 3273.07   81.69
  -5   0   0 9999.00  242.48
   7   0   0  526.55   18.50
   8   0   0  163.28    9.70
   9   0   0  122.09    8.90
  10   0   0    8.30    4.30
   0  -1   0    2.10    0.70
   0   1   0    0.60    0.40
   1  -1   0   88.79    3.70
  -1  -1   0   83.79    3.40
   1   1   0   84.59    3.10
   1   1   0   89.79    2.40
  -2  -1   0 1970.70   50.59
   2  -1   0 2047.60   50.89
   2   1   0 2097.39   49.90
   3  -1   0   71.09    4.00
  -3  -1   0   65.09    3.90
   3   1   0   69.19    3.30
   4  -1   0  829.72   23.60
  -4  -1   0  814.12   23.50
   5  -1   0 4064.99  101.09
  -5  -1   0 4004.20  100.89
  -6  -1   0 4039.20  102.09
   6  -1   0 4052.49  102.39
   7  -1   0 2275.07   62.29
  -7  -1   0 2364.16   62.19
  -8  -1   0  598.04   21.20
   8  -1   0  566.94   21.10
   9  -1   0  556.54   21.50
  10  -1   0 1436.26   44.60
  10   1   0 1414.76   43.20
  11  -1   0 1661.23   51.49
   0  -2   0 4523.55  109.59
   0   2   0 4456.35  108.49
   1  -2   0 4380.46  106.79
  -1  -2   0 4255.87  106.29
   1   2   0 4424.26  105.39
   2  -2   0 4754.02  116.29
  -2  -2   0 4715.83  115.49
   2   2   0 4728.43  114.59
   3  -2   0 3841.12   96.09
  -3  -2   0 3727.23   95.19
   3   2   0 3983.70   92.89
   3   2   0 3862.21   94.09
   4  -2   0 1363.86   36.90
  -4  -2   0 1292.17   36.00
   4   2   0 1333.07   34.70
  -5  -2   0  909.21   26.80
   5  -2   0  889.51   27.30
   5   2   0  927.91   25.30
   6  -2   0  430.26   16.50
  -6  -2   0  440.06   16.00
   6   2   0  437.96   14.30
  -7  -2   0  208.98   10.50
   7  -2   0  217.48   11.30
   7   2   0  200.58    8.80
   8  -2   0   20.00    4.80
  -8  -2   0   29.30    5.00
   8   2   0   25.10    6.20
   8   2   0   28.30    4.00
  -9  -2   0   81.09    8.30
   9  -2   0   73.99    8.80
   9   2   0   74.79    6.60
  10  -2   0  105.39   10.60
  11  -2   0  166.88   13.30
   0  -3   0    1.70    1.50
   1  -3   0  131.09    6.80
  -1  -3   0  122.69    6.40
   1   3   0  135.89    5.70
  -2  -3   0  488.45   15.90
   2  -3   0  513.05   16.70
   2   3   0  483.75   14.80
  -3  -3   0 3441.76   86.59
   3  -3   0 3448.56   87.69
   3   3   0 3383.96   85.09
   3   3   0 3470.45   82.29
  -4  -3   0 5915.31  148.49
   4  -3   0 6012.40  149.88
   4   3   0 5982.40  146.99
   4   3   0 6188.78  144.59
   5  -3   0  959.60   29.20
  -5  -3   0  936.01   27.90
   5   3   0  898.11   24.20
   5   3   0  894.61   26.00
  -6  -3   0  298.27   12.80
   6  -3   0  289.87   13.60
   6   3   0  283.57   11.10
   7  -3   0 1840.32   52.49
  -7  -3   0 1785.22   50.59
   7   3   0 1798.12   48.40
   8  -3   0 3214.78   86.99
  -8  -3   0 3203.58   84.89
   8   3   0 3178.58   82.19
   9  -3   0 2941.61   82.29
  -9  -3   0 2963.50   80.09
   9   3   0 2961.70   77.09
  10  -3   0  341.37   18.30
  11  -3   0   23.10    6.80
   0  -4   0   88.59    6.10
  -1  -4   0 1463.25   41.10
   1  -4   0 1480.55   41.70
   1   4   0 1506.35   39.30
  -2  -4   0 7494.05  183.98
   2  -4   0 7385.96  184.98
   2   4   0 7610.14  182.28
   3  -4   0 4204.78  111.49
  -3  -4   0 4469.85  110.29
   3   4   0 4471.15  108.79
   4  -4   0  532.55   19.70
  -4  -4   0  506.15   18.20
   4   4   0  545.85   17.20
   5  -4   0   38.40    5.90
  -5  -4   0   43.60    5.60
   5   4   0   34.20    4.20
  -6  -4   0  162.08    9.40
   6  -4   0  137.99   10.10
   6   4   0  134.39    7.80
   7  -4   0 1137.09   37.30
  -7  -4   0 1122.69   35.20
   7   4   0 1126.19   33.10
  -8  -4   0   87.69    8.90
   8  -4   0  109.29   11.20
   8   4   0   95.29    7.80
   9  -4   0  360.46   18.90
   9   4   0  340.87   14.70
  10  -4   0  299.77   18.30
   0  -5   0    2.00    2.50
   1  -5   0   46.10    6.00
  -1  -5   0   50.79    6.10
   2  -5   0   48.90    6.30
  -2  -5   0   43.20    5.70
   2   5   0   41.10    4.60
  -3  -5   0 1385.56   40.20
   3  -5   0 1379.66   41.80
   3   5   0 1393.66   38.50
  -4  -5   0  973.90   30.00
   4  -5   0  928.51   31.40
   4   5   0  897.21   27.80
  -5  -5   0  401.36   16.70
   5  -5   0  400.26   18.10
   5   5   0  403.36   15.30
  -6  -5   0  498.35   19.50
   6  -5   0  462.35   20.70
   6   5   0  481.85   17.70
   7  -5   0  949.71   33.70
  -7  -5   0  911.61   31.10
   7   5   0  916.11   29.00
   8  -5   0 1428.36   47.80
  -8  -5   0 1493.35   54.89
   8   5   0 1487.35   42.80
   9  -5   0  795.52   31.70
   9   5   0  742.33   26.00
   0  -6   0 2763.32   75.29
   1  -6   0 2040.30   58.69
  -1  -6   0 2051.49   57.89
  -2  -6   0  564.44   21.70
   2  -6   0  599.94   23.00
   2   6   0  607.24   20.30
   3  -6   0  446.86   19.70
  -3  -6   0  464.55   18.60
   3   6   0  445.66   16.90
   4  -6   0 1048.30   36.00
  -4  -6   0 1079.09   34.00
   4   6   0 1044.50   32.10
  -5  -6   0  625.54   24.10
   5  -6   0  687.53   26.80
   5   6   0  672.33   22.80
  -6  -6   0  102.09   10.20
   6  -6   0   93.89   10.60
   6   6   0   89.09    8.20
   7  -6   0    8.10    5.00
  -7  -6   0   26.20    5.90
   7   6   0   20.40    4.70
   8  -6   0   35.00    8.40
   8   6   0   23.60    5.30
   9   6   0    2.70    3.80
   0  -7   0    1.40    4.00
   1  -7   0  881.71   31.40
  -1  -7   0  844.82   30.50
  -2  -7   0  323.27   16.10
   2  -7   0  334.27   17.30
   3  -7   0   16.00    5.60
  -3  -7   0   11.80    4.70
   3   7   0   15.40    4.20
  -4  -7   0   37.70    7.00
   4  -7   0   25.80    6.70
   4   7   0   26.80    5.10
   5  -7   0  692.73   29.10
  -5  -7   0  720.03   26.90
   5   7   0  705.43   25.00
   6  -7   0 1836.92   59.09
  -6  -7   0 1949.41   56.49
   6   7   0 1795.52   53.29
   7  -7   0  450.05   23.90
   7   7   0  435.16   19.00
   0  -8   0 1115.89   39.00
  -1  -8   0  868.71   32.30
   1  -8   0  849.02   32.60
  -2  -8   0   18.50    6.00
   2  -8   0   25.80    7.10
   3  -8   0   24.50    7.60
  -3  -8   0   42.40    7.70
  -4  -8   0  470.85   21.50
   4  -8   0  435.36   22.90
  -5  -8   0  372.56   19.20
   5  -8   0  376.06   23.40
   5   8   0  363.36   17.20
   0  -9   0    0.60    5.10
   1  -9   0   73.29   12.40
  -1  -9   0   77.99   11.00
  -2  -9   0   38.60    8.30
  -3  -9   0   50.99   10.00
  11   0  -1    2.10    4.10
  10   0  -1   -2.20    3.20
   9   0  -1    0.60    3.10
   8   0  -1    2.30    2.80
  -6   0   1   -1.50    1.80
  -5   0   1    0.30    1.60
  -4   0   1   -1.00    1.10
  -3   0   1    3.90    1.50
  -2   0   1    0.10    0.80
  -1   0   1    5.00    1.00
  -1   0   1    0.70    0.40
   0   0   1    0.90    0.30
   0   0   1    2.10    0.30
   0   0  -1    0.30    0.20
   1   0   1    1.60    0.40
   1   0   1    2.20    0.60
   5   0   1    0.90    1.40
   6   0   1    5.20    2.20
   7   0   1    1.60    2.00
   8   0   1   -0.80    2.30
   9   0   1    0.10    2.70
  10   0   1   -1.50    3.50
  11   0   1   -0.20    3.90
  12  -1  -1   34.50    7.70
  11  -1  -1  139.39   11.90
  11   1  -1  147.69   11.20
  10  -1  -1  219.18   13.40
  -9  -1   1  644.04   23.50
   9  -1  -1  565.34   22.70
  -8  -1   1  146.39    9.40
   8  -1  -1  157.58   10.10
   8   1  -1  137.39    6.90
  -7  -1   1  246.58   11.90
   7  -1  -1  283.67   12.90
   7   1  -1  239.58    9.30
   6  -1  -1  387.96   15.10
  -6  -1   1  391.66   15.00
   5  -1  -1  135.19    7.40
  -5  -1   1  124.69    7.10
   5   1  -1  130.89    5.40
   4  -1  -1  447.46   14.80
  -4  -1   1  448.96   14.70
   4   1  -1  428.06   12.50
  -3  -1   1  149.29    6.70
   3  -1  -1  177.38    7.20
   3   1  -1  158.78    5.30
  -2  -1   1 1618.34   41.60
   2  -1  -1 1694.73   41.70
   2   1  -1 1610.84   40.20
  -1  -1   1  306.27    8.10
   1  -1  -1  323.87    9.30
  -1  -1   1  311.07    9.30
   1   1  -1  316.97    8.50
  -1   1   1  324.67    9.00
   0  -1   1  641.14   17.00
   0  -1  -1  669.93   16.70
   0  -1   1  629.94   16.20
   0   1   1  626.34   16.30
   0   1   1  655.43   16.30
   1  -1   1   64.09    3.00
  -1  -1  -1   54.79    2.50
   1   1   1   60.09    2.40
   1   1   1   59.89    2.60
  -2  -1  -1   15.00    1.70
   2  -1   1   15.00    1.80
   2   1   1   15.90    1.50
  -3  -1  -1 1751.52   46.10
   3  -1   1 1849.52   46.70
   3   1   1 1899.81   46.00
   4  -1   1   26.70    3.20
  -4  -1  -1   37.80    3.60
   4   1   1   20.70    2.60
  -5  -1  -1 1142.79   31.90
   5  -1   1 1177.28   32.40
  -6  -1  -1  249.68   10.50
   6  -1   1  260.57   10.90
   7  -1   1  146.39    8.30
  -7  -1  -1  134.29    7.90
   7   1   1  129.09    7.70
   8  -1   1  718.13   24.50
   8   1   1  712.23   23.70
   9  -1   1    0.60    3.10
   9   1   1    1.30    2.80
   9   1   1    1.50    3.00
  10  -1   1  201.38   12.40
  10   1   1  175.98   11.30
  11  -1   1   14.10    5.70
  11  -2  -1   89.09   11.10
  10  -2  -1  518.95   22.70
 -10  -2   1  536.75   22.10
   9  -2  -1  191.68   12.40
  -9  -2   1  207.18   12.20
  -8  -2   1  372.76   16.10
   8  -2  -1  368.86   16.80
   8   2  -1  357.86   13.10
  -7  -2   1  151.58    9.10
   7  -2  -1  137.39    9.30
   7   2  -1  123.39    6.50
   6  -2  -1 1028.50   30.60
  -6  -2   1  921.21   29.20
   6   2  -1  951.00   26.60
  -5  -2   1  851.71   25.90
   5  -2  -1  905.61   26.70
   5   2  -1  802.42   23.20
  -4  -2   1  438.06   15.00
   4  -2  -1  438.06   15.30
   4   2  -1  443.16   13.10
   3  -2  -1 4229.98  105.39
  -3  -2   1 4194.18  104.89
   3   2  -1 4301.87  103.19
  -2  -2   1  915.51   25.40
   2  -2  -1  957.10   25.90
   2   2  -1  908.61   22.40
   2   2  -1  925.51   24.10
  -1  -2   1 1419.26   37.70
  -1  -2   1 1503.35   35.00
   1  -2  -1 1437.66   37.80
   1   2  -1 1444.46   36.50
   0  -2   1  628.24   17.90
   0  -2  -1  638.34   17.70
   0   2   1  609.04   16.70
   0   2   1  615.44   16.20
   1  -2   1 3294.37   81.79
  -1  -2  -1 3329.27   81.09
   1   2   1 3268.97   80.39
   1   2   1 3299.67   79.39
   2  -2   1 8042.90  194.78
   3  -2   1  314.47   11.30
  -3  -2  -1  309.37   10.40
   3   2   1  306.67   10.10
   3   2   1  303.37    9.20
   4  -2   1  357.46   13.20
  -4  -2  -1  359.76   12.40
   4   2   1  385.96   12.10
   4   2   1  369.56   11.30
  -5  -2  -1   24.30    3.50
   5  -2   1   18.70    3.40
   5   2   1   17.20    2.50
   5   2   1   19.50    2.90
   6  -2   1  942.11   29.60
  -6  -2  -1  968.80   28.70
   6   2   1 1000.90   28.00
   6   2   1  981.00   27.40
  -7  -2  -1 1043.80   31.40
   7  -2   1 1011.80   32.50
   7   2   1 1087.39   30.60
   7   2   1 1082.79   30.40
  -8  -2  -1  107.09    7.60
   8  -2   1  109.59    8.60
   8   2   1  101.99    7.20
   8   2   1  107.09    7.20
   9  -2   1  498.75   20.90
   9   2   1  521.75   18.60
  10  -2   1   19.60    5.60
  10   2   1   11.20    3.70
  11  -3  -1   42.00    8.90
  10  -3  -1  305.87   17.50
 -10  -3   1  296.57   15.80
  -9  -3   1  574.44   22.70
   9  -3  -1  575.74   24.10
   9   3  -1  545.65   22.10
   8  -3  -1  205.78   12.90
  -8  -3   1  214.38   12.20
   8   3  -1  218.88    9.80
   7  -3  -1    0.40    3.00
  -7  -3   1    6.90    3.30
   7   3  -1    3.50    2.00
   6  -3  -1    8.20    3.50
  -6  -3   1    7.40    3.00
   6   3  -1    6.60    2.20
  -5  -3   1  878.61   27.50
   5  -3  -1  877.41   28.40
   5   3  -1  883.81   23.50
   5   3  -1  922.61   25.30
  -4  -3   1 1361.66   37.90
   4   3  -1 1348.77   33.30
   4   3  -1 1342.67   35.80
   3  -3  -1  214.28    9.80
  -3  -3   1  200.68    9.10
   3   3  -1  216.38    8.10
   2  -3  -1   73.39    5.20
  -2  -3   1   66.79    4.80
   2   3  -1   69.99    4.00
   1  -3  -1    3.70    1.90
  -1  -3   1    6.70    2.00
  -1  -3   1    4.80    0.70
   1   3  -1    5.00    1.40
   0  -3   1  631.44   19.90
   0  -3  -1  668.93   19.80
   0   3   1  660.73   18.50
   1  -3   1   93.59    5.80
  -1  -3  -1   90.29    5.20
   1   3   1   91.09    3.40
   1   3   1   89.79    4.60
  -2  -3  -1   31.10    3.50
   2  -3   1   41.70    4.60
   2   3   1   41.20    2.00
   2   3   1   36.50    3.30
  -3  -3  -1  691.93   20.50
   3  -3   1  667.83   21.60
   3   3   1  670.83   19.70
   3   3   1  680.73   17.80
  -4  -3  -1   50.89    4.40
   4  -3   1   69.79    5.80
   4   3   1   60.49    3.20
   4   3   1   58.99    4.80
  -5  -3  -1  108.29    6.60
   5  -3   1  123.89    7.80
   5   3   1  118.29    6.40
   5   3   1  107.69    5.10
   6  -3   1  124.49    8.70
  -6  -3  -1  146.39    8.10
   6   3   1  148.29    7.60
  -7  -3  -1  354.46   14.40
   7  -3   1  346.37   15.80
   7   3   1  349.47   13.50
  -8  -3  -1  505.85   25.40
   8  -3   1  491.95   20.60
   8   3   1  492.75   17.80
   9  -3   1   72.99    9.30
   9   3   1   69.89    7.00
  10  -3   1    3.70    4.60
  10   3   1    9.40    3.60
  10  -4  -1   -2.20    4.60
   9  -4  -1  133.39   13.10
  -9  -4   1  136.19   10.90
   9   4  -1  118.39   10.60
  -8  -4   1   33.70    6.10
   8  -4  -1   32.50    7.10
   8   4  -1   28.30    4.50
  -7  -4   1   49.00    6.70
   7  -4  -1   52.59    7.70
   7   4  -1   61.29    6.00
   6  -4  -1  585.74   22.80
  -6  -4   1  576.54   21.40
   6   4  -1  595.84   19.20
   5  -4  -1  469.55   19.00
  -5  -4   1  467.05   17.90
   5   4  -1  481.35   16.00
   4  -4  -1    5.50    2.90
  -4  -4   1   10.00    3.00
   4   4  -1    3.70    2.10
   3  -4  -1   16.00    3.80
   3   4  -1   17.10    2.80
  -2  -4   1  137.69    7.90
   2  -4  -1  127.59    8.00
   2   4  -1  129.19    6.40
  -1  -4   1 1741.93   42.40
   1  -4  -1 1740.23   47.60
  -1  -4   1 1724.93   47.40
   0  -4   1  564.34   19.10
   0  -4  -1  584.84   19.00
   0   4   1  537.15   17.00
   1  -4   1  304.77   12.60
  -1  -4  -1  315.47   12.30
   1   4   1  290.87   10.80
  -2  -4  -1   83.59    5.80
   2  -4   1   69.19    5.90
   2   4   1   80.79    5.20
  -3  -4  -1  261.37   11.10
   3  -4   1  272.07   12.30
   3   4   1  269.57   10.50
  -4  -4  -1  890.91   27.10
   4  -4   1  898.91   28.90
   4   4   1  911.31   26.40
   5  -4   1   10.60    3.80
  -5  -4  -1   15.90    3.40
   5   4   1   12.90    3.00
   6  -4   1  142.99   10.00
   6   4   1  132.89    8.00
  -7  -4  -1   87.09    7.30
   7  -4   1   65.39    8.10
   7   4   1   91.69    7.40
   8  -4   1   35.30    6.60
   8   4   1   38.80    5.40
   9  -4   1  103.09   11.20
   9   4   1  117.79    9.40
  10  -4   1   31.70    7.60
  10   4   1   41.10    6.10
   9  -5  -1   27.90    7.80
  -9  -5   1   43.60    7.60
   9   5  -1   54.29    9.20
  -8  -5   1   97.69   10.00
   8  -5  -1  109.69   12.40
   8   5  -1  117.19    8.40
  -7  -5   1 1504.15   45.30
   7  -5  -1 1401.16   47.00
   7   5  -1 1511.75   42.20
   6  -5  -1 1432.76   45.20
  -6  -5   1 1448.56   43.20
   6   5  -1 1378.86   40.10
   5  -5  -1  602.34   24.00
  -5  -5   1  630.64   22.70
   5   5  -1  614.94   20.50
  -4  -5   1   11.20    3.60
   4  -5  -1    8.10    3.80
   4   5  -1   10.40    2.90
   3  -5  -1  305.87   14.60
  -3  -5   1  305.37   13.70
   3   5  -1  298.57   12.00
  -2  -5   1 2505.85   67.19
   2  -5  -1 2526.75   68.19
   2   5  -1 2466.75   64.69
   1  -5  -1  769.22   25.70
  -1  -5   1  765.82   25.50
   0  -5  -1   72.49    7.30
   0  -5   1   76.69    7.60
   1  -5   1  425.96   17.20
  -1  -5  -1  421.86   16.50
   1   5   1  430.36   14.90
  -2  -5  -1   71.09    6.20
   2  -5   1   83.59    8.40
   2   5   1   89.09    6.00
   3  -5   1  476.05   19.20
  -3  -5  -1  468.75   17.50
   3   5   1  478.05   16.70
  -4  -5  -1   21.40    4.10
   4  -5   1   10.90    4.00
   4   5   1   18.50    3.80
   5  -5   1 1912.31   56.49
  -5  -5  -1 1946.21   54.09
   5   5   1 1962.60   52.89
  -6  -5  -1 2058.39   57.19
   6  -5   1 2016.10   59.79
   6   5   1 2065.69   55.89
   7  -5   1    5.20    4.50
   7   5   1   11.00    3.60
   8  -5   1   13.80    5.50
   8   5   1   13.60    4.00
   9  -5   1  255.67   16.70
   9   5   1  259.87   13.50
  10   5   1  836.62   29.30
  -8  -6   1  371.56   18.70
   8  -6  -1  339.27   20.30
   8   6  -1  349.67   15.90
   7  -6  -1   79.89   10.70
  -7  -6   1  104.39   10.80
   7   6  -1   95.59    8.60
  -6  -6   1  432.76   19.20
   6  -6  -1  410.46   20.40
   6   6  -1  408.36   16.60
   5  -6  -1  761.42   29.80
  -5  -6   1  827.42   28.50
   5   6  -1  797.72   26.00
   4  -6  -1   -0.10    3.30
  -4  -6   1   -1.80    2.80
   4   6  -1    0.40    2.50
  -3  -6   1   53.79    6.70
   3  -6  -1   44.40    6.90
   3   6  -1   69.09    6.60
  -2  -6   1  260.07   13.50
   2  -6  -1  260.87   13.90
   1  -6  -1 2427.56   67.39
  -1  -6   1 2415.66   67.09
   0  -6   1 2504.65   69.49
   0  -6  -1 2527.45   69.29
  -1  -6  -1  114.99    8.70
   1  -6   1  101.39    8.90
   2  -6   1    6.00    4.00
  -2  -6  -1    4.30    3.20
   2   6   1    3.10    2.60
   3  -6   1  640.54   25.00
  -3  -6  -1  629.54   23.00
   3   6   1  662.93   22.00
  -4  -6  -1 2004.30   56.79
   4  -6   1 2032.50   59.59
   4   6   1 2026.70   55.49
   5  -6   1  654.93   26.50
  -5  -6  -1  683.53   24.50
   5   6   1  661.93   23.20
   6  -6   1   10.20    5.30
  -6  -6  -1    4.30    3.70
   6   6   1   12.40    4.10
   7  -6   1    3.60    5.20
   7   6   1    3.30    3.50
   8  -6   1  107.89   12.80
   8   6   1  119.09   10.30
   8   7  -1  323.07   16.20
   7  -7  -1  650.43   30.10
  -7  -7   1  673.23   27.30
   7   7  -1  645.14   24.20
  -6  -7   1  752.12   29.10
   6  -7  -1  735.53   31.00
   6   7  -1  795.12   26.90
  -5  -7   1  404.46   19.00
   5  -7  -1  378.26   20.30
   5   7  -1  398.26   16.70
  -4  -7   1   60.39    8.10
   4  -7  -1   64.29    9.40
   4   7  -1   76.89    8.10
   3  -7  -1  370.06   18.70
  -3  -7   1  363.46   17.50
   2  -7  -1  410.56   19.50
  -2  -7   1  422.46   19.20
   1  -7  -1  200.88   13.30
  -1  -7   1  232.48   13.80
   0  -7  -1   16.70    4.90
   0  -7   1   20.70    5.80
  -1  -7  -1   42.80    6.70
   1  -7   1   37.40    7.20
   2  -7   1    2.80    4.30
  -2  -7  -1    3.40    3.80
   2   7   1    2.30    3.00
  -3  -7  -1   14.80    4.80
   3  -7   1   14.30    5.00
   3   7   1   16.60    4.20
  -4  -7  -1  130.69   10.20
   4  -7   1  138.49   13.80
   4   7   1  145.09    9.80
   5  -7   1  258.97   16.90
  -5  -7  -1  296.47   15.20
   5   7   1  274.37   14.10
   6  -7   1  204.18   15.60
   6   7   1  240.28   13.10
   7  -7   1  113.29   13.80
   7   7   1  120.19   10.70
  -6  -8   1  133.39   13.10
  -5  -8   1   55.89    8.50
   5  -8  -1   55.99   10.40
   4  -8  -1  381.76   20.90
  -4  -8   1  393.16   19.70
  -3  -8   1 1166.88   39.00
   3  -8  -1 1071.89   39.80
  -2  -8   1  591.44   25.00
   2  -8  -1  551.44   25.20
   1  -8  -1  211.88   14.70
  -1  -8   1  214.18   14.60
   0  -8   1  240.48   15.40
   0  -8  -1  227.08   15.00
  -1  -8  -1 1116.69   39.00
   1  -8   1 1188.28   40.70
   2  -8   1 1855.41   57.39
  -2  -8  -1 1784.42   55.19
   3  -8   1  686.63   29.20
  -3  -8  -1  677.43   27.00
   4  -8   1  230.18   16.10
  -4  -8  -1  220.98   14.60
   4   8   1  231.38   13.50
   5   8   1  381.26   21.50
  -1  -9   1   15.10    7.00
   1  -9  -1   16.00    6.40
   0  -9  -1  482.25   24.00
   0  -9   1  521.65   34.30
  -1  -9  -1  253.57   16.70
  -2  -9  -1  162.28   13.80
  -3  -9  -1  486.25   23.30
  12   0  -2  664.43   29.60
  11   0  -2   74.19    9.50
  10   0  -2  520.15   21.90
   9   0  -2 1960.90   56.39
  -7   0   2   40.30    5.80
  -6   0   2  476.05   17.50
  -5   0   2   15.50    3.40
  -4   0   2  552.74   17.80
  -3   0   2 1156.98   31.60
   2   0   2 3150.88   76.49
   2   0   2 3080.39   75.19
   4   0   2 9054.59  218.98
   5   0   2 1634.64   42.50
   5   0   2 1606.14   43.50
   6   0   2  640.74   21.40
   6   0   2  703.03   21.00
   7   0   2 1516.35   42.00
   7   0   2 1416.86   40.50
   8   0   2 2579.74   67.89
   8   0   2 2439.86   66.29
   9   0   2  677.43   24.50
  10   0   2   29.90    6.20
  11   0   2  525.35   22.70
  12   1  -2  370.06   19.80
  11  -1  -2  379.76   19.60
  11   1  -2  422.96   19.50
  10  -1  -2  134.19   10.90
 -10  -1   2  146.59   11.60
  -9  -1   2  253.77   13.90
   9  -1  -2  265.47   14.70
   8  -1  -2 2503.85   67.99
  -8  -1   2 2386.16   67.09
  -7  -1   2 4131.79  107.29
   7  -1  -2 4176.58  107.79
   7   1  -2 4211.58  102.59
   6  -1  -2 3347.17   88.19
  -6  -1   2 3379.06   88.09
   6   1  -2 3479.15   83.69
  -5  -1   2  889.61   27.30
   5  -1  -2  909.11   27.40
   5   1  -2  896.01   23.60
  -4  -1   2 2558.34   67.39
   4  -1  -2 2662.83   67.69
   4   1  -2 2656.53   64.09
   2  -1  -2 5277.17  128.19
  -2   1   2 5265.87  127.69
  -1  -1   2 1872.01   48.30
  -1  -1   2 1925.31   47.40
   1  -1  -2 1949.01   48.10
  -1   1   2 1935.21   48.10
  -1   1   2 2018.20   47.00
   0  -1  -2  647.44   16.60
   0  -1   2  656.03   17.30
   0  -1   2  635.74   16.90
   0   1   2  642.54   17.10
   0   1   2  642.74   16.50
   1  -1   2  194.78    6.60
  -1  -1  -2  194.18    5.50
   1  -1   2  186.28    6.40
   1   1   2  197.38    6.40
   2  -1   2 5594.14  133.69
   2  -1   2 5332.27  133.99
   2   1   2 5656.33  133.49
  -3  -1  -2  137.29    5.20
   3  -1   2  136.09    5.80
   3  -1   2  142.19    6.30
   3   1   2  129.49    5.60
  -4  -1  -2  685.33   19.50
   4  -1   2  712.23   20.40
   4   1   2  705.83   20.20
   5  -1   2 2875.41   74.59
  -5  -1  -2 2863.61   73.69
   5   1   2 3105.99   74.69
   6  -1   2  857.31   25.80
  -6  -1  -2  874.31   25.20
   6   1   2  854.21   25.60
   7  -1   2   14.20    3.40
   7   1   2   11.90    3.20
   8  -1   2  628.44   22.70
   8  -1   2  611.04   21.70
   8   1   2  603.54   21.50
   8   1   2  656.93   27.30
   9  -1   2 1972.50   65.19
   9  -1   2 1959.10   57.19
   9   1   2 2038.20   55.89
  10  -1   2 1653.73   49.80
  10   1   2 1620.94   48.30
  11  -1   2  416.76   20.10
  11   1   2  388.66   20.30
 -11  -2   2  972.10   34.60
  11  -2  -2  934.71   35.40
 -10  -2   2  748.13   28.10
  10  -2  -2  753.32   29.40
   9  -2  -2  313.97   16.70
  -9  -2   2  313.07   15.60
   8  -2  -2  299.87   15.20
  -8  -2   2  291.27   14.40
   8   2  -2  299.57   11.20
  -7  -2   2  384.56   16.20
   7  -2  -2  380.66   16.60
   7   2  -2  382.56   12.70
  -6  -2   2  151.28    9.00
   6  -2  -2  171.98    9.80
   6   2  -2  168.18    6.90
   5  -2  -2    8.10    2.80
  -5  -2   2    9.90    3.00
   5   2  -2    8.40    1.70
   4  -2  -2 1638.34   44.00
  -4  -2   2 1550.74   43.20
   4   2  -2 1601.04   40.50
  -3  -2   2  905.81   26.60
   3  -2  -2  964.20   27.00
   3   2  -2  931.81   24.40
  -2  -2   2  636.04   16.20
   2  -2  -2  638.54   18.90
  -2  -2   2  647.14   18.90
   2   2  -2  622.54   17.10
   1  -2  -2 2722.33   66.29
  -1  -2   2 2621.74   66.49
  -1  -2   2 2722.23   64.29
  -1   2   2 2573.34   65.39
  -1   2   2 2614.34   64.79
   0  -2   2 2663.93   65.79
   0  -2   2 2649.24   63.99
   0  -2  -2 2650.73   64.99
   0   2   2 2599.84   64.29
   0   2   2 2537.75   64.29
   1  -2   2 7898.31  190.98
   2  -2   2 3898.71   95.29
  -2  -2  -2 3832.22   93.59
   2   2   2 3794.12   94.09
   2   2   2 3847.61   93.49
  -3  -2  -2 2663.73   67.09
   3  -2   2 2750.32   68.79
   3   2   2 2756.02   67.79
   3   2   2 2655.63   66.79
  -4  -2  -2 2861.41   74.49
   4  -2   2 2968.70   76.19
   4   2   2 3061.49   74.29
   4   2   2 3068.09   75.19
  -5  -2  -2 2029.60   53.79
   5  -2   2 2121.39   55.59
   5   2   2 2061.09   53.49
   5   2   2 2138.89   54.39
  -6  -2  -2 1969.60   54.19
   6  -2   2 2131.59   56.29
   6   2   2 2093.59   54.09
   6   2   2 2122.09   54.79
   7  -2   2  695.13   24.00
  -7  -2  -2  686.43   22.20
   7   2   2  714.03   22.60
   7   2   2  736.83   22.30
   8  -2   2  374.36   16.30
   8   2   2  393.06   15.00
   8   2   2  356.56   14.50
   9  -2   2  164.98   11.20
   9   2   2  165.58    9.80
  10  -2   2   64.59    9.30
  10   2   2   70.89    7.60
  11   2   2   26.00    5.70
 -11  -3   2   42.30    8.00
  11  -3  -2   23.30    7.30
  10  -3  -2  621.74   26.90
 -10  -3   2  594.84   24.80
  -9  -3   2 1683.33   50.49
   9  -3  -2 1650.43   52.09
  -8  -3   2  601.54   22.80
   8  -3  -2  590.04   23.90
   8   3  -2  568.24   18.90
  -7  -3   2  215.68   11.70
   7  -3  -2  205.38   12.40
   7   3  -2  209.08    9.00
   6  -3  -2 2325.27   64.29
  -6  -3   2 2301.97   62.99
   6   3  -2 2316.47   59.29
   5  -3  -2 4806.52  119.69
  -5  -3   2 4469.55  118.19
   5   3  -2 4771.02  115.09
  -4  -3   2 5604.44  138.99
   4   3  -2 5556.34  135.99
   3  -3  -2 1901.01   50.89
  -3  -3   2 1826.82   50.19
   3   3  -2 1921.61   48.00
  -2  -3   2  801.32   24.40
  -2  -3   2  837.82   20.40
   2  -3  -2  840.82   24.90
   2   3  -2  834.52   22.70
  -1  -3   2 4839.62  114.39
   1  -3  -2 4710.13  117.89
  -1  -3   2 4743.93  118.09
  -1   3   2 4758.12  115.99
   0  -3   2 7127.89  174.28
   0  -3  -2 7175.58  173.68
   0   3   2 7051.49  172.28
   0   3   2 7171.28  171.78
  -1  -3  -2 1594.04   42.50
   1  -3   2 1633.34   43.70
   1  -3   2 1615.44   41.50
   1   3   2 1649.23   40.80
   1   3   2 1631.24   41.90
   2  -3   2  899.11   26.90
  -2  -3  -2  929.31   25.50
   2   3   2  901.11   23.80
   2   3   2  919.91   25.30
   3  -3   2  484.45   16.60
  -3  -3  -2  460.15   14.80
   3   3   2  448.36   14.70
   3   3   2  457.95   13.40
   4  -3   2   84.89    6.30
  -4  -3  -2   83.49    5.20
   4   3   2   80.29    5.20
   4   3   2   77.79    4.20
   5  -3   2  162.58    9.40
  -5  -3  -2  188.28    8.50
   5   3   2  172.48    7.20
   5   3   2  186.78    8.60
  -6  -3  -2  421.86   15.20
   6  -3   2  411.36   16.90
   6   3   2  431.66   15.50
   7  -3   2 3839.22  101.09
   7   3   2 3878.81   98.59
   8  -3   2 1917.51   55.59
   8   3   2 1911.61   52.99
   9  -3   2  262.77   15.00
   9   3   2  275.27   13.30
  10  -3   2  341.97   18.30
  10   3   2  344.97   15.80
  11   3   2  868.61   30.30
  10  -4  -2  852.51   34.70
 -10  -4   2  918.71   33.10
  -9  -4   2    7.90    4.80
   9  -4  -2   18.80    6.60
  -8  -4   2    9.90    4.40
   8  -4  -2   15.30    5.80
   8   4  -2    7.40    3.10
  -7  -4   2  394.66   17.10
   7  -4  -2  343.17   17.30
   7   4  -2  335.57   13.40
  -6  -4   2 1199.38   37.20
   6  -4  -2 1197.58   38.60
   6   4  -2 1217.78   34.00
  -5  -4   2   40.00    5.70
   5  -4  -2   47.60    6.60
   5   4  -2   44.00    4.60
   4  -4  -2 2186.58   60.29
  -4  -4   2 2095.79   58.79
   4   4  -2 2241.88   56.29
   3  -4  -2 2636.54   71.99
  -3  -4   2 2775.62   71.49
   3   4  -2 2740.83   68.89
  -2  -4   2  152.28    8.40
   2  -4  -2  143.09    8.40
  -1  -4   2   33.10    2.10
  -1  -4   2   31.50    4.60
   1  -4  -2   33.70    4.60
   0  -4   2 1878.01   47.60
   0  -4  -2 1919.61   50.99
   0  -4   2 1876.01   51.49
   0   4   2 1930.51   49.30
   1  -4   2 5025.50  123.99
   1  -4   2 5076.29  127.59
  -1  -4  -2 5074.69  126.29
   1   4   2 5056.59  124.99
   1   4   2 5169.78  123.09
   2  -4   2 4029.00  104.69
  -2  -4  -2 4190.88  103.09
   2   4   2 4165.38   99.59
   2   4   2 4040.70  102.19
  -3  -4  -2  621.14   19.80
   3  -4   2  606.84   21.50
   3   4   2  620.64   17.60
   3   4   2  635.14   19.60
   4  -4   2  361.26   15.60
  -4  -4  -2  385.16   14.00
   4   4   2  375.96   13.90
  -5  -4  -2 2606.24   69.39
   5  -4   2 2651.83   72.19
   5   4   2 2736.53   69.49
   6  -4   2 2756.62   75.89
  -6  -4  -2 2781.02   73.09
   6   4   2 2796.52   72.79
   7  -4   2  436.36   19.30
   7   4   2  440.66   16.90
   8  -4   2    9.10    4.70
   8   4   2   12.20    4.00
   9  -4   2    2.20    4.20
   9   4   2    2.10    3.30
  10  -4   2  289.07   18.30
  10   4   2  316.77   15.30
 -10  -5   2  523.25   23.90
  -9  -5   2  613.14   25.20
   9  -5  -2  575.64   27.10
   8  -5  -2  469.65   23.10
  -8  -5   2  479.05   21.30
   8   5  -2  488.55   18.10
  -7  -5   2  527.45   21.60
   7  -5  -2  461.65   22.50
   7   5  -2  509.95   18.30
   6  -5  -2 1072.39   37.50
  -6  -5   2 1112.49   35.90
   6   5  -2 1131.89   32.60
   5  -5  -2 3020.10   82.59
  -5  -5   2 2970.60   80.69
   5   5  -2 3011.40   77.39
  -4  -5   2 1428.96   41.90
   4  -5  -2 1346.17   42.80
   4   5  -2 1431.76   39.10
   3  -5  -2  521.25   20.30
  -3  -5   2  527.65   19.50
   3   5  -2  488.65   17.00
   2  -5  -2  697.43   23.90
  -2  -5   2  648.74   23.10
  -1  -5   2  991.20   31.90
   1  -5  -2 1085.09   32.60
   0  -5  -2 1864.11   52.29
   0  -5   2 1868.61   47.70
   0  -5   2 1913.81   53.09
   0   5   2 1909.31   50.09
   1  -5   2  208.08   11.10
  -1  -5  -2  187.28   10.00
   1  -5   2  193.58    8.00
   1   5   2  207.68    9.30
  -2  -5  -2   95.19    7.00
   2  -5   2  121.89    8.60
   2   5   2   93.49    6.40
   3  -5   2   89.49    8.80
  -3  -5  -2   75.69    6.30
   3   5   2   78.29    6.70
  -4  -5  -2   12.10    3.50
   4  -5   2   -1.20    2.90
   4   5   2    2.00    2.40
  -5  -5  -2   19.60    4.10
   5  -5   2   16.50    4.70
   5   5   2   16.60    3.90
   6  -5   2  354.56   17.60
   6   5   2  353.16   14.90
   7  -5   2  660.83   26.60
   7   5   2  676.03   23.60
   8  -5   2  658.13   27.20
   8   5   2  655.73   23.90
   9  -5   2  258.57   16.80
   9   5   2  238.68   13.50
  -9  -6   2  740.83   29.70
   8  -6  -2  422.46   22.50
  -8  -6   2  404.46   20.00
   8   6  -2  350.16   16.10
  -7  -6   2   19.30    6.10
   7  -6  -2   20.40    7.10
   7   6  -2   15.40    4.30
   6  -6  -2   51.49    8.80
  -6  -6   2   50.09    8.00
   6   6  -2   46.70    6.00
  -5  -6   2    2.10    4.00
   5  -6  -2    9.30    4.90
   5   6  -2    0.50    2.60
   4  -6  -2  454.75   20.50
  -4  -6   2  423.66   18.90
   4   6  -2  457.85   16.90
  -3  -6   2   26.50    5.30
   3  -6  -2   25.00    5.90
  -2  -6   2 1062.59   34.50
   2  -6  -2 1083.89   35.40
  -1  -6   2 1439.76   42.80
   1  -6  -2 1347.47   42.20
   0  -6   2 1328.67   40.60
   0  -6  -2 1270.67   39.60
  -1  -6  -2  242.88   12.70
   1  -6   2  233.08   13.20
   1   6   2  253.37   11.30
   2  -6   2 1007.50   30.20
  -2  -6  -2 1019.60   31.80
   2  -6   2  929.61   33.00
   2   6   2  986.70   30.20
  -3  -6  -2 2357.36   62.99
   3  -6   2 2237.08   65.09
   3   6   2 2265.37   61.59
   4  -6   2 1595.34   49.00
  -4  -6  -2 1606.94   45.90
   4   6   2 1528.85   45.00
   5  -6   2  794.32   30.00
   5   6   2  810.32   26.90
   6  -6   2  287.37   16.90
   6   6   2  301.67   14.30
   7  -6   2  415.66   20.80
   7   6   2  363.76   16.90
   8  -6   2  342.07   19.60
   8   6   2  327.27   16.10
  -8  -7   2  498.75   23.70
   8   7  -2  454.15   19.70
  -7  -7   2 1555.64   48.40
   7  -7  -2 1390.26   53.89
   7   7  -2 1439.36   43.70
  -6  -7   2  486.75   22.50
   6  -7  -2  477.45   24.30
   6   7  -2  507.95   19.70
   5  -7  -2  166.68   13.80
  -5  -7   2  199.48   13.30
  -4  -7   2  232.88   14.20
   4  -7  -2  219.48   15.00
   3  -7  -2  888.61   32.90
  -3  -7   2  887.11   31.60
  -2  -7   2 1744.23   53.09
   2  -7  -2 1799.82   54.09
  -1  -7   2   40.10    6.80
   1  -7  -2   60.89    8.30
   0  -7  -2  102.89   10.20
   0  -7   2   87.29    9.90
  -1  -7  -2   87.49    9.40
   1  -7   2   75.09    9.30
   2  -7   2  478.95   21.90
  -2  -7  -2  511.95   20.90
   2   7   2  499.15   19.10
   3  -7   2  253.57   15.80
  -3  -7  -2  284.17   14.40
   3   7   2  267.57   13.30
   4  -7   2  319.37   17.90
  -4  -7  -2  363.26   16.80
   4   7   2  348.67   15.90
   5  -7   2  929.71   34.70
   5   7   2  903.81   30.60
   6  -7   2  154.58   13.30
   6   7   2  157.28   11.10
   7  -7   2   29.70    9.50
   7  -7   2   36.20    7.70
  -6  -8   2  244.18   18.50
  -5  -8   2   65.29    9.70
   5  -8  -2   76.59   12.80
  -4  -8   2  252.57   15.80
   4  -8  -2  236.68   16.80
  -3  -8   2    9.90    5.70
   3  -8  -2    4.40    5.10
  -2  -8   2  403.96   20.20
   2  -8  -2  398.16   20.80
  -1  -8   2 1185.08   40.50
   1  -8  -2 1170.38   40.50
   0  -8  -2  393.76   19.90
   0  -8   2  411.96   20.70
   1  -8   2   11.70    5.80
  -1  -8  -2    2.10    4.30
   2  -8   2  161.38   13.50
  -2  -8  -2  178.58   12.90
  -3  -8  -2  964.80   34.50
   3  -8   2 1045.00   37.90
   3   8   2 1011.10   33.40
   4  -8   2 1009.70   38.80
   4   8   2 1059.19   34.60
   1  -9  -2   94.09   11.90
   0  -9  -2  142.39   14.50
  -1  -9  -2   52.29    9.00
  -2  -9  -2    4.80    5.40
  11   0  -3   -1.60    4.00
  10   0  -3    1.10    4.00
  -8   0   3    0.90    3.50
  -7   0   3    0.30    2.70
  -6   0   3    0.70    2.30
  -5   0   3    0.50    1.80
   4   0  -3    1.80    0.60
  -4   0   3   -0.30    1.70
  -3   0   3    3.40    1.70
  -3   0   3    0.20    1.10
  -2   0   3    6.10    1.70
  -2   0   3    0.30    0.90
  -1   0   3    1.80    1.00
  -1   0   3    0.40    0.90
   0   0   3    1.70    1.00
   0   0   3    1.40    0.70
   1   0   3    1.90    0.50
   1   0   3    0.60    0.90
   2   0   3    1.50    1.10
   2   0   3    2.30    0.70
   3   0   3    2.00    0.90
   3   0   3    0.70    1.30
   4   0   3    0.10    1.40
   4   0   3    1.50    1.10
   5   0   3    2.00    1.40
   5   0   3   -2.60    1.60
   6   0   3    1.70    1.60
   6   0   3    0.40    1.90
   7   0   3    0.60    2.60
   7   0   3    3.50    2.30
   8   0   3    1.20    3.10
   9   0   3    0.40    3.20
  10   0   3    2.70    4.10
  11   0   3   -2.70    4.10
  11  -1  -3   21.80    6.70
 -10  -1   3  344.27   17.90
  10  -1  -3  344.07   18.30
   9  -1  -3  190.38   12.70
  -9  -1   3  204.88   12.70
   8  -1  -3  102.89    9.90
  -8  -1   3  101.49    8.70
  -7  -1   3   53.49    6.50
   7  -1  -3   85.39    8.60
  -6  -1   3  522.35   19.80
   6  -1  -3  561.44   20.40
   6   1  -3  585.14   15.70
  -5  -1   3 1070.29   32.50
   5  -1  -3 1139.09   33.00
   5   1  -3 1102.99   28.10
   4  -1  -3   81.09    5.80
  -4  -1   3   78.49    5.60
   4   1  -3   88.89    3.40
   3  -1  -3  745.83   22.30
  -3  -1   3  763.32   22.20
  -3  -1   3  747.53   20.40
   3   1  -3  752.22   18.90
  -3   1   3  730.73   21.30
  -2  -1   3   10.20    2.10
   2  -1  -3   10.40    2.10
  -2  -1   3    8.10    1.50
  -2   1   3    7.10    1.60
  -1  -1   3 1332.77   35.70
   1  -1  -3 1426.16   35.60
  -1  -1   3 1378.76   35.30
  -1   1   3 1431.86   34.20
   0  -1   3 2131.49   52.19
   0  -1   3 2033.00   52.29
   0  -1  -3 2111.39   51.29
   0   1   3 2102.79   51.39
   0   1   3 2128.59   52.59
   1  -1   3 2745.33   64.09
  -1  -1  -3 2634.14   62.39
   1  -1   3 2429.86   64.49
   1   1   3 2662.03   63.09
   1   1   3 2526.75   64.49
   2  -1   3 3761.02   90.69
  -2  -1  -3 3660.83   88.89
   2  -1   3 3712.33   91.69
   2   1   3 3729.43   91.19
  -3  -1  -3   46.20    2.40
   3  -1   3   57.49    4.80
   3  -1   3   53.99    3.50
   3   1   3   54.89    3.80
  -4  -1  -3 1278.17   32.90
   4  -1   3 1276.67   35.40
   4  -1   3 1289.97   34.30
   4   1   3 1291.47   34.80
   5  -1   3  249.78    9.90
   5  -1   3  241.58   10.60
   5   1   3  260.87   10.30
   6  -1   3  527.15   17.30
   6  -1   3  498.35   18.10
   6   1   3  514.45   17.40
   6   1   3  494.85   15.80
   7  -1   3  635.74   21.60
   7  -1   3  671.23   23.00
   7   1   3  673.23   22.00
   8  -1   3   30.20    5.60
   8   1   3   26.50    4.90
   9  -1   3  411.46   18.30
   9   1   3  396.86   17.00
  10  -1   3    0.60    4.40
  10   1   3    3.10    3.80
  11  -1   3  180.58   16.70
  11  -2  -3  488.45   24.00
 -11  -2   3  499.75   23.00
 -10  -2   3   57.09    8.50
  10  -2  -3   55.19    9.00
  -9  -2   3  594.04   23.40
   9  -2  -3  555.24   23.80
  -8  -2   3  249.68   13.50
   8  -2  -3  236.58   13.70
   7  -2  -3 1365.06   42.00
  -7  -2   3 1384.26   41.40
   7   2  -3 1360.26   36.20
   6  -2  -3 1210.48   36.70
  -6  -2   3 1159.48   35.70
   6   2  -3 1198.38   31.40
  -5  -2   3  156.48    8.70
   5  -2  -3  171.98    9.40
   5   2  -3  158.68    6.20
   4  -2  -3 1525.95   42.20
  -4  -2   3 1476.25   41.70
   4   2  -3 1531.85   38.30
  -3  -2   3   10.10    2.40
  -3  -2   3    9.90    1.60
   3  -2  -3   14.00    3.00
   3   2  -3   11.20    1.60
  -2  -2   3 1781.02   43.90
   2  -2  -3 1782.32   46.10
  -2  -2   3 1759.32   46.20
  -2   2   3 1738.83   45.50
  -1  -2   3  683.33   19.80
   1  -2  -3  666.53   19.20
  -1  -2   3  697.73   18.20
  -1   2   3  664.53   19.00
  -1   2   3  663.83   18.00
   0  -2  -3 1509.25   37.90
   0  -2   3 1423.26   37.60
   0  -2   3 1579.44   39.10
   0   2   3 1457.85   38.00
   0   2   3 1430.56   37.30
  -1  -2  -3  470.95   13.40
   1  -2   3  474.75   14.80
   1  -2   3  459.15   14.10
   1   2   3  488.75   14.10
   1   2   3  473.75   13.80
   2  -2   3  204.08    8.30
   2  -2   3  216.68    8.30
  -2  -2  -3  209.48    6.80
   2   2   3  199.58    7.60
   2   2   3  206.38    7.80
  -3  -2  -3   16.20    2.00
   3  -2   3   13.80    2.60
   3  -2   3   15.90    2.80
   3   2   3   16.20    2.40
   3   2   3   26.20    3.00
   4  -2   3   29.70    3.90
   4  -2   3   31.10    4.10
  -4  -2  -3   30.70    3.00
   4   2   3   26.70    3.50
   4   2   3   29.70    3.40
   5  -2   3 2936.31   73.19
   5  -2   3 2760.82   73.29
  -5  -2  -3 2780.82   70.69
   5   2   3 2848.62   72.49
   5   2   3 2767.42   71.49
   6  -2   3  402.56   15.30
   6  -2   3  378.56   15.60
   6   2   3  399.26   14.30
   6   2   3  413.76   15.10
   7  -2   3   89.79    7.40
   7  -2   3  105.59    8.20
   7   2   3  101.89    7.30
   7   2   3  102.79    7.00
   8  -2   3   28.60    5.20
   8  -2   3   23.50    5.40
   8   2   3   15.20    3.90
   8   2   3   20.50    4.20
   9  -2   3   98.39   10.00
   9   2   3   64.09    7.10
  10  -2   3  736.43   28.10
  10   2   3  684.13   25.10
  11   2   3   75.39    8.50
 -11  -3   3   26.40    7.00
  10  -3  -3   96.29   12.00
 -10  -3   3  110.89   11.90
  -9  -3   3  269.97   15.40
   9  -3  -3  294.47   17.00
   8  -3  -3    4.10    4.20
  -8  -3   3    7.10    4.30
  -7  -3   3   -0.20    3.00
   7  -3  -3    3.40    3.50
   7   3  -3    0.60    1.70
  -6  -3   3  663.43   23.70
   6  -3  -3  699.23   24.90
   6   3  -3  672.33   20.00
  -5  -3   3  589.44   20.80
   5  -3  -3  571.14   21.30
   5   3  -3  595.44   17.50
  -4  -3   3  225.38   10.60
   4  -3  -3  228.68   11.00
   4   3  -3  218.78    8.20
  -3  -3   3    6.60    2.60
  -3  -3   3    5.30    1.10
   3  -3  -3    5.20    2.50
   3   3  -3    2.50    1.30
   2  -3  -3  540.85   18.10
  -2  -3   3  563.84   14.90
  -2  -3   3  558.74   18.20
  -1  -3   3 1550.24   40.00
   1  -3  -3 1619.64   42.80
  -1  -3   3 1628.44   43.30
  -1   3   3 1629.64   41.70
  -1   3   3 1571.34   40.90
   0  -3   3 1087.49   31.00
   0  -3   3 1059.79   28.70
   0  -3  -3 1131.39   30.30
   0   3   3 1102.29   29.20
   0   3   3 1091.29   29.20
   1  -3   3   22.50    2.70
  -1  -3  -3   26.90    3.20
   1  -3   3   30.20    4.00
   1   3   3   20.90    2.50
   1   3   3   22.70    2.80
   2  -3   3 1077.69   29.90
   2  -3   3 1091.09   31.20
  -2  -3  -3 1070.39   29.30
   2   3   3 1116.09   29.00
   2   3   3 1078.99   29.70
   3  -3   3  427.16   14.70
  -3  -3  -3  407.66   13.40
   3  -3   3  423.16   15.50
   3   3   3  442.96   13.50
   3   3   3  450.65   14.50
   4  -3   3  486.55   17.50
  -4  -3  -3  512.25   16.00
   4  -3   3  539.45   18.50
   4   3   3  518.55   17.10
   4   3   3  519.15   15.80
   5  -3   3   65.09    6.50
   5  -3   3   68.89    6.50
  -5  -3  -3   72.59    4.90
   5   3   3   62.39    4.60
   5   3   3   70.69    6.40
   6  -3   3  167.78    9.90
   6  -3   3  166.38    9.90
   6   3   3  169.18    9.20
   6   3   3  149.99   11.20
   7  -3   3  903.01   29.60
   7  -3   3  905.21   29.70
   7   3   3  828.52   27.70
   8  -3   3   -0.10    3.30
   8  -3   3    4.10    3.60
   8   3   3    3.90    3.00
   9  -3   3   27.20    6.70
   9   3   3   21.00    4.90
  10  -3   3   62.89   10.30
  10   3   3   49.40    7.00
 -10  -4   3  147.19   12.50
  10  -4  -3  148.79   15.30
  -9  -4   3  410.06   19.70
   9  -4  -3  386.56   21.30
   8  -4  -3  154.28   12.60
  -8  -4   3  138.19   10.80
   7  -4  -3    4.70    4.50
  -7  -4   3    7.30    4.00
   7   4  -3    1.70    2.10
  -6  -4   3   10.30    4.30
   6  -4  -3    4.90    3.50
   6   4  -3    3.30    2.10
  -5  -4   3   16.40    4.00
   5  -4  -3   15.40    4.40
   5   4  -3   14.90    2.90
  -4  -4   3   70.49    7.40
   4  -4  -3   82.99    8.40
   4   4  -3   60.59    5.00
  -3  -4   3   86.49    6.90
   3  -4  -3   93.69    7.20
  -2  -4   3  492.95   13.10
   2  -4  -3  489.35   17.90
  -2  -4   3  485.15   17.60
  -1  -4   3  406.96   11.90
   1  -4  -3  415.36   15.30
  -1  -4   3  411.06   15.50
  -1   4   3  401.36   13.30
   0  -4  -3  169.28    8.60
   0  -4   3  169.38    6.80
   0  -4   3  185.38    9.40
   0   4   3  180.68    7.30
   0   4   3  176.88    7.80
   1  -4   3   50.89    5.80
   1  -4   3   53.49    3.90
  -1  -4  -3   49.80    5.00
   1   4   3   47.00    3.50
   1   4   3   48.80    4.60
   2  -4   3  708.23   22.70
  -2  -4  -3  657.83   20.60
   2  -4   3  638.74   20.10
   2   4   3  664.13   18.80
   2   4   3  659.83   20.40
   3  -4   3  847.42   25.60
  -3  -4  -3  864.01   25.20
   3  -4   3  835.02   27.40
   3   4   3  852.81   25.60
   3   4   3  880.71   23.60
  -4  -4  -3  366.96   13.20
   4  -4   3  358.46   15.40
   4  -4   3  355.26   14.10
   4   4   3  356.76   13.70
   5  -4   3   77.79    7.90
   5  -4   3  100.69    8.60
   5   4   3   75.49    7.00
   6  -4   3   10.20    4.20
   6  -4   3   10.90    4.00
   6   4   3    5.50    3.10
   7  -4   3  323.17   15.90
   7  -4   3  305.57   15.30
   7   4   3  299.87   14.00
   8  -4   3  456.95   20.10
   8  -4   3  432.76   20.10
   8   4   3  451.15   18.50
   9  -4   3   58.49    8.60
   9   4   3   74.99    8.50
  10   4   3    7.00    7.20
 -10  -5   3  125.49   12.90
  -9  -5   3   72.49    9.60
   9  -5  -3   66.89   11.20
   8  -5  -3  568.74   26.00
  -8  -5   3  543.05   23.80
  -7  -5   3  665.23   25.50
   7  -5  -3  630.24   26.80
   7   5  -3  601.24   20.90
  -6  -5   3   10.60    4.70
   6  -5  -3   13.00    5.20
   6   5  -3    9.80    3.10
  -5  -5   3    7.40    4.00
   5  -5  -3   13.20    4.50
   5   5  -3    5.00    2.50
   4  -5  -3 1663.43   50.09
  -4  -5   3 1707.53   49.10
   3  -5  -3 2461.75   67.99
  -3  -5   3 2468.65   67.19
   2  -5  -3  895.91   29.90
  -2  -5   3  969.30   30.10
   1  -5  -3   21.50    4.30
  -1  -5   3   26.70    5.00
   0  -5   3    6.40    1.80
   0  -5  -3    9.20    3.00
   0  -5   3    5.00    3.10
   0   5   3    8.60    2.70
   1  -5   3 2362.66   65.39
  -1  -5  -3 2361.76   63.89
   1  -5   3 2384.06   61.19
   1   5   3 2394.06   62.69
   1   5   3 2490.35   61.89
   2  -5   3 2097.79   58.29
   2  -5   3 2069.09   54.39
  -2  -5  -3 2077.99   55.89
   2   5   3 2038.40   55.19
   3  -5   3   69.89    6.30
   3  -5   3   77.69    8.30
  -3  -5  -3   69.69    5.80
   3   5   3   69.59    6.40
   4  -5   3  700.23   25.80
  -4  -5  -3  686.33   23.00
   4  -5   3  730.03   23.80
   4   5   3  737.73   23.70
   5  -5   3  144.99    9.40
   5  -5   3  139.99   10.40
   5   5   3  129.69    8.60
   6  -5   3  195.58   12.70
   6  -5   3  196.98   11.80
   6   5   3  183.48   10.70
   7  -5   3   21.60    6.10
   7  -5   3   16.40    5.50
   7   5   3   13.70    4.40
   8  -5   3  215.38   15.00
   8  -5   3  225.78   14.10
   8   5   3  207.38   12.60
   9  -5   3  860.41   33.50
   9   5   3  855.41   30.40
  -9  -6   3  980.30   36.80
   8  -6  -3  381.96   22.10
  -8  -6   3  371.56   19.70
  -7  -6   3   86.99   10.70
   7  -6  -3   80.29   10.90
   7   6  -3   80.99    7.60
  -6  -6   3   35.00    7.20
   6  -6  -3   36.30    7.80
   6   6  -3   28.80    4.90
   5  -6  -3  180.48   13.10
  -5  -6   3  194.88   12.30
  -4  -6   3  754.62   27.50
   4  -6  -3  744.33   28.60
   3  -6  -3    7.30    4.10
  -3  -6   3   10.30    4.20
   2  -6  -3 1517.35   46.60
  -2  -6   3 1572.54   46.30
  -1  -6   3  596.64   22.90
   1  -6  -3  599.54   22.70
   0  -6   3   20.80    4.70
   0  -6  -3   24.50    4.90
   0   6   3   19.60    3.90
   1  -6   3   14.00    4.70
  -1  -6  -3    9.40    3.50
   1   6   3    4.60    2.70
   2  -6   3  806.52   28.70
  -2  -6  -3  800.62   26.70
   2   6   3  779.72   25.60
   3  -6   3 2304.97   63.79
   3  -6   3 2174.58   58.79
  -3  -6  -3 2138.49   59.89
   3   6   3 2164.38   59.69
   4  -6   3  543.65   19.60
   4  -6   3  540.95   22.60
   4   6   3  487.55   19.40
   5  -6   3   15.20    4.60
   5  -6   3   15.10    5.50
   5   6   3   25.00    5.20
   6  -6   3   73.39   10.10
   6  -6   3   84.99    9.30
   6   6   3   72.69    8.40
   7  -6   3 1045.80   38.40
   7  -6   3 1107.59   36.60
   7   6   3 1084.99   35.40
   8  -6   3  829.82   33.50
   8  -6   3  830.92   33.20
  -7  -7   3  490.25   23.40
   7  -7  -3  528.15   37.20
   6  -7  -3  322.67   20.00
  -6  -7   3  348.87   18.80
   5  -7  -3  605.04   27.00
  -5  -7   3  608.34   25.20
   4  -7  -3  778.12   30.70
  -4  -7   3  763.52   29.30
  -3  -7   3  723.33   27.40
   3  -7  -3  706.53   28.30
  -2  -7   3  496.55   21.70
   2  -7  -3  522.75   22.50
  -1  -7   3  253.67   14.80
   1  -7  -3  255.37   14.70
   0  -7   3  299.97   16.40
   0  -7  -3  309.27   15.90
   1  -7   3  352.86   18.10
  -1  -7  -3  333.27   16.50
   1   7   3  346.47   15.20
  -2  -7  -3  218.28   12.80
   2  -7   3  220.08   14.20
   2   7   3  223.08   12.00
   3  -7   3    5.80    4.50
   3   7   3    3.30    3.40
   4  -7   3   14.50    6.00
   4   7   3   17.90    4.60
   5  -7   3   24.50    6.00
   5  -7   3   10.60    5.70
   5   7   3   13.00    4.70
   6  -7   3   13.40    6.20
   6  -7   3   31.90    6.60
   6   7   3   20.70    5.50
   7  -7   3   10.60    5.40
   5  -8  -3    7.50    9.40
  -5  -8   3   11.90    5.90
  -4  -8   3   25.20    6.80
   4  -8  -3   26.90    7.50
  -3  -8   3    3.30    4.50
   3  -8  -3    0.80    4.40
  -2  -8   3   26.00    7.10
   2  -8  -3   19.00    6.50
   1  -8  -3   88.39   10.90
  -1  -8   3   54.09    9.00
   0  -8  -3  655.03   26.50
   0  -8   3  618.64   26.80
  -1  -8  -3  813.92   30.30
   1  -8   3  778.22   31.30
  -2  -8  -3  332.17   17.30
   2  -8   3  346.37   19.40
   2   8   3  323.57   16.10
   3  -8   3  209.28   15.50
   3   8   3  227.98   13.30
   4  -8   3  534.15   25.80
   4   8   3  576.44   25.00
   1  -9  -3 1394.66   47.70
   0  -9  -3  793.82   31.90
  -1  -9  -3   30.80    7.60
  11   0  -4  678.33   28.00
  10   0  -4 2945.11   82.39
  -8   0   4  203.58   12.60
  -7   0   4  128.69    9.30
  -6   0   4 1789.62   50.79
  -5   0   4 5119.59  131.39
   5   0  -4 5325.57  124.89
  -4   0   4 2595.44   68.29
  -4   0   4 2627.64   66.39
  -3   0   4  256.27   10.40
  -3   0   4  246.88    9.20
  -2   0   4  842.02   22.70
  -2   0   4  785.72   23.20
  -1   0   4  138.19    5.70
  -1   0   4  133.49    5.80
   0   0   4  350.76   11.30
   0   0   4  341.17   10.00
   1   0   4  856.11   24.00
   1   0   4  876.81   21.60
   3   0   4 5422.26  130.19
   3   0   4 5411.16  133.29
   4   0   4  880.61   26.10
   4   0   4  886.91   23.50
   5   0   4  529.25   18.30
   5   0   4  546.15   16.10
   6   0   4 3097.89   80.49
   7   0   4 6299.47  157.48
   8   0   4 2178.18   60.49
   9   0   4   90.09    9.00
  10   0   4   66.99    8.50
  11   0   4  592.04   27.20
  11  -1  -4  250.97   16.40
 -11  -1   4  246.18   16.50
  10  -1  -4    3.80    4.90
 -10  -1   4    4.60    4.60
  -9  -1   4  250.07   14.60
   9  -1  -4  259.77   15.00
   8  -1  -4 1233.88   39.80
  -8  -1   4 1244.08   39.30
  -7  -1   4 1217.08   38.00
   7  -1  -4 1237.48   38.50
   6  -1  -4  236.88   12.20
  -6  -1   4  257.37   12.50
  -5  -1   4 2916.91   77.59
   5   1  -4 3014.90   71.99
  -4  -1   4 5786.72  144.19
  -4  -1   4 5876.91  141.79
  -4   1   4 5620.24  142.69
   4   1  -4 5965.30  139.09
  -3  -1   4 6786.02  163.78
  -3  -1   4 6696.43  165.68
  -3   1   4 6807.92  164.88
  -2  -1   4 3757.22   91.49
  -2  -1   4 3700.23   92.49
  -2   1   4 3626.94   92.09
  -2   1   4 3805.02   89.29
  -1  -1   4  738.93   20.50
   1  -1  -4  715.03   20.10
  -1  -1   4  725.23   20.40
  -1   1   4  740.73   18.80
  -1   1   4  740.63   20.80
   0  -1   4 5554.74  133.29
   0  -1  -4 5618.04  132.29
   0  -1   4 5257.77  133.89
   0   1   4 5605.04  134.29
   1  -1   4 6515.75  149.19
   1  -1   4 6009.90  150.18
   1   1   4 6002.80  150.18
   2  -1   4 3208.18   79.29
   2  -1   4 3186.28   80.89
   2   1   4 3297.57   80.69
   3  -1   4  103.69    4.90
   3  -1   4   98.79    5.80
   3   1   4  100.29    3.30
   3   1   4  109.39    5.90
   4  -1   4   69.19    5.40
   4  -1   4   67.49    4.30
   4   1   4   59.29    4.80
   4   1   4   74.49    3.30
   5  -1   4  402.36   15.40
   5  -1   4  423.36   14.20
   5   1   4  418.66   13.60
   5   1   4  433.36   15.10
   6  -1   4  200.38   10.40
   6  -1   4  175.68    8.70
   6   1   4  199.58    9.80
   7  -1   4   24.90    4.60
   7   1   4   26.40    4.80
   8  -1   4  969.70   32.10
   8   1   4  977.90   31.20
   9  -1   4  753.62   27.60
   9   1   4  740.43   26.40
  10  -1   4   73.29    9.20
  10   1   4   76.79    8.80
  11  -2  -4  949.90   36.80
 -11  -2   4  938.21   35.10
 -10  -2   4  930.31   33.80
  10  -2  -4  941.01   35.00
  -9  -2   4 1366.86   43.40
   9  -2  -4 1342.07   44.40
   8  -2  -4 1087.59   36.50
  -8  -2   4 1049.30   35.20
  -7  -2   4 1953.50   56.69
   7  -2  -4 2042.40   58.19
   6  -2  -4  997.50   32.40
  -6  -2   4  986.80   31.30
   6   2  -4  980.20   26.20
   5  -2  -4  563.24   20.40
  -5  -2   4  565.24   19.90
   5   2  -4  542.95   15.50
  -4  -2   4  428.56   13.30
  -4  -2   4  440.16   16.00
   4  -2  -4  446.96   16.50
   4   2  -4  430.96   12.50
  -3  -2   4  131.79    5.60
  -3  -2   4  143.09    7.50
   3  -2  -4  139.99    7.50
  -3   2   4  147.29    7.20
  -2  -2   4   31.00    3.60
  -2  -2   4   37.20    2.80
   2  -2  -4   37.70    4.00
  -2   2   4   36.10    2.30
  -2   2   4   42.10    3.90
  -1  -2   4  324.27   10.50
  -1  -2   4  312.27   11.30
   1  -2  -4  324.77   10.90
  -1   2   4  319.27    9.80
  -1   2   4  348.67   11.40
   0  -2   4 1116.69   29.20
   0  -2   4 1075.69   29.70
   0  -2  -4 1095.49   28.60
   0   2   4 1072.79   28.30
   0   2   4 1076.29   29.40
   1  -2   4 1304.17   35.30
  -1  -2  -4 1291.77   33.40
   1  -2   4 1449.65   35.50
   1   2   4 1294.97   34.50
   1   2   4 1284.67   35.10
  -2  -2  -4 2790.62   69.49
   2  -2   4 2835.42   72.09
   2  -2   4 2894.01   72.59
   2   2   4 2888.01   71.89
   2   2   4 2917.41   71.99
   3  -2   4 1657.13   44.30
  -3  -2  -4 1643.24   41.00
   3  -2   4 1655.33   43.70
   3   2   4 1698.83   43.90
   3   2   4 1600.34   43.20
   4  -2   4 2861.61   70.99
  -4  -2  -4 2637.24   67.79
   4  -2   4 2786.02   71.69
   4   2   4 2783.92   70.29
   5  -2   4 2626.24   66.59
   5  -2   4 2488.15   67.19
   5   2   4 2526.95   65.79
   6  -2   4 1788.62   51.79
   6  -2   4 1962.80   51.39
   6   2   4 1856.81   50.39
   7  -2   4  965.40   31.40
   7   2   4  989.10   29.80
   8  -2   4  634.14   23.60
   8   2   4  619.44   22.40
   8   2   4  609.94   21.90
   9  -2   4  948.31   33.20
   9   2   4  975.50   31.60
  10  -2   4  458.95   21.50
  10   2   4  460.65   19.40
 -11  -3   4  134.39   14.80
 -10  -3   4   68.79    9.50
  10  -3  -4   72.99   10.70
   9  -3  -4   42.40    8.20
  -9  -3   4   54.99    8.70
   8  -3  -4    1.00    3.90
  -8  -3   4    4.10    4.30
  -7  -3   4  682.63   25.20
   7  -3  -4  700.13   26.80
   6  -3  -4 3134.49   84.69
  -6  -3   4 3122.19   83.19
   6   3  -4 3097.39   77.79
   5  -3  -4 1695.63   48.90
  -5  -3   4 1699.23   47.90
   5   3  -4 1640.04   43.20
  -4  -3   4   59.19    6.30
   4  -3  -4   73.79    7.20
  -4  -3   4   53.49    3.40
   3  -3  -4 1183.28   34.20
  -3  -3   4 1165.48   30.20
  -3  -3   4 1158.08   33.90
  -2  -3   4 8520.95  200.58
  -2  -3   4 8328.97  203.98
   2  -3  -4 8039.30  203.58
  -2   3   4 8500.45  202.98
  -2   3   4 8335.97  200.88
   1  -3  -4 9033.40  225.88
  -1  -3   4 9359.46  226.68
  -1  -3   4 9409.76  223.98
  -1   3   4 9458.45  224.28
  -1   3   4 9320.27  225.38
   0  -3   4 2329.47   58.29
   0  -3   4 2310.17   60.29
   0  -3  -4 2335.87   58.99
   0   3   4 2323.77   58.89
   0   3   4 2240.78   58.09
   1  -3   4  169.98    8.20
   1  -3   4  154.58    7.00
  -1  -3  -4  157.58    6.80
   1   3   4  159.58    7.00
   1   3   4  167.18    7.10
  -2  -3  -4  619.84   17.60
   2  -3   4  591.84   19.70
   2  -3   4  611.04   18.90
   2   3   4  621.44   18.40
   2   3   4  605.74   18.70
   3  -3   4 4230.58  110.19
  -3  -3  -4 4466.45  107.89
   3  -3   4 4394.16  110.99
   3   3   4 4464.05  109.99
   3   3   4 4506.45  109.19
   4  -3   4 2442.16   62.59
   4  -3   4 2322.87   62.69
   4   3   4 2309.47   61.79
   4   3   4 2366.16   60.79
   5  -3   4    9.80    3.40
   5  -3   4   10.80    3.60
   5   3   4   11.60    2.80
   5   3   4    8.50    2.90
   6  -3   4  326.97   14.80
   6  -3   4  358.26   15.20
   6   3   4  343.37   14.40
   6   3   4  333.07   13.20
   7  -3   4   50.99    6.80
   7  -3   4   54.99    7.20
   7   3   4   44.60    6.10
   8  -3   4   21.00    5.60
   8   3   4   27.40    5.40
   9  -3   4   91.19    9.80
   9   3   4   94.59    9.30
  10   3   4  898.31   31.50
 -10  -4   4  163.48   13.40
  10  -4  -4  174.58   17.20
  -9  -4   4  253.47   15.70
   9  -4  -4  295.17   18.10
   8  -4  -4 2030.20   62.09
  -8  -4   4 1976.10   59.09
  -7  -4   4 2854.91   77.89
   7  -4  -4 2766.22   79.89
  -6  -4   4  552.64   21.50
   6  -4  -4  518.55   22.40
   6   4  -4  522.85   17.10
   5  -4  -4   64.49    8.10
  -5  -4   4   46.80    6.30
   5   4  -4   50.59    4.60
  -4  -4   4   15.20    4.20
   4  -4  -4   13.60    4.10
   3  -4  -4  605.94   22.10
  -3  -4   4  664.73   22.20
  -2  -4   4  510.75   14.50
   2  -4  -4  505.15   18.40
  -2  -4   4  495.05   18.40
  -2   4   4  538.85   17.30
   1  -4  -4  609.24   20.20
  -1  -4   4  581.64   20.50
  -1  -4   4  595.14   17.20
  -1   4   4  590.04   18.20
  -1   4   4  633.94   19.00
   0  -4   4 3069.29   81.29
   0  -4   4 3186.88   78.09
   0  -4  -4 3184.08   80.29
   0   4   4 3082.99   78.59
   0   4   4 3138.99   78.89
   1  -4   4 1110.59   30.60
  -1  -4  -4 1110.89   31.30
   1  -4   4 1066.09   32.80
   1   4   4 1145.39   30.40
   1   4   4 1079.19   30.80
   2  -4   4   54.99    6.10
  -2  -4  -4   57.59    4.60
   2  -4   4   59.69    5.30
   2   4   4   59.09    4.30
   2   4   4   70.69    5.90
   3  -4   4  497.65   17.50
   3  -4   4  522.85   19.00
  -3  -4  -4  512.45   16.30
   3   4   4  493.45   16.00
   3   4   4  524.05   17.50
   4  -4   4 3186.58   84.59
   4  -4   4 3173.28   83.09
   4   4   4 3265.77   82.89
   5  -4   4 3856.81  100.09
   5  -4   4 3884.61  101.29
   5   4   4 3892.11   99.59
   6  -4   4  842.62   28.70
   6  -4   4  818.92   27.90
   6   4   4  825.12   27.30
   7  -4   4   34.50    6.20
   7  -4   4   19.90    5.40
   7   4   4   18.10    4.60
   8  -4   4  328.67   16.70
   8   4   4  310.97   15.40
   9  -4   4 1355.96   44.80
   9   4   4 1439.26   43.80
   9  -5  -4   34.40    8.40
  -9  -5   4   47.40    8.60
   8  -5  -4   22.60    7.30
  -8  -5   4   31.00    6.90
  -7  -5   4  430.36   19.90
   7  -5  -4  403.06   21.40
  -6  -5   4 1121.79   37.30
   6  -5  -4 1142.29   39.50
   6   5  -4 1148.89   32.90
   5  -5  -4 1252.57   41.80
  -5  -5   4 1316.07   40.70
  -4  -5   4 1092.09   35.00
   4  -5  -4 1104.39   36.10
   3  -5  -4 1203.18   37.80
  -3  -5   4 1203.28   37.20
   2  -5  -4 1727.43   50.49
  -2  -5   4 1814.82   50.69
   1  -5  -4 2485.05   66.19
  -1  -5   4 2374.66   66.29
  -1   5   4 2464.45   63.29
   0  -5   4 1459.05   39.60
   0  -5   4 1516.95   43.60
   0  -5  -4 1471.55   42.20
   0   5   4 1447.76   39.70
   0   5   4 1496.15   40.70
   1  -5   4  404.36   14.10
   1  -5   4  422.26   17.30
  -1  -5  -4  449.86   16.20
   1   5   4  384.36   14.80
   1   5   4  396.36   13.70
   2  -5   4  606.54   19.20
   2  -5   4  577.64   21.80
  -2  -5  -4  571.74   19.80
   2   5   4  608.64   20.00
   3  -5   4  604.14   20.10
   3  -5   4  558.24   21.90
   3   5   4  597.24   20.30
   4  -5   4  358.76   16.70
   4  -5   4  391.76   15.40
   4   5   4  365.76   15.20
   5  -5   4    5.20    4.00
   5  -5   4    3.80    3.40
   5   5   4    3.80    2.90
   6  -5   4  161.58   11.90
   6  -5   4  160.78   10.90
   6   5   4  179.28   11.00
   7  -5   4   39.50    7.20
   7  -5   4   33.20    6.50
   7   5   4   40.40    6.50
   8  -5   4    9.80    5.40
   8  -5   4    6.50    5.10
   8   5   4    2.30    3.90
   8  -6  -4  483.65   25.60
  -8  -6   4  441.16   22.20
  -7  -6   4   75.89   10.20
   7  -6  -4   81.09   11.20
   6  -6  -4  413.96   21.80
  -6  -6   4  435.86   20.40
  -5  -6   4  554.24   23.30
   5  -6  -4  561.94   24.70
   4  -6  -4  241.18   14.60
  -4  -6   4  227.18   13.80
  -3  -6   4  240.18   13.40
   3  -6  -4  255.87   14.40
  -2  -6   4   96.59    9.50
   2  -6  -4   94.49    9.30
  -1  -6   4   32.90    6.20
   1  -6  -4   33.10    5.70
   0  -6   4    3.00    3.30
   0  -6  -4    2.90    3.00
   0   6   4    2.90    2.70
   1  -6   4  397.06   18.00
  -1  -6  -4  380.86   16.30
   1   6   4  383.26   15.30
   2  -6   4  673.63   25.20
  -2  -6  -4  635.84   22.70
   2   6   4  654.83   22.50
   3  -6   4 1092.69   36.00
   3  -6   4 1068.29   32.20
   3   6   4 1035.00   32.90
   4  -6   4  524.35   22.30
   4  -6   4  494.55   19.10
   4   6   4  510.55   19.80
   5  -6   4  300.37   14.80
   5  -6   4  334.37   17.40
   5   6   4  321.47   15.20
   6  -6   4  697.03   26.20
   6  -6   4  706.53   28.40
   6   6   4  722.23   26.20
   7  -6   4 1445.46   45.30
   7  -6   4 1425.96   47.40
   7   6   4 1402.26   44.40
   8  -6   4  906.81   35.20
  -7  -7   4   25.70    7.20
   6  -7  -4   15.00    6.20
  -6  -7   4   11.40    6.20
  -5  -7   4  332.67   17.80
   5  -7  -4  263.57   17.30
  -4  -7   4 2987.90   83.19
   4  -7  -4 2941.11   84.69
  -3  -7   4 1423.86   45.90
   3  -7  -4 1479.35   47.20
   2  -7  -4    1.50    3.70
  -2  -7   4    2.30    4.10
   1  -7  -4   41.30    7.30
  -1  -7   4   41.30    7.00
   0  -7   4  580.54   24.20
   0  -7  -4  580.74   23.10
   1  -7   4 2362.16   68.69
  -1  -7  -4 2396.66   67.09
   1   7   4 2390.56   65.09
   2  -7   4  755.32   29.90
   2   7   4  845.22   27.60
   3  -7   4  110.89   11.60
   3   7   4  121.79   10.50
   4  -7   4   99.29   11.30
   4   7   4  115.39   10.30
   5  -7   4  115.39   12.70
   5   7   4  105.39   10.10
   6  -7   4  231.18   16.40
   6  -7   4  244.58   14.40
   4  -8  -4  199.58   15.60
  -4  -8   4  195.68   14.70
   3  -8  -4   24.20    6.70
  -3  -8   4   25.30    7.10
   2  -8  -4  292.27   17.20
  -2  -8   4  266.47   16.60
   1  -8  -4   14.30    5.70
  -1  -8   4   13.10    6.20
   0  -8   4   55.39    9.00
   0  -8  -4   60.29    8.90
   1  -8   4  158.98   13.30
   2  -8   4  767.62   31.50
   2   8   4  814.92   28.30
   3  -8   4  475.65   23.70
   3   8   4  491.85   21.00
   4  -8   4   72.29   16.30
   1  -9  -4  307.67   18.90
  11   0  -5    0.30    4.70
  10   0  -5   10.20    5.20
  -9   0   5   -1.90    4.20
  -8   0   5    0.20    3.00
  -7   0   5    0.20    3.00
  -6   0   5    0.00    2.70
  -5   0   5    3.90    2.80
  -4   0   5    1.50    2.20
  -4   0   5    0.40    1.70
  -3   0   5    0.60    1.70
  -3   0   5   -0.70    1.50
  -2   0   5    0.90    1.50
  -2   0   5    2.50    1.70
  -1   0   5    0.40    1.20
  -1   0   5    3.60    1.60
   0   0   5    0.80    1.00
   0   0   5    0.50    1.40
   1   0   5   -0.70    1.50
   1   0   5    0.60    0.70
   2   0   5    1.40    0.60
   2   0   5    2.40    1.70
   3   0   5    1.40    2.00
   3   0   5   -0.10    0.70
   4   0   5    2.00    1.20
   4   0   5    1.70    2.00
   5   0   5    0.50    2.40
   6   0   5   -1.40    2.50
   7   0   5   -0.90    3.10
   8   0   5    4.80    3.90
   9   0   5   -0.50    3.70
  10   0   5    7.60    4.90
  11  -1  -5   62.19   10.00
 -11  -1   5   66.69   10.30
 -10  -1   5   41.20    8.00
  10  -1  -5   45.80    8.50
   9  -1  -5  340.77   17.90
  -9  -1   5  330.17   17.30
   8  -1  -5   30.70    6.40
  -8  -1   5   30.00    5.90
   7  -1  -5 1021.50   32.90
  -7  -1   5  910.31   31.70
  -6  -1   5  273.07   13.40
  -5  -1   5   96.69    6.00
  -5  -1   5  113.69    7.70
  -5   1   5   99.79    7.70
  -4  -1   5  505.55   17.60
  -4  -1   5  476.15   15.80
  -4   1   5  493.45   18.20
  -4   1   5  498.75   16.70
  -3  -1   5  403.46   14.20
  -3  -1   5  382.06   12.90
  -3   1   5  385.86   14.50
  -3   1   5  388.46   13.60
  -2  -1   5 3464.05   85.69
  -2  -1   5 3374.56   84.89
  -2   1   5 3408.16   85.89
  -2   1   5 3304.17   85.59
  -2   1   5 3522.35   82.29
  -1  -1   5  398.96   12.90
  -1  -1   5  392.76   13.20
   1  -1  -5  399.36   12.70
  -1   1   5  416.26   13.70
  -1   1   5  426.06   11.50
   0  -1  -5  424.26   11.90
   0  -1   5  428.66   12.80
   0  -1   5  420.06   13.80
   0   1   5  401.56   13.80
   1  -1   5  454.55   15.10
   1  -1   5  473.05   13.60
   1   1   5  464.65   15.20
   2  -1   5  162.38    6.30
   2  -1   5  163.58    7.90
   2   1   5  164.78    7.70
   3  -1   5  354.26   11.10
   3  -1   5  345.37   13.10
   3   1   5  339.37   12.70
   4  -1   5   32.50    3.30
   4  -1   5   24.40    3.90
   4   1   5   26.60    4.00
   5  -1   5  364.36   14.90
   5   1   5  378.76   14.50
   6  -1   5  142.69    9.30
   6   1   5  154.28    8.90
   7  -1   5  216.68   11.90
   7   1   5  243.88   12.20
   8  -1   5   19.40    5.30
   8   1   5   26.30    5.40
   9  -1   5   52.49    8.10
   9   1   5   68.09    8.20
  10  -1   5  114.59   11.50
  10   1   5  145.49   11.40
 -11  -2   5   67.39    9.90
  10  -2  -5  119.99   13.40
 -10  -2   5  104.59   11.30
   9  -2  -5    5.40    5.00
  -9  -2   5    5.50    4.50
  -8  -2   5  722.83   28.00
   8  -2  -5  828.62   30.20
  -7  -2   5  817.22   28.30
   7  -2  -5  778.82   29.20
  -6  -2   5  193.88   11.00
   6  -2  -5  166.78   11.10
   5  -2  -5  228.68   12.00
  -5  -2   5  220.18    9.00
  -5  -2   5  202.98   10.80
  -4  -2   5  192.58    9.70
   4  -2  -5  188.28   10.10
  -4  -2   5  197.78    7.90
  -4   2   5  192.78    9.40
  -3  -2   5 1802.62   47.70
   3  -2  -5 1742.73   47.80
  -3  -2   5 1729.93   45.40
  -3   2   5 1753.72   47.20
   2  -2  -5  117.79    6.40
  -2  -2   5  114.59    5.60
  -2  -2   5  109.29    6.40
  -2   2   5  109.59    4.40
  -2   2   5  105.99    6.10
  -1  -2   5  708.23   20.80
  -1  -2   5  697.13   20.10
   1  -2  -5  667.83   19.90
  -1   2   5  679.23   18.70
  -1   2   5  695.23   20.80
   0  -2   5  184.18    7.60
   0  -2   5  169.98    7.50
   0  -2  -5  174.48    6.60
   0   2   5  168.78    6.70
   0   2   5  171.38    7.80
  -1  -2  -5  751.12   19.90
   1  -2   5  771.02   22.50
   1  -2   5  746.43   22.00
   1   2   5  764.02   21.70
   1   2   5  767.62   22.50
   2  -2   5 2738.53   66.59
  -2  -2  -5 2637.24   63.09
   2  -2   5 2464.55   67.09
   2   2   5 2653.93   66.59
   2   2   5 2596.44   66.99
   3  -2   5  679.83   20.30
   3  -2   5  669.13   21.40
   3   2   5  665.23   20.80
   4  -2   5 2904.11   74.09
   4  -2   5 3020.10   75.99
   4   2   5 2800.02   74.39
   5  -2   5  240.18   10.50
   5  -2   5  251.47   11.80
   5   2   5  235.28   10.60
   6  -2   5  200.18   10.90
   6   2   5  202.28   10.20
   7  -2   5  480.65   19.50
   7   2   5  499.55   18.50
   8  -2   5  427.66   18.60
   8   2   5  415.46   17.20
   9  -2   5 1382.06   43.70
   9   2   5 1360.16   42.10
  10  -3  -5   19.00    7.30
 -10  -3   5   26.60    6.80
  -9  -3   5  191.88   13.10
   9  -3  -5  156.28   13.70
   8  -3  -5   55.89    9.10
  -8  -3   5   60.79    8.60
   7  -3  -5  234.78   14.50
  -7  -3   5  253.27   13.90
   6  -3  -5  296.67   15.30
  -6  -3   5  276.87   14.00
  -5  -3   5    6.70    3.30
   5  -3  -5    2.50    2.90
   4  -3  -5   23.90    4.60
  -4  -3   5   13.10    3.60
  -4  -3   5   14.80    2.40
  -3  -3   5  394.76   15.60
   3  -3  -5  391.06   15.60
  -3  -3   5  451.85   13.10
  -3   3   5  391.36   14.80
   2  -3  -5 1047.50   30.50
  -2  -3   5 1041.70   28.30
  -2  -3   5 1053.79   31.00
  -2   3   5 1037.10   30.10
  -2   3   5 1052.09   27.90
  -1  -3   5 1411.86   39.90
  -1  -3   5 1440.86   38.10
   1  -3  -5 1427.46   39.20
  -1   3   5 1486.65   39.40
  -1   3   5 1448.66   37.60
   0  -3  -5    9.10    2.20
   0  -3   5    3.00    2.20
   0  -3   5    2.30    1.60
   0   3   5    1.10    1.40
   0   3   5    1.30    1.70
  -1  -3  -5   60.59    3.90
   1  -3   5   59.39    5.20
   1  -3   5   53.29    4.80
   1   3   5   56.99    4.80
   1   3   5   64.69    4.70
  -2  -3  -5  390.96   11.60
   2  -3   5  357.56   13.80
   2  -3   5  365.26   13.60
   2   3   5  372.16   13.30
   2   3   5  369.36   13.20
   3  -3   5  219.98   10.00
   3  -3   5  203.58    9.90
   3   3   5  204.98    9.30
   3   3   5  212.68    9.70
   4  -3   5  414.16   15.60
   4  -3   5  386.16   15.10
   4   3   5  392.96   15.10
   4   3   5  392.46   14.40
   5  -3   5   40.20    5.50
   5  -3   5   46.10    6.00
   5   3   5   39.10    4.90
   5   3   5   46.20    5.80
   6  -3   5    0.90    2.70
   6  -3   5    0.70    3.30
   6   3   5   -1.00    2.40
   6   3   5   -0.90    2.30
   7  -3   5  153.98   10.70
   7   3   5  143.89   10.10
   8  -3   5    2.40    3.70
   8   3   5    1.80    3.40
   9  -3   5   33.60    7.00
   9   3   5   36.90    6.40
 -10  -4   5  295.67   18.00
   9  -4  -5  261.07   18.10
  -9  -4   5  253.57   15.60
   8  -4  -5   86.49   11.40
  -8  -4   5   71.69    9.10
   7  -4  -5  243.88   15.80
  -7  -4   5  259.67   14.80
   6  -4  -5  423.46   20.10
  -6  -4   5  434.26   19.00
   5  -4  -5  423.66   19.10
  -5  -4   5  429.56   18.20
   4  -4  -5  101.09    8.20
  -4  -4   5  133.49    8.90
  -3  -4   5   19.10    4.30
   3  -4  -5   13.40    3.90
  -2  -4   5    8.80    3.40
  -2  -4   5    6.60    1.90
   2  -4  -5   10.90    3.20
  -2   4   5    8.60    2.20
  -2   4   5   12.20    3.10
   1  -4  -5   16.50    3.50
  -1  -4   5   10.50    3.00
  -1  -4   5   19.40    2.80
  -1   4   5   13.60    2.60
  -1   4   5   13.10    3.00
   0  -4  -5   18.80    3.50
   0  -4   5   16.50    3.80
   0  -4   5   17.60    2.90
   0   4   5   14.80    3.10
   0   4   5   18.80    3.10
  -1  -4  -5  372.86   13.30
   1  -4   5  381.76   15.00
   1  -4   5  346.97   13.10
   1   4   5  372.46   13.40
   1   4   5  372.76   13.30
   2  -4   5  338.07   14.20
   2  -4   5  348.47   13.20
  -2  -4  -5  324.57   13.40
   2   4   5  348.37   12.70
   2   4   5  352.96   13.30
   3  -4   5  192.88   10.40
   3  -4   5  180.08    9.30
   3   4   5  169.68    8.40
   3   4   5  169.88    9.10
   4  -4   5  209.58   11.30
   4  -4   5  218.38   10.90
   4   4   5  209.98   10.80
   5  -4   5   42.40    6.20
   5  -4   5   42.80    5.90
   5   4   5   47.80    6.30
   6  -4   5  575.54   21.60
   6  -4   5  515.15   20.60
   6   4   5  510.55   20.30
   7  -4   5  362.16   17.30
   7   4   5  362.06   16.70
   8  -4   5   48.50    7.90
   8   4   5   54.19    7.80
  -9  -5   5  202.88   14.90
   9  -5  -5  225.68   22.80
   8  -5  -5    7.00    5.90
  -8  -5   5   11.10    5.50
   7  -5  -5  296.17   18.20
  -7  -5   5  311.17   17.10
   6  -5  -5    2.90    3.70
  -6  -5   5    9.20    4.50
   5  -5  -5  832.52   31.30
  -5  -5   5  860.91   30.20
  -4  -5   5 1934.61   55.79
   4  -5  -5 1930.61   56.89
  -3  -5   5  173.08   10.90
   3  -5  -5  200.88   11.70
  -2  -5   5  402.66   17.10
   2  -5  -5  417.66   17.20
  -1  -5   5  327.47   14.80
   1  -5  -5  328.87   14.30
  -1   5   5  321.77   12.80
  -1   5   5  305.57   12.30
   0  -5   5 2405.36   65.69
   0  -5  -5 2418.86   64.19
   0  -5   5 2338.67   64.49
   0   5   5 2452.35   62.89
   0   5   5 2374.56   62.59
   1  -5   5 2138.29   57.39
   1  -5   5 2244.18   61.19
  -1  -5  -5 2115.79   58.59
   1   5   5 2274.37   58.69
   1   5   5 2230.48   57.49
   2  -5   5  272.07   13.50
   2  -5   5  261.47   11.50
   2   5   5  255.97   11.80
   3  -5   5  117.79    7.80
   3  -5   5  114.59    9.20
   3   5   5  117.59    8.00
   4  -5   5  241.18   12.10
   4  -5   5  245.58   13.50
   4   5   5  259.97   12.60
   5  -5   5 1019.30   33.00
   5  -5   5 1063.29   34.80
   5   5   5 1048.80   33.40
   6  -5   5  290.17   15.80
   6  -5   5  311.87   15.40
   6   5   5  281.67   14.60
   7  -5   5   72.09    9.20
   7   5   5   76.19    8.50
   8  -5   5  201.88   14.90
   8   5   5  220.88   20.30
  -8  -6   5   38.40    8.50
  -7  -6   5   77.69   10.30
   7  -6  -5  114.39   14.30
  -6  -6   5  900.01   33.10
   6  -6  -5  896.81   35.10
   5  -6  -5 1156.48   40.30
  -5  -6   5 1134.79   38.40
  -4  -6   5   11.90    5.00
   4  -6  -5   16.10    5.30
   3  -6  -5   13.70    4.70
  -3  -6   5   18.10    5.10
   2  -6  -5   13.00    4.30
  -2  -6   5    8.40    4.40
  -1  -6   5  334.97   16.20
   1  -6  -5  337.07   15.70
  -1   6   5  310.57   13.30
   0  -6   5   87.39    9.10
   0  -6  -5   88.89    8.70
   0   6   5   88.09    7.30
   1  -6   5  851.01   30.00
  -1  -6  -5  851.11   35.20
   1   6   5  865.91   27.40
   2  -6   5  871.21   31.10
   2   6   5  924.71   29.00
   3  -6   5   69.69    7.20
   3  -6   5   64.59    8.60
   3   6   5   67.09    7.30
   4  -6   5   26.00    5.20
   4  -6   5   30.10    6.70
   4   6   5   44.90    6.60
   5  -6   5  167.78   11.00
   5  -6   5  168.88   12.60
   5   6   5  152.98   10.90
   6  -6   5 1285.57   40.60
   6  -6   5 1244.48   42.40
   6   6   5 1283.87   40.80
   7  -6   5  909.31   34.30
   7  -6   5  913.51   32.80
   6  -7  -5   73.29   11.60
  -6  -7   5   81.59   10.90
   5  -7  -5  421.06   22.30
  -5  -7   5  401.36   20.60
   4  -7  -5  714.13   29.40
  -4  -7   5  716.53   28.50
  -3  -7   5  800.22   30.20
   3  -7  -5  808.02   30.90
   2  -7  -5  451.85   20.70
  -2  -7   5  449.36   20.70
   1  -7  -5  342.97   17.20
  -1  -7   5  349.17   17.60
   0  -7   5  849.41   31.30
   0  -7  -5  845.12   29.80
   0   7   5  851.21   28.10
   1  -7   5  689.23   27.30
   1   7   5  716.23   24.80
   2  -7   5  410.06   20.40
   2   7   5  440.46   18.30
   3  -7   5  149.59   12.40
   3   7   5  167.08   11.00
   4  -7   5   60.59    8.90
   4   7   5   90.19    9.20
   5  -7   5  188.18   14.40
   5   7   5  166.18   13.50
   6  -7   5   15.10    5.80
   6  -7   5   25.80    7.60
   4  -8  -5  285.77   18.50
   3  -8  -5  323.77   18.90
  -3  -8   5  310.97   18.30
  -2  -8   5  177.98   13.90
   2  -8  -5  198.58   14.10
  -1  -8   5   11.50    5.50
   1  -8  -5    9.30    5.30
   0  -8   5   72.89   10.20
   1  -8   5    6.40    5.30
   1   8   5    3.40    4.00
   2  -8   5   11.60    6.40
   2   8   5   14.90    5.10
   3  -8   5  253.27   17.50
  -9   0   6  432.46   21.40
  -8   0   6  354.66   17.60
  -7   0   6  932.91   32.00
  -6   0   6 5743.23  146.09
  -5   0   6 3819.82   97.39
  -5   0   6 3863.21   99.69
  -4   0   6  125.29    8.00
  -4   0   6  127.19    7.20
  -3   0   6  956.00   27.90
  -3   0   6  889.81   26.80
  -2   0   6 1921.51   50.29
  -2   0   6 1882.51   50.09
  -1   0   6 3484.45   84.59
  -1   0   6 3299.47   85.39
   0   0   6  130.79    5.50
   0   0   6  128.89    7.00
   1   0   6 2097.49   54.89
   1   0   6 2073.89   51.19
   2   0   6  287.77   11.60
   3   0   6  507.35   17.50
   4   0   6  141.99    8.40
   5   0   6 3082.79   80.79
   6   0   6 4365.26  112.09
   7   0   6 1410.16   42.70
   8   0   6  111.49   10.20
   9   0   6   90.79    9.70
  10   0   6 2103.99   62.99
  10  -1  -6   83.09   11.10
 -10  -1   6   53.89    8.90
   9  -1  -6    0.20    4.00
  -9  -1   6   -0.70    4.00
  -8  -1   6  750.12   27.50
   8  -1  -6  678.43   27.30
   7  -1  -6  100.79   10.40
  -7  -1   6   93.59    9.40
  -6  -1   6 1040.80   33.50
  -5  -1   6 1954.60   54.09
  -5  -1   6 1895.41   51.49
  -5   1   6 1992.60   55.49
  -5   1   6 1909.01   52.59
  -4  -1   6 2427.26   64.69
  -4  -1   6 2489.95   62.99
  -4   1   6 2367.76   65.59
  -4   1   6 2435.46   63.99
  -3  -1   6  253.27   10.10
  -3  -1   6  255.67   10.80
  -3   1   6  247.88   10.60
  -3   1   6  226.68   10.80
  -2  -1   6  867.21   25.60
  -2  -1   6  919.71   26.10
  -2   1   6  898.61   26.30
  -2   1   6  863.91   26.10
  -2   1   6  905.61   22.70
  -1  -1   6 6689.73  160.38
  -1  -1   6 6476.25  159.38
  -1   1   6 6471.75  160.48
   0  -1   6 7765.22  191.48
   0  -1  -6 8179.48  190.68
   0  -1   6 7666.73  193.28
   0   1   6 8128.39  193.78
   1  -1   6 4359.26  105.89
   1  -1   6 4110.29  103.29
   1   1   6 4242.28  105.99
   2  -1   6 1167.58   33.40
   2  -1   6 1188.78   30.60
   2   1   6 1159.78   33.30
   3  -1   6 1624.84   42.10
   3  -1   6 1683.83   45.70
   3   1   6 1652.33   45.10
   4  -1   6 2145.69   57.19
   4   1   6 2073.59   56.49
   5  -1   6 1865.01   51.69
   5   1   6 1833.32   50.89
   6  -1   6  297.17   13.90
   6   1   6  260.57   12.80
   7  -1   6   34.40    6.10
   7   1   6   20.30    4.70
   8  -1   6   85.89    9.60
   8   1   6   51.49    7.00
   9  -1   6   46.90    8.10
   9   1   6   64.09    8.40
  10   1   6    9.60    5.40
  10  -2  -6  701.13   29.90
 -10  -2   6  666.63   28.20
   9  -2  -6 1494.85   49.99
  -9  -2   6 1546.95   48.70
   8  -2  -6 1844.12   57.49
  -8  -2   6 1885.61   55.99
   7  -2  -6 1409.26   45.70
  -7  -2   6 1421.96   43.80
   6  -2  -6 2037.40   60.39
  -6  -2   6 2101.39   58.49
   5  -2  -6 1699.73   50.89
  -5  -2   6 1775.32   46.30
  -5  -2   6 1717.03   49.10
  -4  -2   6 2524.65   67.59
   4  -2  -6 2533.75   68.89
  -4  -2   6 2548.34   64.99
  -4   2   6 2548.84   66.99
  -3  -2   6 1721.03   44.80
  -3  -2   6 1730.83   46.70
   3  -2  -6 1663.73   46.80
  -3   2   6 1656.63   46.10
  -2  -2   6  253.07   10.60
   2  -2  -6  239.58   10.20
  -2  -2   6  248.88    9.80
  -2   2   6  253.67   10.80
  -2   2   6  253.27    8.10
  -1  -2   6  224.38    9.40
  -1  -2   6  227.58    9.30
   1  -2  -6  230.58    8.80
  -1   2   6  222.68    9.80
  -1   2   6  224.58    7.90
   0  -2   6   39.30    4.00
   0  -2  -6   34.20    2.80
   0  -2   6   39.60    4.40
   0   2   6   44.00    3.60
   0   2   6   32.00    4.20
   1  -2   6   28.40    3.50
  -1  -2  -6   26.10    2.00
   1  -2   6   28.60    4.00
   1   2   6   28.00    4.00
   1   2   6   22.50    3.10
   2  -2   6  194.48    9.20
   2  -2   6  191.38    8.20
   2   2   6  181.98    8.50
   2   2   6  205.88    9.30
   3  -2   6  900.41   28.50
   3  -2   6  970.90   27.10
   3   2   6  981.90   28.50
   4  -2   6 1099.89   32.70
   4  -2   6 1061.39   30.30
   4   2   6 1062.09   31.60
   5  -2   6  950.80   30.40
   5   2   6  964.60   29.40
   6  -2   6  720.73   25.50
   6   2   6  726.13   24.20
   7  -2   6 1175.48   37.60
   7   2   6 1188.88   36.00
   8  -2   6 1069.19   36.20
   8   2   6 1078.99   34.20
   9  -2   6  792.62   30.10
   9   2   6  781.22   28.50
 -10  -3   6  711.83   29.50
  10  -3  -6  693.43   31.50
  -9  -3   6  340.87   18.10
   9  -3  -6  307.97   19.40
  -8  -3   6  198.48   13.30
   8  -3  -6  199.18   14.80
   7  -3  -6  311.77   17.90
  -7  -3   6  379.96   17.50
  -6  -3   6    2.60    3.40
   6  -3  -6    3.70    3.70
   5  -3  -6  170.28   11.10
  -5  -3   6  161.18   10.10
   4  -3  -6  281.47   13.50
  -4  -3   6  265.97   12.70
  -4  -3   6  267.97   10.10
  -4   3   6  251.37   12.00
   3  -3  -6 3176.08   81.39
  -3  -3   6 3104.69   81.09
  -3  -3   6 3090.09   77.79
  -3   3   6 3025.50   80.19
  -2  -3   6 4209.48  105.59
  -2  -3   6 4274.17  107.99
   2  -3  -6 4308.97  107.59
  -2   3   6 4268.07  104.39
  -2   3   6 4258.57  107.49
  -1  -3   6 1415.86   38.80
   1  -3  -6 1472.25   39.40
  -1  -3   6 1452.05   40.30
  -1   3   6 1423.46   40.10
  -1   3   6 1441.46   37.80
   0  -3   6  137.59    7.20
   0  -3  -6  139.99    6.70
   0  -3   6  156.38    8.10
   0   3   6  149.59    7.80
   0   3   6  135.59    6.60
   1  -3   6 2343.77   60.89
   1  -3   6 2395.16   61.39
  -1  -3  -6 2256.27   59.29
   1   3   6 2352.86   61.09
   1   3   6 2310.37   59.99
   2  -3   6 4224.48  106.89
   2  -3   6 4192.78  107.09
   2   3   6 4315.97  106.59
   2   3   6 4269.67  106.89
   3  -3   6 2962.60   76.59
   3  -3   6 2789.12   75.39
   3   3   6 3034.80   75.79
   3   3   6 2925.11   75.99
   4  -3   6  859.51   27.70
   4  -3   6  881.21   26.90
   4   3   6  835.72   27.10
   4   3   6  865.91   26.60
   5  -3   6   93.99    8.60
   5   3   6   90.69    7.80
   5   3   6   98.69    8.90
   6  -3   6  783.02   27.20
   6   3   6  776.82   27.00
   6   3   6  757.92   25.20
   7  -3   6 1022.00   33.80
   7   3   6  975.50   33.30
   8  -3   6  138.89   12.70
   8   3   6   93.09    9.80
  -9  -4   6 1588.44   51.19
   9  -4  -6 1583.34   55.09
  -8  -4   6 2440.26   70.59
   8  -4  -6 2421.06   74.49
  -7  -4   6 1287.17   41.70
   7  -4  -6 1251.57   44.10
   6  -4  -6  207.28   14.00
  -6  -4   6  201.48   12.80
  -5  -4   6  872.81   29.70
   5  -4  -6  833.92   30.60
  -4  -4   6 3200.78   86.59
   4  -4  -6 3316.57   87.79
  -3  -4   6 1718.73   48.50
   3  -4  -6 1668.03   48.50
  -3   4   6 1669.93   47.10
  -2  -4   6   10.30    2.40
   2  -4  -6    8.80    3.10
  -2  -4   6   11.50    3.60
  -2   4   6    6.20    2.90
  -2   4   6   13.70    2.60
  -1  -4   6   68.99    7.00
  -1  -4   6   63.19    5.30
   1  -4  -6   64.59    5.60
  -1   4   6   59.39    5.90
  -1   4   6   65.49    5.20
   0  -4  -6  152.28    7.80
   0  -4   6  138.69    8.70
   0  -4   6  132.79    7.20
   0   4   6  147.39    7.50
   0   4   6  140.79    7.90
   1  -4   6  739.23   23.00
   1  -4   6  690.03   24.00
   1   4   6  737.73   22.80
   1   4   6  777.62   23.40
   2  -4   6   10.70    3.50
   2  -4   6   12.90    3.50
   2   4   6   13.70    3.30
   2   4   6   17.40    3.50
   3  -4   6 2795.02   73.59
   3  -4   6 2720.33   72.89
   3   4   6 2726.73   71.89
   3   4   6 2828.42   72.89
   4  -4   6 2096.89   57.09
   4  -4   6 2043.20   56.79
   4   4   6 2028.50   62.79
   4   4   6 2032.70   56.69
   5  -4   6   73.59    7.80
   5  -4   6   86.99    8.40
   5   4   6   69.19    7.60
   6  -4   6   13.60    5.00
   6   4   6   21.30    4.90
   7  -4   6  646.44   24.70
   7   4   6  580.84   23.80
   8  -4   6 1912.31   58.69
   8   4   6 2063.79   59.19
  -8  -5   6    8.70    5.30
   8  -5  -6    2.60    5.20
  -7  -5   6  152.18   12.30
   7  -5  -6   96.69   12.50
  -6  -5   6   -0.70    4.40
   6  -5  -6    6.40    4.80
  -5  -5   6   94.89   10.30
   5  -5  -6   70.29    9.80
  -4  -5   6  286.27   15.10
   4  -5  -6  292.37   15.50
  -3  -5   6 1674.93   49.10
   3  -5  -6 1635.74   49.00
   2  -5  -6 2516.65   68.89
  -2  -5   6 2513.95   69.19
  -2   5   6 2543.35   65.49
  -2   5   6 2524.65   67.29
  -1  -5   6  655.83   23.90
   1  -5  -6  691.73   23.40
  -1   5   6  681.03   21.50
  -1   5   6  675.53   22.40
   0  -5   6  761.82   26.00
   0  -5  -6  712.33   24.00
   0   5   6  738.33   23.40
   0   5   6  756.62   23.70
   1  -5   6 1166.88   33.60
   1  -5   6 1155.78   36.20
   1   5   6 1166.48   34.10
   1   5   6 1164.88   33.70
   2  -5   6 1890.81   52.89
   2  -5   6 1989.90   55.69
   2   5   6 1980.30   53.59
   3  -5   6 1357.96   40.10
   3  -5   6 1387.76   42.00
   3   5   6 1386.86   40.50
   4  -5   6  339.17   15.40
   4  -5   6  352.46   16.60
   4   5   6  366.96   15.90
   5  -5   6  177.08   11.40
   5  -5   6  186.48   12.10
   5   5   6  192.08   11.70
   6  -5   6  178.38   12.10
   6   5   6  209.58   12.70
   7  -5   6  246.98   14.80
   7   5   6  245.78   14.80
   7  -6  -6  885.61   37.10
  -7  -6   6  898.81   34.30
  -6  -6   6  826.22   31.90
   6  -6  -6  858.41   34.50
  -5  -6   6  659.03   26.60
   5  -6  -6  624.74   27.30
  -4  -6   6  116.19   11.60
   4  -6  -6  116.29   12.00
  -3  -6   6  168.78   12.00
   3  -6  -6  152.98   11.50
   2  -6  -6  968.90   32.30
  -2  -6   6  924.51   32.20
   1  -6  -6  491.55   19.70
  -1  -6   6  474.85   20.30
  -1   6   6  483.35   17.60
  -1   6   6  475.25   18.00
   0  -6   6   10.00    4.60
   0   6   6   11.30    3.60
   1  -6   6  176.08   11.90
   1   6   6  177.28   10.40
   2  -6   6   89.59    9.60
   2   6   6   87.39    8.30
   3  -6   6   14.60    5.20
   3  -6   6   18.10    4.30
   3   6   6   18.50    4.80
   4  -6   6    8.10    4.10
   4  -6   6    4.50    4.50
   4   6   6    6.90    4.10
   5  -6   6  451.45   19.60
   5  -6   6  457.05   21.00
   5   6   6  434.56   19.60
   6  -6   6  936.21   32.70
   6   6   6  929.41   33.30
   6  -7  -6   63.49   10.70
  -5  -7   6 1062.79   38.20
   5  -7  -6 1053.49   40.00
  -4  -7   6  482.55   22.30
   4  -7  -6  449.26   22.50
  -3  -7   6   85.69   10.40
   3  -7  -6   58.99    8.80
  -2  -7   6   23.10    5.80
   2  -7  -6   13.60    4.90
  -1  -7   6  846.42   31.20
   0  -7   6 2478.55   70.39
   0   7   6 2390.26   66.19
   1  -7   6  704.33   27.90
   1   7   6  706.13   25.10
   2  -7   6   59.89    8.80
   2   7   6   61.79    7.80
   3  -7   6  102.69   11.30
   3   7   6  120.19   10.50
   4  -7   6  701.13   28.60
   4   7   6  692.83   26.60
   5  -7   6  712.93   29.40
   6  -7   6   23.60    7.50
   6  -7   6   20.30    8.20
   4  -8  -6   19.90    7.20
   3  -8  -6   36.80    8.10
   2  -8  -6  536.95   33.70
  -2  -8   6  541.55   25.30
  -1  -8   6  189.58   14.50
   0  -8   6   20.10    7.10
   1  -8   6  191.38   14.70
   1   8   6  203.38   12.60
   2  -8   6   82.79   11.80
   2   8   6   85.19   11.90
  -9   0   7    1.70    4.40
  -8   0   7   -1.30    3.90
  -7   0   7   -1.40    3.30
  -6   0   7   -0.80    2.90
  -6   0   7    3.30    3.00
  -5   0   7   -0.70    2.50
  -5   0   7    4.10    2.90
  -4   0   7    0.20    2.20
  -4   0   7    1.40    2.30
  -3   0   7    1.00    2.20
  -3   0   7   -0.20    2.00
  -2   0   7    1.00    1.90
  -2   0   7   -1.20    1.70
  -1   0   7    0.40    1.60
  -1   0   7   -1.60    2.00
   0   0   7    0.20    1.20
   0   0   7    2.40    2.30
   1   0   7   11.20    2.90
   2   0   7    2.10    2.50
   3   0   7    2.80    2.70
   4   0   7    1.80    2.70
   5   0   7    2.10    3.20
   6   0   7    0.80    3.00
   7   0   7   -3.90    2.90
   8   0   7   -0.20    3.90
   9   0   7    4.00    4.60
  10  -1  -7  267.37   17.30
 -10  -1   7  265.07   17.00
  -9  -1   7    9.20    5.10
   9  -1  -7    6.10    5.10
  -8  -1   7  164.48   12.10
   8  -1  -7  162.38   12.20
  -7  -1   7   48.40    7.20
   7  -1  -7   51.89    7.40
  -6  -1   7  560.04   19.40
  -6  -1   7  527.05   21.10
  -5  -1   7  213.18   10.40
  -5  -1   7  216.38   11.80
  -5   1   7  221.78   11.20
  -5   1   7  244.78   13.00
  -4  -1   7  331.77   14.00
  -4  -1   7  352.56   13.20
  -4   1   7  320.17   14.60
  -4   1   7  321.47   13.50
  -3  -1   7  696.43   22.60
  -3  -1   7  751.62   23.50
  -3   1   7  749.33   23.60
  -3   1   7  737.03   24.00
  -2  -1   7  355.36   13.40
  -2  -1   7  370.56   13.40
  -2   1   7  352.16   13.90
  -2   1   7  352.56   13.40
  -2   1   7  363.36   10.40
   1  -1  -7  284.17   10.40
  -1  -1   7  276.57   10.60
  -1  -1   7  289.57   11.60
  -1   1   7  286.77   11.90
   0  -1   7    5.10    2.50
   0  -1  -7    6.40    1.50
   0  -1   7    5.00    1.80
   0   1   7    3.20    2.20
   1  -1   7  671.43   18.70
   1  -1   7  643.34   21.40
   1   1   7  665.03   21.50
   2  -1   7  830.62   25.70
   2  -1   7  799.52   22.60
   2   1   7  827.02   25.70
   3  -1   7   10.60    3.40
   3   1   7   12.00    3.50
   4  -1   7  472.45   18.10
   4   1   7  471.35   17.70
   5  -1   7    9.60    3.90
   5   1   7    5.00    3.10
   6  -1   7  321.17   15.20
   6   1   7  303.27   14.40
   7  -1   7  209.48   12.60
   7   1   7  219.38   12.40
   8  -1   7   60.39    8.80
   8   1   7   51.39    7.40
   9  -1   7  438.56   21.30
   9   1   7  450.45   20.30
 -10  -2   7   73.89   10.30
  10  -2  -7   77.19   11.20
  -9  -2   7  634.24   26.50
   9  -2  -7  621.34   27.80
   8  -2  -7   65.09    9.60
  -8  -2   7   60.19    8.30
   7  -2  -7  151.28   11.90
  -7  -2   7  145.09   10.70
  -6  -2   7  115.79    9.10
  -6  -2   7   97.99    7.00
   6  -2  -7   88.89    9.90
  -5  -2   7  478.75   18.80
  -5  -2   7  479.35   16.60
   5  -2  -7  441.66   19.70
  -5   2   7  485.35   18.30
  -4  -2   7 1305.07   36.30
   4  -2  -7 1252.07   39.50
  -4  -2   7 1341.67   38.60
  -4   2   7 1298.47   38.20
   3  -2  -7   23.10    4.10
  -3  -2   7   23.60    4.30
  -3  -2   7   17.80    3.30
  -3   2   7   22.60    4.30
   2  -2  -7  684.53   21.90
  -2  -2   7  708.93   22.40
  -2  -2   7  730.43   22.00
  -2   2   7  708.83   23.10
  -2   2   7  702.13   19.30
   1  -2  -7   10.70    2.30
  -1  -2   7   12.50    3.10
  -1  -2   7   11.40    2.90
  -1   2   7    6.00    2.60
  -1   2   7   10.70    2.00
   0  -2   7 1532.15   41.60
   0  -2   7 1543.75   42.70
   0  -2  -7 1579.64   39.90
   0   2   7 1503.45   43.00
   0   2   7 1597.54   40.80
   1  -2   7 1193.08   33.70
   1  -2   7 1152.98   32.00
   1   2   7 1146.89   32.10
   1   2   7 1159.68   33.80
   2  -2   7  233.08   10.90
   2  -2   7  238.38    9.40
   2   2   7  221.68   10.00
   2   2   7  222.08   10.60
   3  -2   7  806.52   25.70
   3   2   7  753.82   24.80
   4  -2   7   10.10    3.90
   4   2   7    3.70    2.80
   5  -2   7  571.34   21.90
   5   2   7  616.14   21.40
   6  -2   7  106.29   10.00
   6   2   7  122.69    9.00
   7  -2   7  481.15   20.50
   7   2   7  449.76   18.80
   8  -2   7  401.36   19.10
   8   2   7  357.26   17.10
  -9  -3   7   33.20    7.80
   9  -3  -7   23.50    7.70
  -8  -3   7   51.79    8.30
   8  -3  -7   42.80    8.60
  -7  -3   7   10.10    4.90
   7  -3  -7   10.90    5.30
  -6  -3   7  205.58   12.40
   6  -3  -7  169.18   12.80
   5  -3  -7   59.79    8.20
  -5  -3   7   64.19    7.70
  -5   3   7   49.10    6.40
  -4  -3   7  131.89    9.10
  -4  -3   7  133.69    7.20
   4  -3  -7  131.69    9.30
  -4   3   7  123.79    8.70
   3  -3  -7  862.51   27.50
  -3  -3   7  805.72   24.80
  -3  -3   7  840.52   27.30
  -3   3   7  881.61   27.20
   2  -3  -7  173.68    9.00
  -2  -3   7  168.48    8.20
  -2  -3   7  172.88    9.50
  -2   3   7  179.28    7.20
  -2   3   7  165.08    9.30
  -1  -3   7   94.39    6.30
  -1  -3   7   97.99    6.90
   1  -3  -7  101.19    6.10
  -1   3   7  111.39    7.20
  -1   3   7   92.39    5.40
   0  -3   7  111.19    7.00
   0  -3   7  120.89    7.30
   0   3   7  112.99    6.20
   0   3   7  124.99    7.70
   1  -3   7  834.02   25.80
   1  -3   7  837.92   26.30
   1   3   7  860.01   25.20
   1   3   7  875.81   26.70
   2  -3   7 1016.70   29.70
   2  -3   7 1002.00   30.50
   2   3   7 1016.10   29.80
   2   3   7  970.00   30.10
   3  -3   7   99.19    7.80
   3  -3   7  110.19    7.20
   3   3   7   84.79    7.60
   3   3   7   96.09    7.20
   4  -3   7   98.09    7.70
   4   3   7   83.49    7.80
   4   3   7   87.69    7.80
   5  -3   7  135.29    9.80
   5   3   7  126.39    8.70
   5   3   7  135.29    9.70
   6  -3   7  511.65   20.70
   6   3   7  493.05   19.00
   6   3   7  450.75   19.90
   7  -3   7  162.38   12.20
   7   3   7  180.18   12.20
   8  -3   7    2.60    4.80
   8   3   7    6.20    4.80
   9  -4  -7   63.19   11.60
  -9  -4   7   70.99   10.50
  -8  -4   7  215.78   14.80
   8  -4  -7  187.18   18.30
  -7  -4   7  500.35   22.70
   7  -4  -7  560.34   25.90
   6  -4  -7  645.14   27.40
  -6  -4   7  654.83   25.70
   5  -4  -7  139.19   11.00
  -5  -4   7  121.49   10.10
   4  -4  -7  227.68   13.20
  -4  -4   7  240.38   13.10
  -4   4   7  230.08   12.10
   3  -4  -7  426.36   17.30
  -3  -4   7  389.26   17.00
  -3   4   7  395.76   16.40
   2  -4  -7 1399.96   39.70
  -2  -4   7 1291.97   37.10
  -2  -4   7 1326.77   40.10
  -2   4   7 1342.57   36.50
  -2   4   7 1400.86   39.60
   1  -4  -7   82.39    6.30
  -1  -4   7   95.89    6.40
  -1  -4   7   86.89    7.30
  -1   4   7   96.89    7.10
  -1   4   7   88.79    5.80
   0  -4   7  195.68    9.70
   0  -4   7  225.98   11.20
   0   4   7  223.08    9.70
   0   4   7  202.28   10.50
   1  -4   7    8.20    3.20
   1  -4   7    8.90    3.60
   1   4   7    0.90    2.30
   1   4   7    3.00    2.70
   2  -4   7    3.00    3.00
   2  -4   7   -1.10    2.70
   2   4   7   -2.80    2.20
   2   4   7    0.00    2.40
   3  -4   7  231.68   11.60
   3  -4   7  198.28   11.10
   3   4   7  229.08   11.40
   3   4   7  212.38   10.70
   4  -4   7   83.49   11.80
   4  -4   7   99.49    9.30
   4   4   7   70.99    8.00
   4   4   7   83.49    8.00
   5  -4   7  683.03   25.00
   5   4   7  683.43   25.00
   6  -4   7  127.19   11.30
   6   4   7  144.79   12.30
   7  -4   7   86.99   10.30
   7   4   7   60.09    8.30
  -8  -5   7  488.95   23.50
   8  -5  -7  464.15   25.90
   7  -5  -7   76.39   11.60
  -7  -5   7   57.19    8.80
   6  -5  -7  285.57   18.00
  -6  -5   7  319.87   17.40
  -5  -5   7  446.46   20.30
   5  -5  -7  429.76   21.10
  -4  -5   7   29.20    6.40
   4  -5  -7   33.40    6.90
   3  -5  -7   96.79    9.70
  -3  -5   7   81.19    8.60
  -3   5   7   87.79    8.40
  -2  -5   7   42.10    6.70
   2  -5  -7   42.30    6.00
  -2   5   7   52.49    5.10
  -2   5   7   54.99    6.70
  -1  -5   7  692.83   24.70
  -1   5   7  681.83   21.80
  -1   5   7  675.13   23.30
   0  -5   7 1285.07   39.80
   0   5   7 1322.87   37.60
   0   5   7 1330.57   38.40
   1  -5   7   31.20    4.70
   1  -5   7   38.70    6.40
   1   5   7   35.50    5.10
   1   5   7   37.70    5.10
   2  -5   7    8.20    4.00
   2  -5   7    2.90    3.00
   2   5   7    7.30    3.40
   3  -5   7  671.43   24.30
   3  -5   7  622.94   22.90
   3   5   7  658.63   23.50
   4  -5   7  885.31   30.60
   4  -5   7  878.81   30.00
   4   5   7  940.81   30.70
   5  -5   7  436.76   19.10
   5   5   7  446.26   19.40
   6  -5   7    5.30    4.90
   6   5   7    1.70    4.20
   7  -5   7    3.50    5.60
   7  -6  -7 1163.58   44.60
  -7  -6   7 1100.29   44.10
   6  -6  -7  832.42   34.50
  -6  -6   7  819.62   32.00
   5  -6  -7  154.68   14.90
  -5  -6   7  146.19   13.70
   4  -6  -7   24.20    6.40
  -4  -6   7   16.00    5.90
   3  -6  -7  534.15   23.00
  -3  -6   7  579.54   23.70
  -2  -6   7 1722.83   50.99
   2  -6  -7 1625.44   49.70
  -1  -6   7  259.17   14.70
  -1   6   7  270.07   12.40
  -1   6   7  277.87   13.20
   0  -6   7  129.79   10.40
   0   6   7  123.79    8.60
   1  -6   7  111.09   10.90
   1   6   7   88.39    8.30
   2  -6   7  107.19   10.60
   2   6   7  119.59    9.80
   3  -6   7  329.57   15.70
   3  -6   7  350.06   17.40
   3   6   7  345.27   16.10
   4  -6   7   34.90    7.20
   4  -6   7   31.60    6.10
   4   6   7   27.80    6.00
   5  -6   7  875.31   31.00
   5   6   7  905.81   32.10
   6  -6   7  399.56   19.60
   6  -7  -7    2.70    6.00
   5  -7  -7   69.49   10.70
  -5  -7   7   73.69   11.90
   4  -7  -7   78.99   10.70
  -4  -7   7   66.09    9.90
   3  -7  -7   43.30    8.00
  -3  -7   7   44.00    8.50
  -2  -7   7  440.76   20.80
  -1  -7   7  714.93   28.30
  -1   7   7  723.43   25.10
   0  -7   7  663.93   26.70
   0   7   7  665.33   24.00
   1  -7   7  287.07   16.70
   1   7   7  305.97   15.00
   2  -7   7  288.17   16.90
   2   7   7  313.47   15.50
   3  -7   7  678.53   28.00
   3   7   7  707.93   26.50
   4  -7   7  599.24   26.30
   4  -8  -7  625.14   28.90
   0   8   7  649.83   24.90
   1   8   7  181.28   13.10
  -9   0   8  104.79   11.90
  -8   0   8 2075.99   61.99
  -7   0   8 3644.44   98.29
  -6   0   8  157.88   10.90
  -6   0   8  172.48   10.20
  -5   0   8  440.16   17.90
  -5   0   8  398.76   16.30
  -4   0   8 1783.52   50.79
  -4   0   8 1903.01   51.89
  -3   0   8 6222.18  153.38
  -3   0   8 6096.69  153.28
  -2   0   8 6090.29  147.39
  -2   0   8 5815.62  148.09
  -1   0   8    7.70    3.00
   0   0   8   32.60    3.30
   0   0   8   25.40    4.20
   1   0   8  700.73   23.20
   2   0   8 2916.21   76.89
   3   0   8  498.45   18.80
   4   0   8  276.57   13.60
   5   0   8  551.94   21.20
   6   0   8  191.28   12.00
   7   0   8   33.80    6.70
   8   0   8  471.55   21.30
  10  -1  -8  513.25   24.90
 -10  -1   8  486.65   23.70
  -9  -1   8 1675.43   52.39
   9  -1  -8 1605.94   52.89
   8  -1  -8 1170.98   40.90
  -8  -1   8 1250.87   40.80
   7  -1  -8  533.95   23.00
  -7  -1   8  553.54   22.70
  -6  -1   8   26.10    5.70
  -6  -1   8   25.50    4.70
  -6   1   8   35.50    6.10
  -5  -1   8   75.29    7.80
  -5  -1   8   67.09    6.70
  -5   1   8   88.09    9.30
  -5   1   8   68.79    7.50
  -4  -1   8  292.87   12.50
  -4  -1   8  277.07   12.90
  -4   1   8  289.57   13.10
  -4   1   8  270.17   13.50
  -3  -1   8   23.70    4.10
  -3  -1   8   16.00    3.60
  -3   1   8   26.80    4.80
  -3   1   8   35.00    5.20
  -2  -1   8  967.00   28.70
  -2  -1   8  939.11   29.30
  -2   1   8 1036.30   30.40
  -1  -1   8 2280.17   60.29
  -1  -1   8 2368.46   62.29
   1  -1  -8 2358.76   60.09
  -1   1   8 2359.06   62.59
   0  -1   8 1816.02   50.09
   0  -1   8 1795.92   47.30
   0   1   8 1867.91   50.49
   1  -1   8  713.83   23.10
   1   1   8  654.83   22.60
   2  -1   8 1898.31   52.29
   2   1   8 1873.41   52.19
   3  -1   8 4429.66  113.49
   3   1   8 4425.06  113.29
   4  -1   8 3351.36   88.09
   4   1   8 3329.67   87.79
   5  -1   8  521.95   20.40
   5   1   8  476.55   19.40
   6  -1   8  177.18   11.90
   6   1   8  165.78   10.80
   7  -1   8  820.92   29.90
   7   1   8  818.82   29.10
   8  -1   8 1153.98   39.30
   8   1   8 1171.18   38.30
   9   1   8  643.94   26.30
  -9  -2   8  603.84   25.90
   9  -2  -8  564.54   26.90
   8  -2  -8  639.54   28.80
  -8  -2   8  716.93   27.60
  -7  -2   8  975.70   33.60
   7  -2  -8  941.91   35.50
  -6  -2   8 1521.15   41.50
   6  -2  -8 1260.27   45.10
  -6  -2   8 1466.35   44.20
  -6   2   8 1510.75   43.80
   5  -2  -8 2328.97   70.59
  -5  -2   8 2525.45   69.19
  -5  -2   8 2672.43   66.99
  -5   2   8 2574.34   68.99
   4  -2  -8 2490.75   71.89
  -4  -2   8 2577.64   70.69
  -4  -2   8 2670.83   69.19
  -4   2   8 2806.72   71.19
  -3  -2   8 1717.43   46.80
  -3  -2   8 1696.73   47.80
   3  -2  -8 1726.03   48.20
  -3   2   8 1691.63   48.20
  -2  -2   8 1682.13   46.40
   2  -2  -8 1724.53   46.20
  -2  -2   8 1659.03   46.60
  -2   2   8 1709.73   47.80
  -1  -2   8 1824.42   49.60
   1  -2  -8 1780.72   49.00
  -1  -2   8 1889.51   50.59
  -1   2   8 1882.01   51.39
  -1   2   8 1898.21   47.60
   0  -2   8 1549.14   44.00
   0  -2   8 1567.34   42.50
   0   2   8 1615.04   41.80
   0   2   8 1565.34   44.50
   1  -2   8  533.55   17.50
   1  -2   8  586.34   20.00
   1   2   8  561.14   19.90
   1   2   8  543.35   17.80
   2  -2   8   52.89    6.30
   2   2   8   59.39    6.30
   3  -2   8    0.40    2.70
   3   2   8    6.90    3.50
   4  -2   8    1.60    3.10
   4   2   8    4.90    3.50
   5  -2   8   19.80    5.40
   5   2   8   24.70    5.20
   6  -2   8  286.97   15.50
   6   2   8  313.07   15.00
   7  -2   8  561.24   23.40
   7   2   8  556.44   22.00
   8  -2   8  482.55   22.00
   8   2   8  422.76   19.50
   9  -3  -8  125.79   15.20
  -9  -3   8  108.09   12.10
  -8  -3   8   13.60    5.40
   8  -3  -8   17.50    7.00
   7  -3  -8  365.36   20.50
  -7  -3   8  403.36   19.20
  -6  -3   8  863.31   29.80
   6  -3  -8  781.82   31.30
   5  -3  -8   47.70    7.70
  -5  -3   8   50.99    7.00
  -5   3   8   57.89    7.10
  -4  -3   8  452.05   18.70
  -4  -3   8  456.55   16.40
   4  -3  -8  450.95   19.10
  -4   3   8  495.55   19.10
   3  -3  -8  773.02   25.30
  -3  -3   8  744.13   23.30
  -3  -3   8  708.33   24.80
  -3   3   8  732.53   25.00
  -2  -3   8    9.40    3.00
  -2  -3   8   13.40    3.80
   2  -3  -8   12.30    3.20
  -2   3   8    9.30    3.80
  -1  -3   8   93.29    6.70
  -1  -3   8   88.99    7.00
  -1   3   8   88.69    5.50
  -1   3   8   90.69    8.10
   0  -3   8  832.32   27.50
   0  -3   8  930.01   28.20
   0   3   8  937.91   29.00
   0   3   8  944.91   26.50
   1  -3   8 2740.03   70.59
   1  -3   8 2677.83   71.49
   1   3   8 2713.63   70.09
   1   3   8 2704.93   71.99
   2  -3   8 1920.41   52.69
   2  -3   8 1976.30   54.39
   2   3   8 1974.10   53.19
   2   3   8 1961.90   54.19
   3  -3   8   92.59    8.70
   3   3   8   95.89    8.40
   3   3   8   94.89    8.30
   4  -3   8  463.35   18.90
   4   3   8  474.35   18.20
   4   3   8  408.16   17.70
   5  -3   8 2037.10   56.99
   5   3   8 2054.19   55.69
   5   3   8 1803.22   55.99
   6  -3   8 2201.58   60.59
   6   3   8 2145.89   58.69
   6   3   8 1852.71   59.09
   7  -3   8  565.74   23.70
   7   3   8  529.55   23.20
  -8  -4   8  113.19   12.50
   8  -4  -8  111.19   14.10
   7  -4  -8  177.58   14.90
  -7  -4   8  185.98   13.40
  -6  -4   8 2012.60   59.49
   6  -4  -8 1990.50   62.09
  -5  -4   8 3592.04   95.49
   5  -4  -8 3484.45   96.89
   4  -4  -8 1718.53   52.09
  -4  -4   8 1749.32   51.59
  -4   4   8 1788.92   51.09
  -3  -4   8  240.78   13.10
   3  -4  -8  241.98   12.70
  -3   4   8  226.88   12.50
  -2  -4   8  197.38   10.60
   2  -4  -8  192.88   11.00
  -2  -4   8  202.18   11.50
  -2   4   8  193.18   11.00
  -1  -4   8 2648.33   68.59
  -1  -4   8 2763.32   70.89
  -1   4   8 2505.35   67.09
  -1   4   8 2534.35   70.09
   0  -4   8 3656.23   94.29
   0  -4   8 3625.74   93.29
   0   4   8 3638.84   91.99
   0   4   8 3598.84   94.39
   1  -4   8  259.17   12.50
   1  -4   8  260.47   12.20
   1   4   8  256.97   12.50
   1   4   8  252.17   11.50
   2  -4   8  214.38   11.10
   2  -4   8  205.28   11.10
   2   4   8  204.28   11.10
   2   4   8  205.08   10.60
   3  -4   8   88.79    8.70
   3   4   8   80.29    7.90
   3   4   8   82.09    8.00
   4  -4   8   84.19    8.90
   4   4   8   77.89    8.20
   4   4   8   79.19    8.20
   5  -4   8   83.29    9.30
   5   4   8   78.19    8.70
   6  -4   8  276.57   15.30
   6   4   8  217.18   13.90
   7  -4   8 1046.60   40.30
   8  -5  -8  146.39   16.70
   7  -5  -8  126.29   15.20
  -7  -5   8  126.29   12.90
   6  -5  -8  361.96   20.40
  -6  -5   8  343.27   18.70
  -5  -5   8  118.29   11.50
   5  -5  -8  123.59   12.70
   4  -5  -8  196.88   13.00
  -4  -5   8  187.28   12.90
  -3  -5   8  124.29   10.40
   3  -5  -8  125.09    9.80
  -3   5   8  135.39    9.80
  -2  -5   8  176.88   11.70
  -2   5   8  182.98   11.10
  -1  -5   8  246.08   13.30
  -1   5   8  218.08   10.60
  -1   5   8  249.48   12.50
   0  -5   8  882.31   29.50
   0   5   8  827.72   26.80
   0   5   8  878.81   28.50
   1  -5   8 1413.36   40.80
   1  -5   8 1421.56   42.40
   1   5   8 1392.16   40.60
   1   5   8 1387.86   41.50
   2  -5   8  836.52   27.30
   2  -5   8  812.42   28.20
   2   5   8  816.22   27.30
   3  -5   8  466.95   19.20
   3  -5   8  481.65   21.30
   3   5   8  482.75   19.60
   4  -5   8  461.15   19.90
   4   5   8  491.15   20.30
   5  -5   8 1280.17   40.80
   5   5   8 1277.47   41.20
   6  -5   8  780.52   28.90
   6   5   8  726.93   34.90
   7  -6  -8  557.74   29.40
  -6  -6   8  467.55   22.90
   6  -6  -8  431.16   24.10
   5  -6  -8  170.48   14.00
  -5  -6   8  207.38   14.50
  -4  -6   8  401.96   20.00
   4  -6  -8  385.06   19.90
  -3  -6   8 1203.38   40.10
  -2  -6   8  901.81   31.70
  -2   6   8  827.32   29.20
  -1  -6   8  176.78   12.20
  -1   6   8  159.08    9.50
  -1   6   8  146.19   10.30
   0  -6   8   33.50    6.50
   0   6   8   35.00    5.50
   1  -6   8  212.58   13.30
   1   6   8  218.78   11.90
   2  -6   8  376.06   18.50
   2   6   8  428.86   18.00
   3  -6   8   87.39   10.00
   3   6   8  113.99   10.40
   4  -6   8   50.99    7.60
   4   6   8   47.90    7.70
   5  -6   8  163.08   12.50
   5  -7  -8   23.70    7.60
  -4  -7   8  190.98   15.80
  -3  -7   8    1.70    4.90
  -2  -7   8  489.05   23.00
  -1  -7   8  758.62   29.60
   0  -7   8  189.38   13.80
   0   7   8  197.58   11.80
   1  -7   8   43.40    7.90
   1   7   8   38.30    6.40
   2  -7   8  309.77   17.50
   2   7   8  289.47   15.70
   3  -7   8 1326.17   44.30
   3   7   8 1329.37   49.20
   0   8   8   42.50    7.30
  -9   0   9   -1.10    5.20
  -8   0   9    6.10    4.80
  -7   0   9    1.20    4.10
  -7   0   9   -0.10    3.60
  -6   0   9   -0.90    3.30
  -6   0   9   -0.20    3.50
  -5   0   9   -1.70    2.70
  -5   0   9    2.00    3.30
  -4   0   9   -0.40    2.60
  -4   0   9    0.50    2.70
  -3   0   9    3.20    3.10
  -3   0   9    0.90    2.40
  -2   0   9    0.60    2.20
  -2   0   9    4.10    3.20
  -1   0   9   -1.10    2.60
  -1   0   9    0.00    1.90
   0   0   9    2.90    3.00
   1   0   9    0.80    2.80
   2   0   9    2.40    3.00
   3   0   9    2.40    3.50
   4   0   9    3.20    3.80
   5   0   9   -6.20    3.50
   6   0   9   -2.70    3.50
   7   0   9    3.30    4.60
   8   0   9    7.00    5.90
   9  -1  -9  132.69   14.10
  -9  -1   9  129.99   13.20
   8  -1  -9   21.70    6.00
  -8  -1   9   19.40    6.10
   7  -1  -9  287.27   16.30
  -7  -1   9  332.27   15.40
  -7  -1   9  316.17   16.30
  -6  -1   9  356.26   15.60
  -6  -1   9  358.66   17.00
  -6   1   9  352.86   16.50
  -5  -1   9    4.90    3.70
  -5  -1   9    5.70    3.60
  -5   1   9   12.40    4.40
  -4  -1   9  502.55   18.90
  -4  -1   9  499.15   19.30
  -4   1   9  506.05   19.60
  -3  -1   9   26.70    4.50
  -3  -1   9   26.20    4.70
  -3   1   9   21.80    4.50
  -2  -1   9  319.47   12.70
  -2  -1   9  294.47   13.40
  -2   1   9  311.27   14.10
  -1  -1   9    0.80    2.80
  -1  -1   9    2.50    2.10
  -1   1   9    0.00    2.40
   0  -1   9  366.66   15.10
   0   1   9  349.37   15.20
   1  -1   9  578.34   21.00
   1   1   9  561.74   20.80
   2  -1   9   30.80    5.50
   2   1   9   26.80    4.90
   3  -1   9  214.28   12.00
   3   1   9  196.48   11.60
   4  -1   9   90.79    9.20
   4   1   9   68.89    7.90
   5  -1   9  761.32   28.10
   5   1   9  824.32   28.30
   6  -1   9  180.88   12.50
   6   1   9  164.58   11.60
   7  -1   9  125.89   12.00
   7   1   9  162.38   12.00
   8   1   9   68.89    9.50
   9  -2  -9    2.60    5.20
  -9  -2   9    1.80    4.40
  -8  -2   9  194.58   14.00
   8  -2  -9  201.08   15.30
  -7  -2   9   25.30    6.40
   7  -2  -9   19.20    6.30
   6  -2  -9 1048.30   37.80
  -6  -2   9 1083.19   35.80
  -6  -2   9 1082.59   33.40
  -6   2   9 1130.49   36.00
   5  -2  -9  317.27   16.70
  -5  -2   9  328.87   14.10
  -5  -2   9  322.17   15.40
  -5   2   9  326.37   15.50
  -4  -2   9  262.67   13.30
   4  -2  -9  276.57   14.40
  -4  -2   9  314.97   13.40
  -4   2   9  285.27   13.90
   3  -2  -9  337.67   14.50
  -3  -2   9  332.67   14.30
  -3  -2   9  307.77   13.70
  -3   2   9  341.47   15.30
  -2  -2   9   55.39    6.10
  -2  -2   9   74.79    7.10
  -2   2   9   61.89    6.90
  -1  -2   9 1745.83   48.10
  -1  -2   9 1798.42   49.60
  -1   2   9 1731.23   46.10
  -1   2   9 1825.82   50.59
   0  -2   9  436.46   17.60
   0  -2   9  442.96   15.80
   0   2   9  493.15   15.70
   0   2   9  485.85   18.40
   1  -2   9  693.73   23.80
   1   2   9  668.23   21.40
   1   2   9  676.33   23.70
   2  -2   9  314.77   14.30
   2   2   9  284.77   12.50
   2   2   9  274.17   13.60
   3  -2   9  137.89   10.00
   3   2   9  114.39    9.00
   4  -2   9  664.53   24.60
   4   2   9  645.44   23.80
   5  -2   9   66.99    8.50
   5   2   9   76.19    8.70
   6  -2   9  339.57   17.10
   6   2   9  330.77   16.50
   7  -2   9  119.19   12.10
   7   2   9  104.39   10.70
   8   2   9   61.29    9.00
   9  -3  -9    4.70    6.00
  -8  -3   9   48.20    8.20
   8  -3  -9   50.99   10.10
   7  -3  -9  242.38   16.80
  -7  -3   9  273.97   15.90
  -6  -3   9  244.98   14.30
   6  -3  -9  219.08   15.20
  -5  -3   9   14.20    4.60
   5  -3  -9   12.00    5.10
  -5   3   9   13.20    4.50
  -4  -3   9  186.78   11.60
  -4  -3   9  175.48    9.80
   4  -3  -9  197.98   12.00
  -4   3   9  204.68   12.20
  -3  -3   9    1.40    3.20
   3  -3  -9    3.90    2.90
  -3  -3   9    3.60    2.70
  -3   3   9   -0.10    3.30
  -2  -3   9   94.69    7.00
  -2  -3   9   84.59    7.30
  -2   3   9   83.79    8.10
  -1  -3   9   28.50    4.80
  -1  -3   9   19.40    4.30
  -1   3   9   27.00    5.40
   0  -3   9   89.39    6.90
   0  -3   9  100.09    8.70
   0   3   9   81.89    5.90
   0   3   9   77.89    8.10
   1  -3   9  415.56   17.20
   1   3   9  427.96   17.60
   1   3   9  449.66   16.00
   2  -3   9   60.59    7.40
   2   3   9   44.10    6.30
   2   3   9   57.49    6.10
   3  -3   9    2.60    3.80
   3   3   9    2.30    3.10
   3   3   9    0.30    3.40
   4  -3   9  265.17   14.10
   4   3   9  209.58   12.50
   4   3   9  265.27   13.50
   5  -3   9  358.36   17.70
   5   3   9  364.76   17.30
   5   3   9  354.36   16.60
   6  -3   9  241.58   14.80
   6   3   9  208.38   12.80
   6   3   9  215.48   13.90
   8  -4  -9  191.68   19.00
  -8  -4   9  225.08   15.70
   7  -4  -9   63.19   10.70
  -7  -4   9   51.59    9.00
  -6  -4   9   89.99   10.20
   6  -4  -9   88.79   11.30
   5  -4  -9   95.09   11.10
  -5  -4   9   98.29   10.60
  -5   4   9   85.39    9.40
   4  -4  -9  564.04   22.70
  -4  -4   9  550.84   22.40
  -4   4   9  518.45   21.70
  -3  -4   9  937.81   31.10
  -3   4   9  884.81   30.80
  -2  -4   9  240.38   13.00
  -2   4   9  234.58   13.00
  -1  -4   9  453.25   18.20
  -1  -4   9  436.46   17.00
  -1   4   9  457.95   18.70
   0  -4   9   71.79    7.40
   0  -4   9   62.29    7.20
   0   4   9   66.79    6.20
   0   4   9   65.39    7.40
   1  -4   9  217.08   11.40
   1  -4   9  191.68   11.30
   1   4   9  204.78   11.80
   1   4   9  206.78   10.40
   2  -4   9  334.57   15.40
   2   4   9  350.26   15.70
   2   4   9  315.37   14.30
   3  -4   9   10.90    4.50
   3   4   9   12.80    4.30
   3   4   9   10.50    4.40
   4  -4   9   18.50    5.50
   4   4   9   20.50    5.50
   4   4   9   10.60    4.30
   5  -4   9   13.70    5.50
   5   4   9   17.10    5.30
   6  -4   9    3.30    5.00
   6   4   9    8.90    4.90
  -7  -5   9   23.30    7.30
   7  -5  -9   19.70    7.40
  -6  -5   9   18.80    6.60
   6  -5  -9   20.10    7.20
   5  -5  -9  232.78   15.40
  -5  -5   9  222.88   14.90
  -4  -5   9  341.27   17.60
  -4   5   9  314.27   16.60
  -3  -5   9   17.30    5.60
  -3   5   9   15.40    5.30
  -2  -5   9  642.54   24.80
  -2   5   9  652.43   24.60
  -1  -5   9   99.19    9.70
  -1   5   9   97.29    9.70
   0  -5   9  223.38   12.80
   0   5   9  212.58   11.00
   0   5   9  229.68   12.70
   1  -5   9    2.60    3.60
   1  -5   9    4.30    3.90
   1   5   9    6.30    4.00
   1   5   9   12.50    4.00
   2  -5   9  671.03   24.30
   2   5   9  663.13   23.90
   3  -5   9 1151.48   36.20
   3   5   9 1085.69   35.80
   4  -5   9  147.49   11.40
   4   5   9  157.68   11.40
   5  -5   9  131.29   11.80
   5   5   9  151.48   13.20
   6  -6  -9   11.40    6.20
  -5  -6   9   92.19   11.70
   5  -6  -9   79.49   12.20
  -4  -6   9  843.82   32.10
  -3  -6   9 1522.65   48.10
  -3   6   9 1475.55   46.40
  -2  -6   9  418.56   20.00
  -2   6   9  431.96   19.10
  -1  -6   9    0.40    4.30
  -1   6   9    0.80    3.80
   0  -6   9   46.50    7.70
   0   6   9   42.70    6.00
   1  -6   9  691.13   26.40
   1   6   9  683.33   24.60
   2  -6   9  891.61   35.50
   2   6   9  911.21   30.80
   3   6   9    0.70    4.00
   4  -6   9  100.49   10.40
  -2  -7   9   50.89    8.90
  -1  -7   9   73.69    9.90
   0  -7   9  131.59   13.00
   1  -7   9  250.17   15.90
   1   7   9  228.78   13.40
   2  -7   9  308.47   17.50
   2   7   9  291.87   17.00
  -9   0  10  779.32   32.10
  -8   0  10  548.75   24.70
  -7   0  10  106.29   10.40
  -7   0  10  122.19   12.00
  -6   0  10   21.40    5.40
  -6   0  10   31.00    6.50
  -5   0  10  722.23   26.50
  -5   0  10  813.22   27.60
  -4   0  10 4542.25  120.79
  -4   0  10 4870.91  120.89
  -3   0  10 2703.63   72.39
  -3   0  10 2773.52   73.99
  -2   0  10  545.55   20.70
  -1   0  10  281.17   13.80
   0   0  10 1725.03   49.80
   1   0  10 3591.14   94.59
   2   0  10 1069.49   34.30
   3   0  10    9.90    4.70
   4   0  10    0.00    4.10
   5   0  10  708.43   26.70
   6   0  10  647.24   25.90
   7   0  10   38.00    7.90
  -9  -1  10 1194.98   41.80
   9  -1 -10 1165.98   42.40
  -8  -1  10  853.31   32.20
   8  -1 -10  853.91   32.90
  -7  -1  10  394.06   19.00
   7  -1 -10  400.56   19.50
  -7  -1  10  369.96   17.30
  -7   1  10  370.06   18.40
  -6  -1  10 1407.46   42.40
   6  -1 -10 1415.86   44.50
  -6  -1  10 1383.66   43.50
  -6   1  10 1365.56   43.20
  -5  -1  10 1728.43   48.80
  -5  -1  10 1700.53   47.90
  -5   1  10 1475.55   47.70
  -4  -1  10  392.36   16.60
  -4  -1  10  371.96   16.40
  -4   1  10  387.86   17.10
  -3  -1  10   12.20    4.20
  -3  -1  10   14.40    4.10
  -3   1  10   16.10    4.90
  -2  -1  10   69.19    7.60
  -2  -1  10   61.39    6.10
  -2   1  10   55.39    6.90
  -1  -1  10  118.89    9.00
  -1   1  10  113.89    9.00
   0  -1  10   35.20    5.90
   0   1  10   32.80    5.50
   1  -1  10  536.65   21.20
   1   1  10  583.14   21.70
   2  -1  10 1815.52   54.29
   2   1  10 1982.00   54.79
   3  -1  10 1562.84   46.40
   3   1  10 1497.15   45.80
   4  -1  10  326.17   16.60
   4   1  10  338.37   16.50
   5  -1  10  538.15   22.50
   5   1  10  503.25   21.80
   6  -1  10 1110.79   37.80
   6   1  10 1089.09   37.10
   7   1  10 1482.15   47.20
   9  -2 -10    4.20    6.60
   8  -2 -10  144.99   15.30
  -8  -2  10  159.18   14.50
   7  -2 -10  294.07   17.90
  -7  -2  10  279.07   16.20
  -6  -2  10  836.92   28.10
  -6  -2  10  821.42   30.00
   6  -2 -10  850.21   32.10
  -6   2  10  808.02   29.80
  -5  -2  10  540.05   21.80
  -5  -2  10  551.24   20.90
   5  -2 -10  585.84   23.80
  -5   2  10  561.84   22.80
   4  -2 -10 1085.69   34.30
  -4  -2  10 1064.49   32.70
  -4  -2  10 1012.80   33.00
  -4   2  10  967.50   33.50
  -3  -2  10 1682.63   48.40
  -3  -2  10 1668.03   48.10
  -3   2  10 1736.83   49.99
  -2  -2  10 1918.61   52.59
  -2  -2  10 1886.31   53.39
  -2   2  10 1922.21   54.89
  -1  -2  10 2249.47   61.59
  -1   2  10 2218.48   62.29
   0  -2  10 1423.46   43.60
   0   2  10 1515.85   44.50
   0   2  10 1520.65   40.60
   1  -2  10 1438.36   42.40
   1   2  10 1379.06   42.10
   1   2  10 1377.06   39.10
   2  -2  10  740.83   26.20
   2   2  10  729.43   25.90
   2   2  10  687.63   23.40
   3  -2  10  657.83   24.40
   3   2  10  606.04   23.60
   4  -2  10  357.06   17.20
   4   2  10  351.66   16.80
   5  -2  10   66.99    8.80
   5   2  10   74.29    8.90
   6  -2  10   28.50    7.00
   6   2  10   39.90    7.30
   7   2  10   21.90    6.30
   8  -3 -10 1223.98   46.90
  -8  -3  10 1363.46   44.90
  -7  -3  10 1635.24   50.09
   7  -3 -10 1471.05   51.99
  -6  -3  10  493.35   21.90
   6  -3 -10  496.65   23.90
  -6   3  10  508.35   22.30
   5  -3 -10    6.70    4.60
  -5  -3  10    3.80    4.40
  -5   3  10    4.70    4.70
  -4  -3  10   91.89    9.40
  -4  -3  10   77.49    8.70
  -4   3  10   82.89    8.90
  -3  -3  10  591.74   21.40
  -3  -3  10  581.84   22.30
  -3   3  10  629.24   23.70
  -2  -3  10  301.37   13.90
  -2  -3  10  305.97   14.20
  -2   3  10  308.97   15.40
  -1  -3  10  371.16   15.90
  -1  -3  10  388.96   15.60
  -1   3  10  336.57   16.40
   0  -3  10 1387.76   40.70
   0   3  10 1323.27   41.20
   0   3  10 1331.37   41.20
   1  -3  10   51.99    6.90
   1   3  10   46.20    5.40
   1   3  10   61.89    7.80
   2  -3  10   18.30    5.20
   2   3  10   12.00    4.60
   2   3  10   22.50    4.60
   3  -3  10  165.78   11.70
   3   3  10  195.38   12.10
   3   3  10  186.08   11.10
   4  -3  10 1704.33   50.79
   4   3  10 1708.13   49.99
   4   3  10 1589.94   48.80
   5  -3  10 1958.00   57.69
   5   3  10 1911.41   56.69
   5   3  10 1924.71   56.39
   6  -3  10  291.67   26.60
   6   3  10  255.37   15.00
   6   3  10  275.97   16.80
   8  -4 -10    8.30    6.80
   7  -4 -10  415.66   23.80
  -7  -4  10  478.05   22.50
  -6  -4  10 1287.07   43.00
   6  -4 -10 1313.37   45.70
   5  -4 -10  640.14   26.80
  -5  -4  10  593.14   25.10
  -5   4  10  662.63   25.80
  -4  -4  10   63.59    8.60
  -4   4  10   56.29    7.90
  -3  -4  10  533.25   21.70
  -3   4  10  527.05   21.90
  -2  -4  10 2669.73   72.99
  -2   4  10 2644.34   73.49
  -1  -4  10 2688.53   72.49
  -1  -4  10 2611.44   71.39
  -1   4  10 2674.43   73.49
   0  -4  10  912.81   29.90
   0   4  10  909.51   31.10
   1  -4  10  108.79    9.80
   1   4  10  105.99   10.20
   1   4  10  120.59    8.20
   2  -4  10  426.26   18.50
   2   4  10  409.96   18.30
   2   4  10  413.46   17.10
   3  -4  10 1439.56   43.80
   3   4  10 1364.96   42.50
   3   4  10 1422.16   43.50
   4  -4  10  606.04   24.60
   4   4  10  585.04   23.50
   4   4  10  641.94   26.80
   5  -4  10   11.90    5.40
   5   4  10   12.60    5.10
   7  -5 -10  736.33   33.40
  -6  -5  10  262.77   17.10
   6  -5 -10  291.07   18.80
  -5  -5  10  164.18   13.30
  -4  -5  10  196.78   13.90
  -4   5  10  216.38   14.00
  -3  -5  10  273.37   15.70
  -3   5  10  275.57   15.50
  -2  -5  10   57.09    8.10
  -2   5  10   58.89    8.00
  -1  -5  10   43.90    7.30
  -1   5  10   34.70    6.50
   0  -5  10  207.78   12.80
   0   5  10  196.48   12.50
   1  -5  10  213.88   13.90
   1   5  10  227.48   12.00
   1   5  10  194.68   12.60
   2  -5  10   92.49    9.30
   2   5  10   87.19    8.90
   3  -5  10  322.87   16.50
   3   5  10  312.57   16.10
   4  -5  10  663.53   25.90
   4   5  10  591.54   24.80
  -4  -6  10  892.21   33.80
  -3  -6  10  457.05   21.90
  -3   6  10  454.75   21.00
  -2  -6  10  337.77   18.00
  -2   6  10  323.47   17.00
  -1  -6  10  235.08   14.90
  -1   6  10  240.88   14.50
   0  -6  10  401.86   19.40
   1   6  10  554.14   21.70
   2   6  10  466.85   20.20
   3   6  10   62.19    8.90
   0  -7  10  145.89   14.20
  -8   0  11    4.20    5.40
  -7   0  11    3.50    4.50
  -7   0  11    0.10    4.20
  -6   0  11   -1.70    4.00
  -6   0  11   -2.10    3.60
  -5   0  11    2.10    3.80
  -5   0  11    2.30    4.00
  -4   0  11   -0.60    3.70
  -4   0  11    2.80    3.20
  -3   0  11    1.50    4.00
  -2   0  11    4.20    4.00
  -1   0  11    5.40    4.10
   0   0  11    9.00    4.30
   1   0  11    4.20    4.40
   2   0  11    5.40    4.60
   3   0  11    3.00    4.20
   4   0  11    1.70    4.60
   5   0  11   -4.90    4.00
   6   0  11    0.80    5.50
  -8  -1  11  241.78   15.70
   8  -1 -11  247.68   16.40
  -7  -1  11   97.99   10.70
   7  -1 -11  119.29   12.40
  -7  -1  11   96.19   10.00
  -7   1  11   93.69   10.40
   6  -1 -11  142.29   11.50
  -6  -1  11  152.68   11.40
  -6  -1  11  156.08   11.40
  -6   1  11  147.09   11.50
  -5  -1  11    5.80    3.90
  -5  -1  11   -1.10    3.70
   5  -1 -11    4.80    3.70
  -5   1  11    6.30    4.80
  -4  -1  11  429.46   17.60
  -4  -1  11  385.26   17.70
  -4   1  11  412.66   18.80
  -3  -1  11  350.26   16.20
  -3   1  11  347.27   16.60
  -2  -1  11    0.30    3.60
  -2   1  11    0.60    3.80
  -1  -1  11  406.76   17.80
  -1   1  11  400.86   17.80
   0  -1  11   14.00    4.80
   0   1  11   20.80    5.10
   1  -1  11  532.15   21.70
   1   1  11  536.85   21.60
   2  -1  11  244.18   14.20
   2   1  11  249.28   14.00
   3  -1  11  214.78   13.40
   3   1  11  233.28   13.60
   4  -1  11  434.36   20.40
   4   1  11  431.36   19.90
   5  -1  11   33.50    7.60
   5   1  11   39.50    7.30
   6   1  11   49.00    8.50
   8  -2 -11   22.20    7.10
  -8  -2  11   14.00    6.20
  -7  -2  11  491.85   22.80
   7  -2 -11  591.44   25.80
  -7   2  11  516.05   23.50
  -6  -2  11  210.58   13.60
   6  -2 -11  208.88   14.40
  -6  -2  11  228.38   14.00
  -6   2  11  195.38   13.30
  -5  -2  11    9.00    4.60
  -5  -2  11    4.40    3.90
  -5   2  11    4.20    4.80
  -4  -2  11  366.06   16.10
  -4  -2  11  316.97   15.50
  -4   2  11  320.67   16.50
  -3  -2  11   28.70    5.10
  -3  -2  11   17.50    4.80
  -3   2  11   33.50    6.80
  -2  -2  11 1237.08   38.30
  -2   2  11 1237.48   39.40
  -1  -2  11  116.79   10.40
  -1   2  11   99.49    9.60
   0  -2  11   22.10    5.60
   0   2  11   17.50    5.50
   1  -2  11   66.59    8.30
   1   2  11   73.19    8.80
   1   2  11   73.39    6.60
   2  -2  11   56.89    8.10
   2   2  11   67.59    6.90
   3  -2  11  634.54   25.30
   3   2  11  651.93   22.80
   3   2  11  611.34   24.60
   4  -2  11    3.80    5.10
   4   2  11    3.10    4.40
   5  -2  11  275.27   16.40
   5   2  11  269.07   15.70
   6   2  11   10.60    5.20
   8  -3 -11  169.38   16.80
  -7  -3  11  172.18   13.50
   7  -3 -11  148.29   15.50
   6  -3 -11    7.70    5.10
  -6  -3  11   -0.10    4.40
  -6   3  11    2.40    4.60
  -5  -3  11   22.80    5.90
  -5   3  11   25.60    6.80
  -4  -3  11  523.65   21.00
  -4   3  11  456.75   21.20
  -3  -3  11   85.19    8.60
  -3  -3  11   96.89    9.50
  -3   3  11   67.69    8.50
  -2  -3  11   -2.20    5.40
  -2  -3  11    1.80    3.80
  -2   3  11    0.50    4.10
  -1  -3  11  103.59    9.50
  -1   3  11  108.69   10.20
   0  -3  11   46.30    6.70
   0   3  11   42.30    6.90
   1  -3  11  335.37   16.40
   1   3  11  334.37   17.00
   1   3  11  324.77   16.50
   2  -3  11   17.50    5.50
   2   3  11   13.00    5.20
   2   3  11   12.70    4.20
   3  -3  11  169.28   11.90
   3   3  11  153.78   10.50
   3   3  11  176.78   12.30
   4  -3  11  297.97   16.50
   4   3  11  334.17   16.10
   4   3  11  296.27   16.30
   5   3  11  111.29   10.70
   5   3  11  110.89   11.40
   6   3  11    1.80    5.00
   7  -4 -11   -0.80    5.40
  -6  -4  11    8.90    5.70
  -6   4  11    5.10    5.40
  -5  -4  11  198.98   13.90
  -5   4  11  186.48   13.80
  -4  -4  11  124.89   11.90
  -4   4  11  146.89   13.20
  -3  -4  11   71.09    8.80
  -3   4  11   70.79    9.20
  -2  -4  11  111.99    9.60
  -2   4  11  106.99   11.10
  -1  -4  11  213.38   12.50
  -1   4  11  215.28   13.60
   0  -4  11  583.84   22.30
   0   4  11  543.65   23.00
   1  -4  11  389.06   18.00
   1   4  11  367.76   18.00
   2  -4  11   84.29    9.60
   2   4  11   95.99    8.70
   2   4  11   92.19    9.80
   3  -4  11   48.40    7.90
   3   4  11   53.79    7.40
   3   4  11   55.49    8.20
   4  -4  11  107.89   11.20
   4   4  11  108.49   10.40
  -5  -5  11  316.07   18.40
  -5   5  11  296.97   19.70
  -4  -5  11    7.60    5.60
  -4   5  11   10.40    6.10
  -3  -5  11   91.29   10.70
  -3   5  11  122.09   12.30
  -2  -5  11   48.80    8.10
  -2   5  11   55.49    8.70
  -1   5  11  463.05   20.90
   0   5  11   21.50    6.10
   1   5  11  340.37   17.50
   2  -5  11  555.04   22.90
   2   5  11  536.95   21.70
   3  -5  11   -0.80    4.20
   3   5  11   -1.80    4.00
  -3  -6  11  103.39   11.80
  -3   6  11   91.99   11.10
  -2  -6  11   13.90    6.30
  -2   6  11   11.80    5.70
  -1  -6  11  169.18   14.00
  -1   6  11  194.68   15.30
  -8   0  12  366.96   20.50
  -7   0  12  150.18   13.20
  -7   0  12  138.69   13.30
  -6   0  12   86.49    9.80
  -6   0  12   99.09   10.60
  -5   0  12 1048.50   35.60
  -4   0  12  889.41   31.60
  -3   0  12   99.69    9.80
  -2   0  12  148.39   11.50
  -1   0  12 1806.22   53.49
   0   0  12 2785.02   77.19
   1   0  12  998.00   34.40
   2   0  12  225.08   14.00
   3   0  12  320.27   17.40
   4   0  12 1468.15   47.20
   8  -1 -12  323.07   18.90
  -8  -1  12  321.47   20.80
   7  -1 -12 1552.64   49.50
  -7  -1  12 1495.85   47.40
  -7  -1  12 1564.84   48.70
  -7   1  12 1464.15   48.30
  -6  -1  12 1958.80   55.99
  -6  -1  12 1850.21   55.79
  -6   1  12 1825.12   56.79
  -5  -1  12  990.00   33.30
  -5  -1  12  986.80   33.90
  -5   1  12 1008.60   35.00
  -4  -1  12  272.37   15.20
  -4   1  12  284.67   16.10
  -3  -1  12  648.14   25.10
  -3   1  12  678.63   26.00
  -2  -1  12 1518.55   45.60
  -2   1  12 1442.76   45.80
  -1  -1  12  717.33   26.60
  -1   1  12  720.53   27.00
   0  -1  12   33.30    6.70
   0   1  12   31.70    6.20
   1  -1  12  264.27   14.80
   1   1  12  250.67   14.60
   2  -1  12    9.80    5.50
   2   1  12    4.80    5.00
   3  -1  12   71.69    9.70
   3   1  12   88.89   10.60
   4  -1  12   94.89   11.30
   4   1  12   86.79   10.40
   8  -2 -12   22.70    7.80
   7  -2 -12   -2.50    4.80
  -7  -2  12    5.10    4.90
  -7   2  12    4.70    9.50
  -6  -2  12    5.70    5.00
  -6   2  12   13.50    5.60
  -5  -2  12   66.49    8.70
  -5  -2  12   61.69    8.20
  -5   2  12   47.10    7.80
  -4  -2  12  106.09   10.10
  -4   2  12   94.49   10.20
  -3  -2  12  640.14   24.70
  -3   2  12  663.83   26.20
  -2  -2  12  804.22   28.50
  -2   2  12  803.12   29.80
  -1  -2  12  898.21   30.90
  -1   2  12  876.21   31.70
   0  -2  12  782.72   28.60
   0   2  12  779.42   28.90
   1  -2  12 1021.70   35.80
   1   2  12 1150.08   37.10
   2  -2  12 1509.25   47.60
   2   2  12 1553.64   47.90
   2   2  12 1531.85   44.20
   3  -2  12  763.42   29.30
   3   2  12  749.73   25.90
   3   2  12  743.23   28.80
   4  -2  12  575.74   25.80
   4   2  12  604.64   25.30
   4   2  12  618.24   23.10
  -7  -3  12  500.45   33.20
  -6  -3  12  295.77   17.10
  -6   3  12  332.87   21.40
  -5  -3  12 1046.30   36.40
  -5   3  12 1111.79   38.40
  -4  -3  12 1913.51   56.89
  -4   3  12 2000.40   59.19
  -3  -3  12  493.35   20.90
  -3   3  12  540.05   23.20
  -2  -3  12   -0.70    3.90
  -2   3  12    0.70    4.80
  -1  -3  12   11.30    4.70
  -1   3  12    8.60    5.30
   0  -3  12  169.68   12.10
   0   3  12  157.38   12.40
   1  -3  12  381.46   18.60
   1   3  12  408.46   19.30
   2  -3  12   10.40    5.60
   2   3  12    9.60    5.50
   3  -3  12  584.84   25.10
   3   3  12  597.24   23.00
   3   3  12  621.14   25.10
   4   3  12  392.66   19.90
   4   3  12  438.66   19.20
  -6  -4  12    1.50    5.90
  -5  -4  12   80.29   10.00
  -4  -4  12   34.70    7.50
  -4   4  12   40.80    8.50
  -3   4  12 1003.40   35.80
  -2   4  12 1249.77   41.70
  -1  -4  12  240.78   15.50
  -1   4  12  246.18   15.30
   0  -4  12  132.59   11.60
   0   4  12  155.98   13.30
   1  -4  12  868.41   31.00
   1   4  12  855.51   31.60
   2  -4  12 1747.43   53.49
   2   4  12 1752.12   53.59
   3  -4  12  923.41   36.90
   3   4  12  972.20   32.70
   3   4  12  968.70   34.20
  -4  -5  12  653.83   27.50
  -3  -5  12  589.24   24.90
  -3   5  12  527.25   25.00
  -2   5  12  166.78   13.30
  -1   5  12   28.50    7.00
   0   5  12  136.99   12.80
   1   5  12  104.09   11.00
   2  -5  12    4.60    5.20
  -7   0  13   -4.10    5.70
  -7   0  13   10.10    8.30
  -6   0  13    5.50    5.60
  -5   0  13    1.30    4.70
  -4   0  13    1.40    4.90
  -3   0  13   -9.00    3.20
  -2   0  13    1.90    5.00
  -1   0  13    3.00    4.40
   0   0  13    2.40    5.10
   1   0  13    1.00    5.20
   2   0  13    0.30    4.90
   3   0  13   -1.60    5.80
  -7  -1  13   75.69   10.20
  -7  -1  13   85.09   10.70
  -6  -1  13    4.90    5.20
  -6   1  13   10.30    6.40
  -5  -1  13  214.28   14.30
  -5   1  13  224.78   15.30
  -4  -1  13  203.38   14.00
  -4   1  13  225.18   15.10
  -3  -1  13    5.40    4.90
  -3   1  13    4.80    5.10
  -2  -1  13  153.38   12.10
  -2   1  13  169.98   13.20
  -1  -1  13    6.20    4.90
  -1   1  13    5.90    5.20
   0  -1  13  342.77   18.10
   0   1  13  354.86   18.40
   1  -1  13  101.99   10.80
   1   1  13  111.99   11.70
   2  -1  13    3.30    5.40
   2   1  13    9.80    6.00
   3   1  13  137.09   15.00
  -6  -2  13  137.99   12.00
  -5  -2  13   88.19   10.10
  -5   2  13  112.59   11.70
  -4  -2  13  324.37   16.90
  -4   2  13  293.97   17.60
  -3  -2  13  279.67   15.60
  -3   2  13  268.07   16.60
  -2  -2  13    1.10    4.50
  -2   2  13    6.10    5.50
  -1  -2  13   77.59    9.50
  -1   2  13   80.79   10.10
   0  -2  13    6.60    5.20
   0   2  13   -1.10    4.80
   1  -2  13  860.91   31.40
   1   2  13  794.12   30.60
   2  -2  13  359.56   19.20
   2   2  13  377.46   19.50
   4   2  13  194.48   19.10
  -6  -3  13   42.50    8.60
  -4   3  13  363.46   31.70
  -3  -3  13  167.08   12.40
  -3   3  13  130.19   12.60
  -2  -3  13   33.70    6.70
  -2   3  13   35.30    7.50
  -1  -3  13   17.50    5.80
  -1   3  13   16.50    6.60
   0  -3  13  185.58   13.60
   0   3  13  217.68   14.80
   1  -3  13   76.89   10.00
   1   3  13   94.49   10.90
   2  -3  13   -1.30    5.90
   2   3  13    6.00    5.30
  -5  -4  13    7.00    5.50
  -2   4  13   -1.80    8.80
  -1   4  13  278.57   18.80
   0  -4  13  161.98   12.60
   0   4  13  143.19   13.80
   1  -4  13   41.90    7.90
   1   4  13   35.80   12.60
  -4   0  14  187.98   14.50
  -3   0  14   12.50    6.40
  -2   0  14  897.41   33.50
  -1   0  14  574.84   24.70
   0   0  14   96.99   11.20
  -5  -1  14  309.97   18.00
  -4  -1  14  781.12   30.40
  -3  -1  14 1386.76   45.50
  -3   1  14 1417.56   49.70
  -2  -1  14 1630.64   50.79
  -2   1  14 1574.54   51.29
  -1  -1  14  425.86   20.80
  -1   1  14  416.96   21.40
   0  -1  14   88.59   10.30
  -5  -2  14   29.90    7.40
  -4  -2  14   -5.10    4.20
  -3  -2  14   11.30    5.90
  -2  -2  14   45.90    8.20
  -1  -2  14   99.59   11.00
   0  -2  14  374.16   21.90
  -2  -3  14  175.28   13.10
  -1  -3  14 1061.69   37.00
   0   0   0    0.00    0.00

_computing_structure_solution     'SHELXT 2014/5 (Sheldrick, 2014)'
;
_shelx_hkl_checksum              45303
loop_
_space_group_symop_operation_xyz
'x, y, z'
'-x, y+1/2, -z+1/2'
'-x, -y, -z'
'x, -y-1/2, z-1/2'
loop_
_atom_site_label
_atom_site_type_symbol
_atom_site_fract_x
_atom_site_fract_y
_atom_site_fract_z
_atom_site_U_iso_or_equiv
_atom_site_adp_type
_atom_site_occupancy
_atom_site_site_symmetry_order
_atom_site_calc_flag
_atom_site_refinement_flags_posn
_atom_site_refinement_flags_adp
_atom_site_refinement_flags_occupancy
_atom_site_disorder_assembly
_atom_site_disorder_group
Sn1 Sn 0.53063(2) 0.23226(2) 0.20453(2) 0.01123(6) Uani 1 1 d . . . . .
Br1 Br 0.70994(3) 0.38770(3) 0.38026(2) 0.01662(7) Uani 1 1 d . . . . .
O1 O 0.34950(18) 0.3917(2) 0.24506(14) 0.0124(4) Uani 1 1 d . . . . .
O2 O 0.09259(18) 0.3154(2) 0.44176(14) 0.0161(4) Uani 1 1 d . . . . .
O3 O 0.45085(18) 0.0874(2) 0.35067(14) 0.0130(4) Uani 1 1 d . . . . .
C1 C 0.2806(3) 0.3199(3) 0.3263(2) 0.0116(5) Uani 1 1 d . . . . .
C2 C 0.1582(3) 0.3939(3) 0.3576(2) 0.0143(5) Uani 1 1 d . . . . .
C3 C 0.1480(3) 0.1676(4) 0.4959(2) 0.0168(5) Uani 1 1 d . . . . .
H1 H 0.101882 0.119606 0.556289 0.020 Uiso 1 1 calc R U . . .
C4 C 0.2659(3) 0.0826(3) 0.4697(2) 0.0149(5) Uani 1 1 d . . . . .
H2 H 0.300209 -0.024473 0.509003 0.018 Uiso 1 1 calc R U . . .
C5 C 0.3374(3) 0.1571(3) 0.3820(2) 0.0116(5) Uani 1 1 d . . . . .
C6 C 0.0826(3) 0.5592(4) 0.3096(2) 0.0193(6) Uani 1 1 d . . . . .
H5 H -0.020667 0.534823 0.292781 0.029 Uiso 1 1 calc R U . . .
H4 H 0.119100 0.594159 0.238554 0.029 Uiso 1 1 calc R U . . .
H3 H 0.099373 0.657637 0.365791 0.029 Uiso 1 1 calc R U . . .
loop_
_atom_site_aniso_label
_atom_site_aniso_U_11
_atom_site_aniso_U_22
_atom_site_aniso_U_33
_atom_site_aniso_U_23
_atom_site_aniso_U_13
_atom_site_aniso_U_12
Sn1 0.01158(10) 0.01078(10) 0.01188(10) 0.00001(6) 0.00360(7) 0.00041(6)
Br1 0.01551(14) 0.01599(14) 0.01730(14) -0.00017(9) -0.00136(10) -0.00250(9)
O1 0.0128(9) 0.0122(9) 0.0129(9) 0.0014(6) 0.0044(7) 0.0011(7)
O2 0.0124(9) 0.0212(10) 0.0157(9) 0.0014(7) 0.0059(7) -0.0003(7)
O3 0.0131(9) 0.0122(9) 0.0143(9) 0.0004(7) 0.0047(7) 0.0010(7)
C1 0.0119(12) 0.0119(12) 0.0112(12) -0.0024(9) 0.0021(9) -0.0033(9)
C2 0.0134(12) 0.0170(13) 0.0127(12) -0.0007(9) 0.0027(10) -0.0034(10)
C3 0.0168(13) 0.0184(14) 0.0157(13) 0.0035(10) 0.0039(11) -0.0026(10)
C4 0.0169(13) 0.0146(12) 0.0130(12) 0.0016(9) 0.0014(10) -0.0002(10)
C5 0.0118(12) 0.0109(12) 0.0115(12) -0.0036(9) 0.0002(9) -0.0034(9)
C6 0.0142(13) 0.0226(14) 0.0221(14) 0.0044(11) 0.0059(11) 0.0057(11)
loop_
_atom_type_symbol
_atom_type_description
_atom_type_scat_dispersion_real
_atom_type_scat_dispersion_imag
_atom_type_scat_source
C C 0.0033 0.0016 'International Tables Vol C Tables 4.2.6.8 and 6.1.1.4'
H H 0.0000 0.0000 'International Tables Vol C Tables 4.2.6.8 and 6.1.1.4'
O O 0.0106 0.0060 'International Tables Vol C Tables 4.2.6.8 and 6.1.1.4'
Br Br -0.2901 2.4595 'International Tables Vol C Tables 4.2.6.8 and 6.1.1.4'
Sn Sn -0.6537 1.4246 'International Tables Vol C Tables 4.2.6.8 and 6.1.1.4'
loop_
_geom_angle_atom_site_label_1
_geom_angle_atom_site_label_2
_geom_angle_atom_site_label_3
_geom_angle
_geom_angle_site_symmetry_1
_geom_angle_site_symmetry_3
_geom_angle_publ_flag
O1 Sn1 O3 74.65(6) . . ?
O1 Sn1 Br1 91.50(4) . . ?
O3 Sn1 Br1 82.01(4) . . ?
C1 O1 Sn1 114.39(14) . . ?
C3 O2 C2 120.5(2) . . ?
C5 O3 Sn1 114.12(14) . . ?
O1 C1 C2 122.9(2) . . ?
O1 C1 C5 118.2(2) . . ?
C2 C1 C5 119.0(2) . . ?
O2 C2 C1 120.4(2) . . ?
O2 C2 C6 112.5(2) . . ?
C1 C2 C6 127.1(2) . . ?
O2 C3 C4 123.6(2) . . ?
O2 C3 H1 118.2 . . ?
C4 C3 H1 118.2 . . ?
C3 C4 C5 118.3(2) . . ?
C3 C4 H2 120.8 . . ?
C5 C4 H2 120.8 . . ?
O3 C5 C4 123.4(2) . . ?
O3 C5 C1 118.4(2) . . ?
C4 C5 C1 118.2(2) . . ?
C2 C6 H5 109.5 . . ?
C2 C6 H4 109.5 . . ?
H5 C6 H4 109.5 . . ?
C2 C6 H3 109.5 . . ?
H5 C6 H3 109.5 . . ?
H4 C6 H3 109.5 . . ?
loop_
_geom_bond_atom_site_label_1
_geom_bond_atom_site_label_2
_geom_bond_distance
_geom_bond_site_symmetry_2
_geom_bond_publ_flag
Sn1 O1 2.1788(16) . ?
Sn1 O3 2.2390(17) . ?
Sn1 Br1 2.7272(4) . ?
O1 C1 1.336(3) . ?
O2 C3 1.333(3) . ?
O2 C2 1.365(3) . ?
O3 C5 1.285(3) . ?
C1 C2 1.371(3) . ?
C1 C5 1.436(3) . ?
C2 C6 1.485(3) . ?
C3 C4 1.347(4) . ?
C3 H1 0.9500 . ?
C4 C5 1.417(3) . ?
C4 H2 0.9500 . ?
C6 H5 0.9800 . ?
C6 H4 0.9800 . ?
C6 H3 0.9800 . ?
