#------------------------------------------------------------------------------
#$Date: 2021-07-14 02:51:34 +0300 (Wed, 14 Jul 2021) $
#$Revision: 267518 $
#$URL: file:///home/coder/svn-repositories/cod/cif/1/56/41/1564145.cif $
#------------------------------------------------------------------------------
#
# This file is available in the Crystallography Open Database (COD),
# http://www.crystallography.net/
#
# All data on this site have been placed in the public domain by the
# contributors.
#
data_1564145
loop_
_publ_author_name
'Bai, Tianwen'
'Zhou, Peng'
'Li, Zixian'
'Zheng, Botuo'
'Ling, Jun'
_publ_section_title
;
 Seeding Crystals, Harvesting Polypeptides: Preparing Long Chiral-Sequence
 Controlled Polypeptides by Interlocked Polymerization in Cocrystals
 (iPiC) of N-Thiocarboxyanhydride (NTA) at Room Temperature
;
_journal_name_full               Macromolecules
_journal_paper_doi               10.1021/acs.macromol.1c00371
_journal_year                    2021
_chemical_formula_moiety         'C6 H9 N O2 S2'
_chemical_formula_sum            'C6 H9 N O2 S2'
_chemical_formula_weight         191.26
_space_group_crystal_system      monoclinic
_space_group_IT_number           14
_space_group_name_Hall           '-P 2ybc'
_space_group_name_H-M_alt        'P 1 21/c 1'
_atom_sites_solution_hydrogens   geom
_atom_sites_solution_primary     direct
_audit_creation_date             2016-12-30
_audit_creation_method
;
Olex2 1.2
(compiled 2016.11.30 svn.r3356 for OlexSys, GUI svn.r5269)
;
_cell_angle_alpha                90
_cell_angle_beta                 101.719(11)
_cell_angle_gamma                90
_cell_formula_units_Z            4
_cell_length_a                   12.1451(16)
_cell_length_b                   7.7606(7)
_cell_length_c                   9.2513(10)
_cell_measurement_reflns_used    1239
_cell_measurement_temperature    170.9
_cell_measurement_theta_max      29.4032
_cell_measurement_theta_min      3.1281
_cell_volume                     853.79(17)
_computing_cell_refinement
;
CrysAlisPro, Agilent Technologies,
Version 1.171.35.11 (release 16-05-2011 CrysAlis171 .NET)
(compiled May 16 2011,17:55:39)
;
_computing_data_collection
;
CrysAlisPro, Agilent Technologies,
Version 1.171.35.11 (release 16-05-2011 CrysAlis171 .NET)
(compiled May 16 2011,17:55:39)
;
_computing_data_reduction
;
CrysAlisPro, Agilent Technologies,
Version 1.171.35.11 (release 16-05-2011 CrysAlis171 .NET)
(compiled May 16 2011,17:55:39)
;
_computing_molecular_graphics    'Olex2 (Dolomanov et al., 2009)'
_computing_publication_material  'Olex2 (Dolomanov et al., 2009)'
_computing_structure_refinement  'ShelXL (Sheldrick, 2015)'
_computing_structure_solution    'ShelXS (Sheldrick, 2008)'
_diffrn_ambient_temperature      170.9
_diffrn_detector_area_resol_mean 10.3592
_diffrn_measured_fraction_theta_full 0.999
_diffrn_measured_fraction_theta_max 0.999
_diffrn_measurement_details
;
#__ type_ start__ end____ width___ exp.time_
  1 omega  -21.00   82.00   1.0000    1.5000
omega____ theta____ kappa____ phi______ frames
    -       10.8433   77.0000   90.0000 103

#__ type_ start__ end____ width___ exp.time_
  2 omega  -21.00   49.00   1.0000    1.5000
omega____ theta____ kappa____ phi______ frames
    -      -12.7183   38.0000  -30.0000 70
;
_diffrn_measurement_device_type  'Xcalibur, Atlas, Gemini ultra'
_diffrn_measurement_method       '\w scans'
_diffrn_orient_matrix_UB_11      0.0329318000
_diffrn_orient_matrix_UB_12      0.0564116000
_diffrn_orient_matrix_UB_13      -0.0339946000
_diffrn_orient_matrix_UB_21      -0.0258829000
_diffrn_orient_matrix_UB_22      0.0720184000
_diffrn_orient_matrix_UB_23      0.0267398000
_diffrn_orient_matrix_UB_31      0.0423964000
_diffrn_orient_matrix_UB_32      -0.0000457000
_diffrn_orient_matrix_UB_33      0.0653013000
_diffrn_radiation_monochromator  graphite
_diffrn_radiation_type           'Mo K\a'
_diffrn_radiation_wavelength     0.7107
_diffrn_reflns_av_R_equivalents  0.0276
_diffrn_reflns_av_unetI/netI     0.0412
_diffrn_reflns_Laue_measured_fraction_full 0.999
_diffrn_reflns_Laue_measured_fraction_max 0.999
_diffrn_reflns_limit_h_max       14
_diffrn_reflns_limit_h_min       -12
_diffrn_reflns_limit_k_max       7
_diffrn_reflns_limit_k_min       -9
_diffrn_reflns_limit_l_max       9
_diffrn_reflns_limit_l_min       -11
_diffrn_reflns_number            3132
_diffrn_reflns_point_group_measured_fraction_full 0.999
_diffrn_reflns_point_group_measured_fraction_max 0.999
_diffrn_reflns_theta_full        25.242
_diffrn_reflns_theta_max         25.347
_diffrn_reflns_theta_min         3.134
_diffrn_source                   'Enhance (Mo) X-ray Source'
_exptl_absorpt_coefficient_mu    0.573
_exptl_absorpt_correction_T_max  1.00000
_exptl_absorpt_correction_T_min  0.92957
_exptl_absorpt_correction_type   multi-scan
_exptl_absorpt_process_details
;
CrysAlisPro, Agilent Technologies,
Version 1.171.35.11 (release 16-05-2011 CrysAlis171 .NET)
(compiled May 16 2011,17:55:39)
Empirical absorption correction using spherical harmonics,
 implemented in SCALE3 ABSPACK scaling algorithm.
;
_exptl_crystal_colour            colourless
_exptl_crystal_colour_primary    colourless
_exptl_crystal_density_diffrn    1.488
_exptl_crystal_description       block
_exptl_crystal_F_000             400
_exptl_crystal_size_max          0.48
_exptl_crystal_size_mid          0.42
_exptl_crystal_size_min          0.4
_refine_diff_density_max         1.231
_refine_diff_density_min         -0.531
_refine_diff_density_rms         0.078
_refine_ls_extinction_method     none
_refine_ls_goodness_of_fit_ref   1.047
_refine_ls_hydrogen_treatment    constr
_refine_ls_matrix_type           full
_refine_ls_number_parameters     101
_refine_ls_number_reflns         1563
_refine_ls_number_restraints     0
_refine_ls_restrained_S_all      1.047
_refine_ls_R_factor_all          0.0689
_refine_ls_R_factor_gt           0.0569
_refine_ls_shift/su_max          0.000
_refine_ls_shift/su_mean         0.000
_refine_ls_structure_factor_coef Fsqd
_refine_ls_weighting_details
'w=1/[\s^2^(Fo^2^)+(0.0490P)^2^+1.8685P] where P=(Fo^2^+2Fc^2^)/3'
_refine_ls_weighting_scheme      calc
_refine_ls_wR_factor_gt          0.1284
_refine_ls_wR_factor_ref         0.1383
_reflns_Friedel_coverage         0.000
_reflns_number_gt                1296
_reflns_number_total             1563
_reflns_threshold_expression     'I > 2\s(I)'
_cod_data_source_file            ma1c00371_si_002.cif
_cod_data_source_block           161229_sc_metdl
_cod_original_cell_volume        853.78(17)
_cod_database_code               1564145
_chemical_oxdiff_formula         'c10 h10 n2 o8 S1'
_shelx_space_group_comment
;
The symmetry employed for this shelxl refinement is uniquely defined
by the following loop, which should always be used as a source of
symmetry information in preference to the above space-group names.
They are only intended as comments.
;
_shelx_estimated_absorpt_t_max   0.803
_shelx_estimated_absorpt_t_min   0.770
_reflns_odcompleteness_completeness 99.57
_reflns_odcompleteness_iscentric 1
_reflns_odcompleteness_theta     26.32
_olex2_refinement_description
;
1. Fixed Uiso
 At 1.2 times of:
  All C(H) groups, All C(H,H) groups, All N(H) groups
 At 1.5 times of:
  All C(H,H,H) groups
2.a Ternary CH refined with riding coordinates:
 C3(H3)
2.b Secondary CH2 refined with riding coordinates:
 C4(H4A,H4B), C5(H5A,H5B)
2.c Aromatic/amide H refined with riding coordinates:
 N1(H1)
2.d Idealised Me refined as rotating group:
 C6(H6A,H6B,H6C)
;
_shelx_res_file
;
TITL 161229_SC_MeTDL in P21/c #14
    161229_sc_metdl.res
    created by SHELXL-2016/6 at 14:15:54 on 30-Dec-2016
REM reset to P21/c #14
CELL 0.71073 12.14505 7.76055 9.25127 90 101.7188 90
ZERR 4 0.00164 0.00074 0.001 0 0.0113 0
LATT 1
SYMM -X,0.5+Y,0.5-Z
SFAC C H N O S
UNIT 24 36 4 8 8

L.S. 4
PLAN  20
SIZE 0.48 0.42 0.4
TEMP -103.15
BOND $H
htab
fmap 2
acta
SHEL 999 0.83
REM <olex2.extras>
REM <HklSrc "%.\\161229_SC_MeTDL.hkl">
REM </olex2.extras>

WGHT    0.049000    1.868500
FVAR       7.54005
S1    5    0.894614    0.099315    0.660505    11.00000    0.03788    0.02510 =
         0.04878    0.00924    0.01877    0.00222
S2    5    0.637694    0.758012    0.514782    11.00000    0.08371    0.04793 =
         0.03668    0.00450    0.02053    0.00550
O2    4    1.039504    0.278701    0.544898    11.00000    0.03153    0.03251 =
         0.05694    0.01145    0.02387    0.00670
O1    4    0.700117    0.155451    0.737284    11.00000    0.04018    0.03840 =
         0.06317    0.00963    0.02881   -0.00572
N1    3    0.877961    0.413223    0.569092    11.00000    0.02814    0.02377 =
         0.04892    0.00977    0.01984    0.00183
AFIX  43
H1    2    0.895520    0.512229    0.533265    11.00000   -1.20000
AFIX   0
C3    1    0.771102    0.393988    0.615057    11.00000    0.02998    0.03158 =
         0.03723    0.00454    0.01454   -0.00018
AFIX  13
H3    2    0.708487    0.402838    0.526593    11.00000   -1.20000
AFIX   0
C2    1    0.948876    0.282216    0.581001    11.00000    0.03134    0.02643 =
         0.02800    0.00285    0.00771    0.00037
C1    1    0.771970    0.213991    0.679897    11.00000    0.03326    0.02982 =
         0.03714    0.00002    0.01068   -0.00378
C4    1    0.753813    0.526271    0.727687    11.00000    0.03523    0.03642 =
         0.03460   -0.00120    0.01173   -0.00312
AFIX  23
H4A   2    0.815833    0.516961    0.815182    11.00000   -1.20000
H4B   2    0.682599    0.500960    0.759895    11.00000   -1.20000
AFIX   0
C5    1    0.749600    0.710607    0.668470    11.00000    0.04101    0.02920 =
         0.06117   -0.00123    0.02926   -0.00096
AFIX  23
H5A   2    0.821906    0.735326    0.638935    11.00000   -1.20000
H5B   2    0.743379    0.790242    0.750028    11.00000   -1.20000
AFIX   0
C6    1    0.521005    0.780873    0.606408    11.00000    0.03677    0.08347 =
         0.06643    0.02103    0.00072   -0.00482
AFIX 137
H6A   2    0.454042    0.816835    0.534679    11.00000   -1.50000
H6B   2    0.539135    0.867947    0.684339    11.00000   -1.50000
H6C   2    0.506370    0.670273    0.650042    11.00000   -1.50000
AFIX   0
HKLF 4




REM  161229_SC_MeTDL in P21/c #14
REM R1 =  0.0569 for    1296 Fo > 4sig(Fo)  and  0.0689 for all    1563 data
REM    101 parameters refined using      0 restraints

END

WGHT      0.0488      1.8736

REM Instructions for potential hydrogen bonds
EQIV $1 -x+2, -y+1, -z+1
HTAB N1 O2_$1
EQIV $2 x, y+1, z
HTAB C5 S1_$2
HTAB C5 O2_$1
EQIV $3 x, -y+3/2, z+1/2
HTAB C5 S2_$3

REM Highest difference peak  1.231,  deepest hole -0.531,  1-sigma level  0.078
Q1    1   0.5795  0.8315  0.4799  11.00000  0.05    1.23
Q2    1   0.7000  0.5116  0.6081  11.00000  0.05    0.69
Q3    1   0.8140  0.4208  0.7137  11.00000  0.05    0.60
Q4    1   0.7158  0.6875  0.5833  11.00000  0.05    0.42
Q5    1   0.7722  0.3093  0.6398  11.00000  0.05    0.24
Q6    1   0.9181  0.1882  0.6006  11.00000  0.05    0.23
Q7    1   0.9437  0.4990  0.6545  11.00000  0.05    0.22
Q8    1   0.9058  0.4119  0.6625  11.00000  0.05    0.22
Q9    1   0.5949  0.6607  0.4953  11.00000  0.05    0.21
Q10   1   0.5170  0.6084  0.6032  11.00000  0.05    0.21
Q11   1   0.8211  0.3979  0.5750  11.00000  0.05    0.21
Q12   1   0.6749  0.6062  0.5279  11.00000  0.05    0.20
Q13   1   0.9411  0.3591  0.6287  11.00000  0.05    0.20
Q14   1   0.7931  0.2454  0.7457  11.00000  0.05    0.19
Q15   1   1.1073  0.3428  0.5781  11.00000  0.05    0.19
Q16   1   0.6810  0.8283  0.4580  11.00000  0.05    0.19
Q17   1   0.7703  0.6284  0.6759  11.00000  0.05    0.19
Q18   1   0.8264  0.1542  0.6565  11.00000  0.05    0.18
Q19   1   0.9791  0.2172  0.4734  11.00000  0.05    0.18
Q20   1   0.7512  0.2553  0.8187  11.00000  0.05    0.18
;
_shelx_res_checksum              51332
_shelx_hkl_file
;
   3   0   0 18287.8 692.863   2
  -4   0   0 219.283 103.606   2
   4   0   0 76.6130 71.8168   2
  -5   0   0 147022. 2541.83   2
   5   0   0 144229. 2495.02   2
   6   0   0 67565.4 1871.46   2
   7   0   0 56210.4 1847.90   2
   8   0   0 72302.6 2277.55   2
   9   0   0 28125.7 1519.55   2
  10   0   0 51.7264 198.830   2
  11   0   0 2733.17 548.472   2
  12   0   0 9538.46 1062.68   2
  13   0   0 2744.18 595.575   2
  14   0   0 10498.4 1227.01   2
  15   0   0 10715.3 1275.92   2
  16   0   0 28.4795 200.220   2
  -1   1   0 8094.66 326.461   1
   2  -1   0 459748. 3326.03   2
  -2   1   0 460286. 3109.08   1
   3  -1   0 14466.4 692.991   2
   4  -1   0 8204.64 581.379   2
  -5   1   0 3352.57 422.431   2
   5   1   0 3184.93 364.516   2
   5  -1   0 2822.17 382.460   2
   6  -1   0 108967. 2534.46   2
   6   1   0 111502. 2375.19   2
  -6   1   0 114896. 2665.80   2
   7   1   0 25087.6 1251.78   2
   7  -1   0 24781.2 1295.17   2
  -8   1   0 4065.84 572.920   2
   8  -1   0 4474.23 595.768   2
   8   1   0 4839.64 592.584   2
  -9   1   0 68295.0 2476.68   2
   9  -1   0 61292.6 2335.83   2
   9   1   0 63413.8 2247.83   2
  10  -1   0 21078.0 1451.28   2
  10   1   0 20390.4 1353.40   2
  11  -1   0 8325.05 964.105   2
  11   1   0 6745.11 829.771   2
  12  -1   0 899.049 375.096   2
  12   1   0 1054.57 417.449   2
  13   1   0 442.871 295.512   2
  13  -1   0 510.092 264.100   2
  14  -1   0 1096.62 407.257   2
  14   1   0 1362.51 467.726   2
  15   1   0 834.493 411.605   2
  15  -1   0 645.131 369.246   2
  16   1   0 802.559 388.498   2
   0   2   0 550545. 3208.61   1
  -1   2   0 63676.3 1133.74   1
   1   2   0 63103.5 1220.40   1
  -2   2   0 27896.6 843.506   1
   2  -2   0 27048.4 985.989   2
   2  -2   0 27592.6 847.473   1
  -3   2   0 177761. 2428.66   1
   3  -2   0 179809. 2786.03   2
  -4   2   0 30074.6 1126.00   1
   4  -2   0 31912.5 1259.14   2
  -5   2   0 32720.6 1301.22   1
   5  -2   0 32995.4 1362.46   2
   6  -2   0 17949.1 1088.94   2
  -6   2   0 17389.7 1060.01   1
   7  -2   0 47901.2 1892.91   2
   7   2   0 49953.8 1732.27   2
   8   2   0 165.291 132.597   2
   8  -2   0 568.777 244.923   2
  -8   2   0 606.840 257.127   2
   9   2   0 20224.4 1279.14   2
   9  -2   0 20102.5 1385.64   2
  10   2   0 23514.6 1449.61   2
  10  -2   0 24727.6 1608.79   2
  11   2   0 1590.89 436.766   2
  11  -2   0 2120.61 510.777   2
  12  -2   0 3811.32 722.734   2
  12   2   0 3709.07 644.199   2
  13  -2   0 180.861 244.449   2
  13   2   0-29.2840 196.959   2
  14   2   0 574.785 320.702   2
  14  -2   0 1074.45 454.704   2
  15   2   0-267.744 237.105   2
  15  -2   0 445.348 385.032   2
   0  -3   0-96.0811 98.0665   1
   0   3   0 8.94869 88.3270   1
   1   3   0 369492. 3434.77   1
   1  -3   0 366373. 3288.14   1
  -1  -3   0 369026. 3358.77   1
  -1   3   0 370881. 3218.77   1
  -2   3   0 17728.8 755.616   1
  -2  -3   0 16478.2 770.075   1
   2  -3   0 18266.5 781.257   1
  -3  -3   0 175383. 2792.55   1
   3  -3   0 178409. 2658.10   1
  -3   3   0 178077. 2607.14   1
   3  -3   0 176079. 3161.33   2
   4  -3   0 41152.2 1594.56   2
  -4   3   0 43208.6 1437.91   1
   5  -3   0 32759.6 1512.29   2
  -5   3   0 32284.5 1346.61   1
  -6   3   0 11444.8 868.365   1
   6  -3   0 10348.1 902.231   2
  -7   3   0 39568.0 1713.29   1
  -7   3   0 41798.0 1906.63   2
   7  -3   0 39863.6 1865.44   2
  -8   3   0 22330.6 1394.91   1
   8  -3   0 31306.5 1735.52   2
   9  -3   0 10907.1 1080.39   2
   9   3   0 12736.9 1023.69   2
  10   3   0 838.671 304.576   2
  10  -3   0 1532.06 457.004   2
  11   3   0 21306.9 1491.21   2
  11  -3   0 23262.7 1718.04   2
  12   3   0 16788.1 1376.55   2
  12  -3   0 18123.7 1598.71   2
  13   3   0 1659.73 440.018   2
  13  -3   0 2067.18 553.052   2
  14   3   0-588.369 295.577   2
  14  -3   0-204.724 290.962   2
  15   3   0 282.909 264.507   2
   0   4   0 27195.9 1009.88   1
   0  -4   0 27301.3 1020.00   1
  -1   4   0 42748.6 1270.25   1
   1  -4   0 40748.7 1249.08   1
  -1  -4   0 40369.7 1268.43   1
   1   4   0 42964.3 1341.14   1
  -2   4   0 992.842 209.172   1
   2  -4   0 1442.37 254.210   1
  -2  -4   0 1249.86 257.718   1
   3  -4   0 74250.5 1872.79   1
  -3  -4   0 74409.2 1944.26   1
  -3   4   0 78736.2 1876.63   1
  -4   4   0 25314.2 1144.78   1
   5  -4   0 83861.5 2664.12   2
  -5   4   0 87568.2 2263.82   1
   6  -4   0 14073.8 1142.25   2
  -6   4   0 15185.3 1029.65   1
  -6  -4   0 14775.6 1094.39   1
  -7   4   0 23298.2 1364.51   1
   7  -4   0 29405.5 1708.49   2
  -8   4   0 393.010 245.646   1
   8  -4   0 20.5570 234.284   2
   9  -4   0 21508.2 1610.08   2
  10   4   0 54240.5 2285.39   2
  10  -4   0 55331.9 2692.54   2
  11  -4   0 500.964 309.034   2
  11   4   0 567.325 255.935   2
  12  -4   0 530.135 349.052   2
  12   4   0-89.9532 122.612   2
  13   4   0-398.774 242.115   2
  13  -4   0 205.079 209.013   2
  14   4   0 198.123 283.289   2
   0  -5   0 1343.85 365.444   1
   0   5   0 287.436 211.673   1
   1   5   0 59720.8 1783.77   1
   1  -5   0 55307.4 1648.36   1
  -1   5   0 57091.1 1640.99   1
  -1  -5   0 61232.3 1752.14   1
  -1   5   0 56305.0 2024.43   2
  -2   5   0 53614.0 2061.71   2
  -2   5   0 56247.2 1674.29   1
   2  -5   0 52810.4 1658.83   1
   3  -5   0 217.043 152.002   1
  -3   5   0 522.931 256.049   2
  -3   5   0 393.454 172.748   1
  -4   5   0 12115.9 844.515   1
  -5  -5   0 1336.58 330.687   1
  -5   5   0 1035.60 263.922   1
  -6  -5   0 3968.21 601.454   1
  -6   5   0 3461.68 513.289   1
  -7   5   0 738.208 252.678   1
  -7  -5   0 567.512 152.297   1
   7  -5   0 664.716 313.871   2
  -8  -5   0 267.970 206.795   1
   8  -5   0 420.055 233.449   2
   9  -5   0 5643.94 880.639   2
  -9  -5   0 5958.61 860.660   1
  10  -5   0 2543.54 616.525   2
 -10  -5   0 2173.44 541.435   1
  11  -5   0-115.061 141.409   2
  11   5   0 94.0165 125.343   2
 -11  -5   0 2.52611 258.927   1
  12   5   0 468.249 289.190   2
  12  -5   0 854.149 427.015   2
 -12  -5   0 171.340 241.140   1
 -13  -5   0 442.531 367.719   1
  13  -5   0-84.5152 164.494   2
  13   5   0 488.554 283.413   2
   0   6   0 120470. 3196.75   2
   0   6   0 84733.8 2258.02   1
  -1   6   0 15894.7 974.719   1
   1   6   0 13494.9 934.026   1
  -2   6   0 4877.01 543.496   1
  -3  -6   0 471.815 164.207   1
  -3   6   0 358.942 161.247   1
  -4  -6   0 55990.2 2068.77   1
  -4   6   0 56591.4 1925.98   1
  -5   6   0 2509.19 426.269   1
  -5  -6   0 2802.09 480.320   1
  -6  -6   0 2060.35 437.859   1
  -6   6   0 1628.86 363.856   1
  -7  -6   0 12200.2 1145.03   1
  -8  -6   0 22774.1 1630.71   1
  -9  -6   0 12589.7 1265.59   1
 -10  -6   0 69.8758 148.281   1
 -11  -6   0 1855.75 545.520   1
 -12  -6   0 1714.30 566.525   1
   0  -7   0-172.485 178.787   1
   0   7   0-446.578 196.597   1
  -1   7   0 5115.22 586.796   1
  -1  -7   0 6293.36 683.788   1
  -2  -7   0 77332.8 2410.65   1
  -2   7   0 78780.0 2316.39   1
  -3   7   0 1781.96 359.673   1
  -3  -7   0 2182.53 421.479   1
   3  -7   0 1617.04 354.605   1
   4  -7   0 156.224 136.890   1
  -4  -7   0-4.32429 108.228   1
  -4   7   0 85.4579 159.270   1
  -5   7   0 6657.41 713.998   1
  -5  -7   0 7040.71 831.662   1
  -6  -7   0 17856.5 1360.16   1
  -7  -7   0 27781.6 1766.48   1
  -8  -7   0 4770.29 768.762   1
  -9  -7   0 1547.89 458.915   1
 -10  -7   0 5460.35 898.493   1
 -11  -7   0 467.312 298.431   1
   0  -8   0 12733.1 1015.73   1
  -1  -8   0 429.337 191.197   1
   1  -8   0 598.429 250.001   1
   2  -8   0-33.4690 134.226   1
  -2  -8   0 248.532 214.595   1
  -3  -8   0 4068.70 622.659   1
   3  -8   0 2674.62 486.969   1
  -4  -8   0 4723.73 678.207   1
   4  -8   0 3556.98 564.604   1
  -5  -8   0-107.759 140.156   1
  -6  -8   0-244.760 200.210   1
  -7  -8   0 3659.04 668.074   1
  -8  -8   0 723.525 315.433   1
  -9  -8   0-127.801 161.600   1
 -10  -8   0-33.0090 338.763   1
   0  -9   0-282.635 243.824   1
  -1  -9   0 13224.4 1119.65   1
  -2  -9   0 2468.73 489.066   1
  -3  -9   0 5683.10 770.302   1
  -4  -9   0 674.388 275.746   1
  -5  -9   0 1975.03 454.216   1
  -6  -9   0-105.148 146.697   1
  -7  -9   0 7451.10 1016.31   1
  -8  -9   0 4480.63 785.258   1
  16   0  -1 605.939 437.353   2
  15   0  -1 103.860 147.707   2
  14   0  -1 269.118 217.750   2
  13   0  -1 326.454 241.171   2
  12   0  -1 484.376 285.082   2
  11   0  -1 183.663 265.321   2
  10   0  -1-67.7079 183.026   2
   9   0  -1-35.6589 150.752   2
   8   0  -1 73.6383 120.432   2
   7   0  -1 51.6090 88.8097   2
   6   0  -1-17.3595 107.888   2
   5   0  -1 99.0751 98.9319   2
   4   0  -1 38.8935 75.1082   2
   3   0  -1 141.715 84.9357   2
  -2   0   1 208.930 72.3230   1
  -2   0  -1 172.740 71.9002   2
   2   0   1 128.025 53.7354   2
   3   0   1 111.936 78.0866   2
  -3   0  -1 68.5949 70.3738   2
   4   0   1 12.7944 59.1530   2
  -4   0  -1 53.6141 63.0165   2
  -5   0  -1 47.9465 75.0227   2
   5   0   1-37.6632 70.6196   2
   6   0   1 50.1170 94.7242   2
  -6   0  -1 157.598 119.455   2
  -7   0  -1 195.132 168.616   2
   7   0   1-135.868 150.635   2
   8   0   1 241.129 196.888   2
   9   0   1-139.044 205.014   2
  10   0   1 87.4109 135.507   2
  11   0   1 1033.44 461.350   2
  12   0   1 808.135 405.240   2
  13   0   1-98.1610 306.204   2
  14   0   1 87.4238 104.877   2
  15   0   1 622.067 383.695   2
  16   0   1 436.199 329.104   2
  16   1  -1 117.548 236.665   2
  15   1  -1-354.021 259.044   2
  15  -1  -1 361.011 246.436   2
  14  -1  -1 1491.45 507.927   2
  14   1  -1 1431.51 506.027   2
  13   1  -1 1281.44 411.038   2
  13  -1  -1 990.031 363.709   2
  12  -1  -1 2230.70 534.691   2
  12   1  -1 1708.59 456.589   2
  11   1  -1 1901.04 462.078   2
  11  -1  -1 1258.24 395.789   2
  10   1  -1 6640.25 804.022   2
  10  -1  -1 6862.91 834.622   2
   9   1  -1 21024.9 1343.24   2
   9  -1  -1 19377.7 1323.77   2
   8   1  -1 1605.33 367.046   2
   8  -1  -1 1798.74 396.922   2
  -8   1   1 2004.52 396.704   2
   7   1  -1 55.2611 125.892   2
  -7   1   1-33.6180 84.2432   2
   7  -1  -1 28.2691 132.368   2
   6  -1  -1 39196.9 1541.32   2
   6   1  -1 37891.1 1463.58   2
  -5   1   1 2156.61 343.861   1
   5  -1  -1 1738.21 314.280   2
  -4   1   1 97960.2 2027.19   1
   4  -1  -1 97762.8 2036.66   2
   3  -1  -1 109021. 1930.22   2
  -3   1   1 107126. 1893.24   1
   2  -1  -1 81.1627 78.1640   2
  -2   1   1 88.2904 57.8992   1
  -1   1   1 4222.36 293.023   1
   1  -1  -1 4526.15 274.526   2
   0  -1  -1 13293.6 350.179   2
   0   1   1 12531.2 489.303   1
   1   1   1 11125.7 501.200   1
   2  -1   1 41220.4 1050.65   2
  -3   1  -1 86855.1 1689.26   2
   3  -1   1 85761.2 1693.55   2
   3   1   1 85270.8 1298.72   2
   4   1   1 6566.33 441.564   2
  -4   1  -1 6563.51 520.410   2
   4  -1   1 5847.01 486.356   2
   5  -1   1 22188.6 1038.56   2
   5   1   1 24340.0 952.793   2
  -5   1  -1 24277.8 1090.99   2
  -6   1  -1 27455.9 1275.65   2
   6  -1   1 25821.2 1197.93   2
   6   1   1 26703.0 1115.76   2
   7  -1   1 1145.22 252.830   2
  -7   1  -1 1602.14 349.849   2
   7   1   1 1326.83 276.523   2
  -8   1  -1 3336.82 522.261   2
   8  -1   1 4026.49 542.422   2
   8   1   1 4565.60 546.760   2
  -9   1  -1 4329.84 634.653   2
   9  -1   1 4893.80 642.428   2
   9   1   1 5124.78 632.031   2
  10   1   1 2913.00 505.435   2
  10  -1   1 3383.77 565.310   2
  11   1   1 28845.3 1655.29   2
  11  -1   1 30548.4 1790.22   2
  12  -1   1 9231.27 1046.50   2
  12   1   1 8490.07 957.331   2
  13  -1   1 33.8026 281.069   2
  13   1   1-67.0794 125.618   2
  14   1   1 310.384 257.013   2
  14  -1   1 288.568 242.127   2
  15   1   1 523.075 287.498   2
  15  -1   1 502.244 397.994   2
  16   2  -1 282.618 325.003   2
  15  -2  -1 6420.63 1049.90   2
  15   2  -1 4512.72 834.546   2
  14  -2  -1 711.872 380.120   2
  14   2  -1 21.9426 152.428   2
  13   2  -1 957.961 402.757   2
  13  -2  -1 533.222 216.837   2
  12  -2  -1 6694.72 932.007   2
  12   2  -1 5333.99 786.133   2
  11   2  -1 10192.6 1069.30   2
  11  -2  -1 9052.39 1054.05   2
  10  -2  -1 14442.5 1270.28   2
  10   2  -1 15321.0 1221.89   2
   9  -2  -1 1776.97 441.502   2
   9   2  -1 1718.26 381.136   2
  -8   2   1 729.082 291.763   1
   8  -2  -1 591.812 264.854   2
  -8   2   1 844.106 331.627   2
   8   2  -1 104.644 130.632   2
  -7   2   1 654.571 227.217   1
   7  -2  -1 577.564 239.717   2
   6  -2  -1 28164.8 1378.18   2
  -6   2   1 26785.4 1314.50   1
  -5   2   1 67113.3 1922.61   1
   5  -2  -1 65955.9 1967.61   2
   4  -2  -1 23.3256 83.0313   2
  -4   2   1 30.6373 81.2506   1
   3  -2  -1 16608.7 823.383   2
  -3   2   1 17621.4 826.184   1
   2  -2  -1 8200.61 527.747   2
  -2   2   1 8271.44 525.733   1
   1  -2  -1 8793.30 494.447   2
  -1   2   1 9319.34 518.699   1
  -1  -2   1 9185.21 360.972   1
   0   2   1 146544. 2034.53   1
   0  -2   1 144049. 1145.83   1
   0   2  -1 144725. 1139.45   1
  -1   2  -1 28197.6 586.149   1
   1   2   1 28547.6 953.316   1
   1  -2   1 28511.6 602.419   1
  -2   2  -1 63125.3 1135.70   1
  -3   2  -1 946.550 163.473   1
   3  -2   1 895.656 209.727   2
   4  -2   1 38556.3 1412.55   2
  -5   2  -1 96919.6 2401.55   2
   5  -2   1 95971.7 2395.46   2
   6  -2   1 7385.55 716.739   2
  -6   2  -1 7449.46 724.706   2
   6   2   1 7422.18 584.261   2
   7  -2   1 8322.34 796.410   2
   7   2   1 8784.20 708.257   2
  -7   2  -1 6430.50 710.583   2
  -8   2  -1 2930.17 506.405   2
   8   2   1 2773.79 441.503   2
   8  -2   1 3129.87 530.485   2
   9  -2   1 16158.1 1245.53   2
   9   2   1 15484.7 1068.01   2
  10  -2   1 17880.2 1377.38   2
  10   2   1 18759.2 1236.64   2
  11  -2   1 625.154 269.895   2
  11   2   1 566.511 234.456   2
  12   2   1 2216.91 497.482   2
  12  -2   1 2234.09 554.105   2
  13   2   1 2365.47 530.802   2
  13  -2   1 2682.70 632.468   2
  14  -2   1 5193.04 904.647   2
  14   2   1 4394.18 738.584   2
  15  -2   1 1418.02 526.677   2
  15   3  -1-592.097 329.807   2
  14  -3  -1 203.931 319.993   2
  14   3  -1 849.748 362.530   2
  13  -3  -1 255.269 274.407   2
  13   3  -1 122.666 167.436   2
  12  -3  -1 925.747 409.892   2
  12   3  -1 1471.46 448.174   2
  11   3  -1 121.724 203.215   2
  11  -3  -1 72.1561 161.011   2
  10   3  -1 1661.24 414.561   2
  10  -3  -1 2016.64 504.451   2
   9  -3  -1 11298.9 1093.15   2
  -8   3   1 4811.67 640.500   1
   8  -3  -1 5205.12 707.401   2
  -7   3   1-149.352 200.668   2
   7  -3  -1 14.3671 113.496   2
  -7   3   1 127.315 120.289   1
  -6   3   1 20590.2 1199.20   1
   6  -3  -1 16575.0 1126.39   2
  -5   3   1 10128.7 784.361   1
   5  -3  -1 9243.95 802.074   2
   4  -3  -1 53056.0 1800.98   2
   4  -3  -1 52574.7 1689.96   1
  -4   3   1 54382.2 1675.22   1
   3  -3  -1 52.0535 84.4598   1
   3  -3  -1 206.328 143.988   2
  -3   3   1 186.937 101.451   1
  -2   3   1 529.640 173.442   1
  -2  -3   1 413.150 116.571   1
   2  -3  -1 373.195 104.033   1
   2  -3  -1 401.515 157.915   2
  -1   3   1 202878. 2860.14   2
  -1   3   1 206844. 2767.23   1
  -1  -3   1 200552. 2075.39   1
   1  -3  -1 199746. 2769.88   1
   0  -3  -1 36.1154 75.9940   1
   0   3   1 96.2169 54.3581   2
   0   3   1 96.8074 73.3844   1
   0   3  -1 77.7334 53.1267   1
   0  -3   1 96.8312 60.1848   1
  -1   3  -1 15786.6 543.073   1
   1  -3   1 16034.7 565.225   1
   1   3   1 15596.2 806.367   1
  -2   3  -1 1641.15 202.496   1
  -3   3  -1 12754.1 655.483   1
  -4   3  -1 69.2116 80.4785   1
   5  -3   1 1767.17 356.277   2
  -5   3  -1 1191.57 304.147   2
  -5   3  -1 1580.87 291.922   1
   6  -3   1 7609.76 773.379   2
  -6   3  -1 6876.77 741.295   2
  -6   3  -1 6642.46 647.058   1
  -7   3  -1 8.24119 128.027   2
  -7   3  -1 80.1793 135.020   1
   7  -3   1-121.898 155.941   2
  -8   3  -1 118.520 175.317   1
   8   3   1-4.87245 126.540   2
   8  -3   1-395.047 291.008   2
   9  -3   1 713.645 344.825   2
   9   3   1 527.425 216.854   2
  10   3   1 4869.04 635.427   2
  10  -3   1 4807.22 762.454   2
  11  -3   1 8093.60 1039.00   2
  11   3   1 8409.24 882.403   2
  12  -3   1 662.812 342.861   2
  12   3   1 304.941 230.712   2
  13   3   1 463.905 269.673   2
  13  -3   1 68.1145 213.920   2
  14  -3   1 541.828 179.368   2
  14   3   1 1098.91 442.891   2
  15   4  -1 466.721 254.967   2
  14  -4  -1 3051.29 748.663   2
  14   4  -1 1566.13 474.808   2
  13   4  -1 462.460 302.296   2
  13  -4  -1 1174.88 458.934   2
  12  -4  -1 1808.98 541.706   2
  12   4  -1 1475.99 436.949   2
  11   4  -1 1722.09 443.661   2
  11  -4  -1 2269.82 607.555   2
  10  -4  -1 1067.88 401.921   2
   9  -4  -1 557.524 230.246   2
   8  -4  -1 488.475 266.859   2
   7  -4  -1 2019.23 446.060   2
  -7   4   1 1243.72 317.236   1
  -6   4   1 4449.75 639.782   2
   6  -4  -1 4556.57 651.549   2
  -6   4   1 4853.25 603.392   1
  -5   4   1 15179.4 1011.76   1
   5  -4  -1 15202.4 1106.80   2
   4  -4  -1 6122.03 663.080   2
  -4  -4   1 6293.48 586.142   1
  -4   4   1 6152.70 603.253   1
   3  -4  -1 3710.49 458.958   1
  -3  -4   1 4054.29 424.926   1
  -3   4   1 4816.11 511.986   1
   2  -4  -1 26368.1 1151.20   1
  -2   4   1 27268.0 1157.25   1
  -2  -4   1 24813.0 936.672   1
  -1   4   1 4418.26 491.901   2
  -1   4   1 4285.06 462.322   1
   1  -4  -1 3783.62 433.876   1
  -1  -4   1 4007.51 348.927   1
   0  -4  -1 2.71870 91.3661   1
   0   4   1 169.288 109.456   2
   0  -4   1 45.1002 63.3616   1
   0   4  -1 40.4067 46.9183   1
   0   4   1 17.7424 81.5655   1
   1  -4   1 22699.7 806.206   1
  -1   4  -1 23102.3 799.984   1
   1   4   1 22857.5 1090.45   1
  -1  -4  -1 22024.9 1046.41   1
   2  -4   1 70259.5 1511.36   1
  -2   4  -1 70594.2 1476.17   1
   2   4   1 74803.2 2081.36   1
  -3   4  -1 19716.7 855.341   1
  -4   4  -1 19265.4 929.908   1
  -5   4  -1-23.6367 96.3554   1
  -5  -4  -1 88.1924 156.349   1
  -5   4  -1 291.965 198.936   2
  -6   4  -1 71.7682 136.283   1
  -6  -4  -1-64.0356 137.515   1
   7  -4   1 998.702 331.463   2
  -7  -4  -1 948.765 300.855   1
  -7   4  -1 693.278 239.637   1
  -8  -4  -1 5724.15 804.953   1
  -8   4  -1 5535.57 705.319   1
   8  -4   1 5851.07 795.354   2
   9  -4   1 2173.16 532.261   2
   9   4   1 1814.72 388.686   2
  -9  -4  -1 2413.19 538.450   1
  10  -4   1 2698.49 594.069   2
  10   4   1 2847.36 513.581   2
  11  -4   1 1809.82 505.433   2
  11   4   1 1377.80 373.835   2
  12   4   1 328.974 182.649   2
  12  -4   1 1327.22 460.352   2
  13  -4   1 5903.54 1006.68   2
  14   5  -1 3728.02 763.383   2
  13  -5  -1 13218.2 1554.66   2
  13   5  -1 7345.34 1018.74   2
  12   5  -1 8442.80 1042.47   2
  12  -5  -1 11347.7 1382.28   2
  11  -5  -1 240.686 187.513   2
  10  -5  -1 617.267 340.065   2
   9  -5  -1 320.841 183.692   2
  -8  -5   1 266.649 212.881   1
   8  -5  -1 223.360 183.982   2
  -7  -5   1 21881.6 1423.39   1
   7  -5  -1 22605.6 1582.94   2
  -6  -5   1 626.495 207.615   1
   6  -5  -1 185.623 148.010   2
  -6   5   1 334.570 177.702   1
  -5   5   1 3350.40 494.622   1
   5  -5  -1 4615.75 606.945   1
  -4   5   1 13710.7 1101.71   2
  -4   5   1 12781.7 934.240   1
  -3  -5   1 4166.85 458.447   1
  -3   5   1 5189.28 563.950   1
  -3   5   1 3553.42 532.296   2
  -2   5   1 333.445 269.019   1
  -2   5   1 477.462 263.343   2
  -2  -5   1 300.633 120.164   1
  -1  -5   1 14008.1 743.372   1
  -1   5   1 15170.6 943.801   1
   0   5  -1 5020.39 444.668   1
   0   5   1 4366.64 519.687   1
   0  -5   1 3710.87 373.850   1
  -1   5  -1 74280.6 2434.51   2
  -1   5  -1 71673.7 1599.13   1
   1  -5   1 72662.5 1658.73   1
   1   5   1 74535.4 2163.89   1
  -2   5  -1 76492.4 2511.50   2
   2  -5   1 71036.1 1695.61   1
  -2   5  -1 72019.6 1674.54   1
  -3   5  -1 39185.7 1855.17   2
  -3  -5  -1 35676.5 1580.33   1
  -4   5  -1 8543.92 653.543   1
  -4  -5  -1 8572.47 805.942   1
  -5   5  -1 3315.93 436.870   1
  -5  -5  -1 4870.91 639.565   1
  -6   5  -1 34023.5 1506.75   1
  -6  -5  -1 32409.8 1761.18   1
  -7   5  -1 15410.6 1092.37   1
  -7  -5  -1 14805.2 1261.55   1
  -8   5  -1 5478.69 710.544   1
  -8  -5  -1 5825.99 842.663   1
  -9  -5  -1 4835.10 796.517   1
  10   5   1-307.878 186.337   2
 -10  -5  -1 532.723 271.626   1
  11   5   1 982.432 328.546   2
 -11  -5  -1 988.407 345.010   1
 -12  -5  -1 2655.47 702.640   1
  13   6  -1 2766.09 683.071   2
 -12  -6   1 748.011 367.858   1
  11  -6  -1 2192.23 662.876   2
 -11  -6   1 2525.43 621.453   1
  10  -6  -1 1742.71 484.958   2
 -10  -6   1 2273.64 550.270   1
  -9  -6   1 2106.63 496.982   1
   9  -6  -1 1645.55 524.417   2
  -8  -6   1 10040.1 1043.51   1
  -7  -6   1 767.087 277.619   1
  -6  -6   1 289.895 162.725   1
  -5  -6   1 45408.9 1847.89   1
   5  -6  -1 47070.1 2019.26   1
  -5   6   1 49570.9 1994.21   1
  -4   6   1 7291.53 743.547   1
   4  -6  -1 10653.5 916.569   1
   3  -6  -1 19939.3 1227.08   1
  -3   6   1 14792.0 1031.67   1
   2  -6  -1 21058.0 1228.41   1
  -2   6   1 15711.1 1050.56   1
   1  -6  -1 4320.59 556.710   1
  -1   6   1 3767.09 513.877   1
  -1   6   1 3100.57 516.634   2
   0   6  -1 1278.00 252.532   1
   0  -6  -1 2056.78 408.764   1
   0   6   1 1523.40 339.621   1
   0   6   1 1649.84 393.701   2
   0  -6   1 1562.54 285.578   1
  -1  -6  -1 7573.74 738.038   1
  -1   6  -1 6795.38 552.389   1
   1  -6   1 7132.56 582.315   1
   1   6   1 5812.44 680.390   2
  -2   6  -1 28744.8 1153.95   1
   2  -6   1 30682.0 1221.89   1
  -2  -6  -1 28139.1 1443.84   1
  -3   6  -1 5615.04 536.457   1
  -3  -6  -1 6526.04 730.598   1
   3  -6   1 5819.26 563.556   1
  -4   6  -1 25553.0 1193.26   1
  -4  -6  -1 33919.5 1710.48   1
  -5  -6  -1 2141.21 448.272   1
  -5   6  -1 2615.81 418.030   1
  -6  -6  -1 7366.12 877.292   1
  -6   6  -1 7342.84 722.886   1
  -7   6  -1 129.804 126.988   1
  -7  -6  -1 322.928 214.075   1
  -8  -6  -1 1.03532 186.618   1
  -9  -6  -1 334.561 290.577   1
 -10  -6  -1 10185.4 1247.37   1
 -11  -6  -1 1055.05 392.898   1
 -12  -7   1 1610.69 535.925   1
 -11  -7   1 459.039 287.408   1
 -10  -7   1 415.719 269.963   1
  -9  -7   1 2762.68 613.228   1
  -8  -7   1 6349.71 858.998   1
  -7  -7   1 344.720 256.110   1
  -6  -7   1-61.5143 200.464   1
  -5  -7   1 432.414 237.408   1
   5  -7  -1 266.431 199.550   1
   4  -7  -1 292.744 198.114   1
  -4  -7   1 342.311 170.952   1
  -3  -7   1 3150.28 456.783   1
   3  -7  -1 3221.91 553.290   1
  -3   7   1 3624.41 560.992   1
   2  -7  -1 8448.72 845.686   1
  -2   7   1 7097.26 759.303   1
   1  -7  -1 8717.89 837.954   1
  -1   7   1 9154.39 865.710   1
   0  -7  -1 946.666 274.839   1
   0   7   1 820.657 199.092   1
  -1  -7  -1 8578.42 857.210   1
   1   7   1 8618.77 882.363   1
  -1   7  -1 9656.09 732.227   1
  -2   7  -1 45.4606 86.0483   1
   2  -7   1 36.4269 101.108   1
  -3  -7  -1 48.6564 120.773   1
  -3   7  -1 39.5412 88.6522   1
  -4  -7  -1 5113.27 715.604   1
  -4   7  -1 5798.57 604.824   1
  -5   7  -1 273.978 144.001   1
  -5  -7  -1 349.243 215.368   1
  -6  -7  -1 1633.72 425.529   1
  -7  -7  -1 2635.86 576.579   1
  -8  -7  -1 1057.96 374.118   1
  -9  -7  -1 5869.17 926.603   1
 -10  -7  -1 1981.37 550.607   1
 -11  -7  -1 2968.80 696.683   1
 -10  -8   1 3080.92 667.411   1
  -9  -8   1 1560.56 436.996   1
  -8  -8   1 3463.25 647.863   1
  -7  -8   1 2884.63 569.261   1
  -6  -8   1 6613.41 830.847   1
   5  -8  -1 272.241 255.743   1
  -5  -8   1 87.4825 103.022   1
  -4  -8   1 4016.08 575.036   1
   4  -8  -1 5696.29 783.904   1
  -3  -8   1 1571.90 349.925   1
   3  -8  -1 1795.03 440.423   1
  -2  -8   1 5117.25 617.747   1
   2  -8  -1 6117.63 785.860   1
   1  -8  -1 3904.41 609.891   1
   0  -8  -1 438.147 205.918   1
  -1  -8  -1 4111.62 644.904   1
  -2  -8  -1 1340.15 377.287   1
  -3  -8  -1 8555.38 939.141   1
  -4  -8  -1 8731.00 981.713   1
  -5  -8  -1 6459.55 871.752   1
  -6  -8  -1 2188.64 515.492   1
  -7  -8  -1 1251.51 475.843   1
  -8  -8  -1 1988.89 499.169   1
  -9  -8  -1 6277.25 978.393   1
   4  -9  -1 7577.99 923.331   1
   3  -9  -1 7129.87 887.459   1
   2  -9  -1 5456.69 763.755   1
   1  -9  -1 1030.83 331.704   1
   0  -9  -1-413.290 219.905   1
  -1  -9  -1 427.439 262.744   1
  -2  -9  -1 2211.34 509.399   1
  -3  -9  -1 2021.62 514.151   1
  -4  -9  -1 2756.35 595.032   1
  -5  -9  -1 3116.85 636.804   1
  -6  -9  -1 873.548 351.157   1
  -7  -9  -1 2931.76 664.424   1
  -8  -9  -1 1251.56 444.624   1
  15   0  -2 6717.85 1104.45   2
  14   0  -2 1767.97 542.092   2
  13   0  -2 21236.0 1710.15   2
  12   0  -2 13868.3 1332.90   2
  11   0  -2 12752.7 1189.71   2
  10   0  -2 59123.5 2450.23   2
   9   0  -2 31985.7 1715.65   2
   8   0  -2 126606. 3221.13   2
   7   0  -2 25672.1 1357.89   2
   6   0  -2 204868. 3556.73   2
  -5   0   2 18852.8 1002.79   1
   5   0  -2 19886.2 1026.64   2
  -4   0   2 219787. 3042.59   1
   4   0  -2 220148. 3086.08   2
  -3   0   2 31674.6 1027.81   1
  -2   0   2 30844.5 897.049   1
  -1   0   2 863287. 4313.76   1
   0   0   2 16602.7 564.249   1
   1   0   2 565367. 3578.50   1
  -1   0  -2 573157. 3582.26   1
  -2   0  -2 848045. 3701.12   2
  -2   0  -2 829482. 5023.39   1
  -3   0  -2 156955. 1930.00   2
   3   0   2 152083. 1873.53   2
  -4   0  -2 74717.1 1526.51   2
   4   0   2 72367.7 1487.92   2
   5   0   2 95609.1 1916.80   2
  -5   0  -2 103817. 2049.90   2
   6   0   2 1730.65 292.453   2
  -6   0  -2 2073.92 324.755   2
   7   0   2 155138. 2913.19   2
  -7   0  -2 120007. 2649.12   2
  -8   0  -2 42416.6 1696.14   2
   8   0   2 52789.0 1838.89   2
   9   0   2 1112.25 268.235   2
  10   0   2 3121.73 518.550   2
  11   0   2 5342.07 720.044   2
  12   0   2 5060.82 728.559   2
  13   0   2 293.114 212.773   2
  14   0   2 1371.28 442.201   2
  15   0   2-596.033 323.830   2
  16   1  -2 142.750 295.717   2
  15  -1  -2 8812.11 1209.33   2
  15   1  -2 8620.92 1194.96   2
  14   1  -2 6023.85 953.932   2
  14  -1  -2 6891.20 1042.77   2
  13  -1  -2 210.435 298.392   2
  13   1  -2 473.839 309.683   2
  12  -1  -2 14698.8 1377.54   2
  12   1  -2 15258.0 1380.80   2
  11   1  -2 31840.9 1896.53   2
  11  -1  -2 29883.9 1868.14   2
  10   1  -2 2955.43 552.122   2
  10  -1  -2 2944.94 576.651   2
   9  -1  -2 6168.59 761.912   2
   9   1  -2 5782.94 733.159   2
   8   1  -2 177.632 169.930   2
   8  -1  -2 403.078 156.307   2
  -8   1   2 457.532 173.429   1
   7   1  -2 9914.49 833.068   2
  -7   1   2 10157.9 875.660   1
   7  -1  -2 10066.8 861.569   2
  -6   1   2 132317. 2927.67   1
   6  -1  -2 132880. 2891.59   2
   5  -1  -2 12311.2 824.229   2
  -5   1   2 12629.7 830.791   1
  -4   1   2 181527. 2909.38   1
   4  -1  -2 178308. 2856.89   2
  -3   1   2 31874.5 1115.75   1
   3  -1  -2 31465.0 1080.67   2
   2  -1  -2 145274. 2011.48   2
  -2   1   2 145476. 2163.91   1
  -2  -1   2 146192. 1757.33   1
   1  -1  -2 31266.5 769.413   2
  -1  -1   2 32763.9 642.395   1
  -1   1   2 31701.6 948.512   1
   1   1  -2 32592.6 655.926   1
   0   1   2 114217. 1799.70   1
   0  -1   2 114669. 1015.40   1
   0   1  -2 113817. 1048.89   1
   0  -1  -2 117307. 1080.92   2
   1   1   2 996325. 5565.02   1
  -1   1  -2 999999. 3797.22   1
  -2   1  -2 83336.2 1562.78   2
   3   1   2 55466.5 895.207   2
  -3   1  -2 57186.5 1384.66   2
   4   1   2 9004.81 459.170   2
   4  -1   2 8440.36 597.605   2
  -5   1  -2 31492.1 1251.40   2
   5   1   2 28560.3 962.383   2
   5  -1   2 29786.0 1211.63   2
  -6   1  -2 453.396 182.049   2
   6   1   2 527.763 139.449   2
   6  -1   2 406.992 152.229   2
  -7   1  -2 58.1462 139.670   2
   7   1   2-6.21415 95.5187   2
   7  -1   2 58.5098 143.479   2
  -8   1  -2 5345.33 649.556   2
   8   1   2 6922.43 648.021   2
   8  -1   2 6807.64 721.742   2
   9   1   2 15563.2 1054.09   2
   9  -1   2 15033.4 1122.95   2
  -9   1  -2 14538.0 1131.53   2
  10   1   2 767.366 234.323   2
  10  -1   2 994.879 329.047   2
  11   1   2 144.516 194.602   2
  11  -1   2 134.569 185.108   2
  12  -1   2 447.449 275.853   2
  12   1   2 95.1279 210.864   2
  13  -1   2 798.951 344.753   2
  13   1   2 1020.22 384.885   2
  14  -1   2 46.7016 286.558   2
  14   1   2 276.879 209.504   2
  15  -1   2 314.232 181.539   2
  16   2  -2-98.2086 216.880   2
  15   2  -2 1627.35 510.841   2
  15  -2  -2 1481.39 462.621   2
  14  -2  -2 587.633 369.790   2
  14   2  -2 276.731 257.225   2
  13   2  -2 3229.93 675.009   2
  13  -2  -2 2345.32 617.483   2
  12   2  -2 1971.98 524.889   2
  12  -2  -2 1860.76 514.929   2
  11  -2  -2 9005.49 1056.60   2
  11   2  -2 8763.27 995.725   2
  10  -2  -2 1285.71 351.196   2
  10   2  -2 1807.34 429.544   2
   9  -2  -2 14096.3 1188.98   2
   9   2  -2 13091.6 1111.66   2
  -8   2   2 7465.00 832.586   2
   8  -2  -2 7268.33 801.789   2
  -8   2   2 7090.39 795.438   1
   7  -2  -2 74502.8 2430.26   2
  -7   2   2 73737.9 2407.75   1
   6  -2  -2 1089.92 291.310   2
  -6   2   2 693.310 231.353   1
   5  -2  -2 1539.04 299.657   2
  -5   2   2 1696.65 326.603   1
   4  -2  -2 5900.67 566.206   2
  -4   2   2 5541.60 536.243   1
  -3   2   2 229448. 3234.95   1
   3  -2  -2 225532. 3103.22   2
  -2   2   2 163740. 2581.26   1
   2  -2  -2 164316. 2350.92   2
  -2   2   2 162180. 2361.48   2
   1  -2  -2 17873.3 679.927   2
  -1   2   2 18825.7 701.182   2
  -1   2   2 18163.6 823.868   1
   0   2   2 207909. 2784.91   1
   0   2   2 206179. 1967.07   2
   1   2   2 1380.33 135.851   2
   1   2   2 1085.01 203.043   1
  -2   2  -2 868.280 200.310   2
   2   2   2 933.721 214.230   1
  -3   2  -2 22095.8 1033.77   2
   4   2   2 47208.5 1027.55   2
  -4   2  -2 48161.7 1601.88   2
  -5   2  -2 36812.1 1510.06   2
   5   2   2 34266.4 1032.90   2
   5  -2   2 33668.2 1432.07   2
   6  -2   2 19666.2 1163.37   2
  -6   2  -2 21979.3 1242.30   2
   6   2   2 21174.4 906.138   2
  -7   2  -2 4583.47 599.200   2
   7  -2   2 6173.02 693.276   2
   7   2   2 6453.15 559.051   2
   8   2   2 473.224 184.187   2
   8  -2   2 814.646 272.015   2
  -8   2  -2 677.844 258.330   2
   9   2   2 43.6857 117.969   2
   9  -2   2-7.18076 117.923   2
  10   2   2 24625.4 1364.90   2
  10  -2   2 21976.3 1529.95   2
  11   2   2-10.7281 139.964   2
  11  -2   2 81.1836 195.727   2
  12   2   2 4596.49 672.277   2
  12  -2   2 7084.91 961.910   2
  13   2   2 1932.30 460.579   2
  13  -2   2 2899.55 649.248   2
  14  -2   2-99.4907 187.359   2
  15  -2   2-886.041 419.527   2
  15   3  -2 88.4944 303.345   2
  14   3  -2 3557.53 729.080   2
  14  -3  -2 3083.66 721.876   2
  13   3  -2 10924.8 1243.92   2
  13  -3  -2 9074.75 1170.63   2
  12   3  -2 95.6341 206.887   2
  12  -3  -2 404.286 270.247   2
  11   3  -2 4003.80 697.148   2
  11  -3  -2 4602.13 787.889   2
  10  -3  -2 22351.1 1622.30   2
   9  -3  -2 139080. 3844.45   2
   8  -3  -2 39294.3 1933.55   2
  -7   3   2 1918.49 413.498   1
   7  -3  -2 1613.72 384.766   2
  -7   3   2 2043.69 442.582   2
  -6   3   2 13371.7 992.384   1
   6  -3  -2 13146.3 998.886   2
  -5   3   2 142758. 3054.02   1
   5  -3  -2 141683. 3073.61   2
  -4   3   2 59908.0 1878.74   1
   4  -3  -2 53992.3 1773.87   2
   3  -3  -2 30824.2 1260.75   2
  -3   3   2 32117.0 1300.05   2
  -3   3   2 31981.7 1309.17   1
  -2   3   2 109364. 2326.40   1
  -2   3   2 113438. 2244.44   2
   2  -3  -2 107867. 2197.62   2
   1  -3  -2 82728.1 1772.13   2
  -1   3   2 81874.4 1965.32   1
  -1  -3   2 80499.1 986.890   1
  -1   3   2 83439.9 1765.79   2
   0   3   2 163994. 2230.81   2
   0   3   2 173509. 2865.87   1
  -1   3  -2 22206.0 446.028   1
   1   3   2 24593.8 1115.98   1
   1   3   2 24020.9 797.353   2
  -2   3  -2 23262.6 656.793   1
   2   3   2 23215.6 1141.55   1
  -3   3  -2 79545.5 1509.56   1
  -4   3  -2 47919.3 1366.72   1
  -4   3  -2 37745.4 1590.85   2
  -5   3  -2 15439.9 1056.85   2
  -5   3  -2 20123.1 1019.93   1
  -6  -3  -2 69991.0 2490.93   1
   6   3   2 72973.3 1730.76   2
  -7  -3  -2 1297.00 351.479   1
   7   3   2 1158.05 249.735   2
   7  -3   2 1217.01 347.188   2
   8  -3   2 35535.8 1873.45   2
  -8  -3  -2 36245.4 2010.41   1
   8   3   2 36656.7 1439.13   2
   9   3   2 78.3272 121.307   2
   9  -3   2-38.5599 218.192   2
  10   3   2 9972.34 846.216   2
  10  -3   2 10543.6 1124.73   2
  11   3   2 4280.33 600.121   2
  11  -3   2 5807.85 870.950   2
  12   3   2-45.7366 95.7122   2
  12  -3   2 154.650 292.285   2
  13  -3   2 376.168 333.992   2
  14  -3   2 1052.34 463.103   2
  15   4  -2 3378.63 772.863   2
  14   4  -2 471.768 366.939   2
  13   4  -2-14.3009 209.710   2
  13  -4  -2 96.6280 280.001   2
  12   4  -2 78.9609 198.737   2
  12  -4  -2 244.486 204.475   2
  11  -4  -2 26063.6 1909.64   2
  10  -4  -2 11733.0 1224.38   2
   9  -4  -2 7793.00 970.253   2
   8  -4  -2 6186.69 815.705   2
  -7   4   2 44430.0 1985.61   1
   7  -4  -2 46265.6 2126.04   2
  -6   4   2 862.743 283.704   1
   6  -4  -2 1156.08 327.334   2
   6  -4  -2 965.975 331.828   1
  -6   4   2 708.020 204.081   2
   5  -4  -2 13328.4 1034.30   2
  -5   4   2 12859.7 974.503   1
  -5   4   2 14963.8 1103.04   2
   5  -4  -2 12622.1 991.720   1
  -4   4   2 21439.4 1205.33   1
   4  -4  -2 21973.1 1257.70   2
  -4   4   2 22502.1 1272.35   2
   3  -4  -2 164143. 3219.27   2
  -3  -4   2 164070. 2435.32   1
  -3   4   2 170314. 3235.21   1
  -2  -4   2 143336. 1954.14   1
  -2   4   2 143312. 2895.68   1
  -2   4   2 137629. 2789.69   2
  -1  -4   2 4225.50 285.739   1
  -1   4   2 4208.99 456.306   2
  -1   4   2 3704.23 455.927   1
   0  -4   2 92936.7 1207.06   1
   0   4   2 96739.2 2086.92   2
   1   4   2 10387.8 650.696   2
  -1   4  -2 11141.6 409.741   1
   1   4   2 11545.2 843.666   1
   2   4   2 7983.82 735.609   1
  -2   4  -2 7778.90 403.938   1
  -3   4  -2 9260.65 528.208   1
  -3  -4  -2 9562.78 820.652   1
  -4   4  -2 59586.7 1537.66   1
  -4   4  -2 64901.8 2297.34   2
  -4  -4  -2 59452.9 2135.69   1
  -5   4  -2-59.4298 133.755   2
  -5  -4  -2 128.194 176.488   1
  -5   4  -2 208.884 135.437   1
  -6  -4  -2 31913.0 1732.28   1
  -6   4  -2 24048.1 1210.39   1
  -7  -4  -2 620.043 242.898   1
  -7   4  -2 502.562 228.321   1
   8   4   2 2730.65 416.131   2
  -8   4  -2 2770.68 489.147   1
  -8  -4  -2 2671.62 580.278   1
  -9  -4  -2 1070.29 402.398   1
   9   4   2 1055.48 298.833   2
  10   4   2 2403.19 429.666   2
 -10  -4  -2 3022.73 664.481   1
  11   4   2 237.423 155.861   2
 -11  -4  -2 471.861 287.961   1
  12  -4   2 11604.6 1360.16   2
 -12  -4  -2 11116.5 1409.36   1
  14   5  -2 790.519 385.761   2
  13  -5  -2 606.049 365.642   2
  13   5  -2 81.3026 182.937   2
  12  -5  -2 4646.08 890.011   2
  11  -5  -2 465.815 302.773   2
  10  -5  -2 601.539 289.926   2
   9  -5  -2 8891.17 1095.18   2
   8  -5  -2 2430.08 557.690   2
   7  -5  -2-113.621 169.929   2
   6  -5  -2 37883.0 1889.64   1
   6  -5  -2 40178.9 2015.90   2
  -6  -5   2 38876.0 1697.50   1
   5  -5  -2 10479.5 993.456   2
  -5   5   2 7723.59 797.066   1
   5  -5  -2 10742.4 960.966   1
  -4   5   2 89.9925 113.326   2
  -4  -5   2-57.1610 59.6321   1
  -4   5   2 58.3284 101.899   1
   4  -5  -2-46.6771 143.315   2
   4  -5  -2-129.422 166.690   1
  -3  -5   2 23137.4 977.901   1
   3  -5  -2 22594.5 1311.74   1
  -3   5   2 24166.5 1319.58   1
   2  -5  -2 33026.7 1542.31   1
  -2   5   2 32857.3 1524.48   2
  -2  -5   2 35396.5 1090.75   1
  -2   5   2 33486.1 1550.24   1
  -1   5   2 7629.65 730.099   1
   1  -5  -2 7264.98 719.585   1
   0   5   2 119.438 133.938   1
   0  -5   2 134.080 85.3374   1
  -1  -5  -2 12779.2 956.578   1
   1   5   2 10427.4 756.268   2
   1   5   2 12856.4 984.379   1
  -1   5  -2 12916.9 547.142   1
   1  -5   2 13795.3 575.829   1
   2   5   2 2962.80 400.012   2
  -2   5  -2 3396.63 305.752   1
  -2   5  -2 3132.49 524.616   2
  -2  -5  -2 2671.28 456.198   1
   2   5   2 2647.41 464.717   1
  -3   5  -2 10055.2 571.884   1
  -3  -5  -2 12665.5 1015.21   1
  -4   5  -2 504.107 148.715   1
  -4  -5  -2 334.411 178.289   1
  -5   5  -2 7319.90 616.732   1
  -5  -5  -2 8225.72 879.722   1
  -6   5  -2 16430.3 1001.32   1
  -6  -5  -2 16117.4 1276.96   1
  -7  -5  -2 1092.42 356.154   1
  -7   5  -2 1326.61 305.105   1
  -8   5  -2 4017.40 575.264   1
  -8  -5  -2 4513.69 765.563   1
  -9  -5  -2 6698.43 982.647   1
   9   5   2 3681.87 530.496   2
  10   5   2 609.166 236.213   2
 -10  -5  -2 940.564 458.472   1
 -11  -5  -2 835.376 458.903   1
 -12  -5  -2-33.0805 314.428   1
 -13  -6   2 563.272 385.909   1
  13   6  -2-1095.80 438.355   2
 -12  -6   2 9450.37 1237.01   1
 -11  -6   2 6073.40 933.592   1
  11  -6  -2 5198.05 933.349   2
  10  -6  -2 14150.5 1491.54   2
 -10  -6   2 11797.5 1253.28   1
  -9  -6   2 2016.18 476.183   1
   9  -6  -2 1529.21 471.522   2
  -8  -6   2 21223.4 1461.28   1
   8  -6  -2 20575.4 1672.24   2
   7  -6  -2 11572.2 1232.36   2
  -7  -6   2 10270.8 951.845   1
  -6  -6   2 25535.1 1401.46   1
   6  -6  -2 27260.6 1673.61   1
   5  -6  -2 3503.37 593.340   1
  -4   6   2 4313.63 611.336   1
   4  -6  -2 3589.73 574.306   1
   3  -6  -2 918.020 293.273   1
  -3  -6   2 569.414 157.129   1
  -3   6   2 853.385 320.034   1
   2  -6  -2 49789.4 2030.66   1
  -2  -6   2 49185.9 1407.65   1
  -2   6   2 39739.2 1796.05   1
  -2   6   2 38774.3 1838.02   2
  -1   6   2 60163.3 2159.57   2
   1  -6  -2 60586.9 2215.33   1
  -1  -6   2 61484.6 1477.01   1
   0   6   2 39847.4 1728.83   2
   0  -6  -2 39556.6 1794.88   1
  -1  -6  -2 4451.13 626.524   1
   1   6   2 4475.88 575.606   2
  -1   6  -2 4343.97 372.988   1
   1   6   2 2966.14 492.238   1
  -2   6  -2 8471.94 518.136   1
  -2  -6  -2 7638.74 827.705   1
  -3  -6  -2 73874.0 2598.81   1
  -3   6  -2 78114.9 1710.89   1
  -4   6  -2 99.1354 101.889   1
  -4  -6  -2-11.3657 160.550   1
  -5   6  -2-129.108 101.507   1
  -5  -6  -2 78.9824 140.437   1
  -6  -6  -2-88.3283 218.863   1
  -6   6  -2-274.198 145.762   1
  -7  -6  -2 21511.6 1630.47   1
  -7   6  -2 23485.8 1303.15   1
  -8  -6  -2 4098.63 743.999   1
  -9  -6  -2 300.237 178.787   1
 -10  -6  -2 513.654 303.615   1
 -11  -6  -2 1560.27 497.552   1
 -12  -7   2 4793.65 889.365   1
 -11  -7   2-72.0919 149.238   1
 -10  -7   2 6108.70 898.316   1
  -9  -7   2 579.998 279.313   1
  -8  -7   2 21808.1 1524.41   1
  -7  -7   2 3192.81 555.086   1
  -6  -7   2 28094.9 1535.66   1
   6  -7  -2 26423.9 1723.63   1
   5  -7  -2 4142.89 677.310   1
  -5  -7   2 4660.80 584.576   1
   4  -7  -2 12517.1 1129.59   1
   3  -7  -2 25668.7 1585.36   1
   2  -7  -2 871.663 266.962   1
  -2  -7   2 455.205 158.112   1
  -1  -7   2 1517.69 258.741   1
   1  -7  -2 751.626 270.728   1
   0  -7  -2 27065.2 1603.41   1
   0  -7   2 28544.3 1072.17   1
   1   7   2 52595.7 2150.31   2
   1  -7   2 54323.6 1447.91   1
  -1  -7  -2 52164.9 2263.56   1
  -2  -7  -2 1102.13 333.875   1
  -2   7  -2 795.116 168.439   1
   2   7   2 709.442 220.668   2
  -3  -7  -2 19.4719 146.430   1
  -3   7  -2-70.0586 68.6882   1
   3   7   2-205.600 143.886   2
  -4  -7  -2 223.053 138.821   1
  -5  -7  -2 17072.8 1421.71   1
  -6  -7  -2 1314.82 431.929   1
  -7  -7  -2 3908.14 737.901   1
  -8  -7  -2 327.883 291.123   1
  -9  -7  -2 19992.9 1758.81   1
 -10  -7  -2 542.725 330.408   1
  -9  -8   2 155.761 167.493   1
  -8  -8   2 1601.50 424.400   1
  -7  -8   2 1491.53 391.825   1
  -6  -8   2 1512.02 378.944   1
   6  -8  -2 1614.70 477.553   1
  -5  -8   2 3483.88 522.245   1
   5  -8  -2 2967.89 599.873   1
  -4  -8   2 1747.21 345.086   1
   4  -8  -2 1549.59 425.170   1
   3  -8  -2 2187.07 503.659   1
   2  -8  -2 765.007 324.873   1
   1  -8  -2 7676.96 905.802   1
   0  -8  -2 2437.92 527.325   1
  -1  -8  -2 1448.48 423.820   1
  -2  -8  -2 389.204 304.638   1
  -3  -8  -2 8351.40 996.079   1
  -4  -8  -2 71.6036 211.231   1
  -5  -8  -2 1657.52 455.539   1
  -6  -8  -2 2329.78 571.514   1
  -7  -8  -2 4100.36 783.661   1
  -8  -8  -2 492.715 296.138   1
  -9  -8  -2 931.265 409.859   1
   6  -9  -2 472.868 260.510   1
   5  -9  -2 9115.94 1103.15   1
   4  -9  -2 1045.79 392.407   1
   3  -9  -2-42.7840 132.970   1
   2  -9  -2 1716.95 474.156   1
   1  -9  -2 8932.25 1034.97   1
   0  -9  -2 11659.0 1187.99   1
  -1  -9  -2 471.221 190.701   1
  -2  -9  -2 5053.22 811.645   1
  -3  -9  -2 3908.27 756.083   1
  -4  -9  -2 6556.02 950.318   1
  -5  -9  -2 194.926 192.672   1
  -6  -9  -2 2417.35 606.845   1
  -7  -9  -2 728.501 349.465   1
  15   0  -3 102.203 197.834   2
  14   0  -3 504.834 386.171   2
  13   0  -3-179.139 233.120   2
  12   0  -3-175.268 286.003   2
  11   0  -3 128.365 128.968   2
  10   0  -3 79.7578 135.491   2
   9   0  -3-132.834 152.622   2
   8   0  -3 4.26471 106.851   2
  -8   0   3-102.650 225.150   1
   7   0  -3 8.62824 137.268   2
  -7   0   3 79.5530 152.930   1
   6   0  -3 49.7072 125.621   2
  -6   0   3-12.3976 123.489   1
  -5   0   3 43.5542 104.795   1
   5   0  -3 168.141 144.146   2
  -4   0   3 100.302 105.869   1
   3   0  -3 11.9590 103.905   1
  -3   0   3-1.59481 60.2641   1
  -2   0   3 46.9555 76.8453   1
   2   0  -3 73.9465 75.2015   1
   1   0  -3-58.1494 68.7339   1
  -1   0   3 9.25206 70.4711   1
   0   0   3 1429.39 198.408   1
   0   0  -3 1.38693 68.1085   1
  -1   0  -3 136.837 73.0902   1
   1   0   3 285.472 106.559   1
  -2   0  -3-38.7833 59.9070   1
  -2   0  -3 82.9858 50.1596   2
  -3   0  -3 20.8936 83.7727   1
  -3   0  -3 30.5741 45.6377   2
  -4   0  -3 60.3797 60.9926   2
  -5   0  -3-50.7404 104.841   2
   5   0   3 125.288 112.360   2
   6   0   3 58.4021 83.6822   2
  -6   0  -3 56.8011 110.694   2
   7   0   3 59.9599 76.7787   2
  -7   0  -3 5.19146 60.0210   2
  -8   0  -3 85.3703 96.8993   2
   8   0   3-0.53580 125.108   2
   9   0   3 40.6679 106.493   2
  10   0   3 94.5785 135.944   2
  11   0   3-49.7022 130.135   2
  12   0   3-456.331 238.645   2
  13   0   3-216.019 187.175   2
  15   1  -3 2127.17 578.095   2
  15  -1  -3 2683.73 667.428   2
  14   1  -3 3762.38 771.618   2
  14  -1  -3 3210.84 730.397   2
  13   1  -3 241.746 247.052   2
  13  -1  -3 424.119 295.604   2
  12   1  -3 293.025 226.205   2
  12  -1  -3 17.6847 222.336   2
  11  -1  -3-105.206 210.795   2
  11   1  -3 0.99850 126.173   2
  10   1  -3 9725.21 1024.31   2
  10  -1  -3 10125.2 1043.80   2
   9   1  -3 23659.9 1526.76   2
   9  -1  -3 23697.5 1521.96   2
   8  -1  -3 522.200 265.960   2
  -8   1   3 768.712 310.372   1
   8   1  -3 767.933 250.520   2
   7  -1  -3 864.502 284.330   2
  -7   1   3 1154.26 326.649   1
   6  -1  -3 1290.55 298.481   2
  -6  -1   3 1401.15 306.559   1
  -6   1   3 1593.39 349.755   1
   5  -1  -3 48321.6 1690.26   2
  -5  -1   3 48046.9 1589.44   1
  -5   1   3 47801.3 1705.44   1
  -4   1   3 112403. 2419.23   1
  -4  -1   3 113782. 2195.56   1
   4  -1  -3 115134. 2405.00   2
   3  -1  -3 18149.2 859.124   2
  -3   1   3 17819.2 904.655   1
  -3  -1   3 17481.8 769.758   1
  -2  -1   3 9134.11 481.046   1
  -2   1   3 9033.30 609.461   1
   2  -1  -3 8923.98 530.776   2
   2   1  -3 8577.54 486.002   1
   1   1  -3 16851.8 598.112   1
  -1   1   3 16483.8 781.247   1
   1  -1  -3 17873.3 649.822   2
  -1  -1   3 17769.3 589.792   1
   0   1  -3 65270.1 1130.42   1
   0   1   3 63948.3 1551.12   1
   0  -1   3 66156.9 1099.06   1
   0  -1  -3 65893.3 981.629   2
   1   1   3 112483. 2137.68   1
  -1   1  -3 111096. 1574.05   1
  -2   1  -3 30520.5 954.828   1
   2   1   3 30183.7 1197.78   1
  -3   1  -3 5003.57 447.412   2
  -3  -1  -3 4734.41 493.929   1
   4   1   3 29825.6 756.814   2
  -4  -1  -3 30592.8 1355.86   1
  -4   1  -3 31301.0 1159.40   2
  -5   1  -3 59377.0 1742.06   2
   5   1   3 58833.3 1280.53   2
  -5  -1  -3 57392.7 2026.24   1
   6   1   3 12610.7 678.579   2
   6  -1   3 12647.8 864.771   2
  -7   1  -3 715.555 227.592   2
   7   1   3 612.954 184.378   2
   7  -1   3 530.547 191.563   2
  -8   1  -3 1562.84 349.774   2
   8   1   3 1677.49 308.911   2
   8  -1   3 1558.41 357.561   2
   9   1   3 2774.27 422.927   2
  -9   1  -3 2781.76 489.184   2
   9  -1   3 2331.79 450.430   2
  10  -1   3 16645.9 1259.22   2
  10   1   3 17552.3 1135.34   2
  11   1   3 4201.30 595.726   2
  11  -1   3 5769.90 797.245   2
  12  -1   3 2329.10 504.755   2
  12   1   3 1188.59 339.483   2
  13  -1   3 4360.66 737.409   2
  14  -1   3 1374.20 451.560   2
  15  -2  -3 3919.28 840.537   2
  15   2  -3 5212.64 937.696   2
  14   2  -3 180.226 246.863   2
  14  -2  -3 22.0263 168.519   2
  13  -2  -3 8319.31 1126.88   2
  13   2  -3 7211.25 1036.35   2
  12  -2  -3 1861.95 503.061   2
  12   2  -3 1692.84 498.448   2
  11   2  -3 102.237 138.467   2
  11  -2  -3-204.316 259.497   2
  10   2  -3 1866.44 469.333   2
  10  -2  -3 1940.18 473.954   2
   9  -2  -3 1187.61 341.809   2
   8  -2  -3 15605.2 1211.39   2
   7  -2  -3 53165.3 2083.90   2
  -7   2   3 52693.0 2107.13   1
  -6   2   3 52016.4 1976.45   1
   6  -2  -3 49532.8 1901.77   2
  -5   2   3 35394.4 1522.88   1
   5  -2  -3 34589.2 1478.19   2
   4  -2  -3 62981.2 1840.98   2
  -4   2   3 63059.7 1941.05   1
  -4   2   3 67051.5 1900.73   2
   3  -2  -3 57440.1 1586.66   2
  -3  -2   3 56681.3 1314.33   1
  -3   2   3 55605.9 1733.02   1
  -3   2   3 57723.3 1606.27   2
  -2   2   3 11083.1 729.939   1
   2  -2  -3 10562.5 608.286   2
  -2   2   3 11564.2 646.104   2
  -2  -2   3 10494.4 460.607   1
  -1   2   3 127363. 1841.03   2
  -1  -2   3 126413. 1181.25   1
  -1   2   3 130104. 2459.74   1
   1  -2  -3 126555. 1836.92   2
   0   2   3 173855. 1761.27   2
   0  -2  -3 167709. 1694.30   2
   0   2   3 169736. 2844.86   1
  -1   2  -3 40660.4 712.392   1
   1   2   3 42325.5 1458.59   1
   2   2   3 96272.3 2324.25   1
  -2   2  -3 98090.0 1464.72   1
  -3   2  -3 12836.3 828.887   2
  -4   2  -3 3128.01 427.675   2
   4   2   3 2667.17 179.089   2
   5   2   3 32.9651 56.8910   2
  -5   2  -3 259.160 192.605   2
  -6   2  -3 17891.2 1139.30   2
   6   2   3 17932.1 736.804   2
  -6  -2  -3 16910.3 1228.46   1
   7   2   3 32437.0 1133.46   2
  -7  -2  -3 30996.2 1781.74   1
   8   2   3 11416.4 745.460   2
   8  -2   3 10813.4 982.032   2
  -8   2  -3 11576.5 1008.12   2
  -8  -2  -3 10047.4 1069.45   1
   9   2   3 2139.43 353.656   2
   9  -2   3 2159.93 484.826   2
  10   2   3 2279.51 391.822   2
  10  -2   3 2581.10 517.285   2
  11   2   3 8722.95 812.133   2
  11  -2   3 12202.1 1190.79   2
  12  -2   3 9888.88 1141.33   2
  12   2   3 10166.5 939.928   2
  13  -2   3 656.826 325.399   2
  14  -2   3 28.4959 214.915   2
  15   3  -3-252.401 257.052   2
  14   3  -3 2896.14 713.205   2
  14  -3  -3 3384.16 744.634   2
  13   3  -3 153.632 199.662   2
  13  -3  -3 94.6708 177.646   2
  12  -3  -3-54.0182 177.525   2
  12   3  -3 159.826 201.706   2
  11   3  -3-218.624 282.291   2
  11  -3  -3 313.592 215.213   2
  10  -3  -3 1005.24 408.691   2
   9  -3  -3 5194.95 754.608   2
   8  -3  -3 521.993 251.121   2
  -7   3   3 483.368 248.049   2
  -7   3   3 636.216 315.903   1
   7  -3  -3 492.021 265.089   2
  -6   3   3 641.561 265.784   1
  -6   3   3 791.908 264.999   2
   6  -3  -3 501.499 229.758   2
  -5   3   3 25035.2 1350.52   1
  -5   3   3 26117.2 1400.62   2
   5  -3  -3 22665.4 1259.47   2
   4  -3  -3 4033.31 485.761   2
  -4   3   3 4625.88 561.728   1
  -3   3   3 20826.1 1162.04   1
   3  -3  -3 20123.4 1019.74   2
  -3   3   3 21905.0 1077.12   2
   2  -3  -3 6619.11 536.025   2
  -2   3   3 5659.53 578.416   1
  -2   3   3 7535.02 577.019   2
  -2  -3   3 7308.36 361.854   1
  -1   3   3 12052.9 833.488   1
   1  -3  -3 11203.5 628.345   2
  -1   3   3 11283.4 632.294   2
   0   3   3 12053.9 581.270   2
   0   3   3 12561.0 853.251   1
   1   3   3 88125.0 1353.57   2
   1   3   3 89867.4 2351.73   1
   2   3   3 173.906 117.460   1
   2   3   3 144.961 52.4286   2
  -2   3  -3 197.401 62.5852   1
  -3   3  -3 27805.9 1356.24   2
   3   3   3 22497.8 546.761   2
   4   3   3 2079.82 187.983   2
  -4   3  -3 1994.81 397.967   2
   5   3   3-12.6909 53.3884   2
  -5   3  -3 193.018 123.160   2
  -5  -3  -3 257.740 219.431   1
  -6  -3  -3 3054.91 542.255   1
   6   3   3 2842.10 283.754   2
  -6   3  -3 3231.91 523.668   2
  -7  -3  -3 692.400 320.533   1
   7   3   3 1074.37 204.509   2
  -8  -3  -3 530.884 309.866   1
   8   3   3 245.435 124.748   2
   9   3   3-37.3898 86.8748   2
  -9  -3  -3-7.55959 280.629   1
  10   3   3 2504.55 402.616   2
 -10  -3  -3 2334.97 589.454   1
 -11  -3  -3 449.115 274.704   1
 -12  -3  -3 2333.66 611.601   1
  14   4  -3 193.624 339.335   2
  13   4  -3 1071.66 455.251   2
  13  -4  -3 1372.39 488.659   2
  12   4  -3 10233.5 1222.49   2
  12  -4  -3 10547.8 1272.55   2
  11  -4  -3 12339.9 1310.15   2
  10  -4  -3-173.064 183.926   2
   9  -4  -3 2334.24 547.499   2
   8  -4  -3 7883.77 920.928   2
   7  -4  -3 31.2393 114.025   2
   7  -4  -3-118.946 180.412   1
  -6   4   3 29068.7 1608.72   1
   6  -4  -3 29768.7 1608.50   2
  -6   4   3 33025.1 1744.72   2
   6  -4  -3 29119.1 1639.18   1
   5  -4  -3 113.785 149.592   1
  -5   4   3 106.781 102.826   1
  -5   4   3 87.1112 127.537   2
   5  -4  -3 209.967 146.342   2
   4  -4  -3 1037.39 337.677   1
   4  -4  -3 1251.90 324.931   2
  -4   4   3 779.745 248.075   2
  -4   4   3 1908.80 398.609   1
   3  -4  -3 8597.19 802.426   1
  -3   4   3 8737.37 792.333   1
   3  -4  -3 9134.10 756.717   2
  -3  -4   3 8961.65 518.410   1
   2  -4  -3 4833.65 519.456   2
  -2   4   3 5544.45 613.754   1
  -2   4   3 5281.21 536.614   2
  -2  -4   3 5194.68 300.443   1
   2  -4  -3 5024.17 603.035   1
  -1   4   3 2403.65 336.541   2
  -1   4   3 2736.31 442.365   1
   0   4   3 12539.8 936.032   1
   0   4   3 12475.1 713.458   2
   1   4   3 561.220 137.870   2
   1   4   3 704.460 230.752   1
   2   4   3 58109.8 1321.40   2
   2   4   3 62334.3 2207.74   1
  -3   4  -3 86774.1 1416.56   1
   3   4   3 83451.2 1501.41   2
  -3  -4  -3 86452.1 2623.96   1
  -4  -4  -3 11797.0 999.886   1
  -4   4  -3 13116.3 1076.40   2
  -4   4  -3 11670.4 644.596   1
  -5  -4  -3 2597.45 495.097   1
  -5   4  -3 2672.99 359.473   1
  -6  -4  -3 3017.71 561.057   1
   6   4   3 2951.97 323.709   2
  -6   4  -3 2209.82 360.826   1
   7   4   3 4846.87 443.351   2
  -7  -4  -3 4384.83 706.571   1
  -7   4  -3 4770.17 576.189   1
   8   4   3 6590.89 551.640   2
  -8  -4  -3 6177.77 877.424   1
  -8   4  -3 6970.30 755.962   1
   9   4   3 4158.74 471.994   2
  -9  -4  -3 3643.42 735.619   1
 -10  -4  -3 154.501 284.779   1
 -11  -4  -3 2747.11 717.548   1
 -12  -4  -3 637.809 336.916   1
  14   5  -3 5522.03 995.659   2
  13  -5  -3 8310.07 1238.29   2
  13   5  -3 5383.96 917.432   2
  12  -5  -3 1556.54 589.743   2
  11  -5  -3 8093.39 1130.67   2
  10  -5  -3 1229.90 426.927   2
   9  -5  -3 320.226 246.358   2
   8  -5  -3 19286.3 1536.29   2
   7  -5  -3 5127.90 762.533   2
   7  -5  -3 5034.64 779.003   1
   6  -5  -3 12545.7 1130.29   2
   6  -5  -3 12645.1 1145.86   1
   5  -5  -3 50291.4 2146.05   2
   5  -5  -3 50476.3 2181.77   1
   4  -5  -3 34475.7 1693.30   2
  -4   5   3 33095.3 1675.09   1
  -4  -5   3 35211.8 1235.88   1
   4  -5  -3 34510.0 1758.19   1
  -3   5   3 106.474 107.358   1
  -3   5   3 429.273 174.494   2
  -3  -5   3 474.709 130.152   1
   2  -5  -3 16.0177 161.461   1
  -2   5   3 260.956 163.923   1
  -2  -5   3 336.466 93.3343   1
  -1  -5   3 206.343 52.2651   1
  -1   5   3 306.968 174.158   1
   0   5   3 32736.2 1635.46   1
   0  -5  -3 35096.5 1696.21   1
   0   5   3 30981.3 1287.52   2
   1   5   3 23683.3 1062.93   2
  -1  -5  -3 23024.2 1374.97   1
   1   5   3 24938.3 1459.70   1
  -2  -5  -3 558.476 220.035   1
   2   5   3 567.100 155.022   2
  -3   5  -3 2052.86 211.411   1
   3   5   3 2169.40 308.321   2
  -3  -5  -3 1939.11 436.075   1
  -4   5  -3 47196.0 1244.69   1
   4   5   3 43976.7 1347.93   2
  -4  -5  -3 46295.6 2120.65   1
  -5   5  -3 28082.6 1118.93   1
  -5  -5  -3 27537.4 1699.69   1
  -6   5  -3 6247.46 597.450   1
  -6  -5  -3 6580.20 871.829   1
  -7   5  -3 0.57856 126.544   1
  -7  -5  -3-69.6953 219.724   1
   7   5   3-197.256 147.806   2
  -8  -5  -3 2484.14 606.532   1
   8   5   3 2337.20 348.120   2
  -9  -5  -3 19149.1 1696.88   1
 -10  -5  -3 5831.10 1003.07   1
 -11  -5  -3 3851.50 836.612   1
  11  -6  -3 16893.3 1692.56   2
  10  -6  -3 2969.03 668.059   2
  -9  -6   3 246.139 220.614   1
   9  -6  -3 294.205 179.528   2
  -8  -6   3 247.294 180.390   1
   8  -6  -3 411.441 247.468   2
   7  -6  -3 3927.59 721.025   2
  -7  -6   3 3587.66 537.232   1
   7  -6  -3 3950.65 709.814   1
   6  -6  -3 8941.42 1027.43   2
  -6  -6   3 8158.31 761.131   1
   6  -6  -3 6920.53 886.452   1
   5  -6  -3 3203.06 582.050   1
   4  -6  -3 1776.80 458.787   1
  -4  -6   3 1344.90 250.137   1
   3  -6  -3 18934.9 1341.60   1
  -3  -6   3 18798.3 815.228   1
  -3   6   3 21121.0 1375.66   2
   2  -6  -3 1465.22 407.525   1
  -2  -6   3 1379.25 194.814   1
  -2   6   3 1918.34 420.071   2
  -1   6   3 9446.56 853.297   2
   1  -6  -3 8706.82 907.457   1
  -1  -6   3 7630.34 357.062   1
   0  -6  -3 6863.20 815.781   1
  -1  -6  -3 1656.32 542.634   1
  -2  -6  -3 32414.3 1783.67   1
  -3  -6  -3 37349.5 1959.73   1
  -3   6  -3 37804.9 866.134   1
  -4   6  -3 8939.23 518.431   1
  -4  -6  -3 8470.51 945.438   1
  -5  -6  -3 388.410 296.420   1
  -5   6  -3 773.852 185.569   1
  -6  -6  -3 4743.66 776.838   1
  -7  -6  -3 1896.96 535.546   1
  -8  -6  -3-63.7274 178.140   1
  -9  -6  -3 6475.13 1019.11   1
 -10  -6  -3 5401.45 955.700   1
 -12  -7   3 418.306 252.489   1
 -11  -7   3-1.16518 273.964   1
 -10  -7   3 521.822 273.635   1
  10  -7  -3 203.196 222.844   2
   9  -7  -3-847.150 396.148   2
  -9  -7   3 168.421 253.270   1
  -8  -7   3 409.822 216.120   1
  -7  -7   3 738.390 264.692   1
   7  -7  -3 991.603 434.468   1
   6  -7  -3 2631.95 566.029   1
  -6  -7   3 1566.89 339.041   1
   5  -7  -3 594.844 312.214   1
   4  -7  -3 957.734 389.754   1
  -4  -7   3 15.7866 33.8459   1
   3  -7  -3 2744.79 567.371   1
  -3  -7   3 2464.91 318.869   1
   2  -7  -3 7.86456 193.473   1
  -2  -7   3-11.1101 64.0010   1
  -1  -7   3 6986.94 387.640   1
   1  -7  -3 8202.39 943.139   1
   0   7   3 1705.16 395.731   2
   0  -7  -3 1401.15 414.620   1
   1   7   3 4461.69 592.009   2
  -1  -7  -3 4640.11 723.433   1
  -2  -7  -3 8549.57 989.303   1
   2   7   3 8849.53 814.460   2
  -3  -7  -3 2255.45 526.835   1
  -4  -7  -3 928.116 336.314   1
  -5  -7  -3-137.335 218.123   1
  -6  -7  -3 556.958 239.951   1
  -7  -7  -3 1332.86 484.684   1
  -8  -7  -3 253.969 248.342   1
  -9  -7  -3 943.336 473.984   1
   7  -8  -3 33773.1 2206.04   1
   6  -8  -3 3011.05 622.512   1
   5  -8  -3 55.7166 200.889   1
   4  -8  -3 827.243 265.829   1
   3  -8  -3 6728.01 917.978   1
   2  -8  -3 23295.4 1683.90   1
   1  -8  -3 24193.4 1708.44   1
   0  -8  -3 2630.81 576.715   1
  -1  -8  -3 3067.99 631.483   1
  -2  -8  -3 1219.26 408.343   1
  -3  -8  -3 4202.06 754.770   1
  -4  -8  -3 1864.09 495.889   1
  -5  -8  -3 4057.94 792.424   1
  -6  -8  -3 4265.01 804.591   1
  -7  -8  -3 2594.42 672.316   1
  -8  -8  -3 6483.46 1074.46   1
   7  -9  -3 825.863 357.920   1
   6  -9  -3 4774.58 846.377   1
   5  -9  -3 4635.29 827.476   1
   4  -9  -3 407.036 192.536   1
   3  -9  -3 1251.01 455.341   1
   2  -9  -3 527.538 312.911   1
   1  -9  -3 7075.08 982.151   1
   0  -9  -3 4638.67 804.101   1
  -1  -9  -3 7978.97 1043.35   1
  -2  -9  -3 6282.29 941.868   1
  -3  -9  -3 3342.00 728.452   1
  -4  -9  -3 3828.01 749.835   1
  -5  -9  -3 103.129 171.565   1
  -6  -9  -3 284.665 220.101   1
   2 -10  -3 769.052 472.960   1
   1 -10  -3 3131.82 701.638   1
   0 -10  -3 3257.80 710.728   1
  -1 -10  -3 29.2687 228.764   1
  -2 -10  -3 172.207 131.840   1
  15   0  -4 271.389 272.075   2
  14   0  -4 16459.3 1626.48   2
  13   0  -4 20538.4 1739.73   2
  12   0  -4 888.802 427.455   2
  11   0  -4 3967.22 710.695   2
  10   0  -4 152.784 148.807   2
   9   0  -4 33674.9 1868.99   2
   8   0  -4 12169.1 1068.33   2
  -8   0   4 12257.5 1057.80   1
   7   0  -4 12071.3 1002.28   2
  -7   0   4 12426.9 998.070   1
   6   0  -4 24632.6 1340.29   2
  -6   0   4 26164.6 1344.23   1
  -5   0   4 180839. 3335.03   1
  -4   0   4 639.484 192.214   1
   4   0  -4 452.892 181.382   1
  -3   0   4 190961. 2972.85   1
   3   0  -4 181922. 2932.85   1
  -2   0   4 109.162 84.5387   1
   2   0  -4 319.987 154.305   1
   1   0  -4 12105.6 688.815   1
  -1   0   4 12561.7 684.511   1
   0   0   4 10775.3 646.442   1
   0   0  -4 9804.22 617.217   1
  -1   0  -4 196583. 2889.68   1
   1   0   4 194676. 2855.47   1
  -2   0  -4 104439. 2177.41   1
  -3   0  -4 223003. 2485.96   2
  -3   0  -4 215130. 3354.48   1
  -4   0  -4 14635.9 702.395   2
  -4   0  -4 14895.7 962.116   1
  -5   0  -4 2111.79 398.461   1
  -5   0  -4 1919.43 274.362   2
  -6   0  -4 16963.8 899.623   2
  -6   0  -4 22554.6 1372.47   1
  -7   0  -4 14577.5 905.864   2
  -8   0  -4 950.181 258.024   2
   8   0   4 808.438 236.190   2
   9   0   4 1959.30 371.326   2
  -9   0  -4 2612.10 445.662   2
  10   0   4 14881.6 1101.95   2
  11   0   4 264.077 196.814   2
  12   0   4 896.138 303.149   2
  15   1  -4 3283.11 766.691   2
  15  -1  -4 3029.47 737.259   2
  14   1  -4 1599.10 633.532   2
  14  -1  -4 1894.19 590.699   2
  13   1  -4 680.996 454.651   2
  13  -1  -4 677.889 404.114   2
  12  -1  -4 10694.3 1206.95   2
  12   1  -4 11844.7 1303.36   2
  11  -1  -4 8073.72 1004.39   2
  11   1  -4 9368.29 1089.25   2
  10   1  -4 36963.5 2062.04   2
  10  -1  -4 37128.3 2056.69   2
   9  -1  -4 73425.9 2755.92   2
   9   1  -4 73204.2 2745.18   2
   8  -1  -4 2354.85 480.020   2
  -8  -1   4 1731.51 400.618   1
  -7  -1   4 49103.4 1937.20   1
   7  -1  -4 51051.8 2065.77   2
  -7   1   4 51294.5 2076.26   1
  -6   1   4 110057. 2885.12   1
   6  -1  -4 106635. 2835.34   2
  -6  -1   4 109332. 2684.79   1
  -5   1   4 38356.5 1588.42   1
   5  -1  -4 38858.7 1575.85   2
  -5  -1   4 38481.8 1459.28   1
  -4   1   4 10508.9 786.009   1
   4  -1  -4 10846.8 768.871   2
  -4  -1   4 11384.0 739.040   1
   3  -1  -4 41480.3 1512.65   1
  -3   1   4 43036.6 1523.54   1
  -3  -1   4 40684.7 1248.31   1
   3  -1  -4 40988.8 1373.34   2
   3   1  -4 42147.1 1302.39   1
   2  -1  -4 21546.4 1050.89   1
   2  -1  -4 22296.3 909.769   2
  -2  -1   4 22962.8 860.627   1
  -2   1   4 21647.3 1060.11   1
   2   1  -4 21107.8 847.171   1
  -1  -1   4 59.1635 62.2683   1
  -1   1   4 28.1394 85.8903   1
   1   1  -4 115.048 93.4574   1
   1  -1  -4-91.9283 98.1464   1
   0  -1   4 614.779 137.607   1
   0   1  -4 627.468 148.818   1
   0   1   4 317.780 150.314   1
   0  -1  -4 611.096 158.355   1
  -1   1  -4 161653. 2256.11   1
   1   1   4 155384. 2794.58   1
  -1  -1  -4 153137. 2795.59   1
  -2  -1  -4 8977.29 707.958   1
  -2   1  -4 9976.83 603.405   1
   2   1   4 10308.6 759.837   1
  -3   1  -4 82360.5 1916.74   1
  -3  -1  -4 79740.9 2208.45   1
  -3   1  -4 81679.6 1885.10   2
  -4   1  -4 43411.2 1410.54   2
  -4  -1  -4 43120.1 854.632   2
  -4  -1  -4 42806.1 1716.79   1
  -4   1  -4 44982.8 1549.59   1
  -5  -1  -4 820.863 250.801   1
  -5   1  -4 474.119 187.984   1
  -5   1  -4 839.916 224.254   2
  -6   1  -4 25111.0 1233.54   2
  -6  -1  -4 28178.8 1581.08   1
   7   1   4 2153.83 300.069   2
  -7   1  -4 1911.59 354.500   2
  -7  -1  -4 2228.05 479.378   1
  -8   1  -4 16671.3 1132.18   2
   8   1   4 17371.0 938.422   2
  -8  -1  -4 15850.1 1358.54   1
  -9   1  -4 558.088 237.619   2
   9   1   4 361.437 168.917   2
  -9  -1  -4 332.983 227.280   1
  10   1   4 2139.49 383.705   2
 -10  -1  -4 2447.22 597.977   1
 -11  -1  -4 7244.62 1081.33   1
  11   1   4 5751.49 667.936   2
 -12  -1  -4 654.348 408.012   1
 -13  -1  -4 2999.91 789.293   1
  15   2  -4 2249.25 672.486   2
  14   2  -4 822.599 402.192   2
  14  -2  -4 1628.45 535.429   2
  13   2  -4 665.498 354.117   2
  13  -2  -4 73.5644 182.229   2
  12  -2  -4 12899.7 1367.93   2
  12   2  -4 10934.0 1239.76   2
  11   2  -4 3896.45 715.297   2
  11  -2  -4 3536.69 696.539   2
  10  -2  -4 14189.0 1301.46   2
  10   2  -4 13447.0 1253.10   2
   9  -2  -4 2857.92 560.541   2
   8  -2  -4 12419.6 1099.79   2
  -8  -2   4 13763.4 1106.04   1
   7  -2  -4 1687.99 405.143   2
  -7  -2   4 2050.66 387.349   1
  -7   2   4 1653.02 453.994   1
  -6   2   4 10095.7 907.136   1
   6  -2  -4 9479.65 852.552   2
  -6  -2   4 9597.57 777.007   1
  -5   2   4 20721.0 1239.29   1
   5  -2  -4 22430.7 1209.44   2
  -5  -2   4 21542.8 1059.04   1
   4  -2  -4 128540. 2680.33   2
  -4   2   4 129339. 2957.73   1
  -4  -2   4 130441. 2348.29   1
  -3  -2   4 15034.3 707.871   1
   3  -2  -4 13700.5 799.984   2
  -3   2   4 13924.6 943.278   1
  -2  -2   4 13381.8 562.175   1
   2  -2  -4 12872.4 699.567   2
  -2   2   4 12349.1 853.301   1
  -1  -2   4 50.2687 40.5685   1
  -1   2   4 97.4964 97.1799   1
   1  -2  -4 123.946 109.809   2
   1   2  -4 80.8569 62.2636   1
   0   2   4 43392.1 1581.49   1
   0  -2  -4 42425.2 883.695   2
   0  -2   4 45917.9 886.311   1
   0   2  -4 43569.5 873.790   1
  -1   2  -4 7669.53 396.239   1
   1   2   4 7388.76 670.391   1
  -2   2  -4 8671.97 487.804   1
   2   2   4 8535.92 751.977   1
  -3   2  -4 98018.1 1905.65   1
  -3   2  -4 100061. 2380.21   2
  -4  -2  -4 40218.4 1753.51   1
  -4   2  -4 41673.3 1416.14   1
  -5  -2  -4 2400.15 458.444   1
  -5   2  -4 1908.24 358.311   2
  -6   2  -4 1703.51 361.582   2
  -6  -2  -4 1887.46 428.089   1
  -7  -2  -4 2525.49 500.418   1
   7   2   4 1930.55 241.719   2
  -7   2  -4 2459.53 459.874   2
   8   2   4 60.3274 77.5660   2
  -8  -2  -4 83.4808 185.261   1
  -9  -2  -4 1088.76 414.599   1
   9   2   4 733.406 191.611   2
 -10  -2  -4 1327.31 475.054   1
  10   2   4 2325.46 367.579   2
 -11  -2  -4 929.502 403.734   1
 -12  -2  -4 228.005 239.336   1
  14  -3  -4 7138.67 1151.34   2
  14   3  -4 6268.00 1039.90   2
  13   3  -4 712.248 411.065   2
  13  -3  -4 850.838 382.211   2
  12   3  -4-135.101 290.557   2
  12  -3  -4-197.899 268.343   2
  11  -3  -4 6500.57 950.455   2
  10  -3  -4 19146.8 1549.58   2
   9  -3  -4 7685.48 936.997   2
   8  -3  -4 35183.9 1909.94   2
   7  -3  -4 20927.7 1392.11   2
   7  -3  -4 21537.8 1472.93   1
  -6   3   4 121941. 3271.76   1
   6  -3  -4 120935. 3138.97   2
   6  -3  -4 121321. 3336.34   1
  -5   3   4 168.939 105.352   2
  -5   3   4 264.596 109.190   1
   5  -3  -4 50.7649 122.332   2
  -5  -3   4 256.312 131.835   1
  -4   3   4 8654.82 819.316   1
   4  -3  -4 8585.68 732.675   2
  -4  -3   4 9264.13 603.625   1
  -3   3   4 258.429 144.297   2
   3  -3  -4 93.5124 136.408   2
  -3   3   4-16.4828 113.590   1
  -3  -3   4 80.1354 62.6783   1
   2  -3  -4 232945. 3171.29   2
  -2   3   4 245578. 3306.62   2
  -2   3   4 242182. 4060.87   1
  -2  -3   4 234422. 1952.92   1
  -1   3   4 67517.7 1536.52   2
   1  -3  -4 66378.8 1510.90   2
  -1   3   4 65994.8 2126.11   1
   0   3   4 6636.66 414.088   2
   0   3   4 6520.36 670.602   1
   1   3   4 53535.1 1970.71   1
  -2   3  -4 20786.9 586.192   1
   2   3   4 20880.2 1274.92   1
  -3   3  -4 5770.73 658.341   2
  -3   3  -4 6796.74 435.129   1
  -4   3  -4 3616.00 543.704   2
  -4  -3  -4 5234.00 675.263   1
  -5   3  -4 26074.5 1453.53   2
  -5  -3  -4 35174.3 1839.85   1
  -6  -3  -4 6510.21 822.501   1
   7   3   4 13588.7 527.127   2
  -7  -3  -4 14899.6 1293.65   1
   8   3   4 343.996 106.832   2
  -8  -3  -4 67.8471 159.773   1
  -9  -3  -4 199.574 216.929   1
   9   3   4 439.374 135.508   2
 -10  -3  -4-478.224 313.656   1
 -11  -3  -4 460.178 299.195   1
 -12  -3  -4-936.644 441.524   1
  14   4  -4 576.354 349.095   2
  13   4  -4 1855.00 546.805   2
  13  -4  -4 2474.35 646.679   2
  12  -4  -4 5564.12 930.956   2
  11  -4  -4 503.575 336.862   2
  10  -4  -4 1004.87 388.803   2
   9  -4  -4 34737.7 2036.22   2
   8  -4  -4 61186.8 2570.57   2
   7  -4  -4 13571.1 1163.93   2
   7  -4  -4 13095.9 1216.23   1
   6  -4  -4 767.997 296.423   2
   6  -4  -4 918.187 357.815   1
   5  -4  -4 26047.5 1435.82   2
  -5   4   4 23445.4 1409.62   2
   4  -4  -4 77886.9 2636.22   1
  -4   4   4 86072.9 2530.05   2
  -4   4   4 80852.2 2631.78   1
   4  -4  -4 76701.0 2319.40   2
  -4  -4   4 81837.4 1781.79   1
   3  -4  -4 14003.7 1089.42   1
   3  -4  -4 15438.9 987.995   2
  -3   4   4 16244.6 1150.16   1
  -3  -4   4 15492.8 624.470   1
  -2   4   4 144.756 131.153   1
   2  -4  -4 70.2926 139.981   1
   2  -4  -4 89.5525 85.5024   2
  -1   4   4 580.694 193.189   2
  -1   4   4 484.252 203.595   1
   0   4   4 64439.2 1532.39   2
   0   4   4 65841.6 2307.82   1
   1   4   4 3348.88 307.373   2
  -1  -4  -4 3273.50 511.896   1
   1   4   4 3810.52 572.674   1
  -2  -4  -4 179.670 104.419   1
   2   4   4 637.173 111.381   2
  -3  -4  -4 46638.6 2079.70   1
  -3   4  -4 47374.4 937.308   1
  -3   4  -4 42635.7 907.917   1
  -4  -4  -4 3811.20 603.296   1
  -4   4  -4 3938.79 363.559   1
  -5   4  -4 2095.20 309.806   1
  -5  -4  -4 1888.41 474.043   1
  -6  -4  -4 7692.70 933.158   1
  -6   4  -4 7320.61 651.348   1
  -7  -4  -4 13534.1 1300.74   1
  -7   4  -4 14007.6 993.363   1
  -8  -4  -4 2527.08 583.595   1
  -8   4  -4 1887.20 402.287   1
  -9  -4  -4 1089.15 404.351   1
 -10  -4  -4 5155.28 906.286   1
 -11  -4  -4 3433.18 778.481   1
  12  -5  -4 1867.21 542.378   2
  11  -5  -4 2577.29 623.519   2
  10  -5  -4 2.37286 165.666   2
   9  -5  -4 5248.68 840.232   2
   8  -5  -4 348.655 225.647   2
   8  -5  -4 100.461 160.124   1
   7  -5  -4 4575.22 711.816   2
   7  -5  -4 5598.63 819.476   1
   6  -5  -4 7849.47 905.715   2
   6  -5  -4 7066.99 887.454   1
   5  -5  -4 863.258 290.388   2
   5  -5  -4 634.967 326.560   1
   4  -5  -4 5522.67 756.638   1
  -4   5   4 4747.70 635.756   2
   4  -5  -4 6016.27 698.256   2
  -4  -5   4 6263.65 465.637   1
   3  -5  -4 1088.21 348.775   1
  -3  -5   4 1771.26 196.558   1
   3  -5  -4 1777.70 358.782   2
  -3  -5   4 1748.89 204.567   1
  -3   5   4 1739.96 375.628   2
   2  -5  -4 19655.3 1352.73   1
   1  -5  -4 5754.69 735.357   1
  -1   5   4 897.256 226.326   2
   0   5   4 1283.43 300.310   2
   0  -5  -4 2409.27 495.252   1
  -1  -5  -4 67171.6 2519.84   1
   1   5   4 69732.6 1721.54   2
   2   5   4 6069.67 462.055   2
  -2  -5  -4 5109.76 706.034   1
  -3  -5  -4 3650.65 624.192   1
   3   5   4 3330.43 309.756   2
  -4  -5  -4 16463.6 1353.09   1
  -4   5  -4 17746.4 648.428   1
  -5   5  -4 7048.21 516.218   1
   5   5   4 7803.49 390.797   2
  -6   5  -4 97.6644 80.8897   1
  -6  -5  -4 255.555 160.159   1
  -7  -5  -4 143.098 166.746   1
  -8  -5  -4 1492.71 495.507   1
  -9  -5  -4 417.173 334.052   1
 -10  -5  -4-68.5457 151.838   1
  11  -6  -4 3984.69 857.632   2
  10  -6  -4 7538.01 1106.62   2
   9  -6  -4 16054.3 1530.14   2
   8  -6  -4 815.672 323.161   1
   8  -6  -4 952.747 397.052   2
  -8  -6   4 940.031 298.993   1
   7  -6  -4 13448.2 1296.55   2
  -7  -6   4 13653.8 1019.58   1
   7  -6  -4 13068.8 1310.98   1
   6  -6  -4 6152.66 848.122   2
   6  -6  -4 6593.82 919.000   1
   5  -6  -4 31859.3 1854.12   2
   5  -6  -4 32972.9 1959.27   1
   4  -6  -4 235.462 177.118   1
  -4  -6   4 339.682 110.933   1
   3  -6  -4 24638.8 1619.56   1
  -3  -6   4 23982.1 687.176   1
  -3   6   4 26556.6 1538.14   2
   2  -6  -4 17422.6 1371.55   1
  -2   6   4 13825.5 1060.15   2
   1  -6  -4 16207.0 1305.10   1
  -1   6   4 12538.3 956.741   2
   0  -6  -4 3981.10 683.586   1
  -1  -6  -4 9012.47 1000.79   1
   1   6   4 176.506 101.363   2
   2   6   4 2506.22 354.587   2
  -2  -6  -4 3398.12 601.381   1
   3   6   4 4883.83 461.054   2
  -3  -6  -4 5210.64 783.853   1
  -4  -6  -4 2692.77 576.363   1
  -5  -6  -4 5289.25 843.713   1
  -6  -6  -4 14541.9 1427.51   1
  -7  -6  -4 643.327 325.517   1
  -8  -6  -4 150.506 219.919   1
  -9  -6  -4-11.2876 272.935   1
  10  -7  -4 1688.80 519.263   2
   9  -7  -4 4494.37 866.113   2
   8  -7  -4 453.426 296.403   1
  -8  -7   4 423.197 240.568   1
   8  -7  -4 538.296 243.325   2
  -7  -7   4 7285.32 738.751   1
   7  -7  -4 7079.33 1014.42   1
   6  -7  -4 1726.88 513.459   1
   5  -7  -4 20269.1 1628.52   1
   4  -7  -4-272.005 223.744   1
   3  -7  -4 6818.64 914.293   1
   2  -7  -4 253.020 239.750   1
   1  -7  -4 23572.4 1674.87   1
   0  -7  -4 10196.3 1143.34   1
  -1  -7  -4 9406.17 1072.05   1
  -2  -7  -4 740.311 362.222   1
  -3  -7  -4 7349.70 975.363   1
  -4  -7  -4 16897.8 1515.19   1
  -5  -7  -4-66.9060 240.668   1
  -6  -7  -4 2657.29 645.362   1
  -7  -7  -4 431.259 276.245   1
  -8  -7  -4 10859.8 1369.52   1
   8  -8  -4 1537.62 549.155   1
   7  -8  -4 3370.68 749.428   1
   6  -8  -4 1094.60 417.449   1
   5  -8  -4 65.0939 162.406   1
   4  -8  -4 385.085 224.435   1
   3  -8  -4 9338.24 1137.89   1
   2  -8  -4 2885.41 628.919   1
   1  -8  -4 1512.64 454.314   1
   0  -8  -4 4115.53 742.142   1
  -1  -8  -4 448.316 261.749   1
  -2  -8  -4 2734.12 638.373   1
  -3  -8  -4 683.471 355.777   1
  -4  -8  -4 3328.30 693.028   1
  -5  -8  -4-334.616 252.798   1
  -6  -8  -4 3688.98 775.169   1
   7  -9  -4 749.446 400.951   1
   6  -9  -4 7139.04 1116.15   1
   5  -9  -4 97.9339 165.722   1
   4  -9  -4 525.259 227.308   1
   3  -9  -4 279.524 248.784   1
   2  -9  -4 8435.15 1127.25   1
   1  -9  -4-66.6693 238.587   1
   0  -9  -4 199.258 207.675   1
  -1  -9  -4 854.008 398.950   1
  -2  -9  -4 6194.97 977.656   1
  -3  -9  -4 1649.82 507.621   1
  -4  -9  -4 141.494 188.259   1
   2 -10  -4 4050.46 829.650   1
   1 -10  -4 1855.72 553.823   1
   0 -10  -4 16642.8 1658.86   1
  -1 -10  -4 3260.97 733.888   1
  14   0  -5 491.860 316.848   2
  13   0  -5 115.137 328.002   2
  12   0  -5-677.951 347.524   2
  11   0  -5 28.6240 150.236   2
  10   0  -5 206.984 181.745   2
   9   0  -5 137.402 126.534   2
   8   0  -5-159.261 118.525   2
  -7   0   5-473.090 222.436   1
   7   0  -5-47.8853 137.423   2
  -6   0   5 361.973 214.921   1
  -5   0   5 67.4798 130.667   1
   5   0  -5 175.854 180.501   1
  -4   0   5 108.608 119.992   1
   4   0  -5-107.634 133.016   1
   3   0  -5-45.0991 135.940   1
  -3   0   5-79.8150 110.840   1
   2   0  -5 256.089 160.358   1
  -2   0   5-46.5897 84.7984   1
  -1   0   5-27.6497 91.1663   1
   1   0  -5 79.1070 80.5808   1
   0   0   5-63.7140 100.469   1
   0   0  -5-55.2184 80.8173   1
  -1   0  -5 69.1712 82.9228   1
   1   0   5-62.5525 105.742   1
  -2   0  -5 66.1248 132.104   1
  -3   0  -5 153.602 71.6358   2
  -3   0  -5 293.083 189.327   1
  -4   0  -5-110.711 129.043   1
  -4   0  -5 12.3891 59.0773   2
  -5   0  -5-11.8764 59.3942   2
  -5   0  -5-12.8444 121.196   1
  -6   0  -5-226.612 116.327   2
  -6   0  -5 103.282 119.062   1
  -7   0  -5-39.6979 104.897   2
  -7   0  -5-81.1436 165.729   1
  -8   0  -5 227.311 185.230   2
  -8   0  -5-53.0946 163.975   1
  -9   0  -5-247.098 160.894   1
 -10   0  -5-286.965 234.427   1
 -11   0  -5 64.7606 226.557   1
 -12   0  -5-113.364 199.918   1
  14   1  -5 801.868 451.808   2
  14  -1  -5 1265.00 560.337   2
  13   1  -5 3535.53 753.739   2
  13  -1  -5 4326.74 859.716   2
  12   1  -5 3235.93 698.805   2
  12  -1  -5 2208.95 569.147   2
  11   1  -5 2129.79 552.926   2
  11  -1  -5 2045.14 536.721   2
  10  -1  -5 14673.6 1337.00   2
  10   1  -5 14152.9 1318.87   2
   9   1  -5 7538.67 920.811   2
   9  -1  -5 8151.79 946.582   2
   8  -1  -5 16578.9 1298.45   2
  -8  -1   5 17541.6 1256.34   1
  -7   1   5 48402.4 2080.03   1
   7  -1  -5 47621.8 2081.66   2
  -7  -1   5 47823.6 1949.20   1
   6  -1  -5 32410.2 1602.62   2
  -6   1   5 30785.0 1587.92   1
   6  -1  -5 30999.9 1627.55   1
  -6  -1   5 34361.0 1556.32   1
  -5  -1   5 11939.5 848.141   1
   5  -1  -5 12433.9 928.739   2
  -5   1   5 11586.9 929.050   1
   5  -1  -5 10962.4 929.145   1
  -4  -1   5 2698.33 383.645   1
  -4   1   5 3154.25 464.012   1
   4   1  -5 3199.77 430.319   1
   4  -1  -5 2923.11 415.979   2
   4  -1  -5 2586.95 426.278   1
   3  -1  -5 32339.3 1452.44   1
   3  -1  -5 32106.8 1279.87   2
  -3   1   5 32352.2 1429.78   1
   3   1  -5 31010.7 1213.69   1
  -3  -1   5 31675.5 1206.16   1
   2  -1  -5 54990.3 1532.71   2
   2  -1  -5 52937.4 1830.65   1
  -2  -1   5 56855.5 1497.78   1
  -2   1   5 55975.9 1814.72   1
   2   1  -5 54366.9 1529.85   1
   1   1  -5 39896.8 1259.89   1
   1  -1  -5 41065.9 1567.02   1
  -1   1   5 41119.8 1558.84   1
  -1  -1   5 39100.2 1223.22   1
   0   1  -5 20111.7 888.950   1
   0   1   5 20552.1 1104.99   1
   0  -1   5 20142.7 873.649   1
   0  -1  -5 22382.0 1150.19   1
  -1  -1  -5 1674.97 332.942   1
   1  -1   5 1856.37 288.177   1
   1   1   5 1802.52 340.061   1
  -1   1  -5 1432.25 238.285   1
  -2  -1  -5 37990.8 721.758   2
  -2  -1  -5 41442.2 1657.43   1
  -2   1  -5 42330.8 1395.99   1
   2   1   5 42346.2 1692.20   1
  -3  -1  -5 24618.2 531.325   2
  -3   1  -5 25555.4 1107.64   2
  -3  -1  -5 28153.5 1405.71   1
  -3   1  -5 28761.0 1233.52   1
  -4  -1  -5 6402.66 306.683   2
  -4  -1  -5 7837.26 785.150   1
  -4   1  -5 8413.98 715.376   1
  -4   1  -5 5998.46 554.313   2
  -5  -1  -5 189.386 100.881   1
  -5   1  -5 110.869 104.984   2
  -5   1  -5 207.510 152.041   1
  -6   1  -5 5266.15 573.715   2
  -6  -1  -5 5951.44 766.684   1
  -6   1  -5 6257.53 719.010   1
  -7   1  -5 11793.8 906.859   2
  -7  -1  -5 12607.7 1156.05   1
  -7   1  -5 11376.0 1013.30   1
  -8   1  -5 4879.71 614.998   2
  -8  -1  -5 3933.17 707.659   1
  -8   1  -5 4279.43 695.315   1
  -9  -1  -5 433.850 223.694   1
  -9   1  -5 1399.53 428.705   1
 -10  -1  -5-328.662 255.317   1
 -10   1  -5 262.083 258.880   1
 -11  -1  -5 2418.26 650.146   1
 -11   1  -5 1840.95 532.034   1
 -12   1  -5 3460.99 761.301   1
 -12  -1  -5 2584.44 725.366   1
 -13   1  -5 1185.03 480.891   1
  14  -2  -5 14060.7 1575.51   2
  14   2  -5 14182.6 1593.11   2
  13   2  -5 17426.6 1675.07   2
  13  -2  -5 18254.1 1697.83   2
  12   2  -5 22.3077 157.374   2
  12  -2  -5 236.245 160.207   2
  11   2  -5-224.453 283.142   2
  11  -2  -5-5.62050 140.972   2
  10  -2  -5 330.528 200.539   2
   9  -2  -5 12398.8 1175.30   2
   8  -2  -5 46899.1 2167.72   2
  -8  -2   5 48645.9 2080.04   1
   7  -2  -5 3422.45 560.266   2
   7  -2  -5 2766.60 542.599   1
  -7  -2   5 3584.05 526.681   1
  -6   2   5 6229.98 743.741   1
   6  -2  -5 5485.96 667.890   2
   6  -2  -5 6258.52 775.081   1
  -6  -2   5 6109.74 629.250   1
   5  -2  -5 48191.9 1836.62   2
  -5   2   5 50724.7 2031.56   1
   5  -2  -5 47824.7 2005.25   1
  -5  -2   5 48883.0 1666.36   1
  -4  -2   5 75201.5 1848.20   1
   4  -2  -5 72904.5 2108.32   2
  -4   2   5 76986.2 2435.91   1
   4  -2  -5 72280.1 2415.49   1
   3  -2  -5 11863.2 938.322   1
  -3  -2   5 12297.4 676.708   1
  -3   2   5 12098.0 936.529   1
   3  -2  -5 11564.2 770.228   2
  -2   2   5-75.1261 129.417   1
   2  -2  -5-20.2225 135.442   1
   2  -2  -5-11.5248 58.8390   2
   2   2  -5 59.5602 95.5277   1
  -2  -2   5 120.683 81.2005   1
   1  -2  -5 4543.61 375.993   2
   1  -2  -5 4635.03 574.614   1
  -1   2   5 4523.84 573.625   1
  -1  -2   5 4851.14 350.961   1
   1   2  -5 5396.32 393.969   1
   0   2  -5 47866.3 1142.37   1
   0  -2  -5 46302.2 988.401   2
   0  -2  -5 45525.9 1787.82   1
   0   2   5 49720.8 1847.95   1
   0  -2   5 49946.4 1142.01   1
  -1   2  -5 148326. 2086.29   1
   1   2   5 143957. 3240.09   1
  -2   2  -5 49322.7 1318.79   1
  -2  -2  -5 45384.7 1868.53   1
   2   2   5 47408.8 1914.68   1
  -3   2  -5 6913.74 674.056   2
  -3  -2  -5 7500.74 782.691   1
  -3   2  -5 8471.02 604.444   1
  -4  -2  -5 18375.8 1272.13   1
  -4   2  -5 21069.7 1052.12   1
  -5   2  -5 1846.83 351.759   1
  -5   2  -5 1314.31 311.001   2
  -6   2  -5 9469.17 858.079   2
  -6  -2  -5 8556.39 949.238   1
  -6   2  -5 8972.59 813.095   1
  -7   2  -5 6086.17 721.086   2
  -7  -2  -5 5415.21 792.488   1
  -7   2  -5 6559.47 758.160   1
  -8  -2  -5 209.978 193.859   1
  -8   2  -5 336.623 228.718   1
  -9  -2  -5 7687.96 1042.27   1
 -10  -2  -5 4249.91 813.722   1
 -11  -2  -5 1248.79 462.862   1
 -12  -2  -5 777.429 404.559   1
 -13   2  -5 2293.78 647.672   1
  14   3  -5 507.228 383.670   2
  13   3  -5 115.266 212.062   2
  13  -3  -5 496.547 308.104   2
  12   3  -5-233.672 307.436   2
  12  -3  -5 71.7231 255.977   2
  11  -3  -5-145.381 192.379   2
  10  -3  -5 74.3481 168.187   2
   9  -3  -5 317.158 205.738   2
   8  -3  -5 5160.14 746.385   2
   8  -3  -5 5384.68 816.842   1
  -8  -3   5 4709.85 645.273   1
   7  -3  -5 6488.72 790.841   2
   7  -3  -5 5745.02 801.592   1
  -7  -3   5 6395.83 682.475   1
   6  -3  -5 5883.81 710.179   2
   6  -3  -5 5637.50 761.547   1
  -6  -3   5 5804.16 609.054   1
   5  -3  -5 3307.15 495.822   2
  -5  -3   5 4143.41 464.524   1
   5  -3  -5 3686.52 592.794   1
   4  -3  -5 6920.74 796.055   1
  -4  -3   5 6803.65 526.177   1
  -4   3   5 7159.87 789.240   1
   4  -3  -5 7462.37 699.107   2
   3  -3  -5 27235.7 1225.37   2
  -3   3   5 27801.5 1508.62   1
   3  -3  -5 25245.1 1452.97   1
  -3  -3   5 26492.7 881.854   1
  -2  -3   5 1173.56 149.184   1
   2  -3  -5 1083.85 223.489   2
  -2   3   5 1195.29 318.905   1
   1  -3  -5 2813.99 310.466   2
  -1   3   5 2995.57 491.584   1
  -1  -3   5 2684.30 172.652   1
   0  -3  -5 18673.7 1227.93   1
   0   3   5 19615.6 1255.96   1
   0  -3  -5 18990.5 656.893   2
  -1   3  -5 14289.1 440.746   1
  -1  -3  -5 14778.5 1112.24   1
   1   3   5 16743.8 1192.66   1
  -2   3  -5 16692.6 603.046   1
  -2  -3  -5 15901.7 1180.32   1
  -3   3  -5 3602.67 533.090   2
  -3  -3  -5 3962.50 601.493   1
  -3   3  -5 4026.89 356.363   1
  -4   3  -5 2709.12 345.364   1
  -4  -3  -5 2625.50 519.587   1
  -4   3  -5 1803.07 388.716   2
  -5   3  -5 1084.20 242.942   1
  -5   3  -5 1167.92 334.289   2
  -5  -3  -5 856.292 318.692   1
  -6  -3  -5 956.896 365.261   1
  -6   3  -5 457.423 176.508   1
  -7   3  -5 124.761 150.034   1
  -7  -3  -5-62.1021 225.490   1
  -8  -3  -5 837.542 338.244   1
  -9  -3  -5 2755.57 693.009   1
 -10  -3  -5-566.189 335.807   1
 -11  -3  -5 1689.04 509.361   1
  13  -4  -5 1401.97 467.124   2
  13   4  -5 1308.26 457.111   2
  12  -4  -5 5875.62 976.077   2
  11  -4  -5 1835.97 525.999   2
  10  -4  -5 20449.3 1666.16   2
   9  -4  -5 8340.91 1010.88   2
   8  -4  -5 2189.63 525.190   2
   8  -4  -5 2231.77 561.721   1
  -8  -4   5 2616.27 486.498   1
   7  -4  -5 26549.7 1644.09   2
   7  -4  -5 28194.2 1827.60   1
   6  -4  -5 2127.63 446.309   2
  -6  -4   5 1466.69 308.750   1
   6  -4  -5 2325.40 540.663   1
  -5   4   5 10125.0 939.423   2
   5  -4  -5 11536.2 964.704   2
  -5  -4   5 13004.3 788.610   1
   5  -4  -5 11785.3 1116.26   1
   4  -4  -5 33974.0 1834.98   1
  -4   4   5 38283.7 1707.10   2
   4  -4  -5 33121.2 1517.09   2
  -4  -4   5 37551.8 1141.78   1
   3  -4  -5 15445.1 1226.49   1
  -3  -4   5 14638.8 537.286   1
   3  -4  -5 16449.2 1007.05   2
   2  -4  -5 449.842 240.943   1
  -2   4   5 634.953 183.846   2
   2  -4  -5 618.445 195.606   2
  -1   4   5 356.033 127.159   2
   1  -4  -5 326.848 182.278   1
   1  -4  -5 489.079 165.642   2
   0  -4  -5 114.028 107.795   1
  -1  -4  -5 1866.68 426.992   1
  -2  -4  -5 1259.44 375.103   1
  -3   4  -5 1240.04 142.884   1
  -3   4  -5 1148.75 145.479   1
  -4  -4  -5 18200.3 1419.21   1
  -4   4  -5 18806.8 752.719   1
  -4   4  -5 18509.3 774.351   1
  -5  -4  -5 31566.5 1923.45   1
  -5   4  -5 34209.5 1229.54   1
  -6   4  -5 1009.02 265.750   1
  -6  -4  -5 982.186 406.105   1
  -7  -4  -5 249.570 180.518   1
  -8  -4  -5 61.4330 188.633   1
  -9  -4  -5 984.698 419.990   1
 -10  -4  -5 11152.1 1380.32   1
  12  -5  -5 15949.7 1643.80   2
  11  -5  -5 12038.0 1373.86   2
  10  -5  -5 7491.28 1041.14   2
   9  -5  -5 3206.60 653.254   2
   8  -5  -5 821.186 301.196   2
   8  -5  -5 1785.85 550.089   1
  -8  -5   5 2045.64 454.625   1
   7  -5  -5 9417.34 1026.17   2
  -7  -5   5 9094.31 814.871   1
   7  -5  -5 9086.55 1078.54   1
   6  -5  -5 33503.5 1848.38   2
   6  -5  -5 33019.4 2013.77   1
   5  -5  -5 21466.2 1413.62   2
   5  -5  -5 19442.0 1524.46   1
   4  -5  -5 13951.4 1254.27   1
  -4   5   5 11397.8 995.896   2
   4  -5  -5 14935.6 1114.47   2
  -4  -5   5 15444.6 647.405   1
  -4  -5   5 10269.1 543.480   1
   3  -5  -5 8098.35 938.880   1
  -3   5   5 9285.11 845.084   2
   3  -5  -5 8730.98 797.237   2
   2  -5  -5 17288.1 1354.46   1
  -1   5   5 20485.8 1068.73   2
   1  -5  -5 21432.7 1509.77   1
   0  -5  -5 3288.20 578.711   1
   0   5   5 3476.21 400.765   2
  -1  -5  -5 6023.58 831.211   1
   1   5   5 5867.97 443.400   2
   2   5   5 12267.2 492.920   2
  -2  -5  -5 19169.3 1453.24   1
  -3  -5  -5 50016.6 2392.17   1
  -4  -5  -5 9048.00 1061.15   1
  -5  -5  -5 544.961 271.977   1
  -5   5  -5 173.020 76.0995   1
  -6  -5  -5 1355.51 438.191   1
  -6   5  -5 1699.78 287.324   1
  -7  -5  -5 5587.76 919.340   1
  -8  -5  -5 9684.36 1243.86   1
  -9  -5  -5 1414.37 483.185   1
  11  -6  -5 326.379 266.460   2
  10  -6  -5 7109.58 1067.43   2
   9  -6  -5 14814.1 1489.24   2
   8  -6  -5 5887.79 900.803   2
   8  -6  -5 7304.44 1059.99   1
   7  -6  -5 3200.24 619.870   2
   7  -6  -5 3411.39 702.192   1
  -6  -6   5-12.7817 49.5875   1
   6  -6  -5 147.125 156.288   2
   6  -6  -5 160.811 135.459   1
   5  -6  -5 81.8767 201.919   1
  -5  -6   5 47.6875 67.1374   1
   4  -6  -5 13559.7 1309.87   1
  -4  -6   5 14352.6 513.714   1
   3  -6  -5 16072.2 1379.97   1
  -3   6   5 19290.8 1290.35   2
   2  -6  -5 716.250 301.194   1
  -2   6   5 1365.60 345.344   2
   1  -6  -5-27.9806 275.110   1
   0   6   5 168.532 100.418   2
   0  -6  -5 1108.49 369.177   1
   1   6   5 583.468 173.289   2
  -1  -6  -5 519.005 298.083   1
  -2  -6  -5 256.822 252.996   1
  -3  -6  -5 2481.15 579.541   1
  -4  -6  -5 3040.73 639.201   1
  -5  -6  -5 17765.8 1598.83   1
  -6  -6  -5 2311.11 572.997   1
  -7  -6  -5 675.699 396.935   1
  -8  -6  -5 470.496 258.167   1
  10  -7  -5-280.180 247.243   2
   9  -7  -5-14.7875 145.719   2
   8  -7  -5 254.615 228.866   1
   8  -7  -5 104.150 163.407   2
   7  -7  -5 3813.78 733.934   2
   7  -7  -5 5274.61 933.945   1
   6  -7  -5 9000.23 1164.39   1
   5  -7  -5 31.8939 226.749   1
   4  -7  -5 380.559 291.288   1
   3  -7  -5 2918.66 647.576   1
   2  -7  -5 3664.10 729.089   1
   1  -7  -5 2695.65 623.006   1
   0  -7  -5 1432.28 495.854   1
  -1  -7  -5-29.4942 165.693   1
  -2  -7  -5 4054.37 768.393   1
  -3  -7  -5 536.689 304.576   1
  -4  -7  -5 332.406 248.157   1
  -5  -7  -5 1064.11 407.835   1
  -6  -7  -5 1485.09 495.759   1
  -7  -7  -5-239.734 241.262   1
   8  -8  -5 5135.49 988.739   1
   7  -8  -5 852.987 406.018   1
   6  -8  -5 9541.37 1252.92   1
   5  -8  -5 24380.9 1974.54   1
   4  -8  -5 1923.86 575.084   1
   3  -8  -5 196.674 176.032   1
   2  -8  -5 5933.64 906.570   1
   1  -8  -5 4149.97 887.070   1
   0  -8  -5 45872.2 2626.30   1
  -1  -8  -5 18753.6 1690.55   1
  -2  -8  -5 3088.91 664.991   1
  -3  -8  -5 1008.94 412.077   1
  -4  -8  -5 1662.99 552.428   1
  -5  -8  -5 64.6189 184.572   1
   6  -9  -5 10096.7 1330.73   1
   5  -9  -5 659.005 254.365   1
   4  -9  -5-21.2982 159.177   1
   3  -9  -5 1967.37 638.267   1
   2  -9  -5 1519.72 508.253   1
   1  -9  -5 1823.17 561.816   1
   0  -9  -5 2530.26 618.683   1
  -1  -9  -5-121.098 314.375   1
  -2  -9  -5 6049.37 1021.30   1
  14   0  -6 4660.84 919.426   2
  13   0  -6 19.0915 238.548   2
  12   0  -6 2075.46 585.678   2
  11   0  -6 43281.0 2484.89   2
  10   0  -6 9799.17 1129.13   2
   9   0  -6 17471.2 1420.67   2
   8   0  -6 55100.6 2430.37   2
   7   0  -6 6086.27 765.311   2
  -6   0   6 6248.46 721.250   1
   6   0  -6 5396.77 692.359   1
  -5   0   6 35559.1 1616.23   1
   5   0  -6 35360.9 1642.32   1
  -4   0   6 88197.6 2455.94   1
   4   0  -6 84068.9 2441.24   1
  -3   0   6 4973.53 570.180   1
   3   0  -6 4918.81 581.011   1
   2   0  -6 15284.9 980.529   1
  -2   0   6 14985.6 935.879   1
   1   0  -6 16422.9 997.670   1
  -1   0   6 16306.4 970.863   1
   0   0  -6 29606.0 1349.02   1
   0   0   6 31804.5 1355.27   1
  -1   0  -6 3829.51 473.014   1
   1   0   6 4235.80 520.941   1
  -2   0  -6 23087.6 1233.99   1
  -3   0  -6 1503.98 339.322   1
  -3   0  -6 1249.51 214.900   2
  -4   0  -6 27797.8 1027.80   2
  -4   0  -6 34881.3 1649.51   1
  -5   0  -6 6542.41 523.142   2
  -5   0  -6 6285.75 739.772   1
  -6   0  -6 1296.27 356.177   1
  -6   0  -6 1387.60 254.584   2
  -7   0  -6 16178.4 1316.21   1
  -8   0  -6 7573.23 954.879   1
  -9   0  -6 7625.22 1012.23   1
 -10   0  -6 186.109 215.602   1
 -11   0  -6 2087.30 585.937   1
 -12   0  -6 691.292 424.733   1
  14   1  -6 633.795 376.535   2
  14  -1  -6-338.936 298.650   2
  13   1  -6 3602.80 829.517   2
  13  -1  -6 3799.17 822.785   2
  12   1  -6 414.737 359.391   2
  12  -1  -6 347.653 271.410   2
  11   1  -6 843.302 372.558   2
  11  -1  -6 817.506 333.860   2
  10   1  -6 7238.85 978.297   2
  10  -1  -6 6216.15 889.878   2
   9   1  -6 20841.3 1573.21   2
   9  -1  -6 21823.9 1597.38   2
   8  -1  -6 32150.4 1865.12   2
  -7  -1   6 175.395 179.281   1
   7  -1  -6 168.209 254.777   2
   7  -1  -6 82.0463 158.347   1
   6  -1  -6 15350.2 1159.26   2
  -6  -1   6 15626.3 1088.22   1
   6  -1  -6 14947.7 1185.35   1
  -5  -1   6 1307.80 291.305   1
   5  -1  -6 1230.94 324.986   2
  -5   1   6 1790.47 395.175   1
   5  -1  -6 1092.72 319.784   1
   4  -1  -6 1096.97 308.917   1
   4  -1  -6 1378.30 317.232   2
  -4  -1   6 1254.63 289.909   1
  -4   1   6 1256.23 326.390   1
   4   1  -6 904.835 231.362   1
   3  -1  -6 1924.63 347.946   2
   3  -1  -6 1806.91 388.223   1
  -3  -1   6 1966.41 322.975   1
   3   1  -6 1667.74 320.680   1
  -3   1   6 1940.30 368.233   1
   2  -1  -6 120242. 2963.91   1
  -2  -1   6 115179. 2360.08   1
   2   1  -6 113060. 2452.07   1
   1   1  -6 2038.44 327.419   1
   1  -1  -6 1726.91 344.866   1
  -1   1   6 2352.25 393.420   1
  -1  -1   6 1934.22 299.088   1
   0   1   6 112.734 103.849   1
   0   1  -6-5.29163 108.415   1
   0  -1  -6 60.3581 184.638   1
   0  -1   6 65.2019 76.7018   1
  -1   1  -6 42158.3 1489.41   1
  -1  -1  -6 40374.1 1716.63   1
   1   1   6 42321.3 1758.80   1
   1  -1   6 43667.1 1510.32   1
  -2  -1  -6 12763.2 483.280   2
  -2   1  -6 14140.5 887.632   1
  -2  -1  -6 12383.6 967.007   1
   2   1   6 14736.0 1090.24   1
  -3  -1  -6 506.221 212.684   1
  -3   1  -6 241.076 135.571   1
  -3  -1  -6 257.560 64.6678   2
  -3   1  -6 321.187 122.695   2
  -4  -1  -6 21354.5 503.456   2
  -4   1  -6 25380.6 1189.42   2
  -4  -1  -6 26376.7 1528.87   1
  -4   1  -6 25906.0 1343.65   1
  -5   1  -6 8538.64 717.978   2
  -5  -1  -6 8589.45 918.958   1
  -5   1  -6 7065.05 751.450   1
  -6   1  -6 12895.7 912.262   2
  -6  -1  -6 12791.2 1163.81   1
  -6   1  -6 13645.5 1095.12   1
  -7   1  -6 6512.44 674.563   2
  -7  -1  -6 6188.35 848.591   1
  -7   1  -6 5898.10 763.466   1
  -8  -1  -6 119.552 182.774   1
  -8   1  -6-87.4393 212.673   1
  -9   1  -6 207.717 198.766   1
  -9  -1  -6 324.384 250.194   1
 -10   1  -6-108.566 250.047   1
 -10  -1  -6 318.092 289.392   1
 -11   1  -6 3173.94 706.698   1
 -11  -1  -6 3541.39 786.963   1
 -12   1  -6 144.552 214.912   1
  14   2  -6 936.862 466.541   2
  14  -2  -6 311.584 292.026   2
  13   2  -6 3020.68 734.470   2
  13  -2  -6 3423.80 765.036   2
  12   2  -6 674.916 329.603   2
  12  -2  -6 628.423 373.022   2
  11   2  -6 336.899 197.151   2
  11  -2  -6 1006.81 417.172   2
  10  -2  -6 4626.72 777.320   2
   9  -2  -6 3915.42 688.565   2
   8  -2  -6 67774.7 2666.37   2
  -7  -2   6 229.910 128.361   1
   7  -2  -6 425.252 249.313   2
   7  -2  -6 528.394 323.174   1
  -6  -2   6 771.574 240.779   1
   6  -2  -6 741.515 286.160   2
   6  -2  -6 1072.94 335.500   1
  -5  -2   6 87666.4 2292.84   1
   5  -2  -6 85654.1 2540.51   2
   5  -2  -6 85344.3 2845.37   1
   4  -2  -6 2353.28 503.813   1
  -4  -2   6 2388.86 346.393   1
   4  -2  -6 2524.81 400.546   2
  -4   2   6 2649.66 481.907   1
   3  -2  -6 6962.61 776.454   1
   3  -2  -6 7481.70 652.223   2
  -3  -2   6 7470.06 570.110   1
  -3   2   6 7130.86 765.437   1
   2  -2  -6 5216.66 491.084   2
  -2  -2   6 6177.03 486.351   1
  -2   2   6 5377.21 649.811   1
   2  -2  -6 4957.22 639.990   1
   2   2  -6 5468.24 473.172   1
   1  -2  -6 41365.5 1842.41   1
   1  -2  -6 45072.7 1265.41   2
  -1   2   6 47364.0 1928.93   1
  -1  -2   6 46190.1 1266.69   1
   1   2  -6 46702.8 1335.19   1
   0   2  -6 16918.5 787.448   1
   0  -2  -6 17089.7 652.277   2
   0  -2  -6 15551.4 1140.54   1
   0   2   6 16434.5 1147.59   1
   0  -2   6 17109.4 789.190   1
  -1   2  -6 5255.07 463.697   1
  -1  -2  -6 5706.36 701.939   1
   1   2   6 5404.58 676.218   1
  -2   2  -6 55037.8 1550.82   1
  -2  -2  -6 49235.1 2071.71   1
  -3   2  -6 4292.55 551.427   2
  -3  -2  -6 4707.72 666.507   1
  -3   2  -6 5395.42 532.296   1
  -4  -2  -6 542.611 224.604   1
  -4   2  -6 1013.11 293.827   2
  -4   2  -6 1131.02 268.017   1
  -5   2  -6-48.3029 159.912   1
  -5   2  -6 393.895 148.175   2
  -5  -2  -6-165.265 253.106   1
  -6   2  -6 575.832 223.751   1
  -6   2  -6 666.509 248.819   2
  -6  -2  -6 488.641 154.676   1
  -7  -2  -6 7634.98 989.932   1
  -7   2  -6 6932.85 790.051   1
  -8   2  -6 2369.71 524.514   1
  -8  -2  -6 1821.61 504.663   1
  -9  -2  -6 554.146 303.820   1
  -9   2  -6 967.181 376.432   1
 -10  -2  -6 2320.38 647.501   1
 -10   2  -6 2668.93 593.262   1
 -11  -2  -6 87.1811 210.693   1
 -11   2  -6 328.712 255.578   1
 -12   2  -6 1270.90 484.239   1
  13   3  -6 1837.87 614.453   2
  13  -3  -6 1639.30 550.528   2
  12   3  -6 14272.7 1536.69   2
  12  -3  -6 13236.8 1454.68   2
  11  -3  -6 6874.27 1011.00   2
  10  -3  -6 3202.12 674.786   2
   9  -3  -6 290.263 247.267   2
   8  -3  -6 6331.03 851.038   2
   8  -3  -6 6413.13 915.408   1
  -8  -3   6 7750.98 820.506   1
   7  -3  -6 12526.6 1118.17   2
   7  -3  -6 11888.4 1180.65   1
   6  -3  -6 19938.9 1327.88   2
   6  -3  -6 17880.7 1399.83   1
  -5  -3   6 6871.36 605.404   1
   5  -3  -6 6718.22 730.766   2
   5  -3  -6 7420.88 894.758   1
   4  -3  -6 236.745 274.918   1
  -4  -3   6 45.3014 89.6610   1
   4  -3  -6 2.24039 118.387   2
   3  -3  -6 70684.4 2594.10   1
   3  -3  -6 73877.7 2079.36   2
  -3  -3   6 78196.5 1586.04   1
   2  -3  -6 2108.11 434.281   1
  -2  -3   6 2075.02 224.807   1
   2  -3  -6 2164.67 318.166   2
   1  -3  -6 3025.17 325.807   2
   1  -3  -6 1933.14 428.518   1
  -1  -3   6 2236.71 218.225   1
   0  -3  -6 2130.16 214.883   2
   0  -3  -6 2168.41 473.247   1
   0   3  -6 2282.01 215.364   1
  -1   3  -6 57037.5 1143.56   1
  -1  -3  -6 54943.1 2290.29   1
  -2  -3  -6 231.792 228.533   1
  -2   3  -6 376.809 99.2972   1
  -3   3  -6 9630.73 598.348   1
  -3   3  -6 9517.40 915.057   2
  -3  -3  -6 8746.15 959.699   1
  -4  -3  -6 48182.0 2326.94   1
  -4   3  -6 54016.2 1588.54   1
  -5   3  -6 3655.29 462.582   1
  -5  -3  -6 3431.09 623.125   1
  -6   3  -6 917.849 253.326   1
  -6  -3  -6 578.383 323.720   1
  -7  -3  -6 6093.79 917.592   1
  -7   3  -6 5872.55 696.506   1
  -8  -3  -6 2568.10 627.000   1
  -8   3  -6 2439.85 477.923   1
  -9  -3  -6 469.399 319.531   1
  -9   3  -6 405.589 266.648   1
 -10  -3  -6 406.692 234.854   1
 -10   3  -6-120.580 166.634   1
  13  -4  -6 2229.71 639.874   2
  12  -4  -6 959.497 447.509   2
  11  -4  -6 1342.23 468.877   2
  10  -4  -6 6145.35 953.083   2
   9  -4  -6 7007.52 953.343   2
   9  -4  -6 8234.30 1098.04   1
   8  -4  -6 19575.6 1525.27   2
   8  -4  -6 20205.8 1667.13   1
  -8  -4   6 19863.3 1306.54   1
   7  -4  -6 4654.22 717.231   2
   7  -4  -6 4037.67 736.637   1
  -7  -4   6 4509.90 559.860   1
  -6  -4   6 333.252 155.471   1
   6  -4  -6 418.830 244.111   2
   6  -4  -6 900.625 319.304   1
   5  -4  -6 28763.6 1544.13   2
   5  -4  -6 30146.0 1885.62   1
   4  -4  -6 858.616 349.142   1
  -4  -4   6 831.012 171.246   1
   4  -4  -6 1137.90 295.838   2
   3  -4  -6 22476.7 1554.86   1
   3  -4  -6 23051.6 1201.19   2
   2  -4  -6 4968.81 719.042   1
   2  -4  -6 5540.55 539.288   2
   1  -4  -6 54352.0 2403.93   1
   1  -4  -6 56532.8 1507.13   2
   0  -4  -6 766.606 266.227   1
  -1  -4  -6 5653.86 802.505   1
  -2  -4  -6 21219.1 1541.10   1
  -3   4  -6 5278.69 301.758   1
  -3  -4  -6 4672.12 749.872   1
  -3   4  -6 4788.13 300.456   1
  -4   4  -6 950.702 179.537   1
  -4  -4  -6 885.488 288.137   1
  -5  -4  -6 6467.25 935.421   1
  -5   4  -6 6215.00 519.872   1
  -6  -4  -6 14763.1 1447.70   1
  -6   4  -6 15940.9 948.580   1
  -7  -4  -6 6082.99 959.161   1
  -7   4  -6 8101.22 749.817   1
  -8  -4  -6 982.053 446.934   1
  -9  -4  -6 385.205 308.386   1
  12  -5  -6 2979.67 702.081   2
  11  -5  -6 977.138 385.361   2
  10  -5  -6 93.6870 179.066   2
   9  -5  -6 6256.74 905.962   2
   9  -5  -6 6802.19 1067.96   1
   8  -5  -6 139.757 147.012   2
   8  -5  -6-47.5663 213.027   1
   7  -5  -6 1499.67 437.230   2
   7  -5  -6 932.919 389.411   1
   6  -5  -6 9571.39 992.381   2
   6  -5  -6 9693.45 1157.27   1
  -6  -5   6 9827.90 723.651   1
  -5  -5   6 14500.6 728.346   1
   5  -5  -6 14334.2 1156.01   2
   5  -5  -6 16053.6 1451.05   1
   4  -5  -6 1390.87 473.891   1
  -4   5   6 2259.08 433.803   2
  -4  -5   6 1950.13 189.404   1
   4  -5  -6 1952.82 419.780   2
   3  -5  -6 23451.3 1681.62   1
   3  -5  -6 24077.6 1305.10   2
   2  -5  -6 8052.17 971.739   1
   1  -5  -6 579.404 325.088   1
   0  -5  -6 3835.67 713.930   1
  -1  -5  -6 6008.12 849.609   1
  -2  -5  -6-88.3873 182.287   1
  -3  -5  -6 2513.00 581.179   1
  -4  -5  -6 6997.64 970.943   1
  -5  -5  -6 2492.15 611.692   1
  -6  -5  -6 3132.60 702.331   1
  -7  -5  -6 248.312 249.187   1
  -8  -5  -6 843.188 377.550   1
  11  -6  -6 6349.08 1058.41   2
  10  -6  -6 4457.26 857.282   2
   9  -6  -6 250.713 215.467   2
   9  -6  -6 438.055 296.220   1
   8  -6  -6 2992.78 659.089   2
   8  -6  -6 2344.28 676.875   1
   7  -6  -6 3240.60 647.646   2
   7  -6  -6 3279.87 752.583   1
   6  -6  -6 2577.44 524.294   2
   6  -6  -6 2953.00 656.905   1
   5  -6  -6 268.705 317.078   1
   5  -6  -6-197.328 175.579   2
   4  -6  -6 8355.43 1072.84   1
   4  -6  -6 7282.10 847.224   2
   3  -6  -6 2199.30 538.660   1
   2  -6  -6 457.412 233.734   1
   1  -6  -6 2179.02 537.209   1
   0  -6  -6 24824.0 1834.40   1
  -1  -6  -6-247.078 193.048   1
  -2  -6  -6 8412.03 1096.10   1
  -3  -6  -6 5298.99 875.812   1
  -4  -6  -6 8203.72 1120.48   1
  -5  -6  -6 9218.74 1192.47   1
  -6  -6  -6 99.7145 160.974   1
  -7  -6  -6 366.764 179.488   1
  10  -7  -6-1165.87 458.729   2
   9  -7  -6 11628.2 1361.09   2
   9  -7  -6 12570.2 1515.29   1
   8  -7  -6 815.797 368.194   2
   8  -7  -6 985.975 454.099   1
   7  -7  -6 410.679 295.679   2
   7  -7  -6-584.811 336.853   1
   6  -7  -6 12759.0 1451.96   1
   5  -7  -6-423.587 298.043   1
   4  -7  -6 5515.50 942.387   1
   3  -7  -6 1617.84 508.434   1
   2  -7  -6 17591.3 1626.24   1
   1  -7  -6 423.268 290.569   1
   0  -7  -6 1393.96 488.852   1
  -1  -7  -6 2337.28 651.286   1
  -2  -7  -6 7502.97 1089.21   1
  -3  -7  -6 4709.04 892.248   1
  -4  -7  -6 31.3819 141.936   1
  -5  -7  -6 352.121 240.061   1
   7  -8  -6-113.776 306.730   1
   6  -8  -6 370.040 280.517   1
   5  -8  -6 207.466 319.013   1
   4  -8  -6 16440.4 1674.80   1
   3  -8  -6-440.717 302.970   1
   2  -8  -6 2161.21 611.889   1
   1  -8  -6 303.457 266.745   1
   0  -8  -6 1945.46 573.081   1
  -1  -8  -6 261.178 245.938   1
  -2  -8  -6-352.829 282.106   1
  13   0  -7-2.90422 171.600   2
  12   0  -7-223.990 225.817   2
  11   0  -7 499.814 304.428   2
  10   0  -7-111.004 234.541   2
   9   0  -7 19.6143 173.141   2
   8   0  -7 33.2596 132.802   2
   7   0  -7-40.4887 193.520   2
   6   0  -7-47.3437 147.792   1
  -5   0   7 260.333 179.013   1
   5   0  -7-43.3275 160.787   1
  -4   0   7-66.3110 131.438   1
   4   0  -7 308.044 210.070   1
  -3   0   7 57.0912 117.180   1
   3   0  -7-54.8624 142.824   1
   2   0  -7 76.0022 143.247   1
  -2   0   7 37.5862 117.694   1
   1   0  -7 78.2336 119.423   1
  -1   0   7 24.7816 91.1156   1
   0   0  -7-48.0588 144.880   1
   0   0   7 31.2397 84.7367   1
   1   0   7 131.970 117.317   1
  -1   0  -7 72.4227 116.748   1
  -2   0  -7-20.9010 149.620   1
  -3   0  -7-13.5535 185.513   1
  -3   0  -7 111.250 105.060   2
  -4   0  -7-144.608 205.304   1
  -4   0  -7-295.193 119.996   2
  -5   0  -7-150.462 91.7034   2
  -5   0  -7-733.877 282.457   1
  -6   0  -7 227.216 226.652   1
  -7   0  -7-97.3789 178.562   1
  -8   0  -7 76.4138 139.494   1
  -9   0  -7-86.3006 147.113   1
 -10   0  -7-221.400 231.294   1
 -11   0  -7 68.0763 176.677   1
  13   1  -7 11974.0 1469.49   2
  13  -1  -7 10269.4 1338.98   2
  12   1  -7 1038.73 371.288   2
  12  -1  -7 1246.07 421.839   2
  11   1  -7 68.1306 151.021   2
  11  -1  -7 121.814 190.009   2
  10   1  -7 444.152 243.648   2
  10  -1  -7 993.317 359.469   2
   9  -1  -7 4342.56 751.156   2
   8  -1  -7 40168.8 2151.43   2
   7  -1  -7 11547.4 1092.14   2
   7  -1  -7 10380.3 1078.34   1
   6  -1  -7 9176.26 914.366   2
  -6  -1   7 6405.30 721.574   1
   6  -1  -7 9163.11 980.754   1
   5  -1  -7 17683.0 1213.09   2
  -5  -1   7 16941.4 1126.40   1
   5   1  -7 16967.7 1161.45   1
   5  -1  -7 16579.7 1272.68   1
   4  -1  -7 15351.5 1063.62   2
  -4  -1   7 14793.8 992.061   1
  -4   1   7 15364.5 1151.87   1
   4   1  -7 14952.4 1028.44   1
   4  -1  -7 15275.8 1180.99   1
   3  -1  -7 12681.8 1056.56   1
   3  -1  -7 12194.6 896.917   2
  -3  -1   7 12199.9 875.556   1
  -3   1   7 13348.4 1052.74   1
   3   1  -7 12430.0 907.464   1
   2  -1  -7 3928.71 593.144   1
  -2   1   7 4541.64 607.911   1
  -2  -1   7 3712.40 457.752   1
   2   1  -7 4326.30 538.624   1
  -1  -1   7 473.299 142.528   1
   1   1  -7 543.468 181.258   1
   1  -1  -7 608.490 255.839   1
  -1   1   7 489.738 175.654   1
   0   1  -7 20125.7 1101.09   1
   0  -1  -7 20441.6 1317.82   1
   0   1   7 21180.4 1306.29   1
   0  -1   7 20154.6 1088.41   1
  -1   1  -7 28975.1 1357.09   1
  -1  -1  -7 27920.7 1551.14   1
   1   1   7 28481.0 1560.54   1
  -2   1  -7 8803.34 775.216   1
  -2  -1  -7 8198.58 854.067   1
  -2  -1  -7 6839.61 390.093   2
  -3   1  -7 411.137 210.172   1
  -3  -1  -7 396.241 263.236   1
  -3  -1  -7 257.783 65.4557   2
  -3   1  -7 233.277 134.473   2
  -4  -1  -7 1911.53 466.143   1
  -4   1  -7 1794.49 383.468   1
  -4   1  -7 1556.83 306.610   2
  -5  -1  -7 902.105 323.641   1
  -5   1  -7 1059.70 296.651   1
  -5   1  -7 1287.99 288.876   2
  -6  -1  -7 1633.01 477.432   1
  -6   1  -7 1623.36 373.656   1
  -7   1  -7 2959.70 571.025   1
  -7  -1  -7 2788.03 606.303   1
  -8   1  -7-73.8818 152.257   1
  -8  -1  -7-443.158 244.691   1
  -9  -1  -7 1175.57 435.306   1
  -9   1  -7 1562.56 459.628   1
 -10  -1  -7 795.275 376.948   1
 -10   1  -7 1098.62 408.783   1
 -11   1  -7-830.996 380.429   1
  13   2  -7 501.632 371.584   2
  13  -2  -7 611.647 336.218   2
  12   2  -7 13622.6 1515.05   2
  12  -2  -7 11711.1 1368.53   2
  11   2  -7 4074.55 835.947   2
  11  -2  -7 5003.09 878.362   2
  10  -2  -7 5662.05 877.811   2
   9  -2  -7 13916.0 1310.73   2
   8  -2  -7 605.999 299.795   2
   8  -2  -7 200.234 193.564   1
   7  -2  -7 36161.9 1920.69   2
  -7  -2   7 36763.6 1746.11   1
   7  -2  -7 34540.1 2029.59   1
   6  -2  -7 46596.8 2066.67   2
   6  -2  -7 43115.9 2212.21   1
   5  -2  -7 5443.74 670.691   2
  -5  -2   7 4413.04 543.720   1
   4  -2  -7 222.957 201.290   1
   4  -2  -7 36.6591 133.904   2
  -4  -2   7 71.0072 119.202   1
  -3  -2   7 648.659 184.004   1
   3  -2  -7 703.475 260.129   1
   3  -2  -7 820.120 240.704   2
   3   2  -7 804.349 213.192   1
   2  -2  -7 25448.0 1558.18   1
   2  -2  -7 27652.5 1193.51   2
  -2  -2   7 27602.8 1136.54   1
   2   2  -7 27933.7 1185.17   1
   1  -2  -7 14114.2 749.142   2
   1  -2  -7 12494.0 1082.26   1
  -1  -2   7 14561.4 803.996   1
   1   2  -7 14031.1 828.364   1
   0   2  -7 9454.17 669.428   1
   0  -2  -7 9680.24 521.414   2
   0  -2  -7 9642.39 961.349   1
   0  -2   7 8497.10 627.625   1
  -1   2  -7 1976.86 312.278   1
  -1  -2  -7 1493.81 399.454   1
  -2   2  -7 16951.0 953.162   1
  -2  -2  -7 14035.8 1198.81   1
  -3   2  -7 36029.7 1460.58   1
  -3  -2  -7 34657.4 1898.95   1
  -3   2  -7 34605.5 1632.45   2
  -4   2  -7 1104.88 281.152   1
  -4  -2  -7 916.951 326.771   1
  -4   2  -7 1253.18 329.872   2
  -5  -2  -7-16.9151 130.807   1
  -5   2  -7-139.002 164.376   1
  -6  -2  -7 711.652 277.637   1
  -6   2  -7 563.545 266.572   1
  -7   2  -7-9.55601 105.598   1
  -7  -2  -7 104.522 173.093   1
  -8   2  -7 4444.78 691.966   1
  -8  -2  -7 4947.56 878.810   1
  -9   2  -7 2451.54 545.103   1
  -9  -2  -7 1539.32 504.261   1
 -10  -2  -7 611.775 356.025   1
 -10   2  -7 89.8173 166.272   1
  13  -3  -7 83.9725 263.988   2
  12  -3  -7 2653.62 663.016   2
  11  -3  -7-547.730 317.895   2
  10  -3  -7 505.001 284.828   2
   9  -3  -7 495.660 253.726   2
   9  -3  -7 696.381 337.105   1
   8  -3  -7 1732.65 452.670   2
   8  -3  -7 1450.45 492.263   1
  -7  -3   7 75.4984 85.5701   1
   7  -3  -7-36.3762 158.182   2
  -6  -3   7 3555.92 493.617   1
   6  -3  -7 5879.45 750.869   2
   6  -3  -7 6104.84 851.934   1
   5  -3  -7 245.482 231.413   1
  -5  -3   7 198.760 124.747   1
   5  -3  -7-10.9129 98.2897   2
   4  -3  -7 3345.44 643.145   1
   4  -3  -7 4176.51 555.748   2
  -4  -3   7 2552.56 343.537   1
   3  -3  -7 5662.09 784.341   1
   3  -3  -7 5706.07 591.608   2
  -3  -3   7 4116.27 393.349   1
  -2  -3   7 64.3883 53.5702   1
   2  -3  -7 160.370 176.993   1
   2  -3  -7 238.451 117.508   2
   1  -3  -7 1005.73 365.413   1
   1  -3  -7 862.477 181.847   2
   1   3  -7 1224.09 206.605   1
   0  -3  -7 186.280 207.432   1
   0  -3  -7 217.512 65.6369   2
   0   3  -7 314.619 114.505   1
  -1   3  -7 1758.77 246.105   1
  -1  -3  -7 1369.57 382.136   1
  -2   3  -7 15816.1 767.451   1
  -2  -3  -7 15115.0 1311.32   1
  -3  -3  -7 3014.35 591.731   1
  -3   3  -7 4049.00 439.291   1
  -4   3  -7 703.700 210.851   1
  -4  -3  -7 982.640 389.285   1
  -5  -3  -7-106.690 314.323   1
  -5   3  -7 172.683 106.492   1
  -6   3  -7 3441.15 508.666   1
  -6  -3  -7 2530.08 629.086   1
  -7  -3  -7-23.5383 241.897   1
  -7   3  -7 505.155 223.340   1
  -8  -3  -7 1095.25 434.035   1
  -9  -3  -7 487.685 289.829   1
  12  -4  -7 396.067 281.550   2
  11  -4  -7 12433.2 1410.24   2
  10  -4  -7 9065.74 1162.12   2
   9  -4  -7-117.987 226.310   2
   9  -4  -7 139.559 262.974   1
   8  -4  -7 4022.58 710.848   2
   8  -4  -7 5396.71 917.970   1
  -7  -4   7 939.855 261.648   1
   7  -4  -7 766.346 337.926   2
   7  -4  -7 962.849 394.464   1
  -6  -4   7 3695.42 475.099   1
   6  -4  -7 3523.78 596.235   2
   6  -4  -7 3771.00 726.284   1
  -5  -4   7 16732.5 870.592   1
   5  -4  -7 18014.3 1251.67   2
   5  -4  -7 18528.4 1555.30   1
   4  -4  -7 3866.46 707.646   1
   4  -4  -7 3393.97 511.458   2
  -4  -4   7 2231.13 271.484   1
   3  -4  -7 20517.8 1578.99   1
   3  -4  -7 22623.4 1193.99   2
   2  -4  -7 6745.28 895.632   1
   2  -4  -7 7733.82 636.828   2
   1  -4  -7 6153.75 848.730   1
   1  -4  -7 7066.05 517.190   2
   0  -4  -7 322.377 248.892   1
  -1  -4  -7 154.511 166.026   1
  -2  -4  -7 848.836 327.292   1
  -3   4  -7 779.926 125.496   1
  -3  -4  -7 1186.87 393.763   1
  -4  -4  -7 8938.59 1095.14   1
  -5  -4  -7 636.009 322.381   1
  -6  -4  -7 2911.88 684.203   1
  -7  -4  -7 501.034 342.105   1
  -8  -4  -7-27.4890 308.120   1
  11  -5  -7 75.9106 149.116   2
  10  -5  -7 5814.31 934.084   2
   9  -5  -7 17394.4 1559.88   2
   9  -5  -7 18261.0 1769.85   1
   8  -5  -7 22438.4 1662.99   2
   8  -5  -7 22987.9 1927.18   1
   7  -5  -7 15133.9 1324.73   2
   7  -5  -7 20926.4 1809.48   1
   6  -5  -7 3249.86 585.810   2
   6  -5  -7 2844.62 627.445   1
   5  -5  -7 9971.00 973.117   2
   5  -5  -7 12020.8 1321.23   1
   4  -5  -7 11987.7 1283.25   1
   4  -5  -7 11178.4 967.519   2
   3  -5  -7 12821.2 1323.04   1
   3  -5  -7 13379.3 975.867   2
   2  -5  -7 4267.55 755.410   1
   1  -5  -7 371.744 234.127   1
   0  -5  -7 931.222 388.047   1
  -1  -5  -7 5857.32 904.968   1
  -2  -5  -7 3086.43 661.437   1
  -3  -5  -7 1225.45 458.293   1
  -4  -5  -7 10288.2 1234.48   1
  -5  -5  -7 2940.90 705.478   1
  -6  -5  -7 5940.12 1012.55   1
  -7  -5  -7 876.681 416.330   1
  10  -6  -7 107.375 176.231   2
   9  -6  -7 1956.03 577.672   2
   9  -6  -7 2646.85 735.021   1
   8  -6  -7 356.486 241.565   2
   8  -6  -7 583.819 324.341   1
   7  -6  -7 3388.51 658.401   2
   7  -6  -7 3934.51 822.942   1
   6  -6  -7 615.733 226.964   2
   6  -6  -7 477.596 313.084   1
   5  -6  -7 2905.11 706.755   1
   5  -6  -7 3042.92 568.962   2
   4  -6  -7 4855.59 869.361   1
   4  -6  -7 5815.31 739.046   2
   3  -6  -7 2295.63 597.382   1
   2  -6  -7 1420.28 485.472   1
   1  -6  -7 3755.77 736.314   1
   0  -6  -7 1874.46 513.461   1
  -1  -6  -7 82.0305 263.005   1
  -2  -6  -7-125.332 325.998   1
  -3  -6  -7-32.9082 199.788   1
  -4  -6  -7 1995.90 588.390   1
  -5  -6  -7 307.287 332.489   1
   9  -7  -7 131.723 188.115   2
   8  -7  -7 167.074 190.677   2
   7  -7  -7 991.391 317.967   2
   7  -7  -7 1403.24 595.904   1
   6  -7  -7 1247.14 476.642   1
   5  -7  -7 3020.36 737.572   1
   4  -7  -7 11107.3 1394.99   1
   3  -7  -7 96.8439 146.866   1
   2  -7  -7 936.437 452.152   1
   1  -7  -7 1635.57 533.608   1
   0  -7  -7 8501.27 1203.07   1
  -1  -7  -7 7472.75 1123.05   1
  -2  -7  -7 587.772 325.010   1
  -3  -7  -7 867.846 372.210   1
  13   0  -8-205.639 242.732   2
  12   0  -8 15774.3 1670.78   2
  11   0  -8 138.174 309.174   2
  10   0  -8 923.997 391.090   2
   9   0  -8 1056.98 381.894   2
   8   0  -8 36637.3 2136.87   2
   7   0  -8 18988.0 1468.89   2
   6   0  -8 15619.7 1267.94   1
   5   0  -8 48182.2 2162.82   1
   4   0  -8 3995.26 609.664   1
   3   0  -8-157.670 238.036   1
  -3   0   8 260.490 190.886   1
   2   0  -8 4369.47 612.948   1
  -2   0   8 5218.92 649.052   1
   1   0  -8 65639.7 2359.30   1
  -1   0   8 60776.0 2217.22   1
   0   0  -8 1615.18 339.292   1
   0   0   8 1078.27 292.399   1
  -1   0  -8 7420.78 812.210   1
   1   0   8 8563.45 861.996   1
  -2   0  -8 2835.05 371.342   2
  -2   0  -8 3140.41 541.106   1
  -3   0  -8 27678.7 1619.25   1
  -4   0  -8 239.488 222.743   1
  -5   0  -8 7152.89 882.408   1
  -6   0  -8 262.850 140.423   1
  -7   0  -8 12694.1 1268.34   1
  -8   0  -8 2525.22 587.060   1
  -9   0  -8-244.817 223.820   1
 -10   0  -8 220.415 236.767   1
  13  -1  -8 612.637 332.707   2
  12   1  -8 323.596 256.968   2
  12  -1  -8-826.248 404.421   2
  11   1  -8 344.339 298.053   2
  11  -1  -8 985.252 443.209   2
  10   1  -8 13460.6 1432.24   2
  10  -1  -8 12775.3 1372.54   2
   9   1  -8 118.295 162.745   2
   9  -1  -8 259.668 273.300   2
   8  -1  -8 5122.19 801.839   2
   7  -1  -8 15678.1 1315.54   2
   7  -1  -8 13577.5 1295.96   1
   6  -1  -8 14483.4 1203.82   2
   6  -1  -8 14691.6 1299.37   1
   5  -1  -8 635.677 242.950   2
   5   1  -8 791.715 302.870   1
  -5  -1   8 789.323 257.428   1
   5  -1  -8 667.026 363.040   1
  -4  -1   8 860.459 262.702   1
   4  -1  -8 624.274 262.705   1
   4  -1  -8 1104.59 298.042   2
   4   1  -8 697.590 245.037   1
   3  -1  -8 50719.6 2236.20   1
   3  -1  -8 53841.6 1979.17   2
   3   1  -8 54230.5 2025.54   1
   2  -1  -8 17502.2 1047.94   2
   2  -1  -8 16437.2 1274.12   1
   2   1  -8 15626.4 1075.12   1
   1   1  -8-0.58630 123.557   1
   1  -1  -8-162.521 262.899   1
  -1  -1   8-398.595 177.361   1
   0   1  -8 1192.72 313.047   1
   0  -1  -8 883.667 290.206   1
   0  -1   8 1041.71 283.075   1
  -1   1  -8 23328.8 1321.48   1
  -1  -1  -8 22264.7 1510.49   1
  -2  -1  -8 92.9956 56.9000   2
  -2   1  -8 71.7882 120.276   1
  -2  -1  -8 10.9022 107.975   1
  -3   1  -8-178.870 121.872   2
  -3   1  -8 204.050 149.730   1
  -3  -1  -8 300.785 181.520   1
  -4   1  -8 940.064 299.744   1
  -4  -1  -8 1056.03 351.394   1
  -5   1  -8 11457.1 1067.06   1
  -5  -1  -8 11432.4 1190.82   1
  -6  -1  -8-186.581 196.580   1
  -6   1  -8 265.377 200.459   1
  -7  -1  -8-177.991 278.280   1
  -7   1  -8 751.047 311.921   1
  -8  -1  -8 379.744 209.177   1
  -8   1  -8 1199.86 398.693   1
  -9  -1  -8 1784.21 548.130   1
  -9   1  -8 2052.98 602.860   1
 -10   1  -8 1103.26 426.035   1
  12   2  -8 1079.14 456.130   2
  12  -2  -8 78.5533 131.050   2
  11   2  -8 21556.6 1917.49   2
  11  -2  -8 20246.1 1758.16   2
  10  -2  -8 5632.52 912.116   2
   9  -2  -8 6952.47 959.956   2
   8  -2  -8 9156.34 1058.30   2
   8  -2  -8 9354.89 1147.97   1
   7  -2  -8 5390.04 784.293   2
   7  -2  -8 4198.35 755.354   1
   6  -2  -8 563.116 282.484   2
  -6  -2   8 365.685 184.698   1
   6  -2  -8 640.485 305.703   1
   5  -2  -8 4006.03 701.860   1
   5  -2  -8 3917.65 596.424   2
  -5  -2   8 4246.40 552.853   1
   4  -2  -8 12858.0 1219.44   1
   4  -2  -8 12414.2 989.923   2
   3  -2  -8 17746.2 1393.03   1
   3  -2  -8 18815.6 1126.91   2
   3   2  -8 21707.4 1174.95   1
   2  -2  -8 18978.4 1454.82   1
   2  -2  -8 21482.4 1100.33   2
   2   2  -8 20121.4 1094.56   1
   1  -2  -8 32051.0 1850.30   1
   1  -2  -8 35299.9 1256.47   2
   1   2  -8 36065.0 1457.88   1
   0   2  -8 892.423 229.737   1
   0  -2  -8 580.305 137.613   2
   0  -2  -8 242.466 194.862   1
  -1   2  -8 384.074 180.343   1
  -1  -2  -8-277.216 308.570   1
  -2   2  -8 8400.43 741.795   1
  -2  -2  -8 7323.00 924.715   1
  -3   2  -8 766.591 234.741   1
  -3  -2  -8 977.982 324.417   1
  -4   2  -8 18192.6 1171.52   1
  -4  -2  -8 17331.9 1473.93   1
  -5   2  -8 2845.82 514.721   1
  -5  -2  -8 2756.40 606.297   1
  -6  -2  -8 6755.51 987.315   1
  -6   2  -8 7364.34 837.594   1
  -7  -2  -8 2169.75 593.438   1
  -7   2  -8 2094.08 465.431   1
  -8  -2  -8 1.35680 118.912   1
  -9  -2  -8 1096.33 432.097   1
  12  -3  -8 998.914 421.968   2
  11  -3  -8 4401.77 857.846   2
  10  -3  -8 635.889 326.097   2
   9  -3  -8 9618.94 1132.82   2
   9  -3  -8 8138.45 1174.64   1
   8  -3  -8 1709.11 449.202   2
   8  -3  -8 2161.20 584.064   1
   7  -3  -8 2736.91 549.032   2
   7  -3  -8 2606.58 627.071   1
  -6  -3   8 3625.22 507.670   1
   6  -3  -8 3570.46 596.573   2
   6  -3  -8 4076.41 742.182   1
   5  -3  -8 10112.4 942.305   2
  -5  -3   8 11097.1 814.574   1
   5  -3  -8 10215.1 1159.82   1
   4  -3  -8 28104.6 1879.73   1
   4  -3  -8 28920.1 1490.75   2
  -4  -3   8 30973.3 1256.57   1
   3  -3  -8-81.8073 295.456   1
   3  -3  -8 363.419 183.413   2
  -3  -3   8 233.299 95.4991   1
   2  -3  -8 15201.2 1351.66   1
   2  -3  -8 15516.9 893.109   2
  -2  -3   8 12062.1 688.506   1
   1  -3  -8 9060.33 1041.96   1
   1  -3  -8 9185.22 565.210   2
   1   3  -8 9457.03 611.160   1
   0  -3  -8 19726.4 1557.77   1
   0   3  -8 22614.0 934.034   1
  -1   3  -8 637.332 179.170   1
  -1  -3  -8 207.765 213.316   1
  -2   3  -8 10377.3 684.733   1
  -2  -3  -8 9286.37 1084.47   1
  -3   3  -8 2477.39 381.428   1
  -3  -3  -8 2321.04 541.465   1
  -4   3  -8 12687.8 868.766   1
  -4  -3  -8 11092.6 1261.79   1
  -5  -3  -8 834.374 406.655   1
  -6  -3  -8 10598.6 1292.12   1
  -7  -3  -8 947.493 360.094   1
  -8  -3  -8 4414.71 875.787   1
  12  -4  -8 1666.24 579.644   2
  11  -4  -8 9671.73 1246.86   2
  10  -4  -8 1299.25 448.557   2
   9  -4  -8 101.385 209.870   2
   9  -4  -8-379.935 318.032   1
   8  -4  -8 5467.39 832.974   2
   8  -4  -8 4876.26 907.068   1
   7  -4  -8 2139.97 484.477   2
   7  -4  -8 3009.37 740.770   1
   6  -4  -8 1796.70 443.012   2
   6  -4  -8 1853.47 559.590   1
   5  -4  -8 2611.35 651.488   1
   5  -4  -8 2691.02 480.969   2
   4  -4  -8 12974.3 1353.93   1
   4  -4  -8 12124.6 953.999   2
   3  -4  -8 10950.2 1229.27   1
   3  -4  -8 11318.4 843.103   2
   2  -4  -8 29561.4 2000.42   1
   2  -4  -8 30545.8 1243.00   2
   1  -4  -8 3039.20 647.937   1
   0  -4  -8 2226.51 553.349   1
  -1  -4  -8 566.015 324.356   1
  -2  -4  -8 12461.6 1334.44   1
  -3  -4  -8 1091.08 405.475   1
  -4  -4  -8 12469.1 1373.12   1
  -5  -4  -8 4100.58 825.667   1
  -6  -4  -8 3742.76 783.646   1
  -7  -4  -8 228.623 266.953   1
  11  -5  -8 1607.55 549.634   2
  10  -5  -8 1537.45 468.692   2
   9  -5  -8 860.520 368.416   2
   9  -5  -8 1353.81 571.213   1
   8  -5  -8 307.831 237.829   2
   8  -5  -8 24.4870 149.198   1
   7  -5  -8 2270.76 519.691   2
   7  -5  -8 1398.32 530.802   1
   6  -5  -8 5244.28 749.616   2
   6  -5  -8 4310.44 853.669   1
   5  -5  -8 172.095 230.787   1
   5  -5  -8-66.7514 153.285   2
   4  -5  -8 3185.16 774.639   1
   4  -5  -8 3540.67 551.021   2
   3  -5  -8 1571.13 526.586   1
   3  -5  -8 914.809 246.953   2
   2  -5  -8 4921.71 861.002   1
   1  -5  -8 1164.13 401.598   1
   0  -5  -8 58.2230 299.982   1
  -1  -5  -8 9536.17 1209.38   1
  -2  -5  -8 3787.67 783.192   1
  -3  -5  -8 1393.49 464.791   1
  -4  -5  -8 5931.89 1012.03   1
  -5  -5  -8 2017.68 599.407   1
  10  -6  -8 150.271 214.997   2
   9  -6  -8-290.506 287.858   2
   8  -6  -8 9651.44 1178.21   2
   7  -6  -8 500.367 296.219   2
   7  -6  -8 154.282 196.502   1
   6  -6  -8 2960.08 585.442   2
   6  -6  -8 2660.14 661.530   1
   5  -6  -8 13582.9 1181.16   2
   5  -6  -8 15147.5 1607.93   1
   4  -6  -8 7204.61 1104.65   1
   3  -6  -8 280.846 232.146   1
   2  -6  -8 536.657 600.368   1
   1  -6  -8 15037.6 1581.79   1
   0  -6  -8-52.0173 154.181   1
  -1  -6  -8 980.814 428.561   1
  -2  -6  -8 89.6107 202.892   1
  -3  -6  -8 7191.25 1113.51   1
   9  -7  -8 429.985 342.007   2
   8  -7  -8 181.742 201.466   2
   7  -7  -8 2509.96 624.258   2
   3  -7  -8 13268.5 1551.76   1
   2  -7  -8 3889.90 807.037   1
   1  -7  -8 538.503 271.831   1
  12   0  -9 243.640 265.458   2
  11   0  -9 303.639 278.711   2
  10   0  -9-243.367 241.263   2
   9   0  -9-135.370 271.453   2
   8   0  -9-54.5904 215.692   2
   7   0  -9-45.8379 216.856   2
   7   0  -9-80.7941 264.715   1
   6   0  -9 239.757 250.551   2
   6   0  -9 4.74326 158.430   1
   5   0  -9 365.780 309.619   1
   4   0  -9 300.266 202.458   1
   3   0  -9-27.6142 162.765   1
   2   0  -9 63.4391 175.032   1
   1   0  -9-165.637 176.709   1
   0   0  -9 88.0558 178.714   1
  -1   0  -9-25.6497 167.213   1
  -2   0  -9-854.677 317.843   1
  -3   0  -9-71.7909 219.196   1
  -4   0  -9-110.615 174.889   1
  -5   0  -9 167.543 178.064   1
  -6   0  -9 205.409 165.846   1
  -7   0  -9 454.865 276.451   1
  -8   0  -9-510.032 315.169   1
  12  -1  -9 2534.79 699.705   2
  11   1  -9 4961.25 956.347   2
  11  -1  -9 4020.51 810.630   2
  10   1  -9 1993.98 635.588   2
  10  -1  -9 1580.05 521.638   2
   9   1  -9 5447.40 923.320   2
   9  -1  -9 5068.26 866.499   2
   8  -1  -9 2394.30 576.614   2
   8  -1  -9 3200.41 699.680   1
   7  -1  -9 2859.52 604.558   2
   7  -1  -9 3882.12 721.156   1
   6  -1  -9 15730.4 1300.99   2
   6  -1  -9 18659.4 1529.76   1
   5  -1  -9 2927.12 546.360   2
   5   1  -9 3214.10 556.450   1
   5  -1  -9 3512.85 654.832   1
   4  -1  -9 462.984 222.661   1
   4  -1  -9 579.888 244.023   2
   4   1  -9 592.776 251.496   1
   3  -1  -9 127.915 203.913   1
   3  -1  -9 26.3338 138.141   2
  -3  -1   9 120.946 151.920   1
   3   1  -9-5.06697 97.6763   1
   2   1  -9-352.860 200.562   1
  -2  -1   9-351.556 189.975   1
   2  -1  -9 57.6746 198.592   1
   2  -1  -9-5.20684 84.2973   2
   1   1  -9 5460.01 686.802   1
   1  -1  -9 6339.54 617.063   2
   1  -1  -9 6279.46 833.416   1
  -1  -1   9 6100.09 697.229   1
   0  -1  -9 5836.57 541.513   2
   0   1  -9 5735.76 706.038   1
   0  -1  -9 5751.29 803.012   1
   0  -1   9 5578.52 683.810   1
  -1  -1  -9 220.809 101.110   2
  -1   1  -9 76.4102 107.401   1
  -1  -1  -9 333.278 174.560   1
  -2   1  -9 3097.97 540.882   1
  -2  -1  -9 3161.63 614.073   1
  -3   1  -9 3920.69 614.123   1
  -3  -1  -9 3629.12 671.596   1
  -4   1  -9-79.8052 167.591   1
  -4  -1  -9 19.8650 130.987   1
  -5   1  -9 658.566 336.000   1
  -5  -1  -9 73.9405 216.347   1
  -6   1  -9 1085.01 368.126   1
  -6  -1  -9 749.535 370.967   1
  -7   1  -9 621.512 373.014   1
  -7  -1  -9 711.075 354.596   1
  -8  -1  -9 167.622 232.913   1
  12  -2  -9 3281.58 722.503   2
  11   2  -9 992.795 414.719   2
  11  -2  -9 273.394 241.864   2
  10  -2  -9-692.495 338.784   2
   9  -2  -9-441.217 274.978   2
   8  -2  -9 9089.38 1079.72   2
   8  -2  -9 9198.13 1210.10   1
   7  -2  -9 13161.8 1237.21   2
   7  -2  -9 14077.0 1439.91   1
   6  -2  -9 604.923 254.424   2
   6  -2  -9 773.955 360.543   1
   5  -2  -9 9313.42 949.894   2
   5  -2  -9 10103.1 1164.37   1
   4  -2  -9 1707.91 451.070   1
  -4  -2   9 1923.90 376.264   1
   4  -2  -9 2048.22 421.934   2
   4   2  -9 2708.07 473.639   1
   3  -2  -9 3755.55 521.630   2
   3  -2  -9 3282.15 646.810   1
  -3  -2   9 3279.05 472.538   1
   3   2  -9 3450.25 506.856   1
   2  -2  -9 3400.31 460.330   2
   2  -2  -9 3842.07 704.465   1
  -2  -2   9 3011.68 443.113   1
   2   2  -9 3483.90 504.450   1
   1   2  -9 601.465 201.295   1
   1  -2  -9 482.561 281.351   1
   1  -2  -9 406.673 147.642   2
   0   2  -9 1619.51 336.127   1
   0  -2  -9 974.756 331.623   1
  -1   2  -9 8724.62 795.824   1
  -1  -2  -9 8112.04 1023.35   1
  -2   2  -9 6374.10 687.812   1
  -2  -2  -9 5128.10 826.594   1
  -3   2  -9 736.418 283.497   1
  -3  -2  -9 13.2935 133.643   1
  -4   2  -9 398.302 203.575   1
  -4  -2  -9 325.431 193.482   1
  -5  -2  -9 401.353 386.415   1
  -6  -2  -9 151.704 193.320   1
  -7  -2  -9-536.689 331.091   1
  11  -3  -9 176.487 207.062   2
  10  -3  -9 930.740 399.819   2
   9  -3  -9 2221.53 573.947   2
   9  -3  -9 1966.11 593.772   1
   8  -3  -9 278.655 274.557   2
   8  -3  -9 352.817 215.901   1
   7  -3  -9-199.961 153.747   2
   7  -3  -9 70.7231 197.240   1
   6  -3  -9 44.1828 160.394   2
   6  -3  -9-31.9673 195.025   1
   5  -3  -9 177.837 284.337   1
   5  -3  -9 125.197 141.689   2
   4  -3  -9 445.381 316.438   1
   4  -3  -9 82.3159 89.2624   2
   3  -3  -9 902.969 384.500   1
   3  -3  -9 743.253 250.646   2
   2  -3  -9 235.025 208.519   1
   2  -3  -9 34.6376 74.5269   2
   1  -3  -9 2592.24 637.121   1
   0  -3  -9 238.211 170.224   1
  -1  -3  -9 29.0292 139.607   1
  -2  -3  -9 326.280 190.542   1
  -3  -3  -9 129.134 172.899   1
  -4  -3  -9 3257.11 717.335   1
  -5  -3  -9 430.719 310.142   1
  -6  -3  -9 493.372 310.332   1
  11  -4  -9 235.479 153.523   2
  10  -4  -9-131.183 205.611   2
   9  -4  -9 14592.0 1455.72   2
   9  -4  -9 17795.7 1806.51   1
   8  -4  -9 6167.47 897.494   2
   8  -4  -9 9563.28 1320.56   1
   7  -4  -9-37.3032 135.582   2
   7  -4  -9 303.342 325.394   1
   6  -4  -9 715.803 348.696   2
   6  -4  -9 499.382 313.120   1
   5  -4  -9 850.407 435.415   1
   5  -4  -9 850.013 283.081   2
   4  -4  -9 4610.63 882.458   1
   4  -4  -9 2973.56 489.398   2
   3  -4  -9 4177.00 818.923   1
   2  -4  -9 2013.53 542.760   1
   1  -4  -9 783.201 284.163   1
   0  -4  -9 2879.20 666.313   1
  -1  -4  -9 193.258 188.595   1
  -2  -4  -9-200.982 287.252   1
  -3  -4  -9 164.589 181.052   1
  -4  -4  -9-4.16596 261.745   1
  -5  -4  -9 2020.63 599.956   1
  10  -5  -9 3578.84 783.461   2
   9  -5  -9 1194.61 422.536   2
   8  -5  -9 237.188 149.526   2
   7  -5  -9 7317.52 938.419   2
   7  -5  -9 11960.3 1475.99   1
   6  -5  -9 9788.24 1025.18   2
   6  -5  -9 8773.45 1269.97   1
   5  -5  -9 2843.64 686.200   1
   4  -5  -9 3589.69 789.634   1
   3  -5  -9-65.2704 209.033   1
   2  -5  -9 5856.32 1006.76   1
   1  -5  -9 2946.41 722.862   1
   0  -5  -9 5369.93 965.487   1
  -1  -5  -9 637.334 416.023   1
  -2  -5  -9 398.185 313.087   1
  -3  -5  -9-669.715 392.042   1
   9  -6  -9 1502.02 491.310   2
   8  -6  -9 3795.67 750.818   2
   4  -6  -9 249.857 415.900   1
   3  -6  -9-61.0603 206.840   1
   2  -6  -9 3602.65 825.515   1
   1  -6  -9 1064.14 517.391   1
  11   0 -10 607.075 345.040   2
  10   0 -10-740.083 371.403   2
   9   0 -10 4791.07 848.554   2
   8   0 -10 426.297 264.219   2
   7   0 -10 9787.71 1153.33   2
   7   0 -10 12620.5 1318.17   1
   6   0 -10 129.012 179.523   2
   6   0 -10 175.690 226.106   1
   5   0 -10 23899.9 1695.66   1
   4   0 -10-80.9889 217.064   1
   3   0 -10 10233.8 1090.94   1
   2   0 -10 19013.1 1498.27   1
   1   0 -10 16734.0 1345.88   1
   0   0 -10 33.3384 210.106   1
  -1   0 -10 3052.35 607.484   1
  -2   0 -10 20078.0 1543.21   1
  -3   0 -10-43.1805 233.572   1
  -4   0 -10 482.079 309.071   1
  -5   0 -10-285.142 225.689   1
  -6   0 -10 2794.87 642.112   1
  11  -1 -10 5444.24 986.055   2
  10   1 -10 1088.53 450.670   2
  10  -1 -10 1623.09 511.569   2
   9   1 -10 126.012 171.762   2
   9  -1 -10 309.035 321.088   2
   8  -1 -10-398.376 256.503   2
   8  -1 -10 289.245 206.828   1
   7  -1 -10 18174.6 1548.71   2
   7  -1 -10 15939.3 1517.56   1
   6  -1 -10 1213.42 363.938   2
   6  -1 -10 1028.80 417.334   1
   5  -1 -10 10914.0 1081.46   2
   5   1 -10 11744.2 1133.59   1
   4  -1 -10 5034.53 817.482   1
   4  -1 -10 6866.68 807.970   2
   4   1 -10 7790.56 898.722   1
   3  -1 -10 11649.7 994.015   2
   3   1 -10 9702.97 985.057   1
   2   1 -10 208.390 186.743   1
   2  -1 -10 62.0875 148.228   1
   2  -1 -10 519.838 179.275   2
   1   1 -10 2373.18 506.955   1
   1  -1 -10 1216.83 404.974   1
   0   1 -10 11125.0 1037.21   1
   0  -1 -10 7639.65 992.106   1
  -1   1 -10 1601.94 415.619   1
  -1  -1 -10 650.503 271.903   1
  -2   1 -10 3601.08 610.983   1
  -2  -1 -10 3406.26 671.358   1
  -3   1 -10 246.741 213.711   1
  -3  -1 -10 127.782 232.978   1
  -4  -1 -10 4574.77 800.209   1
  -5  -1 -10 907.819 322.507   1
  -6  -1 -10 1063.67 426.843   1
  -7  -1 -10 1991.25 550.647   1
  11  -2 -10 7.11570 164.673   2
  10  -2 -10 3249.05 727.679   2
   9  -2 -10 378.322 315.023   2
   9  -2 -10 738.779 345.160   1
   8  -2 -10 6999.99 972.073   2
   8  -2 -10 7740.28 1125.79   1
   7  -2 -10 2539.31 561.804   2
   7  -2 -10 3267.03 715.230   1
   6  -2 -10 174.280 174.495   2
   6  -2 -10-699.682 354.510   1
   5  -2 -10 20550.0 1434.05   2
   5  -2 -10 14542.6 1469.23   1
   4  -2 -10 8816.10 886.801   2
   4   2 -10 8521.63 877.607   1
   3  -2 -10 3375.23 721.445   1
   3  -2 -10 4763.37 606.357   2
   3   2 -10 4671.88 627.494   1
   2  -2 -10 4182.67 786.156   1
   2   2 -10 6470.35 719.809   1
   1  -2 -10 751.104 343.952   1
   1   2 -10 675.891 248.086   1
   0  -2 -10 4163.23 766.489   1
  -1  -2 -10 576.481 294.266   1
  -2  -2 -10 2416.11 589.179   1
  -3  -2 -10 3323.65 751.269   1
  -4  -2 -10 657.649 379.151   1
  -5  -2 -10 8763.52 1179.97   1
  -6  -2 -10-296.106 276.289   1
  11  -3 -10 1333.15 541.337   2
  10  -3 -10 9898.57 1253.18   2
   9  -3 -10 426.275 269.919   2
   9  -3 -10 69.9453 232.792   1
   8  -3 -10 651.898 281.353   2
   8  -3 -10 167.804 231.746   1
   7  -3 -10 3308.47 671.037   2
   7  -3 -10 2807.77 693.400   1
   6  -3 -10 12725.7 1189.26   2
   6  -3 -10 12971.9 1462.76   1
   5  -3 -10 1636.80 415.860   1
   5  -3 -10 1488.61 379.261   2
   4  -3 -10 1336.38 472.787   1
   3  -3 -10 1027.55 416.296   1
   2  -3 -10 18465.9 1683.97   1
   1  -3 -10 3178.65 688.427   1
   0  -3 -10 1265.13 470.047   1
  -1  -3 -10 3945.53 780.292   1
  -2  -3 -10 4583.58 856.912   1
  -3  -3 -10 6303.92 1043.27   1
  -4  -3 -10 388.933 302.080   1
  10  -4 -10 3926.11 796.302   2
   9  -4 -10-413.624 277.526   2
   8  -4 -10 10076.6 1178.76   2
   7  -4 -10 2548.61 563.060   2
   7  -4 -10 2130.31 604.457   1
   6  -4 -10 356.106 353.676   1
   5  -4 -10 588.480 354.428   1
   4  -4 -10 8831.85 1248.01   1
   3  -4 -10 2189.75 625.986   1
   2  -4 -10 602.066 347.683   1
   1  -4 -10 1411.26 499.544   1
   0  -4 -10 2585.83 667.684   1
  -1  -4 -10 151.436 223.194   1
  -2  -4 -10 787.285 405.507   1
   3  -5 -10 7172.86 1167.50   1
   2  -5 -10 2609.87 679.918   1
  10   0 -11 951.529 407.426   2
   9   0 -11-548.541 330.577   2
   8   0 -11-859.711 387.811   2
   7   0 -11-39.8921 279.972   2
   7   0 -11-119.946 314.156   1
   6   0 -11-82.7204 241.002   2
   6   0 -11 38.2840 218.389   1
   5   0 -11-310.988 219.737   2
   5   0 -11 76.1044 264.966   1
   4   0 -11-257.343 192.278   2
   4   0 -11 3.23366 252.193   1
   3   0 -11-38.2046 149.262   1
   2   0 -11-691.265 319.657   1
   1   0 -11 162.086 148.899   1
   0   0 -11-1.03956 129.183   1
  -1   0 -11 575.684 323.766   1
  -2   0 -11-59.6917 162.045   1
  10  -1 -11-395.201 281.090   2
   9   1 -11 508.150 352.883   2
   9  -1 -11 574.552 332.053   2
   8   1 -11 450.206 359.895   2
   8  -1 -11 730.357 338.297   2
   8  -1 -11 503.621 332.236   1
   7  -1 -11 2445.12 602.442   2
   7  -1 -11 2288.95 641.523   1
   6  -1 -11 1476.97 438.225   2
   6  -1 -11 1463.83 482.716   1
   5  -1 -11 486.250 242.632   2
   5   1 -11 262.242 213.500   1
   5  -1 -11 45.3731 161.331   1
   4  -1 -11 1081.52 402.712   2
   4   1 -11 1178.59 432.387   1
   4  -1 -11 1110.22 450.197   1
   3  -1 -11-219.634 208.648   1
   3   1 -11-129.450 174.791   1
   2  -1 -11 1150.34 480.891   1
   2   1 -11 240.489 198.218   1
   1  -1 -11 1357.53 456.857   1
   0  -1 -11 345.433 244.894   1
  -1  -1 -11 764.620 373.492   1
  -2  -1 -11 986.335 419.831   1
  -3  -1 -11 113.160 380.311   1
  -4  -1 -11-430.328 306.070   1
  10  -2 -11 1580.48 517.791   2
   9  -2 -11 2634.59 611.697   2
   8  -2 -11 2992.38 643.852   2
   8  -2 -11 2334.55 670.558   1
   7  -2 -11-339.791 239.562   2
   7  -2 -11-121.860 264.090   1
   6  -2 -11 1486.94 402.216   2
   6  -2 -11-148.832 210.035   1
   5  -2 -11 376.486 393.116   1
   4  -2 -11 401.584 301.622   1
   3  -2 -11-335.373 271.196   1
   2  -2 -11 133.481 169.293   1
   1  -2 -11 179.810 217.173   1
   0  -2 -11 4266.63 851.118   1
  -1  -2 -11 69.5267 177.525   1
  -2  -2 -11-248.154 260.812   1
  -3  -2 -11 537.959 355.117   1
  -4  -2 -11-787.147 428.396   1
  10  -3 -11 1517.79 488.619   2
   9  -3 -11-116.581 270.163   2
   8  -3 -11 28.0376 154.141   2
   6  -3 -11 186.064 250.963   1
   5  -3 -11-263.301 252.964   1
   4  -3 -11-785.771 401.334   1
   3  -3 -11 675.024 365.119   1
   2  -3 -11 720.066 365.243   1
   1  -3 -11 562.106 338.494   1
   0  -3 -11 92.3760 226.225   1
  -1  -3 -11-560.946 362.022   1
  -2  -3 -11-1990.48 607.122   1
   8   0 -12 4745.86 885.783   2
   7   0 -12 1314.60 461.491   2
   6   0 -12 17660.4 1599.19   2
   6   0 -12 20285.4 1753.59   1
   5   0 -12-250.406 252.140   1
   4   0 -12 3310.80 710.602   1
   8   1 -12 1094.75 451.867   2
   8  -1 -12 950.378 403.369   2
   7   1 -12 2331.38 606.564   2
   7  -1 -12 2693.08 716.718   1
   6  -1 -12 3794.31 800.864   1
   5  -1 -12 3617.11 751.700   1
   4  -1 -12 12512.7 1402.14   1
   3  -1 -12 269.030 220.871   1
   2  -1 -12 2865.04 696.263   1
   1  -1 -12 732.743 368.313   1
   0  -1 -12 3372.83 697.436   1
  -1  -1 -12 486.981 314.885   1
   5  -2 -12 3505.34 743.128   1
   4  -2 -12-4.39891 258.103   1
   3  -2 -12-1138.83 469.872   1
   2  -2 -12 149.052 236.454   1
   1  -2 -12 6355.57 1056.99   1
   0  -2 -12 1310.16 500.602   1
   0   0   0    0.00    0.00   0
;
_shelx_hkl_checksum              43595
_shelx_shelxl_version_number     2016/6
_olex2_submission_special_instructions 'No special instructions were received'
loop_
_space_group_symop_operation_xyz
'x, y, z'
'-x, y+1/2, -z+1/2'
'-x, -y, -z'
'x, -y-1/2, z-1/2'
loop_
_atom_site_label
_atom_site_type_symbol
_atom_site_fract_x
_atom_site_fract_y
_atom_site_fract_z
_atom_site_U_iso_or_equiv
_atom_site_adp_type
_atom_site_occupancy
_atom_site_site_symmetry_order
_atom_site_calc_flag
_atom_site_refinement_flags_posn
_atom_site_refinement_flags_adp
_atom_site_refinement_flags_occupancy
_atom_site_disorder_assembly
_atom_site_disorder_group
S1 S 0.89461(8) 0.09931(12) 0.66050(11) 0.0358(3) Uani 1 1 d . . . . .
S2 S 0.63769(12) 0.75801(15) 0.51478(11) 0.0549(4) Uani 1 1 d . . . . .
O2 O 1.0395(2) 0.2787(3) 0.5449(3) 0.0382(6) Uani 1 1 d . . . . .
O1 O 0.7001(2) 0.1555(4) 0.7373(3) 0.0447(7) Uani 1 1 d . . . . .
N1 N 0.8780(2) 0.4132(4) 0.5691(3) 0.0319(7) Uani 1 1 d . . . . .
H1 H 0.895520 0.512229 0.533265 0.038 Uiso 1 1 calc R . . . .
C3 C 0.7711(3) 0.3940(5) 0.6151(4) 0.0318(8) Uani 1 1 d . . . . .
H3 H 0.708487 0.402838 0.526593 0.038 Uiso 1 1 calc R . . . .
C2 C 0.9489(3) 0.2822(4) 0.5810(4) 0.0284(8) Uani 1 1 d . . . . .
C1 C 0.7720(3) 0.2140(5) 0.6799(4) 0.0329(8) Uani 1 1 d . . . . .
C4 C 0.7538(3) 0.5263(5) 0.7277(4) 0.0348(8) Uani 1 1 d . . . . .
H4A H 0.815833 0.516961 0.815182 0.042 Uiso 1 1 calc R . . . .
H4B H 0.682599 0.500960 0.759895 0.042 Uiso 1 1 calc R . . . .
C5 C 0.7496(3) 0.7106(5) 0.6685(5) 0.0411(9) Uani 1 1 d . . . . .
H5A H 0.821906 0.735326 0.638935 0.049 Uiso 1 1 calc R . . . .
H5B H 0.743379 0.790242 0.750028 0.049 Uiso 1 1 calc R . . . .
C6 C 0.5210(4) 0.7809(7) 0.6064(6) 0.0636(14) Uani 1 1 d . . . . .
H6A H 0.454042 0.816835 0.534679 0.095 Uiso 1 1 calc GR . . . .
H6B H 0.539135 0.867947 0.684339 0.095 Uiso 1 1 calc GR . . . .
H6C H 0.506370 0.670273 0.650042 0.095 Uiso 1 1 calc GR . . . .
loop_
_atom_site_aniso_label
_atom_site_aniso_U_11
_atom_site_aniso_U_22
_atom_site_aniso_U_33
_atom_site_aniso_U_23
_atom_site_aniso_U_13
_atom_site_aniso_U_12
S1 0.0379(5) 0.0251(5) 0.0488(6) 0.0092(4) 0.0188(4) 0.0022(4)
S2 0.0837(9) 0.0479(7) 0.0367(6) 0.0045(5) 0.0205(5) 0.0055(6)
O2 0.0315(14) 0.0325(14) 0.0569(16) 0.0115(12) 0.0239(12) 0.0067(11)
O1 0.0402(15) 0.0384(15) 0.0632(18) 0.0096(14) 0.0288(14) -0.0057(13)
N1 0.0281(15) 0.0238(15) 0.0489(18) 0.0098(13) 0.0198(13) 0.0018(12)
C3 0.0300(18) 0.0316(19) 0.0372(19) 0.0045(16) 0.0145(15) -0.0002(15)
C2 0.0313(18) 0.0264(18) 0.0280(17) 0.0029(14) 0.0077(14) 0.0004(15)
C1 0.0333(19) 0.0298(19) 0.0371(19) 0.0000(16) 0.0107(16) -0.0038(16)
C4 0.035(2) 0.036(2) 0.0346(19) -0.0012(16) 0.0117(15) -0.0031(17)
C5 0.041(2) 0.029(2) 0.061(2) -0.0012(18) 0.0293(19) -0.0010(17)
C6 0.037(2) 0.083(4) 0.066(3) 0.021(3) 0.001(2) -0.005(2)
loop_
_atom_type_symbol
_atom_type_description
_atom_type_scat_dispersion_real
_atom_type_scat_dispersion_imag
_atom_type_scat_source
C C 0.0033 0.0016 'International Tables Vol C Tables 4.2.6.8 and 6.1.1.4'
H H 0.0000 0.0000 'International Tables Vol C Tables 4.2.6.8 and 6.1.1.4'
N N 0.0061 0.0033 'International Tables Vol C Tables 4.2.6.8 and 6.1.1.4'
O O 0.0106 0.0060 'International Tables Vol C Tables 4.2.6.8 and 6.1.1.4'
S S 0.1246 0.1234 'International Tables Vol C Tables 4.2.6.8 and 6.1.1.4'
loop_
_geom_angle_atom_site_label_1
_geom_angle_atom_site_label_2
_geom_angle_atom_site_label_3
_geom_angle
_geom_angle_site_symmetry_1
_geom_angle_site_symmetry_3
_geom_angle_publ_flag
C1 S1 C2 91.75(16) . . ?
C5 S2 C6 100.9(2) . . ?
C3 N1 H1 119.9 . . ?
C2 N1 H1 119.9 . . ?
C2 N1 C3 120.1(3) . . ?
N1 C3 H3 109.2 . . ?
N1 C3 C1 106.0(3) . . ?
N1 C3 C4 113.0(3) . . ?
C1 C3 H3 109.2 . . ?
C4 C3 H3 109.2 . . ?
C4 C3 C1 110.1(3) . . ?
O2 C2 S1 121.8(3) . . ?
O2 C2 N1 127.3(3) . . ?
N1 C2 S1 110.9(2) . . ?
O1 C1 S1 123.8(3) . . ?
O1 C1 C3 125.2(3) . . ?
C3 C1 S1 111.1(2) . . ?
C3 C4 H4A 109.0 . . ?
C3 C4 H4B 109.0 . . ?
C3 C4 C5 112.9(3) . . ?
H4A C4 H4B 107.8 . . ?
C5 C4 H4A 109.0 . . ?
C5 C4 H4B 109.0 . . ?
S2 C5 H5A 108.3 . . ?
S2 C5 H5B 108.3 . . ?
C4 C5 S2 116.1(3) . . ?
C4 C5 H5A 108.3 . . ?
C4 C5 H5B 108.3 . . ?
H5A C5 H5B 107.4 . . ?
S2 C6 H6A 109.5 . . ?
S2 C6 H6B 109.5 . . ?
S2 C6 H6C 109.5 . . ?
H6A C6 H6B 109.5 . . ?
H6A C6 H6C 109.5 . . ?
H6B C6 H6C 109.5 . . ?
loop_
_geom_bond_atom_site_label_1
_geom_bond_atom_site_label_2
_geom_bond_distance
_geom_bond_site_symmetry_2
_geom_bond_publ_flag
S1 C2 1.785(3) . ?
S1 C1 1.775(4) . ?
S2 C5 1.794(5) . ?
S2 C6 1.802(5) . ?
O2 C2 1.214(4) . ?
O1 C1 1.199(4) . ?
N1 H1 0.8800 . ?
N1 C3 1.453(4) . ?
N1 C2 1.323(4) . ?
C3 H3 1.0000 . ?
C3 C1 1.519(5) . ?
C3 C4 1.508(5) . ?
C4 H4A 0.9900 . ?
C4 H4B 0.9900 . ?
C4 C5 1.529(5) . ?
C5 H5A 0.9900 . ?
C5 H5B 0.9900 . ?
C6 H6A 0.9800 . ?
C6 H6B 0.9800 . ?
C6 H6C 0.9800 . ?
