#------------------------------------------------------------------------------
#$Date: 2021-08-31 10:34:48 +0300 (Tue, 31 Aug 2021) $
#$Revision: 268312 $
#$URL: file:///home/coder/svn-repositories/cod/cif/1/56/44/1564467.cif $
#------------------------------------------------------------------------------
#
# This file is available in the Crystallography Open Database (COD),
# http://www.crystallography.net/
#
# All data on this site have been placed in the public domain by the
# contributors.
#
data_1564467
loop_
_publ_author_name
'Yu, Meng'
'Zhang, Yu'
'Pan, Ying-Qi'
'Wang, Li'
_publ_section_title
;
 Two novel copper(II) salamo-based complexes: Syntheses, X-ray crystal
 structures, spectroscopic properties and Hirshfeld surfaces analyses
;
_journal_name_full               'Inorganica Chimica Acta'
_journal_page_first              119701
_journal_paper_doi               10.1016/j.ica.2020.119701
_journal_volume                  509
_journal_year                    2020
_chemical_formula_moiety         'C24 H28 Cu N6 O10'
_chemical_formula_sum            'C24 H28 Cu N6 O10'
_chemical_formula_weight         624.06
_space_group_crystal_system      triclinic
_space_group_IT_number           2
_space_group_name_Hall           '-P 1'
_space_group_name_H-M_alt        'P -1'
_atom_sites_solution_hydrogens   geom
_cell_angle_alpha                69.737(14)
_cell_angle_beta                 81.10
_cell_angle_gamma                81.06
_cell_formula_units_Z            1
_cell_length_a                   4.0753(15)
_cell_length_b                   13.119(3)
_cell_length_c                   13.178(3)
_cell_measurement_reflns_used    2361
_cell_measurement_temperature    297
_cell_measurement_theta_max      22
_cell_measurement_theta_min      2
_cell_volume                     649.0(3)
_computing_molecular_graphics    'Olex2 (Dolomanov et al., 2009)'
_computing_publication_material  'Olex2 (Dolomanov et al., 2009)'
_computing_structure_refinement  'ShelXL (Sheldrick, 2015)'
_diffrn_ambient_temperature      297
_diffrn_measured_fraction_theta_full 0.989
_diffrn_measured_fraction_theta_max 0.989
_diffrn_measurement_device_type  'Bruker APEX-II CCD'
_diffrn_measurement_method       '\f and \w scans'
_diffrn_radiation_type           MoK\a
_diffrn_radiation_wavelength     0.71073
_diffrn_reflns_av_unetI/netI     0.1480
_diffrn_reflns_Laue_measured_fraction_full 0.989
_diffrn_reflns_Laue_measured_fraction_max 0.989
_diffrn_reflns_limit_h_max       4
_diffrn_reflns_limit_h_min       -4
_diffrn_reflns_limit_k_max       15
_diffrn_reflns_limit_k_min       -15
_diffrn_reflns_limit_l_max       15
_diffrn_reflns_limit_l_min       -15
_diffrn_reflns_number            2251
_diffrn_reflns_point_group_measured_fraction_full 0.989
_diffrn_reflns_point_group_measured_fraction_max 0.989
_diffrn_reflns_theta_full        24.998
_diffrn_reflns_theta_max         24.998
_diffrn_reflns_theta_min         1.922
_diffrn_standards_number         0
_exptl_absorpt_coefficient_mu    0.912
_exptl_absorpt_correction_type   none
_exptl_crystal_colour            colourless
_exptl_crystal_colour_primary    colourless
_exptl_crystal_density_diffrn    1.597
_exptl_crystal_description       block
_exptl_crystal_F_000             323
_refine_diff_density_max         1.164
_refine_diff_density_min         -0.596
_refine_diff_density_rms         0.128
_refine_ls_extinction_coef       .
_refine_ls_extinction_method     none
_refine_ls_goodness_of_fit_ref   1.007
_refine_ls_hydrogen_treatment    constr
_refine_ls_matrix_type           full
_refine_ls_number_parameters     190
_refine_ls_number_reflns         2251
_refine_ls_number_restraints     0
_refine_ls_restrained_S_all      1.007
_refine_ls_R_factor_all          0.1047
_refine_ls_R_factor_gt           0.0754
_refine_ls_shift/su_max          0.000
_refine_ls_shift/su_mean         0.000
_refine_ls_structure_factor_coef Fsqd
_refine_ls_weighting_details
'w=1/[\s^2^(Fo^2^)+(0.0765P)^2^] where P=(Fo^2^+2Fc^2^)/3'
_refine_ls_weighting_scheme      calc
_refine_ls_wR_factor_gt          0.1620
_refine_ls_wR_factor_ref         0.1886
_reflns_Friedel_coverage         0.000
_reflns_Friedel_fraction_full    .
_reflns_Friedel_fraction_max     .
_reflns_number_gt                1512
_reflns_number_total             2251
_reflns_threshold_expression     'I > 2\s(I)'
_cod_data_source_file            ICA-2020-509-119701.cif
_cod_data_source_block           377_tw
_cod_database_code               1564467
_shelx_space_group_comment
;
The symmetry employed for this shelxl refinement is uniquely defined
by the following loop, which should always be used as a source of
symmetry information in preference to the above space-group names.
They are only intended as comments.
;
_olex2_refinement_description
;
1. Twinned data refinement
 Scales: 0.593(4)
 0.407(4)
2. Fixed Uiso
 At 1.2 times of:
  All C(H) groups, All C(H,H) groups
 At 1.5 times of:
  All C(H,H,H) groups
3.a Secondary CH2 refined with riding coordinates:
 C1(H1A,H1B), C9(H9A,H9B)
3.b Aromatic/amide H refined with riding coordinates:
 C2(H2), C3(H3), C6(H6), C8(H8)
3.c Idealised Me refined as rotating group:
 C10(H10A,H10B,H10C), C11(H11A,H11B,H11C)
;
_shelx_res_file
;
TITL 377_a.res in P-1
    377_tw.res
    created by SHELXL-2018/3 at 22:28:38 on 05-Jun-2019
REM Old TITL 377 in P1
REM SHELXT solution in P-1: R1 0.319, Rweak 0.181, Alpha 0.189
REM <I/s> 0.000 for 0 systematic absences, Orientation as input
REM Formula found by SHELXT: C34 N16 O6 Cu
CELL 0.71073 4.0753 13.119 13.1776 69.737 81.105 81.065
ZERR 1 0.0015 0.0027 0.0027 0.014 0 0
LATT 1
SFAC C H Cu N O
UNIT 24 28 1 6 10

L.S. 20 0 0
PLAN  20
TEMP 23.85
BOND
LIST 4
fmap 2 53
acta
conf
bond $h
OMIT 1 3 0
OMIT -1 -1 1
OMIT 1 2 0
OMIT 0 2 1
OMIT -3 -9 1
OMIT 1 -2 1
OMIT 1 -1 1
OMIT 0 -1 1
OMIT 1 2 1
OMIT 2 2 1
OMIT 3 2 1
OMIT 4 2 1
OMIT -4 3 1
OMIT -3 3 1
OMIT -2 3 1
OMIT -1 3 1
REM <olex2.extras>
REM <HklSrc "%.\\377_tw.hkl">
REM </olex2.extras>

WGHT    0.076500
BASF   0.40705
FVAR      10.27669
CU1   3    0.000000    0.500000    0.500000    10.50000    0.07333    0.02164 =
         0.01508   -0.00571   -0.00547    0.00648
N1    4   -0.109934    0.584198    0.601496    11.00000    0.05268    0.01106 =
         0.01547   -0.00143   -0.00398    0.00418
O1    5   -0.183916    0.959137    0.394056    11.00000    0.05458    0.02411 =
         0.01522   -0.00533    0.00099    0.00044
C1    1   -0.131326    0.766295    0.500095    11.00000    0.04074    0.02423 =
         0.01570   -0.00603    0.00627    0.00765
AFIX  23
H1A   2   -0.009739    0.741779    0.441899    11.00000   -1.20000
H1B   2    0.028392    0.781843    0.538773    11.00000   -1.20000
AFIX   0
O2    5    0.296671    0.399249    0.597765    11.00000    0.06657    0.02578 =
         0.02216   -0.00718   -0.00781    0.00278
N2    4   -0.063320    0.950073    0.291425    11.00000    0.05367    0.02442 =
         0.02530   -0.00859   -0.00803    0.01024
O3    5    0.353798    0.394698    1.071896    11.00000    0.08365    0.02858 =
         0.01620   -0.01054   -0.01133    0.00666
C2    1    0.542859    0.293231    0.756764    11.00000    0.06797    0.01722 =
         0.02502   -0.00992   -0.00686    0.00137
AFIX  43
H2    2    0.644150    0.243079    0.722874    11.00000   -1.20000
AFIX   0
O4    5   -0.328745    0.684719    0.572313    11.00000    0.06667    0.01488 =
         0.02249   -0.00283   -0.00028    0.00445
O5    5    0.727837    0.259408    1.065594    11.00000    0.06536    0.03132 =
         0.02549   -0.00551   -0.01548    0.01001
C3    1   -0.030954    0.558067    0.698062    11.00000    0.04745    0.01604 =
         0.02265   -0.01253   -0.00731    0.00610
AFIX  43
H3    2   -0.117755    0.605202    0.736910    11.00000   -1.20000
AFIX   0
C4    1    0.449116    0.351567    0.913107    11.00000    0.06435    0.01926 =
         0.01422   -0.00517    0.00247   -0.00797
C5    1    0.334539    0.385730    0.698028    11.00000    0.05916    0.01580 =
         0.01876   -0.00405    0.00167   -0.00949
N3    4    0.513097    0.333329    1.023729    11.00000    0.05633    0.02227 =
         0.02463   -0.00376   -0.00779   -0.00601
C6    1    0.237423    0.441380    0.859384    11.00000    0.06394    0.01853 =
         0.01645   -0.00565    0.00326   -0.00900
AFIX  43
H6    2    0.130693    0.489042    0.895536    11.00000   -1.20000
AFIX   0
C7    1    0.182800    0.461050    0.752410    11.00000    0.04843    0.01287 =
         0.02436   -0.00059   -0.00069   -0.00263
C8    1    0.599542    0.275528    0.862801    11.00000    0.04907    0.01644 =
         0.01861    0.00354   -0.00205   -0.00442
AFIX  43
H8    2    0.735205    0.214171    0.899840    11.00000   -1.20000
AFIX   0
C9    1   -0.373305    0.869038    0.453594    11.00000    0.08251    0.02129 =
         0.03091   -0.00938   -0.01573   -0.00054
AFIX  23
H9A   2   -0.509328    0.856314    0.405821    11.00000   -1.20000
H9B   2   -0.520574    0.885725    0.512370    11.00000   -1.20000
AFIX   0
C10   1    0.252931    1.030060    0.125222    11.00000    0.04933    0.02131 =
         0.02497   -0.00343   -0.01054    0.00026
AFIX 137
H10A  2    0.491745    1.016344    0.123451    11.00000   -1.50000
H10B  2    0.193382    1.099915    0.072671    11.00000   -1.50000
H10C  2    0.169595    0.973989    0.108244    11.00000   -1.50000
AFIX   0
C11   1    0.150489    1.119964    0.273157    11.00000    0.04335    0.01821 =
         0.03198    0.00097   -0.01291   -0.00884
AFIX 137
H11A  2   -0.064176    1.154990    0.291505    11.00000   -1.50000
H11B  2    0.274918    1.172278    0.216507    11.00000   -1.50000
H11C  2    0.270072    1.091026    0.336227    11.00000   -1.50000
AFIX   0
C12   1    0.105258    1.029955    0.234985    11.00000    0.05227    0.03022 =
         0.01936   -0.00531   -0.01197    0.00422
HKLF 5




REM  377_a.res in P-1
REM wR2 = 0.1886, GooF = S = 1.007, Restrained GooF = 1.007 for all data
REM R1 = 0.0754 for 1512 Fo > 4sig(Fo) and 0.1047 for all 2251 data
REM 190 parameters refined using 0 restraints

END

WGHT      0.0765      0.0000

REM Highest difference peak  1.164,  deepest hole -0.596,  1-sigma level  0.128
Q1    1  -0.1428  0.4165  0.5864  11.00000  0.05    0.60
Q2    1  -0.1286  0.5417  0.5537  11.00000  0.05    0.59
Q3    1   0.2849  0.4704  0.5416  11.00000  0.05    0.56
Q4    1   0.0106  0.4378  0.5657  11.00000  0.05    0.51
Q5    1   0.2461  0.3785  0.6143  11.00000  0.05    0.46
Q6    1   0.0904  0.5332  0.5541  11.00000  0.05    0.45
Q7    1  -0.0778  0.5390  0.4249  11.00000  0.05    0.42
Q8    1   0.4735  0.3810  0.9286  11.00000  0.05    0.41
Q9    1   0.5000  0.5000  0.5000  10.50000  0.05    0.41
Q10   1   0.2275  0.3852  0.5462  11.00000  0.05    0.40
Q11   1  -0.1569  1.0912  0.3519  11.00000  0.05    0.38
Q12   1  -0.0375  1.0037  0.4021  11.00000  0.05    0.38
Q13   1   0.6622  1.0416  0.1221  11.00000  0.05    0.36
Q14   1   0.1723  1.0788  0.1638  11.00000  0.05    0.36
Q15   1   0.6910  0.4141  0.9303  11.00000  0.05    0.36
Q16   1   0.1417  1.0280  0.2594  11.00000  0.05    0.35
Q17   1   0.2404  0.4735  0.7935  11.00000  0.05    0.35
Q18   1   0.3384  0.6162  0.6825  11.00000  0.05    0.35
Q19   1  -0.4017  0.7006  0.5016  11.00000  0.05    0.34
Q20   1   0.3950  1.0206  0.2018  11.00000  0.05    0.34
;
_shelx_res_checksum              63857
_shelx_hkl_file
;
   1   1   1   69199    6574  -2
   1   0   0   69199    6574   1
   2   2   2    9236    2255  -2
   2   0   0    9236    2255   1
   3   3   3    3314    2613  -2
   3   0   0    3314    2613   1
   4   4   4    1125    1416  -2
   4   0   0    1125    1416   1
  -4  -5  -4    4353    2755  -2
  -4   1   0    4353    2755   1
  -3  -4  -3   13828    5528  -2
  -3   1   0   13828    5528   1
  -2  -3  -2    9158    2379  -2
  -2   1   0    9158    2379   1
  -1  -2  -1  119317   10137  -2
  -1   1   0  119317   10137   1
   1   0   1  320195   15938  -2
   1   1   0  320195   15938   1
   2   1   2   45875    4199  -2
   2   1   0   45875    4199   1
   4   3   4    6065    1671  -2
   4   1   0    6065    1671   1
  -4  -6  -4      79     864  -2
  -4   2   0      79     864   1
  -3  -5  -3    3626     769  -2
  -3   2   0    3626     769   1
  -2  -4  -2   28494    3852  -2
  -2   2   0   28494    3852   1
  -1  -3  -1  147249   11352  -2
  -1   2   0  147249   11352   1
   0  -2   0  340344   11373  -2
   0   2   0  340344   11373   1
   1  -1   1 1116288   35497  -2
   1   2   0 1116288   35497   1
   2   0   2   21909    3700  -2
   2   2   0   21909    3700   1
   3   1   3     445      81  -2
   3   2   0     445      81   1
   4   2   4    8718    4166  -2
   4   2   0    8718    4166   1
  -4  -7  -4    3130    3654  -2
  -4   3   0    3130    3654   1
  -3  -6  -3    1179    1969  -2
  -3   3   0    1179    1969   1
  -2  -5  -2   10733    2568  -2
  -2   3   0   10733    2568   1
  -1  -4  -1   39315    5728  -2
  -1   3   0   39315    5728   1
   0  -3   0  118204    6805  -2
   0   3   0  118204    6805   1
   1  -2   1 2528296   61006  -2
   1   3   0 2528296   61006   1
   2  -1   2  206595   10403  -2
   2   3   0  206595   10403   1
   3   0   3   11153    4126  -2
   3   3   0   11153    4126   1
   4   1   4    2807    2430  -2
   4   3   0    2807    2430   1
  -4  -8  -4    5398    4260  -2
  -4   4   0    5398    4260   1
  -3  -7  -3      72    1398  -2
  -3   4   0      72    1398   1
  -2  -6  -2   13086    2830  -2
  -2   4   0   13086    2830   1
  -1  -5  -1  119347    5319  -2
  -1   4   0  119347    5319   1
   0  -4   0   31022    6288  -2
   0   4   0   31022    6288   1
   1  -3   1  191407   11942  -2
   1   4   0  191407   11942   1
   2  -2   2   21411    4309  -2
   2   4   0   21411    4309   1
   3  -1   3    8711    3642  -2
   3   4   0    8711    3642   1
   4   0   4    1906    2110  -2
   4   4   0    1906    2110   1
  -4  -9  -4    1137    2195  -2
  -4   5   0    1137    2195   1
  -3  -8  -3    4780    3922  -2
  -3   5   0    4780    3922   1
  -2  -7  -2    4600    2182  -2
  -2   5   0    4600    2182   1
  -1  -6  -1    3962    1863  -2
  -1   5   0    3962    1863   1
   0  -5   0    8958    2105  -2
   0   5   0    8958    2105   1
   1  -4   1   75511    6579  -2
   1   5   0   75511    6579   1
   2  -3   2  334098   15284  -2
   2   5   0  334098   15284   1
   3  -2   3    1499    1490  -2
   3   5   0    1499    1490   1
   4  -1   4    3073    2425  -2
   4   5   0    3073    2425   1
  -4 -10  -4    4905    3969  -2
  -4   6   0    4905    3969   1
  -3  -9  -3   14261    6751  -2
  -3   6   0   14261    6751   1
  -2  -8  -2  104158   13063  -2
  -2   6   0  104158   13063   1
  -1  -7  -1   30775    2722  -2
  -1   6   0   30775    2722   1
   0  -6   0    2198    1383  -2
   0   6   0    2198    1383   1
   1  -5   1   10278    2652  -2
   1   6   0   10278    2652   1
   2  -4   2   47540    5317  -2
   2   6   0   47540    5317   1
   3  -3   3    3870    2337  -2
   3   6   0    3870    2337   1
   4  -2   4    2948    2112  -2
   4   6   0    2948    2112   1
  -3 -10  -3    7176    4759  -2
  -3   7   0    7176    4759   1
  -2  -9  -2    5016    3354  -2
  -2   7   0    5016    3354   1
  -1  -8  -1   11277    1911  -2
  -1   7   0   11277    1911   1
   0  -7   0    2250    1113  -2
   0   7   0    2250    1113   1
   1  -6   1   62883    7098  -2
   1   7   0   62883    7098   1
   2  -5   2   31144    4304  -2
   2   7   0   31144    4304   1
   3  -4   3     929    1104  -2
   3   7   0     929    1104   1
   4  -3   4    3493    2622  -2
   4   7   0    3493    2622   1
  -3 -11  -3    9375    5549  -2
  -3   8   0    9375    5549   1
  -2 -10  -2   12544    3839  -2
  -2   8   0   12544    3839   1
  -1  -9  -1   17288    2341  -2
  -1   8   0   17288    2341   1
   0  -8   0   24815    3392  -2
   0   8   0   24815    3392   1
   1  -7   1    6454    1574  -2
   1   8   0    6454    1574   1
   2  -6   2     960    1169  -2
   2   8   0     960    1169   1
   3  -5   3    7043    3371  -2
   3   8   0    7043    3371   1
   4  -4   4    3466    2535  -2
   4   8   0    3466    2535   1
  -3 -12  -3    9480    5612  -2
  -3   9   0    9480    5612   1
  -2 -11  -2     266    1475  -2
  -2   9   0     266    1475   1
  -1 -10  -1    6625    1849  -2
  -1   9   0    6625    1849   1
   0  -9   0   28681    3333  -2
   0   9   0   28681    3333   1
   1  -8   1   14592    2022  -2
   1   9   0   14592    2022   1
   2  -7   2    8041    3070  -2
   2   9   0    8041    3070   1
   3  -6   3   16049    4764  -2
   3   9   0   16049    4764   1
   4  -5   4     989    1421  -2
   4   9   0     989    1421   1
  -3 -13  -3   25851    9554  -2
  -3  10   0   25851    9554   1
  -2 -12  -2   22332    7315  -2
  -2  10   0   22332    7315   1
  -1 -11  -1   22803    2651  -2
  -1  10   0   22803    2651   1
   0 -10   0    2830    1416  -2
   0  10   0    2830    1416   1
   1  -9   1    8281    3052  -2
   1  10   0    8281    3052   1
   2  -8   2     978    1368  -2
   2  10   0     978    1368   1
   3  -7   3    6299    2905  -2
   3  10   0    6299    2905   1
  -2 -13  -2    6167    3861  -2
  -2  11   0    6167    3861   1
  -1 -12  -1   19872    8547  -2
  -1  11   0   19872    8547   1
   0 -11   0   76727   10374  -2
   0  11   0   76727   10374   1
   1 -10   1   43744    7298  -2
   1  11   0   43744    7298   1
   2  -9   2    5895    3613  -2
   2  11   0    5895    3613   1
   3  -8   3     177      82  -2
   3  11   0     177      82   1
  -2 -14  -2   12277    5944  -2
  -2  12   0   12277    5944   1
  -1 -13  -1   22704    6726  -2
  -1  12   0   22704    6726   1
   0 -12   0    2719    2232  -2
   0  12   0    2719    2232   1
   1 -11   1   24472    5705  -2
   1  12   0   24472    5705   1
   2 -10   2    6856    3754  -2
   2  12   0    6856    3754   1
   3  -9   3    4787    2877  -2
   3  12   0    4787    2877   1
  -1 -14  -1   22011    7029  -2
  -1  13   0   22011    7029   1
   0 -13   0   17194    5319  -2
   0  13   0   17194    5319   1
   1 -12   1    7568    3450  -2
   1  13   0    7568    3450   1
   2 -11   2    9300    4065  -2
   2  13   0    9300    4065   1
   0 -14   0     683     849  -2
   0  14   0     683     849   1
   1 -13   1    6790    3558  -2
   1  14   0    6790    3558   1
  -1  13  -2    2408    1789  -2
  -1 -14   1    2408    1789   1
   0  14  -1    2085    2164  -2
   0 -14   1    2085    2164   1
  -2  11  -3     867    1524  -2
  -2 -13   1     867    1524   1
  -1  12  -2   10403    4554  -2
  -1 -13   1   10403    4554   1
   0  13  -1   14829    5307  -2
   0 -13   1   14829    5307   1
   1  14   0    8167    4299  -2
   1 -13   1    8167    4299   1
  -2  10  -3    1648    1915  -2
  -2 -12   1    1648    1915   1
  -1  11  -2    3353    2038  -2
  -1 -12   1    3353    2038   1
   0  12  -1     539    1227  -2
   0 -12   1     539    1227   1
   1  13   0    8207    4054  -2
   1 -12   1    8207    4054   1
   2  14   1   14440    6388  -2
   2 -12   1   14440    6388   1
  -3   8  -4    1647    1866  -2
  -3 -11   1    1647    1866   1
  -2   9  -3    4705    3049  -2
  -2 -11   1    4705    3049   1
  -1  10  -2   16527    4691  -2
  -1 -11   1   16527    4691   1
   0  11  -1   61218    9537  -2
   0 -11   1   61218    9537   1
   1  12   0   21388    2369  -2
   1 -11   1   21388    2369   1
   2  13   1    6756    4732  -2
   2 -11   1    6756    4732   1
  -3   7  -4    2889    2911  -2
  -3 -10   1    2889    2911   1
  -2   8  -3    5788    3023  -2
  -2 -10   1    5788    3023   1
  -1   9  -2    5610    2598  -2
  -1 -10   1    5610    2598   1
   0  10  -1     921     533  -2
   0 -10   1     921     533   1
   1  11   0   35641    3692  -2
   1 -10   1   35641    3692   1
   2  12   1   10534    5157  -2
   2 -10   1   10534    5157   1
   3  13   2   12433    6822  -2
   3 -10   1   12433    6822   1
  -3   6  -4    -479     336  -2
  -3  -9   1    -479     336   1
  -2   7  -3   21237    5057  -2
  -2  -9   1   21237    5057   1
  -1   8  -2   14040    2172  -2
  -1  -9   1   14040    2172   1
   0   9  -1   11459    2427  -2
   0  -9   1   11459    2427   1
   1  10   0    8662    3511  -2
   1  -9   1    8662    3511   1
   2  11   1    2866     949  -2
   2  -9   1    2866     949   1
   3  12   2    2123    2693  -2
   3  -9   1    2123    2693   1
  -4   4  -5    4971    3056  -2
  -4  -8   1    4971    3056   1
  -3   5  -4    3522    2182  -2
  -3  -8   1    3522    2182   1
  -2   6  -3    2863    1702  -2
  -2  -8   1    2863    1702   1
  -1   7  -2      89     529  -2
  -1  -8   1      89     529   1
   0   8  -1    9419    1774  -2
   0  -8   1    9419    1774   1
   1   9   0   15783    2761  -2
   1  -8   1   15783    2761   1
   2  10   1   31888    8438  -2
   2  -8   1   31888    8438   1
   3  11   2    8235    5150  -2
   3  -8   1    8235    5150   1
  -4   3  -5     651    1447  -2
  -4  -7   1     651    1447   1
  -3   4  -4   41922    7691  -2
  -3  -7   1   41922    7691   1
  -2   5  -3    3459    2257  -2
  -2  -7   1    3459    2257   1
  -1   6  -2   18946    2115  -2
  -1  -7   1   18946    2115   1
   0   7  -1    5328    2092  -2
   0  -7   1    5328    2092   1
   1   8   0    9648    1662  -2
   1  -7   1    9648    1662   1
   2   9   1    6605    3663  -2
   2  -7   1    6605    3663   1
   3  10   2   15062    7138  -2
   3  -7   1   15062    7138   1
  -4   2  -5    1427    1997  -2
  -4  -6   1    1427    1997   1
  -3   3  -4   56456    9297  -2
  -3  -6   1   56456    9297   1
  -2   4  -3    8109    2168  -2
  -2  -6   1    8109    2168   1
  -1   5  -2  101064    8353  -2
  -1  -6   1  101064    8353   1
   0   6  -1   21370    3974  -2
   0  -6   1   21370    3974   1
   1   7   0   56730    5443  -2
   1  -6   1   56730    5443   1
   2   8   1   33055    7450  -2
   2  -6   1   33055    7450   1
   3   9   2    9401    5011  -2
   3  -6   1    9401    5011   1
   4  10   3    4421    3325  -2
   4  -6   1    4421    3325   1
  -4   1  -5     944    1452  -2
  -4  -5   1     944    1452   1
  -3   2  -4   33464    7124  -2
  -3  -5   1   33464    7124   1
  -2   3  -3  136983   10562  -2
  -2  -5   1  136983   10562   1
  -1   4  -2  208167    8512  -2
  -1  -5   1  208167    8512   1
   0   5  -1    2254     688  -2
   0  -5   1    2254     688   1
   1   6   0    8424    2111  -2
   1  -5   1    8424    2111   1
   2   7   1     -47     701  -2
   2  -5   1     -47     701   1
   3   8   2   11432    5399  -2
   3  -5   1   11432    5399   1
   4   9   3   -1959    1320  -2
   4  -5   1   -1959    1320   1
  -4   0  -5    -212     283  -2
  -4  -4   1    -212     283   1
  -3   1  -4     790     827  -2
  -3  -4   1     790     827   1
  -2   2  -3  306788   15265  -2
  -2  -4   1  306788   15265   1
  -1   3  -2  245391    8915  -2
  -1  -4   1  245391    8915   1
   0   4  -1   27171    2217  -2
   0  -4   1   27171    2217   1
   1   5   0   97040    7427  -2
   1  -4   1   97040    7427   1
   2   6   1   40981    4953  -2
   2  -4   1   40981    4953   1
   3   7   2    1971    2935  -2
   3  -4   1    1971    2935   1
   4   8   3     646     908  -2
   4  -4   1     646     908   1
  -4  -1  -5     962    1671  -2
  -4  -3   1     962    1671   1
  -3   0  -4    2487    2321  -2
  -3  -3   1    2487    2321   1
  -2   1  -3  149249   11176  -2
  -2  -3   1  149249   11176   1
  -1   2  -2   19697    2365  -2
  -1  -3   1   19697    2365   1
   0   3  -1  251635   15667  -2
   0  -3   1  251635   15667   1
   1   4   0   35310   71701  -2
   1  -3   1   35310   71701   1
   2   5   1   70725   10079  -2
   2  -3   1   70725   10079   1
   3   6   2    7157    4181  -2
   3  -3   1    7157    4181   1
   4   7   3    -454     730  -2
   4  -3   1    -454     730   1
  -4  -2  -5    3516    3101  -2
  -4  -2   1    3516    3101   1
  -3  -1  -4    5129    2502  -2
  -3  -2   1    5129    2502   1
  -2   0  -3   28191    4007  -2
  -2  -2   1   28191    4007   1
  -1   1  -2  249133    9593  -2
  -1  -2   1  249133    9593   1
   0   2  -1   39976    2396  -2
   0  -2   1   39976    2396   1
   1   3   0  851057   23413  -2
   1  -2   1  851057   23413   1
   2   4   1   51391    8214  -2
   2  -2   1   51391    8214   1
   3   5   2   11922    1123  -2
   3  -2   1   11922    1123   1
   4   6   3    1380    2567  -2
   4  -2   1    1380    2567   1
  -4  -3  -5    2227    2215  -2
  -4  -1   1    2227    2215   1
  -3  -2  -4   13845    5041  -2
  -3  -1   1   13845    5041   1
  -2  -1  -3   39026    4439  -2
  -2  -1   1   39026    4439   1
  -1   0  -2 1884889   37847  -2
  -1  -1   1 1884889   37847   1
   0   1  -1     330     112  -2
   0  -1   1     330     112   1
   1   2   0  401586   15128  -2
   1  -1   1  401586   15128   1
   2   3   1   11301   18450  -2
   2  -1   1   11301   18450   1
   3   4   2   30134    6061  -2
   3  -1   1   30134    6061   1
   4   5   3   -1102    1922  -2
   4  -1   1   -1102    1922   1
  -4  -4  -5    -491    1046  -2
  -4   0   1    -491    1046   1
  -3  -3  -4     849    1488  -2
  -3   0   1     849    1488   1
  -2  -2  -3   27668    3884  -2
  -2   0   1   27668    3884   1
  -1  -1  -2  502148   15015  -2
  -1   0   1  502148   15015   1
   1   1   0  328231    9693  -2
   1   0   1  328231    9693   1
   2   2   1   11572    4989  -2
   2   0   1   11572    4989   1
   3   3   2   17465    5790  -2
   3   0   1   17465    5790   1
   4   4   3     447     641  -2
   4   0   1     447     641   1
  -4  -5  -5    1678    1155  -2
  -4   1   1    1678    1155   1
  -3  -4  -4    6146    4427  -2
  -3   1   1    6146    4427   1
  -2  -3  -3   15816    3141  -2
  -2   1   1   15816    3141   1
  -1  -2  -2   37770    3107  -2
  -1   1   1   37770    3107   1
   0  -1  -1   49587    3471  -2
   0   1   1   49587    3471   1
   1   0   0   75167    3762  -2
   1   1   1   75167    3762   1
   2   1   1   17549    3290  -2
   2   1   1   17549    3290   1
   3   2   2   33006    7821  -2
   3   1   1   33006    7821   1
   4   3   3   11420    2582  -2
   4   1   1   11420    2582   1
  -4  -6  -5     111     638  -2
  -4   2   1     111     638   1
  -3  -5  -4    4732    1668  -2
  -3   2   1    4732    1668   1
  -2  -4  -3   11737    1767  -2
  -2   2   1   11737    1767   1
  -1  -3  -2   21451    1686  -2
  -1   2   1   21451    1686   1
   0  -2  -1  682757   14677  -2
   0   2   1  682757   14677   1
   1  -1   0   80451    6606  -2
   1   2   1   80451    6606   1
   2   0   1   24188    5047  -2
   2   2   1   24188    5047   1
   3   1   2    7333    3795  -2
   3   2   1    7333    3795   1
   4   2   3   17017    3104  -2
   4   2   1   17017    3104   1
  -4  -7  -5    2223    2874  -2
  -4   3   1    2223    2874   1
  -3  -6  -4    3068    3388  -2
  -3   3   1    3068    3388   1
  -2  -5  -3    8550    4897  -2
  -2   3   1    8550    4897   1
  -1  -4  -2   22052    1445  -2
  -1   3   1   22052    1445   1
   0  -3  -1  321533    6668  -2
   0   3   1  321533    6668   1
   1  -2   0  106434    7651  -2
   1   3   1  106434    7651   1
   2  -1   1   56856    8034  -2
   2   3   1   56856    8034   1
   3   0   2    9546    4355  -2
   3   3   1    9546    4355   1
   4   1   3    7133    2083  -2
   4   3   1    7133    2083   1
  -4  -8  -5    2384    3224  -2
  -4   4   1    2384    3224   1
  -3  -7  -4    2144    1467  -2
  -3   4   1    2144    1467   1
  -2  -6  -3   10874    1372  -2
  -2   4   1   10874    1372   1
  -1  -5  -2   85059    3275  -2
  -1   4   1   85059    3275   1
   0  -4  -1     712     366  -2
   0   4   1     712     366   1
   1  -3   0   31860    4146  -2
   1   4   1   31860    4146   1
   2  -2   1   35209    5652  -2
   2   4   1   35209    5652   1
   3  -1   2     851     644  -2
   3   4   1     851     644   1
   4   0   3    3484    3068  -2
   4   4   1    3484    3068   1
  -4  -9  -5    1375    3487  -2
  -4   5   1    1375    3487   1
  -3  -8  -4    4089    3658  -2
  -3   5   1    4089    3658   1
  -2  -7  -3    3275    2249  -2
  -2   5   1    3275    2249   1
  -1  -6  -2    1060     425  -2
  -1   5   1    1060     425   1
   0  -5  -1   90833    4476  -2
   0   5   1   90833    4476   1
   1  -4   0  117153    6534  -2
   1   5   1  117153    6534   1
   2  -3   1   57534    7155  -2
   2   5   1   57534    7155   1
   3  -2   2    8499    3431  -2
   3   5   1    8499    3431   1
   4  -1   3    1229    1242  -2
   4   5   1    1229    1242   1
  -4 -10  -5    -497     331  -2
  -4   6   1    -497     331   1
  -3  -9  -4   26497    8227  -2
  -3   6   1   26497    8227   1
  -2  -8  -3   57111    6126  -2
  -2   6   1   57111    6126   1
  -1  -7  -2   24832    2938  -2
  -1   6   1   24832    2938   1
   0  -6  -1    6439    1222  -2
   0   6   1    6439    1222   1
   1  -5   0    4656    1767  -2
   1   6   1    4656    1767   1
   2  -4   1   35999    4528  -2
   2   6   1   35999    4528   1
   3  -3   2    9239    3586  -2
   3   6   1    9239    3586   1
   4  -2   3    4348    3089  -2
   4   6   1    4348    3089   1
  -3 -10  -4    1777    2654  -2
  -3   7   1    1777    2654   1
  -2  -9  -3   31710    7547  -2
  -2   7   1   31710    7547   1
  -1  -8  -2  119427    6080  -2
  -1   7   1  119427    6080   1
   0  -7  -1   27526    2777  -2
   0   7   1   27526    2777   1
   1  -6   0   31823    3136  -2
   1   7   1   31823    3136   1
   2  -5   1     948     711  -2
   2   7   1     948     711   1
   3  -4   2    4648    2497  -2
   3   7   1    4648    2497   1
   4  -3   3    2636    2335  -2
   4   7   1    2636    2335   1
  -3 -11  -4    6093    4852  -2
  -3   8   1    6093    4852   1
  -2 -10  -3   13738    7763  -2
  -2   8   1   13738    7763   1
  -1  -9  -2   41728    3636  -2
  -1   8   1   41728    3636   1
   0  -8  -1    5459    1496  -2
   0   8   1    5459    1496   1
   1  -7   0   13237    2237  -2
   1   8   1   13237    2237   1
   2  -6   1   20692    4598  -2
   2   8   1   20692    4598   1
   3  -5   2    1653    2097  -2
   3   8   1    1653    2097   1
   4  -4   3    4262    2938  -2
   4   8   1    4262    2938   1
  -3 -12  -4    2768    2278  -2
  -3   9   1    2768    2278   1
  -2 -11  -3   15085    2747  -2
  -2   9   1   15085    2747   1
  -1 -10  -2   23402    5170  -2
  -1   9   1   23402    5170   1
   0  -9  -1   32105    2980  -2
   0   9   1   32105    2980   1
   1  -8   0   13334    2117  -2
   1   9   1   13334    2117   1
   2  -7   1    3333    1908  -2
   2   9   1    3333    1908   1
   3  -6   2     765    1334  -2
   3   9   1     765    1334   1
   4  -5   3     505    1446  -2
   4   9   1     505    1446   1
  -3 -13  -4    7121    5731  -2
  -3  10   1    7121    5731   1
  -2 -12  -3    3484    3447  -2
  -2  10   1    3484    3447   1
  -1 -11  -2     573     338  -2
  -1  10   1     573     338   1
   0 -10  -1  134084    7574  -2
   0  10   1  134084    7574   1
   1  -9   0    9406    3173  -2
   1  10   1    9406    3173   1
   2  -8   1   25467    5670  -2
   2  10   1   25467    5670   1
   3  -7   2    8259    3937  -2
   3  10   1    8259    3937   1
  -2 -13  -3   10878    5436  -2
  -2  11   1   10878    5436   1
  -1 -12  -2    7588    9170  -2
  -1  11   1    7588    9170   1
   0 -11  -1  103122    8787  -2
   0  11   1  103122    8787   1
   1 -10   0   21500    5027  -2
   1  11   1   21500    5027   1
   2  -9   1    1342    1568  -2
   2  11   1    1342    1568   1
   3  -8   2    4952    2907  -2
   3  11   1    4952    2907   1
  -2 -14  -3    2892    2671  -2
  -2  12   1    2892    2671   1
  -1 -13  -2    6655    2077  -2
  -1  12   1    6655    2077   1
   0 -12  -1   12282    4283  -2
   0  12   1   12282    4283   1
   1 -11   0   47021    7705  -2
   1  12   1   47021    7705   1
   2 -10   1    5924    3013  -2
   2  12   1    5924    3013   1
   3  -9   2    1518    1758  -2
   3  12   1    1518    1758   1
  -1 -14  -2   19367    6283  -2
  -1  13   1   19367    6283   1
   0 -13  -1    3296    2391  -2
   0  13   1    3296    2391   1
   1 -12   0   28381    6341  -2
   1  13   1   28381    6341   1
   2 -11   1    8222    3532  -2
   2  13   1    8222    3532   1
  -1 -15  -2   18639    6497  -2
  -1  14   1   18639    6497   1
   0 -14  -1    7638    3827  -2
   0  14   1    7638    3827   1
   1 -13   0   17397    5188  -2
   1  14   1   17397    5188   1
   2 -12   1    5280    3068  -2
   2  14   1    5280    3068   1
  -1  12  -3   11994    4802  -2
  -1 -13   2   11994    4802   1
   0  13  -2     584     781  -2
   0 -13   2     584     781   1
   1  14  -1    4922    3497  -2
   1 -13   2    4922    3497   1
  -2  10  -4    4931    3513  -2
  -2 -12   2    4931    3513   1
  -1  11  -3    7591    3436  -2
  -1 -12   2    7591    3436   1
   0  12  -2   23214    6281  -2
   0 -12   2   23214    6281   1
   1  13  -1    9440    4387  -2
   1 -12   2    9440    4387   1
  -3   8  -5   -3393    2334  -2
  -3 -11   2   -3393    2334   1
  -2   9  -4    8609    3923  -2
  -2 -11   2    8609    3923   1
  -1  10  -3   35577    7030  -2
  -1 -11   2   35577    7030   1
   0  11  -2    7893    3300  -2
   0 -11   2    7893    3300   1
   1  12  -1    4749    1376  -2
   1 -11   2    4749    1376   1
   2  13   0   16657    6918  -2
   2 -11   2   16657    6918   1
  -3   7  -5    3535    2526  -2
  -3 -10   2    3535    2526   1
  -2   8  -4    1929    1158  -2
  -2 -10   2    1929    1158   1
  -1   9  -3   12958    3905  -2
  -1 -10   2   12958    3905   1
   0  10  -2   12058    4146  -2
   0 -10   2   12058    4146   1
   1  11  -1   16557    2701  -2
   1 -10   2   16557    2701   1
   2  12   0   13941    5932  -2
   2 -10   2   13941    5932   1
  -3   6  -5    1294    1600  -2
  -3  -9   2    1294    1600   1
  -2   7  -4     408    1097  -2
  -2  -9   2     408    1097   1
  -1   8  -3   33336    5184  -2
  -1  -9   2   33336    5184   1
   0   9  -2    4144    2184  -2
   0  -9   2    4144    2184   1
   1  10  -1    6180    1711  -2
   1  -9   2    6180    1711   1
   2  11   0   14537    5825  -2
   2  -9   2   14537    5825   1
   3  12   1    1093    1546  -2
   3  -9   2    1093    1546   1
  -3   5  -5    5749    2780  -2
  -3  -8   2    5749    2780   1
  -2   6  -4    1172    1638  -2
  -2  -8   2    1172    1638   1
  -1   7  -3   34133    3628  -2
  -1  -8   2   34133    3628   1
   0   8  -2  191646    8674  -2
   0  -8   2  191646    8674   1
   1   9  -1   10546    2320  -2
   1  -8   2   10546    2320   1
   2  10   0    2317     751  -2
   2  -8   2    2317     751   1
   3  11   1    7240    5200  -2
   3  -8   2    7240    5200   1
  -4   3  -6    4905    3322  -2
  -4  -7   2    4905    3322   1
  -3   4  -5    3797    2849  -2
  -3  -7   2    3797    2849   1
  -2   5  -4   10943    3232  -2
  -2  -7   2   10943    3232   1
  -1   6  -3   13665    1932  -2
  -1  -7   2   13665    1932   1
   0   7  -2  125143    6474  -2
   0  -7   2  125143    6474   1
   1   8  -1     464     825  -2
   1  -7   2     464     825   1
   2   9   0    7138    3643  -2
   2  -7   2    7138    3643   1
   3  10   1   18677    7633  -2
   3  -7   2   18677    7633   1
  -4   2  -6    3200    2485  -2
  -4  -6   2    3200    2485   1
  -3   3  -5    7468    2994  -2
  -3  -6   2    7468    2994   1
  -2   4  -4   14732    3007  -2
  -2  -6   2   14732    3007   1
  -1   5  -3    2140     714  -2
  -1  -6   2    2140     714   1
   0   6  -2  314192   63097  -2
   0  -6   2  314192   63097   1
   1   7  -1   20122    3138  -2
   1  -6   2   20122    3138   1
   2   8   0    1536    1721  -2
   2  -6   2    1536    1721   1
   3   9   1     852    2808  -2
   3  -6   2     852    2808   1
   4  10   2    5007    4459  -2
   4  -6   2    5007    4459   1
  -4   1  -6    1903    2309  -2
  -4  -5   2    1903    2309   1
  -3   2  -5   36498    7230  -2
  -3  -5   2   36498    7230   1
  -2   3  -4   53061    5582  -2
  -2  -5   2   53061    5582   1
  -1   4  -3   39218    4947  -2
  -1  -5   2   39218    4947   1
   0   5  -2    7569    1152  -2
   0  -5   2    7569    1152   1
   1   6  -1  105132   11138  -2
   1  -5   2  105132   11138   1
   2   7   0   36776    4802  -2
   2  -5   2   36776    4802   1
   3   8   1    2143    2422  -2
   3  -5   2    2143    2422   1
   4   9   2   10128    5820  -2
   4  -5   2   10128    5820   1
  -4   0  -6    1474    1692  -2
  -4  -4   2    1474    1692   1
  -3   1  -5    4625    2482  -2
  -3  -4   2    4625    2482   1
  -2   2  -4   48745    5328  -2
  -2  -4   2   48745    5328   1
  -1   3  -3  204418    9384  -2
  -1  -4   2  204418    9384   1
   0   4  -2   62947    3362  -2
   0  -4   2   62947    3362   1
   1   5  -1  318241   17896  -2
   1  -4   2  318241   17896   1
   2   6   0   47009    5280  -2
   2  -4   2   47009    5280   1
   3   7   1    6373    3873  -2
   3  -4   2    6373    3873   1
   4   8   2    3389    3508  -2
   4  -4   2    3389    3508   1
  -4  -1  -6    1389    2606  -2
  -4  -3   2    1389    2606   1
  -3   0  -5    6351    3143  -2
  -3  -3   2    6351    3143   1
  -2   1  -4    2087     942  -2
  -2  -3   2    2087     942   1
  -1   2  -3   35922    3299  -2
  -1  -3   2   35922    3299   1
   0   3  -2    8064    1049  -2
   0  -3   2    8064    1049   1
   1   4  -1  342781   13565  -2
   1  -3   2  342781   13565   1
   2   5   0  278424   37323  -2
   2  -3   2  278424   37323   1
   3   6   1   10238    4943  -2
   3  -3   2   10238    4943   1
   4   7   2    2213    2778  -2
   4  -3   2    2213    2778   1
  -4  -2  -6    5924    3572  -2
  -4  -2   2    5924    3572   1
  -3  -1  -5    2709    2373  -2
  -3  -2   2    2709    2373   1
  -2   0  -4   93065   10510  -2
  -2  -2   2   93065   10510   1
  -1   1  -3  162157    7416  -2
  -1  -2   2  162157    7416   1
   0   2  -2     699     266  -2
   0  -2   2     699     266   1
   1   3  -1   20587    1558  -2
   1  -2   2   20587    1558   1
   2   4   0   27280    5809  -2
   2  -2   2   27280    5809   1
   3   5   1    8902    4188  -2
   3  -2   2    8902    4188   1
   4   6   2    4584    4571  -2
   4  -2   2    4584    4571   1
  -4  -3  -6     635     920  -2
  -4  -1   2     635     920   1
  -3  -2  -5    7893    3571  -2
  -3  -1   2    7893    3571   1
  -2  -1  -4    4785    3968  -2
  -2  -1   2    4785    3968   1
  -1   0  -3    4857    1128  -2
  -1  -1   2    4857    1128   1
   0   1  -2  198722    4190  -2
   0  -1   2  198722    4190   1
   1   2  -1  232155    6988  -2
   1  -1   2  232155    6988   1
   2   3   0  277893   26125  -2
   2  -1   2  277893   26125   1
   3   4   1     461    1078  -2
   3  -1   2     461    1078   1
   4   5   2    2022    2721  -2
   4  -1   2    2022    2721   1
  -4  -4  -6    1293    1218  -2
  -4   0   2    1293    1218   1
  -3  -3  -5    7794    3516  -2
  -3   0   2    7794    3516   1
  -2  -2  -4   79020    5867  -2
  -2   0   2   79020    5867   1
  -1  -1  -3  187812    7811  -2
  -1   0   2  187812    7811   1
   0   0  -2  121034   11805  -2
   0   0   2  121034   11805   1
   1   1  -1  807409   16227  -2
   1   0   2  807409   16227   1
   2   2   0   19015    2395  -2
   2   0   2   19015    2395   1
   3   3   1    9690    2008  -2
   3   0   2    9690    2008   1
   4   4   2    2609    1690  -2
   4   0   2    2609    1690   1
  -4  -5  -6    4694    1727  -2
  -4   1   2    4694    1727   1
  -3  -4  -5    5679    2780  -2
  -3   1   2    5679    2780   1
  -2  -3  -4    1449     807  -2
  -2   1   2    1449     807   1
  -1  -2  -3    7155    1349  -2
  -1   1   2    7155    1349   1
   0  -1  -2  291868    6840  -2
   0   1   2  291868    6840   1
   1   0  -1  507644   15932  -2
   1   1   2  507644   15932   1
   2   1   0   33389    7060  -2
   2   1   2   33389    7060   1
   3   2   1   18029    3831  -2
   3   1   2   18029    3831   1
   4   3   2    -189     399  -2
   4   1   2    -189     399   1
  -4  -6  -6    3709    1360  -2
  -4   2   2    3709    1360   1
  -3  -5  -5    1230    1147  -2
  -3   2   2    1230    1147   1
  -2  -4  -4    9406    1648  -2
  -2   2   2    9406    1648   1
  -1  -3  -3    8324    1361  -2
  -1   2   2    8324    1361   1
   0  -2  -2  340964    4511  -2
   0   2   2  340964    4511   1
   1  -1  -1   41685    8119  -2
   1   2   2   41685    8119   1
   2   0   0   10786    2021  -2
   2   2   2   10786    2021   1
   3   1   1   43431    4664  -2
   3   2   2   43431    4664   1
   4   2   2    1292     666  -2
   4   2   2    1292     666   1
  -4  -7  -6    1170    1926  -2
  -4   3   2    1170    1926   1
  -3  -6  -5   46235   12049  -2
  -3   3   2   46235   12049   1
  -2  -5  -4   23108    2479  -2
  -2   3   2   23108    2479   1
  -1  -4  -3    1975     463  -2
  -1   3   2    1975     463   1
   0  -3  -2  137820    3813  -2
   0   3   2  137820    3813   1
   1  -2  -1   19795    2077  -2
   1   3   2   19795    2077   1
   2  -1   0    5808    1536  -2
   2   3   2    5808    1536   1
   3   0   1    6878    5221  -2
   3   3   2    6878    5221   1
   4   1   2    -260     538  -2
   4   3   2    -260     538   1
  -4  -8  -6    3385    3614  -2
  -4   4   2    3385    3614   1
  -3  -7  -5   19990    5784  -2
  -3   4   2   19990    5784   1
  -2  -6  -4   12450    2957  -2
  -2   4   2   12450    2957   1
  -1  -5  -3   14591    1540  -2
  -1   4   2   14591    1540   1
   0  -4  -2    1940     492  -2
   0   4   2    1940     492   1
   1  -3  -1   17009    2778  -2
   1   4   2   17009    2778   1
   2  -2   0   21833    4654  -2
   2   4   2   21833    4654   1
   3  -1   1   25385    6802  -2
   3   4   2   25385    6802   1
   4   0   2    4924    3217  -2
   4   4   2    4924    3217   1
  -4  -9  -6    -449    1687  -2
  -4   5   2    -449    1687   1
  -3  -8  -5   23492    2593  -2
  -3   5   2   23492    2593   1
  -2  -7  -4   25074    3791  -2
  -2   5   2   25074    3791   1
  -1  -6  -3   74352    6154  -2
  -1   5   2   74352    6154   1
   0  -5  -2   85843    3766  -2
   0   5   2   85843    3766   1
   1  -4  -1   82640    5414  -2
   1   5   2   82640    5414   1
   2  -3   0    7590    2995  -2
   2   5   2    7590    2995   1
   3  -2   1    1133    2176  -2
   3   5   2    1133    2176   1
   4  -1   2    3113    2466  -2
   4   5   2    3113    2466   1
  -4 -10  -6   -1029    3006  -2
  -4   6   2   -1029    3006   1
  -3  -9  -5   10542    6099  -2
  -3   6   2   10542    6099   1
  -2  -8  -4  158559   10691  -2
  -2   6   2  158559   10691   1
  -1  -7  -3   94761    5590  -2
  -1   6   2   94761    5590   1
   0  -6  -2   45924    3245  -2
   0   6   2   45924    3245   1
   1  -5  -1     287     727  -2
   1   6   2     287     727   1
   2  -4   0    7181    2420  -2
   2   6   2    7181    2420   1
   3  -3   1   14708    4433  -2
   3   6   2   14708    4433   1
   4  -2   2    6281    3420  -2
   4   6   2    6281    3420   1
  -3 -10  -5    2261    2713  -2
  -3   7   2    2261    2713   1
  -2  -9  -4  122903   13875  -2
  -2   7   2  122903   13875   1
  -1  -8  -3   95728    5489  -2
  -1   7   2   95728    5489   1
   0  -7  -2   28359    2753  -2
   0   7   2   28359    2753   1
   1  -6  -1   25968    3199  -2
   1   7   2   25968    3199   1
   2  -5   0    3087    1273  -2
   2   7   2    3087    1273   1
   3  -4   1   14542    4539  -2
   3   7   2   14542    4539   1
   4  -3   2    1579    1789  -2
   4   7   2    1579    1789   1
  -3 -11  -5    4391    4109  -2
  -3   8   2    4391    4109   1
  -2 -10  -4    9972    2054  -2
  -2   8   2    9972    2054   1
  -1  -9  -3   71069    4914  -2
  -1   8   2   71069    4914   1
   0  -8  -2    4191    1498  -2
   0   8   2    4191    1498   1
   1  -7  -1   90169    6642  -2
   1   8   2   90169    6642   1
   2  -6   0   90564   10039  -2
   2   8   2   90564   10039   1
   3  -5   1    7143    3279  -2
   3   8   2    7143    3279   1
   4  -4   2    2379    2306  -2
   4   8   2    2379    2306   1
  -3 -12  -5    3511    3925  -2
  -3   9   2    3511    3925   1
  -2 -11  -4   25120    8826  -2
  -2   9   2   25120    8826   1
  -1 -10  -3  170209   10392  -2
  -1   9   2  170209   10392   1
   0  -9  -2   81512    4731  -2
   0   9   2   81512    4731   1
   1  -8  -1   42463    4117  -2
   1   9   2   42463    4117   1
   2  -7   0    3821    2283  -2
   2   9   2    3821    2283   1
   3  -6   1    4396    2496  -2
   3   9   2    4396    2496   1
   4  -5   2    1335    2194  -2
   4   9   2    1335    2194   1
  -3 -13  -5    4889    4802  -2
  -3  10   2    4889    4802   1
  -2 -12  -4    7440    4107  -2
  -2  10   2    7440    4107   1
  -1 -11  -3   66929   10373  -2
  -1  10   2   66929   10373   1
   0 -10  -2   30314    3453  -2
   0  10   2   30314    3453   1
   1  -9  -1   59048    7840  -2
   1  10   2   59048    7840   1
   2  -8   0   14544    4101  -2
   2  10   2   14544    4101   1
   3  -7   1   16085    4676  -2
   3  10   2   16085    4676   1
   4  -6   2     572    1639  -2
   4  10   2     572    1639   1
  -2 -13  -4    7945    4914  -2
  -2  11   2    7945    4914   1
  -1 -12  -3   21105    3700  -2
  -1  11   2   21105    3700   1
   0 -11  -2  123732    9616  -2
   0  11   2  123732    9616   1
   1 -10  -1   11587    3690  -2
   1  11   2   11587    3690   1
   2  -9   0    4004    2323  -2
   2  11   2    4004    2323   1
   3  -8   1    5531    2950  -2
   3  11   2    5531    2950   1
  -2 -14  -4    4913    4003  -2
  -2  12   2    4913    4003   1
  -1 -13  -3    3466    1452  -2
  -1  12   2    3466    1452   1
   0 -12  -2  129552   14232  -2
   0  12   2  129552   14232   1
   1 -11  -1   32302    6361  -2
   1  12   2   32302    6361   1
   2 -10   0   17570    4967  -2
   2  12   2   17570    4967   1
   3  -9   1    2815    2141  -2
   3  12   2    2815    2141   1
  -1 -14  -3    3067    2418  -2
  -1  13   2    3067    2418   1
   0 -13  -2   24202    6240  -2
   0  13   2   24202    6240   1
   1 -12  -1    6789    3224  -2
   1  13   2    6789    3224   1
   2 -11   0    5571    2881  -2
   2  13   2    5571    2881   1
   3 -10   1    8795    4370  -2
   3  13   2    8795    4370   1
  -1 -15  -3    2556    2780  -2
  -1  14   2    2556    2780   1
   0 -14  -2   13321    5162  -2
   0  14   2   13321    5162   1
   1 -13  -1   15561    4995  -2
   1  14   2   15561    4995   1
   2 -12   0    7194    3821  -2
   2  14   2    7194    3821   1
   0 -15  -2    2642    2557  -2
   0  15   2    2642    2557   1
   1 -14  -1   15405    4949  -2
   1  15   2   15405    4949   1
  -1  12  -4    5570    2411  -2
  -1 -13   3    5570    2411   1
   0  13  -3   11554    4938  -2
   0 -13   3   11554    4938   1
  -2  10  -5     630     482  -2
  -2 -12   3     630     482   1
  -1  11  -4    6114    2898  -2
  -1 -12   3    6114    2898   1
   0  12  -3   25146    6827  -2
   0 -12   3   25146    6827   1
   1  13  -2   16070    6002  -2
   1 -12   3   16070    6002   1
  -2   9  -5    7099    3650  -2
  -2 -11   3    7099    3650   1
  -1  10  -4      24    1042  -2
  -1 -11   3      24    1042   1
   0  11  -3    6024    2983  -2
   0 -11   3    6024    2983   1
   1  12  -2   10509    2312  -2
   1 -11   3   10509    2312   1
   2  13  -1    2310    3247  -2
   2 -11   3    2310    3247   1
  -3   7  -6     787    1906  -2
  -3 -10   3     787    1906   1
  -2   8  -5   17847    4888  -2
  -2 -10   3   17847    4888   1
  -1   9  -4     574    1191  -2
  -1 -10   3     574    1191   1
   0  10  -3   27691    6272  -2
   0 -10   3   27691    6272   1
   1  11  -2   48069    4403  -2
   1 -10   3   48069    4403   1
   2  12  -1   -1052    2450  -2
   2 -10   3   -1052    2450   1
  -3   6  -6    2217    2197  -2
  -3  -9   3    2217    2197   1
  -2   7  -5   13497    2886  -2
  -2  -9   3   13497    2886   1
  -1   8  -4    8084    2967  -2
  -1  -9   3    8084    2967   1
   0   9  -3    4154    2536  -2
   0  -9   3    4154    2536   1
   1  10  -2    7512    1994  -2
   1  -9   3    7512    1994   1
   2  11  -1    5290    3834  -2
   2  -9   3    5290    3834   1
   3  12   0   10697    6248  -2
   3  -9   3   10697    6248   1
  -3   5  -6    5454    2800  -2
  -3  -8   3    5454    2800   1
  -2   6  -5    9381    3180  -2
  -2  -8   3    9381    3180   1
  -1   7  -4   88809    7823  -2
  -1  -8   3   88809    7823   1
   0   8  -3   25375    5459  -2
   0  -8   3   25375    5459   1
   1   9  -2   28158    6494  -2
   1  -8   3   28158    6494   1
   2  10  -1    9234    1149  -2
   2  -8   3    9234    1149   1
   3  11   0     344    1045  -2
   3  -8   3     344    1045   1
  -4   3  -7    1243    1108  -2
  -4  -7   3    1243    1108   1
  -3   4  -6    2353    2087  -2
  -3  -7   3    2353    2087   1
  -2   5  -5    5514    2519  -2
  -2  -7   3    5514    2519   1
  -1   6  -4   28989    4117  -2
  -1  -7   3   28989    4117   1
   0   7  -3    9993    1793  -2
   0  -7   3    9993    1793   1
   1   8  -2   31190    6607  -2
   1  -7   3   31190    6607   1
   2   9  -1   14384    6873  -2
   2  -7   3   14384    6873   1
   3  10   0    8773    5145  -2
   3  -7   3    8773    5145   1
  -4   2  -7     666    1509  -2
  -4  -6   3     666    1509   1
  -3   3  -6   10798    4013  -2
  -3  -6   3   10798    4013   1
  -2   4  -5    9649    3262  -2
  -2  -6   3    9649    3262   1
  -1   5  -4   50419    3826  -2
  -1  -6   3   50419    3826   1
   0   6  -3   81890    4948  -2
   0  -6   3   81890    4948   1
   1   7  -2   18503    3037  -2
   1  -6   3   18503    3037   1
   2   8  -1    2167    1787  -2
   2  -6   3    2167    1787   1
   3   9   0   12184    6146  -2
   3  -6   3   12184    6146   1
  -4   1  -7    2131    2554  -2
  -4  -5   3    2131    2554   1
  -3   2  -6   13557    4717  -2
  -3  -5   3   13557    4717   1
  -2   3  -5   37013    4687  -2
  -2  -5   3   37013    4687   1
  -1   4  -4   52589    9769  -2
  -1  -5   3   52589    9769   1
   0   5  -3  122475    5477  -2
   0  -5   3  122475    5477   1
   1   6  -2    2194    1747  -2
   1  -5   3    2194    1747   1
   2   7  -1    7452    3677  -2
   2  -5   3    7452    3677   1
   3   8   0   17941    6806  -2
   3  -5   3   17941    6806   1
   4   9   1    4161    4135  -2
   4  -5   3    4161    4135   1
  -4   0  -7     581     913  -2
  -4  -4   3     581     913   1
  -3   1  -6    5382    2799  -2
  -3  -4   3    5382    2799   1
  -2   2  -5   36043    4584  -2
  -2  -4   3   36043    4584   1
  -1   3  -4  107336    7013  -2
  -1  -4   3  107336    7013   1
   0   4  -3  131117    5417  -2
   0  -4   3  131117    5417   1
   1   5  -2   38766    6091  -2
   1  -4   3   38766    6091   1
   2   6  -1    8641    2387  -2
   2  -4   3    8641    2387   1
   3   7   0    2834    2869  -2
   3  -4   3    2834    2869   1
   4   8   1    3035    3139  -2
   4  -4   3    3035    3139   1
  -4  -1  -7    -119     611  -2
  -4  -3   3    -119     611   1
  -3   0  -6    1325    1028  -2
  -3  -3   3    1325    1028   1
  -2   1  -5    6691    1621  -2
  -2  -3   3    6691    1621   1
  -1   2  -4   16668    2219  -2
  -1  -3   3   16668    2219   1
   0   3  -3   29189    2239  -2
   0  -3   3   29189    2239   1
   1   4  -2  174259    6105  -2
   1  -3   3  174259    6105   1
   2   5  -1  161362   10420  -2
   2  -3   3  161362   10420   1
   3   6   0    5286    3583  -2
   3  -3   3    5286    3583   1
   4   7   1    1136    2735  -2
   4  -3   3    1136    2735   1
  -4  -2  -7    1197    1858  -2
  -4  -2   3    1197    1858   1
  -3  -1  -6    5616    2790  -2
  -3  -2   3    5616    2790   1
  -2   0  -5   28792    3778  -2
  -2  -2   3   28792    3778   1
  -1   1  -4   22850    2496  -2
  -1  -2   3   22850    2496   1
   0   2  -3  241852    6575  -2
   0  -2   3  241852    6575   1
   1   3  -2   30264    2239  -2
   1  -2   3   30264    2239   1
   2   4  -1  208838   10838  -2
   2  -2   3  208838   10838   1
   3   5   0      11     174  -2
   3  -2   3      11     174   1
   4   6   1    1575    2411  -2
   4  -2   3    1575    2411   1
  -4  -3  -7     838    1501  -2
  -4  -1   3     838    1501   1
  -3  -2  -6    1265    1628  -2
  -3  -1   3    1265    1628   1
  -2  -1  -5    8625    2651  -2
  -2  -1   3    8625    2651   1
  -1   0  -4   58178    3911  -2
  -1  -1   3   58178    3911   1
   0   1  -3  104784    2978  -2
   0  -1   3  104784    2978   1
   1   2  -2  162454    4749  -2
   1  -1   3  162454    4749   1
   2   3  -1  118193   12170  -2
   2  -1   3  118193   12170   1
   3   4   0   20591    4362  -2
   3  -1   3   20591    4362   1
   4   5   1     764    1957  -2
   4  -1   3     764    1957   1
  -4  -4  -7    1930    1644  -2
  -4   0   3    1930    1644   1
  -3  -3  -6    4893    2935  -2
  -3   0   3    4893    2935   1
  -2  -2  -5   22451    4314  -2
  -2   0   3   22451    4314   1
  -1  -1  -4   32442    2935  -2
  -1   0   3   32442    2935   1
   0   0  -3   29277    1241  -2
   0   0   3   29277    1241   1
   1   1  -2    4142     680  -2
   1   0   3    4142     680   1
   2   2  -1   27954    5701  -2
   2   0   3   27954    5701   1
   3   3   0    7933    1825  -2
   3   0   3    7933    1825   1
   4   4   1    3161    4179  -2
   4   0   3    3161    4179   1
  -4  -5  -7    4376    1835  -2
  -4   1   3    4376    1835   1
  -3  -4  -6    2414    1457  -2
  -3   1   3    2414    1457   1
  -2  -3  -5     651     721  -2
  -2   1   3     651     721   1
  -1  -2  -4   23922    1805  -2
  -1   1   3   23922    1805   1
   0  -1  -3    4875    1021  -2
   0   1   3    4875    1021   1
   1   0  -2  402725   17756  -2
   1   1   3  402725   17756   1
   2   1  -1   45785   11838  -2
   2   1   3   45785   11838   1
   3   2   0    1945    1007  -2
   3   1   3    1945    1007   1
   4   3   1    1777    1783  -2
   4   1   3    1777    1783   1
  -4  -6  -7   18310    6500  -2
  -4   2   3   18310    6500   1
  -3  -5  -6   13982    3141  -2
  -3   2   3   13982    3141   1
  -2  -4  -5    4238    1159  -2
  -2   2   3    4238    1159   1
  -1  -3  -4   27663    2193  -2
  -1   2   3   27663    2193   1
   0  -2  -3  108308    4141  -2
   0   2   3  108308    4141   1
   1  -1  -2    7466    1099  -2
   1   2   3    7466    1099   1
   2   0  -1   30209    3080  -2
   2   2   3   30209    3080   1
   3   1   0    4377    4879  -2
   3   2   3    4377    4879   1
   4   2   1   13555    2898  -2
   4   2   3   13555    2898   1
  -4  -7  -7   17509    3839  -2
  -4   3   3   17509    3839   1
  -3  -6  -6    6057    1841  -2
  -3   3   3    6057    1841   1
  -2  -5  -5   25010    4914  -2
  -2   3   3   25010    4914   1
  -1  -4  -4  168147    8614  -2
  -1   3   3  168147    8614   1
   0  -3  -3  579378    6994  -2
   0   3   3  579378    6994   1
   1  -2  -2    8768    1364  -2
   1   3   3    8768    1364   1
   2  -1  -1    7217    2600  -2
   2   3   3    7217    2600   1
   3   0   0    1722    1078  -2
   3   3   3    1722    1078   1
   4   1   1    -534    1530  -2
   4   3   3    -534    1530   1
  -4  -8  -7    5744    5194  -2
  -4   4   3    5744    5194   1
  -3  -7  -6   12459    3960  -2
  -3   4   3   12459    3960   1
  -2  -6  -5   47511    5163  -2
  -2   4   3   47511    5163   1
  -1  -5  -4   11314    1268  -2
  -1   4   3   11314    1268   1
   0  -4  -3  612940   10366  -2
   0   4   3  612940   10366   1
   1  -3  -2    2588     675  -2
   1   4   3    2588     675   1
   2  -2  -1   18827    2977  -2
   2   4   3   18827    2977   1
   3  -1   0   21693    3458  -2
   3   4   3   21693    3458   1
   4   0   1    -734    1134  -2
   4   4   3    -734    1134   1
  -4  -9  -7    2472    3473  -2
  -4   5   3    2472    3473   1
  -3  -8  -6   48828    5097  -2
  -3   5   3   48828    5097   1
  -2  -7  -5    7829    1524  -2
  -2   5   3    7829    1524   1
  -1  -6  -4   68533    7466  -2
  -1   5   3   68533    7466   1
   0  -5  -3   25432    1915  -2
   0   5   3   25432    1915   1
   1  -4  -2   16997    2295  -2
   1   5   3   16997    2295   1
   2  -3  -1   15382    2371  -2
   2   5   3   15382    2371   1
   3  -2   0    1261     684  -2
   3   5   3    1261     684   1
   4  -1   1     598    1057  -2
   4   5   3     598    1057   1
  -4 -10  -7    5217    5525  -2
  -4   6   3    5217    5525   1
  -3  -9  -6   89344   17220  -2
  -3   6   3   89344   17220   1
  -2  -8  -5   35259    3287  -2
  -2   6   3   35259    3287   1
  -1  -7  -4   28377    2332  -2
  -1   6   3   28377    2332   1
   0  -6  -3   27031    2196  -2
   0   6   3   27031    2196   1
   1  -5  -2  102478    6400  -2
   1   6   3  102478    6400   1
   2  -4  -1    5114    1846  -2
   2   6   3    5114    1846   1
   3  -3   0    4641    2588  -2
   3   6   3    4641    2588   1
   4  -2   1    4116    3288  -2
   4   6   3    4116    3288   1
  -3 -10  -6    5604    1300  -2
  -3   7   3    5604    1300   1
  -2  -9  -5   25895    2670  -2
  -2   7   3   25895    2670   1
  -1  -8  -4  128701    5579  -2
  -1   7   3  128701    5579   1
   0  -7  -3    9398    1378  -2
   0   7   3    9398    1378   1
   1  -6  -2  123892    7522  -2
   1   7   3  123892    7522   1
   2  -5  -1    1694     840  -2
   2   7   3    1694     840   1
   3  -4   0    1715    1599  -2
   3   7   3    1715    1599   1
   4  -3   1    2126    2130  -2
   4   7   3    2126    2130   1
  -3 -11  -6    2607    3581  -2
  -3   8   3    2607    3581   1
  -2 -10  -5   41656    3456  -2
  -2   8   3   41656    3456   1
  -1  -9  -4   50067    3475  -2
  -1   8   3   50067    3475   1
   0  -8  -3   44286    4302  -2
   0   8   3   44286    4302   1
   1  -7  -2   72757    5005  -2
   1   8   3   72757    5005   1
   2  -6  -1   43734    5423  -2
   2   8   3   43734    5423   1
   3  -5   0    6815    3072  -2
   3   8   3    6815    3072   1
   4  -4   1    2669    2281  -2
   4   8   3    2669    2281   1
  -3 -12  -6    3499    3764  -2
  -3   9   3    3499    3764   1
  -2 -11  -5   44499    8272  -2
  -2   9   3   44499    8272   1
  -1 -10  -4    9941    2384  -2
  -1   9   3    9941    2384   1
   0  -9  -3   53938    3734  -2
   0   9   3   53938    3734   1
   1  -8  -2   58472    5424  -2
   1   9   3   58472    5424   1
   2  -7  -1   40559    6674  -2
   2   9   3   40559    6674   1
   3  -6   0    7988    3445  -2
   3   9   3    7988    3445   1
   4  -5   1    2074    1949  -2
   4   9   3    2074    1949   1
  -3 -13  -6    7347    5184  -2
  -3  10   3    7347    5184   1
  -2 -12  -5   13424    5491  -2
  -2  10   3   13424    5491   1
  -1 -11  -4    8280    3493  -2
  -1  10   3    8280    3493   1
   0 -10  -3    3845    1081  -2
   0  10   3    3845    1081   1
   1  -9  -2  139962   11747  -2
   1  10   3  139962   11747   1
   2  -8  -1   23927    5153  -2
   2  10   3   23927    5153   1
   3  -7   0    4583    2418  -2
   3  10   3    4583    2418   1
   4  -6   1    4776    2872  -2
   4  10   3    4776    2872   1
  -2 -13  -5   10394    5242  -2
  -2  11   3   10394    5242   1
  -1 -12  -4   33247    4782  -2
  -1  11   3   33247    4782   1
   0 -11  -3    8614    2447  -2
   0  11   3    8614    2447   1
   1 -10  -2   64559    8462  -2
   1  11   3   64559    8462   1
   2  -9  -1   13634    4172  -2
   2  11   3   13634    4172   1
   3  -8   0    5548    2787  -2
   3  11   3    5548    2787   1
  -2 -14  -5    1659    2309  -2
  -2  12   3    1659    2309   1
  -1 -13  -4   14293    3048  -2
  -1  12   3   14293    3048   1
   0 -12  -3    2502    2078  -2
   0  12   3    2502    2078   1
   1 -11  -2   22039    5179  -2
   1  12   3   22039    5179   1
   2 -10  -1    5025    2556  -2
   2  12   3    5025    2556   1
   3  -9   0    6373    3073  -2
   3  12   3    6373    3073   1
  -2 -15  -5     654    2691  -2
  -2  13   3     654    2691   1
  -1 -14  -4   10406    4450  -2
  -1  13   3   10406    4450   1
   0 -13  -3    1677    2161  -2
   0  13   3    1677    2161   1
   1 -12  -2    2173    2060  -2
   1  13   3    2173    2060   1
   2 -11  -1    5477    2841  -2
   2  13   3    5477    2841   1
   3 -10   0    9856    4177  -2
   3  13   3    9856    4177   1
  -1 -15  -4    5426    4076  -2
  -1  14   3    5426    4076   1
   0 -14  -3   19011    5915  -2
   0  14   3   19011    5915   1
   1 -13  -2    6245    3105  -2
   1  14   3    6245    3105   1
   2 -12  -1     657    1458  -2
   2  14   3     657    1458   1
   0 -15  -3   20079    6263  -2
   0  15   3   20079    6263   1
   1 -14  -2    3685    2670  -2
   1  15   3    3685    2670   1
  -1  11  -5   12819    4839  -2
  -1 -12   4   12819    4839   1
   0  12  -4    4100    3076  -2
   0 -12   4    4100    3076   1
   1  13  -3   14320    5866  -2
   1 -12   4   14320    5866   1
  -2   9  -6    7800    3550  -2
  -2 -11   4    7800    3550   1
  -1  10  -5    6032    2992  -2
  -1 -11   4    6032    2992   1
   0  11  -4    9334    4029  -2
   0 -11   4    9334    4029   1
   1  12  -3    5474    3702  -2
   1 -11   4    5474    3702   1
  -2   8  -6    9476    3972  -2
  -2 -10   4    9476    3972   1
  -1   9  -5    5338    2638  -2
  -1 -10   4    5338    2638   1
   0  10  -4    3925    2312  -2
   0 -10   4    3925    2312   1
   1  11  -3    -430     555  -2
   1 -10   4    -430     555   1
   2  12  -2   17327    7213  -2
   2 -10   4   17327    7213   1
  -3   6  -7    5811    3103  -2
  -3  -9   4    5811    3103   1
  -2   7  -6   13117    4226  -2
  -2  -9   4   13117    4226   1
  -1   8  -5   13832    4168  -2
  -1  -9   4   13832    4168   1
   0   9  -4    3320    2072  -2
   0  -9   4    3320    2072   1
   1  10  -3    3053    1758  -2
   1  -9   4    3053    1758   1
   2  11  -2   16342    6462  -2
   2  -9   4   16342    6462   1
  -3   5  -7     263     296  -2
  -3  -8   4     263     296   1
  -2   6  -6   13919    4396  -2
  -2  -8   4   13919    4396   1
  -1   7  -5   35635    4208  -2
  -1  -8   4   35635    4208   1
   0   8  -4   51330    8011  -2
   0  -8   4   51330    8011   1
   1   9  -3    7785    2130  -2
   1  -8   4    7785    2130   1
   2  10  -2    1001     501  -2
   2  -8   4    1001     501   1
   3  11  -1    3613    2979  -2
   3  -8   4    3613    2979   1
  -3   4  -7    7766    3500  -2
  -3  -7   4    7766    3500   1
  -2   5  -6   15886    4234  -2
  -2  -7   4   15886    4234   1
  -1   6  -5   15170    4810  -2
  -1  -7   4   15170    4810   1
   0   7  -4  143481    9085  -2
   0  -7   4  143481    9085   1
   1   8  -3   93811   11901  -2
   1  -7   4   93811   11901   1
   2   9  -2      -9     385  -2
   2  -7   4      -9     385   1
   3  10  -1   16178    7189  -2
   3  -7   4   16178    7189   1
  -4   2  -8     775    2075  -2
  -4  -6   4     775    2075   1
  -3   3  -7    3586    2655  -2
  -3  -6   4    3586    2655   1
  -2   4  -6   15893    3932  -2
  -2  -6   4   15893    3932   1
  -1   5  -5   31848    3891  -2
  -1  -6   4   31848    3891   1
   0   6  -4   14050    2040  -2
   0  -6   4   14050    2040   1
   1   7  -3   25258    3703  -2
   1  -6   4   25258    3703   1
   2   8  -2     132     207  -2
   2  -6   4     132     207   1
   3   9  -1    8790    5280  -2
   3  -6   4    8790    5280   1
  -4   1  -8    -144     482  -2
  -4  -5   4    -144     482   1
  -3   2  -7    5630    2946  -2
  -3  -5   4    5630    2946   1
  -2   3  -6   40558    4988  -2
  -2  -5   4   40558    4988   1
  -1   4  -5    2393     871  -2
  -1  -5   4    2393     871   1
   0   5  -4   71723    4381  -2
   0  -5   4   71723    4381   1
   1   6  -3   55668    5381  -2
   1  -5   4   55668    5381   1
   2   7  -2    3559    3704  -2
   2  -5   4    3559    3704   1
   3   8  -1    4711    3639  -2
   3  -5   4    4711    3639   1
   4   9   0     824    3394  -2
   4  -5   4     824    3394   1
  -4   0  -8    1377    1628  -2
  -4  -4   4    1377    1628   1
  -3   1  -7      24     680  -2
  -3  -4   4      24     680   1
  -2   2  -6   19579    5618  -2
  -2  -4   4   19579    5618   1
  -1   3  -5   19028    2603  -2
  -1  -4   4   19028    2603   1
   0   4  -4    4251     840  -2
   0  -4   4    4251     840   1
   1   5  -3   62480    8416  -2
   1  -4   4   62480    8416   1
   2   6  -2    9683    3225  -2
   2  -4   4    9683    3225   1
   3   7  -1   28490    8176  -2
   3  -4   4   28490    8176   1
   4   8   0    3921    3577  -2
   4  -4   4    3921    3577   1
  -4  -1  -8     611     648  -2
  -4  -3   4     611     648   1
  -3   0  -7   14328    4481  -2
  -3  -3   4   14328    4481   1
  -2   1  -6    3023    1154  -2
  -2  -3   4    3023    1154   1
  -1   2  -5   30198    3122  -2
  -1  -3   4   30198    3122   1
   0   3  -4   96550    3944  -2
   0  -3   4   96550    3944   1
   1   4  -3  109294    5250  -2
   1  -3   4  109294    5250   1
   2   5  -2   45782    5214  -2
   2  -3   4   45782    5214   1
   3   6  -1   34708    9610  -2
   3  -3   4   34708    9610   1
   4   7   0   -2072    2380  -2
   4  -3   4   -2072    2380   1
  -4  -2  -8      97     894  -2
  -4  -2   4      97     894   1
  -3  -1  -7    5257    2929  -2
  -3  -2   4    5257    2929   1
  -2   0  -6   30104    5862  -2
  -2  -2   4   30104    5862   1
  -1   1  -5   46505    3672  -2
  -1  -2   4   46505    3672   1
   0   2  -4    4477     706  -2
   0  -2   4    4477     706   1
   1   3  -3   17005    1819  -2
   1  -2   4   17005    1819   1
   2   4  -2   50893    3986  -2
   2  -2   4   50893    3986   1
   3   5  -1   44476    9826  -2
   3  -2   4   44476    9826   1
   4   6   0   -1025    1088  -2
   4  -2   4   -1025    1088   1
  -4  -3  -8    5932    3740  -2
  -4  -1   4    5932    3740   1
  -3  -2  -7    5584    2993  -2
  -3  -1   4    5584    2993   1
  -2  -1  -6   51234    5130  -2
  -2  -1   4   51234    5130   1
  -1   0  -5   40064    3326  -2
  -1  -1   4   40064    3326   1
   0   1  -4    3220     628  -2
   0  -1   4    3220     628   1
   1   2  -3   25928    2221  -2
   1  -1   4   25928    2221   1
   2   3  -2    2949     642  -2
   2  -1   4    2949     642   1
   3   4  -1     -96     186  -2
   3  -1   4     -96     186   1
   4   5   0     691    1290  -2
   4  -1   4     691    1290   1
  -4  -4  -8    1698    1285  -2
  -4   0   4    1698    1285   1
  -3  -3  -7    2336    2008  -2
  -3   0   4    2336    2008   1
  -2  -2  -6   99937    7419  -2
  -2   0   4   99937    7419   1
  -1  -1  -5   58879    3371  -2
  -1   0   4   58879    3371   1
   0   0  -4   36104    1607  -2
   0   0   4   36104    1607   1
   1   1  -3   67590    6214  -2
   1   0   4   67590    6214   1
   2   2  -2   95744    4838  -2
   2   0   4   95744    4838   1
   3   3  -1    1080    1177  -2
   3   0   4    1080    1177   1
   4   4   0    1471    2531  -2
   4   0   4    1471    2531   1
  -4  -5  -8   11882    5178  -2
  -4   1   4   11882    5178   1
  -3  -4  -7     200     345  -2
  -3   1   4     200     345   1
  -2  -3  -6   15626    2283  -2
  -2   1   4   15626    2283   1
  -1  -2  -5   52250    3060  -2
  -1   1   4   52250    3060   1
   0  -1  -4  107274    5938  -2
   0   1   4  107274    5938   1
   1   0  -3   22382    1933  -2
   1   1   4   22382    1933   1
   2   1  -2    8653    1465  -2
   2   1   4    8653    1465   1
   3   2  -1    3701    1342  -2
   3   1   4    3701    1342   1
   4   3   0    2670    1212  -2
   4   1   4    2670    1212   1
  -4  -6  -8    1174    2187  -2
  -4   2   4    1174    2187   1
  -3  -5  -7   19637    3122  -2
  -3   2   4   19637    3122   1
  -2  -4  -6   18902    2545  -2
  -2   2   4   18902    2545   1
  -1  -3  -5  311931   10776  -2
  -1   2   4  311931   10776   1
   0  -2  -4      -8     303  -2
   0   2   4      -8     303   1
   1  -1  -3   15027    2900  -2
   1   2   4   15027    2900   1
   2   0  -2   83910   10421  -2
   2   2   4   83910   10421   1
   3   1  -1   22990    3117  -2
   3   2   4   22990    3117   1
   4   2   0    3192    1359  -2
   4   2   4    3192    1359   1
  -4  -7  -8     788     901  -2
  -4   3   4     788     901   1
  -3  -6  -7   11787    2831  -2
  -3   3   4   11787    2831   1
  -2  -5  -6    4332    1203  -2
  -2   3   4    4332    1203   1
  -1  -4  -5  189694    9877  -2
  -1   3   4  189694    9877   1
   0  -3  -4  362530    5035  -2
   0   3   4  362530    5035   1
   1  -2  -3   24757    2047  -2
   1   3   4   24757    2047   1
   2  -1  -2     704     427  -2
   2   3   4     704     427   1
   3   0  -1    9743    2865  -2
   3   3   4    9743    2865   1
   4   1   0    1151    1740  -2
   4   3   4    1151    1740   1
  -4  -8  -8    2276    1928  -2
  -4   4   4    2276    1928   1
  -3  -7  -7   29473    4636  -2
  -3   4   4   29473    4636   1
  -2  -6  -6   29296    3135  -2
  -2   4   4   29296    3135   1
  -1  -5  -5   22504    1877  -2
  -1   4   4   22504    1877   1
   0  -4  -4  268188    5934  -2
   0   4   4  268188    5934   1
   1  -3  -3  226154    9921  -2
   1   4   4  226154    9921   1
   2  -2  -2   11374    2454  -2
   2   4   4   11374    2454   1
   3  -1  -1   15606    2989  -2
   3   4   4   15606    2989   1
   4   0   0     134     724  -2
   4   4   4     134     724   1
  -4  -9  -8    3328    3198  -2
  -4   5   4    3328    3198   1
  -3  -8  -7    1688    3994  -2
  -3   5   4    1688    3994   1
  -2  -7  -6   15149    2244  -2
  -2   5   4   15149    2244   1
  -1  -6  -5   21915    2597  -2
  -1   5   4   21915    2597   1
   0  -5  -4  438919    9067  -2
   0   5   4  438919    9067   1
   1  -4  -3   12918    1769  -2
   1   5   4   12918    1769   1
   2  -3  -2   16050    2527  -2
   2   5   4   16050    2527   1
   3  -2  -1   11157    2636  -2
   3   5   4   11157    2636   1
   4  -1   0   10788    4607  -2
   4   5   4   10788    4607   1
  -3  -9  -7    9888    2319  -2
  -3   6   4    9888    2319   1
  -2  -8  -6   61413    4684  -2
  -2   6   4   61413    4684   1
  -1  -7  -5    5226     975  -2
  -1   6   4    5226     975   1
   0  -6  -4  331332    8367  -2
   0   6   4  331332    8367   1
   1  -5  -3   92462    6041  -2
   1   6   4   92462    6041   1
   2  -4  -2   10964    2162  -2
   2   6   4   10964    2162   1
   3  -3  -1    3221    1408  -2
   3   6   4    3221    1408   1
   4  -2   0    -644    1367  -2
   4   6   4    -644    1367   1
  -3 -10  -7    3209    1414  -2
  -3   7   4    3209    1414   1
  -2  -9  -6   14343    2254  -2
  -2   7   4   14343    2254   1
  -1  -8  -5   46484    3256  -2
  -1   7   4   46484    3256   1
   0  -7  -4    1240     487  -2
   0   7   4    1240     487   1
   1  -6  -3   28620    2924  -2
   1   7   4   28620    2924   1
   2  -5  -2   24309    3198  -2
   2   7   4   24309    3198   1
   3  -4  -1    2848    2164  -2
   3   7   4    2848    2164   1
   4  -3   0    8126    4150  -2
   4   7   4    8126    4150   1
  -3 -11  -7    6256    3720  -2
  -3   8   4    6256    3720   1
  -2 -10  -6     445     524  -2
  -2   8   4     445     524   1
  -1  -9  -5   29402    3104  -2
  -1   8   4   29402    3104   1
   0  -8  -4   14355    2100  -2
   0   8   4   14355    2100   1
   1  -7  -3  140190    7431  -2
   1   8   4  140190    7431   1
   2  -6  -2  104148   12867  -2
   2   8   4  104148   12867   1
   3  -5  -1    3252    2247  -2
   3   8   4    3252    2247   1
   4  -4   0    1009    1710  -2
   4   8   4    1009    1710   1
  -3 -12  -7    2710    3061  -2
  -3   9   4    2710    3061   1
  -2 -11  -6    6604    2797  -2
  -2   9   4    6604    2797   1
  -1 -10  -5   24990    2992  -2
  -1   9   4   24990    2992   1
   0  -9  -4    8416    1282  -2
   0   9   4    8416    1282   1
   1  -8  -3   51039    4511  -2
   1   9   4   51039    4511   1
   2  -7  -2   79560    9143  -2
   2   9   4   79560    9143   1
   3  -6  -1   25907    6093  -2
   3   9   4   25907    6093   1
   4  -5   0    2842    2111  -2
   4   9   4    2842    2111   1
  -3 -13  -7   11262    6333  -2
  -3  10   4   11262    6333   1
  -2 -12  -6    7755    4561  -2
  -2  10   4    7755    4561   1
  -1 -11  -5    9738    3006  -2
  -1  10   4    9738    3006   1
   0 -10  -4   11767    2139  -2
   0  10   4   11767    2139   1
   1  -9  -3    8682    2333  -2
   1  10   4    8682    2333   1
   2  -8  -2    8346    2946  -2
   2  10   4    8346    2946   1
   3  -7  -1    -270     309  -2
   3  10   4    -270     309   1
   4  -6   0     767    1176  -2
   4  10   4     767    1176   1
  -2 -13  -6    3900    3303  -2
  -2  11   4    3900    3303   1
  -1 -12  -5    9140    2519  -2
  -1  11   4    9140    2519   1
   0 -11  -4    9732    2599  -2
   0  11   4    9732    2599   1
   1 -10  -3    4607    2434  -2
   1  11   4    4607    2434   1
   2  -9  -2   30564    6396  -2
   2  11   4   30564    6396   1
   3  -8  -1    4678    2668  -2
   3  11   4    4678    2668   1
  -2 -14  -6    2142    1835  -2
  -2  12   4    2142    1835   1
  -1 -13  -5    1956    1237  -2
  -1  12   4    1956    1237   1
   0 -12  -4     866     487  -2
   0  12   4     866     487   1
   1 -11  -3   31870    6162  -2
   1  12   4   31870    6162   1
   2 -10  -2   10058    3861  -2
   2  12   4   10058    3861   1
   3  -9  -1    1481    1906  -2
   3  12   4    1481    1906   1
  -2 -15  -6     672     473  -2
  -2  13   4     672     473   1
  -1 -14  -5    1191    2622  -2
  -1  13   4    1191    2622   1
   0 -13  -4     601    1112  -2
   0  13   4     601    1112   1
   1 -12  -3   13312    4097  -2
   1  13   4   13312    4097   1
   2 -11  -2   13116    4487  -2
   2  13   4   13116    4487   1
   3 -10  -1    4622    2933  -2
   3  13   4    4622    2933   1
  -1 -15  -5    6008    3898  -2
  -1  14   4    6008    3898   1
   0 -14  -4    8904    4221  -2
   0  14   4    8904    4221   1
   1 -13  -3    8898    3721  -2
   1  14   4    8898    3721   1
   2 -12  -2    6717    3491  -2
   2  14   4    6717    3491   1
   0 -15  -4    1819    1947  -2
   0  15   4    1819    1947   1
   1 -14  -3    3617    2264  -2
   1  15   4    3617    2264   1
   0  12  -5     899    2112  -2
   0 -12   5     899    2112   1
  -2   9  -7    4420    2776  -2
  -2 -11   5    4420    2776   1
  -1  10  -6    8453    3499  -2
  -1 -11   5    8453    3499   1
   0  11  -5    2046    2119  -2
   0 -11   5    2046    2119   1
   1  12  -4   24000    7756  -2
   1 -11   5   24000    7756   1
  -2   8  -7    2515    2051  -2
  -2 -10   5    2515    2051   1
  -1   9  -6    4941    2893  -2
  -1 -10   5    4941    2893   1
   0  10  -5    -752     546  -2
   0 -10   5    -752     546   1
   1  11  -4    4814    2712  -2
   1 -10   5    4814    2712   1
   2  12  -3    1310    1305  -2
   2 -10   5    1310    1305   1
  -3   6  -8    4240    3041  -2
  -3  -9   5    4240    3041   1
  -2   7  -7   11024    4026  -2
  -2  -9   5   11024    4026   1
  -1   8  -6   15528    4539  -2
  -1  -9   5   15528    4539   1
   0   9  -5    4159    2008  -2
   0  -9   5    4159    2008   1
   1  10  -4    5264    1972  -2
   1  -9   5    5264    1972   1
   2  11  -3   10806    5505  -2
   2  -9   5   10806    5505   1
  -3   5  -8    3451    2696  -2
  -3  -8   5    3451    2696   1
  -2   6  -7   18194    5098  -2
  -2  -8   5   18194    5098   1
  -1   7  -6   19779    4892  -2
  -1  -8   5   19779    4892   1
   0   8  -5   37687    7124  -2
   0  -8   5   37687    7124   1
   1   9  -4   15279    4341  -2
   1  -8   5   15279    4341   1
   2  10  -3   26508    8310  -2
   2  -8   5   26508    8310   1
   3  11  -2    2142    2318  -2
   3  -8   5    2142    2318   1
  -3   4  -8     987    1187  -2
  -3  -7   5     987    1187   1
  -2   5  -7   13474    4137  -2
  -2  -7   5   13474    4137   1
  -1   6  -6   19306    3251  -2
  -1  -7   5   19306    3251   1
   0   7  -5   30916    6109  -2
   0  -7   5   30916    6109   1
   1   8  -4   37909    6092  -2
   1  -7   5   37909    6092   1
   2   9  -3   13405    2535  -2
   2  -7   5   13405    2535   1
   3  10  -2    2992    3037  -2
   3  -7   5    2992    3037   1
  -3   3  -8    4161    2440  -2
  -3  -6   5    4161    2440   1
  -2   4  -7   10385    3394  -2
  -2  -6   5   10385    3394   1
  -1   5  -6   11555    2030  -2
  -1  -6   5   11555    2030   1
   0   6  -5    8436    2422  -2
   0  -6   5    8436    2422   1
   1   7  -4   26531    6456  -2
   1  -6   5   26531    6456   1
   2   8  -3    6099    1717  -2
   2  -6   5    6099    1717   1
   3   9  -2    3718    4001  -2
   3  -6   5    3718    4001   1
  -3   2  -8    8761    3574  -2
  -3  -5   5    8761    3574   1
  -2   3  -7   12532    2913  -2
  -2  -5   5   12532    2913   1
  -1   4  -6   45792    3875  -2
  -1  -5   5   45792    3875   1
   0   5  -5   34627    3193  -2
   0  -5   5   34627    3193   1
   1   6  -4   39172    4620  -2
   1  -5   5   39172    4620   1
   2   7  -3    3571    1112  -2
   2  -5   5    3571    1112   1
   3   8  -2    2433    2319  -2
   3  -5   5    2433    2319   1
  -4   0  -9    3544    2747  -2
  -4  -4   5    3544    2747   1
  -3   1  -8    1620    1547  -2
  -3  -4   5    1620    1547   1
  -2   2  -7   16193    3219  -2
  -2  -4   5   16193    3219   1
  -1   3  -6  128384    7731  -2
  -1  -4   5  128384    7731   1
   0   4  -5   32290    3576  -2
   0  -4   5   32290    3576   1
   1   5  -4    2472     974  -2
   1  -4   5    2472     974   1
   2   6  -3   12718    2107  -2
   2  -4   5   12718    2107   1
   3   7  -2    9852    5648  -2
   3  -4   5    9852    5648   1
   4   8  -1   12177    6783  -2
   4  -4   5   12177    6783   1
  -4  -1  -9    2475    2273  -2
  -4  -3   5    2475    2273   1
  -3   0  -8    3808    2345  -2
  -3  -3   5    3808    2345   1
  -2   1  -7   11666    2212  -2
  -2  -3   5   11666    2212   1
  -1   2  -6   72373    8429  -2
  -1  -3   5   72373    8429   1
   0   3  -5   76027    4306  -2
   0  -3   5   76027    4306   1
   1   4  -4   20868    2995  -2
   1  -3   5   20868    2995   1
   2   5  -3   51446    3775  -2
   2  -3   5   51446    3775   1
   3   6  -2   10565    6336  -2
   3  -3   5   10565    6336   1
   4   7  -1   -4693    3649  -2
   4  -3   5   -4693    3649   1
  -4  -2  -9    2791    2321  -2
  -4  -2   5    2791    2321   1
  -3  -1  -8   21713    5342  -2
  -3  -2   5   21713    5342   1
  -2   0  -7   13138    3348  -2
  -2  -2   5   13138    3348   1
  -1   1  -6   56860    4403  -2
  -1  -2   5   56860    4403   1
   0   2  -5  108575    4727  -2
   0  -2   5  108575    4727   1
   1   3  -4   28868    2566  -2
   1  -2   5   28868    2566   1
   2   4  -3   46956    3669  -2
   2  -2   5   46956    3669   1
   3   5  -2   44156   10049  -2
   3  -2   5   44156   10049   1
   4   6  -1    1710    2773  -2
   4  -2   5    1710    2773   1
  -4  -3  -9    -127    1196  -2
  -4  -1   5    -127    1196   1
  -3  -2  -8   23216    5608  -2
  -3  -1   5   23216    5608   1
  -2  -1  -7   23812    3465  -2
  -2  -1   5   23812    3465   1
  -1   0  -6   45484    3505  -2
  -1  -1   5   45484    3505   1
   0   1  -5  183837    5329  -2
   0  -1   5  183837    5329   1
   1   2  -4   44244    3137  -2
   1  -1   5   44244    3137   1
   2   3  -3    6598    1108  -2
   2  -1   5    6598    1108   1
   3   4  -2    2165    1264  -2
   3  -1   5    2165    1264   1
   4   5  -1    2728    3050  -2
   4  -1   5    2728    3050   1
  -4  -4  -9    1698    1262  -2
  -4   0   5    1698    1262   1
  -2  -2  -7   17292    2857  -2
  -2   0   5   17292    2857   1
  -1  -1  -6   23985    2078  -2
  -1   0   5   23985    2078   1
   0   0  -5  199279    7536  -2
   0   0   5  199279    7536   1
   1   1  -4   40845    2610  -2
   1   0   5   40845    2610   1
   2   2  -3   30851    2801  -2
   2   0   5   30851    2801   1
   3   3  -2   16734    6786  -2
   3   0   5   16734    6786   1
   4   4  -1     -48    1700  -2
   4   0   5     -48    1700   1
  -4  -5  -9    3400    1743  -2
  -4   1   5    3400    1743   1
  -3  -4  -8    2983    1701  -2
  -3   1   5    2983    1701   1
  -2  -3  -7   50929    5081  -2
  -2   1   5   50929    5081   1
  -1  -2  -6   45042    2876  -2
  -1   1   5   45042    2876   1
   0  -1  -5    3667     535  -2
   0   1   5    3667     535   1
   1   0  -4   59577    3174  -2
   1   1   5   59577    3174   1
   2   1  -3   13264    1888  -2
   2   1   5   13264    1888   1
   3   2  -2    5155    2226  -2
   3   1   5    5155    2226   1
   4   3  -1    1283    1236  -2
   4   1   5    1283    1236   1
  -4  -6  -9    9038    2767  -2
  -4   2   5    9038    2767   1
  -3  -5  -8    2634    1287  -2
  -3   2   5    2634    1287   1
  -2  -4  -7   72371    4434  -2
  -2   2   5   72371    4434   1
  -1  -3  -6   83113    3387  -2
  -1   2   5   83113    3387   1
   0  -2  -5       2     192  -2
   0   2   5       2     192   1
   1  -1  -4   65504    6291  -2
   1   2   5   65504    6291   1
   2   0  -3   26598    2889  -2
   2   2   5   26598    2889   1
   3   1  -2    6513    1761  -2
   3   2   5    6513    1761   1
   4   2  -1    5919    3519  -2
   4   2   5    5919    3519   1
  -4  -7  -9     119     590  -2
  -4   3   5     119     590   1
  -3  -6  -8    8936    2144  -2
  -3   3   5    8936    2144   1
  -2  -5  -7   52054    4249  -2
  -2   3   5   52054    4249   1
  -1  -4  -6   74900    3554  -2
  -1   3   5   74900    3554   1
   0  -3  -5  170397    4951  -2
   0   3   5  170397    4951   1
   1  -2  -4  203720    6864  -2
   1   3   5  203720    6864   1
   2  -1  -3     213     677  -2
   2   3   5     213     677   1
   3   0  -2    2608    1350  -2
   3   3   5    2608    1350   1
   4   1  -1    4045    1674  -2
   4   3   5    4045    1674   1
  -4  -8  -9     208    2213  -2
  -4   4   5     208    2213   1
  -3  -7  -8    9992    4716  -2
  -3   4   5    9992    4716   1
  -2  -6  -7   22625    2805  -2
  -2   4   5   22625    2805   1
  -1  -5  -6  141610    5612  -2
  -1   4   5  141610    5612   1
   0  -4  -5  129504    4224  -2
   0   4   5  129504    4224   1
   1  -3  -4  122846    6847  -2
   1   4   5  122846    6847   1
   2  -2  -3    4794    1360  -2
   2   4   5    4794    1360   1
   3  -1  -2    7310    2156  -2
   3   4   5    7310    2156   1
   4   0  -1    1665    2014  -2
   4   4   5    1665    2014   1
  -4  -9  -9     974     989  -2
  -4   5   5     974     989   1
  -3  -8  -8    1228    2437  -2
  -3   5   5    1228    2437   1
  -2  -7  -7    6435    1527  -2
  -2   5   5    6435    1527   1
  -1  -6  -6  119506    5612  -2
  -1   5   5  119506    5612   1
   0  -5  -5   23484    1699  -2
   0   5   5   23484    1699   1
   1  -4  -4   25351    2516  -2
   1   5   5   25351    2516   1
   2  -3  -3   34112    4452  -2
   2   5   5   34112    4452   1
   3  -2  -2      82     643  -2
   3   5   5      82     643   1
   4  -1  -1    6525    3954  -2
   4   5   5    6525    3954   1
  -3  -9  -8    4644    1770  -2
  -3   6   5    4644    1770   1
  -2  -8  -7    5797    1466  -2
  -2   6   5    5797    1466   1
  -1  -7  -6   21751    2073  -2
  -1   6   5   21751    2073   1
   0  -6  -5    6871    1082  -2
   0   6   5    6871    1082   1
   1  -5  -4   27474    2992  -2
   1   6   5   27474    2992   1
   2  -4  -3   53995    4786  -2
   2   6   5   53995    4786   1
   3  -3  -2   13446    4398  -2
   3   6   5   13446    4398   1
   4  -2  -1    1999    2043  -2
   4   6   5    1999    2043   1
  -3 -10  -8    3545    1545  -2
  -3   7   5    3545    1545   1
  -2  -9  -7   11800    2118  -2
  -2   7   5   11800    2118   1
  -1  -8  -6   47010    3710  -2
  -1   7   5   47010    3710   1
   0  -7  -5  124640    5681  -2
   0   7   5  124640    5681   1
   1  -6  -4    6450    1328  -2
   1   7   5    6450    1328   1
   2  -5  -3    3324    1694  -2
   2   7   5    3324    1694   1
   3  -4  -2    6624    3045  -2
   3   7   5    6624    3045   1
   4  -3  -1    4437    2843  -2
   4   7   5    4437    2843   1
  -3 -11  -8       3     918  -2
  -3   8   5       3     918   1
  -2 -10  -7   10744    2599  -2
  -2   8   5   10744    2599   1
  -1  -9  -6   12051    2211  -2
  -1   8   5   12051    2211   1
   0  -8  -5  171079    5886  -2
   0   8   5  171079    5886   1
   1  -7  -4   35264    3454  -2
   1   8   5   35264    3454   1
   2  -6  -3   32818    4613  -2
   2   8   5   32818    4613   1
   3  -5  -2   10650    3854  -2
   3   8   5   10650    3854   1
   4  -4  -1    2078    2300  -2
   4   8   5    2078    2300   1
  -3 -12  -8    6052    4669  -2
  -3   9   5    6052    4669   1
  -2 -11  -7    9203    5182  -2
  -2   9   5    9203    5182   1
  -1 -10  -6   14012    1678  -2
  -1   9   5   14012    1678   1
   0  -9  -5   27930    2825  -2
   0   9   5   27930    2825   1
   1  -8  -4   22240    3003  -2
   1   9   5   22240    3003   1
   2  -7  -3   20055    4459  -2
   2   9   5   20055    4459   1
   3  -6  -2   21387    5651  -2
   3   9   5   21387    5651   1
   4  -5  -1    1275    1945  -2
   4   9   5    1275    1945   1
  -3 -13  -8    2906    2758  -2
  -3  10   5    2906    2758   1
  -2 -12  -7   13831    2434  -2
  -2  10   5   13831    2434   1
  -1 -11  -6     775     393  -2
  -1  10   5     775     393   1
   0 -10  -5    3840    1076  -2
   0  10   5    3840    1076   1
   1  -9  -4   29562    2319  -2
   1  10   5   29562    2319   1
   2  -8  -3   31482    5773  -2
   2  10   5   31482    5773   1
   3  -7  -2     125     257  -2
   3  10   5     125     257   1
   4  -6  -1    1282    1360  -2
   4  10   5    1282    1360   1
  -2 -13  -7    7637    4045  -2
  -2  11   5    7637    4045   1
  -1 -12  -6    1900     724  -2
  -1  11   5    1900     724   1
   0 -11  -5    2741    1552  -2
   0  11   5    2741    1552   1
   1 -10  -4   15920    4351  -2
   1  11   5   15920    4351   1
   2  -9  -3   32645    6084  -2
   2  11   5   32645    6084   1
   3  -8  -2     934    1172  -2
   3  11   5     934    1172   1
  -2 -14  -7    1768     470  -2
  -2  12   5    1768     470   1
  -1 -13  -6   10028    4326  -2
  -1  12   5   10028    4326   1
   0 -12  -5    1108    1125  -2
   0  12   5    1108    1125   1
   1 -11  -4    7176    3091  -2
   1  12   5    7176    3091   1
   2 -10  -3   15164    4355  -2
   2  12   5   15164    4355   1
   3  -9  -2    3326    2225  -2
   3  12   5    3326    2225   1
  -1 -14  -6   13233    5013  -2
  -1  13   5   13233    5013   1
   0 -13  -5     -77      82  -2
   0  13   5     -77      82   1
   1 -12  -4    1466    1588  -2
   1  13   5    1466    1588   1
   2 -11  -3    6165    2817  -2
   2  13   5    6165    2817   1
   3 -10  -2    3191    2510  -2
   3  13   5    3191    2510   1
  -1 -15  -6   22657    6943  -2
  -1  14   5   22657    6943   1
   0 -14  -5   12571    4780  -2
   0  14   5   12571    4780   1
   1 -13  -4    5682    2948  -2
   1  14   5    5682    2948   1
   2 -12  -3    3361    2281  -2
   2  14   5    3361    2281   1
   0 -15  -5   27858    7304  -2
   0  15   5   27858    7304   1
   1 -14  -4    4879    2655  -2
   1  15   5    4879    2655   1
   2 -13  -3     622     812  -2
   2  15   5     622     812   1
  -1  10  -7     365    1387  -2
  -1 -11   6     365    1387   1
   0  11  -6    4330    2874  -2
   0 -11   6    4330    2874   1
  -2   8  -8    8192    4073  -2
  -2 -10   6    8192    4073   1
  -1   9  -7   13392    4561  -2
  -1 -10   6   13392    4561   1
   0  10  -6    -715     589  -2
   0 -10   6    -715     589   1
   1  11  -5    5384    2427  -2
   1 -10   6    5384    2427   1
  -2   7  -8    6618    3205  -2
  -2  -9   6    6618    3205   1
  -1   8  -7   13348    4181  -2
  -1  -9   6   13348    4181   1
   0   9  -6     793    1445  -2
   0  -9   6     793    1445   1
   1  10  -5   11753    2863  -2
   1  -9   6   11753    2863   1
   2  11  -4    9177    5039  -2
   2  -9   6    9177    5039   1
  -3   5  -9    5580    2913  -2
  -3  -8   6    5580    2913   1
  -2   6  -8   14749    4706  -2
  -2  -8   6   14749    4706   1
  -1   7  -7   31364    6323  -2
  -1  -8   6   31364    6323   1
   0   8  -6   16908    4989  -2
   0  -8   6   16908    4989   1
   1   9  -5   13244    3130  -2
   1  -8   6   13244    3130   1
   2  10  -4   10334    5700  -2
   2  -8   6   10334    5700   1
  -3   4  -9    6727    3213  -2
  -3  -7   6    6727    3213   1
  -2   5  -8   17414    4917  -2
  -2  -7   6   17414    4917   1
  -1   6  -7   29389    5835  -2
  -1  -7   6   29389    5835   1
   0   7  -6   90551   11162  -2
   0  -7   6   90551   11162   1
   1   8  -5   23863    4156  -2
   1  -7   6   23863    4156   1
   2   9  -4    9793    4818  -2
   2  -7   6    9793    4818   1
   3  10  -3    5536    5032  -2
   3  -7   6    5536    5032   1
  -3   3  -9    5801    2788  -2
  -3  -6   6    5801    2788   1
  -2   4  -8   21885    5049  -2
  -2  -6   6   21885    5049   1
  -1   5  -7   40330    3998  -2
  -1  -6   6   40330    3998   1
   0   6  -6   26720    3825  -2
   0  -6   6   26720    3825   1
   1   7  -5   21075    3098  -2
   1  -6   6   21075    3098   1
   2   8  -4   25139    4321  -2
   2  -6   6   25139    4321   1
   3   9  -3    5791    4533  -2
   3  -6   6    5791    4533   1
  -3   2  -9    -172     466  -2
  -3  -5   6    -172     466   1
  -2   3  -8    7275    2981  -2
  -2  -5   6    7275    2981   1
  -1   4  -7   28348    3139  -2
  -1  -5   6   28348    3139   1
   0   5  -6   31079    3856  -2
   0  -5   6   31079    3856   1
   1   6  -5   10181    1769  -2
   1  -5   6   10181    1769   1
   2   7  -4   25634    3634  -2
   2  -5   6   25634    3634   1
   3   8  -3   11829    6158  -2
   3  -5   6   11829    6158   1
  -3   1  -9    5305    2842  -2
  -3  -4   6    5305    2842   1
  -2   2  -8   72433    6833  -2
  -2  -4   6   72433    6833   1
  -1   3  -7   22250    2692  -2
  -1  -4   6   22250    2692   1
   0   4  -6   51236    4885  -2
   0  -4   6   51236    4885   1
   1   5  -5   48179    4171  -2
   1  -4   6   48179    4171   1
   2   6  -4   21147    3229  -2
   2  -4   6   21147    3229   1
   3   7  -3    6063    4294  -2
   3  -4   6    6063    4294   1
  -3   0  -9    2548    2128  -2
  -3  -3   6    2548    2128   1
  -2   1  -8   16871    2668  -2
  -2  -3   6   16871    2668   1
  -1   2  -7    1734     903  -2
  -1  -3   6    1734     903   1
   0   3  -6  139331    6241  -2
   0  -3   6  139331    6241   1
   1   4  -5   97642    7297  -2
   1  -3   6   97642    7297   1
   2   5  -4   35696    4227  -2
   2  -3   6   35696    4227   1
   3   6  -3   18376    6675  -2
   3  -3   6   18376    6675   1
   4   7  -2    5841    4782  -2
   4  -3   6    5841    4782   1
  -4  -2 -10    2957    2432  -2
  -4  -2   6    2957    2432   1
  -3  -1  -9   31016    6437  -2
  -3  -2   6   31016    6437   1
  -2   0  -8   25734    3177  -2
  -2  -2   6   25734    3177   1
  -1   1  -7   22000    2348  -2
  -1  -2   6   22000    2348   1
   0   2  -6     183     184  -2
   0  -2   6     183     184   1
   1   3  -5   57874    4474  -2
   1  -2   6   57874    4474   1
   2   4  -4   14678    4734  -2
   2  -2   6   14678    4734   1
   3   5  -3   22947    7123  -2
   3  -2   6   22947    7123   1
   4   6  -2    7919    4810  -2
   4  -2   6    7919    4810   1
  -4  -3 -10     270     921  -2
  -4  -1   6     270     921   1
  -3  -2  -9    4006    2411  -2
  -3  -1   6    4006    2411   1
  -2  -1  -8   58480    5431  -2
  -2  -1   6   58480    5431   1
  -1   0  -7   78351    4985  -2
  -1  -1   6   78351    4985   1
   0   1  -6    5137     829  -2
   0  -1   6    5137     829   1
   1   2  -5   60983    4783  -2
   1  -1   6   60983    4783   1
   2   3  -4    2326    1334  -2
   2  -1   6    2326    1334   1
   3   4  -3   10211    5373  -2
   3  -1   6   10211    5373   1
   4   5  -2   12999    5950  -2
   4  -1   6   12999    5950   1
  -4  -4 -10    4839    2163  -2
  -4   0   6    4839    2163   1
  -3  -3  -9   12436    3080  -2
  -3   0   6   12436    3080   1
  -2  -2  -8   39634    4432  -2
  -2   0   6   39634    4432   1
  -1  -1  -7   39041    2468  -2
  -1   0   6   39041    2468   1
   0   0  -6  130802    3867  -2
   0   0   6  130802    3867   1
   1   1  -5   50045    4007  -2
   1   0   6   50045    4007   1
   2   2  -4   36352    3276  -2
   2   0   6   36352    3276   1
   3   3  -3    -111    2208  -2
   3   0   6    -111    2208   1
   4   4  -2    3292    4098  -2
   4   0   6    3292    4098   1
  -4  -5 -10    -616     546  -2
  -4   1   6    -616     546   1
  -3  -4  -9     854     896  -2
  -3   1   6     854     896   1
  -2  -3  -8   13896    2231  -2
  -2   1   6   13896    2231   1
  -1  -2  -7  105506    4549  -2
  -1   1   6  105506    4549   1
   0  -1  -6   83508    3068  -2
   0   1   6   83508    3068   1
   1   0  -5   24661    2024  -2
   1   1   6   24661    2024   1
   2   1  -4   44599    3833  -2
   2   1   6   44599    3833   1
   3   2  -3    9733    2877  -2
   3   1   6    9733    2877   1
   4   3  -2    4063    2353  -2
   4   1   6    4063    2353   1
  -4  -6 -10    9352    2955  -2
  -4   2   6    9352    2955   1
  -3  -5  -9   13614    4580  -2
  -3   2   6   13614    4580   1
  -2  -4  -8   23934    3778  -2
  -2   2   6   23934    3778   1
  -1  -3  -7   16121    1603  -2
  -1   2   6   16121    1603   1
   0  -2  -6   54828    4843  -2
   0   2   6   54828    4843   1
   1  -1  -5   45943    2984  -2
   1   2   6   45943    2984   1
   2   0  -4   64581   26104  -2
   2   2   6   64581   26104   1
   3   1  -3    1276     745  -2
   3   2   6    1276     745   1
   4   2  -2    3939    2996  -2
   4   2   6    3939    2996   1
  -4  -7 -10   -1086    1101  -2
  -4   3   6   -1086    1101   1
  -3  -6  -9    8024    2125  -2
  -3   3   6    8024    2125   1
  -2  -5  -8   44480    3378  -2
  -2   3   6   44480    3378   1
  -1  -4  -7  185392    7943  -2
  -1   3   6  185392    7943   1
   0  -3  -6  202654   10109  -2
   0   3   6  202654   10109   1
   1  -2  -5   79745    3912  -2
   1   3   6   79745    3912   1
   2  -1  -4   17303    2393  -2
   2   3   6   17303    2393   1
   3   0  -3   21624    3942  -2
   3   3   6   21624    3942   1
   4   1  -2    1118    2156  -2
   4   3   6    1118    2156   1
  -3  -7  -9    6655    1900  -2
  -3   4   6    6655    1900   1
  -2  -6  -8   20064    2670  -2
  -2   4   6   20064    2670   1
  -1  -5  -7    7702    1273  -2
  -1   4   6    7702    1273   1
   0  -4  -6   88612    3519  -2
   0   4   6   88612    3519   1
   1  -3  -5   70753    3829  -2
   1   4   6   70753    3829   1
   2  -2  -4   16331    2479  -2
   2   4   6   16331    2479   1
   3  -1  -3    2017    1668  -2
   3   4   6    2017    1668   1
   4   0  -2    2643    2409  -2
   4   4   6    2643    2409   1
  -3  -8  -9    3526    1535  -2
  -3   5   6    3526    1535   1
  -2  -7  -8   27976    3207  -2
  -2   5   6   27976    3207   1
  -1  -6  -7   16282    1990  -2
  -1   5   6   16282    1990   1
   0  -5  -6   68185    3238  -2
   0   5   6   68185    3238   1
   1  -4  -5  154026    6193  -2
   1   5   6  154026    6193   1
   2  -3  -4     376     834  -2
   2   5   6     376     834   1
   3  -2  -3   14364    3218  -2
   3   5   6   14364    3218   1
   4  -1  -2    3491    2421  -2
   4   5   6    3491    2421   1
  -3  -9  -9    5212    2141  -2
  -3   6   6    5212    2141   1
  -2  -8  -8    2763    1116  -2
  -2   6   6    2763    1116   1
  -1  -7  -7   10499    1384  -2
  -1   6   6   10499    1384   1
   0  -6  -6   41655    2895  -2
   0   6   6   41655    2895   1
   1  -5  -5   79901   11868  -2
   1   6   6   79901   11868   1
   2  -4  -4   16996    5864  -2
   2   6   6   16996    5864   1
   3  -3  -3    5735    3031  -2
   3   6   6    5735    3031   1
   4  -2  -2    6497    3764  -2
   4   6   6    6497    3764   1
  -3 -10  -9     809     206  -2
  -3   7   6     809     206   1
  -2  -9  -8   44307    4285  -2
  -2   7   6   44307    4285   1
  -1  -8  -7   49267    3034  -2
  -1   7   6   49267    3034   1
   0  -7  -6   24013    2221  -2
   0   7   6   24013    2221   1
   1  -6  -5   24425    2453  -2
   1   7   6   24425    2453   1
   2  -5  -4   14667    2295  -2
   2   7   6   14667    2295   1
   3  -4  -3    4683    2510  -2
   3   7   6    4683    2510   1
   4  -3  -2    2476    2127  -2
   4   7   6    2476    2127   1
  -3 -11  -9    1557    1447  -2
  -3   8   6    1557    1447   1
  -2 -10  -8    1165     579  -2
  -2   8   6    1165     579   1
  -1  -9  -7    1590     550  -2
  -1   8   6    1590     550   1
   0  -8  -6   10437    1552  -2
   0   8   6   10437    1552   1
   1  -7  -5   44477    3546  -2
   1   8   6   44477    3546   1
   2  -6  -4   45887    6371  -2
   2   8   6   45887    6371   1
   3  -5  -3   18828    4950  -2
   3   8   6   18828    4950   1
   4  -4  -2    4676    3100  -2
   4   8   6    4676    3100   1
  -3 -12  -9   19641    7912  -2
  -3   9   6   19641    7912   1
  -2 -11  -8   25989    3572  -2
  -2   9   6   25989    3572   1
  -1 -10  -7   11601    1507  -2
  -1   9   6   11601    1507   1
   0  -9  -6    1485     648  -2
   0   9   6    1485     648   1
   1  -8  -5   14173    1759  -2
   1   9   6   14173    1759   1
   2  -7  -4   12092    3828  -2
   2   9   6   12092    3828   1
   3  -6  -3   29402    6401  -2
   3   9   6   29402    6401   1
   4  -5  -2     898    2083  -2
   4   9   6     898    2083   1
  -2 -12  -8    3822    1542  -2
  -2  10   6    3822    1542   1
  -1 -11  -7   14197    1756  -2
  -1  10   6   14197    1756   1
   0 -10  -6   14480    2156  -2
   0  10   6   14480    2156   1
   1  -9  -5   18311    1916  -2
   1  10   6   18311    1916   1
   2  -8  -4    1659    1424  -2
   2  10   6    1659    1424   1
   3  -7  -3    4373    2471  -2
   3  10   6    4373    2471   1
   4  -6  -2    2410    2082  -2
   4  10   6    2410    2082   1
  -2 -13  -8   22277    4312  -2
  -2  11   6   22277    4312   1
  -1 -12  -7   26649    3673  -2
  -1  11   6   26649    3673   1
   0 -11  -6    1099     756  -2
   0  11   6    1099     756   1
   1 -10  -5    1479    1316  -2
   1  11   6    1479    1316   1
   2  -9  -4    9680    3717  -2
   2  11   6    9680    3717   1
   3  -8  -3    1471    1361  -2
   3  11   6    1471    1361   1
  -2 -14  -8   10636    5590  -2
  -2  12   6   10636    5590   1
  -1 -13  -7   21447    4136  -2
  -1  12   6   21447    4136   1
   0 -12  -6   22719    5525  -2
   0  12   6   22719    5525   1
   1 -11  -5    2921    1978  -2
   1  12   6    2921    1978   1
   2 -10  -4    8102    3637  -2
   2  12   6    8102    3637   1
   3  -9  -3    -479    1038  -2
   3  12   6    -479    1038   1
  -1 -14  -7    7811    4039  -2
  -1  13   6    7811    4039   1
   0 -13  -6    4690    3094  -2
   0  13   6    4690    3094   1
   1 -12  -5   11506    3857  -2
   1  13   6   11506    3857   1
   2 -11  -4    5264    3050  -2
   2  13   6    5264    3050   1
   3 -10  -3    2488    1993  -2
   3  13   6    2488    1993   1
  -1 -15  -7   41374    9648  -2
  -1  14   6   41374    9648   1
   0 -14  -6   43884    8857  -2
   0  14   6   43884    8857   1
   1 -13  -5   18722    5115  -2
   1  14   6   18722    5115   1
   2 -12  -4   -1297    1793  -2
   2  14   6   -1297    1793   1
   0 -15  -6   13761    5362  -2
   0  15   6   13761    5362   1
   1 -14  -5   18647    5744  -2
   1  15   6   18647    5744   1
   2 -13  -4    2146    2041  -2
   2  15   6    2146    2041   1
  -1   9  -8   18961    4042  -2
  -1 -10   7   18961    4042   1
   0  10  -7   17493    6072  -2
   0 -10   7   17493    6072   1
   1  11  -6    1555    1523  -2
   1 -10   7    1555    1523   1
  -2   7  -9    9358    4239  -2
  -2  -9   7    9358    4239   1
  -1   8  -8   17226    3723  -2
  -1  -9   7   17226    3723   1
   0   9  -7   14965    5182  -2
   0  -9   7   14965    5182   1
   1  10  -6   11687    2461  -2
   1  -9   7   11687    2461   1
   2  11  -5     411    2172  -2
   2  -9   7     411    2172   1
  -2   6  -9   16428    5003  -2
  -2  -8   7   16428    5003   1
  -1   7  -8   54908    8692  -2
  -1  -8   7   54908    8692   1
   0   8  -7   70159   10693  -2
   0  -8   7   70159   10693   1
   1   9  -6   11108    2461  -2
   1  -8   7   11108    2461   1
   2  10  -5    9348    5702  -2
   2  -8   7    9348    5702   1
  -2   5  -9    7025    3085  -2
  -2  -7   7    7025    3085   1
  -1   6  -8    2410    2979  -2
  -1  -7   7    2410    2979   1
   0   7  -7   82963   11036  -2
   0  -7   7   82963   11036   1
   1   8  -6   31319    4017  -2
   1  -7   7   31319    4017   1
   2   9  -5    8795    3473  -2
   2  -7   7    8795    3473   1
  -3   3 -10    1508    1669  -2
  -3  -6   7    1508    1669   1
  -2   4  -9   11041    3895  -2
  -2  -6   7   11041    3895   1
  -1   5  -8   31622    5934  -2
  -1  -6   7   31622    5934   1
   0   6  -7   19969    5248  -2
   0  -6   7   19969    5248   1
   1   7  -6   39391    4430  -2
   1  -6   7   39391    4430   1
   2   8  -5   32912    4792  -2
   2  -6   7   32912    4792   1
   3   9  -4    7277    4873  -2
   3  -6   7    7277    4873   1
  -3   2 -10    4469    2285  -2
  -3  -5   7    4469    2285   1
  -2   3  -9    5132    2700  -2
  -2  -5   7    5132    2700   1
  -1   4  -8   19700    3303  -2
  -1  -5   7   19700    3303   1
   0   5  -7   13193    2647  -2
   0  -5   7   13193    2647   1
   1   6  -6   43910    4536  -2
   1  -5   7   43910    4536   1
   2   7  -5   13551    3089  -2
   2  -5   7   13551    3089   1
   3   8  -4    -162    1228  -2
   3  -5   7    -162    1228   1
  -3   1 -10    6426    2831  -2
  -3  -4   7    6426    2831   1
  -2   2  -9   25966    4270  -2
  -2  -4   7   25966    4270   1
  -1   3  -8   35524    4173  -2
  -1  -4   7   35524    4173   1
   0   4  -7   29493    3033  -2
   0  -4   7   29493    3033   1
   1   5  -6   37502    3812  -2
   1  -4   7   37502    3812   1
   2   6  -5    7081    2167  -2
   2  -4   7    7081    2167   1
   3   7  -4   11697    5914  -2
   3  -4   7   11697    5914   1
  -3   0 -10    2058    1737  -2
  -3  -3   7    2058    1737   1
  -2   1  -9    2196     926  -2
  -2  -3   7    2196     926   1
  -1   2  -8   45199    7612  -2
  -1  -3   7   45199    7612   1
   0   3  -7   26208    2983  -2
   0  -3   7   26208    2983   1
   1   4  -6   26652    3014  -2
   1  -3   7   26652    3014   1
   2   5  -5   16155    2468  -2
   2  -3   7   16155    2468   1
   3   6  -4    9810    5378  -2
   3  -3   7    9810    5378   1
   4   7  -3    2376    3041  -2
   4  -3   7    2376    3041   1
  -3  -1 -10   14297    4390  -2
  -3  -2   7   14297    4390   1
  -2   0  -9   13701    2704  -2
  -2  -2   7   13701    2704   1
  -1   1  -8   26411    2728  -2
  -1  -2   7   26411    2728   1
   0   2  -7   40491    2845  -2
   0  -2   7   40491    2845   1
   1   3  -6    2008     719  -2
   1  -2   7    2008     719   1
   2   4  -5   20796    2717  -2
   2  -2   7   20796    2717   1
   3   5  -4    2874    3535  -2
   3  -2   7    2874    3535   1
   4   6  -3    1046    2236  -2
   4  -2   7    1046    2236   1
  -3  -2 -10    4648    2556  -2
  -3  -1   7    4648    2556   1
  -2  -1  -9   15068    3078  -2
  -2  -1   7   15068    3078   1
  -1   0  -8   50842    4447  -2
  -1  -1   7   50842    4447   1
   0   1  -7   84269    3792  -2
   0  -1   7   84269    3792   1
   1   2  -6   23839    2843  -2
   1  -1   7   23839    2843   1
   2   3  -5   11898    2081  -2
   2  -1   7   11898    2081   1
   3   4  -4    1457    1157  -2
   3  -1   7    1457    1157   1
   4   5  -3    4256    3775  -2
   4  -1   7    4256    3775   1
  -3  -3 -10    3213    1631  -2
  -3   0   7    3213    1631   1
  -2  -2  -9    7517    1652  -2
  -2   0   7    7517    1652   1
  -1  -1  -8   20197    1687  -2
  -1   0   7   20197    1687   1
   0   0  -7    1449     428  -2
   0   0   7    1449     428   1
   1   1  -6   64154    3577  -2
   1   0   7   64154    3577   1
   2   2  -5   12382    1761  -2
   2   0   7   12382    1761   1
   3   3  -4    3967    1821  -2
   3   0   7    3967    1821   1
   4   4  -3    -653    2176  -2
   4   0   7    -653    2176   1
  -3  -4 -10    2440    1535  -2
  -3   1   7    2440    1535   1
  -2  -3  -9   14014    2216  -2
  -2   1   7   14014    2216   1
  -1  -2  -8   92614    6110  -2
  -1   1   7   92614    6110   1
   0  -1  -7    2603     582  -2
   0   1   7    2603     582   1
   1   0  -6   41643    2819  -2
   1   1   7   41643    2819   1
   2   1  -5   17773    4000  -2
   2   1   7   17773    4000   1
   3   2  -4   22709    5273  -2
   3   1   7   22709    5273   1
   4   3  -3    1325    1064  -2
   4   1   7    1325    1064   1
  -3  -5 -10    3146    1660  -2
  -3   2   7    3146    1660   1
  -2  -4  -9   15777    2333  -2
  -2   2   7   15777    2333   1
  -1  -3  -8   11644    1178  -2
  -1   2   7   11644    1178   1
   0  -2  -7   20256    3108  -2
   0   2   7   20256    3108   1
   1  -1  -6   89966    4244  -2
   1   2   7   89966    4244   1
   2   0  -5   13628    2613  -2
   2   2   7   13628    2613   1
   3   1  -4   15773    2929  -2
   3   2   7   15773    2929   1
   4   2  -3    4828    3217  -2
   4   2   7    4828    3217   1
  -3  -6 -10   14356    3358  -2
  -3   3   7   14356    3358   1
  -2  -5  -9   36572    3529  -2
  -2   3   7   36572    3529   1
  -1  -4  -8   81998    6133  -2
  -1   3   7   81998    6133   1
   0  -3  -7   87795    6691  -2
   0   3   7   87795    6691   1
   1  -2  -6   14300    1621  -2
   1   3   7   14300    1621   1
   2  -1  -5   25723   15893  -2
   2   3   7   25723   15893   1
   3   0  -4    4867    1564  -2
   3   3   7    4867    1564   1
   4   1  -3    1287    1889  -2
   4   3   7    1287    1889   1
  -3  -7 -10     286     849  -2
  -3   4   7     286     849   1
  -2  -6  -9   28793    2673  -2
  -2   4   7   28793    2673   1
  -1  -5  -8   17318    1461  -2
  -1   4   7   17318    1461   1
   0  -4  -7  105100    7573  -2
   0   4   7  105100    7573   1
   1  -3  -6  141499    7652  -2
   1   4   7  141499    7652   1
   2  -2  -5   44820   19394  -2
   2   4   7   44820   19394   1
   3  -1  -4    -177     755  -2
   3   4   7    -177     755   1
   4   0  -3     536     868  -2
   4   4   7     536     868   1
  -3  -8 -10    2383    1300  -2
  -3   5   7    2383    1300   1
  -2  -7  -9    9793    1976  -2
  -2   5   7    9793    1976   1
  -1  -6  -8   36123    2350  -2
  -1   5   7   36123    2350   1
   0  -5  -7      79     131  -2
   0   5   7      79     131   1
   1  -4  -6    7309    1203  -2
   1   5   7    7309    1203   1
   2  -3  -5   61456    5122  -2
   2   5   7   61456    5122   1
   3  -2  -4   10805    2850  -2
   3   5   7   10805    2850   1
   4  -1  -3   11998    5290  -2
   4   5   7   11998    5290   1
  -3  -9 -10    1968    1498  -2
  -3   6   7    1968    1498   1
  -2  -8  -9    5083    1362  -2
  -2   6   7    5083    1362   1
  -1  -7  -8   48015    3171  -2
  -1   6   7   48015    3171   1
   0  -6  -7    5562     938  -2
   0   6   7    5562     938   1
   1  -5  -6   14089    1733  -2
   1   6   7   14089    1733   1
   2  -4  -5   18905    2392  -2
   2   6   7   18905    2392   1
   3  -3  -4   14234    4567  -2
   3   6   7   14234    4567   1
  -3 -10 -10    7125    2504  -2
  -3   7   7    7125    2504   1
  -2  -9  -9    3190    1188  -2
  -2   7   7    3190    1188   1
  -1  -8  -8   15612    1885  -2
  -1   7   7   15612    1885   1
   0  -7  -7   31879    2551  -2
   0   7   7   31879    2551   1
   1  -6  -6   12875    1802  -2
   1   7   7   12875    1802   1
   2  -5  -5    6170    2029  -2
   2   7   7    6170    2029   1
   3  -4  -4   22600    5764  -2
   3   7   7   22600    5764   1
   4  -3  -3    5071    3319  -2
   4   7   7    5071    3319   1
  -3 -11 -10    8197    3696  -2
  -3   8   7    8197    3696   1
  -2 -10  -9    -119     314  -2
  -2   8   7    -119     314   1
  -1  -9  -8   44354    3457  -2
  -1   8   7   44354    3457   1
   0  -8  -7   68684    4156  -2
   0   8   7   68684    4156   1
   1  -7  -6   35776    2915  -2
   1   8   7   35776    2915   1
   2  -6  -5    4108    1505  -2
   2   8   7    4108    1505   1
   3  -5  -4    5798    3339  -2
   3   8   7    5798    3339   1
   4  -4  -3    5683    3416  -2
   4   8   7    5683    3416   1
  -3 -12 -10    6891    4804  -2
  -3   9   7    6891    4804   1
  -2 -11  -9   16597    4241  -2
  -2   9   7   16597    4241   1
  -1 -10  -8    7296    1469  -2
  -1   9   7    7296    1469   1
   0  -9  -7   35662    3140  -2
   0   9   7   35662    3140   1
   1  -8  -6    2935     825  -2
   1   9   7    2935     825   1
   2  -7  -5    8568    2191  -2
   2   9   7    8568    2191   1
   3  -6  -4    8098    3978  -2
   3   9   7    8098    3978   1
   4  -5  -3    2905    2947  -2
   4   9   7    2905    2947   1
  -2 -12  -9   35095    5478  -2
  -2  10   7   35095    5478   1
  -1 -11  -8   19284    2575  -2
  -1  10   7   19284    2575   1
   0 -10  -7    7558    1753  -2
   0  10   7    7558    1753   1
   1  -9  -6   14743    1870  -2
   1  10   7   14743    1870   1
   2  -8  -5   25872    5235  -2
   2  10   7   25872    5235   1
   3  -7  -4    2358    2269  -2
   3  10   7    2358    2269   1
   4  -6  -3    7626    3856  -2
   4  10   7    7626    3856   1
  -2 -13  -9   11448    3323  -2
  -2  11   7   11448    3323   1
  -1 -12  -8    8068    2474  -2
  -1  11   7    8068    2474   1
   0 -11  -7    7003    1752  -2
   0  11   7    7003    1752   1
   1 -10  -6   11346    2341  -2
   1  11   7   11346    2341   1
   2  -9  -5   10000    3431  -2
   2  11   7   10000    3431   1
   3  -8  -4    3876    2020  -2
   3  11   7    3876    2020   1
  -2 -14  -9    7558    2802  -2
  -2  12   7    7558    2802   1
  -1 -13  -8    7890    2607  -2
  -1  12   7    7890    2607   1
   0 -12  -7   34689    5333  -2
   0  12   7   34689    5333   1
   1 -11  -6   25285    5328  -2
   1  12   7   25285    5328   1
   2 -10  -5    9938    3533  -2
   2  12   7    9938    3533   1
   3  -9  -4    2169    2126  -2
   3  12   7    2169    2126   1
  -1 -14  -8    9760    3120  -2
  -1  13   7    9760    3120   1
   0 -13  -7    3532    2736  -2
   0  13   7    3532    2736   1
   1 -12  -6   17019    4656  -2
   1  13   7   17019    4656   1
   2 -11  -5    5430    3205  -2
   2  13   7    5430    3205   1
   3 -10  -4    3865    2512  -2
   3  13   7    3865    2512   1
  -1 -15  -8   16173    5944  -2
  -1  14   7   16173    5944   1
   0 -14  -7   10897    4352  -2
   0  14   7   10897    4352   1
   1 -13  -6    1895    2076  -2
   1  14   7    1895    2076   1
   2 -12  -5    2042    2065  -2
   2  14   7    2042    2065   1
   0 -15  -7    9862    4304  -2
   0  15   7    9862    4304   1
   1 -14  -6   33142    7608  -2
   1  15   7   33142    7608   1
  -1   8  -9    8312    2588  -2
  -1  -9   8    8312    2588   1
   0   9  -8    9341    4209  -2
   0  -9   8    9341    4209   1
   1  10  -7   21051    3511  -2
   1  -9   8   21051    3511   1
  -2   6 -10    7412    3623  -2
  -2  -8   8    7412    3623   1
  -1   7  -9   29077    4643  -2
  -1  -8   8   29077    4643   1
   0   8  -8    6096    2930  -2
   0  -8   8    6096    2930   1
   1   9  -7   22199    3570  -2
   1  -8   8   22199    3570   1
   2  10  -6   14071    4221  -2
   2  -8   8   14071    4221   1
  -2   5 -10   10367    3869  -2
  -2  -7   8   10367    3869   1
  -1   6  -9   38460    7062  -2
  -1  -7   8   38460    7062   1
   0   7  -8    4323    2633  -2
   0  -7   8    4323    2633   1
   1   8  -7   50133    5365  -2
   1  -7   8   50133    5365   1
   2   9  -6    9184    3556  -2
   2  -7   8    9184    3556   1
  -2   4 -10    3713    2427  -2
  -2  -6   8    3713    2427   1
  -1   5  -9   11644    3714  -2
  -1  -6   8   11644    3714   1
   0   6  -8    4161    3326  -2
   0  -6   8    4161    3326   1
   1   7  -7    2307     979  -2
   1  -6   8    2307     979   1
   2   8  -6   18822    4002  -2
   2  -6   8   18822    4002   1
   3   9  -5   10522    5996  -2
   3  -6   8   10522    5996   1
  -3   2 -11    1585    1705  -2
  -3  -5   8    1585    1705   1
  -2   3 -10   13161    3863  -2
  -2  -5   8   13161    3863   1
  -1   4  -9   36463    4653  -2
  -1  -5   8   36463    4653   1
   0   5  -8   75896    6565  -2
   0  -5   8   75896    6565   1
   1   6  -7   37987    4459  -2
   1  -5   8   37987    4459   1
   2   7  -6   24127    4501  -2
   2  -5   8   24127    4501   1
   3   8  -5    6021    4321  -2
   3  -5   8    6021    4321   1
  -3   1 -11    2840    2094  -2
  -3  -4   8    2840    2094   1
  -2   2 -10    3740    2310  -2
  -2  -4   8    3740    2310   1
  -1   3  -9    8864    2208  -2
  -1  -4   8    8864    2208   1
   0   4  -8   71128    5143  -2
   0  -4   8   71128    5143   1
   1   5  -7   17927    2395  -2
   1  -4   8   17927    2395   1
   2   6  -6   24754    4233  -2
   2  -4   8   24754    4233   1
   3   7  -5    4696    4232  -2
   3  -4   8    4696    4232   1
  -3   0 -11    2717    1637  -2
  -3  -3   8    2717    1637   1
  -2   1 -10    5758    1568  -2
  -2  -3   8    5758    1568   1
  -1   2  -9   18957    3888  -2
  -1  -3   8   18957    3888   1
   0   3  -8   47346    4304  -2
   0  -3   8   47346    4304   1
   1   4  -7   30998    4011  -2
   1  -3   8   30998    4011   1
   2   5  -6    6197    2130  -2
   2  -3   8    6197    2130   1
   3   6  -5    9745    5157  -2
   3  -3   8    9745    5157   1
  -3  -1 -11   10185    3630  -2
  -3  -2   8   10185    3630   1
  -2   0 -10   11440    2191  -2
  -2  -2   8   11440    2191   1
  -1   1  -9     767     571  -2
  -1  -2   8     767     571   1
   0   2  -8   44655    3136  -2
   0  -2   8   44655    3136   1
   1   3  -7   64681    7250  -2
   1  -2   8   64681    7250   1
   2   4  -6   68841    6713  -2
   2  -2   8   68841    6713   1
   3   5  -5   17830    5519  -2
   3  -2   8   17830    5519   1
   4   6  -4     944    1619  -2
   4  -2   8     944    1619   1
  -3  -2 -11    4449    2077  -2
  -3  -1   8    4449    2077   1
  -2  -1 -10   61743    6236  -2
  -2  -1   8   61743    6236   1
  -1   0  -9   60442    4246  -2
  -1  -1   8   60442    4246   1
   0   1  -8    1867     518  -2
   0  -1   8    1867     518   1
   1   2  -7   25230    2252  -2
   1  -1   8   25230    2252   1
   2   3  -6   22163    4494  -2
   2  -1   8   22163    4494   1
   3   4  -5    6966    2367  -2
   3  -1   8    6966    2367   1
   4   5  -4    4194    3840  -2
   4  -1   8    4194    3840   1
  -3  -3 -11    2197    1484  -2
  -3   0   8    2197    1484   1
  -2  -2 -10    2666    1176  -2
  -2   0   8    2666    1176   1
  -1  -1  -9   13381    1377  -2
  -1   0   8   13381    1377   1
   0   0  -8   48252    2625  -2
   0   0   8   48252    2625   1
   1   1  -7   52920    4341  -2
   1   0   8   52920    4341   1
   2   2  -6   21301    3059  -2
   2   0   8   21301    3059   1
   3   3  -5   16559    2575  -2
   3   0   8   16559    2575   1
   4   4  -4    1310    1699  -2
   4   0   8    1310    1699   1
  -3  -4 -11    5180    2043  -2
  -3   1   8    5180    2043   1
  -2  -3 -10   36757    3580  -2
  -2   1   8   36757    3580   1
  -1  -2  -9   44857    3178  -2
  -1   1   8   44857    3178   1
   0  -1  -8    9884    1307  -2
   0   1   8    9884    1307   1
   1   0  -7   18686    1889  -2
   1   1   8   18686    1889   1
   2   1  -6   49269    3797  -2
   2   1   8   49269    3797   1
   3   2  -5   17946    3052  -2
   3   1   8   17946    3052   1
   4   3  -4    2360    3666  -2
   4   1   8    2360    3666   1
  -3  -5 -11     831     743  -2
  -3   2   8     831     743   1
  -2  -4 -10   11695    2022  -2
  -2   2   8   11695    2022   1
  -1  -3  -9   49355    2201  -2
  -1   2   8   49355    2201   1
   0  -2  -8  125837    7363  -2
   0   2   8  125837    7363   1
   1  -1  -7   83150    4837  -2
   1   2   8   83150    4837   1
   2   0  -6   26940    3381  -2
   2   2   8   26940    3381   1
   3   1  -5    2131    3371  -2
   3   2   8    2131    3371   1
   4   2  -4    8309    4406  -2
   4   2   8    8309    4406   1
  -3  -6 -11    7133    2435  -2
  -3   3   8    7133    2435   1
  -2  -5 -10   41814    3681  -2
  -2   3   8   41814    3681   1
  -1  -4  -9   84031    4279  -2
  -1   3   8   84031    4279   1
   0  -3  -8    7877    1770  -2
   0   3   8    7877    1770   1
   1  -2  -7   11900    1480  -2
   1   3   8   11900    1480   1
   2  -1  -6   14017    2371  -2
   2   3   8   14017    2371   1
   3   0  -5    1125    1170  -2
   3   3   8    1125    1170   1
   4   1  -4    2106    2125  -2
   4   3   8    2106    2125   1
  -3  -7 -11     461     807  -2
  -3   4   8     461     807   1
  -2  -6 -10    5951    1196  -2
  -2   4   8    5951    1196   1
  -1  -5  -9   28588    2544  -2
  -1   4   8   28588    2544   1
   0  -4  -8  152069    8065  -2
   0   4   8  152069    8065   1
   1  -3  -7   92863    7281  -2
   1   4   8   92863    7281   1
   2  -2  -6   32765    3689  -2
   2   4   8   32765    3689   1
   3  -1  -5   15577    2821  -2
   3   4   8   15577    2821   1
   4   0  -4    3360    2759  -2
   4   4   8    3360    2759   1
  -3  -8 -11    9625    2413  -2
  -3   5   8    9625    2413   1
  -2  -7 -10    2934     935  -2
  -2   5   8    2934     935   1
  -1  -6  -9     542     320  -2
  -1   5   8     542     320   1
   0  -5  -8    5563     980  -2
   0   5   8    5563     980   1
   1  -4  -7   17397    2101  -2
   1   5   8   17397    2101   1
   2  -3  -6   54030    4926  -2
   2   5   8   54030    4926   1
   3  -2  -5    6331    2317  -2
   3   5   8    6331    2317   1
   4  -1  -4    5293    3595  -2
   4   5   8    5293    3595   1
  -3  -9 -11    3434    1778  -2
  -3   6   8    3434    1778   1
  -2  -8 -10    5414    1459  -2
  -2   6   8    5414    1459   1
  -1  -7  -9   50111    3343  -2
  -1   6   8   50111    3343   1
   0  -6  -8  200209    5838  -2
   0   6   8  200209    5838   1
   1  -5  -7   31537    3064  -2
   1   6   8   31537    3064   1
   2  -4  -6   21264    3796  -2
   2   6   8   21264    3796   1
   3  -3  -5   10704    2862  -2
   3   6   8   10704    2862   1
   4  -2  -4    2552    2454  -2
   4   6   8    2552    2454   1
  -3 -10 -11    9980    2926  -2
  -3   7   8    9980    2926   1
  -2  -9 -10    3472    1166  -2
  -2   7   8    3472    1166   1
  -1  -8  -9   36593    2620  -2
  -1   7   8   36593    2620   1
   0  -7  -8   24508    2145  -2
   0   7   8   24508    2145   1
   1  -6  -7   37320    2674  -2
   1   7   8   37320    2674   1
   2  -5  -6   20173    3833  -2
   2   7   8   20173    3833   1
   3  -4  -5   17897    5299  -2
   3   7   8   17897    5299   1
   4  -3  -4     912    1036  -2
   4   7   8     912    1036   1
  -3 -11 -11    1309    1267  -2
  -3   8   8    1309    1267   1
  -2 -10 -10   29136    3484  -2
  -2   8   8   29136    3484   1
  -1  -9  -9   33054    2676  -2
  -1   8   8   33054    2676   1
   0  -8  -8   80195    4423  -2
   0   8   8   80195    4423   1
   1  -7  -7   16662    1999  -2
   1   8   8   16662    1999   1
   2  -6  -6    2929    1103  -2
   2   8   8    2929    1103   1
   3  -5  -5    6749    3309  -2
   3   8   8    6749    3309   1
   4  -4  -4    1400    1691  -2
   4   8   8    1400    1691   1
  -2 -11 -10   15168    3545  -2
  -2   9   8   15168    3545   1
  -1 -10  -9   12385    2114  -2
  -1   9   8   12385    2114   1
   0  -9  -8    2643     921  -2
   0   9   8    2643     921   1
   1  -8  -7   53797    3742  -2
   1   9   8   53797    3742   1
   2  -7  -6   34117    4277  -2
   2   9   8   34117    4277   1
   3  -6  -5    3616    2441  -2
   3   9   8    3616    2441   1
   4  -5  -4    4091    2782  -2
   4   9   8    4091    2782   1
  -2 -12 -10   46227    6447  -2
  -2  10   8   46227    6447   1
  -1 -11  -9   28247    3400  -2
  -1  10   8   28247    3400   1
   0 -10  -8     882     706  -2
   0  10   8     882     706   1
   1  -9  -7    8126    1376  -2
   1  10   8    8126    1376   1
   2  -8  -6    1022     855  -2
   2  10   8    1022     855   1
   3  -7  -5    2968    2560  -2
   3  10   8    2968    2560   1
  -2 -13 -10     992    1379  -2
  -2  11   8     992    1379   1
  -1 -12  -9   26623    4250  -2
  -1  11   8   26623    4250   1
   0 -11  -8    1242     666  -2
   0  11   8    1242     666   1
   1 -10  -7   23730    2432  -2
   1  11   8   23730    2432   1
   2  -9  -6   20499    4831  -2
   2  11   8   20499    4831   1
   3  -8  -5   -1707    1653  -2
   3  11   8   -1707    1653   1
  -2 -14 -10   22160    4756  -2
  -2  12   8   22160    4756   1
  -1 -13  -9   46474    6473  -2
  -1  12   8   46474    6473   1
   0 -12  -8    2108    1208  -2
   0  12   8    2108    1208   1
   1 -11  -7    5755    2375  -2
   1  12   8    5755    2375   1
   2 -10  -6    6602    3159  -2
   2  12   8    6602    3159   1
   3  -9  -5    7288    3846  -2
   3  12   8    7288    3846   1
  -1 -14  -9    9971    2995  -2
  -1  13   8    9971    2995   1
   0 -13  -8   16278    3717  -2
   0  13   8   16278    3717   1
   1 -12  -7    5830    2934  -2
   1  13   8    5830    2934   1
   2 -11  -6   19065    5336  -2
   2  13   8   19065    5336   1
   3 -10  -5     -52     347  -2
   3  13   8     -52     347   1
  -1 -15  -9    9056    4410  -2
  -1  14   8    9056    4410   1
   0 -14  -8   17938    5481  -2
   0  14   8   17938    5481   1
   1 -13  -7    6598    3188  -2
   1  14   8    6598    3188   1
   2 -12  -6    6555    3562  -2
   2  14   8    6555    3562   1
   0 -15  -8   39777    8605  -2
   0  15   8   39777    8605   1
   1 -14  -7   12008    4484  -2
   1  15   8   12008    4484   1
  -1   7 -10    8495    3651  -2
  -1  -8   9    8495    3651   1
   0   8  -9   15559    5098  -2
   0  -8   9   15559    5098   1
   1   9  -8    6940    2092  -2
   1  -8   9    6940    2092   1
  -2   5 -11    3889    2340  -2
  -2  -7   9    3889    2340   1
  -1   6 -10    7631    2348  -2
  -1  -7   9    7631    2348   1
   0   7  -9   11008    2927  -2
   0  -7   9   11008    2927   1
   1   8  -8   28722    4297  -2
   1  -7   9   28722    4297   1
   2   9  -7   15548    5092  -2
   2  -7   9   15548    5092   1
  -2   4 -11    3529    1954  -2
  -2  -6   9    3529    1954   1
  -1   5 -10    2687    1305  -2
  -1  -6   9    2687    1305   1
   0   6  -9   63515    7348  -2
   0  -6   9   63515    7348   1
   1   7  -8   35321    4535  -2
   1  -6   9   35321    4535   1
   2   8  -7   20579    4803  -2
   2  -6   9   20579    4803   1
  -2   3 -11    7934    3087  -2
  -2  -5   9    7934    3087   1
  -1   4 -10   31278    5760  -2
  -1  -5   9   31278    5760   1
   0   5  -9    5806    2009  -2
   0  -5   9    5806    2009   1
   1   6  -8   14622    2771  -2
   1  -5   9   14622    2771   1
   2   7  -7    5593    2377  -2
   2  -5   9    5593    2377   1
   3   8  -6    6239    5245  -2
   3  -5   9    6239    5245   1
  -2   2 -11    5892    2682  -2
  -2  -4   9    5892    2682   1
  -1   3 -10   21406    4797  -2
  -1  -4   9   21406    4797   1
   0   4  -9    -171     155  -2
   0  -4   9    -171     155   1
   1   5  -8   26368    4234  -2
   1  -4   9   26368    4234   1
   2   6  -7    8691    3486  -2
   2  -4   9    8691    3486   1
   3   7  -6    6892    5662  -2
   3  -4   9    6892    5662   1
  -3   0 -12    4337    1919  -2
  -3  -3   9    4337    1919   1
  -2   1 -11   30640    3623  -2
  -2  -3   9   30640    3623   1
  -1   2 -10   28975    3363  -2
  -1  -3   9   28975    3363   1
   0   3  -9   50023    5434  -2
   0  -3   9   50023    5434   1
   1   4  -8   11531    1891  -2
   1  -3   9   11531    1891   1
   2   5  -7    5897    2234  -2
   2  -3   9    5897    2234   1
   3   6  -6    6874    4843  -2
   3  -3   9    6874    4843   1
  -3  -1 -12    3581    1623  -2
  -3  -2   9    3581    1623   1
  -2   0 -11    7676    1613  -2
  -2  -2   9    7676    1613   1
  -1   1 -10    8818    2144  -2
  -1  -2   9    8818    2144   1
   0   2  -9    8850    1405  -2
   0  -2   9    8850    1405   1
   1   3  -8   14252    2182  -2
   1  -2   9   14252    2182   1
   2   4  -7   38169    4106  -2
   2  -2   9   38169    4106   1
   3   5  -6     281     801  -2
   3  -2   9     281     801   1
  -3  -2 -12    8331    2657  -2
  -3  -1   9    8331    2657   1
  -2  -1 -11   46300    4612  -2
  -2  -1   9   46300    4612   1
  -1   0 -10   39025    2918  -2
  -1  -1   9   39025    2918   1
   0   1  -9   14716    1770  -2
   0  -1   9   14716    1770   1
   1   2  -8     626     491  -2
   1  -1   9     626     491   1
   2   3  -7    1276     828  -2
   2  -1   9    1276     828   1
   3   4  -6    3666    1937  -2
   3  -1   9    3666    1937   1
  -3  -3 -12    -259     503  -2
  -3   0   9    -259     503   1
  -2  -2 -11    5398    1313  -2
  -2   0   9    5398    1313   1
  -1  -1 -10   61544    3223  -2
  -1   0   9   61544    3223   1
   0   0  -9  109921    4341  -2
   0   0   9  109921    4341   1
   1   1  -8   59793    3222  -2
   1   0   9   59793    3222   1
   2   2  -7   12651    3138  -2
   2   0   9   12651    3138   1
   3   3  -6    4387    3260  -2
   3   0   9    4387    3260   1
   4   4  -5    2773    3908  -2
   4   0   9    2773    3908   1
  -3  -4 -12    8468    2585  -2
  -3   1   9    8468    2585   1
  -2  -3 -11   12799    2014  -2
  -2   1   9   12799    2014   1
  -1  -2 -10   34197    2607  -2
  -1   1   9   34197    2607   1
   0  -1  -9   69549    3870  -2
   0   1   9   69549    3870   1
   1   0  -8    9303    1334  -2
   1   1   9    9303    1334   1
   2   1  -7   11918    4363  -2
   2   1   9   11918    4363   1
   3   2  -6   33593    4139  -2
   3   1   9   33593    4139   1
   4   3  -5    3843    3574  -2
   4   1   9    3843    3574   1
  -3  -5 -12    3100    1660  -2
  -3   2   9    3100    1660   1
  -2  -4 -11    8629    1680  -2
  -2   2   9    8629    1680   1
  -1  -3 -10   50822    7869  -2
  -1   2   9   50822    7869   1
   0  -2  -9   87522    7794  -2
   0   2   9   87522    7794   1
   1  -1  -8   49947    3348  -2
   1   2   9   49947    3348   1
   2   0  -7    7336    1833  -2
   2   2   9    7336    1833   1
   3   1  -6    8792    2271  -2
   3   2   9    8792    2271   1
   4   2  -5    5279    3895  -2
   4   2   9    5279    3895   1
  -3  -6 -12    2668    1332  -2
  -3   3   9    2668    1332   1
  -2  -5 -11   28321    2877  -2
  -2   3   9   28321    2877   1
   0  -3  -9    5745    1633  -2
   0   3   9    5745    1633   1
   1  -2  -8   56239    3247  -2
   1   3   9   56239    3247   1
   2  -1  -7   14179    2523  -2
   2   3   9   14179    2523   1
   3   0  -6     878     981  -2
   3   3   9     878     981   1
   4   1  -5    5575    3750  -2
   4   3   9    5575    3750   1
  -3  -7 -12    -403     673  -2
  -3   4   9    -403     673   1
  -2  -6 -11   14088    2178  -2
  -2   4   9   14088    2178   1
  -1  -5 -10   41262    8062  -2
  -1   4   9   41262    8062   1
   0  -4  -9   70406    7313  -2
   0   4   9   70406    7313   1
   1  -3  -8  100797    4227  -2
   1   4   9  100797    4227   1
   2  -2  -7   12659    2445  -2
   2   4   9   12659    2445   1
   3  -1  -6    1185    1020  -2
   3   4   9    1185    1020   1
  -3  -8 -12    2817    1605  -2
  -3   5   9    2817    1605   1
  -2  -7 -11    6149    1304  -2
  -2   5   9    6149    1304   1
  -1  -6 -10   19419    1756  -2
  -1   5   9   19419    1756   1
   0  -5  -9   21568    3945  -2
   0   5   9   21568    3945   1
   1  -4  -8   24809    2005  -2
   1   5   9   24809    2005   1
   2  -3  -7   36198    4954  -2
   2   5   9   36198    4954   1
   3  -2  -6    8204    2674  -2
   3   5   9    8204    2674   1
   4  -1  -5    2232    2891  -2
   4   5   9    2232    2891   1
  -3  -9 -12    4422    1730  -2
  -3   6   9    4422    1730   1
  -2  -8 -11    4013     985  -2
  -2   6   9    4013     985   1
  -1  -7 -10   31956    2342  -2
  -1   6   9   31956    2342   1
   0  -6  -9   45729    3799  -2
   0   6   9   45729    3799   1
   1  -5  -8     195     281  -2
   1   6   9     195     281   1
   2  -4  -7   33743    6514  -2
   2   6   9   33743    6514   1
   3  -3  -6    9071    2795  -2
   3   6   9    9071    2795   1
   4  -2  -5     586    2004  -2
   4   6   9     586    2004   1
  -3 -10 -12    3167    3760  -2
  -3   7   9    3167    3760   1
  -2  -9 -11    7178    1624  -2
  -2   7   9    7178    1624   1
  -1  -8 -10   22222    2081  -2
  -1   7   9   22222    2081   1
   0  -7  -9   16298    1763  -2
   0   7   9   16298    1763   1
   1  -6  -8   37649    4121  -2
   1   7   9   37649    4121   1
   2  -5  -7    6195    1711  -2
   2   7   9    6195    1711   1
   3  -4  -6    7108    2547  -2
   3   7   9    7108    2547   1
   4  -3  -5      17     898  -2
   4   7   9      17     898   1
  -2 -10 -11   14803    3394  -2
  -2   8   9   14803    3394   1
  -1  -9 -10   16327    1905  -2
  -1   8   9   16327    1905   1
   0  -8  -9   29716    2707  -2
   0   8   9   29716    2707   1
   1  -7  -8   47191    3924  -2
   1   8   9   47191    3924   1
   2  -6  -7    3303    1306  -2
   2   8   9    3303    1306   1
   3  -5  -6    2544    1926  -2
   3   8   9    2544    1926   1
   4  -4  -5    2642    2786  -2
   4   8   9    2642    2786   1
  -2 -11 -11    1460    1043  -2
  -2   9   9    1460    1043   1
  -1 -10 -10   18202    2667  -2
  -1   9   9   18202    2667   1
   0  -9  -9   14728    2145  -2
   0   9   9   14728    2145   1
   1  -8  -8   31203    2875  -2
   1   9   9   31203    2875   1
   2  -7  -7     727     873  -2
   2   9   9     727     873   1
   3  -6  -6    4387    2538  -2
   3   9   9    4387    2538   1
   4  -5  -5       6     436  -2
   4   9   9       6     436   1
  -2 -12 -11   15937    5588  -2
  -2  10   9   15937    5588   1
  -1 -11 -10   19485    2318  -2
  -1  10   9   19485    2318   1
   0 -10  -9   22451    2871  -2
   0  10   9   22451    2871   1
   1  -9  -8    7987    1507  -2
   1  10   9    7987    1507   1
   2  -8  -7    -418     804  -2
   2  10   9    -418     804   1
   3  -7  -6     358     667  -2
   3  10   9     358     667   1
  -2 -13 -11    4489    2126  -2
  -2  11   9    4489    2126   1
  -1 -12 -10    9786    2835  -2
  -1  11   9    9786    2835   1
   0 -11  -9   22570    3113  -2
   0  11   9   22570    3113   1
   1 -10  -8   21146    3131  -2
   1  11   9   21146    3131   1
   2  -9  -7   25691    6188  -2
   2  11   9   25691    6188   1
   3  -8  -6    2349    2045  -2
   3  11   9    2349    2045   1
  -1 -13 -10    1775    2188  -2
  -1  12   9    1775    2188   1
   0 -12  -9   11335    2316  -2
   0  12   9   11335    2316   1
   1 -11  -8   23125    4070  -2
   1  12   9   23125    4070   1
   2 -10  -7   26001    5676  -2
   2  12   9   26001    5676   1
   3  -9  -6    7919    3539  -2
   3  12   9    7919    3539   1
  -1 -14 -10   13307    3607  -2
  -1  13   9   13307    3607   1
   0 -13  -9    2840    1459  -2
   0  13   9    2840    1459   1
   1 -12  -8   36086    5441  -2
   1  13   9   36086    5441   1
   2 -11  -7    7199    3223  -2
   2  13   9    7199    3223   1
   0 -14  -9      30     650  -2
   0  14   9      30     650   1
   1 -13  -8    7466    3234  -2
   1  14   9    7466    3234   1
   2 -12  -7    3923    2797  -2
   2  14   9    3923    2797   1
   1 -14  -8    1952    1708  -2
   1  15   9    1952    1708   1
  -1   6 -11   11270    4062  -2
  -1  -7  10   11270    4062   1
   0   7 -10    1652    1304  -2
   0  -7  10    1652    1304   1
   1   8  -9   12775    2906  -2
   1  -7  10   12775    2906   1
  -1   5 -11     502     764  -2
  -1  -6  10     502     764   1
   0   6 -10   14422    3390  -2
   0  -6  10   14422    3390   1
   1   7  -9    8570    2339  -2
   1  -6  10    8570    2339   1
   2   8  -8   10829    3733  -2
   2  -6  10   10829    3733   1
  -2   3 -12    8166    3492  -2
  -2  -5  10    8166    3492   1
  -1   4 -11   24214    4066  -2
  -1  -5  10   24214    4066   1
   0   5 -10       7     898  -2
   0  -5  10       7     898   1
   1   6  -9    3636    1403  -2
   1  -5  10    3636    1403   1
   2   7  -8   20205    3647  -2
   2  -5  10   20205    3647   1
  -2   2 -12    9968    2661  -2
  -2  -4  10    9968    2661   1
  -1   3 -11   27369    2814  -2
  -1  -4  10   27369    2814   1
   0   4 -10   29394    3510  -2
   0  -4  10   29394    3510   1
   1   5  -9   24859    4373  -2
   1  -4  10   24859    4373   1
   2   6  -8    3617    1933  -2
   2  -4  10    3617    1933   1
  -2   1 -12    7456    2207  -2
  -2  -3  10    7456    2207   1
  -1   2 -11    6222    1382  -2
  -1  -3  10    6222    1382   1
   0   3 -10    1381     386  -2
   0  -3  10    1381     386   1
   1   4  -9   26694    3034  -2
   1  -3  10   26694    3034   1
   2   5  -8   10830    3052  -2
   2  -3  10   10830    3052   1
   3   6  -7     558    1832  -2
   3  -3  10     558    1832   1
  -2   0 -12    5371    1866  -2
  -2  -2  10    5371    1866   1
  -1   1 -11   15394    2042  -2
  -1  -2  10   15394    2042   1
   0   2 -10   48075    5153  -2
   0  -2  10   48075    5153   1
   1   3  -9   28440    2991  -2
   1  -2  10   28440    2991   1
   2   4  -8    4369    2118  -2
   2  -2  10    4369    2118   1
   3   5  -7    3908    2927  -2
   3  -2  10    3908    2927   1
  -3  -2 -13   19411    6234  -2
  -3  -1  10   19411    6234   1
  -2  -1 -12    7873    2140  -2
  -2  -1  10    7873    2140   1
  -1   0 -11   12097    1280  -2
  -1  -1  10   12097    1280   1
   0   1 -10   28249    2692  -2
   0  -1  10   28249    2692   1
   1   2  -9   12127    2341  -2
   1  -1  10   12127    2341   1
   2   3  -8    7309    1856  -2
   2  -1  10    7309    1856   1
   3   4  -7    7078    2588  -2
   3  -1  10    7078    2588   1
  -3  -3 -13    2204    1088  -2
  -3   0  10    2204    1088   1
  -2  -2 -12    3505    1889  -2
  -2   0  10    3505    1889   1
  -1  -1 -11   45121    4829  -2
  -1   0  10   45121    4829   1
   0   0 -10   52505    3185  -2
   0   0  10   52505    3185   1
   1   1  -9   36969    3327  -2
   1   0  10   36969    3327   1
   2   2  -8   13025    2366  -2
   2   0  10   13025    2366   1
   3   3  -7    4512    2265  -2
   3   0  10    4512    2265   1
  -3  -4 -13    5086    2054  -2
  -3   1  10    5086    2054   1
  -2  -3 -12   16345    2660  -2
  -2   1  10   16345    2660   1
  -1  -2 -11   12780    5190  -2
  -1   1  10   12780    5190   1
   0  -1 -10   19941    2119  -2
   0   1  10   19941    2119   1
   1   0  -9   62733    3779  -2
   1   1  10   62733    3779   1
   2   1  -8   49489    4241  -2
   2   1  10   49489    4241   1
   3   2  -7   15333    3004  -2
   3   1  10   15333    3004   1
  -3  -5 -13    3144    2801  -2
  -3   2  10    3144    2801   1
  -2  -4 -12   45663    5002  -2
  -2   2  10   45663    5002   1
  -1  -3 -11   29717    7459  -2
  -1   2  10   29717    7459   1
   0  -2 -10   51096    9367  -2
   0   2  10   51096    9367   1
   1  -1  -9   38645    4345  -2
   1   2  10   38645    4345   1
   2   0  -8    2463    1100  -2
   2   2  10    2463    1100   1
   3   1  -7    8343    2297  -2
   3   2  10    8343    2297   1
   4   2  -6    5182    3920  -2
   4   2  10    5182    3920   1
  -3  -6 -13    6276    4520  -2
  -3   3  10    6276    4520   1
  -2  -5 -12    7691    1720  -2
  -2   3  10    7691    1720   1
  -1  -4 -11    5350    3421  -2
  -1   3  10    5350    3421   1
   0  -3 -10    8525    3652  -2
   0   3  10    8525    3652   1
   1  -2  -9   62429    3356  -2
   1   3  10   62429    3356   1
   2  -1  -8   41616    5437  -2
   2   3  10   41616    5437   1
   3   0  -7    3864    1742  -2
   3   3  10    3864    1742   1
   4   1  -6     391    2689  -2
   4   3  10     391    2689   1
  -3  -7 -13     506    1247  -2
  -3   4  10     506    1247   1
  -2  -6 -12   15830    2598  -2
  -2   4  10   15830    2598   1
  -1  -5 -11   91095   13288  -2
  -1   4  10   91095   13288   1
   0  -4 -10   15139    4892  -2
   0   4  10   15139    4892   1
   1  -3  -9   14264    1525  -2
   1   4  10   14264    1525   1
   2  -2  -8   15242    3385  -2
   2   4  10   15242    3385   1
   3  -1  -7    2147    1400  -2
   3   4  10    2147    1400   1
   4   0  -6    3305    3187  -2
   4   4  10    3305    3187   1
  -3  -8 -13    1245    1493  -2
  -3   5  10    1245    1493   1
  -2  -7 -12     767     490  -2
  -2   5  10     767     490   1
  -1  -6 -11   39875    8374  -2
  -1   5  10   39875    8374   1
   0  -5 -10   12625    4419  -2
   0   5  10   12625    4419   1
   1  -4  -9   49665    3120  -2
   1   5  10   49665    3120   1
   2  -3  -8   49823    5784  -2
   2   5  10   49823    5784   1
   3  -2  -7    6673    2510  -2
   3   5  10    6673    2510   1
   4  -1  -6     -60    2461  -2
   4   5  10     -60    2461   1
  -2  -8 -12   10794    1977  -2
  -2   6  10   10794    1977   1
  -1  -7 -11   47494    4091  -2
  -1   6  10   47494    4091   1
   0  -6 -10    3833    2859  -2
   0   6  10    3833    2859   1
   1  -5  -9   24921    2036  -2
   1   6  10   24921    2036   1
   2  -4  -8    7500    2121  -2
   2   6  10    7500    2121   1
   3  -3  -7   17257    7710  -2
   3   6  10   17257    7710   1
   4  -2  -6    4046    3499  -2
   4   6  10    4046    3499   1
  -2  -9 -12   11190    2147  -2
  -2   7  10   11190    2147   1
  -1  -8 -11    6739     929  -2
  -1   7  10    6739     929   1
   0  -7 -10  261229   15404  -2
   0   7  10  261229   15404   1
   1  -6  -9   24745    2446  -2
   1   7  10   24745    2446   1
   2  -5  -8    1556     835  -2
   2   7  10    1556     835   1
   3  -4  -7    7697    4409  -2
   3   7  10    7697    4409   1
   4  -3  -6     939    2054  -2
   4   7  10     939    2054   1
  -2 -10 -12   12271    3109  -2
  -2   8  10   12271    3109   1
  -1  -9 -11     232     372  -2
  -1   8  10     232     372   1
   0  -8 -10   27319    2438  -2
   0   8  10   27319    2438   1
   1  -7  -9   21019    2469  -2
   1   8  10   21019    2469   1
   2  -6  -8    7316    2123  -2
   2   8  10    7316    2123   1
   3  -5  -7    7339    2763  -2
   3   8  10    7339    2763   1
  -2 -11 -12    5245    2203  -2
  -2   9  10    5245    2203   1
  -1 -10 -11   15831    2113  -2
  -1   9  10   15831    2113   1
   0  -9 -10   42000    3475  -2
   0   9  10   42000    3475   1
   1  -8  -9   10841    1678  -2
   1   9  10   10841    1678   1
   2  -7  -8     751     839  -2
   2   9  10     751     839   1
   3  -6  -7      -5     756  -2
   3   9  10      -5     756   1
  -2 -12 -12   12474    3457  -2
  -2  10  10   12474    3457   1
  -1 -11 -11    4179    1691  -2
  -1  10  10    4179    1691   1
   0 -10 -10    1766     781  -2
   0  10  10    1766     781   1
   1  -9  -9   28584    2803  -2
   1  10  10   28584    2803   1
   2  -8  -8   18430    4079  -2
   2  10  10   18430    4079   1
   3  -7  -7    4835    3046  -2
   3  10  10    4835    3046   1
  -1 -12 -11   33424    5306  -2
  -1  11  10   33424    5306   1
   0 -11 -10   31928    3610  -2
   0  11  10   31928    3610   1
   1 -10  -9   26076    2726  -2
   1  11  10   26076    2726   1
   2  -9  -8   11510    3067  -2
   2  11  10   11510    3067   1
   3  -8  -7    1341     308  -2
   3  11  10    1341     308   1
  -1 -13 -11   10360    3098  -2
  -1  12  10   10360    3098   1
   0 -12 -10   16972    3627  -2
   0  12  10   16972    3627   1
   1 -11  -9    6845    2273  -2
   1  12  10    6845    2273   1
   2 -10  -8   29227    5080  -2
   2  12  10   29227    5080   1
   3  -9  -7    2828    2286  -2
   3  12  10    2828    2286   1
  -1 -14 -11    8504    2920  -2
  -1  13  10    8504    2920   1
   0 -13 -10   18117    3990  -2
   0  13  10   18117    3990   1
   1 -12  -9    4813    1904  -2
   1  13  10    4813    1904   1
   2 -11  -8    1414    1550  -2
   2  13  10    1414    1550   1
   0 -14 -10    2400    1699  -2
   0  14  10    2400    1699   1
   1 -13  -9   16385    3681  -2
   1  14  10   16385    3681   1
   2 -12  -8   13258    4526  -2
   2  14  10   13258    4526   1
   0   6 -11   12851    3274  -2
   0  -6  11   12851    3274   1
   1   7 -10   19391    3502  -2
   1  -6  11   19391    3502   1
  -1   4 -12    7136    2096  -2
  -1  -5  11    7136    2096   1
   0   5 -11     420     663  -2
   0  -5  11     420     663   1
   1   6 -10     266    1021  -2
   1  -5  11     266    1021   1
   2   7  -9    2392    3048  -2
   2  -5  11    2392    3048   1
  -2   2 -13    5845    2150  -2
  -2  -4  11    5845    2150   1
  -1   3 -12   22014    3684  -2
  -1  -4  11   22014    3684   1
   0   4 -11   69528    7151  -2
   0  -4  11   69528    7151   1
   1   5 -10   38856    4963  -2
   1  -4  11   38856    4963   1
   2   6  -9    1562     994  -2
   2  -4  11    1562     994   1
  -2   1 -13    6968    2325  -2
  -2  -3  11    6968    2325   1
  -1   2 -12    9957    2168  -2
  -1  -3  11    9957    2168   1
   0   3 -11     855     660  -2
   0  -3  11     855     660   1
   1   4 -10   32202    4344  -2
   1  -3  11   32202    4344   1
   2   5  -9    8365    2370  -2
   2  -3  11    8365    2370   1
  -2   0 -13   11281    2632  -2
  -2  -2  11   11281    2632   1
  -1   1 -12   32988    3800  -2
  -1  -2  11   32988    3800   1
   0   2 -11   26547    3811  -2
   0  -2  11   26547    3811   1
   1   3 -10   12693    2092  -2
   1  -2  11   12693    2092   1
   2   4  -9   20643   13790  -2
   2  -2  11   20643   13790   1
   3   5  -8   -1166    1789  -2
   3  -2  11   -1166    1789   1
  -2  -1 -13    6420    1847  -2
  -2  -1  11    6420    1847   1
  -1   0 -12    5413    2783  -2
  -1  -1  11    5413    2783   1
   0   1 -11   19012    2306  -2
   0  -1  11   19012    2306   1
   1   2 -10   12268    2899  -2
   1  -1  11   12268    2899   1
   2   3  -9   37915    4223  -2
   2  -1  11   37915    4223   1
   3   4  -8    2730    2198  -2
   3  -1  11    2730    2198   1
  -2  -2 -13    2291    1053  -2
  -2   0  11    2291    1053   1
  -1  -1 -12   26345    7810  -2
  -1   0  11   26345    7810   1
   0   0 -11   80939    5902  -2
   0   0  11   80939    5902   1
   1   1 -10   11627    1752  -2
   1   0  11   11627    1752   1
   2   2  -9    6757    1750  -2
   2   0  11    6757    1750   1
   3   3  -8    2384    2212  -2
   3   0  11    2384    2212   1
  -2  -3 -13   17674    4623  -2
  -2   1  11   17674    4623   1
  -1  -2 -12   14153    5946  -2
  -1   1  11   14153    5946   1
   0  -1 -11   63457   10806  -2
   0   1  11   63457   10806   1
   1   0 -10   42470    3137  -2
   1   1  11   42470    3137   1
   2   1  -9   42650    4310  -2
   2   1  11   42650    4310   1
   3   2  -8   15910    7118  -2
   3   1  11   15910    7118   1
  -2  -4 -13    6900    4925  -2
  -2   2  11    6900    4925   1
  -1  -3 -12   10862    5098  -2
  -1   2  11   10862    5098   1
   0  -2 -11   25820    7026  -2
   0   2  11   25820    7026   1
   1  -1 -10   12675    1817  -2
   1   2  11   12675    1817   1
   2   0  -9    2430    1164  -2
   2   2  11    2430    1164   1
   3   1  -8   11661    4313  -2
   3   2  11   11661    4313   1
  -1  -4 -12   17185    6397  -2
  -1   3  11   17185    6397   1
   0  -3 -11    7004    3435  -2
   0   3  11    7004    3435   1
   1  -2 -10   33214    2206  -2
   1   3  11   33214    2206   1
   2  -1  -9   12095    2871  -2
   2   3  11   12095    2871   1
   3   0  -8    2979    1817  -2
   3   3  11    2979    1817   1
  -2  -6 -13   24771    7442  -2
  -2   4  11   24771    7442   1
  -1  -5 -12   16619    5660  -2
  -1   4  11   16619    5660   1
   0  -4 -11   26840    6885  -2
   0   4  11   26840    6885   1
   1  -3 -10    6873    1123  -2
   1   4  11    6873    1123   1
   2  -2  -9    6424    3432  -2
   2   4  11    6424    3432   1
   3  -1  -8    -554     795  -2
   3   4  11    -554     795   1
  -2  -7 -13    7878    4247  -2
  -2   5  11    7878    4247   1
  -1  -6 -12    9314    4587  -2
  -1   5  11    9314    4587   1
   0  -5 -11     315     959  -2
   0   5  11     315     959   1
   1  -4 -10   65950    5186  -2
   1   5  11   65950    5186   1
   2  -3  -9   30559    4573  -2
   2   5  11   30559    4573   1
   3  -2  -8    2436    1493  -2
   3   5  11    2436    1493   1
  -2  -8 -13   12604    5079  -2
  -2   6  11   12604    5079   1
   0  -6 -11   20016    5804  -2
   0   6  11   20016    5804   1
   1  -5 -10   24074    2852  -2
   1   6  11   24074    2852   1
   2  -4  -9    9322    3081  -2
   2   6  11    9322    3081   1
   3  -3  -8    2977    1647  -2
   3   6  11    2977    1647   1
  -2  -9 -13   18404    6047  -2
  -2   7  11   18404    6047   1
  -1  -8 -12   43454    3868  -2
  -1   7  11   43454    3868   1
   0  -7 -11    3219    2486  -2
   0   7  11    3219    2486   1
   1  -6 -10   46330    2788  -2
   1   7  11   46330    2788   1
   2  -5  -9    5293    1795  -2
   2   7  11    5293    1795   1
   3  -4  -8     368     860  -2
   3   7  11     368     860   1
  -2 -10 -13   16189    5705  -2
  -2   8  11   16189    5705   1
  -1  -9 -12   13618    2645  -2
  -1   8  11   13618    2645   1
   0  -8 -11    5658    2564  -2
   0   8  11    5658    2564   1
   1  -7 -10    6619    1131  -2
   1   8  11    6619    1131   1
   2  -6  -9    3903    1222  -2
   2   8  11    3903    1222   1
   3  -5  -8    6711    3000  -2
   3   8  11    6711    3000   1
  -2 -11 -13    5073    2943  -2
  -2   9  11    5073    2943   1
  -1 -10 -12   32114    5071  -2
  -1   9  11   32114    5071   1
   0  -9 -11   29509    3211  -2
   0   9  11   29509    3211   1
   1  -8 -10     422     234  -2
   1   9  11     422     234   1
   2  -7  -9   10095    3617  -2
   2   9  11   10095    3617   1
   3  -6  -8    2391    1461  -2
   3   9  11    2391    1461   1
  -1 -11 -12   20523    3932  -2
  -1  10  11   20523    3932   1
   0 -10 -11   25874    3898  -2
   0  10  11   25874    3898   1
   1  -9 -10   16149    2010  -2
   1  10  11   16149    2010   1
   2  -8  -9   18490    3508  -2
   2  10  11   18490    3508   1
   3  -7  -8   52301   30071  -2
   3  10  11   52301   30071   1
  -1 -12 -12   39572    5791  -2
  -1  11  11   39572    5791   1
   0 -11 -11   32309    4745  -2
   0  11  11   32309    4745   1
   1 -10 -10    4133    1596  -2
   1  11  11    4133    1596   1
   2  -9  -9    2853    1188  -2
   2  11  11    2853    1188   1
   3  -8  -8     399     341  -2
   3  11  11     399     341   1
  -1 -13 -12    3965    3222  -2
  -1  12  11    3965    3222   1
   0 -12 -11   36523    5253  -2
   0  12  11   36523    5253   1
   1 -11 -10   28810    4300  -2
   1  12  11   28810    4300   1
   2 -10  -9    7190    3285  -2
   2  12  11    7190    3285   1
   0 -13 -11   15325    3624  -2
   0  13  11   15325    3624   1
   1 -12 -10   13163    3654  -2
   1  13  11   13163    3654   1
   2 -11  -9    5323    2247  -2
   2  13  11    5323    2247   1
   1 -13 -10    9892    3135  -2
   1  14  11    9892    3135   1
   0   5 -12   12569    5257  -2
   0  -5  12   12569    5257   1
  -1   3 -13   21335    6982  -2
  -1  -4  12   21335    6982   1
   0   4 -12   23406    7311  -2
   0  -4  12   23406    7311   1
   1   5 -11    7162    2222  -2
   1  -4  12    7162    2222   1
  -1   2 -13    5576    3965  -2
  -1  -3  12    5576    3965   1
   0   3 -12    3094    1230  -2
   0  -3  12    3094    1230   1
   1   4 -11   29323    4274  -2
   1  -3  12   29323    4274   1
   2   5 -10   12384    3191  -2
   2  -3  12   12384    3191   1
  -1   1 -13   27694    8178  -2
  -1  -2  12   27694    8178   1
   0   2 -12     128     794  -2
   0  -2  12     128     794   1
   1   3 -11   13145    2937  -2
   1  -2  12   13145    2937   1
   2   4 -10   17292    3484  -2
   2  -2  12   17292    3484   1
  -2  -1 -14    3188    3147  -2
  -2  -1  12    3188    3147   1
  -1   0 -13   16304    6572  -2
  -1  -1  12   16304    6572   1
   0   1 -12   21219    3134  -2
   0  -1  12   21219    3134   1
   1   2 -11   38440    7715  -2
   1  -1  12   38440    7715   1
   2   3 -10    9430    2327  -2
   2  -1  12    9430    2327   1
  -2  -2 -14    2670    2876  -2
  -2   0  12    2670    2876   1
  -1  -1 -13   21773    7361  -2
  -1   0  12   21773    7361   1
   0   0 -12   23764    7112  -2
   0   0  12   23764    7112   1
   1   1 -11    4942    1611  -2
   1   0  12    4942    1611   1
   2   2 -10    4213    1543  -2
   2   0  12    4213    1543   1
   3   3  -9    6113    6879  -2
   3   0  12    6113    6879   1
  -2  -3 -14     190     446  -2
  -2   1  12     190     446   1
  -1  -2 -13    4306    2798  -2
  -1   1  12    4306    2798   1
   0  -1 -12   58324    7596  -2
   0   1  12   58324    7596   1
   1   0 -11   16928    1955  -2
   1   1  12   16928    1955   1
   2   1 -10    9736    2879  -2
   2   1  12    9736    2879   1
   3   2  -9    4882    2483  -2
   3   1  12    4882    2483   1
  -2  -4 -14    4666    3717  -2
  -2   2  12    4666    3717   1
  -1  -3 -13    2164    2179  -2
  -1   2  12    2164    2179   1
   0  -2 -12    3778    2817  -2
   0   2  12    3778    2817   1
   1  -1 -11    6660    1344  -2
   1   2  12    6660    1344   1
   2   0 -10    4122    1519  -2
   2   2  12    4122    1519   1
   3   1  -9   11273    4900  -2
   3   2  12   11273    4900   1
  -2  -5 -14    6651    4075  -2
  -2   3  12    6651    4075   1
  -1  -4 -13   13735    5661  -2
  -1   3  12   13735    5661   1
   0  -3 -12    8793    4513  -2
   0   3  12    8793    4513   1
   1  -2 -11   16145    1529  -2
   1   3  12   16145    1529   1
   2  -1 -10   11817    3136  -2
   2   3  12   11817    3136   1
   3   0  -9    1060    1069  -2
   3   3  12    1060    1069   1
  -2  -6 -14    5787    4162  -2
  -2   4  12    5787    4162   1
  -1  -5 -13   20666    7042  -2
  -1   4  12   20666    7042   1
   0  -4 -12     524     790  -2
   0   4  12     524     790   1
   1  -3 -11   15110    2691  -2
   1   4  12   15110    2691   1
   2  -2 -10   34767    8861  -2
   2   4  12   34767    8861   1
   3  -1  -9    3497    2157  -2
   3   4  12    3497    2157   1
  -2  -7 -14    3192    2634  -2
  -2   5  12    3192    2634   1
  -1  -6 -13   11986    5348  -2
  -1   5  12   11986    5348   1
   0  -5 -12    6829    3562  -2
   0   5  12    6829    3562   1
   1  -4 -11   11097    3036  -2
   1   5  12   11097    3036   1
   2  -3 -10    6086    2554  -2
   2   5  12    6086    2554   1
   3  -2  -9     910    1345  -2
   3   5  12     910    1345   1
  -2  -8 -14    9864    4693  -2
  -2   6  12    9864    4693   1
  -1  -7 -13    9475    4681  -2
  -1   6  12    9475    4681   1
   0  -6 -12   16152    5616  -2
   0   6  12   16152    5616   1
   1  -5 -11    5039    3205  -2
   1   6  12    5039    3205   1
   2  -4 -10   20822    3595  -2
   2   6  12   20822    3595   1
   3  -3  -9    1133    1288  -2
   3   6  12    1133    1288   1
  -2  -9 -14   11838    5404  -2
  -2   7  12   11838    5404   1
  -1  -8 -13   38275    9046  -2
  -1   7  12   38275    9046   1
   0  -7 -12   41519    9200  -2
   0   7  12   41519    9200   1
   1  -6 -11    5526    4326  -2
   1   7  12    5526    4326   1
   2  -5 -10     991     809  -2
   2   7  12     991     809   1
   3  -4  -9     432    1723  -2
   3   7  12     432    1723   1
  -2 -10 -14    8469    3991  -2
  -2   8  12    8469    3991   1
  -1  -9 -13   16989    5910  -2
  -1   8  12   16989    5910   1
   0  -8 -12   18777    6143  -2
   0   8  12   18777    6143   1
   1  -7 -11   40602    4230  -2
   1   8  12   40602    4230   1
   2  -6 -10   14437    3035  -2
   2   8  12   14437    3035   1
   3  -5  -9     163     343  -2
   3   8  12     163     343   1
  -1 -10 -13   16958    5975  -2
  -1   9  12   16958    5975   1
   0  -9 -12    4262    1302  -2
   0   9  12    4262    1302   1
   1  -8 -11    9850    1526  -2
   1   9  12    9850    1526   1
   2  -7 -10   11772    2210  -2
   2   9  12   11772    2210   1
   3  -6  -9    3853    2116  -2
   3   9  12    3853    2116   1
  -1 -11 -13    2434    2549  -2
  -1  10  12    2434    2549   1
   0 -10 -12   26608    7922  -2
   0  10  12   26608    7922   1
   1  -9 -11   27797    2924  -2
   1  10  12   27797    2924   1
   2  -8 -10   11207    2166  -2
   2  10  12   11207    2166   1
   3  -7  -9    8223    2809  -2
   3  10  12    8223    2809   1
  -1 -12 -13   13982    5899  -2
  -1  11  12   13982    5899   1
   0 -11 -12   21790    7594  -2
   0  11  12   21790    7594   1
   1 -10 -11   10758    5748  -2
   1  11  12   10758    5748   1
   2  -9 -10    5637    1732  -2
   2  11  12    5637    1732   1
   0 -12 -12   25821    8563  -2
   0  12  12   25821    8563   1
   1 -11 -11   42924   11025  -2
   1  12  12   42924   11025   1
   2 -10 -10   13206    2485  -2
   2  12  12   13206    2485   1
   0 -13 -12    3737    2957  -2
   0  13  12    3737    2957   1
   1 -12 -11    1910    2959  -2
   1  13  12    1910    2959   1
   0   3 -13   17571    6561  -2
   0  -3  13   17571    6561   1
   1   4 -12   49572    7815  -2
   1  -3  13   49572    7815   1
  -1   1 -14    2368    2626  -2
  -1  -2  13    2368    2626   1
   0   2 -13     112    1072  -2
   0  -2  13     112    1072   1
   1   3 -12    6996    2657  -2
   1  -2  13    6996    2657   1
   2   4 -11    4982    2005  -2
   2  -2  13    4982    2005   1
  -1   0 -14   11567    6057  -2
  -1  -1  13   11567    6057   1
   0   1 -13    2822    2755  -2
   0  -1  13    2822    2755   1
   1   2 -12   19690    4789  -2
   1  -1  13   19690    4789   1
   2   3 -11   11322    2681  -2
   2  -1  13   11322    2681   1
  -1  -1 -14   11629    5711  -2
  -1   0  13   11629    5711   1
   0   0 -13    -647     431  -2
   0   0  13    -647     431   1
   1   1 -12   13951    3863  -2
   1   0  13   13951    3863   1
   2   2 -11   12004    2764  -2
   2   0  13   12004    2764   1
  -1  -2 -14   11779    5674  -2
  -1   1  13   11779    5674   1
   0  -1 -13    6621    4307  -2
   0   1  13    6621    4307   1
   1   0 -12   16826    4237  -2
   1   1  13   16826    4237   1
   2   1 -11   13979    3053  -2
   2   1  13   13979    3053   1
  -1  -3 -14   12496    5819  -2
  -1   2  13   12496    5819   1
   0  -2 -13    7563    4481  -2
   0   2  13    7563    4481   1
   1  -1 -12    1400    1205  -2
   1   2  13    1400    1205   1
   2   0 -11    2006    1562  -2
   2   2  13    2006    1562   1
   3   1 -10   16835    4517  -2
   3   2  13   16835    4517   1
  -2  -5 -15   13671    6575  -2
  -2   3  13   13671    6575   1
  -1  -4 -14   22752    7817  -2
  -1   3  13   22752    7817   1
   0  -3 -13   17901    6602  -2
   0   3  13   17901    6602   1
   1  -2 -12     892    1022  -2
   1   3  13     892    1022   1
   2  -1 -11    9304    3586  -2
   2   3  13    9304    3586   1
   3   0 -10    1377    1436  -2
   3   3  13    1377    1436   1
  -2  -6 -15    4119    3470  -2
  -2   4  13    4119    3470   1
  -1  -5 -14   15443    6590  -2
  -1   4  13   15443    6590   1
   0  -4 -13   25305    7680  -2
   0   4  13   25305    7680   1
   1  -3 -12    7408    2843  -2
   1   4  13    7408    2843   1
   2  -2 -11   16555    2939  -2
   2   4  13   16555    2939   1
   3  -1 -10   10809    3660  -2
   3   4  13   10809    3660   1
  -2  -7 -15   14805    6248  -2
  -2   5  13   14805    6248   1
  -1  -6 -14   14290    5782  -2
  -1   5  13   14290    5782   1
   0  -5 -13   48539   10612  -2
   0   5  13   48539   10612   1
   1  -4 -12   13579    3550  -2
   1   5  13   13579    3550   1
   2  -3 -11    9036    2178  -2
   2   5  13    9036    2178   1
   3  -2 -10    1557    1861  -2
   3   5  13    1557    1861   1
  -1  -7 -14   17822    6719  -2
  -1   6  13   17822    6719   1
   0  -6 -13   30687    8047  -2
   0   6  13   30687    8047   1
   1  -5 -12   25038    4690  -2
   1   6  13   25038    4690   1
   2  -4 -11   10815    3068  -2
   2   6  13   10815    3068   1
   3  -3 -10    7628    2682  -2
   3   6  13    7628    2682   1
  -1  -8 -14   18692    6529  -2
  -1   7  13   18692    6529   1
   0  -7 -13   23168    7126  -2
   0   7  13   23168    7126   1
   1  -6 -12   11441    3224  -2
   1   7  13   11441    3224   1
   2  -5 -11    3503    1265  -2
   2   7  13    3503    1265   1
   3  -4 -10     742    1964  -2
   3   7  13     742    1964   1
  -1  -9 -14   29231    8057  -2
  -1   8  13   29231    8057   1
   0  -8 -13    4545    3408  -2
   0   8  13    4545    3408   1
   1  -7 -12   55053    7284  -2
   1   8  13   55053    7284   1
   2  -6 -11   18342    4321  -2
   2   8  13   18342    4321   1
   3  -5 -10    -227     473  -2
   3   8  13    -227     473   1
  -1 -10 -14   18708    6500  -2
  -1   9  13   18708    6500   1
   0  -9 -13    1607    2762  -2
   0   9  13    1607    2762   1
   1  -8 -12   18512    4229  -2
   1   9  13   18512    4229   1
   2  -7 -11   12918    3780  -2
   2   9  13   12918    3780   1
  -1 -11 -14   21138    6994  -2
  -1  10  13   21138    6994   1
   0 -10 -13   26465    8381  -2
   0  10  13   26465    8381   1
   1  -9 -12    7999    2850  -2
   1  10  13    7999    2850   1
   2  -8 -11   11796    4469  -2
   2  10  13   11796    4469   1
   0 -11 -13   38273   10341  -2
   0  11  13   38273   10341   1
   1 -10 -12    2216    2629  -2
   1  11  13    2216    2629   1
   2  -9 -11    6334    2605  -2
   2  11  13    6334    2605   1
   0 -12 -13   20677    7962  -2
   0  12  13   20677    7962   1
   1 -11 -12    8126    5148  -2
   1  12  13    8126    5148   1
   0   1 -14   24867    8385  -2
   0  -1  14   24867    8385   1
   1   2 -13     894    1320  -2
   1  -1  14     894    1320   1
   0   0 -14   17465    7229  -2
   0   0  14   17465    7229   1
   1   1 -13   14362    4054  -2
   1   0  14   14362    4054   1
  -1  -2 -15    8969    5384  -2
  -1   1  14    8969    5384   1
   0  -1 -14    8071    5061  -2
   0   1  14    8071    5061   1
   1   0 -13    6939    2928  -2
   1   1  14    6939    2928   1
   2   1 -12    2712    1848  -2
   2   1  14    2712    1848   1
  -1  -3 -15    1471    3523  -2
  -1   2  14    1471    3523   1
   0  -2 -14     721     828  -2
   0   2  14     721     828   1
   1  -1 -13   12200    3678  -2
   1   2  14   12200    3678   1
   2   0 -12    4393    2356  -2
   2   2  14    4393    2356   1
  -1  -4 -15   13284    6396  -2
  -1   3  14   13284    6396   1
   0  -3 -14    5257    3641  -2
   0   3  14    5257    3641   1
   1  -2 -13    8990    3218  -2
   1   3  14    8990    3218   1
   2  -1 -12    2519    1749  -2
   2   3  14    2519    1749   1
  -1  -5 -15   14361    6340  -2
  -1   4  14   14361    6340   1
   0  -4 -14   30563    9162  -2
   0   4  14   30563    9162   1
   1  -3 -13    9457    3341  -2
   1   4  14    9457    3341   1
   2  -2 -12    4641    2368  -2
   2   4  14    4641    2368   1
  -1  -6 -15   25544    8476  -2
  -1   5  14   25544    8476   1
   0  -5 -14   30825    8872  -2
   0   5  14   30825    8872   1
   1  -4 -13    9987    3218  -2
   1   5  14    9987    3218   1
   2  -3 -12    4056    2316  -2
   2   5  14    4056    2316   1
  -1  -7 -15    4572    3324  -2
  -1   6  14    4572    3324   1
   0  -6 -14    1865    1773  -2
   0   6  14    1865    1773   1
   1  -5 -13   15612    3770  -2
   1   6  14   15612    3770   1
   2  -4 -12    4564    1937  -2
   2   6  14    4564    1937   1
  -1  -8 -15   12367    5623  -2
  -1   7  14   12367    5623   1
   0  -7 -14   22983    7433  -2
   0   7  14   22983    7433   1
   1  -6 -13   18205    4234  -2
   1   7  14   18205    4234   1
   2  -5 -12    3623    2091  -2
   2   7  14    3623    2091   1
  -1  -9 -15    5657    4397  -2
  -1   8  14    5657    4397   1
   0  -8 -14   14215    6097  -2
   0   8  14   14215    6097   1
   1  -7 -13   20473    4554  -2
   1   8  14   20473    4554   1
   2  -6 -12    6494    2655  -2
   2   8  14    6494    2655   1
   0  -9 -14    1780    2548  -2
   0   9  14    1780    2548   1
   1  -8 -13   10984    3627  -2
   1   9  14   10984    3627   1
   2  -7 -12   23822    5056  -2
   2   9  14   23822    5056   1
   0 -10 -14    3147    2627  -2
   0  10  14    3147    2627   1
   1  -9 -13   10192    6138  -2
   1  10  14   10192    6138   1
   2  -8 -12    4120    2518  -2
   2  10  14    4120    2518   1
   1 -10 -13   13439    6729  -2
   1  11  14   13439    6729   1
   0  -2 -15    4824    3919  -2
   0   2  15    4824    3919   1
   1  -1 -14    9803    3384  -2
   1   2  15    9803    3384   1
   0  -3 -15    2926    2947  -2
   0   3  15    2926    2947   1
   1  -2 -14    2667    1807  -2
   1   3  15    2667    1807   1
   0  -4 -15   13137    6199  -2
   0   4  15   13137    6199   1
   1  -3 -14    5509    2453  -2
   1   4  15    5509    2453   1
   0  -5 -15   40077   10547  -2
   0   5  15   40077   10547   1
   1  -4 -14   11702    3533  -2
   1   5  15   11702    3533   1
   2  -3 -13    4891    2482  -2
   2   5  15    4891    2482   1
   0  -6 -15   12037    5676  -2
   0   6  15   12037    5676   1
   1  -5 -14    8042    4483  -2
   1   6  15    8042    4483   1
   2  -4 -13    1135    1270  -2
   2   6  15    1135    1270   1
   0  -7 -15   25318    8303  -2
   0   7  15   25318    8303   1
   1  -6 -14    7348    2874  -2
   1   7  15    7348    2874   1
   2  -5 -13    5264    2591  -2
   2   7  15    5264    2591   1
   0  -8 -15    1147    2610  -2
   0   8  15    1147    2610   1
   1  -7 -14   16783    4405  -2
   1   8  15   16783    4405   1
   1  -8 -14    4913    3758  -2
   1   9  15    4913    3758   1
;
_shelx_hkl_checksum              84419
loop_
_space_group_symop_operation_xyz
'x, y, z'
'-x, -y, -z'
loop_
_atom_site_label
_atom_site_type_symbol
_atom_site_fract_x
_atom_site_fract_y
_atom_site_fract_z
_atom_site_U_iso_or_equiv
_atom_site_adp_type
_atom_site_occupancy
_atom_site_site_symmetry_order
_atom_site_calc_flag
_atom_site_refinement_flags_posn
_atom_site_refinement_flags_adp
_atom_site_refinement_flags_occupancy
_atom_site_disorder_assembly
_atom_site_disorder_group
Cu1 Cu 0.000000 0.500000 0.500000 0.0380(5) Uani 1 2 d S T P . .
N1 N -0.110(2) 0.5842(4) 0.6015(4) 0.0280(15) Uani 1 1 d . . . . .
O1 O -0.184(2) 0.9591(3) 0.3941(3) 0.0327(13) Uani 1 1 d . . . . .
C1 C -0.131(3) 0.7663(5) 0.5001(5) 0.0294(17) Uani 1 1 d . . . . .
H1A H -0.009739 0.741779 0.441899 0.035 Uiso 1 1 calc R . . . .
H1B H 0.028392 0.781843 0.538773 0.035 Uiso 1 1 calc R . . . .
O2 O 0.2967(17) 0.3992(4) 0.5978(4) 0.0389(16) Uani 1 1 d . . . . .
N2 N -0.063(2) 0.9501(5) 0.2914(4) 0.036(2) Uani 1 1 d . . . . .
O3 O 0.3538(17) 0.3947(4) 1.0719(4) 0.043(2) Uani 1 1 d . . . . .
C2 C 0.543(3) 0.2932(5) 0.7568(5) 0.036(3) Uani 1 1 d . . . . .
H2 H 0.644150 0.243079 0.722874 0.044 Uiso 1 1 calc R . . . .
O4 O -0.3287(16) 0.6847(4) 0.5723(4) 0.0371(16) Uani 1 1 d . . . . .
O5 O 0.7278(15) 0.2594(4) 1.0656(4) 0.0423(18) Uani 1 1 d . . . . .
C3 C -0.031(2) 0.5581(5) 0.6981(5) 0.028(2) Uani 1 1 d . . . . .
H3 H -0.117755 0.605202 0.736910 0.033 Uiso 1 1 calc R . . . .
C4 C 0.449(2) 0.3516(6) 0.9131(5) 0.033(3) Uani 1 1 d . . . . .
C5 C 0.335(2) 0.3857(6) 0.6980(5) 0.032(2) Uani 1 1 d . . . . .
N3 N 0.513(2) 0.3333(5) 1.0237(5) 0.0349(18) Uani 1 1 d . . . . .
C6 C 0.237(2) 0.4414(6) 0.8594(5) 0.033(3) Uani 1 1 d . . . . .
H6 H 0.130693 0.489042 0.895536 0.040 Uiso 1 1 calc R . . . .
C7 C 0.183(2) 0.4610(6) 0.7524(6) 0.030(2) Uani 1 1 d . . . . .
C8 C 0.600(2) 0.2755(6) 0.8628(5) 0.031(2) Uani 1 1 d . . . . .
H8 H 0.735205 0.214171 0.899840 0.037 Uiso 1 1 calc R . . . .
C9 C -0.373(3) 0.8690(6) 0.4536(6) 0.044(3) Uani 1 1 d . . . . .
H9A H -0.509328 0.856314 0.405821 0.053 Uiso 1 1 calc R . . . .
H9B H -0.520574 0.885725 0.512370 0.053 Uiso 1 1 calc R . . . .
C10 C 0.253(2) 1.0301(6) 0.1252(5) 0.033(2) Uani 1 1 d . . . . .
H10A H 0.491745 1.016344 0.123451 0.049 Uiso 1 1 calc GR . . . .
H10B H 0.193382 1.099915 0.072671 0.049 Uiso 1 1 calc GR . . . .
H10C H 0.169595 0.973989 0.108244 0.049 Uiso 1 1 calc GR . . . .
C11 C 0.150(2) 1.1200(6) 0.2732(6) 0.032(2) Uani 1 1 d . . . . .
H11A H -0.064176 1.154990 0.291505 0.048 Uiso 1 1 calc GR . . . .
H11B H 0.274918 1.172278 0.216507 0.048 Uiso 1 1 calc GR . . . .
H11C H 0.270072 1.091026 0.336227 0.048 Uiso 1 1 calc GR . . . .
C12 C 0.105(2) 1.0300(7) 0.2350(6) 0.035(2) Uani 1 1 d . . . . .
loop_
_atom_site_aniso_label
_atom_site_aniso_U_11
_atom_site_aniso_U_22
_atom_site_aniso_U_33
_atom_site_aniso_U_23
_atom_site_aniso_U_13
_atom_site_aniso_U_12
Cu1 0.0733(12) 0.0216(7) 0.0151(6) -0.0057(5) -0.0055(11) 0.0065(12)
N1 0.053(4) 0.011(3) 0.015(3) -0.001(2) -0.004(4) 0.004(4)
O1 0.055(4) 0.024(2) 0.015(2) -0.0053(18) 0.001(3) 0.000(4)
C1 0.041(5) 0.024(4) 0.016(3) -0.006(3) 0.006(5) 0.008(5)
O2 0.067(5) 0.026(3) 0.022(3) -0.007(2) -0.008(3) 0.003(3)
N2 0.054(6) 0.024(3) 0.025(3) -0.009(3) -0.008(4) 0.010(4)
O3 0.084(6) 0.029(3) 0.016(2) -0.011(2) -0.011(3) 0.007(3)
C2 0.068(8) 0.017(4) 0.025(4) -0.010(3) -0.007(4) 0.001(5)
O4 0.067(4) 0.015(3) 0.022(3) -0.003(2) 0.000(3) 0.004(3)
O5 0.065(5) 0.031(3) 0.025(3) -0.006(2) -0.015(3) 0.010(3)
C3 0.047(7) 0.016(4) 0.023(4) -0.013(3) -0.007(4) 0.006(4)
C4 0.064(8) 0.019(4) 0.014(3) -0.005(3) 0.002(4) -0.008(4)
C5 0.059(7) 0.016(4) 0.019(4) -0.004(3) 0.002(3) -0.009(4)
N3 0.056(5) 0.022(4) 0.025(4) -0.004(3) -0.008(3) -0.006(4)
C6 0.064(8) 0.019(4) 0.016(4) -0.006(3) 0.003(4) -0.009(4)
C7 0.048(6) 0.013(4) 0.024(4) -0.001(3) -0.001(4) -0.003(4)
C8 0.049(6) 0.016(4) 0.019(4) 0.004(3) -0.002(4) -0.004(4)
C9 0.083(8) 0.021(4) 0.031(4) -0.009(4) -0.016(5) -0.001(5)
C10 0.049(6) 0.021(4) 0.025(4) -0.003(3) -0.011(4) 0.000(4)
C11 0.043(6) 0.018(4) 0.032(4) 0.001(3) -0.013(4) -0.009(4)
C12 0.052(6) 0.030(5) 0.019(4) -0.005(4) -0.012(4) 0.004(4)
loop_
_atom_type_symbol
_atom_type_description
_atom_type_scat_dispersion_real
_atom_type_scat_dispersion_imag
_atom_type_scat_source
C C 0.0033 0.0016 'International Tables Vol C Tables 4.2.6.8 and 6.1.1.4'
H H 0.0000 0.0000 'International Tables Vol C Tables 4.2.6.8 and 6.1.1.4'
Cu Cu 0.3201 1.2651 'International Tables Vol C Tables 4.2.6.8 and 6.1.1.4'
N N 0.0061 0.0033 'International Tables Vol C Tables 4.2.6.8 and 6.1.1.4'
O O 0.0106 0.0060 'International Tables Vol C Tables 4.2.6.8 and 6.1.1.4'
loop_
_geom_angle_atom_site_label_1
_geom_angle_atom_site_label_2
_geom_angle_atom_site_label_3
_geom_angle
_geom_angle_site_symmetry_1
_geom_angle_site_symmetry_3
N1 Cu1 N1 180.0 2_566 .
O2 Cu1 N1 89.1(2) . .
O2 Cu1 N1 90.9(2) . 2_566
O2 Cu1 N1 89.1(2) 2_566 2_566
O2 Cu1 N1 90.9(2) 2_566 .
O2 Cu1 O2 180.0 . 2_566
O4 N1 Cu1 119.6(4) . .
C3 N1 Cu1 128.4(5) . .
C3 N1 O4 111.8(5) . .
N2 O1 C9 108.3(5) . .
H1A C1 H1B 108.6 . .
O4 C1 H1A 110.4 . .
O4 C1 H1B 110.4 . .
O4 C1 C9 106.8(8) . .
C9 C1 H1A 110.4 . .
C9 C1 H1B 110.4 . .
C5 O2 Cu1 131.5(5) . .
C12 N2 O1 110.3(6) . .
C5 C2 H2 119.0 . .
C8 C2 H2 119.0 . .
C8 C2 C5 122.1(6) . .
C1 O4 N1 106.5(6) . .
N1 C3 H3 117.2 . .
N1 C3 C7 125.6(6) . .
C7 C3 H3 117.2 . .
C6 C4 N3 120.7(6) . .
C6 C4 C8 120.8(6) . .
C8 C4 N3 118.5(7) . .
O2 C5 C2 119.3(6) . .
O2 C5 C7 123.2(7) . .
C2 C5 C7 117.5(6) . .
O3 N3 C4 118.3(7) . .
O5 N3 O3 122.4(6) . .
O5 N3 C4 119.3(6) . .
C4 C6 H6 119.5 . .
C4 C6 C7 121.0(6) . .
C7 C6 H6 119.5 . .
C5 C7 C3 121.1(6) . .
C6 C7 C3 119.1(6) . .
C6 C7 C5 119.8(7) . .
C2 C8 C4 118.8(7) . .
C2 C8 H8 120.6 . .
C4 C8 H8 120.6 . .
O1 C9 C1 109.1(9) . .
O1 C9 H9A 109.9 . .
O1 C9 H9B 109.9 . .
C1 C9 H9A 109.9 . .
C1 C9 H9B 109.9 . .
H9A C9 H9B 108.3 . .
H10A C10 H10B 109.5 . .
H10A C10 H10C 109.5 . .
H10B C10 H10C 109.5 . .
C12 C10 H10A 109.5 . .
C12 C10 H10B 109.5 . .
C12 C10 H10C 109.5 . .
H11A C11 H11B 109.5 . .
H11A C11 H11C 109.5 . .
H11B C11 H11C 109.5 . .
C12 C11 H11A 109.5 . .
C12 C11 H11B 109.5 . .
C12 C11 H11C 109.5 . .
N2 C12 C10 116.3(7) . .
N2 C12 C11 123.8(7) . .
C10 C12 C11 119.9(8) . .
loop_
_geom_bond_atom_site_label_1
_geom_bond_atom_site_label_2
_geom_bond_distance
_geom_bond_site_symmetry_2
Cu1 N1 1.973(5) .
Cu1 N1 1.973(5) 2_566
Cu1 O2 1.917(5) 2_566
Cu1 O2 1.917(5) .
N1 O4 1.439(8) .
N1 C3 1.277(8) .
O1 N2 1.404(7) .
O1 C9 1.436(11) .
C1 H1A 0.9700 .
C1 H1B 0.9700 .
C1 O4 1.422(10) .
C1 C9 1.538(11) .
O2 C5 1.301(8) .
N2 C12 1.284(10) .
O3 N3 1.240(8) .
C2 H2 0.9300 .
C2 C5 1.423(11) .
C2 C8 1.385(9) .
O5 N3 1.235(8) .
C3 H3 0.9300 .
C3 C7 1.452(10) .
C4 N3 1.451(9) .
C4 C6 1.389(10) .
C4 C8 1.397(10) .
C5 C7 1.427(10) .
C6 H6 0.9300 .
C6 C7 1.389(9) .
C8 H8 0.9300 .
C9 H9A 0.9700 .
C9 H9B 0.9700 .
C10 H10A 0.9600 .
C10 H10B 0.9600 .
C10 H10C 0.9600 .
C10 C12 1.478(10) .
C11 H11A 0.9600 .
C11 H11B 0.9600 .
C11 H11C 0.9600 .
C11 C12 1.480(10) .
loop_
_geom_torsion_atom_site_label_1
_geom_torsion_atom_site_label_2
_geom_torsion_atom_site_label_3
_geom_torsion_atom_site_label_4
_geom_torsion
_geom_torsion_site_symmetry_1
_geom_torsion_site_symmetry_2
_geom_torsion_site_symmetry_3
_geom_torsion_site_symmetry_4
Cu1 N1 O4 C1 -79.7(7) . . . .
Cu1 N1 C3 C7 4.7(13) . . . .
Cu1 O2 C5 C2 170.8(6) . . . .
Cu1 O2 C5 C7 -10.7(13) . . . .
N1 C3 C7 C5 1.8(14) . . . .
N1 C3 C7 C6 -177.8(8) . . . .
O1 N2 C12 C10 179.0(7) . . . .
O1 N2 C12 C11 -2.2(11) . . . .
O2 C5 C7 C3 1.0(13) . . . .
O2 C5 C7 C6 -179.5(8) . . . .
N2 O1 C9 C1 79.2(7) . . . .
C2 C5 C7 C3 179.5(8) . . . .
C2 C5 C7 C6 -1.0(13) . . . .
O4 N1 C3 C7 179.4(8) . . . .
O4 C1 C9 O1 170.7(5) . . . .
C3 N1 O4 C1 105.1(7) . . . .
C4 C6 C7 C3 -177.8(8) . . . .
C4 C6 C7 C5 2.7(13) . . . .
C5 C2 C8 C4 -0.5(14) . . . .
N3 C4 C6 C7 178.1(7) . . . .
N3 C4 C8 C2 -179.2(8) . . . .
C6 C4 N3 O3 5.7(13) . . . .
C6 C4 N3 O5 -172.7(8) . . . .
C6 C4 C8 C2 2.2(13) . . . .
C8 C2 C5 O2 178.5(8) . . . .
C8 C2 C5 C7 0.0(14) . . . .
C8 C4 N3 O3 -172.9(7) . . . .
C8 C4 N3 O5 8.7(12) . . . .
C8 C4 C6 C7 -3.3(14) . . . .
C9 O1 N2 C12 179.4(7) . . . .
C9 C1 O4 N1 170.7(5) . . . .
loop_
_twin_individual_id
_twin_individual_mass_fraction_refined
1 0.593(4)
2 0.407(4)
