#------------------------------------------------------------------------------
#$Date: 2021-08-05 03:36:52 +0300 (Thu, 05 Aug 2021) $
#$Revision: 267949 $
#$URL: file:///home/coder/svn-repositories/cod/cif/1/56/43/1564325.cif $
#------------------------------------------------------------------------------
#
# This file is available in the Crystallography Open Database (COD),
# http://www.crystallography.net/
#
# All data on this site have been placed in the public domain by the
# contributors.
#
data_1564325
loop_
_publ_author_name
'Dong, Xinrui'
'Jiang, Wenhua'
'Hua, Dexiang'
'Wang, Xiaohui'
'Xu, Liang'
'Wu, Xiaoxing'
_publ_section_title
;
 Radical-Mediated Vicinal Addition of Alkoxysulfonyl/Fluorosulfonyl and
 Trifluoromethyl Groups to Aryl Alkyl Alkynes
;
_journal_name_full               'Chemical Science'
_journal_paper_doi               10.1039/D1SC03315H
_journal_year                    2021
_chemical_formula_moiety         'C12 H13 F3 O4 S'
_chemical_formula_sum            'C12 H13 F3 O4 S'
_chemical_formula_weight         310.28
_space_group_crystal_system      monoclinic
_space_group_IT_number           4
_space_group_name_Hall           'P 2yb'
_space_group_name_H-M_alt        'P 1 21 1'
_atom_sites_solution_hydrogens   geom
_audit_creation_date             2020-07-08
_audit_creation_method
;
Olex2 1.3
(compiled 2019.09.11 svn.r3662 for OlexSys, GUI svn.r5938)
;
_audit_update_record
;
2021-05-15 deposited with the CCDC.	2021-08-03 downloaded from the CCDC.
;
_cell_angle_alpha                90
_cell_angle_beta                 108.14(3)
_cell_angle_gamma                90
_cell_formula_units_Z            2
_cell_length_a                   10.086(2)
_cell_length_b                   5.508(2)
_cell_length_c                   12.766(3)
_cell_measurement_reflns_used    2597
_cell_measurement_temperature    296.15
_cell_measurement_theta_max      27.34
_cell_measurement_theta_min      3.08
_cell_volume                     674.0(3)
_computing_cell_refinement       'SAINT v8.37A (Bruker, 2015)'
_computing_data_reduction        'SAINT v8.37A (Bruker, 2015)'
_computing_molecular_graphics    'Olex2 1.3 (Dolomanov et al., 2009)'
_computing_publication_material  'Olex2 1.3 (Dolomanov et al., 2009)'
_computing_structure_refinement  'ShelXL 2014/7 (Sheldrick, 2015)'
_diffrn_ambient_temperature      296.15
_diffrn_measured_fraction_theta_full 0.997
_diffrn_measured_fraction_theta_max 0.995
_diffrn_measurement_device_type  'Bruker APEX-II CCD'
_diffrn_measurement_method       '\f and \w scans'
_diffrn_radiation_type           MoK\a
_diffrn_radiation_wavelength     0.71073
_diffrn_reflns_av_R_equivalents  0.0450
_diffrn_reflns_av_unetI/netI     0.0529
_diffrn_reflns_Laue_measured_fraction_full 0.997
_diffrn_reflns_Laue_measured_fraction_max 0.995
_diffrn_reflns_limit_h_max       13
_diffrn_reflns_limit_h_min       -13
_diffrn_reflns_limit_k_max       7
_diffrn_reflns_limit_k_min       -4
_diffrn_reflns_limit_l_max       15
_diffrn_reflns_limit_l_min       -16
_diffrn_reflns_number            5559
_diffrn_reflns_point_group_measured_fraction_full 0.998
_diffrn_reflns_point_group_measured_fraction_max 0.996
_diffrn_reflns_theta_full        25.242
_diffrn_reflns_theta_max         27.518
_diffrn_reflns_theta_min         2.125
_diffrn_standards_number         0
_exptl_absorpt_coefficient_mu    0.286
_exptl_absorpt_correction_T_max  0.7456
_exptl_absorpt_correction_T_min  0.5542
_exptl_absorpt_correction_type   multi-scan
_exptl_absorpt_process_details
;
SADABS-2016/2 (Bruker,2016/2) was used for absorption correction.
wR2(int) was 0.1438 before and 0.0547 after correction.
The Ratio of minimum to maximum transmission is 0.7433.
The \l/2 correction factor is Not present.
;
_exptl_crystal_density_diffrn    1.529
_exptl_crystal_description       block
_exptl_crystal_F_000             320
_refine_diff_density_max         0.814
_refine_diff_density_min         -0.272
_refine_diff_density_rms         0.062
_refine_ls_abs_structure_details
;
 Refined as an inversion twin.
;
_refine_ls_abs_structure_Flack   0.1(2)
_refine_ls_extinction_method     none
_refine_ls_goodness_of_fit_ref   1.038
_refine_ls_hydrogen_treatment    constr
_refine_ls_matrix_type           full
_refine_ls_number_parameters     185
_refine_ls_number_reflns         2333
_refine_ls_number_restraints     1
_refine_ls_restrained_S_all      1.038
_refine_ls_R_factor_all          0.0709
_refine_ls_R_factor_gt           0.0576
_refine_ls_shift/su_max          0.000
_refine_ls_shift/su_mean         0.000
_refine_ls_structure_factor_coef Fsqd
_refine_ls_weighting_details
'w=1/[\s^2^(Fo^2^)+(0.0807P)^2^+0.4283P] where P=(Fo^2^+2Fc^2^)/3'
_refine_ls_weighting_scheme      calc
_refine_ls_wR_factor_gt          0.1507
_refine_ls_wR_factor_ref         0.1614
_reflns_Friedel_coverage         0.811
_reflns_Friedel_fraction_full    1.000
_reflns_Friedel_fraction_max     0.998
_reflns_number_gt                1920
_reflns_number_total             2333
_reflns_threshold_expression     'I > 2\s(I)'
_cod_data_source_file            d1sc03315h2.cif
_cod_data_source_block           11_a_pl
_cod_database_code               1564325
_shelx_shelxl_version_number     2014/7
_shelx_space_group_comment
;
The symmetry employed for this shelxl refinement is uniquely defined
by the following loop, which should always be used as a source of
symmetry information in preference to the above space-group names.
They are only intended as comments.
;
_olex2_refinement_description
;
1. Twinned data refinement
 Scales: 0.9(2)
 0.1(2)
2. Fixed Uiso
 At 1.2 times of:
  All C(H) groups
 At 1.5 times of:
  All C(H,H,H) groups
3.a Aromatic/amide H refined with riding coordinates:
 C7(H7), C6(H6), C4(H4), C3(H3)
3.b Idealised Me refined as rotating group:
 C11(H11A,H11B,H11C), C12(H12A,H12B,H12C), C9(H9A,H9B,H9C)
;
_shelx_res_file
;
    11_a_pl.res created by SHELXL-2014/7

TITL 11_a P 1 R = 0.06 New:P21
CELL 0.71073 10.086 5.508 12.766 90 108.14 90
ZERR 2 0.002 0.002 0.003 0 0.03 0
LATT -1
SYMM -X,0.5+Y,-Z
SFAC C H F O S
UNIT 24 26 6 8 2

L.S. 100
PLAN  5
TEMP 23
CONF
BOND $H
fmap 2
acta
MORE -1
TWIN -1 0 0 0 -1 0 0 0 -1 2
REM <olex2.extras>
REM <HklSrc "%.\\11_a.hkl">
REM </olex2.extras>

WGHT    0.080700    0.428300
BASF   0.09874
FVAR       1.17927
S1    5   -0.212351    0.520308    0.580673    11.00000    0.06652    0.04375 =
         0.03817   -0.00612    0.02081   -0.00566
F1    3   -0.036049    1.172608    0.816343    11.00000    0.07930    0.05014 =
         0.06600   -0.00334    0.00932   -0.01577
F3    3    0.078844    0.858147    0.890340    11.00000    0.04745    0.08474 =
         0.05668   -0.01055   -0.00432    0.01002
F2    3   -0.089966    0.979493    0.940216    11.00000    0.07913    0.09477 =
         0.05466   -0.03540    0.03378   -0.03012
O1    4   -0.231684    0.656836    0.472656    11.00000    0.08907    0.08085 =
         0.05076   -0.00822    0.02303   -0.00622
O2    4   -0.118201    0.329346    0.570818    11.00000    0.11219    0.07654 =
         0.08684   -0.02237    0.04796    0.01986
O3    4   -0.330694    0.446086    0.601595    11.00000    0.08139    0.11117 =
         0.08603   -0.05864    0.04894   -0.04990
O4    4   -0.662188    0.612918    0.839013    11.00000    0.03882    0.07813 =
         0.06507    0.02039    0.02416    0.00247
C1    1   -0.148169    0.794545    0.765991    11.00000    0.03373    0.03154 =
         0.03330    0.00117    0.01130    0.00220
C2    1   -0.109190    0.723815    0.680892    11.00000    0.03538    0.04348 =
         0.03619   -0.00502    0.00998   -0.00284
C8    1   -0.283108    0.740906    0.786365    11.00000    0.03534    0.03907 =
         0.02909   -0.00325    0.01107    0.00060
C7    1   -0.293177    0.552408    0.853362    11.00000    0.03848    0.04512 =
         0.04245    0.00650    0.01181    0.00805
AFIX  43
H7    2   -0.215382    0.456019    0.885382    11.00000   -1.20000
AFIX   0
C6    1   -0.417915    0.502358    0.874445    11.00000    0.04878    0.04097 =
         0.03978    0.01071    0.01772    0.00599
AFIX  43
H6    2   -0.423670    0.374968    0.920647    11.00000   -1.20000
AFIX   0
C5    1   -0.532402    0.645239    0.825521    11.00000    0.03802    0.04853 =
         0.03942    0.00124    0.01676    0.00276
C4    1   -0.523302    0.840701    0.759663    11.00000    0.03920    0.05101 =
         0.04598    0.00879    0.01403    0.01381
AFIX  43
H4    2   -0.600447    0.939308    0.728759    11.00000   -1.20000
AFIX   0
C3    1   -0.398924    0.886931    0.740618    11.00000    0.04602    0.04027 =
         0.04241    0.01272    0.01952    0.00642
AFIX  43
H3    2   -0.392220    1.017774    0.696499    11.00000   -1.20000
AFIX   0
C10   1   -0.047828    0.951778    0.853725    11.00000    0.04765    0.05082 =
         0.04098    0.00092    0.01709    0.00250
C11   1    0.023432    0.786640    0.657147    11.00000    0.04340    0.08638 =
         0.04596    0.00279    0.02205    0.00010
AFIX 137
H11A  2    0.085869    0.650457    0.674766    11.00000   -1.50000
H11B  2    0.066510    0.923769    0.701036    11.00000   -1.50000
H11C  2    0.002734    0.825872    0.580452    11.00000   -1.50000
AFIX   0
C12   1   -0.338561    0.855846    0.449706    11.00000    0.06930    0.07049 =
         0.09303   -0.02843   -0.01922    0.02014
AFIX 137
H12A  2   -0.292443    1.009796    0.467691    11.00000   -1.50000
H12B  2   -0.399218    0.831443    0.493693    11.00000   -1.50000
H12C  2   -0.392382    0.853589    0.373054    11.00000   -1.50000
AFIX   0
C9    1   -0.678441    0.414330    0.904869    11.00000    0.05990    0.07559 =
         0.08116    0.00809    0.04295   -0.00608
AFIX 137
H9A   2   -0.650913    0.266996    0.877189    11.00000   -1.50000
H9B   2   -0.774366    0.402393    0.902286    11.00000   -1.50000
H9C   2   -0.621032    0.439328    0.979661    11.00000   -1.50000
AFIX   0
HKLF 4 1 0 0 -1 0 1 0 1 0 0

REM  11_a P 1 R = 0.06 New:P21
REM R1 =  0.0576 for    1920 Fo > 4sig(Fo)  and  0.0709 for all    2333 data
REM    185 parameters refined using      1 restraints

END

WGHT      0.0811      0.4169

REM Highest difference peak  0.814,  deepest hole -0.272,  1-sigma level  0.062
Q1    1  -0.3623  0.6936  0.5156  11.00000  0.05    0.81
Q2    1  -0.1708  0.4564  0.5014  11.00000  0.05    0.56
Q3    1  -0.3535  0.3519  0.5193  11.00000  0.05    0.30
Q4    1   0.0346  0.9483  0.6391  11.00000  0.05    0.26
Q5    1  -0.2997  0.8395  0.4426  11.00000  0.05    0.25
;
_shelx_res_checksum              96147
_shelx_hkl_file
;
   0  -1   0    0.30    0.40
   0   1   0   -0.30    0.40
   0  -2   0  868.21   42.20
   0   2   0  889.91   42.40
   0   3   0   -0.60    1.20
   0   3   0   -0.60    1.10
   0   4   0   21.90    3.80
   0   4   0   14.80    3.60
   0   5   0    1.70    2.70
   0   5   0    0.40    2.50
   0   6   0   91.39    9.00
   0   6   0   74.89    9.30
   0   7   0    1.20    4.20
   0   7   0   -1.40    3.30
   0   7  -1    5.90    4.50
   0   7  -1   14.60    4.40
   0   6  -1   -2.00    2.60
   0   6  -1   10.70    4.10
   0   5  -1  223.98   14.50
   0   4  -1   82.29    7.00
   0   4  -1   76.59    7.40
   0   3  -1  214.98   12.70
   0   3  -1  216.58   13.60
   0  -3   1  237.78   12.90
   0   2  -1  337.67   18.40
   0   2  -1  358.76   17.70
   0  -2   1  352.76   17.60
   0   1  -1 1974.10   93.19
   0  -1   1 2044.40   93.29
   0   0  -1  941.91   42.90
   0   0  -1  935.71   42.30
   0   0  -1  872.71   42.70
   0  -1  -1 1823.52   85.89
   0   1   1 1871.71   85.99
   0  -2  -1  333.37   18.40
   0   2   1  369.96   18.80
   0   3   1  228.18   14.00
   0   4   1   81.69    7.30
   0   4   1   78.19    7.70
   0   5   1  238.08   16.40
   0   5   1  240.88   16.30
   0   6   1    0.50    3.10
   0   6   1    0.10    3.00
   0   7   1    8.40    4.40
   0   7   1    3.50    4.50
   0   7  -2    2.40    3.70
   0   7  -2   23.50    5.00
   0   6  -2   41.00    5.60
   0   5  -2   70.59    9.40
   0   5  -2   64.89    6.50
   0   4  -2  178.68   14.40
   0   4  -2  198.98   13.50
   0   3  -2  479.85   24.60
   0   3  -2  499.55   26.50
   0  -3   2  496.95   24.90
   0   2  -2 1024.10   49.80
   0   1  -2  474.35   24.70
   0  -1   2  528.45   24.80
   0   0  -2   27.70    2.20
   0   0  -2   28.30    2.20
   0   0  -2   34.30    2.50
   0   0   2   28.90    2.30
   0   0   2   36.80    2.40
   0   0   2   26.60    2.20
   0  -1  -2  472.45   24.00
   0  -1  -2  514.55   23.90
   0   1   2  451.25   22.70
   0   1   2  514.75   23.50
   0   1   2  457.55   24.00
   0  -2  -2 1045.90   49.30
   0   2   2  946.91   47.60
   0   2   2  934.71   47.10
   0   3   2  506.15   27.30
   0   4   2  199.28   13.80
   0   5   2   76.99    8.10
   0   5   2   71.99    8.20
   0   6   2   23.40    5.50
   0   6   2   24.10    6.00
   0   7   2    5.20    5.00
   0   7   2   -2.30    4.00
   0   6  -3   26.10    6.20
   0   6  -3   32.00    5.10
   0   5  -3    8.40    3.90
   0   5  -3    8.20    3.10
   0   4  -3  176.48   10.60
   0   4  -3  187.98   13.30
   0  -4   3  174.48   10.60
   0   3  -3  146.89   10.60
   0   2  -3   21.70    4.60
   0   1  -3 2711.53  128.49
   0  -1   3 2818.32  128.49
   0   0  -3 1282.37   56.99
   0   0  -3 1222.38   56.69
   0   0  -3 1262.47   56.89
   0   0   3 1142.09   56.69
   0   0   3 1196.58   56.89
   0   0   3 1177.28   56.79
   0  -1  -3 2677.83  123.39
   0  -1  -3 2811.22  122.99
   0  -1  -3 2571.94  121.69
   0   1   3 2614.64  123.29
   0   1   3 2741.43  122.59
   0   1   3 2466.75  121.59
   0   2   3   15.70    3.30
   0   2   3   16.60    1.80
   0   3   3  132.79   10.20
   0   4   3  190.78   14.00
   0   5   3    7.20    3.30
   0   5   3   13.60    6.00
   0   6   3   23.50    5.90
   0   6  -4    4.70    3.80
   0   5  -4   32.00    6.50
   0   4  -4    5.60    2.40
   0   3  -4  257.47   16.20
   0   2  -4  576.44   30.10
   0   1  -4 1077.79   52.69
   0  -1   4 1112.99   52.79
   0   0  -4   76.09    5.10
   0   0  -4   69.09    4.90
   0   0  -4   73.99    5.30
   0   0   4   77.69    5.00
   0   0   4   78.49    5.40
   0  -1  -4 1050.39   51.29
   0  -1  -4 1059.89   49.40
   0  -1  -4 1113.69   51.19
   0   1   4 1018.50   49.60
   0   1   4 1057.29   51.29
   0  -2  -4  492.55   26.80
   0   2   4  522.25   27.20
   0   2   4  498.45   24.20
   0   3   4  246.68   16.20
   0   4   4    2.70    2.20
   0   5   4   49.90    7.20
   0   6   4   -0.80    3.20
   0   6   4    4.40    3.30
   0   6  -5   22.20    6.10
   0   5  -5   60.79    7.60
   0   4  -5   51.59    6.90
   0   3  -5  143.79   11.10
   0   2  -5  333.87   19.30
   0   1  -5  300.87   16.90
   0   0  -5  306.67   15.70
   0   0  -5  287.37   14.90
   0   0  -5  266.17   15.20
   0   0   5  278.77   15.40
   0   0   5  273.47   15.00
   0  -1  -5  282.37   14.70
   0  -1  -5  328.57   17.10
   0   1   5  283.17   15.30
   0  -2  -5  272.57   16.20
   0   2   5  287.27   16.40
   0   2   5  222.08   13.70
   0   3   5  150.78   11.90
   0   4   5   42.20    6.60
   0   5   5   57.39    7.60
   0   6   5   11.50    4.80
   0   6   5   19.80    5.80
   0   6  -6   12.40    5.10
   0   5  -6   15.60    4.90
   0   4  -6   32.30    5.30
   0   3  -6  250.17   16.60
   0   2  -6   36.20    5.00
   0   1  -6   32.40    4.30
   0   1  -6   28.60    4.40
   0   0  -6   15.70    3.50
   0   0  -6   13.40    2.70
   0   0  -6   14.30    2.70
   0   0   6   13.60    2.80
   0  -1  -6   36.80    3.00
   0  -1  -6   32.50    4.60
   0   1   6   28.10    3.90
   0  -2  -6   33.10    5.40
   0   2   6   36.00    5.20
   0   3   6  243.08   16.90
   0   4   6   24.10    6.10
   0   5   6   28.20    7.40
   0   6   6   14.50    5.50
   0   6   6   15.50    5.30
   0   5  -7    5.40    3.30
   0   4  -7    8.70    4.10
   0   3  -7  104.69    9.80
   0   2  -7  193.38   13.30
   0   1  -7  275.97   15.70
   0   1  -7  243.88   15.90
   0   0  -7  239.88   13.40
   0   0  -7  235.08   14.80
   0   0   7  231.38   13.70
   0  -1  -7  239.88   12.50
   0  -1  -7  218.98   15.10
   0   1   7  248.88   14.90
   0  -2  -7  133.39   11.50
   0   2   7  165.18   11.90
   0   3   7   83.39    8.70
   0   4   7   10.70    4.60
   0   5   7    5.40    4.60
   0   5  -8   16.60    5.50
   0   4  -8    7.80    4.00
   0   3  -8   14.80    7.40
   0   2  -8  105.79    9.70
   0   2  -8  121.79   10.00
   0   1  -8   72.49    7.10
   0   1  -8   73.19    8.20
   0   0  -8   52.59    6.90
   0   0  -8   57.59    5.30
   0   0   8   49.20    5.60
   0  -1  -8   62.29    4.70
   0  -1  -8   52.19    7.40
   0   1   8   61.09    6.60
   0  -2  -8   84.19    9.50
   0   2   8  118.59   10.00
   0   3   8   19.60    5.40
   0   4   8    3.30    3.40
   0   5   8   22.10    6.40
   0   4  -9   -0.40    3.50
   0   3  -9   14.70    4.60
   0   3  -9    3.10    3.40
   0   2  -9   33.20    6.50
   0   2  -9   38.50    6.00
   0   1  -9   60.19    8.00
   0   1  -9   79.59    7.20
   0   0  -9   61.19    5.90
   0   0  -9   54.59    7.70
   0   0   9   46.60    5.80
   0  -1  -9   58.79    4.90
   0  -1  -9   49.90    7.50
   0   1   9   56.79    6.80
   0  -2  -9   28.60    7.00
   0   2   9   36.30    7.00
   0  -3  -9    2.30    4.70
   0   3   9   11.00    4.00
   0   4   9   -1.80    3.10
   0   4 -10    7.80    5.60
   0   4 -10   10.10    4.60
   0   3 -10   25.10    6.10
   0   3 -10   17.70    5.20
   0   2 -10   19.10    5.30
   0   2 -10   23.20    6.30
   0   1 -10    2.40    4.30
   0   1 -10    7.10    3.50
   0   0 -10   15.80    3.50
   0   0 -10   11.30    4.60
   0   0  10   17.00    4.30
   0  -1 -10   -1.50    3.30
   0  -1 -10    2.50    1.60
   0   1  10    5.80    3.40
   0  -2 -10   17.20    6.10
   0   2  10   17.70    5.10
   0  -3 -10   19.30    7.10
   0   3  10   25.80    6.60
   0   4  10    4.30    4.60
   0   3 -11    0.80    3.90
   0   3 -11   -4.40    4.10
   0   2 -11    9.90    5.90
   0   2 -11    2.10    4.40
   0   1 -11   10.60    5.30
   0   1 -11   15.40    5.40
   0   0 -11   10.30    3.30
   0   0 -11    7.20    4.40
   0   0  11   12.80    4.10
   0  -1 -11   15.00    3.30
   0  -1 -11   12.10    5.10
   0   1  11   13.30    4.20
   0  -2 -11   13.40    5.90
   0   2  11   13.30    5.00
   0  -3 -11   13.70    6.50
   0   3  11    1.20    4.40
   0   1 -12   -1.40    3.10
   0   1 -12    1.00    4.60
   0   0 -12    7.40    3.20
   0   0 -12   -0.40    4.70
   0   0  12    3.70    3.80
   0  -1 -12   -0.90    4.00
   0  -1 -12    2.90    2.60
   0   1  12    4.20    4.50
  -1   1  12    4.90    5.30
   1  -1 -12    1.20    4.80
   1  -1 -12    4.00    2.60
  -1   0  12    0.20    4.50
   1   0 -12    5.20    2.90
   1   0 -12    7.50    5.30
   1   1 -12    3.00    3.70
   1   1 -12    2.60    4.50
  -1   3  11   10.50    5.10
  -1   2  11    2.40    4.40
   1  -2 -11    5.90    5.90
  -1   1  11    7.10    4.90
   1  -1 -11   13.10    5.10
  -1   0  11    0.70    3.90
   1   0 -11   -3.70    2.40
   1   0 -11    2.70    4.60
   1   1 -11   11.80    4.80
   1   1 -11   15.30    6.10
   1   2 -11   11.30    4.60
   1   2 -11    8.90    5.80
   1   3 -11    9.40    4.80
  -1   4  10    7.00    5.00
  -1   3  10   14.80    4.40
   1  -3 -10    7.10    5.50
  -1   2  10    0.00    3.00
   1  -2 -10   -1.00    4.70
  -1   1  10    5.50    3.60
   1  -1 -10    5.60    4.10
   1  -1 -10   10.40    2.60
  -1   0  10   25.50    4.70
   1   0 -10   17.60    5.60
   1   1 -10   14.30    4.00
   1   1 -10    1.70    4.20
   1   2 -10    3.10    3.50
   1   2 -10    1.00    4.00
   1   3 -10    4.60    4.80
   1   3 -10    3.20    4.30
   1   4 -10    3.10    3.70
   1   4 -10   -4.80    4.20
  -1   4   9   -1.20    3.90
  -1   3   9   15.30    5.20
   1  -3  -9   14.20    6.10
  -1   2   9    6.50    3.30
   1  -2  -9    4.50    3.80
  -1   1   9   50.99    6.40
   1  -1  -9   39.00    6.60
   1  -1  -9   51.89    4.30
  -1   0   9    6.30    3.10
   1   0  -9    8.20    2.70
   1   0  -9    1.10    4.60
   1   1  -9   50.09    7.40
   1   2  -9    6.00    3.80
   1   2  -9   10.20    3.80
   1   3  -9   25.50    6.10
   1   3  -9   19.80    5.50
   1   4  -9    6.80    4.50
  -1   5   8   11.10    5.60
  -1   4   8   32.10    7.40
  -1   3   8   32.10    7.10
   1  -3  -8   23.30    6.70
  -1   2   8   44.00    6.20
   1  -2  -8   33.70    6.80
  -1   1   8  147.89   11.00
   1  -1  -8  148.09    8.30
   1  -1  -8  111.09   11.40
  -1   0   8  555.84   30.00
   1   0  -8  592.54   28.80
   1   0  -8  548.15   31.10
   1   1  -8  151.68   10.60
   1   1  -8  141.99   11.90
   1   2  -8   42.30    6.50
   1   3  -8   26.30    9.20
   1   4  -8   43.10    7.90
   1   5  -8   13.00    5.00
  -1   5   7   29.70    7.30
  -1   4   7   40.30    7.20
  -1   3   7   32.70    5.80
  -1   2   7   54.69    6.50
   1  -2  -7   40.30    6.60
  -1   1   7   33.10    4.70
   1  -1  -7   24.30    5.20
   1  -1  -7   29.80    3.00
  -1   0   7  245.48   14.40
   1   0  -7  250.57   13.40
   1   0  -7  219.88   14.90
   1   1  -7   35.10    4.70
   1   1  -7   30.10    5.40
   1   2  -7   54.39    7.30
   1   2  -7   73.29    7.10
   1   3  -7   34.90    6.00
   1   4  -7   48.00    7.00
   1   5  -7   28.30    6.40
  -1   6   6   27.80    7.50
  -1   6   6   24.80    6.80
  -1   5   6   66.59    9.20
  -1   4   6   37.10    6.50
  -1   3   6   92.99    9.20
  -1   2   6  385.66   21.10
  -1   2   6  335.47   18.20
   1  -2  -6  324.27   20.70
  -1   1   6   75.39    6.00
  -1   1   6   84.49    6.80
   1  -1  -6   72.39    6.90
   1  -1  -6   68.39    4.60
  -1   0   6  146.19   10.60
  -1   0   6  147.19    9.40
   1   0  -6  141.29    8.70
   1   0  -6  152.38    9.40
   1   0  -6  134.09    9.90
   1   1  -6   86.79    7.40
   1   1  -6   81.29    7.00
   1   2  -6  445.26   24.80
   1   3  -6  112.19    9.80
   1   4  -6   42.90    6.40
   1   5  -6   89.79    9.80
   1   6  -6   18.90    6.20
  -1   6   5   17.70    5.70
  -1   6   5   15.20    5.30
  -1   5   5   10.00    4.10
  -1   4   5   51.19    7.10
  -1   3   5  126.19   10.60
  -1   2   5  647.74   32.80
  -1   2   5  736.73   36.40
   1  -2  -5  691.03   36.20
  -1   1   5  372.36   20.70
   1  -1  -5  388.86   21.00
   1  -1  -5  379.76   18.40
  -1   0   5  754.22   38.10
  -1   0   5  743.13   37.80
   1   0  -5  810.22   38.40
   1   0  -5  811.72   38.60
   1   0  -5  781.32   37.50
   1   1  -5  441.06   22.50
   1   1  -5  391.16   21.90
   1   2  -5  851.11   43.10
   1   3  -5  168.38   12.40
   1   4  -5   49.60    6.80
   1   5  -5    8.00    3.80
   1   6  -5   10.30    4.10
  -1   6   4   -3.40    3.70
  -1   6   4   -0.90    2.60
  -1   5   4   92.19    9.80
  -1   5   4   79.19    8.20
  -1   4   4   48.60    6.60
  -1   3   4  111.19    9.40
  -1   2   4  276.47   13.90
  -1   2   4  306.77   16.90
   1  -2  -4  258.17   16.60
  -1   1   4    4.30    1.90
   1  -1  -4    6.40    1.20
   1  -1  -4    4.30    2.20
  -1   0   4   72.79    5.30
  -1   0   4   80.39    5.20
   1   0  -4   72.39    5.00
   1   0  -4   81.69    5.90
   1   0  -4   78.69    5.40
  -1  -1   4    4.20    1.60
   1   1  -4    4.90    1.80
   1   2  -4  337.67   19.10
   1   3  -4  121.19    9.60
   1   4  -4   54.79    6.80
   1   5  -4   82.79    9.30
   1   6  -4   -3.90    2.50
  -1   6   3    0.90    3.90
  -1   6   3    8.90    3.50
  -1   5   3   54.09    6.70
  -1   5   3   52.59    7.50
  -1   4   3  117.89   10.20
  -1   3   3   39.70    5.10
  -1   2   3  227.08   13.80
  -1   2   3  228.68   12.10
  -1   1   3  367.36   18.80
  -1   1   3  345.57   17.50
  -1   1   3  350.26   19.30
   1  -1  -3  387.96   17.60
   1  -1  -3  368.26   19.50
   1  -1  -3  395.66   19.30
  -1   0   3  292.77   14.50
  -1   0   3  281.07   14.10
  -1   0   3  277.87   14.40
   1   0  -3  291.37   14.50
   1   0  -3  267.77   13.90
   1   0  -3  270.17   14.50
  -1  -1   3  403.56   20.30
   1   1  -3  380.66   20.10
   1   2  -3  258.57   15.20
   1   3  -3   40.70    5.00
   1   4  -3  116.89    7.60
   1   4  -3  108.29    9.70
   1   5  -3   59.89    5.30
   1   5  -3   46.30    6.90
   1   6  -3    4.50    3.50
   1   6  -3    6.00    3.60
  -1   7   2   -5.60    4.30
  -1   7   2    6.10    4.50
  -1   6   2   40.80    6.70
  -1   6   2   41.10    6.60
  -1   5   2  182.18   14.40
  -1   5   2  206.28   14.10
  -1   4   2   12.40    4.00
  -1   4   2   14.80    3.60
  -1   3   2   37.30    4.70
  -1   2   2 1070.19   52.09
  -1   1   2 5299.77  269.47
  -1   1   2 5994.10  267.97
   1  -1  -2 6030.50  270.17
   1  -1  -2 6126.19  269.67
  -1   0   2  677.63   32.30
  -1   0   2  705.83   32.70
  -1   0   2  690.63   32.70
   1   0  -2  711.63   32.80
   1   0  -2  638.94   32.20
   1   0  -2  714.73   32.80
  -1  -1   2 6352.26  291.77
   1   2  -2 1181.48   56.99
   1   3  -2   34.80    4.60
   1   3  -2   37.40    3.50
   1   4  -2   11.80    3.50
   1   5  -2  171.08   16.20
   1   5  -2  194.88   12.50
   1   6  -2   20.80    5.40
   1   6  -2   36.20    5.40
   1   7  -2    4.60    3.50
   1   7  -2   11.40    4.60
  -1   7   1    2.20    4.10
  -1   7   1    2.60    4.20
  -1   6   1    5.60    4.10
  -1   6   1   10.50    4.40
  -1   5   1  232.98   16.20
  -1   5   1  245.18   16.30
  -1   4   1  449.16   25.00
  -1   4   1  459.85   25.50
  -1   3   1   62.49    5.80
  -1   3   1   62.29    5.50
  -1   2   1   97.59    6.80
   1  -2  -1   95.79    6.80
  -1   1   1 8457.65  416.06
  -1   1   1 9999.00  416.06
   1  -1  -1 9252.57  416.06
   1  -1  -1 8619.14  416.06
  -1   0   1 2774.42  128.69
  -1   0   1 2784.32  128.39
  -1   0   1 2674.33  128.09
   1   0  -1 2650.53  128.09
   1   0  -1 3063.49  128.49
   1   0  -1 2843.42  128.59
   1   1  -1 9326.27  426.86
  -1  -2   1   96.29    6.10
   1   2  -1  104.59    6.30
   1   2  -1  108.89    7.10
  -1  -3   1   54.89    4.80
   1   3  -1   63.39    5.20
   1   3  -1   62.59    5.80
   1   4  -1  476.25   27.10
   1   4  -1  493.95   25.90
   1   5  -1  231.98   16.70
   1   5  -1  240.78   15.30
   1   6  -1    9.60    4.10
   1   6  -1   19.70    4.60
   1   7  -1    6.40    4.00
   1   7  -1    1.50    3.20
  -1   7   0    0.10    4.20
  -1   7   0    7.70    4.20
  -1   6   0   34.40    6.80
  -1   5   0   33.60    5.90
  -1   5   0   48.80    6.20
  -1   4   0  121.69    9.40
  -1   4   0  119.09    9.30
  -1   3   0  520.85   27.10
  -1   2   0  114.09    7.10
  -1   2   0  110.09    7.00
   1  -2   0  105.29    7.20
  -1   1   0 4218.28  195.38
  -1   1   0 4287.17  195.58
   1  -1   0 4152.78  195.58
   1  -1   0 4372.96  195.38
  -1  -1   0 4410.06  198.38
   1   1   0 4237.78  198.38
  -1  -2   0  111.79    7.00
   1   2   0  115.39    7.20
   1   3   0  554.04   28.70
   1   4   0  116.09    9.10
   1   4   0  117.19    9.50
   1   5   0   54.09    6.90
   1   5   0   39.30    5.60
   1   6   0   28.40    6.40
   1   6   0   28.90    6.10
   1   7   0    2.50    4.20
   1   7   0   12.30    3.30
  -1   7  -1    3.80    3.90
  -1   6  -1    6.60    3.70
  -1   6  -1    7.40    3.50
  -1   5  -1   59.59    7.10
  -1   5  -1   51.09    6.40
  -1   4  -1  198.78   13.50
  -1   4  -1  201.18   12.80
  -1   3  -1  192.18   11.50
  -1   3  -1  185.28   12.00
   1  -3   1  196.58   11.40
  -1   2  -1  567.54   27.40
  -1   2  -1  551.74   28.20
   1  -2   1  569.94   28.20
   1  -2   1  552.84   27.40
  -1   1  -1  234.98   11.20
  -1   1  -1  223.68   11.80
   1  -1   1  214.78   11.10
   1  -1   1  231.08   11.80
  -1   0  -1 3025.10  138.99
  -1  -1  -1  215.28   11.50
   1   1   1  223.88   11.60
  -1  -2  -1  572.94   28.40
   1   2   1  558.34   28.50
   1   3   1  203.38   12.80
   1   4   1  211.68   14.10
   1   5   1   59.49    7.00
   1   5   1   63.49    7.40
   1   6   1    5.10    3.70
   1   6   1    2.40    3.60
   1   7   1    5.30    4.40
   1   7   1    4.00    4.20
  -1   7  -2   -3.00    3.10
  -1   7  -2    9.10    4.60
  -1   6  -2   70.59    9.00
  -1   6  -2   86.99    8.00
  -1   5  -2   26.60    4.60
  -1   5  -2   27.80    5.60
  -1   4  -2   35.00    4.20
  -1   4  -2   32.10    5.00
  -1   3  -2  196.98   11.20
  -1   3  -2  201.58   12.70
   1  -3   2  191.78   11.20
  -1   2  -2  476.65   24.90
  -1   2  -2  479.75   23.30
   1  -2   2  459.95   23.20
   1  -2   2  504.95   25.40
  -1   1  -2  740.53   35.60
   1  -1   2  734.83   35.60
  -1  -1  -2  710.63   36.70
  -1  -1  -2  780.62   35.80
   1   1   2  790.62   36.20
   1   1   2  699.53   36.70
   1   1   2  828.92   35.80
  -1  -2  -2  466.35   24.80
   1   2   2  491.65   25.10
   1   3   2  202.88   13.30
   1   4   2   44.10    5.80
   1   5   2   34.60    6.80
   1   5   2   35.10    5.80
   1   6   2   86.99    9.40
   1   6   2   85.89    9.90
   1   7   2    1.50    4.50
   1   7   2    6.60    5.00
  -1   6  -3   -0.50    2.80
  -1   6  -3   10.50    3.20
  -1   5  -3   19.90    4.90
  -1   5  -3   25.20    4.50
  -1   4  -3   77.89    6.00
  -1   4  -3   74.19    7.70
   1  -4   3   75.39    6.00
  -1   3  -3   28.50    4.10
  -1   2  -3  218.88   14.40
  -1   1  -3  128.09    7.90
   1  -1   3  122.89    7.80
  -1   0  -3  807.52   36.60
  -1   0  -3  790.82   36.50
  -1   0  -3  801.62   36.70
   1   0   3  766.72   36.60
   1   0   3  762.42   36.80
   1   0   3  712.43   36.40
  -1  -1  -3  126.59    7.50
  -1  -1  -3  116.59    7.60
  -1  -1  -3  119.19    6.60
   1   1   3  120.69    6.60
   1   1   3  123.99    7.80
   1   1   3  123.79    7.10
   1   2   3  186.68   12.80
   1   2   3  216.58   10.80
   1   3   3   28.10    4.50
   1   4   3   75.39    7.80
   1   5   3   21.90    5.90
   1   6   3    9.30    4.40
   1   6   3   -0.20    2.60
  -1   6  -4    5.90    3.60
  -1   5  -4   28.60    6.20
  -1   4  -4  131.99   10.90
  -1   3  -4  198.68   13.50
  -1   2  -4  531.45   28.10
  -1   1  -4   73.09    5.70
   1  -1   4   72.19    5.60
  -1   0  -4  217.98   11.60
  -1   0  -4  213.48   11.60
  -1   0  -4  225.88   11.70
   1   0   4  211.58   11.90
   1   0   4  218.88   11.70
  -1  -1  -4   77.29    5.50
  -1  -1  -4   66.49    4.30
  -1  -1  -4   69.09    5.50
   1   1   4   65.99    4.40
   1   1   4   68.69    5.00
   1   1   4   68.79    5.60
   1   2   4  511.45   27.50
   1   3   4  194.78   13.60
   1   4   4  150.98   12.30
   1   5   4   33.90    5.20
   1   6   4    4.50    4.30
   1   6   4    6.50    4.70
  -1   6  -5    5.80    3.80
  -1   5  -5   27.30    6.10
  -1   4  -5   97.49    9.40
  -1   3  -5  188.08   13.30
  -1   2  -5   60.69    6.10
  -1   1  -5   77.99    6.30
  -1   0  -5  798.42   38.70
  -1   0  -5  840.42   39.00
  -1   0  -5  782.02   39.50
   1   0   5  815.12   39.30
   1   0   5  772.52   38.80
  -1  -1  -5   48.10    3.40
  -1  -1  -5   42.10    5.20
   1   1   5   40.40    3.70
   1   1   5   42.90    4.70
  -1  -2  -5   55.39    5.90
   1   2   5   50.89    5.80
   1   3   5  172.38   13.00
   1   4   5  101.69   10.20
   1   5   5   26.90    6.10
   1   6   5    4.80    4.40
  -1   6  -6    5.30    4.10
  -1   5  -6    5.80    3.20
  -1   4  -6   85.19   10.20
  -1   3  -6   98.09    9.10
  -1   2  -6  351.26   20.40
  -1   1  -6  740.83   35.70
  -1   1  -6  674.63   35.70
  -1   0  -6   45.10    4.10
  -1   0  -6   47.60    4.30
  -1   0  -6   47.40    4.70
   1   0   6   38.80    3.90
  -1  -1  -6  731.33   33.90
  -1  -1  -6  572.44   32.10
   1   1   6  671.83   33.90
  -1  -2  -6  286.67   17.80
   1   2   6  293.17   18.00
   1   3   6   88.89    8.80
   1   4   6   78.69    9.30
   1   5   6    0.70    3.40
   1   6   6    6.30    4.90
  -1   5  -7    6.70    3.80
  -1   4  -7   85.69    9.30
  -1   3  -7  111.09   10.00
  -1   2  -7  289.97   18.00
  -1   1  -7   28.40    4.70
  -1   1  -7   28.40    4.50
  -1   0  -7   46.90    4.70
  -1   0  -7   42.40    5.30
   1   0   7   44.10    4.30
  -1  -1  -7   26.70    3.20
  -1  -1  -7   25.30    5.00
   1   1   7   26.70    4.90
  -1  -2  -7  256.97   13.50
  -1  -2  -7  214.28   15.90
   1   2   7  270.67   16.70
   1   3   7   94.39    9.50
   1   4   7   71.59    8.80
   1   5   7    6.70    4.10
  -1   5  -8   14.20    4.30
  -1   4  -8   22.30    5.50
  -1   2  -8   11.70    4.40
  -1   2  -8   10.80    4.00
  -1   1  -8  389.46   23.00
  -1   1  -8  414.86   22.70
  -1   0  -8   58.99    7.20
  -1   0  -8   61.09    5.80
   1   0   8   54.29    5.50
  -1  -1  -8  336.87   21.10
  -1  -1  -8  350.76   18.40
   1   1   8  374.36   20.90
  -1  -2  -8    4.70    4.60
  -1  -2  -8   12.10    2.60
   1   2   8   14.80    4.80
   1   3   8   70.19   11.90
   1   4   8   25.50    6.50
   1   5   8   -1.80    3.30
  -1   5  -9    2.40    4.90
  -1   4  -9   17.40    5.20
  -1   3  -9   44.10    7.00
  -1   2  -9   21.00    4.70
  -1   2  -9   16.10    5.10
  -1   1  -9  119.09    9.60
  -1   1  -9  110.29   10.40
  -1   0  -9  298.37   15.70
  -1   0  -9  254.17   17.20
   1   0   9  240.68   15.70
  -1  -1  -9  113.99    7.50
  -1  -1  -9   93.29    9.90
   1   1   9  107.69    9.30
  -1  -2  -9   13.40    2.60
  -1  -2  -9    3.40    4.30
   1   2   9   11.10    3.90
   1   3   9   40.20    6.50
   1   4   9   10.00    4.00
   1   5   9    5.70    5.10
  -1   4 -10    2.20    3.40
  -1   3 -10   -4.80    2.80
  -1   3 -10    7.10    3.80
  -1   2 -10    1.40    3.60
  -1   2 -10    4.10    3.30
  -1   1 -10   43.20    6.00
  -1   1 -10   33.90    6.60
  -1   0 -10    5.50    4.40
  -1   0 -10    7.70    2.70
   1   0  10    4.40    2.70
  -1  -1 -10   29.50    6.60
  -1  -1 -10   41.10    4.50
   1   1  10   34.10    6.40
  -1  -2 -10    7.30    2.10
  -1  -2 -10   -1.80    3.90
   1   2  10    6.90    5.10
   1   3  10    0.70    2.60
   1   4  10   -5.10    3.30
  -1   3 -11   16.10    4.70
  -1   3 -11    7.40    5.10
  -1   2 -11   11.80    5.40
  -1   2 -11   18.90    5.30
  -1   1 -11    7.40    3.60
  -1   1 -11    2.90    4.00
  -1   0 -11   19.50    5.90
  -1   0 -11   28.70    4.80
   1   0  11   20.80    4.70
  -1  -1 -11    3.30    2.30
  -1  -1 -11    4.20    4.40
   1   1  11    4.60    3.20
  -1  -2 -11   16.80    5.80
  -1  -2 -11   20.50    3.70
   1   2  11   17.80    5.60
   1   3  11    3.80    4.00
  -1   2 -12   -7.30    4.90
  -1   2 -12   -2.80    3.80
  -1   1 -12    6.00    5.20
  -1   1 -12   -2.20    3.00
  -1   0 -12   21.80    4.40
  -1   0 -12    9.20    5.10
   1   0  12    9.40    3.60
  -1  -1 -12    9.90    3.70
  -1  -1 -12    0.10    5.00
   1   1  12   -0.20    5.40
  -1  -2 -12    4.60    5.70
   1   2  12    0.40    3.20
  -2   2  11   12.90    5.10
   2  -2 -11    5.30    5.60
  -2   1  11   12.70    3.70
   2  -1 -11   10.00    5.10
  -2   0  11    0.90    3.40
   2   0 -11    2.80    2.30
   2   0 -11   -1.00    4.40
   2   1 -11   10.20    3.10
   2   1 -11    2.50    4.90
   2   2 -11    4.90    5.20
   2   2 -11    6.60    4.30
  -2   3  10    4.10    4.50
   2  -3 -10    2.10    5.80
  -2   2  10   22.20    6.10
   2  -2 -10   18.90    6.30
  -2   1  10   -3.30    3.20
   2  -1 -10    0.70    4.10
  -2   0  10   -0.80    3.10
   2   0 -10   -3.50    1.60
   2   0 -10    2.50    4.00
   2   1 -10    3.20    4.50
   2   1 -10    0.80    3.40
   2   2 -10   16.20    6.00
   2   2 -10   19.20    7.40
   2   3 -10   -2.30    3.70
   2   3 -10    0.00    3.80
  -2   4   9   -2.00    4.20
  -2   3   9   20.20    5.10
   2  -3  -9   20.60    6.60
  -2   2   9   18.90    6.10
   2  -2  -9   14.90    5.20
  -2   1   9   10.70    4.30
   2  -1  -9   14.00    2.40
   2  -1  -9   10.60    4.60
  -2   0   9   21.40    4.90
   2   0  -9   18.00    5.70
   2   0  -9   23.30    3.70
   2   1  -9    5.30    3.30
   2   1  -9   11.60    5.20
   2   2  -9    9.30    4.90
   2   2  -9   15.40    4.60
   2   3  -9   26.20    5.70
   2   3  -9   16.90    5.30
   2   4  -9    3.30    4.00
  -2   5   8    7.80    4.70
  -2   5   8   -0.50    3.60
  -2   4   8   11.50    4.60
  -2   3   8   35.00    7.00
   2  -3  -8   34.90    8.10
  -2   2   8   20.10    5.10
   2  -2  -8   14.00    5.40
  -2   1   8  137.59   11.10
   2  -1  -8  113.89   11.50
   2  -1  -8  155.98   10.10
  -2   0   8  678.43   35.70
   2   0  -8  638.64   36.50
   2   0  -8  713.53   33.60
   2   1  -8  143.59   12.40
   2   1  -8  167.58   11.20
   2   2  -8   17.50    5.50
   2   2  -8   28.40    5.40
   2   4  -8    1.00    3.40
   2   5  -8    0.20    4.10
  -2   5   7   34.70    6.70
  -2   5   7   44.80    9.60
  -2   4   7   35.10    8.10
   2  -3  -7   88.39   10.50
  -2   2   7   35.60    5.60
  -2   2   7   54.09    6.70
   2  -2  -7   43.20    7.00
  -2   1   7  303.57   18.00
  -2   1   7  269.37   15.60
   2  -1  -7  291.67   14.50
  -2   0   7  226.28   14.10
   2   0  -7  218.08   14.80
   2   1  -7  296.27   18.80
   2   1  -7  317.37   17.70
   2   2  -7   55.39    7.20
   2   2  -7   62.59    6.50
   2   3  -7  136.39   11.10
   2   4  -7   27.80    5.90
   2   5  -7   36.00    7.70
  -2   6   6   19.70    6.60
  -2   6   6   41.10    7.30
  -2   5   6   25.80    7.10
  -2   5   6   25.20    5.10
  -2   4   6   69.59    8.90
  -2   3   6   16.60    4.80
  -2   2   6  189.28   13.00
  -2   2   6  174.78   10.10
   2  -2  -6  159.58   12.80
  -2   1   6  393.26   22.90
  -2   1   6  419.86   21.20
   2  -1  -6  415.86   19.90
   2  -1  -6  411.06   23.30
  -2   0   6   79.59    8.00
  -2   0   6   84.49    6.10
   2   0  -6   80.89    7.30
   2   0  -6   87.89    5.90
   2   1  -6  414.76   22.20
   2   1  -6  407.36   23.00
   2   2  -6  202.58   13.40
   2   3  -6   19.10    4.80
   2   4  -6   85.09    9.00
   2   5  -6   36.60    6.10
   2   6  -6   30.00    7.20
  -2   6   5   19.40    6.30
  -2   6   5   22.90    6.20
  -2   5   5    8.30    3.70
  -2   5   5   -0.60    3.10
  -2   4   5   90.29   10.30
  -2   3   5  214.38   15.20
  -2   2   5   64.19    6.60
  -2   2   5   55.29    5.60
   2  -2  -5   53.59    6.50
  -2   1   5   31.20    3.00
  -2   1   5   29.40    3.90
   2  -1  -5   30.50    2.20
   2  -1  -5   21.20    4.00
  -2   0   5  167.88   11.80
  -2   0   5  178.68   11.00
   2   0  -5  180.08   10.00
   2   0  -5  177.08   11.30
   2   0  -5  194.08   11.10
   2   1  -5   33.90    3.90
   2   1  -5   28.20    4.20
   2   2  -5   79.09    6.90
   2   3  -5  226.48   15.20
   2   4  -5  110.09   10.30
   2   5  -5    4.60    3.60
   2   6  -5   16.20    5.40
  -2   6   4   17.60    5.60
  -2   6   4   19.60    6.10
  -2   5   4    5.40    3.20
  -2   5   4    7.80    4.40
  -2   4   4   41.80    6.30
  -2   3   4  197.48   14.00
  -2   2   4   60.59    3.60
  -2   2   4   61.19    6.00
   2  -2  -4   53.89    6.00
  -2   1   4  243.48   17.20
   2  -1  -4  226.38   13.80
  -2   0   4  118.99    7.60
  -2   0   4  112.79    6.70
   2   0  -4  117.79    6.70
   2   0  -4  106.49    7.70
   2   0  -4  107.19    7.30
  -2  -1   4  230.18   13.40
   2   1  -4  220.68   12.40
   2   1  -4  253.97   14.10
   2   1  -4  256.57   13.60
   2   2  -4   61.49    5.70
   2   3  -4  204.38   13.80
   2   4  -4   45.20    6.50
   2   5  -4    2.80    3.20
   2   6  -4    7.60    4.10
  -2   6   3   11.00    4.80
  -2   6   3   17.10    4.80
  -2   5   3   49.90    6.40
  -2   5   3   56.99    7.50
  -2   4   3  261.77   15.50
  -2   4   3  251.77   17.30
  -2   3   3   54.99    6.20
  -2   2   3 1587.64   72.59
  -2   2   3 1584.54   75.69
   2  -2  -3 1540.15   75.69
  -2   1   3   72.09    5.70
   2  -1  -3   69.19    5.60
   2  -1  -3   73.99    5.70
  -2   0   3  180.28   10.40
  -2   0   3  188.08    9.80
  -2   0   3  192.18   10.80
   2   0  -3  196.78   10.60
   2   0  -3  182.88   10.50
   2   0  -3  186.28    9.70
  -2  -1   3   78.09    5.50
  -2  -1   3   74.19    5.30
   2   1  -3   71.79    5.30
   2   2  -3 1809.72   86.09
   2   3  -3   69.89    6.80
   2   4  -3  249.48   16.80
   2   5  -3   62.59    5.60
   2   5  -3   54.49    7.40
   2   6  -3   13.20    3.90
   2   6  -3    7.80    3.90
  -2   6   2   21.30    6.40
  -2   6   2   18.30    4.80
  -2   5   2  133.39   10.70
  -2   5   2  128.89   11.70
  -2   4   2  272.17   17.70
  -2   4   2  274.67   16.30
  -2   3   2  256.17   14.30
  -2   3   2  247.88   15.60
  -2   2   2  530.05   27.70
  -2   1   2 1166.28   55.19
  -2   1   2 1124.69   55.89
   2  -1  -2 1134.09   55.79
   2  -1  -2 1254.17   55.79
  -2   0   2 2144.59   97.89
  -2   0   2 2126.79   98.09
   2   0  -2 2022.00   97.49
   2   0  -2 2127.89   97.89
  -2  -1   2 1194.48   55.99
   2   1  -2 1164.38   55.59
   2   1  -2 1191.08   55.99
   2   2  -2  533.35   25.90
   2   2  -2  536.65   27.50
   2   3  -2  264.97   15.90
   2   3  -2  254.87   14.80
   2   3  -2  259.37   14.20
   2   4  -2  271.37   15.60
   2   4  -2  271.17   17.60
   2   5  -2  137.89   12.10
   2   5  -2  133.99    9.90
   2   6  -2   14.80    5.10
   2   6  -2   30.30    5.50
  -2   7   1    4.10    4.80
  -2   6   1   20.00    5.10
  -2   6   1   25.50    5.90
  -2   5   1    3.80    2.80
  -2   5   1    8.60    3.80
  -2   4   1   60.79    6.30
  -2   4   1   64.49    6.90
  -2   3   1  336.77   19.20
  -2   3   1  333.37   18.50
  -2   2   1 1073.79   51.69
  -2   2   1 1069.89   52.79
   2  -2  -1 1131.09   53.19
  -2   1   1 1595.24   77.49
  -2   1   1 1676.63   76.89
   2  -1  -1 1545.75   77.29
   2  -1  -1 1784.02   77.29
  -2   0   1 2817.92  134.59
  -2   0   1 2824.02  133.89
   2   0  -1 2724.33  134.39
   2   0  -1 3281.67  133.99
  -2  -1   1 1642.44   76.89
   2   1  -1 1638.14   76.79
   2   2  -1 1104.49   51.29
   2   2  -1 1058.69   52.09
   2   3  -1  348.17   19.80
   2   3  -1  349.17   18.70
   2   4  -1   60.79    6.00
   2   4  -1   68.39    7.00
   2   5  -1    5.80    3.00
   2   6  -1   20.80    5.10
   2   6  -1   18.70    5.50
   2   7  -1   13.80    4.40
   2   7  -1    2.10    3.60
  -2   7   0    4.90    4.60
  -2   7   0    5.60    4.60
  -2   6   0   19.80    5.60
  -2   5   0  100.09    9.10
  -2   5   0  103.99    9.50
  -2   4   0   26.40    4.90
  -2   4   0   24.00    4.70
  -2   3   0  306.37   17.40
  -2   3   0  315.07   17.60
  -2   2   0 1632.04   76.39
  -2   2   0 1621.64   75.99
   2  -2   0 1590.54   76.29
  -2   1   0 1883.51   81.69
  -2   1   0 1719.43   81.89
  -2   1   0 1667.53   81.09
   2  -1   0 1744.93   81.79
   2  -1   0 1756.12   81.19
  -2   0   0  117.49    5.60
  -2   0   0  115.29    6.80
   2   0   0  116.29    6.70
   2   0   0  114.59    5.60
  -2  -1   0 1743.03   81.89
   2   1   0 1743.43   81.79
  -2  -2   0 1606.44   75.59
   2   2   0 1616.64   75.89
   2   3   0  338.77   18.90
   2   4   0   24.70    5.20
   2   4   0   27.50    4.20
   2   5   0  116.29    9.70
   2   5   0  109.49   10.50
   2   6   0   15.40    4.50
   2   6   0   18.50    5.30
   2   7   0    9.50    3.90
   2   7   0   -2.40    3.50
  -2   7  -1   17.00    5.30
  -2   7  -1   18.50    4.90
  -2   6  -1    1.50    3.40
  -2   6  -1    2.20    3.70
  -2   5  -1   73.59    8.00
  -2   5  -1   76.29    7.30
  -2   4  -1   29.50    4.50
  -2   4  -1   32.30    4.50
  -2   3  -1  232.78   14.00
  -2   3  -1  227.88   13.50
  -2   2  -1   36.50    3.60
  -2   2  -1   41.30    3.80
   2  -2   1   35.90    3.50
   2  -2   1   34.60    3.20
  -2   1  -1 7468.15  354.06
  -2   1  -1 7978.70  354.16
   2  -1   1 7837.02  354.16
   2  -1   1 7627.24  354.06
  -2   0  -1  480.35   22.50
  -2   0  -1  488.75   23.60
   2   0   1  477.45   23.60
   2   0   1  474.75   22.60
  -2  -2  -1   32.60    3.40
   2   2   1   35.60    3.60
   2   3   1  225.68   13.80
   2   4   1   29.20    4.80
   2   5   1   77.49    8.50
   2   5   1   82.09    8.30
   2   6   1   -0.30    2.80
   2   7   1   11.30    6.10
   2   7   1   20.30    5.80
  -2   7  -2   13.20    5.50
  -2   7  -2   22.80    6.10
  -2   6  -2  120.59   11.60
  -2   6  -2  121.09   10.10
  -2   5  -2   -0.90    2.30
  -2   5  -2   -2.40    2.20
  -2   4  -2   70.49    6.50
  -2   4  -2   74.49    7.30
  -2   3  -2  591.84   31.80
  -2   3  -2  634.74   30.60
   2  -3   2  596.14   30.50
  -2   2  -2   62.39    4.60
  -2   2  -2   59.89    5.30
   2  -2   2   73.39    6.20
   2  -2   2   60.49    4.30
  -2   1  -2   56.89    3.70
  -2   1  -2   51.49    4.00
   2  -1   2   52.39    3.60
   2  -1   2   50.09    3.90
  -2   0  -2 2571.14  115.99
  -2   0  -2 2516.85  115.39
  -2   0  -2 2495.65  116.89
   2   0   2 2462.65  116.89
   2   0   2 2552.04  116.09
  -2  -1  -2   50.39    3.40
  -2  -1  -2   56.49    4.20
   2   1   2   50.19    4.20
   2   1   2   62.59    3.80
   2   1   2   55.99    3.50
   2   2   2   57.29    5.10
   2   3   2  659.63   34.40
   2   4   2   85.59    8.10
   2   5   2   -4.00    2.20
   2   6   2  128.29   11.50
   2   6   2  121.09   12.40
   2   7   2   18.00    6.30
   2   7   2   10.20    5.00
  -2   6  -3   12.50    4.50
  -2   5  -3   89.29    9.70
  -2   5  -3   91.39    7.80
  -2   4  -3   82.39    6.70
  -2   4  -3   96.49    8.60
  -2   3  -3  773.32   38.30
  -2   3  -3  719.33   35.80
   2  -3   3  717.23   35.70
  -2   2  -3  788.82   39.60
  -2   1  -3  508.85   24.80
   2  -1   3  473.35   24.80
   2   0   3   17.20    2.10
   2   0   3   17.90    1.90
  -2  -1  -3  531.55   24.60
  -2  -1  -3  508.85   25.20
  -2  -1  -3  486.15   25.50
   2   1   3  476.25   25.60
   2   1   3  510.95   24.60
   2   1   3  552.14   24.80
   2   2   3  746.63   37.60
   2   2   3  743.73   36.60
   2   3   3  778.02   40.40
   2   4   3   88.89    8.70
   2   5   3  106.59   10.30
   2   6   3   14.50    5.00
   2   6   3   16.30    5.20
  -2   6  -4   14.70    5.20
  -2   6  -4   15.50    3.90
  -2   5  -4   13.90    4.50
  -2   4  -4  126.49   10.70
  -2   3  -4   91.79    8.10
  -2   2  -4  701.73   35.90
  -2   1  -4  593.94   29.90
  -2   0  -4    6.70    1.70
  -2   0  -4    6.60    1.70
  -2   0  -4    8.50    1.70
   2   0   4    6.30    1.70
   2   0   4    4.00    1.40
  -2  -1  -4  580.14   28.70
  -2  -1  -4  646.54   28.50
  -2  -1  -4  542.75   27.30
   2   1   4  566.34   27.70
   2   1   4  505.85   27.40
   2   1   4  580.54   29.00
   2   2   4  680.13   35.10
   2   3   4   90.09    8.50
   2   4   4  122.19   10.90
   2   5   4   18.80    4.80
   2   6   4   16.30    5.20
  -2   6  -5   -3.30    2.90
  -2   5  -5   -1.50    2.70
  -2   4  -5  124.89   11.10
  -2   3  -5  154.28   11.60
  -2   2  -5  347.27   19.90
  -2   1  -5 1526.35   72.89
  -2   0  -5 1508.95   70.69
  -2   0  -5 1601.84   70.59
   2   0   5 1388.46   70.59
  -2  -1  -5 1371.26   67.99
  -2  -1  -5 1532.05   69.29
   2   1   5 1468.55   70.09
   2   2   5  343.67   20.20
   2   3   5  142.99   11.60
   2   4   5  110.99   10.70
   2   5   5   -0.10    3.00
   2   6   5    0.80    3.10
  -2   6  -6   13.90    5.30
  -2   5  -6   20.40    5.00
  -2   4  -6  222.78   18.10
  -2   3  -6  115.09   10.00
  -2   2  -6  377.26   21.80
  -2   1  -6  350.96   18.80
  -2   1  -6  342.77   19.20
  -2   0  -6   70.59    5.50
  -2   0  -6   83.29    6.00
  -2   0  -6   79.69    6.10
   2   0   6   76.19    5.90
  -2  -1  -6  341.27   17.80
  -2  -1  -6  275.57   16.10
   2   1   6  337.47   18.40
  -2  -2  -6  382.76   18.60
  -2  -2  -6  309.57   20.40
   2   2   6  379.46   21.40
   2   3   6  118.89   10.60
   2   4   6  242.58   18.60
   2   5   6   20.40    5.90
   2   6   6   18.20    6.40
  -2   6  -7    7.20    4.40
  -2   5  -7   57.69    8.10
  -2   4  -7   18.00    5.40
  -2   3  -7   52.49    7.00
  -2   2  -7  120.59    9.90
  -2   1  -7  597.14   31.10
  -2   1  -7  609.24   31.50
  -2   0  -7  428.16   21.20
  -2   0  -7  376.96   21.30
   2   0   7  382.96   21.10
  -2  -1  -7  619.04   33.20
  -2  -1  -7  675.03   31.70
   2   1   7  632.14   33.70
  -2  -2  -7  125.09    7.50
  -2  -2  -7   89.99    9.20
   2   2   7  120.79    9.80
   2   3   7   55.89    7.30
   2   4   7   12.40    4.80
   2   5   7   57.69    8.90
   2   6   7    1.00    3.60
  -2   5  -8    2.20    3.90
  -2   4  -8    5.90    3.90
  -2   3  -8   23.90    6.80
  -2   2  -8   76.19    8.00
  -2   2  -8   87.39    8.20
  -2   1  -8   44.60    5.70
  -2   1  -8   44.10    6.30
  -2   0  -8  790.22   39.60
  -2   0  -8  773.02   38.70
   2   0   8  759.52   38.80
  -2  -1  -8   41.70    4.40
  -2  -1  -8   32.70    5.70
   2   1   8   47.90    5.60
  -2  -2  -8  113.99   10.30
  -2  -2  -8   95.59    6.90
   2   2   8   93.39    9.10
   2   3   8   22.70    7.50
   2   4   8    9.70    4.20
   2   5   8   -2.60    3.10
  -2   5  -9    2.80    4.60
  -2   4  -9    1.00    3.60
  -2   3  -9   15.90    5.00
  -2   2  -9   72.69    8.20
  -2   2  -9   91.89    8.80
  -2   1  -9   65.19    7.10
  -2   1  -9   66.99    7.70
  -2   0  -9  186.78   13.60
  -2   0  -9  204.28   12.60
   2   0   9  194.68   12.60
  -2  -1  -9   46.80    6.90
  -2  -1  -9   67.29    5.40
   2   1   9   63.29    6.70
  -2  -2  -9  103.29    6.90
  -2  -2  -9   72.89    9.20
   2   2   9   84.39    8.70
   2   3   9   12.90    4.50
   2   4   9    1.00    2.90
   2   5   9    3.20    4.40
  -2   4 -10   -3.80    3.40
  -2   3 -10   -3.20    2.70
  -2   3 -10    4.40    3.60
  -2   2 -10   -0.90    3.50
  -2   2 -10    3.20    3.10
  -2   1 -10   28.60    5.40
  -2   1 -10   31.60    6.10
  -2   0 -10    4.80    2.60
  -2   0 -10    1.90    3.50
   2   0  10    0.70    2.30
  -2  -1 -10   30.10    4.00
  -2  -1 -10   26.20    5.80
   2   1  10   33.10    6.20
  -2  -2 -10    2.80    4.40
  -2  -2 -10    7.40    2.40
   2   2  10    4.80    2.80
   2   3  10    7.10    4.10
   2   4  10   -2.10    3.50
  -2   3 -11   10.20    4.70
  -2   3 -11    1.90    4.10
  -2   2 -11    1.30    3.80
  -2   2 -11    0.90    4.40
  -2   1 -11    1.70    2.50
  -2   1 -11    5.40    4.30
  -2   0 -11    4.80    4.10
  -2   0 -11    4.20    3.30
   2   0  11    3.80    2.70
  -2  -1 -11    3.70    2.40
  -2  -1 -11    6.40    3.90
   2   1  11    6.80    3.40
  -2  -2 -11    3.40    4.60
  -2  -2 -11    6.30    2.60
   2   2  11    6.90    3.70
   2   3  11    3.10    3.50
  -2   2 -12   -1.00    4.30
  -2   2 -12    1.50    5.00
  -2   1 -12   13.30    4.80
  -2   1 -12   13.30    5.10
  -2   0 -12   13.80    5.50
  -2   0 -12   20.90    4.20
  -2  -1 -12   16.50    3.40
  -2  -1 -12   12.50    5.60
   2   1  12   14.50    4.80
  -2  -2 -12   -2.70    5.20
   2   2  12    0.10    3.10
  -3   1  11   18.20    6.40
   3  -1 -11   17.50    6.10
  -3   0  11    5.70    5.00
   3   0 -11    1.80    5.20
   3   0 -11   10.50    2.80
   3   1 -11    6.20    5.60
   3   1 -11   28.40    5.20
  -3   3  10    5.40    4.70
   3  -3 -10    1.50    5.40
  -3   2  10   12.60    5.30
   3  -2 -10   10.40    5.20
  -3   1  10   27.80    6.40
   3  -1 -10   22.90    6.90
  -3   0  10    5.70    4.20
   3   0 -10    1.70    2.30
   3   0 -10   -1.50    4.30
   3   1 -10   23.10    6.60
   3   1 -10   33.40    5.40
   3   2 -10   10.80    6.30
   3   2 -10   23.90    8.90
   3   3 -10    1.50    5.50
   3   3 -10    7.10    4.30
  -3   4   9   68.59   10.40
  -3   3   9    6.40    4.90
   3  -3  -9    1.70    5.00
  -3   2   9    0.10    3.50
   3  -2  -9    4.50    4.90
  -3   1   9   84.09    9.20
   3  -1  -9   74.49    9.60
  -3   0   9   23.70    5.20
   3   0  -9    6.30    4.70
   3   0  -9   12.30    2.60
   3   1  -9   85.59   10.30
   3   1  -9   97.89    8.20
   3   2  -9   11.40    5.40
   3   2  -9    9.20    4.10
   3   3  -9    1.80    4.00
   3   3  -9    0.70    4.20
   3   4  -9   66.89    9.50
   3   4  -9   72.39    9.50
  -3   4   8   39.40    8.90
  -3   3   8   25.10    6.80
   3  -3  -8   16.90    6.30
  -3   2   8   14.40    4.90
   3  -2  -8    5.50    4.30
  -3   1   8  105.19    9.40
   3  -1  -8   74.49    9.50
  -3   0   8  273.87   17.70
   3   0  -8  234.88   19.80
   3   0  -8  302.27   15.00
   3   1  -8  117.09    9.10
   3   1  -8  104.89   10.60
   3   2  -8   14.20    4.10
   3   2  -8    8.20    4.50
   3   3  -8   23.40    6.00
   3   3  -8   33.30    8.70
   3   4  -8   44.40    7.30
  -3   5   7   83.29    8.30
  -3   4   7    0.20    3.70
  -3   3   7  117.99   11.20
   3  -3  -7   81.79   10.80
  -3   2   7   13.90    4.60
   3  -2  -7    3.90    4.30
  -3   1   7  101.89    8.80
   3  -1  -7   75.39    8.90
  -3   0   7    3.30    2.70
   3   0  -7    3.80    1.70
   3   0  -7    1.20    3.40
   3   1  -7  116.09    8.60
   3   1  -7  113.29   10.30
   3   2  -7    6.40    4.20
   3   2  -7   12.20    3.40
   3   3  -7  139.79   11.50
   3   4  -7   12.00    4.30
   3   5  -7   30.60    7.40
  -3   5   6    4.50    4.10
  -3   5   6   -0.50    4.20
  -3   4   6   44.70    7.40
  -3   4   6   41.20    5.50
   3  -3  -6   13.70    5.80
   3  -2  -6   80.49    8.50
  -3   1   6  213.48   13.70
   3  -1  -6  180.98   13.40
  -3   0   6   42.20    5.30
  -3   0   6   45.10    4.30
   3   0  -6   42.60    3.90
   3   0  -6   46.70    5.90
  -3  -1   6  222.58   13.90
   3   1  -6  248.38   13.80
   3   1  -6  218.08   14.80
   3   2  -6  123.19    9.50
   3   2  -6  123.09   10.20
   3   3  -6   39.60    5.80
   3   4  -6   45.80    6.60
   3   5  -6    8.10    4.30
  -3   6   5    1.90    5.50
  -3   6   5    0.60    4.60
  -3   5   5   37.00    6.20
  -3   5   5   36.00    7.40
  -3   4   5   19.60    3.80
  -3   4   5   18.80    5.40
  -3   3   5  136.09   11.00
  -3   3   5  101.69    6.40
  -3   2   5   41.60    5.70
   3  -2  -5   41.40    6.00
  -3   1   5  197.68   12.70
   3  -1  -5  186.38   12.70
  -3   0   5    4.80    1.50
  -3   0   5    5.60    3.10
   3   0  -5    5.10    2.50
   3   0  -5    5.40    1.60
  -3  -1   5  209.48   12.70
   3   1  -5  199.68   13.10
   3   1  -5  213.58   12.40
   3   2  -5   49.30    5.30
   3   3  -5  157.38   11.80
   3   4  -5   19.60    5.70
   3   5  -5   31.80    6.70
   3   6  -5    5.50    3.30
  -3   6   4   25.50    7.20
  -3   5   4   11.60    4.10
  -3   5   4    8.50    4.40
  -3   4   4  115.99   11.20
  -3   4   4  133.69    9.30
  -3   3   4   50.59    3.60
  -3   3   4   48.90    6.40
  -3   2   4  120.19    9.40
   3  -2  -4  109.79    9.10
  -3   1   4  271.37   15.60
   3  -1  -4  247.78   15.30
  -3   0   4   39.80    4.50
  -3   0   4   35.40    3.00
   3   0  -4   42.30    4.50
   3   0  -4   36.40    3.10
   3   0  -4   38.90    4.00
  -3  -1   4  294.57   15.80
   3   1  -4  254.57   15.30
   3   1  -4  266.57   16.00
   3   1  -4  300.37   15.40
   3   2  -4  137.49    9.70
   3   3  -4   61.89    6.50
   3   4  -4  121.89   10.90
   3   5  -4    2.60    2.80
   3   6  -4   14.80    5.40
  -3   6   3    6.00    4.60
  -3   6   3   12.30    4.90
  -3   5   3   75.29    7.50
  -3   5   3   61.89    8.20
  -3   4   3   45.40    5.30
  -3   4   3   61.39    7.50
  -3   3   3  193.28   13.60
  -3   3   3  199.98   11.50
  -3   2   3  208.78   13.40
   3  -2  -3  198.78   13.20
  -3   1   3 1395.76   71.49
   3  -1  -3 1515.55   69.69
  -3   0   3  133.79    8.50
   3   0  -3  121.49    8.00
   3   0  -3  118.39    7.90
  -3  -1   3 1416.96   64.89
   3   1  -3 1353.46   64.19
   3   1  -3 1300.57   64.19
  -3  -2   3  217.68   12.40
   3   2  -3  212.98   12.90
   3   2  -3  204.58   12.00
   3   3  -3  167.28   11.00
   3   3  -3  196.78   13.00
   3   3  -3  196.28   10.70
   3   4  -3   48.90    6.80
   3   4  -3   57.39    5.00
   3   5  -3   69.59    8.80
   3   5  -3   89.19    6.80
   3   6  -3   23.50    4.10
   3   6  -3    6.20    3.20
  -3   6   2   20.80    5.80
  -3   6   2    7.80    4.50
  -3   5   2    5.70    4.20
  -3   5   2    5.00    3.00
  -3   4   2   55.49    6.60
  -3   4   2   57.09    6.00
  -3   3   2  210.18   12.20
  -3   3   2  210.08   14.00
  -3   2   2  310.07   15.70
  -3   2   2  311.17   18.00
  -3   1   2 2334.87  110.69
  -3   1   2 2309.37  109.49
   3  -1  -2 2338.87  110.49
   3  -1  -2 2442.36  110.19
  -3   0   2   15.10    2.00
  -3   0   2   15.20    2.50
   3   0  -2   16.60    2.30
  -3  -1   2 2453.35  111.99
   3   1  -2 2438.86  111.49
   3   1  -2 2277.37  110.99
   3   2  -2  297.37   16.30
   3   3  -2  220.18   13.50
   3   3  -2  229.08   12.80
   3   3  -2  226.58   14.40
   3   4  -2   63.89    7.30
   3   4  -2   64.99    5.80
   3   5  -2   12.70    3.90
   3   5  -2    4.30    3.30
   3   6  -2   21.90    4.60
   3   6  -2   13.80    4.80
  -3   6   1   33.80    7.30
  -3   6   1   47.80    7.10
  -3   5   1   24.50    5.60
  -3   5   1   17.50    4.30
  -3   4   1   99.89    8.30
  -3   4   1   95.59    8.70
  -3   3   1  233.38   15.20
  -3   3   1  256.67   14.20
  -3   2   1 2028.20   94.49
  -3   1   1 2293.57  100.49
  -3   1   1 2090.19  101.39
   3  -1  -1 2214.78  100.79
   3  -1  -1 2046.20  101.19
  -3   0   1   44.30    3.20
  -3   0   1   44.30    4.10
   3   0  -1   39.30    3.70
   3   0  -1   45.80    3.30
  -3  -1   1 2045.20   95.19
   3   1  -1 1999.80   94.79
   3   2  -1 1962.50   91.39
   3   2  -1 1950.40   92.59
   3   3  -1  253.47   14.50
   3   4  -1  107.89    8.30
   3   4  -1  110.69    9.70
   3   5  -1   25.60    5.20
   3   5  -1   21.20    5.50
   3   6  -1   43.30    6.40
   3   6  -1   37.80    7.60
  -3   7   0   11.40    5.50
  -3   6   0   16.50    4.40
  -3   6   0   10.30    4.20
  -3   5   0   89.39    8.90
  -3   5   0   73.89    8.00
  -3   4   0   87.49    8.10
  -3   4   0   84.09    7.60
  -3   3   0   74.29    6.40
  -3   3   0   71.09    6.60
  -3   2   0  805.02   40.10
  -3   2   0  812.82   39.20
  -3   1   0 5816.32  253.27
  -3   1   0 5493.55  254.27
  -3   1   0 5252.37  252.67
   3  -1   0 5212.08  252.77
   3  -1   0 5802.92  254.37
  -3   0   0 6882.91  305.57
  -3   0   0 6354.86  307.07
   3   0   0 6793.82  307.07
  -3  -1   0 5515.95  254.87
   3   1   0 5525.15  254.77
   3   2   0  773.72   37.40
   3   2   0  762.02   38.60
   3   3   0   76.19    6.20
   3   4   0   89.09    7.70
   3   5   0   85.89    8.40
   3   5   0   94.39   11.50
   3   6   0    8.40    4.70
   3   6   0   10.90    4.70
   3   7   0   13.60    5.40
   3   7   0   21.30    5.60
  -3   7  -1    6.70    4.40
  -3   7  -1    7.00    5.20
  -3   6  -1   40.40    6.80
  -3   6  -1   43.40    6.80
  -3   5  -1   23.80    5.20
  -3   5  -1   26.60    5.90
  -3   4  -1  562.74   29.90
  -3   4  -1  539.45   29.90
  -3   3  -1  226.08   14.10
  -3   3  -1  233.98   14.10
  -3   2  -1 2333.77  106.29
  -3   2  -1 2324.37  105.99
   3  -2   1 2132.29  105.79
  -3   1  -1 2549.74  116.89
  -3   1  -1 2403.56  115.99
   3  -1   1 2483.35  116.19
   3  -1   1 2603.14  116.79
  -3   0  -1  980.40   45.80
  -3   0  -1  986.50   47.60
   3   0   1  985.30   47.40
   3   0   1  996.80   45.90
  -3  -1  -1 2517.75  119.29
   3   1   1 2501.25  119.19
   3   1   1 2605.44  117.19
   3   2   1 2074.79   97.49
   3   3   1  232.48   14.10
   3   4   1  598.54   32.20
   3   5   1   26.60    5.60
   3   6   1   31.40    6.90
   3   6   1   39.00    5.90
   3   7   1    2.20    3.30
   3   7   1    5.50    4.90
  -3   6  -2   22.90    5.60
  -3   6  -2   28.20    6.20
  -3   5  -2  120.39   10.50
  -3   5  -2  106.39    9.50
  -3   4  -2   83.29    7.40
  -3   4  -2   90.99    8.10
  -3   3  -2  572.54   30.50
  -3   3  -2  630.84   31.70
   3  -3   2  597.94   30.60
  -3   2  -2  130.79    8.30
  -3   2  -2  130.79    8.80
   3  -2   2  134.39    8.30
  -3   1  -2  878.81   44.10
  -3   1  -2  942.41   44.00
   3  -1   2  937.31   44.00
  -3   0  -2 1314.47   57.89
  -3   0  -2 1231.88   59.39
   3   0   2 1209.08   57.89
   3   0   2 1215.78   59.19
  -3  -1  -2  914.31   43.30
   3   1   2  995.90   43.40
   3   1   2  897.71   45.50
   3   1   2  873.81   44.20
   3   2   2  129.79    8.80
   3   3   2  555.54   29.60
   3   4   2   87.19    8.00
   3   5   2  113.29   10.50
   3   6   2   33.40    7.60
   3   6   2   38.00    6.50
  -3   6  -3   55.69    8.20
  -3   6  -3   57.09    7.00
  -3   5  -3  129.39   13.30
  -3   5  -3  118.79    9.60
  -3   4  -3   16.40    3.90
  -3   4  -3   14.80    3.70
  -3   3  -3  257.07   14.40
  -3   3  -3  269.47   16.20
   3  -3   3  245.18   14.10
  -3   2  -3  273.47   15.00
  -3   2  -3  246.68   13.50
   3  -2   3  236.28   13.10
  -3   1  -3  452.35   22.00
  -3   1  -3  415.46   22.00
   3  -1   3  430.66   22.30
  -3   0  -3  449.46   21.70
  -3   0  -3  440.16   20.80
   3   0   3  423.26   21.70
   3   0   3  451.05   22.90
  -3  -1  -3  440.66   21.50
   3   1   3  416.66   22.40
   3   1   3  429.46   21.50
   3   1   3  474.05   21.40
   3   2   3  263.37   15.40
   3   3   3  271.37   16.70
   3   4   3   17.60    4.20
   3   5   3  140.99   13.50
   3   6   3   64.89    8.40
  -3   6  -4   34.00    7.00
  -3   6  -4   49.70    5.90
  -3   5  -4   60.29    7.50
  -3   4  -4   34.40    5.60
   3  -4   4   39.10    4.40
  -3   3  -4  354.36   21.00
  -3   2  -4  215.58   13.40
  -3   1  -4  259.17   13.50
  -3   1  -4  250.67   14.40
   3  -1   4  241.68   13.30
  -3   0  -4 1990.30   85.59
  -3   0  -4 1937.21   86.39
   3   0   4 1685.63   86.39
   3   0   4 1793.22   86.19
   3   0   4 1831.22   87.49
  -3  -1  -4  247.48   13.00
  -3  -1  -4  243.38   13.50
  -3  -1  -4  249.58   14.30
   3   1   4  263.47   13.00
   3   1   4  252.97   14.40
   3   2   4  202.78   13.00
   3   3   4  360.86   21.60
   3   4   4   38.90    5.90
   3   5   4   61.49    7.90
   3   6   4   50.89    7.30
  -3   6  -5    5.40    3.50
  -3   5  -5   72.79    8.90
  -3   4  -5  133.19   11.60
  -3   3  -5  251.77   16.50
  -3   2  -5  144.69   10.40
  -3   1  -5 1038.20   50.59
  -3   0  -5  231.28   12.80
   3   0   5  236.28   12.80
   3   0   5  223.48   13.70
  -3  -1  -5  886.61   43.50
  -3  -1  -5  917.11   44.40
   3   1   5  923.31   47.10
   3   1   5  939.91   43.70
   3   2   5  111.19    8.70
   3   3   5  231.78   15.90
   3   4   5  126.69   11.50
   3   5   5   89.29   10.10
   3   6   5    2.60    4.00
  -3   6  -6    2.20    4.40
  -3   5  -6    4.50    3.70
  -3   4  -6  239.68   18.10
  -3   3  -6  135.89   11.20
  -3   2  -6  150.18   11.00
  -3   1  -6   97.19    7.10
  -3   1  -6   86.59    7.30
  -3   0  -6   21.80    3.10
  -3  -1  -6   77.49    5.60
   3   1   6   88.59    7.00
  -3  -2  -6  126.59    8.00
   3   2   6  123.89    9.90
   3   3   6  117.49   10.50
   3   4   6  233.78   18.20
   3   5   6    4.20    4.20
   3   6   6   -1.60    3.50
  -3   6  -7    0.10    4.00
  -3   5  -7    2.50    3.60
  -3   4  -7   51.89    7.60
  -3   3  -7    9.40    4.10
  -3   2  -7   31.30    5.10
  -3   1  -7  464.45   25.20
  -3   1  -7  466.85   24.50
  -3   0  -7   53.09    5.40
  -3   0  -7   49.70    5.00
   3   0   7   46.20    4.70
  -3  -1  -7  433.56   22.90
  -3  -1  -7  456.35   24.20
   3   1   7  460.35   24.90
  -3  -2  -7   24.90    3.30
  -3  -2  -7   26.00    5.40
   3   2   7   27.40    5.60
   3   3   7    9.00    4.10
   3   4   7   44.20    7.10
   3   5   7    3.80    3.80
   3   6   7   -2.40    4.30
  -3   5  -8   10.10    4.90
  -3   4  -8   24.90    6.30
  -3   3  -8   34.60    5.30
  -3   2  -8   12.10    4.00
  -3   1  -8   15.80    4.00
  -3   1  -8   17.50    4.00
  -3   0  -8   68.49    6.80
  -3   0  -8   63.99    6.10
   3   0   8   57.39    5.60
  -3  -1  -8   12.60    2.80
  -3  -1  -8   12.20    4.00
   3   1   8   19.30    4.60
  -3  -2  -8   10.10    2.70
  -3  -2  -8   12.00    4.80
   3   2   8    8.70    4.00
   3   3   8   24.00    7.00
   3   4   8   16.70    4.80
   3   5   8   14.60    5.20
  -3   5  -9   -3.80    3.80
  -3   4  -9    3.90    3.60
  -3   3  -9   46.60    7.10
  -3   2  -9   90.19    9.40
  -3   2  -9   90.19    8.70
  -3   1  -9    5.00    3.00
  -3   1  -9    7.00    3.90
  -3   0  -9    5.10    2.60
  -3   0  -9    2.20    3.20
   3   0   9    0.30    1.90
  -3  -1  -9   -0.80    3.10
  -3  -1  -9    2.90    2.20
   3   1   9    2.10    2.20
  -3  -2  -9  112.49    7.40
  -3  -2  -9   77.09    9.40
   3   2   9   96.59    9.40
   3   3   9   53.09    7.40
   3   4   9    0.20    2.80
   3   5   9    3.00    3.90
  -3   4 -10    9.60    5.20
  -3   3 -10   26.70    6.60
  -3   3 -10   29.30    5.60
  -3   2 -10    1.50    2.90
  -3   1 -10    4.90    3.20
  -3   1 -10    4.20    3.80
  -3   0 -10   90.69    7.40
  -3   0 -10   67.89    8.00
   3   0  10   71.49    7.10
  -3  -1 -10    1.80    3.30
  -3  -1 -10    1.00    1.90
   3   1  10    0.90    2.40
  -3  -2 -10    2.10    4.80
  -3  -2 -10    5.10    2.20
   3   2  10    7.70    3.80
   3   3  10   29.50    6.80
   3   4  10   18.40    5.50
  -3   3 -11   15.40    5.30
  -3   3 -11   12.60    5.00
  -3   2 -11    1.80    4.20
  -3   2 -11    7.50    4.20
  -3   1 -11   36.40    5.90
  -3   1 -11   21.20    5.60
  -3   0 -11   50.89    6.00
  -3   0 -11   57.29    7.70
   3   0  11   48.00    5.80
  -3  -1 -11   28.30    6.30
  -3  -1 -11   31.80    6.70
   3   1  11   25.20    5.70
  -3  -2 -11   10.50    3.00
  -3  -2 -11    6.30    5.70
   3   2  11    2.80    3.30
   3   3  11   22.90    6.10
  -3   2 -12   -5.60    4.70
  -3   2 -12    0.60    3.60
  -3   1 -12    0.40    3.40
  -3   1 -12    4.40    4.80
  -3   0 -12    9.20    4.90
  -3   0 -12    0.90    3.00
   3   0  12    2.30    3.40
  -3  -1 -12   10.50    3.20
  -3  -1 -12    6.00    4.70
   3   1  12    7.30    3.70
  -3  -2 -12    9.20    5.80
  -3  -2 -12   11.90    2.50
  -4   0  11    7.50    5.50
   4   0 -11    4.60    5.40
  -4   2  10    0.60    4.00
   4  -2 -10   13.90    6.40
  -4   1  10    7.30    4.90
   4  -1 -10   11.10    5.40
  -4   0  10   -3.20    3.60
   4   0 -10   -0.30    4.80
   4   1 -10    4.00    5.20
   4   1 -10   14.20    3.90
   4   2 -10    2.60    5.30
   4   2 -10   12.20    5.70
  -4   3   9   23.00    7.30
   4  -3  -9   21.70    7.40
  -4   2   9   -2.20    3.40
   4  -2  -9    1.40    4.30
  -4   1   9    8.80    4.00
   4  -1  -9   10.80    4.70
  -4   0   9   34.70    7.10
   4   0  -9   31.20    6.80
  -4  -1   9   11.00    4.40
   4   1  -9    5.50    4.90
   4   1  -9   11.80    3.40
   4   2  -9    4.30    5.10
   4   2  -9   -3.10    3.50
   4   3  -9   18.70    6.50
   4   3  -9   37.20    6.80
  -4   4   8   12.80    6.10
  -4   3   8   31.60    7.60
   4  -3  -8   45.80    9.30
  -4   2   8   23.20    5.60
   4  -2  -8   11.50    5.30
  -4   1   8   12.90    4.50
   4  -1  -8    6.60    4.80
  -4   0   8  311.97   20.10
   4   0  -8  311.87   20.60
  -4  -1   8   14.50    4.00
   4   1  -8   15.80    3.60
   4   1  -8   10.70    5.20
   4   2  -8   25.00    6.70
   4   2  -8   31.90    5.30
   4   3  -8   61.59    8.50
   4   3  -8   41.00    7.50
   4   4  -8   14.50    5.60
  -4   5   7    2.70    4.90
  -4   4   7   38.00    8.50
  -4   3   7    3.80    4.10
   4  -3  -7    4.60    4.80
  -4   2   7   11.00    4.70
   4  -2  -7    6.00    4.30
   4  -1  -7  134.49   11.70
  -4   0   7  136.49   10.90
   4   0  -7  119.59   10.90
  -4  -1   7  192.28   13.40
   4   1  -7  207.28   12.30
   4   1  -7  182.58   14.20
   4   2  -7   13.60    3.80
   4   2  -7   14.70    5.20
   4   3  -7    6.80    3.00
   4   3  -7    2.40    3.80
   4   4  -7   66.99    8.50
   4   5  -7    1.70    4.00
  -4   5   6   -7.90    4.00
  -4   5   6    1.40    3.80
  -4   4   6   33.20    7.90
  -4   3   6    2.90    3.70
   4  -3  -6    5.60    4.50
  -4   2   6   24.20    5.70
   4  -2  -6   20.20    5.30
  -4   1   6    8.80    3.80
   4  -1  -6    3.50    3.30
  -4   0   6  225.18   14.50
   4   0  -6  205.08   14.30
  -4  -1   6    5.90    3.50
   4   1  -6    5.50    3.80
   4   1  -6    9.60    2.70
   4   2  -6   25.30    5.70
   4   2  -6   28.80    4.50
   4   3  -6    2.30    2.60
   4   4  -6   41.20    6.30
   4   5  -6    0.40    3.30
  -4   6   5   30.90    6.50
  -4   6   5   18.50    6.90
  -4   5   5   28.60    4.90
  -4   5   5   16.20    6.30
  -4   4   5   45.90    7.50
  -4   3   5   99.39    9.90
  -4   2   5    3.40    2.90
   4  -2  -5    1.60    3.10
  -4   1   5    4.50    2.60
   4  -1  -5    1.90    2.60
  -4   0   5  185.88   12.30
   4   0  -5  178.68   12.00
  -4  -1   5    4.00    2.50
   4   1  -5    1.40    2.30
   4   1  -5    5.10    1.80
   4   2  -5    0.40    1.40
   4   3  -5  117.89    9.90
   4   4  -5   34.00    7.10
   4   5  -5   18.00    5.30
   4   6  -5   23.80    6.90
  -4   6   4    9.70    4.60
  -4   6   4    1.90    5.00
  -4   5   4   26.30    6.50
  -4   5   4   25.90    4.90
  -4   4   4  127.09   12.20
  -4   4   4  138.79    9.40
  -4   3   4    4.20    3.40
  -4   2   4  233.38   15.20
   4  -2  -4  218.48   14.80
  -4   1   4   83.19    7.30
   4  -1  -4   77.79    7.10
  -4   0   4   25.60    4.00
   4   0  -4   23.90    3.80
  -4  -1   4   92.69    7.30
   4   1  -4   81.99    6.10
   4   1  -4   81.59    6.30
   4   1  -4   87.79    7.10
  -4  -2   4  264.67   15.00
   4   2  -4  268.17   15.30
   4   2  -4  222.78   14.00
   4   3  -4    7.20    2.70
   4   4  -4  107.89   10.10
   4   5  -4   16.60    5.20
   4   6  -4   -3.80    3.00
  -4   6   3    3.90    4.70
  -4   6   3   -3.00    4.00
  -4   5   3   20.30    4.80
  -4   5   3   24.80    6.40
  -4   4   3   57.59    7.80
  -4   4   3   65.99    6.40
  -4   3   3  306.87   16.10
  -4   3   3  291.57   19.10
  -4   2   3  185.08   12.90
   4  -2  -3  195.08   12.90
  -4   1   3  174.28   11.70
   4  -1  -3  174.08   11.20
  -4   0   3 1373.66   65.99
   4   0  -3 1346.47   64.59
  -4  -1   3  171.88   11.40
   4   1  -3  184.08   11.20
   4   1  -3  177.18   10.40
   4   1  -3  179.88   10.90
  -4  -2   3  207.98   12.50
   4   2  -3  191.48   12.30
   4   2  -3  194.08   11.90
   4   3  -3  283.77   16.90
   4   3  -3  302.97   16.20
   4   3  -3  320.97   18.70
   4   4  -3   74.09    8.40
   4   4  -3   71.59    6.00
   4   5  -3   32.90    4.60
   4   6  -3   -2.10    2.80
   4   6  -3    6.90    3.70
  -4   6   2   29.00    7.20
  -4   6   2   23.60    6.10
  -4   5   2   34.40    7.50
  -4   5   2   36.30    5.70
  -4   4   2  230.98   16.50
  -4   4   2  234.38   14.40
  -4   3   2  470.55   23.50
  -4   3   2  439.16   25.90
  -4   2   2  103.19    8.40
   4  -2  -2  103.79    8.20
  -4   1   2  849.32   49.60
   4  -1  -2  992.60   45.30
  -4   0   2  200.08   12.20
  -4   0   2  188.38   11.00
   4   0  -2  205.58   11.90
   4   0  -2  191.48   11.00
  -4  -1   2  853.01   42.10
   4   1  -2  825.52   41.40
   4   1  -2  843.82   40.60
  -4  -2   2  116.79    8.30
   4   2  -2  100.39    7.80
   4   2  -2  112.49    8.00
   4   3  -2  459.05   25.40
   4   3  -2  450.35   23.50
   4   4  -2  247.58   16.90
   4   4  -2  242.58   14.60
   4   5  -2   35.10    5.00
   4   5  -2   30.90    6.40
   4   6  -2   47.90    6.30
  -4   6   1   -2.30    3.20
  -4   6   1    8.20    4.80
  -4   5   1  123.29   10.00
  -4   5   1   99.39   10.60
  -4   4   1  305.17   17.60
  -4   4   1  282.67   18.90
  -4   3   1  463.65   24.40
  -4   3   1  476.95   26.40
  -4   2   1  596.24   30.80
  -4   2   1  575.04   28.40
  -4   1   1 4708.13  231.58
  -4   1   1 4652.13  233.18
   4  -1  -1 5494.85  234.88
   4  -1  -1 5291.77  232.18
  -4   0   1    2.30    1.50
  -4   0   1   -0.70    1.40
   4   0  -1    5.20    1.50
   4   0  -1    0.20    1.20
  -4  -1   1 4634.04  213.38
   4   1  -1 4553.94  212.98
  -4  -2   1  588.14   30.60
   4   2  -1  569.64   30.20
   4   3  -1  445.36   23.40
   4   4  -1  294.87   19.10
   4   4  -1  295.77   17.30
   4   5  -1  106.09   10.80
   4   5  -1  102.49    8.90
   4   6  -1    0.80    3.70
   4   6  -1    5.10    3.10
  -4   6   0    2.50    3.80
  -4   6   0    8.80    4.00
  -4   5   0  108.39   10.30
  -4   5   0  108.99    9.80
  -4   4   0   33.00    4.90
  -4   4   0   30.80    5.30
  -4   3   0  440.06   24.60
  -4   2   0  975.80   45.00
  -4   2   0  890.81   49.90
  -4   1   0 3069.59  149.29
  -4   1   0 3114.49  151.48
  -4   1   0 3678.63  150.18
   4  -1   0 2955.50  149.59
   4  -1   0 3479.95  150.38
   4  -1   0 3204.18  151.28
  -4   0   0 2014.20   91.79
  -4   0   0 1820.02   91.29
  -4   0   0 1882.01   93.79
   4   0   0 1940.61   91.39
   4   0   0 2017.10   93.89
   4   0   0 2252.07   91.89
  -4  -1   0 3103.49  144.09
   4   1   0 3041.70  143.69
   4   2   0 1025.10   48.60
   4   2   0  985.50   50.09
   4   3   0  435.96   23.50
   4   4   0   34.30    4.60
   4   5   0  122.59    9.60
   4   5   0  101.69   10.90
   4   6   0   15.90    3.90
   4   6   0    4.10    3.90
  -4   6  -1   23.00    6.10
  -4   6  -1   22.30    5.30
  -4   5  -1   16.00    4.20
  -4   5  -1   22.40    5.10
  -4   4  -1  139.29   10.90
  -4   4  -1  141.29   10.80
  -4   3  -1   14.90    3.30
  -4   3  -1   10.50    3.40
  -4   2  -1 1027.70   50.49
  -4   2  -1  988.20   49.40
   4  -2   1 1131.39   50.99
   4  -2   1  969.80   49.50
  -4   1  -1  787.92   40.80
  -4   1  -1  898.41   39.50
  -4   1  -1  816.42   39.40
   4  -1   1  838.52   40.80
   4  -1   1  805.92   39.70
  -4   0  -1 2123.69  101.09
  -4   0  -1 2121.69  103.49
   4   0   1 2292.57  101.29
   4   0   1 2251.57  105.39
  -4  -1  -1  758.72   39.90
   4   1   1  814.62   37.60
   4   1   1  805.62   40.00
   4   2   1  977.20   47.60
   4   3   1    8.90    2.70
   4   4   1  146.49   11.00
   4   5   1   20.70    4.80
   4   6   1   39.50    5.80
  -4   6  -2   17.50    5.40
  -4   5  -2  136.59   11.20
  -4   5  -2  142.59   12.10
  -4   4  -2   77.29    7.70
  -4   4  -2   93.99    8.30
  -4   3  -2   60.49    6.10
  -4   3  -2   59.49    5.90
  -4   2  -2  738.53   37.60
  -4   2  -2  777.42   38.00
   4  -2   2  765.12   37.60
  -4   1  -2  424.06   20.50
  -4   1  -2  403.96   21.40
   4  -1   2  366.86   23.50
   4  -1   2  418.96   20.80
  -4   0  -2  771.42   34.90
  -4   0  -2  745.43   37.10
   4   0   2  687.63   38.10
  -4  -1  -2  395.76   20.00
   4   1   2  417.36   20.10
   4   1   2  412.66   22.60
   4   2   2  723.03   36.20
   4   3   2   51.09    5.30
   4   4   2   91.89    8.40
   4   5   2  151.88   12.50
   4   6   2   24.00    6.20
   4   6   2   28.10    6.30
  -4   6  -3   62.39    7.30
  -4   6  -3   49.40    8.30
  -4   5  -3   11.70    4.30
  -4   5  -3   12.70    5.40
  -4   4  -3  249.28   16.20
  -4   4  -3  290.67   17.90
  -4   3  -3   85.09    7.00
  -4   3  -3   83.69    7.60
   4  -3   3   97.59    7.60
  -4   2  -3  768.82   40.00
  -4   2  -3  853.41   40.80
   4  -2   3  825.62   39.80
  -4   1  -3  184.98   11.20
  -4   1  -3  170.58   10.60
   4  -1   3  200.68   11.10
   4  -1   3  179.78   10.90
  -4   0  -3  245.68   12.40
  -4   0  -3  242.18   14.10
   4   0   3  239.08   14.00
   4   0   3  221.68   12.50
  -4  -1  -3  182.38   10.00
   4   1   3  191.98    9.60
   4   1   3  184.68   12.30
   4   1   3  182.08   11.10
   4   2   3  825.02   41.50
   4   3   3   84.89    7.50
   4   4   3  284.97   18.40
   4   5   3   12.10    5.90
   4   6   3   68.69    8.60
  -4   6  -4    6.30    4.40
  -4   6  -4   15.30    4.00
  -4   5  -4   38.30    5.00
  -4   5  -4   27.80    5.90
  -4   4  -4   51.99    6.90
  -4   4  -4   58.29    7.70
  -4   3  -4  304.97   17.20
  -4   3  -4  327.37   19.30
  -4   2  -4  246.68   14.80
  -4   2  -4  230.78   13.60
   4  -2   4  254.67   13.40
  -4   1  -4  410.86   20.60
  -4   1  -4  388.06   20.50
   4  -1   4  361.36   20.10
  -4   0  -4   58.29    4.50
  -4   0  -4   56.39    3.70
   4   0   4   55.79    5.40
  -4  -1  -4  386.86   19.90
   4   1   4  391.36   21.00
   4   1   4  412.26   19.50
   4   2   4  228.58   12.80
   4   2   4  236.98   14.60
   4   3   4  315.17   19.30
   4   4   4   50.19    6.60
   4   5   4   43.40    7.00
   4   6   4    6.80    3.40
  -4   6  -5    5.60    4.10
  -4   5  -5   20.20    5.60
  -4   4  -5  209.28   15.40
  -4   3  -5   37.30    5.50
  -4   2  -5  137.19   10.00
  -4   1  -5   36.10    4.50
   4  -1   5   37.30    3.80
  -4   0  -5    5.10    1.80
  -4   0  -5    6.60    1.70
   4   0   5    7.10    2.00
   4   0   5    8.40    2.70
  -4  -1  -5   37.10    3.30
  -4  -1  -5   32.30    3.60
   4   1   5   35.20    4.10
   4   1   5   33.40    3.30
  -4  -2  -5  129.59    8.10
   4   2   5  127.69    9.70
   4   3   5   30.50    5.10
   4   4   5  205.68   15.60
   4   5   5   36.50    6.50
   4   6   5   12.30    5.00
  -4   6  -6   -2.80    3.40
  -4   5  -6   16.10    5.20
  -4   4  -6   63.59    8.20
  -4   3  -6   59.69    7.20
  -4   2  -6  326.97   19.40
  -4   1  -6  197.58   12.50
  -4   1  -6  188.08   11.30
   4  -1   6  208.88   10.90
  -4   0  -6  471.25   24.10
  -4   0  -6  469.65   23.40
   4   0   6  458.45   24.10
  -4  -1  -6  170.98   11.00
  -4  -1  -6  210.08   10.80
   4   1   6  200.98   12.20
   4   1   6  164.28   10.50
  -4  -2  -6  331.57   17.70
   4   2   6  334.07   20.00
   4   3   6   52.69    6.80
   4   4   6   67.99    8.50
   4   5   6   19.50    5.80
   4   6   6    9.40    5.10
  -4   6  -7    6.30    4.30
  -4   5  -7   26.00    6.40
  -4   4  -7   64.59    8.30
  -4   3  -7  172.28   13.40
  -4   2  -7   12.40    3.70
  -4   1  -7   44.50    5.40
  -4   1  -7   57.89    5.40
   4  -1   7   39.60    4.60
  -4   0  -7    1.70    1.60
  -4   0  -7    3.00    2.10
   4   0   7    2.50    1.90
  -4  -1  -7   39.20    4.00
  -4  -1  -7   38.20    4.60
   4   1   7   44.00    5.00
  -4  -2  -7   11.00    2.50
   4   2   7   11.80    4.00
   4   3   7  175.58   13.90
   4   4   7   57.09    8.00
   4   5   7   19.90    6.20
   4   6   7    1.80    3.50
  -4   5  -8   -0.10    3.80
  -4   4  -8    6.10    3.30
  -4   3  -8   83.29    9.10
  -4   2  -8  338.77   20.70
  -4   1  -8   40.20    5.30
  -4   1  -8   37.50    5.30
  -4   0  -8   12.40    3.70
  -4   0  -8   10.10    2.90
   4   0   8   18.70    3.20
  -4  -1  -8   38.50    4.20
  -4  -1  -8   33.00    4.90
   4   1   8   36.30    4.90
  -4  -2  -8  412.96   21.00
   4   2   8  368.46   23.70
   4   4   8    7.00    4.00
   4   5   8    2.30    3.80
  -4   5  -9    0.90    4.30
  -4   4  -9    3.90    3.70
  -4   3  -9   16.50    4.90
  -4   2  -9   49.10    9.70
  -4   2  -9   40.60    6.00
  -4   1  -9  291.17   17.80
  -4   1  -9  304.07   18.30
  -4   0  -9   46.50    6.10
  -4   0  -9   61.19    6.20
   4   0   9   52.99    5.50
  -4  -1  -9  250.77   17.50
  -4  -1  -9  344.67   17.10
   4   1   9  295.47   18.50
  -4  -2  -9   40.00    4.50
  -4  -2  -9   33.00    6.40
   4   2   9   42.30    6.00
   4   3   9   23.90    5.80
   4   4   9    0.20    2.30
   4   5   9    1.10    3.30
  -4   4 -10   19.50    5.50
  -4   3 -10    4.10    3.50
  -4   3 -10    6.70    2.70
  -4   2 -10   11.70    4.50
  -4   2 -10   11.70    4.20
  -4   1 -10   11.20    4.40
  -4   1 -10    8.40    3.70
  -4   0 -10   40.80    6.20
  -4   0 -10   44.90    5.50
   4   0  10   43.00    5.40
  -4  -1 -10   11.20    4.20
  -4  -1 -10   10.60    3.10
   4   1  10   14.60    4.20
  -4  -2 -10   20.00    5.50
  -4  -2 -10   21.00    3.60
   4   2  10   18.90    6.40
   4   3  10    3.80    3.40
   4   4  10   19.00    5.90
  -4   3 -11   21.50    6.30
  -4   3 -11   25.90    5.80
  -4   2 -11   -1.30    3.70
  -4   2 -11    2.10    3.30
  -4   1 -11    1.40    2.60
  -4   1 -11    2.30    3.70
  -4   0 -11    8.90    3.30
  -4   0 -11   19.50    4.70
   4   0  11    8.80    3.40
  -4  -1 -11    4.20    3.70
   4   1  11    2.40    2.70
  -4  -2 -11    5.70    2.10
  -4  -2 -11    3.00    5.30
   4   2  11   -3.90    2.70
   4   3  11   22.70    5.90
  -4   2 -12    0.70    5.10
  -4   2 -12   11.00    4.60
  -4   1 -12    3.20    4.40
  -4   1 -12    2.20    3.00
  -4   0 -12    2.70    4.30
  -4   0 -12    0.40    3.00
   4   0  12    7.40    3.10
  -4  -1 -12   12.30    5.30
  -4  -1 -12    4.60    3.20
   4   1  12    0.30    2.90
  -4  -2 -12   10.60    5.90
  -4  -2 -12   19.40    4.00
   4   2  12    9.00    4.30
  -4   0 -13   80.89    8.30
  -4   0 -13   75.79    9.10
   4   0  13   59.99    8.10
  -5   2  10    1.50    5.20
   5  -2 -10    0.10    4.70
  -5   1  10   10.30    5.90
   5  -1 -10    7.60    5.10
  -5   0  10    3.90    4.00
   5   0 -10   -0.10    5.00
  -5  -1  10   15.50    4.10
   5   1 -10    3.90    5.30
   5   1 -10   15.80    3.80
   5   2 -10    8.00    4.50
   5   2 -10   -3.50    5.10
  -5   3   9   -5.30    3.50
   5  -3  -9    7.80    6.50
  -5   2   9   55.59    8.70
   5  -2  -9   31.90    8.10
  -5   1   9   53.19    8.20
   5  -1  -9   42.50    8.50
  -5   0   9    1.70    4.00
   5   0  -9   -2.90    3.80
  -5  -1   9   73.89    8.30
   5   1  -9   59.69    6.30
   5   1  -9   57.09    9.40
   5   2  -9   41.80    8.90
   5   2  -9   50.49    7.50
   5   3  -9    5.60    4.50
   5   3  -9    0.40    4.40
  -5   4   8   -0.60    4.30
  -5   3   8   16.90    6.10
   5  -3  -8   10.50    5.80
   5  -2  -8   65.99    9.00
  -5   1   8   44.70    6.80
   5  -1  -8   25.40    6.50
  -5   0   8    2.80    3.70
   5   0  -8    9.30    4.90
  -5  -1   8   39.10    6.20
   5   1  -8   34.90    5.30
   5   1  -8   27.30    6.40
   5   2  -8   99.39    9.10
   5   2  -8  105.49   11.30
   5   3  -8   13.50    5.50
   5   3  -8   17.40    5.20
   5   4  -8    4.30    4.10
   5   4  -8    2.70    3.70
  -5   4   7   13.20    5.60
  -5   3   7   26.60    6.90
   5  -3  -7   28.80    7.40
   5  -2  -7   81.29    9.60
  -5   1   7   15.00    5.20
   5  -1  -7   12.40    5.00
  -5   0   7    5.90    3.60
   5   0  -7    5.60    4.40
  -5  -1   7   20.60    5.10
   5   1  -7   19.00    5.50
   5   1  -7   20.90    3.90
   5   2  -7  157.38   11.10
   5   2  -7  135.39   12.50
   5   3  -7   40.70    6.50
   5   3  -7   31.80    6.70
   5   4  -7   30.00    6.30
  -5   5   6   -1.10    3.80
  -5   4   6   17.50    5.30
  -5   3   6   66.09    8.40
   5  -3  -6   53.79    9.10
  -5   2   6   18.60    5.40
   5  -2  -6   16.40    5.90
  -5   1   6   41.00    6.50
  -5   0   6   76.19    8.30
   5   0  -6   80.09    8.10
  -5  -1   6   34.50    6.40
   5   1  -6   35.70    5.90
   5   1  -6   42.00    4.90
  -5  -2   6   14.70    4.90
   5   2  -6   20.90    4.50
   5   2  -6   13.80    5.20
   5   3  -6   87.59    8.60
   5   4  -6   29.30    6.40
   5   5  -6    2.20    4.70
  -5   5   5   22.80    7.40
  -5   4   5    4.20    3.70
  -5   3   5  129.89   12.50
   5  -3  -5   82.09   13.60
  -5   2   5   52.59    6.80
   5  -2  -5   40.90    6.30
  -5   1   5   30.10    5.20
   5  -1  -5   23.90    5.00
  -5   0   5  178.18   12.80
   5   0  -5  176.08   12.10
  -5  -1   5   32.10    5.80
   5   1  -5   33.40    5.40
   5   1  -5   33.30    3.90
  -5  -2   5   41.50    7.20
   5   2  -5   45.20    6.30
   5   2  -5   45.90    5.20
   5   3  -5  159.78   12.10
   5   4  -5    8.40    3.80
   5   5  -5   25.00    6.40
  -5   6   4   45.50    7.40
  -5   6   4   25.20    7.60
  -5   5   4   26.80    7.40
  -5   5   4   19.00    4.80
  -5   4   4   12.30    4.90
  -5   4   4   16.10    3.00
  -5   3   4   68.09    8.30
  -5   2   4   37.90    5.60
   5  -2  -4   36.90    5.60
  -5   1   4   10.20    3.60
   5  -1  -4   10.30    3.40
  -5   0   4  392.26   22.60
   5   0  -4  381.46   21.10
  -5  -1   4   12.70    3.70
   5   1  -4   11.00    2.30
   5   1  -4   16.70    3.90
  -5  -2   4   37.60    4.90
   5   2  -4   42.90    4.90
   5   3  -4   83.59    6.70
   5   3  -4   78.69    8.00
   5   4  -4   18.00    5.50
   5   5  -4   13.60    4.60
   5   6  -4   16.20    5.90
  -5   6   3   -0.20    4.10
  -5   6   3    8.90    4.20
  -5   5   3   31.30    7.40
  -5   5   3   38.20    5.70
  -5   4   3   88.89    7.20
  -5   3   3  126.99   11.00
  -5   2   3  106.59    9.40
   5  -2  -3  115.79    9.40
  -5   1   3  379.66   21.70
   5  -1  -3  362.76   20.50
  -5   0   3  132.39   10.00
   5   0  -3  126.29    8.60
  -5  -1   3  339.17   20.30
   5   1  -3  355.46   19.30
   5   1  -3  358.06   18.60
  -5  -2   3  126.69    9.60
   5   2  -3  126.49    9.10
   5   3  -3  132.59    9.10
   5   3  -3  147.99   11.00
   5   4  -3  102.99    9.90
   5   4  -3   96.89    7.70
   5   5  -3   36.90    7.80
   5   5  -3   53.09    5.50
   5   6  -3    5.30    3.70
   5   6  -3    7.30    4.90
  -5   6   2   12.80    5.20
  -5   6   2   29.20    7.00
  -5   5   2   20.90    5.00
  -5   5   2   12.40    5.30
  -5   4   2  591.44   29.90
  -5   4   2  546.25   32.80
  -5   3   2  234.08   16.60
  -5   3   2  258.57   13.70
  -5   2   2 1066.99   53.09
   5  -2  -2 1025.70   52.09
  -5   1   2   69.59    6.70
   5  -1  -2   65.39    5.80
  -5  -1   2   62.59    6.40
   5   1  -2   64.49    5.40
  -5  -2   2 1121.09   55.79
   5   3  -2  278.17   15.50
   5   3  -2  261.27   16.90
   5   4  -2  661.23   36.20
   5   4  -2  631.44   33.40
   5   5  -2   18.50    3.80
   5   5  -2   13.10    5.20
   5   6  -2   28.00    5.50
   5   6  -2   21.30    6.40
  -5   6   1    0.30    3.70
  -5   6   1    2.20    4.30
  -5   5   1    9.80    3.70
  -5   5   1    7.50    4.30
  -5   4   1   40.20    6.20
  -5   4   1   31.60    5.00
  -5   3   1   59.69    5.40
  -5   3   1   72.19    7.20
  -5   2   1   74.09    4.90
  -5   2   1   82.99    7.50
  -5   1   1 1440.46   73.89
  -5   1   1 1542.05   72.19
   5  -1  -1 1595.44   72.39
  -5   0   1  432.76   23.30
   5   0  -1  411.66   19.90
   5   0  -1  422.16   21.10
  -5  -1   1 1427.76   72.59
   5   1  -1 1560.04   74.29
  -5  -2   1   75.49    7.50
   5   3  -1   65.99    5.80
   5   4  -1   41.40    6.30
   5   4  -1   34.50    4.90
   5   5  -1   20.20    5.50
   5   5  -1   22.10    4.90
   5   6  -1    6.20    4.00
   5   6  -1    3.20    3.90
  -5   6   0    1.00    3.40
  -5   6   0   16.10    5.20
  -5   5   0   17.60    4.40
  -5   5   0   10.70    4.20
  -5   4   0   51.59    6.10
  -5   4   0   60.49    7.30
  -5   3   0   58.59    6.90
  -5   3   0   67.69    8.20
  -5   2   0  192.18   12.70
  -5   2   0  182.58   10.40
  -5   1   0  316.17   19.30
  -5   1   0  344.77   16.50
  -5   1   0  340.17   17.30
   5  -1   0  370.46   17.90
   5  -1   0  321.47   16.90
  -5   0   0  187.98    9.70
  -5   0   0  180.58   12.40
   5   0   0  199.88   12.50
   5   0   0  213.18   10.40
   5   0   0  190.68    9.80
  -5  -1   0  343.97   19.30
   5   1   0  311.87   18.70
   5   1   0  311.37   15.90
  -5  -2   0  183.98   13.10
   5   3   0   57.49    5.40
   5   4   0   47.70    5.70
   5   5   0   18.60    5.40
   5   5   0   15.20    4.30
   5   6   0    8.50    4.50
   5   6   0    8.30    3.90
  -5   6  -1   13.60    5.20
  -5   6  -1   17.40    5.20
  -5   5  -1   51.29    7.20
  -5   5  -1   45.10    6.60
  -5   4  -1   89.09    8.80
  -5   4  -1   90.49    8.20
  -5   3  -1  854.01   43.50
  -5   3  -1  894.21   45.10
  -5   2  -1   33.00    4.20
   5  -2   1   29.20    3.40
  -5   1  -1   28.60    4.20
  -5   1  -1   35.80    3.00
  -5   1  -1   35.00    3.10
   5  -1   1   29.00    3.10
   5  -1   1   36.80    4.50
  -5   0  -1  166.38    9.20
  -5   0  -1  177.58   11.80
   5   0   1  196.38    9.30
   5   0   1  184.38   11.70
   5   0   1  177.98    9.50
  -5  -1  -1   33.70    4.60
   5   1   1   29.20    2.60
   5   2   1   31.20    3.70
   5   3   1  836.12   42.30
   5   4   1   88.89    8.10
   5   5   1   43.40    5.80
   5   6   1   10.00    4.60
   5   6   1   10.30    4.60
  -5   6  -2   19.60    5.80
  -5   6  -2   21.60    7.30
  -5   5  -2   67.89    8.20
  -5   5  -2   75.19    8.50
  -5   4  -2   43.00    5.90
  -5   4  -2   53.09    6.60
  -5   3  -2  575.64   31.10
  -5   3  -2  594.24   30.80
  -5   2  -2   92.19    7.10
  -5   2  -2   93.19    7.70
  -5   1  -2   23.50    4.30
  -5   1  -2   22.90    2.80
  -5   1  -2   19.80    2.20
   5  -1   2   19.50    3.30
   5  -1   2   15.40    2.80
  -5   0  -2   31.00    4.10
  -5   0  -2   28.40    2.40
   5   0   2   30.40    4.00
   5   0   2   22.10    2.40
  -5  -1  -2   20.40    4.40
  -5  -1  -2   18.70    2.10
   5   2   2   91.79    7.20
   5   3   2  591.34   31.60
   5   4   2   44.80    5.60
   5   5   2   78.79    8.20
   5   6   2   17.90    5.50
  -5   6  -3   13.30    5.00
  -5   6  -3   19.10    4.90
  -5   5  -3   86.49   10.40
  -5   5  -3   83.39    8.40
  -5   4  -3  205.28   13.30
  -5   4  -3  182.18   13.80
  -5   3  -3  248.48   15.30
  -5   3  -3  233.18   14.80
  -5   2  -3   65.39    5.80
  -5   2  -3   62.99    5.90
   5  -2   3   56.19    5.50
  -5   1  -3  348.97   20.00
  -5   1  -3  370.56   18.90
   5  -1   3  358.56   19.80
  -5   0  -3  206.98   10.70
  -5   0  -3  190.88   12.80
   5   0   3  190.18   12.50
  -5  -1  -3  359.06   20.40
   5   2   3   60.99    5.70
   5   3   3  266.07   16.90
   5   4   3  208.78   14.80
   5   5   3   85.99    9.10
   5   6   3   11.20    4.60
  -5   6  -4    5.70    4.10
  -5   5  -4   56.99    6.30
  -5   5  -4   44.20    7.20
  -5   4  -4   22.80    5.30
  -5   4  -4   21.60    4.70
  -5   3  -4  129.29   10.00
  -5   3  -4  115.09    8.60
  -5   2  -4   27.00    3.80
  -5   2  -4   33.10    4.20
   5  -2   4   30.60    3.80
  -5   1  -4  209.48   12.70
  -5   1  -4  202.78   11.90
   5  -1   4  185.38   12.10
  -5   0  -4  362.16   18.40
  -5   0  -4  356.06   20.40
   5   0   4  349.27   20.40
  -5  -1  -4  190.68   10.80
   5   1   4  198.18   10.10
   5   1   4  205.08   12.20
   5   2   4   30.00    4.20
   5   3   4  117.79    9.70
   5   4   4   18.40    5.00
   5   5   4   56.29    7.70
   5   6   4    1.10    3.50
  -5   6  -5   17.90    5.90
  -5   5  -5   20.90    5.60
  -5   4  -5   38.80    5.10
  -5   4  -5   34.80    6.50
  -5   3  -5   38.30    4.50
   5  -3   5   27.40    4.00
  -5   2  -5  167.48   11.00
  -5   2  -5  187.98   12.10
   5  -2   5  175.28   10.80
  -5   1  -5  554.94   28.20
  -5   1  -5  530.65   27.70
   5  -1   5  524.95   27.80
  -5   0  -5   43.10    4.20
   5   0   5   49.60    4.40
  -5  -1  -5  520.85   26.50
   5   1   5  515.65   25.70
   5   1   5  567.44   28.00
  -5  -2  -5  179.38   10.60
   5   2   5  174.38   12.30
   5   3   5   43.10    5.80
   5   4   5   37.80    6.00
   5   5   5   26.30    6.60
   5   6   5   32.40    7.50
  -5   6  -6    4.60    4.40
  -5   5  -6   10.60    4.90
  -5   4  -6   32.90    6.50
  -5   3  -6  174.68   13.30
  -5   2  -6   79.69    7.60
  -5   1  -6    9.50    2.60
  -5   1  -6    9.20    2.20
   5  -1   6    7.50    2.90
   5  -1   6    9.60    2.10
  -5   0  -6  672.73   32.40
  -5   0  -6  689.73   33.50
   5   0   6  647.14   33.80
  -5  -1  -6    9.10    2.60
  -5  -1  -6    8.70    2.20
   5   1   6   11.90    3.20
   5   1   6    6.60    2.10
  -5  -2  -6   90.29    6.30
   5   2   6   72.59    7.30
   5   3   6  182.08   13.90
   5   4   6   36.50    6.20
   5   5   6   14.80    3.20
   5   6   6   10.80    5.50
  -5   5  -7   12.10    5.10
  -5   4  -7    7.80    4.00
  -5   3  -7  143.59   11.90
  -5   2  -7  522.95   28.90
  -5   1  -7  150.48   12.00
  -5   1  -7  143.49   10.50
   5  -1   7  157.18    9.30
  -5   0  -7   38.00    4.00
  -5   0  -7   40.80    4.60
   5   0   7   37.20    4.20
  -5  -1  -7  130.59    9.60
  -5  -1  -7  156.18    9.30
   5   1   7  154.48   10.60
  -5  -2  -7  510.15   26.90
   5   2   7  543.75   29.70
   5   3   7  134.49   11.70
   5   4   7    9.20    4.10
   5   5   7   21.40    6.30
  -5   5  -8   14.40    5.70
  -5   4  -8   22.30    5.10
  -5   3  -8  142.49   12.10
  -5   2  -8  474.05   27.00
  -5   1  -8   94.09    8.40
  -5   1  -8   88.39    7.60
   5  -1   8   98.29    6.80
  -5   0  -8   84.59    6.90
   5   0   8   82.19    6.90
  -5  -1  -8   69.39    7.30
  -5  -1  -8  107.09    7.10
   5   1   8   89.29    7.90
  -5  -2  -8  536.85   26.80
   5   2   8  486.95   29.10
   5   3   8  145.19   12.60
   5   4   8   25.50    6.30
   5   5   8   18.30    6.30
  -5   5  -9    8.80    4.60
  -5   4  -9   22.80    6.10
  -5   3  -9    4.20    3.30
  -5   2  -9   48.90    6.50
  -5   2  -9   50.59    6.00
  -5   1  -9   43.60    6.40
  -5   1  -9   54.39    6.80
  -5   0  -9    0.70    2.90
  -5   0  -9    1.90    2.50
   5   0   9    5.50    2.20
  -5  -1  -9   44.00    4.90
  -5  -1  -9   34.90    5.50
   5   1   9   41.60    5.50
  -5  -2  -9   52.09    5.20
   5   2   9   54.29    7.10
   5   3   9    4.70    3.20
   5   4   9   34.70    7.80
   5   5   9    8.30    3.90
  -5   4 -10   27.80    6.90
  -5   3 -10   44.00    6.70
  -5   3 -10   35.80    5.50
  -5   2 -10    4.60    3.40
  -5   2 -10   -0.70    3.20
  -5   1 -10   57.49    6.80
  -5   1 -10   52.39    6.70
  -5   0 -10    7.50    3.50
   5   0  10    2.70    2.50
  -5  -1 -10   44.00    6.90
   5   1  10   58.09    6.80
  -5  -2 -10    4.30    2.20
   5   2  10    1.90    2.90
   5   3  10   29.90    6.50
   5   4  10   44.90    8.00
  -5   3 -11    9.50    4.40
  -5   3 -11   19.10    6.00
  -5   2 -11    0.80    4.30
  -5   1 -11   23.50    5.30
  -5   1 -11   14.20    4.50
  -5   0 -11   -2.00    3.00
  -5   0 -11    3.50    2.60
   5   0  11   -0.20    2.30
  -5  -1 -11   25.80    4.70
  -5  -1 -11   24.70    5.90
   5   1  11   21.30    5.50
  -5  -2 -11   -0.90    2.30
   5   2  11    5.30    3.30
   5   3  11   14.50    5.20
  -5   2 -12   -4.40    4.40
  -5   2 -12    3.20    3.60
  -5   1 -12    6.00    4.20
  -5   1 -12   -0.10    3.20
  -5   0 -12   27.40    5.60
  -5   0 -12   30.40    5.70
   5   0  12   22.50    4.70
  -5  -1 -12   11.60    5.80
  -5  -1 -12    4.90    3.00
   5   1  12   11.20    4.90
  -5  -2 -12   -0.20    2.30
   5   2  12   -4.70    2.40
  -5   0 -13   -0.90    3.20
  -5   0 -13   20.90    5.50
   5   0  13    0.80    3.80
  -6   1  10   16.90    6.20
  -6   0  10   11.50    4.70
   6   0 -10    0.10    5.00
  -6  -1  10    0.90    5.50
  -6   2   9   40.30    8.80
   6  -2  -9   19.90    6.50
  -6   1   9   18.20    5.70
   6  -1  -9    7.20    5.10
  -6   0   9   -8.00    4.40
   6   0  -9    4.50    5.10
  -6  -1   9    6.80    3.90
   6   1  -9   -1.00    5.10
   6   2  -9   30.30    8.20
   6   2  -9   31.30    5.80
  -6   3   8   15.40    6.30
   6  -3  -8   13.30    7.00
  -6   2   8   29.20    7.20
   6  -2  -8   20.70    6.60
   6  -1  -8   37.40    7.90
  -6   0   8   13.90    5.10
   6   0  -8   13.50    5.60
  -6  -1   8   61.49    7.70
   6   1  -8   47.60    8.50
   6   2  -8   39.90    6.20
   6   2  -8   24.60    7.50
   6   3  -8   23.10    6.90
   6   3  -8   34.20    7.00
  -6   4   7   10.50    4.90
  -6   3   7    4.40    4.50
   6  -3  -7    0.90    4.90
  -6   2   7   66.09    8.60
   6  -2  -7   45.80    7.50
   6  -1  -7   52.89    7.70
  -6   0   7   23.50    6.30
   6   0  -7   21.40    5.80
  -6  -1   7   83.49    9.20
   6   1  -7   89.59    7.00
   6   1  -7   80.29    9.40
  -6  -2   7   76.19    7.80
   6   2  -7   70.89    7.10
   6   2  -7   69.29    9.20
   6   3  -7    8.50    4.50
   6   3  -7   11.10    3.80
   6   4  -7   11.10    5.40
   6   4  -7   14.20    5.20
  -6   5   6   10.00    5.60
  -6   4   6    3.70    4.20
  -6   3   6    4.70    3.50
   6  -3  -6    4.70    4.50
  -6   2   6   12.80    6.10
   6  -2  -6   11.30    4.80
  -6   1   6   98.49    9.60
   6  -1  -6   81.09    9.90
  -6   0   6    8.20    4.10
   6   0  -6    8.20    3.80
  -6  -1   6  106.09   10.10
   6   1  -6  107.89   10.90
  -6  -2   6   16.60    4.20
   6   2  -6   11.80    4.50
   6   2  -6   13.10    3.40
   6   3  -6    6.30    3.10
   6   3  -6    3.60    4.00
   6   4  -6   -3.50    3.10
   6   5  -6   19.60    5.90
  -6   5   5    7.00    5.20
  -6   4   5   15.80    5.60
  -6   3   5   11.60    4.40
   6  -3  -5    3.90    4.30
  -6   2   5  113.39   10.60
   6  -2  -5   80.69    9.00
  -6   1   5   17.10    4.90
   6  -1  -5   25.50    5.30
  -6   0   5    6.60    3.60
   6   0  -5    6.60    3.40
  -6  -1   5   33.30    6.20
   6   1  -5   27.00    5.50
   6   1  -5   20.60    3.50
  -6  -2   5  110.99    9.90
   6   2  -5  128.79    9.30
   6   2  -5  105.79    9.80
   6   3  -5   16.70    4.10
   6   4  -5   22.00    5.20
   6   5  -5   11.70    5.30
  -6   5   4   50.19    6.50
  -6   5   4   51.79    8.60
  -6   4   4    3.80    3.30
  -6   3   4   52.89    7.70
  -6   2   4   35.80    6.00
   6  -2  -4   30.90    5.70
  -6   1   4   83.29    8.30
   6  -1  -4   72.29    7.40
  -6   0   4   69.89    7.80
   6   0  -4   66.29    6.60
  -6  -1   4   82.99    7.90
   6   1  -4   81.59    6.20
   6   1  -4   84.29    7.60
  -6  -2   4   30.60    5.10
   6   2  -4   34.90    5.20
   6   2  -4   30.00    4.50
   6   3  -4   58.79    6.90
   6   4  -4    1.80    3.10
   6   4  -4   18.70    3.30
   6   5  -4   65.89    6.20
   6   5  -4   50.89    8.10
  -6   6   3   15.80    6.60
  -6   6   3   14.40    5.90
  -6   5   3   29.00    6.80
  -6   5   3   37.10    5.80
  -6   4   3   75.39    9.10
  -6   3   3  263.67   18.70
  -6   2   3   79.99    8.50
   6  -2  -3   77.39    8.00
  -6   1   3   29.70    5.10
   6  -1  -3   26.40    4.30
  -6   0   3  487.25   27.40
   6   0  -3  482.35   25.40
  -6  -1   3   31.80    6.00
   6   1  -3   29.20    4.50
   6   1  -3   27.00    3.20
  -6  -2   3   74.09    7.60
   6   2  -3   89.09    7.20
   6   3  -3  290.07   16.80
   6   3  -3  304.27   18.80
   6   4  -3   93.89   10.00
   6   4  -3   91.39    7.70
   6   5  -3   53.69    5.70
   6   5  -3   57.89    8.80
   6   6  -3   10.30    5.40
   6   6  -3   24.10    5.30
  -6   6   2    7.80    4.80
  -6   6   2   -2.00    4.00
  -6   5   2   -0.80    3.50
  -6   5   2    5.20    4.00
  -6   4   2   84.09   11.80
  -6   4   2   66.99    6.50
  -6   3   2   74.09    8.80
  -6   2   2   31.20    6.10
   6  -2  -2   29.20    5.10
  -6   1   2   18.90    4.80
   6  -1  -2   18.20    3.60
  -6   0   2   76.39    7.60
   6   0  -2   76.59    6.10
  -6  -1   2   18.20    4.70
   6   1  -2   18.30    3.20
  -6  -2   2   29.20    5.60
   6   3  -2   80.39    7.90
   6   3  -2   83.59    6.80
   6   4  -2   85.89    9.10
   6   4  -2   83.89    7.50
   6   5  -2   -2.80    3.40
   6   5  -2    7.00    3.20
   6   6  -2    1.10    3.20
  -6   6   1    9.40    4.90
  -6   6   1   11.20    6.10
  -6   5   1   26.70    6.50
  -6   5   1   37.00    6.20
  -6   4   1    7.20    3.80
  -6   4   1    0.40    2.60
  -6   3   1   75.79    5.80
  -6   3   1   72.69    8.40
  -6   2   1    4.90    2.70
  -6   1   1  287.37   19.50
   6  -1  -1  381.06   21.20
  -6   0   1  258.47   16.90
   6   0  -1  290.37   14.60
   6   0  -1  253.87   13.10
  -6  -1   1  292.67   18.60
   6   1  -1  285.57   15.00
   6   1  -1  322.77   16.80
  -6  -2   1   10.80    3.50
   6   3  -1   94.69    7.60
   6   4  -1    7.70    2.60
   6   5  -1   32.50    5.20
   6   5  -1   32.00    6.70
   6   6  -1    3.90    3.90
   6   6  -1   23.40    5.30
  -6   6   0   25.10    6.90
  -6   6   0   28.50    6.80
  -6   5   0   26.40    6.10
  -6   5   0   30.30    5.50
  -6   4   0  228.08   16.70
  -6   4   0  228.48   14.50
  -6   3   0   97.29    9.00
  -6   3   0   86.29    8.80
  -6   2   0 1704.13   80.39
  -6   2   0 1737.43   83.89
  -6   1   0  129.49   10.10
  -6   1   0  126.49    7.90
  -6   1   0  121.29    6.90
   6  -1   0  142.49    8.60
   6  -1   0  129.09    7.50
  -6   0   0  421.06   24.30
   6   0   0  477.65   21.70
   6   0   0  394.56   20.80
  -6  -1   0  136.29   10.60
   6   1   0  133.79    7.60
  -6  -2   0 1763.42   86.49
   6   3   0   91.89    7.60
   6   4   0  241.98   15.70
   6   5   0   31.40    5.30
   6   6   0   37.70    6.50
   6   6   0   29.10    7.40
  -6   6  -1    3.50    5.30
  -6   6  -1    8.40    4.40
  -6   5  -1   32.10    6.70
  -6   5  -1   19.40    5.10
  -6   4  -1  191.68   13.40
  -6   4  -1  209.38   15.30
  -6   3  -1  253.47   16.40
  -6   3  -1  233.48   14.30
  -6   2  -1  582.54   30.40
  -6   2  -1  546.45   27.50
   6  -2   1  527.65   27.90
  -6   1  -1  258.47   15.80
  -6   1  -1  321.27   18.60
  -6   1  -1  330.37   15.60
   6  -1   1  322.47   16.20
  -6   0  -1  616.24   32.90
  -6   0  -1  576.14   28.90
   6   0   1  557.84   29.20
   6   0   1  687.73   29.30
  -6  -1  -1  329.27   20.20
   6   3   1  254.57   15.70
   6   4   1  220.98   15.10
   6   5   1   36.70    5.50
   6   6   1    9.50    4.30
   6   6   1    0.50    3.60
  -6   6  -2   37.10    7.50
  -6   6  -2   18.20    5.50
  -6   5  -2   45.90    7.00
  -6   5  -2   45.40    7.20
  -6   4  -2  137.59   11.50
  -6   4  -2  144.59   11.10
  -6   3  -2   12.30    3.20
  -6   3  -2   10.40    3.90
  -6   2  -2  317.77   17.50
  -6   2  -2  323.87   17.80
  -6   2  -2  313.17   19.00
  -6   1  -2  768.32   40.20
  -6   1  -2  847.22   37.30
  -6   1  -2  727.53   36.50
   6  -1   2  737.23   37.70
  -6   0  -2 1134.49   57.99
  -6   0  -2 1109.79   51.99
   6   0   2 1081.79   52.39
  -6  -1  -2  799.02   41.40
  -6  -1  -2  766.82   39.00
   6   2   2  332.97   18.90
   6   3   2   12.80    3.50
   6   4   2  138.19   11.20
   6   5   2   47.90    7.00
   6   6   2   23.50    6.00
  -6   6  -3   10.60    5.00
  -6   5  -3   12.90    4.90
  -6   5  -3   11.20    4.40
  -6   4  -3  243.78   16.40
  -6   4  -3  252.27   16.60
  -6   3  -3  211.18   13.80
  -6   3  -3  213.18   14.30
  -6   2  -3   62.89    6.60
  -6   2  -3   63.69    5.60
  -6   1  -3  111.59    9.70
  -6   1  -3  133.99    8.40
  -6   0  -3  514.15   29.20
  -6  -1  -3  109.99    9.60
  -6  -1  -3  104.79    6.60
   6   2   3   70.79    6.60
   6   3   3  223.08   15.00
   6   4   3  243.28   16.50
   6   5   3   17.30    5.00
   6   6   3   14.20    5.50
  -6   6  -4    7.90    4.80
  -6   6  -4    3.20    5.50
  -6   5  -4   27.60    6.20
  -6   5  -4   33.20    6.70
  -6   4  -4   73.59    8.00
  -6   4  -4   70.49    7.60
  -6   3  -4  262.77   16.20
  -6   3  -4  256.47   16.40
  -6   2  -4  363.96   21.20
  -6   2  -4  314.67   18.90
  -6   1  -4   94.89    7.00
  -6   1  -4   99.09    8.30
  -6   0  -4 1700.33   82.19
  -6   0  -4 1671.03   79.09
  -6  -1  -4   90.39    6.20
   6   1   4   95.69    7.30
   6   2   4  305.97   16.80
   6   2   4  335.97   18.90
   6   3   4  309.77   19.40
   6   4   4   76.99    8.40
   6   5   4   29.20    6.50
   6   6   4   -1.10    3.00
  -6   6  -5   22.60    4.80
  -6   6  -5    5.20    4.70
  -6   5  -5    4.90    3.50
  -6   5  -5    9.20    3.50
  -6   4  -5   77.49    8.50
  -6   4  -5   56.89    6.70
  -6   3  -5   28.30    7.90
  -6   3  -5   32.90    5.40
  -6   2  -5  449.16   24.60
  -6   2  -5  450.35   24.60
  -6   1  -5   97.09    7.50
  -6   1  -5   99.39    8.30
  -6   0  -5   26.20    3.30
  -6  -1  -5   98.89    6.70
   6   1   5  106.29    8.10
  -6  -2  -5  427.46   22.50
   6   2   5  439.26   24.60
   6   3   5   31.20    5.20
   6   4   5   73.39    9.70
   6   5   5    0.90    3.00
   6   6   5    4.70    3.90
  -6   6  -6   11.30    5.70
  -6   5  -6   56.39    8.40
  -6   4  -6   52.59    7.80
  -6   3  -6  680.53   36.80
  -6   2  -6  131.99    9.50
  -6   2  -6  128.09   10.00
   6  -2   6  123.19    9.40
  -6   1  -6  440.46   22.00
  -6   1  -6  447.36   23.90
  -6   0  -6   65.59    5.50
   6   0   6   60.79    5.50
  -6  -1  -6  452.35   22.90
   6   1   6  433.46   24.20
  -6  -2  -6  138.69    9.10
   6   2   6  142.99   11.10
   6   3   6  696.23   38.10
   6   4   6   49.00    7.20
   6   5   6   66.19    8.80
   6   6   6    4.90    3.20
  -6   5  -7   -4.90    2.90
  -6   4  -7   25.60    6.40
  -6   3  -7   41.80    8.20
  -6   2  -7  139.29   10.90
  -6   1  -7  328.57   19.10
  -6   1  -7  313.87   17.30
   6  -1   7  351.16   19.70
  -6   0  -7  122.29    8.40
  -6   0  -7  106.79    7.30
   6   0   7  113.19    8.20
  -6  -1  -7  317.27   17.90
   6   1   7  346.87   19.70
  -6  -2  -7  141.69    9.40
   6   2   7  140.39   11.10
   6   3   7   64.69    7.80
   6   4   7   25.00    6.20
   6   5   7    1.90    3.70
  -6   5  -8   14.00    5.90
  -6   4  -8   16.10    4.90
  -6   3  -8   59.59    7.60
  -6   2  -8   97.69    9.30
  -6   1  -8  286.57   17.00
  -6   1  -8  257.87   15.40
   6  -1   8  281.97   15.70
  -6   0  -8   19.50    3.80
  -6   0  -8   19.30    4.10
   6   0   8   26.30    3.90
  -6  -1  -8  283.47   15.70
   6   1   8  263.67   16.80
  -6  -2  -8  102.09    7.50
   6   2   8   83.29    8.80
   6   3   8   55.89    7.40
   6   4   8   14.70    4.70
   6   5   8    7.20    4.90
  -6   5  -9   12.80    5.90
  -6   4  -9    2.50    3.30
  -6   3  -9    7.00    3.90
  -6   2  -9  131.29   10.10
  -6   2  -9  162.78   11.90
  -6   1  -9   12.20    4.00
  -6   1  -9   11.50    3.70
   6  -1   9   17.40    3.50
  -6   0  -9   24.90    4.30
  -6   0  -9   25.40    4.80
   6   0   9   29.80    4.20
  -6  -1  -9   10.40    3.00
  -6  -1  -9    9.70    3.60
   6   1   9   12.30    4.00
   6   2   9  138.59   11.60
   6   3   9    9.20    3.70
   6   4   9    8.10    4.40
   6   5   9   17.30    6.60
  -6   4 -10    2.10    3.60
  -6   3 -10    8.00    4.30
  -6   3 -10   10.70    3.60
  -6   2 -10   22.60    5.20
  -6   2 -10   23.20    4.70
  -6   1 -10    4.70    3.70
  -6   1 -10   -0.10    2.10
  -6   0 -10  108.89    8.90
  -6   0 -10   97.09    8.40
   6   0  10  106.79    8.70
  -6  -1 -10   -2.20    3.30
  -6  -1 -10    0.60    2.00
   6   1  10    0.10    1.90
  -6  -2 -10   25.70    4.10
   6   2  10   38.70    6.00
   6   3  10    5.20    3.50
   6   4  10    3.00    3.30
  -6   3 -11   -0.40    3.50
  -6   3 -11    8.60    4.20
  -6   2 -11   -0.40    3.90
  -6   2 -11    4.10    3.70
  -6   1 -11    6.00    3.80
  -6   1 -11    1.50    3.50
  -6   0 -11    1.80    2.50
  -6   0 -11    6.00    3.10
   6   0  11    2.50    2.60
  -6  -1 -11    2.20    2.40
  -6  -1 -11    7.90    4.00
   6   1  11    1.80    2.80
  -6  -2 -11    0.80    1.90
   6   2  11    0.80    2.70
   6   3  11    0.50    3.20
  -6   2 -12   -0.30    4.70
  -6   2 -12   14.30    4.70
  -6   1 -12    7.80    4.50
  -6   1 -12    4.20    3.30
  -6   0 -12    0.00    2.60
  -6   0 -12    0.30    3.30
   6   0  12    2.80    2.80
  -6  -1 -12    2.20    4.20
  -6  -1 -12    2.00    2.80
   6   1  12    5.00    3.50
   6   2  12    5.60    4.30
  -6   0 -13   25.40    5.80
  -6   0 -13   13.90    4.20
   6   0  13   11.40    4.30
  -7   2   9   -2.60    4.90
   7  -2  -9   -0.10    5.20
  -7   1   9   20.60    6.50
   7  -1  -9   19.50    6.30
  -7   0   9   30.20    7.30
   7   0  -9   19.90    7.10
  -7  -1   9   38.50    8.10
   7   1  -9   26.00    7.40
   7   2  -9   13.30    4.60
  -7   3   8    5.10    5.40
   7  -3  -8   -0.20    4.80
   7  -2  -8   29.10    7.60
  -7   1   8    5.10    4.90
   7  -1  -8   -2.00    3.80
  -7   0   8   11.10    4.60
   7   0  -8    8.50    5.10
  -7  -1   8    0.80    4.00
   7   1  -8    2.20    4.90
  -7  -2   8   58.39    8.40
   7   2  -8   58.09    9.90
   7   3  -8    0.10    4.90
   7   3  -8   17.00    4.40
  -7   4   7    1.80    5.20
  -7   3   7    8.40    5.30
   7  -3  -7   11.00    6.60
  -7   2   7   -0.20    3.70
   7  -2  -7    0.20    3.90
  -7   1   7   16.70    5.00
   7  -1  -7   13.20    5.30
  -7   0   7   21.40    5.90
   7   0  -7   17.20    5.40
  -7  -1   7   20.00    5.70
   7   1  -7   18.40    5.80
  -7  -2   7   -5.50    3.50
   7   2  -7    3.50    3.20
   7   2  -7    3.80    5.00
   7   3  -7   11.10    5.90
   7   3  -7    5.70    4.90
   7   4  -7   12.00    4.60
   7   4  -7    6.10    4.30
  -7   4   6    4.30    4.80
  -7   3   6   11.90    5.40
   7  -3  -6    9.80    6.10
  -7   2   6    8.00    4.00
   7  -2  -6    2.10    3.50
  -7   1   6   38.60    7.90
   7  -1  -6   40.90    6.50
  -7   0   6   -2.00    3.10
   7   0  -6    1.00    3.30
  -7  -1   6   36.60    7.40
   7   1  -6   49.90    7.10
   7   1  -6   42.10    6.40
  -7  -2   6    6.10    4.00
   7   2  -6    6.60    4.20
   7   2  -6    6.10    3.00
  -7  -3   6   21.70    5.20
   7   3  -6   19.50    5.60
   7   3  -6   27.50    4.90
   7   4  -6    4.80    4.10
  -7   5   5   15.50    5.90
  -7   4   5   38.10    8.50
  -7   3   5   15.20    5.40
   7  -3  -5   14.80    5.40
  -7   2   5   77.09   10.50
   7  -2  -5   74.49    8.70
  -7   1   5   13.30    4.70
   7  -1  -5   13.00    4.10
  -7   0   5   -3.40    2.90
   7   0  -5   -4.10    2.70
  -7  -1   5   21.40    5.30
   7   1  -5   21.70    3.60
   7   1  -5   18.70    5.00
  -7  -2   5   98.59    9.80
   7   2  -5  101.09   12.10
   7   2  -5   99.29    8.30
  -7  -3   5   34.50    6.70
   7   3  -5   25.20    5.80
   7   3  -5   32.30    5.50
   7   4  -5   68.39    8.20
   7   5  -5   32.00    7.10
  -7   5   4   17.00    6.60
  -7   4   4   15.90    5.50
  -7   3   4    1.90    3.50
  -7   2   4   68.19    8.30
   7  -2  -4   68.39    8.10
  -7   1   4  115.89   10.70
   7  -1  -4  105.29    9.20
  -7   0   4  296.77   19.30
   7   0  -4  271.87   17.10
  -7  -1   4  120.19   10.90
   7   1  -4  119.89    8.20
   7   1  -4  130.49   10.00
  -7  -2   4   86.69    9.00
   7   2  -4   83.49    7.70
   7   2  -4  100.39    9.00
  -7  -3   4   -1.30    2.60
   7   3  -4   -0.80    2.10
   7   4  -4   17.70    4.60
   7   4  -4   32.30    4.40
   7   5  -4   25.60    6.80
   7   5  -4   37.50    5.50
  -7   5   3    2.20    3.80
  -7   4   3   33.70    7.50
  -7   3   3   13.00    5.20
  -7   2   3   19.40    5.00
   7  -2  -3   19.30    5.30
  -7   1   3   45.00    6.40
   7  -1  -3   43.00    5.30
  -7   0   3  232.48   16.30
   7   0  -3  238.08   14.40
  -7  -1   3   52.29    6.80
   7   1  -3   50.29    4.70
   7   1  -3   48.50    5.80
  -7  -2   3   23.70    5.30
   7   2  -3   19.90    4.10
   7   2  -3   19.70    4.70
   7   3  -3    7.50    3.70
   7   4  -3   38.90    5.20
   7   4  -3   43.00    6.90
   7   5  -3    8.90    3.30
   7   5  -3   -2.00    3.80
  -7   6   2   17.40    6.60
  -7   6   2   24.50    7.10
  -7   5   2   25.80    5.10
  -7   5   2   19.90    6.60
  -7   4   2    5.90    4.10
  -7   4   2    3.90    4.70
  -7   3   2   41.60    6.80
  -7   2   2  152.68   12.60
   7  -2  -2  155.08   11.90
  -7   1   2  321.77   20.30
   7  -1  -2  305.17   18.00
  -7   0   2  836.52   45.30
   7   0  -2  877.71   42.40
  -7  -1   2  335.37   21.30
   7   1  -2  354.66   18.70
   7   1  -2  315.57   16.60
  -7  -2   2  163.08   12.80
   7   3  -2   51.49    6.40
   7   4  -2   14.60    3.80
   7   5  -2   32.10    5.60
   7   5  -2   20.90    5.90
   7   6  -2   48.80    7.00
   7   6  -2   31.20    8.40
  -7   6   1    4.10    5.50
  -7   5   1   84.59   10.60
  -7   5   1   90.79    8.50
  -7   4   1   -3.90    5.40
  -7   4   1    3.70    2.70
  -7   3   1  488.35   29.20
  -7   3   1  485.95   24.50
  -7   2   1   24.40    5.70
  -7   1   1  293.97   19.80
   7  -1  -1  340.47   18.10
  -7   0   1   67.19    7.60
   7   0  -1   66.89    4.30
   7   0  -1   73.39    5.80
  -7  -1   1  333.67   20.70
   7   1  -1  316.17   17.40
  -7  -2   1   20.10    4.80
   7   3  -1  513.25   27.70
   7   4  -1    4.50    2.50
   7   5  -1   89.99   11.00
   7   5  -1   97.39    9.00
   7   6  -1   11.40    3.80
   7   6  -1    1.30    3.70
  -7   6   0   27.80    6.80
  -7   6   0   23.20    7.70
  -7   5   0   78.69   10.00
  -7   5   0   70.59    7.80
  -7   4   0   38.80    5.20
  -7   4   0   49.10    7.50
  -7   3   0  218.98   16.30
  -7   3   0  246.58   16.00
  -7   2   0  610.44   29.30
  -7   2   0  585.14   33.50
   7  -2   0  610.24   29.90
  -7   1   0  171.88   12.40
  -7   1   0  155.88    8.30
   7  -1   0  156.18    9.10
   7  -1   0  158.18   10.20
  -7   0   0  325.37   20.20
   7   0   0  317.77   16.40
   7   0   0  343.67   17.30
  -7  -1   0  168.08   12.90
   7   1   0  165.48    9.70
  -7  -2   0  574.54   32.60
   7   3   0  243.08   15.40
   7   4   0   51.49    5.90
   7   5   0   65.09    7.40
   7   6   0   31.20    7.50
   7   6   0   36.70    7.20
  -7   6  -1   17.40    5.90
  -7   6  -1   12.70    5.70
  -7   5  -1   56.89    7.40
  -7   5  -1   36.70    7.20
  -7   4  -1   17.90    4.40
  -7   4  -1   17.10    4.70
  -7   3  -1  249.68   17.10
  -7   3  -1  244.08   14.50
  -7   2  -1  226.38   15.80
  -7   2  -1  233.38   12.90
  -7   1  -1  984.30   45.80
  -7   1  -1 1002.90   45.50
  -7   1  -1  955.80   49.60
   7  -1   1  905.81   46.20
  -7   0  -1  648.94   35.60
  -7   0  -1  647.24   31.30
   7   0   1  709.13   31.70
   7   0   1  615.04   31.50
  -7  -1  -1 1007.60   51.89
   7   1   1  982.50   47.00
  -7  -2  -1  227.18   16.50
   7   3   1  268.97   16.80
   7   4   1   21.10    5.00
   7   5   1   54.29    7.00
   7   6   1   18.90    6.40
   7   6   1   10.90    5.30
  -7   6  -2   10.20    5.30
  -7   6  -2   17.40    6.20
  -7   5  -2   15.20    4.70
  -7   5  -2   15.80    4.90
  -7   4  -2  326.97   19.50
  -7   4  -2  310.87   20.90
  -7   3  -2   51.19    6.90
  -7   3  -2   45.30    5.30
  -7   2  -2  223.98   15.50
  -7   2  -2  239.98   13.50
  -7   1  -2    4.10    1.50
  -7   1  -2    4.90    1.70
  -7   1  -2    7.20    2.70
  -7   0  -2  148.69    8.50
  -7   0  -2  165.08   12.20
  -7  -1  -2    6.10    2.80
   7   3   2   51.19    6.10
   7   4   2  323.37   20.50
   7   5   2   20.90    5.30
   7   6   2   20.10    5.60
  -7   6  -3    2.70    4.00
  -7   6  -3   -5.80    3.30
  -7   5  -3   28.50    6.70
  -7   5  -3   26.20    5.70
  -7   4  -3   37.50    5.90
  -7   4  -3   39.00    7.10
  -7   3  -3  363.66   21.00
  -7   3  -3  374.46   22.30
  -7   2  -3    1.20    2.30
  -7   2  -3    1.30    2.00
  -7   2  -3    6.70    2.70
  -7   1  -3   19.80    5.00
  -7   1  -3   16.40    2.90
  -7   0  -3  339.87   17.70
  -7   0  -3  355.16   21.50
  -7  -1  -3   17.60    4.70
  -7  -1  -3   13.00    2.10
   7   2   3    2.40    1.90
   7   3   3  353.36   21.20
   7   4   3   40.30    6.20
   7   5   3   31.70    6.60
   7   6   3    3.20    3.10
  -7   6  -4   22.00    7.50
  -7   6  -4   19.40    6.20
  -7   5  -4   11.30    4.70
  -7   5  -4   19.20    4.70
  -7   4  -4   60.69    7.70
  -7   4  -4   63.79    7.70
  -7   3  -4  155.18   11.90
  -7   3  -4  159.18   11.50
  -7   2  -4  293.77   18.10
  -7   2  -4  295.27   17.10
  -7   1  -4   18.60    4.70
  -7   1  -4   13.60    2.90
  -7   0  -4  440.96   25.70
  -7   0  -4  433.46   22.30
  -7  -1  -4   15.20    2.80
   7   2   4  339.17   20.10
   7   3   4  176.38   13.20
   7   4   4   62.09    9.10
   7   5   4   10.40    4.10
   7   6   4   14.50    5.50
  -7   6  -5   16.00    5.20
  -7   6  -5   10.30    5.00
  -7   5  -5   45.60    6.50
  -7   4  -5   48.40    6.80
  -7   4  -5   83.79   11.90
  -7   3  -5   72.49    7.70
  -7   3  -5   79.69    7.60
  -7   2  -5  227.78   14.70
  -7   2  -5  243.88   15.50
  -7   1  -5  452.25   25.70
  -7   1  -5  441.46   23.60
  -7   0  -5  524.65   29.40
  -7   0  -5  502.95   26.10
  -7  -1  -5  411.26   21.80
   7   1   5  434.86   23.50
   7   2   5  190.28   11.20
   7   2   5  234.28   14.40
   7   3   5   86.89    8.80
   7   4   5   56.49    7.50
   7   5   5   36.40    6.50
   7   6   5    2.40    4.20
  -7   5  -6   14.80    4.80
  -7   4  -6   45.90    5.20
  -7   3  -6  103.29    9.70
  -7   3  -6  110.49    9.00
  -7   2  -6  153.08   11.30
  -7   2  -6  158.08   11.50
  -7   1  -6   17.30    4.30
  -7   0  -6   84.59    6.70
   7   0   6   87.49    6.90
  -7  -1  -6   15.80    3.00
   7   1   6   16.80    3.80
  -7  -2  -6  151.88    9.60
   7   2   6  133.69    8.60
   7   2   6  151.08   11.60
   7   3   6   93.59    9.40
   7   4   6   31.80    7.00
   7   5   6   19.80    5.90
   7   6   6    9.10    4.80
  -7   5  -7   11.30    4.70
  -7   4  -7   51.49    8.00
  -7   3  -7    7.50    3.80
  -7   2  -7   18.50    4.20
  -7   2  -7   19.60    4.80
  -7   1  -7   64.79    5.40
  -7   1  -7   75.89    7.00
  -7   0  -7  250.07   14.50
   7   0   7  232.38   14.60
  -7  -1  -7   85.89    6.70
   7   1   7   84.09    7.60
  -7  -2  -7   18.90    3.60
   7   2   7   21.90    5.00
   7   3   7    6.90    3.70
   7   4   7   49.40    7.60
   7   5   7   12.20    4.90
  -7   5  -8    5.80    4.40
  -7   4  -8   20.50    5.60
  -7   3  -8  175.58   13.90
  -7   1  -8  167.38   11.60
  -7   1  -8  143.59    9.80
   7  -1   8  163.38   10.40
  -7   0  -8   28.20    4.40
  -7   0  -8   21.00    3.30
   7   0   8   32.30    4.10
  -7  -1  -8  191.08   11.70
   7   1   8  170.68   12.80
  -7  -2  -8  107.79    8.20
   7   2   8  120.89   10.20
   7   3   8  183.08   14.50
   7   4   8   21.80    5.90
   7   5   8   24.40    6.70
  -7   4  -9   15.50    5.80
  -7   3  -9   12.00    4.00
  -7   2  -9    2.00    2.60
  -7   2  -9    1.90    3.30
  -7   1  -9   59.09    6.80
  -7   1  -9   60.89    6.00
   7  -1   9   68.59    5.90
  -7   0  -9   14.70    4.20
  -7   0  -9    8.50    2.90
   7   0   9   12.30    3.60
   7   1   9   61.79    6.90
  -7  -2  -9    5.70    2.30
   7   2   9    6.40    4.10
   7   3   9    9.00    3.50
   7   4   9   23.40    6.40
  -7   4 -10    2.20    4.40
  -7   3 -10   16.00    5.40
  -7   2 -10    4.10    3.30
  -7   2 -10    3.90    3.50
  -7   1 -10   15.00    4.20
  -7   1 -10   23.00    5.30
   7  -1  10   21.60    3.50
  -7   0 -10   10.10    3.20
  -7   0 -10   11.70    3.30
   7   0  10   16.50    4.10
  -7  -1 -10   24.50    4.70
   7   1  10   23.90    5.20
  -7  -2 -10   10.50    3.10
   7   2  10    7.40    3.50
   7   3  10   24.90    6.00
   7   4  10   -4.10    2.70
  -7   3 -11   30.70    6.90
  -7   3 -11   26.60    5.50
  -7   2 -11   13.80    5.00
  -7   2 -11   20.10    5.10
  -7   1 -11   -1.30    2.30
  -7   1 -11    6.60    3.40
   7  -1  11    2.70    2.20
  -7   0 -11   11.30    3.50
  -7   0 -11    7.60    3.10
   7   0  11    8.60    3.20
  -7  -1 -11    3.30    2.40
  -7  -1 -11    8.60    3.60
   7   1  11    0.40    2.20
  -7  -2 -11   26.00    4.30
   7   2  11   16.60    5.00
   7   3  11   17.80    5.20
  -7   2 -12   20.80    6.30
  -7   1 -12   -3.60    2.90
  -7   1 -12    1.20    3.50
  -7   0 -12    0.60    2.80
  -7   0 -12   11.00    4.40
   7   0  12   -1.40    2.40
  -7  -1 -12    8.80    5.20
  -7  -1 -12    3.00    2.70
   7   1  12   -0.60    3.00
  -7  -2 -12   44.50    6.10
   7   2  12   42.80    6.90
  -8   2   8    5.90    5.30
   8  -2  -8    1.10    5.10
  -8   1   8    4.80    5.40
   8  -1  -8    8.30    4.70
  -8   0   8   12.30    5.20
   8   0  -8    2.50    4.70
  -8  -1   8    8.50    5.10
   8   1  -8   18.90    6.60
  -8  -2   8   14.90    5.40
   8   2  -8   10.40    4.40
   8   2  -8   -0.80    5.20
  -8   3   7   27.10    7.50
   8  -3  -7   21.40    7.90
  -8   2   7   15.40    6.00
   8  -2  -7   22.60    6.60
  -8   1   7   -0.50    4.30
   8  -1  -7    2.30    3.40
  -8   0   7    9.20   10.10
  -8  -1   7    5.10    4.60
   8   1  -7    6.70    4.40
  -8  -2   7   21.20    5.40
   8   2  -7   32.90    7.70
   8   2  -7   42.70    5.50
   8   3  -7   57.49    8.50
   8   3  -7   34.50    8.30
  -8   4   6   -1.40    4.50
  -8   3   6   13.70    5.70
   8  -3  -6   12.00    6.60
  -8   2   6    0.30    3.60
   8  -2  -6   -1.60    3.20
  -8   1   6    9.00    4.90
   8  -1  -6   12.90    4.80
  -8   0   6  131.39   11.90
   8   0  -6  100.39   10.10
  -8  -1   6   26.40    6.40
   8   1  -6   16.50    5.10
  -8  -2   6    5.70    4.30
   8   2  -6    2.00    4.20
   8   2  -6    2.60    2.60
  -8  -3   6   19.30    5.60
   8   3  -6    7.60    4.20
   8   3  -6   11.60    5.40
   8   4  -6    0.70    3.90
   8   4  -6    8.00    4.20
  -8   4   5   16.20    6.50
  -8   3   5   -2.00    3.10
   8  -3  -5   -0.50    4.20
  -8   2   5    5.40    3.90
   8  -2  -5    3.70    3.70
  -8   1   5   20.40    6.30
   8  -1  -5   13.60    4.70
  -8   0   5   61.69    8.60
   8   0  -5   62.59    8.20
  -8  -1   5   11.30    4.70
   8   1  -5   15.50    5.60
   8   1  -5   18.60    3.50
  -8  -2   5   11.90    4.30
   8   2  -5    9.20    4.20
   8   2  -5    7.70    3.10
  -8  -3   5    0.20    3.10
   8   3  -5    3.10    4.20
   8   3  -5    9.20    3.20
   8   4  -5   39.60    4.90
   8   4  -5   25.80    6.40
  -8   5   4    5.00    5.30
  -8   4   4   14.20    6.40
  -8   3   4   -1.60    3.50
   8  -2  -4   18.30    5.30
  -8   1   4  128.59   12.10
   8  -1  -4  111.19   10.00
  -8   0   4   23.60    6.00
   8   0  -4   25.20    5.40
  -8  -1   4  136.09   12.20
   8   1  -4  135.29    9.10
   8   1  -4  141.89   11.10
  -8  -2   4   22.80    5.50
   8   2  -4   26.20    5.70
   8   2  -4   18.20    4.00
  -8  -3   4   -2.10    2.90
   8   3  -4    1.90    2.60
   8   4  -4   18.60    4.40
   8   4  -4   21.50    4.40
   8   5  -4    7.70    5.00
   8   5  -4   16.30    4.60
  -8   5   3   -5.40    4.20
  -8   4   3   24.20    7.50
  -8   3   3   50.39    8.00
  -8   2   3  303.77   20.40
   8  -2  -3  252.27   18.20
  -8   1   3   25.70    6.30
   8  -1  -3   25.20    5.10
  -8   0   3   18.30    5.10
   8   0  -3   16.00    4.10
  -8  -1   3   26.40    6.20
   8   1  -3   22.30    3.60
   8   1  -3   33.20    5.20
  -8  -2   3  300.47   21.50
   8   2  -3  338.17   19.50
   8   2  -3  349.67   20.10
  -8  -3   3   54.49    7.80
   8   3  -3   54.99    6.80
   8   4  -3   30.20    5.90
   8   4  -3   30.40    4.80
   8   5  -3   -1.30    3.40
   8   5  -3    1.10    4.10
  -8   5   2   37.40    5.80
  -8   5   2   29.80    7.90
  -8   4   2   46.80    8.00
  -8   3   2  133.99   17.30
  -8   2   2  136.69   12.50
   8  -2  -2  129.99   11.20
  -8   1   2  277.07   18.70
   8  -1  -2  253.37   16.10
  -8   0   2   32.80    6.80
   8   0  -2   23.80    4.40
  -8  -1   2  270.97   19.20
   8   1  -2  279.27   16.20
  -8  -2   2  148.79   12.90
   8   2  -2  155.18   11.10
   8   3  -2  143.09   11.50
   8   4  -2   42.30    7.10
   8   4  -2   45.80    5.90
   8   5  -2   76.09    7.30
  -8   6   1   40.00    9.30
  -8   5   1   -2.80    3.90
  -8   5   1   -5.80    3.70
  -8   4   1   25.50    6.40
  -8   4   1   27.00    4.20
  -8   3   1   25.80    6.50
  -8   3   1   28.00    3.60
  -8   2   1  310.97   21.20
  -8   1   1  107.99   10.20
   8  -1  -1  104.79    8.30
  -8   0   1 1174.08   58.09
   8   0  -1  979.30   52.69
   8   0  -1 1199.88   54.19
  -8  -1   1   95.69    9.90
   8   1  -1  111.09    7.80
  -8  -2   1  343.37   22.50
   8   4  -1   27.50    4.80
   8   5  -1    3.70    4.30
   8   5  -1   -2.50    3.40
   8   6  -1   78.89   11.80
   8   6  -1   97.89    9.10
  -8   6   0   13.80    6.30
  -8   6   0    8.20    6.00
  -8   5   0   35.80    8.10
  -8   5   0   35.70    5.90
  -8   4   0   25.50    6.90
  -8   4   0   21.90    4.30
  -8   3   0  287.17   20.10
  -8   2   0  233.28   17.10
  -8   2   0  232.88   12.60
   8  -2   0  245.48   13.20
  -8   1   0  392.46   20.20
  -8   1   0  431.36   25.60
   8  -1   0  429.36   21.60
   8  -1   0  428.26   22.60
  -8   0   0  118.79   10.50
   8   0   0  101.89    6.40
  -8  -1   0  425.06   26.30
  -8  -2   0  241.98   17.40
   8   3   0  300.07   18.40
   8   4   0   31.90    5.10
   8   5   0   41.20    6.70
   8   6   0   14.60    5.00
   8   6   0    3.40    5.00
  -8   6  -1   -6.40    5.10
  -8   6  -1    9.00    6.00
  -8   5  -1   87.59   10.70
  -8   5  -1   88.49    9.20
  -8   4  -1    5.40    3.20
  -8   4  -1   -0.60    3.70
  -8   3  -1   34.90    4.70
  -8   3  -1   39.40    7.60
  -8   2  -1  249.18   17.60
  -8   2  -1  264.07   14.20
  -8   1  -1  175.28   13.10
  -8   1  -1  159.58    8.90
   8  -1   1  152.78    9.80
  -8   0  -1    8.80    1.70
  -8   0  -1   11.90    3.90
   8   0   1    9.90    2.20
  -8  -1  -1  199.38   15.00
   8   1   1  180.28   10.40
  -8  -2  -1  262.27   18.80
   8   3   1   31.80    5.10
   8   4   1    3.70    2.90
   8   5   1   94.99    9.50
   8   6   1    6.50    3.60
  -8   6  -2   11.00    6.50
  -8   6  -2   16.60    6.00
  -8   5  -2   16.20    5.20
  -8   5  -2   12.50    5.50
  -8   4  -2   63.59    7.20
  -8   4  -2   60.29    8.60
  -8   3  -2  128.39    9.40
  -8   3  -2  138.99   12.10
  -8   2  -2   75.59    6.10
  -8   2  -2   79.09    8.30
  -8   1  -2  212.48   14.70
  -8   1  -2  223.98   11.40
  -8   1  -2  167.38   10.80
  -8   0  -2  139.09   11.60
  -8   0  -2  119.79    7.40
  -8  -1  -2  222.08   16.50
  -8  -2  -2   79.29    9.30
   8   3   2  115.99    9.80
   8   4   2   67.79    7.80
   8   5   2   16.40    4.00
   8   6   2   19.00    5.10
  -8   6  -3    1.50    5.50
  -8   6  -3   16.60    5.70
  -8   5  -3   61.89    8.70
  -8   5  -3   78.99    9.70
  -8   4  -3    6.30    3.40
  -8   4  -3    4.10    3.40
  -8   3  -3   64.09    6.40
  -8   3  -3   57.79    7.70
  -8   2  -3  202.68   11.80
  -8   2  -3  195.08   14.20
  -8   2  -3  164.78   11.40
  -8   1  -3  473.35   28.40
  -8   1  -3  506.85   25.00
  -8   0  -3    0.40    1.10
  -8   0  -3   -1.80    1.80
  -8  -1  -3  465.45   24.40
  -8  -1  -3  515.55   29.50
   8   3   3   72.49    7.60
   8   5   3   61.59    7.90
   8   6   3    3.90    3.20
  -8   6  -4   23.30    6.00
  -8   6  -4   13.10    6.30
  -8   5  -4    0.80    3.60
  -8   5  -4   -1.20    4.10
  -8   4  -4   33.30    6.80
  -8   4  -4   25.30    5.40
  -8   3  -4    3.30    2.80
  -8   3  -4   -0.70    2.60
  -8   2  -4  265.37   17.10
  -8   2  -4  217.08   14.00
  -8   2  -4  287.77   15.50
  -8   1  -4   69.09    7.80
  -8   1  -4   77.59    6.20
  -8   0  -4    2.00    2.30
  -8   0  -4    1.30    1.30
  -8  -1  -4   69.19    8.30
  -8  -1  -4   63.39    5.10
   8   2   4  301.57   18.90
   8   3   4    0.20    2.20
   8   4   4   34.20    5.80
   8   5   4    2.70    3.00
   8   6   4   20.90    6.10
  -8   6  -5    7.30    5.70
  -8   6  -5    3.90    4.90
  -8   5  -5    0.50    3.80
  -8   4  -5   10.70    4.60
  -8   4  -5    5.80    3.70
  -8   3  -5  239.08   16.60
  -8   3  -5  262.97   16.50
  -8   2  -5    7.40    3.50
  -8   2  -5   10.50    3.10
  -8   1  -5   36.20    4.50
  -8   1  -5   38.20    6.00
  -8   0  -5  401.56   21.30
  -8   0  -5  411.56   24.90
  -8  -1  -5   32.90    3.80
   8   2   5    9.90    3.60
   8   3   5  266.87   18.40
   8   4   5   10.30    3.90
   8   5   5   13.30    4.00
   8   6   5    1.70    3.00
  -8   5  -6   14.40    4.10
  -8   5  -6   -4.40    3.20
  -8   4  -6  105.49   10.40
  -8   4  -6   82.69    8.80
  -8   3  -6   85.09    8.80
  -8   3  -6   90.29    8.90
  -8   2  -6    3.40    2.50
  -8   2  -6   -0.10    2.40
  -8   1  -6  200.68   14.30
  -8   1  -6  188.78   12.40
  -8   0  -6  451.65   23.90
  -8  -1  -6  205.88   12.20
   8   1   6  194.48   13.70
  -8  -2  -6   -0.60    1.40
   8   2   6    1.40    2.10
   8   4   6  105.89   11.00
   8   5   6    2.00    3.30
  -8   5  -7   15.90    5.80
  -8   4  -7   95.69   10.50
  -8   3  -7   54.19    7.30
  -8   3  -7   57.09    6.30
  -8   2  -7  191.58   13.60
  -8   2  -7  197.98   13.90
  -8   1  -7  217.28   13.90
  -8   0  -7  179.08   11.80
   8   0   7  184.58   12.40
  -8  -1  -7  216.68   13.30
   8   1   7  223.98   14.70
  -8  -2  -7  196.88   12.20
   8   2   7  185.58   14.30
   8   3   7   61.29    7.90
   8   4   7  100.59   10.70
   8   5   7   23.60    6.70
  -8   5  -8   13.40    5.20
  -8   4  -8   25.70    6.50
  -8   3  -8   79.29    9.20
  -8   2  -8   42.20    6.70
  -8   1  -8   87.39    8.20
   8  -1   8   86.99    7.30
  -8   0  -8   54.49    6.10
   8   0   8   61.79    6.10
  -8  -1  -8   93.09    7.60
   8   1   8   93.29    8.60
  -8  -2  -8   39.40    4.90
   8   2   8   37.90    5.90
   8   3   8   92.59    9.90
   8   4   8   34.00    7.80
   8   5   8   19.40    6.20
  -8   4  -9    3.60    3.80
  -8   3  -9   21.70    5.70
  -8   2  -9   45.20    5.40
  -8   2  -9   49.10    6.90
   8  -2   9   52.89    5.10
  -8   1  -9   71.29    7.50
   8  -1   9   68.59    6.40
  -8   0  -9  266.07   15.90
   8   0   9  237.48   15.90
  -8  -1  -9   72.39    6.90
   8   1   9   76.49    8.00
  -8  -2  -9   63.89    6.00
   8   2   9   54.99    7.20
   8   3   9   31.60    7.20
   8   4   9    7.90    4.60
  -8   4 -10   -3.80    3.70
  -8   3 -10    3.30    3.90
  -8   3 -10    9.80    3.50
  -8   2 -10   -5.20    3.00
  -8   2 -10    0.20    2.40
  -8   1 -10   33.10    6.10
  -8   1 -10   27.70    4.40
   8  -1  10   29.90    4.30
  -8   0 -10   16.30    4.10
  -8   0 -10   21.10    3.80
   8   0  10   19.60    4.50
  -8  -1 -10   34.80    5.10
   8   1  10   35.90    5.40
  -8  -2 -10    0.90    1.90
   8   2  10   -1.90    2.40
   8   3  10   12.60    4.90
   8   4  10    7.70    4.20
  -8   3 -11   14.10    5.20
  -8   3 -11   17.90    4.90
  -8   2 -11   -1.70    3.80
  -8   2 -11    4.60    3.40
  -8   1 -11   14.10    4.30
  -8   1 -11   13.90    3.60
   8  -1  11   17.80    4.00
  -8   0 -11    9.10    3.10
  -8   0 -11    3.30    2.50
   8   0  11    1.60    2.40
  -8  -1 -11   12.00    3.60
   8   1  11   18.50    5.40
  -8  -2 -11    5.30    2.70
   8   2  11    7.60    3.50
   8   3  11   25.90    7.30
  -8   2 -12   -0.60    4.10
  -8   2 -12    0.50    2.70
  -8   1 -12   31.60    5.20
  -8   0 -12    0.80    2.90
   8   0  12    7.60    2.60
  -8  -1 -12   23.00    4.90
   8   1  12   21.30    5.80
  -8  -2 -12    3.10    2.30
   8   2  12    0.00    2.80
  -9   1   8    4.10    6.30
   9  -1  -8    1.20    4.00
  -9   0   8   31.10    7.90
   9   0  -8   20.10    6.40
  -9  -1   8    4.10    5.60
   9   1  -8    2.50    5.60
  -9   2   7    4.00    5.10
   9  -2  -7   -1.00    4.50
  -9   1   7   23.70    7.20
   9  -1  -7   17.30    5.90
  -9   0   7   -0.80    4.20
   9   0  -7    2.70    4.70
  -9  -1   7   33.90    8.90
   9   1  -7   27.40    6.60
  -9  -2   7    4.20    5.50
   9   2  -7   10.70    3.50
   9   2  -7    1.40    5.70
  -9   3   6    1.60    5.10
   9  -3  -6   -1.00    5.40
  -9   2   6   22.00    7.10
   9  -2  -6    9.80    5.40
  -9   1   6    5.60    5.00
   9  -1  -6    5.80    3.60
  -9   0   6    2.70    4.70
   9   0  -6    6.10    4.20
  -9  -1   6    5.60    4.60
   9   1  -6    7.40    4.90
  -9  -2   6   22.00    6.50
   9   2  -6   18.30    4.30
   9   2  -6   15.60    6.40
  -9  -3   6    7.40    5.40
   9   3  -6    5.20    5.50
   9   3  -6   -0.80    4.70
  -9   4   5    4.90    5.60
  -9   3   5   68.09   10.10
  -9   2   5   36.90    8.60
   9  -2  -5   36.30    6.80
  -9   1   5    6.30    5.00
   9  -1  -5    5.20    3.50
  -9   0   5   -0.10    4.10
   9   0  -5    3.30    3.70
  -9  -1   5    8.00    4.20
   9   1  -5    8.00    4.30
  -9  -2   5   36.80    7.80
   9   2  -5   39.60    7.20
   9   2  -5   40.60    5.50
  -9  -3   5   95.79   10.50
   9   3  -5  101.39   11.00
   9   3  -5  118.39   10.10
   9   4  -5   13.00    5.10
   9   4  -5    8.60    5.10
   9   4  -5   18.40    5.00
  -9   4   4    7.50    5.20
  -9   3   4   13.80    5.80
  -9   2   4   20.40    6.60
   9  -2  -4   23.70    6.00
  -9   1   4    7.90    4.90
   9  -1  -4   10.50    4.20
  -9   0   4   16.80    6.20
   9   0  -4   18.00    4.50
  -9  -1   4   12.20    5.40
   9   1  -4    9.10    4.30
   9   1  -4   18.40    3.40
  -9  -2   4   34.80    7.70
   9   2  -4   29.00    6.00
   9   2  -4   28.30    5.00
  -9  -3   4   27.20    6.60
   9   3  -4   38.40    5.90
   9   3  -4   35.50    6.60
   9   4  -4   10.80    4.80
   9   4  -4    7.90    4.10
  -9   5   3   23.20    8.40
  -9   4   3    0.40    4.30
  -9   3   3   28.30    7.30
  -9   2   3   77.39   10.00
   9  -2  -3   63.19    8.40
  -9   1   3  297.67   19.90
   9  -1  -3  226.68   16.30
  -9   0   3  163.78   13.70
   9   0  -3  123.79   10.40
  -9  -1   3  287.57   20.60
   9   1  -3  282.87   17.40
  -9  -2   3   75.99    9.90
   9   2  -3   79.29    7.70
   9   2  -3  100.09    8.90
  -9  -3   3   29.50    7.00
   9   3  -3   31.50    5.80
   9   4  -3   10.90    3.90
   9   4  -3    6.20    4.00
   9   5  -3   20.90    7.00
   9   5  -3   52.49   11.40
  -9   5   2   24.70    7.60
  -9   4   2    3.40    5.10
  -9   3   2   35.50    7.50
  -9   2   2   22.90    6.70
   9  -2  -2   19.90    5.30
  -9   1   2  193.58   15.60
   9  -1  -2  187.48   13.10
  -9   0   2   58.69    8.00
   9   0  -2   50.69    6.00
  -9  -1   2  191.48   16.00
   9   1  -2  202.78   12.90
  -9  -2   2   30.30    6.80
   9   2  -2   28.90    5.40
  -9  -3   2   43.50    7.70
   9   3  -2   55.99    6.80
   9   4  -2   16.10    4.00
   9   5  -2   59.79    7.00
  -9   5   1    9.70    4.40
  -9   5   1   12.70    6.00
  -9   4   1   19.90    6.40
  -9   3   1   20.70    6.20
  -9   2   1   49.20    8.10
  -9   1   1   87.69   10.20
   9  -1  -1   92.39    8.30
  -9   0   1  397.26   24.20
   9   0  -1  327.67   18.10
   9   0  -1  385.06   20.30
  -9  -1   1   99.79   10.70
   9   1  -1   92.19    7.50
  -9  -2   1   56.79    8.30
   9   2  -1   57.79    6.30
   9   4  -1   35.90    6.50
   9   5  -1    9.70    5.30
   9   5  -1   20.90    4.90
  -9   5   0   17.00    4.70
  -9   5   0   17.10    6.70
  -9   4   0   63.59    9.80
  -9   4   0   66.69    6.70
  -9   3   0   14.10    5.70
  -9   3   0   24.60    6.40
  -9   2   0  259.27   13.50
  -9   2   0  254.87   18.90
   9  -2   0  264.77   14.60
  -9   1   0  315.77   21.20
  -9   1   0  274.67   15.10
   9  -1   0  319.67   16.40
   9  -1   0  320.67   18.00
  -9   0   0   36.80    6.20
   9   0   0   22.30    3.70
  -9  -1   0  318.17   21.70
   9   1   0  313.47   17.10
  -9  -2   0  271.47   19.70
   9   4   0   83.99    8.10
   9   5   0   24.00    6.00
  -9   5  -1   19.30    5.70
  -9   5  -1   16.20    6.30
  -9   4  -1  110.39    8.60
  -9   4  -1   93.89   11.40
  -9   3  -1   19.30    3.80
  -9   3  -1   22.20    6.30
  -9   2  -1  238.58   17.70
  -9   2  -1  228.08   13.60
  -9   1  -1   93.79    9.90
  -9   1  -1   94.19    5.90
  -9   0  -1  105.49   10.90
  -9   0  -1  114.79    6.90
   9   0   1  125.89    7.90
  -9  -1  -1  104.49   10.90
   9   1   1  113.49    7.30
  -9  -2  -1  239.68   18.20
   9   3   1   18.50    4.60
   9   4   1  116.39   15.00
   9   5   1   20.60    6.10
  -9   6  -2    3.70    5.50
  -9   5  -2   29.80    6.00
  -9   5  -2   22.10    7.00
  -9   4  -2   14.80    4.00
  -9   4  -2   26.70    6.80
  -9   3  -2  133.09   12.60
  -9   3  -2  135.19    9.70
  -9   2  -2   73.39    8.70
  -9   2  -2   78.09    6.10
  -9   1  -2  273.77   18.60
  -9   1  -2  298.07   14.50
  -9   1  -2  233.58   13.90
  -9   0  -2  379.36   19.10
  -9   0  -2  369.86   24.00
  -9  -1  -2  295.67   20.20
   9   1   2  266.97   14.20
  -9  -2  -2   74.09    9.50
   9   3   2  152.98   12.30
   9   4   2   12.00    3.90
   9   5   2   28.00    6.30
   9   6   2   18.30    6.10
  -9   5  -3   48.80    8.10
  -9   5  -3   27.30    6.60
  -9   4  -3   29.30    7.00
  -9   4  -3   14.90    4.20
  -9   3  -3  121.49    9.30
  -9   3  -3  119.99   11.50
  -9   2  -3   62.79    5.90
  -9   2  -3   63.59    7.80
  -9   1  -3  155.08    9.40
  -9   1  -3  139.39   12.50
  -9   0  -3   10.80    4.30
  -9   0  -3   10.40    2.20
  -9  -1  -3  137.59    8.70
  -9  -1  -3  155.08   13.20
   9   3   3  141.69   11.70
   9   4   3   29.00    6.50
   9   6   3   13.10    4.80
  -9   5  -4   14.40    5.20
  -9   5  -4   31.00    7.60
  -9   4  -4   29.90    5.80
  -9   4  -4   29.00    6.40
  -9   3  -4   10.00    3.30
  -9   3  -4   19.60    5.60
  -9   2  -4  274.77   18.00
  -9   2  -4  272.67   15.40
  -9   2  -4  220.18   13.60
  -9   1  -4  126.19   11.30
  -9   1  -4  123.99    8.60
  -9   0  -4   53.89    4.70
  -9   0  -4   66.99    7.80
  -9  -1  -4  119.19   11.80
  -9  -1  -4  123.29    8.10
   9   2   4  303.97   19.30
   9   3   4   13.50    4.10
   9   4   4   35.40    7.20
   9   5   4   21.90    5.90
  -9   5  -5   17.50    5.00
  -9   5  -5   23.10    6.40
  -9   4  -5    9.90    4.10
  -9   4  -5    3.60    4.20
  -9   3  -5   59.29    7.30
  -9   3  -5   46.50    6.70
  -9   2  -5  238.18   14.70
  -9   2  -5  230.18   16.80
  -9   1  -5  449.66   26.80
  -9   1  -5  423.36   23.20
  -9   0  -5   31.20    6.70
  -9   0  -5   31.70    3.90
  -9  -1  -5  442.66   23.30
   9   2   5  256.17   17.50
   9   3   5   55.29    8.80
   9   4   5    2.80    3.20
   9   5   5    9.70    4.30
  -9   5  -6    9.70    4.50
  -9   5  -6    4.90    4.30
  -9   4  -6   16.30    5.50
  -9   4  -6   26.00    6.00
  -9   3  -6   60.39   12.20
  -9   3  -6   64.49    7.90
  -9   2  -6  342.47   20.30
  -9   2  -6  357.16   22.40
  -9   1  -6  189.38   12.40
  -9   1  -6  199.48   15.00
  -9   0  -6  206.38   12.60
  -9   0  -6  201.28   15.90
  -9  -1  -6  197.18   12.30
   9   1   6  199.38   13.90
  -9  -2  -6  380.16   21.00
   9   2   6  382.86   23.50
   9   3   6   58.89    7.90
   9   4   6   23.00    6.20
   9   5   6    5.70    4.20
  -9   5  -7   18.30    6.10
  -9   4  -7   20.70    5.50
  -9   3  -7  179.68   13.80
  -9   3  -7  192.38   14.30
  -9   2  -7   13.50    4.50
  -9   2  -7   16.30    5.20
  -9   1  -7  291.77   17.60
  -9   1  -7  304.57   20.20
  -9   0  -7   84.79    7.40
   9   0   7   88.09    8.00
  -9  -1  -7  297.37   17.30
   9   1   7  301.67   19.10
  -9  -2  -7   15.90    4.00
   9   2   7   16.20    4.50
   9   3   7  201.98   15.90
   9   4   7   24.60    6.10
   9   5   7   23.40    6.80
  -9   4  -8   27.70    6.60
  -9   3  -8   21.30    4.40
  -9   3  -8   15.60    4.50
  -9   2  -8   57.69    7.30
  -9   1  -8   36.20    5.50
   9  -1   8   29.00    4.20
   9   0   8  400.06   23.20
  -9  -1  -8   43.60    5.30
   9   1   8   31.20    5.00
  -9  -2  -8   64.69    6.20
   9   2   8   67.79    8.00
   9   3   8   17.20    5.70
   9   4   8   28.60    7.20
   9   5   8    7.10    4.50
  -9   4  -9   -0.60    3.80
  -9   3  -9   16.10    5.10
  -9   2  -9    4.30    3.20
  -9   2  -9    7.60    2.90
   9  -2   9   11.90    3.30
  -9   1  -9   40.20    5.90
   9  -1   9   40.40    5.00
  -9   0  -9    7.40    3.10
   9   0   9   12.40    3.60
  -9  -1  -9   37.30    5.00
   9   1   9   40.60    5.90
  -9  -2  -9   11.70    3.20
   9   2   9    8.30    4.10
   9   3   9   17.00    5.40
   9   4   9    8.70    4.00
  -9   3 -10    7.50    3.00
  -9   3 -10   -1.90    3.50
  -9   2 -10   -5.50    3.00
  -9   2 -10   -1.50    2.50
   9  -2  10    0.80    2.00
  -9   1 -10    9.90    3.80
   9  -1  10    7.40    2.80
  -9   0 -10    1.10    1.90
   9   0  10    3.90    2.70
  -9  -1 -10    7.50    2.80
   9   1  10    9.20    3.60
  -9  -2 -10    4.20    2.20
   9   2  10    0.90    2.80
   9   3  10    3.50    3.10
   9   4  10    5.30    4.20
  -9   3 -11    6.40    4.70
  -9   3 -11    7.50    4.50
  -9   2 -11   -0.40    3.30
  -9   2 -11    5.00    3.60
  -9   1 -11    6.30    3.30
   9  -1  11   12.20    2.90
  -9   0 -11   41.00    6.10
   9   0  11   49.80    6.10
  -9  -1 -11   12.60    3.60
   9   1  11   16.60    4.90
  -9  -2 -11   12.40    3.60
   9   2  11    5.40    3.60
   9   3  11   16.20    5.50
  -9   2 -12    2.90    4.00
  -9   2 -12   -5.60    2.60
  -9   1 -12   10.20    3.70
   9  -1  12   11.70    3.20
  -9   0 -12   17.80    4.50
  -9  -1 -12    9.50    3.80
   9   1  12    5.30    3.40
  -9  -2 -12    6.70    3.10
   9   2  12    7.20    3.60
 -10   1   7   -2.20    5.20
  10  -1  -7    7.10    4.30
 -10   0   7   -1.80    5.50
  10   0  -7   -2.40    4.20
 -10  -1   7   -4.10    4.70
  10   1  -7    1.90    5.20
 -10   3   6    9.60    6.80
  10  -3  -6    9.00    5.70
 -10   2   6    2.10    5.40
  10  -2  -6    7.80    4.90
 -10   1   6    4.80    4.70
  10  -1  -6    9.00    4.80
 -10   0   6   -7.00    3.60
  10   0  -6    1.40    3.90
 -10  -1   6    2.30    5.10
  10   1  -6   11.40    5.50
 -10  -2   6   18.20    5.10
  10   2  -6   16.00    4.00
  10   2  -6   13.20    6.40
 -10  -3   6    8.40    6.40
 -10   3   5   22.80    7.80
  10  -2  -5   48.60   10.10
 -10   1   5   37.90    8.60
  10  -1  -5   35.40    7.00
 -10   0   5    0.90    4.90
  10   0  -5   -3.20    3.20
 -10  -1   5   53.09    9.40
  10   1  -5   40.00    7.40
 -10  -2   5    4.00    4.30
  10   2  -5    3.70    4.90
  10   2  -5    1.90    3.20
 -10  -3   5   22.30    7.10
  10   3  -5   24.50    6.70
  10   3  -5   25.20    6.70
 -10   4   4    8.60    6.40
 -10   3   4    6.80    5.80
 -10   2   4   15.30    6.10
  10  -2  -4   24.90    6.40
 -10   1   4   15.10    5.50
  10  -1  -4   11.80    4.30
 -10   0   4   79.19   10.60
  10   0  -4   82.29    8.40
 -10  -1   4   10.90    4.90
  10   1  -4   15.50    4.60
 -10  -2   4   31.10    7.70
  10   2  -4   21.20    4.70
  10   2  -4   40.10    7.30
 -10  -3   4   10.40    5.50
  10   3  -4    2.30    3.50
  10   3  -4    5.80    4.50
  10   4  -4    8.60    5.10
  10   4  -4    3.00    4.40
 -10   4   3    7.30    5.50
 -10   3   3   36.60    9.10
 -10   2   3    2.00    4.20
  10  -2  -3   -0.70    5.10
 -10   1   3    5.30    3.90
  10  -1  -3    8.80    4.10
 -10   0   3   34.90    7.60
  10   0  -3   39.00    6.00
 -10  -1   3   12.50    4.80
  10   1  -3    7.90    3.80
  10   1  -3   12.20    2.80
 -10  -2   3    0.80    3.10
  10   2  -3    0.90    2.40
  10   2  -3    1.30    3.50
 -10  -3   3   54.89    8.90
  10   3  -3   56.59    7.20
  10   3  -3   49.50    7.40
  10   4  -3    0.90    2.90
  10   4  -3   -3.80    3.60
 -10   5   2   -6.00    5.60
 -10   4   2   10.20    6.00
 -10   3   2    4.00    4.60
 -10   2   2   79.59   10.40
  10  -2  -2   67.19    8.50
 -10   1   2   49.20    7.90
  10  -1  -2   54.49    6.80
 -10   0   2   59.89    8.50
  10   0  -2   61.99    6.80
 -10  -1   2   61.89    9.00
  10   1  -2   48.50    6.00
 -10  -2   2   76.69   10.00
  10   2  -2   83.59    8.20
 -10  -3   2    5.60    4.00
  10   3  -2    7.90    3.40
  10   4  -2   33.70    5.70
  10   4  -2   20.40    6.20
  10   5  -2    0.90    4.50
 -10   5   1   24.20    8.30
 -10   4   1  109.89   12.30
 -10   3   1   15.50    5.80
 -10   2   1   65.29   13.70
 -10   1   1  165.58   15.20
  10  -1  -1  169.38   12.30
 -10   0   1  288.47   19.90
  10   0  -1  217.28   13.30
  10   0  -1  275.07   15.70
 -10  -1   1  177.58   15.80
  10   1  -1  186.28   11.90
 -10  -2   1   85.49   10.70
  10   2  -1   83.79    7.50
 -10  -3   1   14.70    5.70
  10   4  -1  123.69   11.30
  10   5  -1   19.40    5.70
  10   5  -1   10.60    5.00
 -10   5   0   61.79    8.20
 -10   5   0   74.79   11.30
 -10   4   0    6.30    4.80
 -10   3   0   84.19   10.60
 -10   3   0   78.49    7.90
 -10   2   0    4.80    4.10
 -10   1   0  312.97   22.10
 -10   1   0  301.07   15.70
  10  -1   0  335.07   19.00
  10  -1   0  312.47   17.00
  10   0   0   27.00    4.50
 -10  -1   0  312.57   22.90
  10   1   0  339.17   18.00
 -10  -2   0    8.10    4.70
  10   2   0   19.00    3.70
  10   4   0   23.00    5.80
  10   5   0   86.39    9.90
 -10   5  -1   -6.50    4.00
 -10   5  -1   -4.10    4.60
 -10   4  -1   46.90    6.00
 -10   4  -1   41.70    9.00
 -10   3  -1   42.70    4.90
 -10   3  -1   47.20   11.40
 -10   2  -1   89.39    6.10
 -10   2  -1   81.89   10.50
 -10   1  -1  122.09   12.10
 -10   1  -1  127.89    7.60
 -10   0  -1  572.54   34.00
  10   0   1  541.95   28.20
 -10  -1  -1  123.49   12.40
  10   1   1  117.89    9.60
 -10  -2  -1   84.49   10.20
  10   2   1   88.69    7.00
  10   3   1   48.90    6.60
  10   4   1   54.19    7.20
  10   5   1    2.20    3.10
 -10   5  -2   34.40    8.40
 -10   4  -2   31.70    5.50
 -10   4  -2   31.20    7.60
 -10   3  -2   67.09    9.10
 -10   3  -2   74.29    6.80
 -10   2  -2   96.09    7.10
 -10   2  -2  100.09   10.60
 -10   1  -2  224.38   12.00
 -10   1  -2  198.88   11.80
 -10   1  -2  234.58   17.20
 -10   0  -2   34.80    3.40
 -10   0  -2   38.80    8.00
 -10  -1  -2  229.98   18.40
 -10  -2  -2  105.59   11.60
  10   3   2   74.39    8.40
  10   4   2   43.30    6.40
  10   5   2   35.70    6.80
 -10   5  -3   -5.00    4.00
 -10   4  -3   20.80    6.20
 -10   4  -3   13.60    3.90
 -10   3  -3   42.40    7.50
 -10   3  -3   31.00    5.30
 -10   2  -3  165.68   13.80
 -10   2  -3  150.58   10.30
 -10   1  -3  216.48   12.50
 -10   1  -3  210.78   16.50
 -10   0  -3  235.38   13.20
 -10   0  -3  236.68   18.10
 -10  -1  -3  238.38   18.60
 -10  -2  -3  186.98   16.80
  10   3   3   36.20    8.20
  10   4   3   16.30    4.60
  10   5   3    2.10    3.50
 -10   5  -4    7.30    5.60
 -10   5  -4    2.10    4.50
 -10   4  -4   21.40    6.40
 -10   4  -4   22.00    8.30
 -10   3  -4   91.69   10.10
 -10   3  -4   93.59    8.40
 -10   2  -4   46.20    5.50
 -10   2  -4   44.20    7.10
 -10   1  -4   46.40    5.00
 -10   1  -4   42.40    8.50
 -10   0  -4  159.48   14.10
 -10   0  -4  165.88   10.20
 -10  -1  -4   42.90    4.30
 -10  -1  -4   42.10    8.50
  10   3   4  103.49   10.20
  10   4   4   17.90    5.70
  10   5   4    9.70    4.70
 -10   5  -5   10.90    4.80
 -10   5  -5   -2.00    3.80
 -10   4  -5    4.40    4.00
 -10   4  -5    7.90    4.50
 -10   3  -5   65.99    7.10
 -10   3  -5   55.39    8.10
 -10   2  -5  329.57   18.60
 -10   2  -5  298.97   21.30
 -10   1  -5  153.88   13.70
 -10   1  -5  166.98   10.90
 -10   0  -5    9.40    2.60
 -10   0  -5    7.90    3.60
 -10  -1  -5  189.18   16.10
 -10  -1  -5  177.18   11.30
  10   2   5  323.37   21.10
  10   3   5   64.19    8.00
  10   4   5   10.80    4.50
  10   5   5    5.20    3.70
 -10   5  -6   15.60    6.20
 -10   5  -6    7.20    5.80
 -10   4  -6   27.00    6.60
 -10   3  -6    6.40    4.40
 -10   3  -6   14.20    4.20
 -10   2  -6  520.65   28.50
 -10   2  -6  535.65   31.60
 -10   1  -6  358.26   23.70
 -10   1  -6  357.66   20.20
 -10   0  -6    0.70    2.00
 -10   0  -6   -1.70    2.70
 -10  -1  -6  373.06   20.90
  10   1   6  390.96   23.30
  10   3   6   11.30    4.50
  10   4   6   27.60    6.50
  10   5   6    6.40    4.50
 -10   5  -7   11.60    5.80
 -10   5  -7   26.90    6.80
 -10   4  -7   15.60    5.20
 -10   4  -7   28.20    6.50
 -10   3  -7   72.49    8.30
 -10   3  -7   73.29    8.70
 -10   2  -7   22.00    6.00
 -10   2  -7   20.50    4.20
 -10   1  -7   14.90    3.90
 -10   1  -7   24.00    6.10
 -10   0  -7   18.40    4.00
  10   1   7   23.80    5.50
 -10  -2  -7   20.30    4.00
  10   2   7   16.40    4.60
  10   3   7   80.89    9.60
  10   4   7   20.10    5.60
  10   5   7   12.40    5.40
 -10   4  -8    6.40    4.50
 -10   4  -8   13.80    4.80
 -10   3  -8    8.70    4.20
 -10   3  -8   -1.60    3.10
 -10   2  -8    4.30    3.00
 -10   2  -8    8.80    4.50
 -10   1  -8   33.20    5.20
 -10   0  -8  122.09    9.60
  10   0   8  121.89   10.40
 -10  -1  -8   34.90    4.90
  10   1   8   32.90    5.50
 -10  -2  -8    7.60    2.90
  10   2   8    9.90    4.10
  10   3   8    2.30    2.90
  10   4   8    6.30    4.30
 -10   4  -9    6.00    4.80
 -10   3  -9   -1.20    2.90
 -10   2  -9   11.60    4.20
 -10   1  -9   46.10    6.20
  10  -1   9   50.39    6.10
 -10   0  -9    7.60    2.80
  10   0   9   12.60    4.20
 -10  -1  -9   58.29    6.30
  10   1   9   51.19    6.70
 -10  -2  -9   19.00    3.90
  10   2   9   22.70    6.20
  10   3   9    1.90    2.40
  10   4   9   13.30    6.10
 -10   3 -10    4.10    2.90
 -10   3 -10    6.30    4.70
 -10   2 -10    2.80    3.60
  10  -2  10   11.20    3.40
 -10   1 -10   41.70    6.00
  10  -1  10   40.40    5.40
 -10   0 -10   64.29    6.80
  10   0  10   54.59    6.70
 -10  -1 -10   45.70    5.60
  10   1  10   33.80    6.80
 -10  -2 -10   10.60    3.40
  10   2  10   12.20    4.60
  10   3  10    2.50    3.30
 -10   2 -11    9.80    4.20
  10  -2  11    9.60    2.50
 -10   1 -11   13.70    4.20
  10  -1  11   11.50    3.80
 -10   0 -11    9.30    3.50
  10   0  11   11.80    4.10
 -10  -1 -11   13.10    4.10
  10   1  11   15.60    4.80
 -10  -2 -11    3.50    2.70
  10   2  11    0.40    2.90
 -10   1 -12   14.40    4.50
  10  -1  12   20.60    5.10
 -10   0 -12    6.00    3.30
  10   0  12   -4.00    2.80
 -10  -1 -12   17.30    4.50
  10   1  12   25.00    6.30
 -11   1   6   -2.70    4.80
  11  -1  -6    3.50    4.00
 -11   0   6    7.40    6.40
 -11  -1   6    1.10    4.80
  11   1  -6    0.10    4.30
 -11   3   5   -0.60    5.50
 -11   2   5    3.00    5.20
  11  -2  -5    5.10    5.30
 -11   1   5   16.10    6.80
  11  -1  -5   13.60    5.00
 -11   0   5    1.30    4.60
  11   0  -5    6.20    4.40
 -11  -1   5   24.00    8.10
  11   1  -5   23.30    6.10
 -11  -2   5    2.10    5.10
  11   2  -5    1.70    3.40
  11   2  -5   -6.00    4.80
 -11  -3   5   18.10    6.20
 -11   3   4   -8.20    4.20
 -11   2   4    1.90    5.30
  11  -2  -4    5.00    4.90
 -11   1   4   19.10    7.40
  11  -1  -4   19.60    5.00
 -11   0   4    3.20    4.30
  11   0  -4   -0.70    3.30
 -11  -1   4   18.90    6.40
  11   1  -4   19.70    5.70
 -11  -2   4    7.40    4.60
  11   2  -4   12.30    5.70
  11   2  -4    7.00    3.60
 -11  -3   4    4.70    5.50
  11   3  -4    4.70    5.10
  11   3  -4   11.90    5.70
 -11   4   3   -1.40    5.20
 -11   3   3   45.70   10.90
 -11   2   3   97.29   12.10
  11  -2  -3   92.79   10.60
 -11   1   3   26.90    7.70
  11  -1  -3   33.00    8.40
 -11   0   3   37.50    8.50
  11   0  -3   29.50    5.30
 -11  -1   3   36.70    8.80
  11   1  -3   28.60    7.40
  11   1  -3   41.70    4.90
 -11  -2   3  103.79   12.30
  11   2  -3  107.49    9.60
  11   2  -3  114.89   10.60
 -11  -3   3   55.99    9.30
  11   3  -3   67.79    8.80
  11   3  -3   55.89   11.00
  11   4  -3    1.20    4.20
  11   4  -3    1.20    4.00
  11   4  -3   14.80    4.00
 -11   4   2   35.90   10.10
 -11   3   2    9.30    6.50
 -11   2   2   28.90    8.00
  11  -2  -2   26.30    7.00
 -11   1   2  183.58   16.10
  11  -1  -2  159.58   12.80
 -11   0   2  364.06   25.10
  11   0  -2  339.27   20.80
  11   1  -2  172.98   12.40
 -11  -2   2   57.19    9.90
  11   2  -2   37.20    6.50
 -11  -3   2   20.30    6.00
  11   3  -2   22.50    6.40
  11   3  -2   23.00    5.50
  11   4  -2   27.00    6.30
 -11   4   1   -5.00    4.50
 -11   3   1   17.40    6.70
 -11   2   1   29.40    7.60
 -11   1   1  119.39   12.90
  11  -1  -1  114.59   10.40
 -11   0   1   14.90    5.10
  11   0  -1   18.40    4.40
 -11  -1   1  118.99   13.20
  11   1  -1  128.29    9.50
 -11  -2   1   31.20   11.30
  11   2  -1   36.60    5.60
 -11  -3   1   48.40    8.60
  11   3  -1   30.00    5.90
  11   4  -1   14.20    5.30
 -11   5   0   -1.00    5.70
 -11   4   0  146.79   15.20
 -11   4   0  135.19    9.30
 -11   3   0   53.59    9.50
 -11   2   0   83.89   10.80
 -11   1   0   61.79   10.90
  11  -1   0   48.80    6.70
 -11   0   0  176.78   15.90
  11   0   0  162.88   11.40
 -11  -1   0   46.60    8.50
  11   1   0   58.09    5.80
 -11  -2   0   72.39   10.30
  11   2   0   80.59    7.40
  11   4   0  143.59   13.00
  11   5   0    4.80    4.70
 -11   5  -1   -0.10    4.70
 -11   5  -1   14.00    6.60
 -11   4  -1   24.40    6.60
 -11   4  -1    2.20    3.80
 -11   3  -1   75.19   10.40
 -11   3  -1   77.89    6.40
 -11   2  -1   54.59    8.80
 -11   2  -1   67.09    5.00
 -11   1  -1  178.88   10.00
 -11   1  -1  176.38   15.60
 -11   0  -1  260.87   20.30
  11   0   1  237.08   14.30
 -11  -1  -1  193.88   16.70
  11   1   1  179.58   11.10
 -11  -2  -1   71.39    9.80
  11   2   1   65.89    6.00
  11   4   1   13.20    4.80
  11   5   1    7.20    5.00
 -11   5  -2   38.20    9.00
 -11   4  -2   -0.30    3.20
 -11   4  -2    5.00    5.50
 -11   3  -2   83.29    7.10
 -11   3  -2   80.89   10.60
 -11   2  -2   40.20    7.10
 -11   2  -2   51.39    4.80
 -11   1  -2   63.69    5.20
 -11   1  -2   72.49    9.40
 -11   0  -2   60.89    4.80
 -11   0  -2   62.39    9.20
 -11  -1  -2   60.89    9.50
 -11  -2  -2   52.19    8.60
  11   2   2   51.89    4.90
  11   3   2   93.39    9.70
  11   4   2    4.70    3.30
  11   5   2   33.60    7.70
 -11   5  -3    7.60    5.50
 -11   4  -3   29.70    8.40
 -11   4  -3   37.30    6.10
 -11   3  -3   50.19    8.50
 -11   3  -3   57.99    6.20
 -11   2  -3   43.40    7.50
 -11   2  -3   54.19    5.40
 -11   1  -3   12.60    4.70
 -11   1  -3   15.00    3.10
 -11   0  -3   79.09    6.00
 -11   0  -3   76.19    9.80
 -11  -1  -3   15.20    5.70
  11   3   3   62.49    8.00
  11   4   3   41.00    6.80
  11   5   3   -1.90    3.30
 -11   5  -4   17.30    5.20
 -11   5  -4    4.80    5.00
 -11   4  -4    3.40    3.60
 -11   4  -4   12.10    4.70
 -11   3  -4  130.69   10.40
 -11   3  -4  161.58   15.90
 -11   2  -4  116.79   12.00
 -11   2  -4  115.99    8.80
 -11   1  -4  164.98   14.90
 -11   1  -4  165.18   10.70
 -11   0  -4   22.30    6.70
 -11   0  -4   24.20    3.50
 -11  -1  -4  168.78   10.50
 -11  -1  -4  151.58   14.80
  11   3   4  152.78   13.40
  11   4   4    5.10    3.60
  11   5   4   10.70    4.60
 -11   5  -5   -1.90    4.40
 -11   4  -5   -1.20    3.20
 -11   4  -5   -6.30    4.30
 -11   3  -5   99.49   10.00
 -11   3  -5   72.09    9.20
 -11   2  -5  264.87   19.60
 -11   2  -5  259.57   16.00
 -11   1  -5   13.30    3.60
 -11   1  -5   21.40    6.50
 -11   0  -5   17.40    3.80
 -11   0  -5   23.20    6.20
 -11  -1  -5    8.60    2.40
 -11  -1  -5   14.50    5.80
  11   2   5  314.17   21.00
  11   3   5   90.29    9.90
  11   4   5    1.50    3.60
  11   5   5    0.20    3.30
 -11   4  -6    6.50    6.10
 -11   4  -6   -3.20    2.90
 -11   3  -6   14.90    5.70
 -11   3  -6    6.60    3.30
 -11   2  -6    0.90    2.90
 -11   2  -6    2.60    3.40
 -11   1  -6   53.89    8.70
 -11   1  -6   58.89    6.40
 -11   0  -6    8.00    2.80
 -11   0  -6   10.50    4.40
 -11  -1  -6   63.69    6.40
  11   2   6   -0.30    2.70
  11   3   6    9.10    4.00
  11   4   6   -1.90    2.50
  11   5   6   14.00    5.00
 -11   4  -7   13.00    5.60
 -11   4  -7    6.50    3.90
 -11   3  -7    2.70    3.40
 -11   3  -7    3.70    5.00
 -11   2  -7   27.80    6.80
 -11   2  -7   23.90    4.90
 -11   1  -7  108.49    8.70
 -11   1  -7  105.09   11.00
 -11   0  -7  147.79   10.40
 -11  -1  -7  109.59    8.70
  11   1   7  103.89   10.20
 -11  -2  -7   32.60    4.70
  11   2   7   36.30    6.50
  11   3   7    5.20    3.00
  11   4   7    7.70    4.60
 -11   4  -8   39.70    7.80
 -11   3  -8   -1.20    2.90
 -11   3  -8    5.50    3.80
 -11   2  -8   52.09    8.00
 -11   2  -8   39.00    6.20
 -11   1  -8   24.00    4.80
 -11   0  -8   35.10    5.20
  11   0   8   34.70    5.60
 -11  -1  -8   25.00    4.80
  11   1   8   23.80    5.90
 -11  -2  -8   52.59    6.00
  11   2   8   48.50    7.10
  11   3   8   -1.60    3.00
  11   4   8   52.19    8.50
 -11   3  -9   -0.10    2.90
 -11   2  -9    2.00    3.10
 -11   1  -9   64.89    7.40
  11  -1   9   80.69    7.80
 -11   0  -9   19.60    4.30
  11   0   9   30.60    7.10
 -11  -1  -9   72.39    7.30
  11   1   9   72.19    8.00
 -11  -2  -9    3.50    2.50
  11   2   9    3.10    3.40
  11   3   9    8.00    4.30
 -11   3 -10   -1.30    3.30
  11  -3  10    3.60    2.80
 -11   2 -10   21.80    5.20
  11  -2  10   23.30    5.10
 -11   1 -10   12.40    4.00
  11  -1  10    5.30    3.30
 -11   0 -10   15.20    4.20
  11   0  10   14.30    4.90
 -11  -1 -10    6.30    2.90
  11   1  10    7.00    3.80
 -11  -2 -10   25.00    5.20
  11   2  10   32.20    7.50
  11   3  10    3.10    3.80
 -11   2 -11   15.70    5.20
  11  -2  11   18.70    4.10
 -11   1 -11   36.80    5.90
  11  -1  11   29.30    6.50
 -11   0 -11    2.90    2.80
  11   0  11    2.90    3.00
 -11  -1 -11   24.80    5.10
  11   1  11   33.30    7.00
 -11  -2 -11   22.50    5.00
  11   2  11   19.90    5.90
  11   0  12   33.10    7.30
 -12   1   5    9.50    6.00
  12  -1  -5    6.30    3.90
 -12   0   5    5.00    5.00
  12   0  -5   11.10    4.90
 -12  -1   5    2.10    5.70
  12   1  -5   -1.60    4.10
 -12   2   4   32.40    9.10
  12  -2  -4   30.70    7.40
 -12   1   4   -1.20    4.10
  12  -1  -4    3.80    3.60
 -12   0   4   54.99    9.40
  12   0  -4   46.00    7.40
  12   1  -4    8.00    4.50
 -12  -2   4   54.49   11.00
  12   2  -4   49.00    7.00
  12   2  -4   44.10    8.40
 -12   3   3   22.70    8.30
 -12   2   3   -7.60    3.60
  12  -2  -3    2.80    5.30
 -12   1   3   66.59   10.10
  12  -1  -3   56.19    7.90
 -12   0   3    2.50    4.80
  12   0  -3   -5.80    3.40
 -12  -1   3   68.19   10.80
  12   1  -3   77.49    8.60
  12   2  -3   -1.00    4.70
  12   2  -3    3.10    3.50
 -12  -3   3   33.10    8.80
  12   3  -3   44.40    7.50
  12   3  -3   32.20    7.40
 -12   4   2    4.40    5.90
 -12   3   2   37.50    9.00
 -12   2   2  133.19   14.20
  12  -2  -2  111.99   12.30
 -12   1   2   48.50   10.00
  12  -1  -2   31.50    6.90
 -12   0   2    7.00    5.40
  12   0  -2    1.20    3.60
 -12  -1   2   49.99    8.70
  12   1  -2   34.30    6.40
 -12  -2   2  135.69   14.90
  12   2  -2  143.69   12.30
 -12  -3   2   50.79   10.50
  12   3  -2   45.30    7.70
  12   3  -2   47.80    7.90
  12   4  -2   12.40    5.50
  12   4  -2   16.20    5.20
  12   4  -2   16.10    5.50
 -12   4   1   48.30   11.60
 -12   3   1  102.09   13.30
 -12   2   1   17.20    6.70
 -12   1   1   58.49    9.50
  12  -1  -1   48.20    7.50
 -12   0   1   38.30    9.20
  12   0  -1   33.70    5.40
 -12  -1   1   58.09    9.60
  12   1  -1   66.09    7.30
 -12  -2   1    9.30    6.00
  12   2  -1    6.00    4.30
 -12  -3   1  126.19   14.40
  12   3  -1  141.69   11.80
  12   4  -1   52.89    8.60
 -12   4   0   24.80    8.20
 -12   3   0   19.50    6.20
 -12   2   0   34.00    8.40
 -12   1   0   14.70    4.80
  12  -1   0   21.90    5.60
 -12   0   0  166.78   15.70
  12   0   0  144.89   10.60
 -12  -1   0   25.80    7.70
  12   1   0   27.40    4.70
 -12  -2   0   33.80    8.40
  12   2   0   40.90    6.00
 -12  -3   0   10.00    5.90
  12   3   0   20.90    4.80
  12   4   0   27.90    7.10
 -12   4  -1    6.30    3.80
 -12   4  -1   13.20    7.10
 -12   3  -1   12.30    3.10
 -12   3  -1    7.10    5.40
 -12   2  -1   28.20    7.80
 -12   2  -1   24.30    3.30
 -12   1  -1    3.20    4.30
 -12   1  -1    4.30    1.50
 -12   0  -1   12.10    5.10
  12   0   1   15.20    3.30
 -12  -1  -1    7.50    4.90
  12   1   1    8.80    2.70
 -12  -2  -1   33.60    8.70
  12   2   1   27.30    4.90
  12   3   1   20.10    4.00
  12   4   1   22.20    5.20
 -12   4  -2   37.30    8.80
 -12   4  -2   33.50    5.60
 -12   3  -2   -2.00    2.50
 -12   3  -2    0.20    5.10
 -12   2  -2  132.79    8.80
 -12   2  -2  135.89   13.50
 -12   1  -2   54.19    4.80
 -12   1  -2   58.79    9.00
 -12   0  -2   29.10    7.90
 -12  -1  -2   57.89    9.10
 -12  -2  -2  144.69   14.60
  12   2   2  124.19    8.70
  12   3   2    0.70    3.00
  12   4   2   49.40    7.70
 -12   4  -3   28.80    7.40
 -12   4  -3   20.80    5.20
 -12   3  -3  114.69    9.00
 -12   3  -3  115.89   12.70
 -12   2  -3    9.90    3.10
 -12   2  -3   10.90    5.30
 -12   1  -3   10.30    2.80
 -12   1  -3    8.50    4.70
 -12   0  -3  229.98   13.10
 -12   0  -3  217.88   21.60
 -12  -1  -3    8.40    4.70
 -12  -2  -3   17.50    5.90
  12   3   3  129.59   12.50
  12   4   3   22.10    6.00
 -12   4  -4   -5.70    4.60
 -12   4  -4    2.60    4.00
 -12   3  -4   20.70    6.20
 -12   3  -4    9.60    3.40
 -12   2  -4   24.80    6.50
 -12   2  -4   24.40    4.30
 -12   1  -4   96.49    7.40
 -12   1  -4   82.29   19.30
 -12   0  -4   78.79    6.60
 -12   0  -4   80.69   13.10
 -12  -1  -4   80.19   10.90
  12   3   4   16.60    5.10
  12   4   4   -0.20    3.40
 -12   4  -5    5.60    4.50
 -12   4  -5   14.30    5.90
 -12   3  -5    3.10    3.70
 -12   3  -5    2.10    2.80
 -12   2  -5   13.10    5.80
 -12   1  -5  112.59    8.70
 -12   0  -5   81.39    7.10
 -12   0  -5   79.39   10.40
 -12  -1  -5  116.59   13.20
 -12  -1  -5  121.19    9.10
  12   2   5    8.30    3.70
  12   3   5    2.50    3.50
  12   4   5    9.00    4.70
 -12   4  -6   -2.20    3.40
 -12   4  -6   13.10    4.70
 -12   3  -6   87.49   11.30
 -12   3  -6  101.49    9.10
 -12   2  -6   35.50    5.40
 -12   2  -6   28.40   10.20
 -12   1  -6  130.69   13.50
 -12   0  -6  188.88   15.30
 -12   0  -6  222.68   18.20
 -12  -1  -6  124.89    9.30
  12   2   6   40.20    7.00
  12   3   6   97.49   11.00
  12   4   6    0.90    3.40
 -12   4  -7    2.20    4.50
 -12   4  -7   28.00    6.40
 -12   3  -7   21.60    4.90
 -12   3  -7   21.20    6.80
 -12   2  -7   65.19    7.40
 -12   1  -7   22.20    7.30
 -12   1  -7   28.30    4.80
 -12   0  -7  149.69   15.00
 -12   0  -7  167.88   11.40
 -12  -1  -7   23.30    4.40
  12   1   7   21.50    5.20
  12   2   7   83.89   10.00
  12   3   7   34.10    7.70
  12   4   7   11.90    5.30
 -12   3  -8   30.50   10.80
 -12   2  -8    8.90    3.60
 -12   1  -8   32.40    5.30
 -12   1  -8   34.50    7.70
 -12   0  -8   -0.10    2.30
 -12  -1  -8   39.20    5.40
  12   1   8   37.70    6.60
 -12  -2  -8    7.80    2.80
  12   2   8   14.70    4.50
  12   3   8   11.80    4.90
  12   4   8   12.50    5.80
 -12   3  -9    4.60    3.90
 -12   3  -9    5.40    5.80
 -12   2  -9   15.30    4.30
 -12   1  -9   22.00    4.80
 -12   0  -9   73.19    7.30
  12   0   9   60.79    8.10
 -12  -1  -9   20.40    4.80
  12   1   9   32.30    7.40
 -12  -2  -9   19.60    4.30
  12   2   9   24.30    6.80
  12   3   9    3.40    3.90
 -12   2 -10   11.40    3.90
 -12   1 -10    4.60    3.00
  12  -1  10    4.80    3.30
 -12   0 -10    6.60    3.20
  12   0  10    2.50    3.10
 -12  -1 -10    0.30    2.40
  12   1  10    4.40    3.40
 -12  -2 -10   11.70    3.70
  12   2  10   11.70    3.90
 -12   1 -11   18.30    4.70
  12  -1  11   29.80    6.50
 -12   0 -11    6.30    3.00
  12   0  11    8.40    3.60
 -12  -1 -11   28.20    5.90
  12   1  11   22.40    6.60
 -13   1   4   11.90    7.00
  13  -1  -4   12.40    5.30
 -13   0   4   -5.40    5.10
  13   0  -4   -3.30    3.50
 -13  -1   4   -3.60    4.80
  13   1  -4    3.60    4.60
 -13   2   3   81.99   12.90
  13  -2  -3   68.79   10.50
 -13   1   3   -3.10    4.40
  13  -1  -3    2.10    4.80
 -13   0   3   10.00    6.00
  13   0  -3    2.90    3.80
 -13  -1   3   -7.00    3.90
  13   1  -3    2.80    4.10
 -13  -2   3   97.99   13.30
  13   2  -3  121.89   10.00
  13   2  -3  106.69   11.10
 -13   3   2    3.20    6.10
 -13   2   2   47.90   10.60
 -13   1   2   81.29   11.90
  13  -1  -2   85.99   10.00
 -13   0   2    2.00    5.00
  13   0  -2    4.40    5.00
 -13  -1   2   98.89   13.00
  13   1  -2   86.09    9.00
 -13  -2   2   59.69   10.40
  13   2  -2   63.69    8.20
  13   2  -2   45.30    7.40
 -13  -3   2   16.80    7.60
  13   3  -2    6.70    5.60
  13   3  -2    6.30    4.00
 -13   3   1   43.50    9.70
 -13   2   1    7.00    6.20
 -13   1   1   13.40    6.70
  13  -1  -1   20.70    5.90
 -13   0   1   -1.00    4.50
  13   0  -1    1.70    2.80
 -13  -1   1   26.80    8.20
  13   1  -1   21.50    4.70
 -13  -2   1   21.70    7.40
  13   2  -1    2.80    4.30
 -13  -3   1   61.09   10.40
  13   3  -1   61.89    8.70
 -13   4   0    6.00    6.10
 -13   3   0   30.70    9.00
 -13   2   0   32.40    8.90
 -13   1   0    7.20    5.20
  13  -1   0    9.40    4.60
 -13   0   0   36.00    9.50
  13   0   0   27.20    4.80
 -13  -1   0   11.30    5.10
  13   1   0   12.50    3.60
 -13  -2   0   23.70    7.40
  13   2   0   22.30    5.10
 -13  -3   0   24.80    7.80
  13   3   0   33.00    6.60
  13   4   0    9.70    5.90
  13   4   0   24.90    5.30
 -13   4  -1    4.60    6.30
 -13   4  -1    4.40    3.70
 -13   3  -1   68.49   10.90
 -13   3  -1   56.69    5.30
 -13   2  -1    7.90    2.20
 -13   2  -1   -3.30    4.50
 -13   1  -1  142.69   14.80
 -13   0  -1   39.80    9.20
  13   0   1   25.40    4.60
 -13  -1  -1  127.79   14.20
  13   1   1  125.69    9.00
 -13  -2  -1   14.70    6.00
  13   2   1    6.40    3.30
  13   3   1   78.29    7.70
  13   4   1    8.70    5.80
 -13   4  -2   31.30    8.50
 -13   4  -2   24.00    5.00
 -13   3  -2    0.40    4.20
 -13   3  -2    1.90    2.90
 -13   2  -2   62.49    9.30
 -13   2  -2   52.19    5.20
 -13   1  -2   28.30    3.50
 -13   1  -2   27.90    7.90
 -13   0  -2    3.60    4.20
 -13  -1  -2   26.30    8.10
 -13  -2  -2   62.89   10.80
  13   2   2   48.50    5.60
  13   3   2    0.20    2.70
  13   3   2    5.50    3.00
  13   4   2   49.70    8.50
 -13   4  -3    4.50    5.70
 -13   4  -3    0.00    5.80
 -13   3  -3    4.60    4.90
 -13   3  -3    2.70    3.00
 -13   2  -3   26.90    8.00
 -13   2  -3   27.50    4.40
 -13   1  -3   49.90    5.30
 -13   1  -3   60.69    9.60
 -13   0  -3    7.20    4.60
 -13   0  -3    2.80    1.90
 -13  -1  -3   46.00   10.10
 -13  -2  -3   30.30    9.00
  13   3   3    7.10    4.30
  13   3   3   10.40    2.90
  13   4   3    1.90    3.70
 -13   4  -4   36.80    6.60
 -13   4  -4   44.60    9.30
 -13   3  -4   31.50    6.10
 -13   3  -4   17.20    7.30
 -13   2  -4   13.10    6.60
 -13   2  -4   17.30    4.00
 -13   1  -4   79.09    6.80
 -13   1  -4   68.09   10.70
 -13   0  -4   66.79    6.00
 -13   0  -4   61.39    9.40
 -13  -1  -4   73.89   11.10
  13   3   4   31.90    7.90
  13   4   4   37.20    8.60
 -13   4  -5   24.80    5.60
 -13   4  -5   20.80    7.50
 -13   3  -5   29.20    7.70
 -13   3  -5   36.80    5.80
 -13   2  -5   25.40    7.10
 -13   2  -5   18.40    5.10
 -13   1  -5    4.40    2.40
 -13   1  -5    7.10    5.30
 -13   0  -5  390.66   28.30
 -13   0  -5  426.46   27.00
 -13  -1  -5    4.40    2.30
 -13  -1  -5    7.70    4.20
  13   3   5   35.70    7.90
  13   4   5   20.80    5.90
 -13   4  -6    4.10    4.20
 -13   4  -6   22.20    6.60
 -13   3  -6   41.10    6.40
 -13   3  -6   32.40    8.10
 -13   2  -6   14.70    4.00
 -13   2  -6   14.10    5.90
 -13   1  -6  122.59   13.70
 -13   1  -6  121.59    9.30
 -13   0  -6  161.98   11.20
 -13   0  -6  140.99   15.10
 -13  -1  -6  116.19    9.20
  13   2   6   16.00    5.10
  13   3   6   45.30    9.20
  13   4   6    1.40    4.50
 -13   3  -7   15.70    6.60
 -13   3  -7    7.90    3.60
 -13   2  -7   32.50    5.80
 -13   2  -7   38.90    8.50
 -13   1  -7   30.00    7.40
 -13   1  -7   19.20    4.40
 -13   0  -7    7.40    5.40
 -13   0  -7    4.40    2.70
 -13  -1  -7   27.70    4.40
  13   1   7   23.40    6.10
  13   2   7   40.70    7.30
  13   3   7   14.40    5.70
 -13   3  -8   10.70    4.50
 -13   2  -8   -0.70    3.10
 -13   2  -8   -3.20    3.60
 -13   1  -8   61.09   11.60
 -13   1  -8   48.70    6.50
 -13   0  -8    2.20    2.40
 -13  -1  -8   53.59    6.40
  13   1   8   55.99    8.20
  13   2   8    1.40    3.30
  13   3   8   11.80    4.70
 -13   2  -9    2.60    3.30
 -13   1  -9    2.00    2.80
 -13   0  -9    7.20    3.00
  13   0   9    9.60    3.70
 -13  -1  -9    0.00    2.60
  13   1   9    7.20    4.10
 -13  -2  -9    3.10    2.60
  13   2   9    0.40    2.90
 -13   2 -10   12.70    4.10
  13  -2  10   16.00    4.70
 -13   1 -10    7.30    3.40
  13  -1  10   10.30    4.50
 -13   0 -10    6.90    3.30
  13   0  10    8.70    4.10
  13   1  10   15.50    5.30
 -13  -2 -10   23.50    5.00
  13   2  10   17.50    6.20
 -14   1   3    6.50    6.60
  14  -1  -3    8.80    5.80
 -14   0   3   -9.20    4.70
  14   0  -3    8.70    4.20
 -14  -1   3   12.60    6.40
  14   1  -3   16.90    5.50
 -14   2   2   11.00    7.30
 -14   1   2    2.10    5.50
  14  -1  -2    0.00    4.70
 -14   0   2  100.59   13.10
  14   0  -2   70.69    8.20
 -14  -1   2    9.00    5.90
  14   1  -2    5.40    4.30
 -14  -2   2   -0.90    6.00
  14   2  -2    1.10    4.30
  14   2  -2    4.70    4.80
 -14   2   1   70.29   11.90
 -14   1   1    2.10    6.40
  14  -1  -1   10.00    6.50
 -14   0   1   40.60   10.40
  14   0  -1   55.49    7.10
 -14  -1   1   17.60    7.20
  14   1  -1   17.90    4.90
 -14  -2   1   82.49   13.10
  14   2  -1   77.39    8.80
 -14   3   0   28.60    9.60
 -14   2   0   25.40    8.40
 -14   1   0    5.40    5.10
 -14   0   0    2.40    4.40
  14   0   0    8.60    3.40
 -14  -1   0    2.10    4.10
  14   1   0   10.80    3.70
 -14  -2   0   34.50    9.80
  14   2   0   37.10    6.30
 -14  -3   0   44.90   11.50
  14   3   0   41.40    7.50
 -14   3  -1    1.40    5.60
 -14   2  -1    1.00    5.30
 -14   1  -1   12.20    6.00
 -14   0  -1    5.20    4.70
 -14  -1  -1   10.10    5.60
 -14  -2  -1    0.20    4.80
  14   2   1    8.40    3.60
  14   3   1    7.90    4.70
 -14   3  -2    1.10    2.90
 -14   3  -2    5.40    6.50
 -14   2  -2   32.70    4.50
 -14   2  -2   30.30    7.90
 -14   1  -2   15.20    7.00
 -14   0  -2    4.80    4.00
 -14  -1  -2   30.40    9.20
 -14  -2  -2   20.20    7.90
  14   3   2   -3.70    3.30
 -14   3  -3   12.00    6.10
 -14   3  -3   16.90    3.90
 -14   2  -3   15.90    3.60
 -14   2  -3   15.50    6.20
 -14   1  -3  106.89   13.70
 -14   1  -3  108.19    8.10
 -14   0  -3   -4.80    3.60
 -14  -1  -3  107.49   13.20
 -14  -2  -3   11.80    6.70
  14   3   3   25.20    6.70
 -14   3  -4   -3.20    5.50
 -14   3  -4   -0.90    3.20
 -14   2  -4   43.80    9.30
 -14   2  -4   35.30    5.00
 -14   1  -4   -2.90    4.30
 -14   1  -4    6.20    3.00
 -14   0  -4   49.80    5.90
 -14   0  -4   41.40   10.00
 -14  -1  -4   10.80    5.50
  14   3   4    0.10    3.60
 -14   3  -5   50.89    6.60
 -14   3  -5   56.39   11.70
 -14   2  -5    4.80    3.20
 -14   2  -5    5.10    4.80
 -14   1  -5   99.49   12.70
 -14   1  -5  104.19    8.30
 -14   0  -5    5.10    4.60
 -14   0  -5    7.90    2.60
 -14  -1  -5   92.89   12.30
  14   3   5   54.09    9.00
 -14   3  -6    2.90    3.40
 -14   3  -6    6.70    5.60
 -14   2  -6   39.60    9.10
 -14   2  -6   39.30    5.70
 -14   1  -6    6.90    6.00
 -14   1  -6    6.90    3.10
 -14   0  -6   27.40    5.30
 -14   0  -6   33.60    8.50
 -14  -1  -6    7.50    4.10
 -14  -1  -6    8.60    2.80
  14   2   6   47.90    8.30
  14   3   6    7.10    4.40
 -14   3  -7   10.20    4.40
 -14   3  -7   18.40    7.30
 -14   2  -7   40.10    6.10
 -14   2  -7   30.60    8.70
 -14   1  -7   25.60    7.80
 -14   1  -7   19.60    4.20
 -14   0  -7    6.80    4.90
 -14  -1  -7   24.20    4.70
  14   2   7   33.70    7.80
  14   3   7   13.90    6.30
 -14   2  -8    9.70    5.70
 -14   2  -8    3.40    3.40
 -14   1  -8    0.90    2.90
 -14   1  -8   -1.90    4.80
 -14   0  -8   37.40    5.60
 -14  -1  -8    0.60    2.40
  14   1   8    2.60    3.10
  14   2   8    2.90    3.70
 -14   2  -9   18.70    4.80
 -14   1  -9   -2.90    2.80
 -14   0  -9    9.00    3.40
  14   0   9   11.10    5.40
 -14  -1  -9    3.40    2.50
  14   1   9   -1.70    2.90
  14   2   9   27.80    7.00
 -14   0 -10    4.00    3.00
  14   0  10    4.30    3.40
 -15   1   1   10.80    6.90
  15  -1  -1   -1.00    4.90
 -15   0   1   22.40    8.40
  15   0  -1   17.90    4.80
 -15  -1   1    4.90    6.70
  15   1  -1   12.70    4.00
 -15   2   0    0.60    6.30
 -15   1   0   29.60    9.90
 -15   0   0    3.90    5.30
  15   0   0    4.80    3.90
 -15  -1   0   23.40    9.00
  15   1   0   36.40    5.00
 -15  -2   0   -1.80    4.90
  15   2   0   10.20    3.90
 -15   2  -1   18.10    7.30
 -15   1  -1   10.20    6.10
 -15   0  -1   31.50    9.00
  15   0   1   50.99    6.10
 -15  -1  -1    4.50    5.70
 -15  -2  -1   15.20    7.70
  15   2   1   35.10    4.80
 -15   2  -2   46.70   10.90
 -15   2  -2   47.10    5.00
 -15   1  -2    8.30    5.60
 -15   0  -2   -1.60    4.50
 -15  -1  -2   -3.30    4.80
 -15  -2  -2   45.40   11.00
 -15   3  -3   28.20    5.20
 -15   3  -3   33.10    8.90
 -15   2  -3   38.80    5.20
 -15   2  -3   30.10    8.40
 -15   1  -3   22.50    4.10
 -15   1  -3   26.70    8.10
 -15   0  -3    8.80    6.50
 -15  -1  -3   29.00    9.40
 -15  -2  -3   31.50    9.50
  15   3   3   34.00    7.60
 -15   3  -4    7.20    3.60
 -15   3  -4    4.90    7.00
 -15   2  -4   30.60    5.10
 -15   2  -4   40.30   10.20
 -15   1  -4    0.60    5.40
 -15   1  -4   13.80    3.90
 -15   0  -4   12.10    5.50
 -15  -1  -4   24.20    8.20
  15   3   4   10.10    4.40
 -15   2  -5    6.90    6.10
 -15   2  -5    5.20    3.60
 -15   1  -5   16.60    4.20
 -15   1  -5   16.00    6.80
 -15   0  -5   37.60    5.10
 -15   0  -5   28.10    8.50
 -15  -1  -5   17.10    7.90
 -15   2  -6   45.80    6.10
 -15   2  -6   36.00    9.30
 -15   1  -6   17.00    4.40
 -15   1  -6   14.30    6.80
 -15  -1  -6   20.50    8.60
  15   2   6   44.80    9.40
 -15   2  -7   15.70    7.50
 -15   2  -7   10.80    4.20
 -15   1  -7   65.99    7.50
 -15   1  -7   72.69   11.60
 -15   0  -7   19.90    7.30
 -15   0  -7   20.50    5.00
 -15  -1  -7   91.19    8.40
  15   2   7    7.30    5.00
 -15   1  -8   11.00    5.90
 -15   1  -8    4.90    3.30
 -15   0  -8    6.50    3.10
 -15  -1  -8    6.90    3.40
  15   1   8    6.40    4.30
  15   0   9    6.00    4.60
 -16   0  -1    6.10    6.50
 -16   1  -2   10.00    6.90
 -16   0  -2   -8.70    4.90
 -16  -1  -2   14.60    6.70
 -16   1  -3   -1.50    5.90
 -16   0  -3    0.80    5.30
 -16  -1  -3   -0.80    4.70
 -16   1  -4    8.10    3.20
 -16   1  -4    1.10    4.80
 -16   0  -4    3.00    6.00
 -16  -1  -4    1.00    5.00
 -16   1  -5   41.80    5.90
 -16   1  -5   29.70    8.30
 -16   0  -5   -1.10    4.80
 -16  -1  -5   26.10    8.20
 -16   1  -6   22.30    5.20
 -16   1  -6   23.00    8.00
 -16   0  -6   81.69   12.90
 -16   0  -6  106.39    9.10
 -16  -1  -6   27.50    9.50
 -16   0  -7    3.20    4.80
 -16   0  -7   -0.30    2.60
   0   0   0    0.00    0.00


_computing_structure_solution     'SHELXT 2014/5 (Sheldrick, 2014)'
_computing_structure_solution     'SHELXT 2014/5 (Sheldrick, 2014)'
;
_shelx_hkl_checksum              38695
_olex2_submission_special_instructions 'No special instructions were received'
loop_
_space_group_symop_operation_xyz
'x, y, z'
'-x, y+1/2, -z'
loop_
_atom_site_label
_atom_site_type_symbol
_atom_site_fract_x
_atom_site_fract_y
_atom_site_fract_z
_atom_site_U_iso_or_equiv
_atom_site_adp_type
_atom_site_occupancy
_atom_site_site_symmetry_order
_atom_site_calc_flag
_atom_site_refinement_flags_posn
_atom_site_refinement_flags_adp
_atom_site_refinement_flags_occupancy
_atom_site_disorder_assembly
_atom_site_disorder_group
S1 S -0.21235(14) 0.5203(3) 0.58067(10) 0.0484(4) Uani 1 1 d . . . . .
F1 F -0.0360(4) 1.1726(7) 0.8163(3) 0.0682(11) Uani 1 1 d . . . . .
F3 F 0.0788(3) 0.8581(9) 0.8903(3) 0.0677(11) Uani 1 1 d . . . . .
F2 F -0.0900(4) 0.9795(9) 0.9402(3) 0.0732(13) Uani 1 1 d . . . . .
O1 O -0.2317(5) 0.6568(11) 0.4727(4) 0.0733(14) Uani 1 1 d . . . . .
O2 O -0.1182(6) 0.3293(12) 0.5708(5) 0.0880(17) Uani 1 1 d . . . . .
O3 O -0.3307(5) 0.4461(13) 0.6016(4) 0.088(2) Uani 1 1 d . . . . .
O4 O -0.6622(4) 0.6129(9) 0.8390(3) 0.0588(13) Uani 1 1 d . . . . .
C1 C -0.1482(4) 0.7945(9) 0.7660(4) 0.0327(10) Uani 1 1 d . . . . .
C2 C -0.1092(4) 0.7238(11) 0.6809(4) 0.0386(11) Uani 1 1 d . . . . .
C8 C -0.2831(4) 0.7409(10) 0.7864(4) 0.0343(10) Uani 1 1 d . . . . .
C7 C -0.2932(5) 0.5524(11) 0.8534(4) 0.0422(12) Uani 1 1 d . . . . .
H7 H -0.2154 0.4560 0.8854 0.051 Uiso 1 1 calc R U . . .
C6 C -0.4179(5) 0.5024(12) 0.8744(4) 0.0423(11) Uani 1 1 d . . . . .
H6 H -0.4237 0.3750 0.9206 0.051 Uiso 1 1 calc R U . . .
C5 C -0.5324(5) 0.6452(12) 0.8255(4) 0.0409(12) Uani 1 1 d . . . . .
C4 C -0.5233(5) 0.8407(12) 0.7597(4) 0.0452(13) Uani 1 1 d . . . . .
H4 H -0.6004 0.9393 0.7288 0.054 Uiso 1 1 calc R U . . .
C3 C -0.3989(5) 0.8869(11) 0.7406(4) 0.0416(12) Uani 1 1 d . . . . .
H3 H -0.3922 1.0178 0.6965 0.050 Uiso 1 1 calc R U . . .
C10 C -0.0478(6) 0.9518(12) 0.8537(4) 0.0457(13) Uani 1 1 d . . . . .
C11 C 0.0234(5) 0.7866(15) 0.6571(5) 0.0567(18) Uani 1 1 d . . . . .
H11A H 0.0859 0.6505 0.6748 0.085 Uiso 1 1 calc R U . . .
H11B H 0.0665 0.9238 0.7010 0.085 Uiso 1 1 calc R U . . .
H11C H 0.0027 0.8259 0.5805 0.085 Uiso 1 1 calc R U . . .
C12 C -0.3386(7) 0.8558(16) 0.4497(7) 0.088(3) Uani 1 1 d . . . . .
H12A H -0.2924 1.0098 0.4677 0.132 Uiso 1 1 calc R U . . .
H12B H -0.3992 0.8314 0.4937 0.132 Uiso 1 1 calc R U . . .
H12C H -0.3924 0.8536 0.3731 0.132 Uiso 1 1 calc R U . . .
C9 C -0.6784(6) 0.4143(16) 0.9049(6) 0.0674(19) Uani 1 1 d . . . . .
H9A H -0.6509 0.2670 0.8772 0.101 Uiso 1 1 calc R U . . .
H9B H -0.7744 0.4024 0.9023 0.101 Uiso 1 1 calc R U . . .
H9C H -0.6210 0.4393 0.9797 0.101 Uiso 1 1 calc R U . . .
loop_
_atom_site_aniso_label
_atom_site_aniso_U_11
_atom_site_aniso_U_22
_atom_site_aniso_U_33
_atom_site_aniso_U_23
_atom_site_aniso_U_13
_atom_site_aniso_U_12
S1 0.0665(8) 0.0437(7) 0.0382(6) -0.0061(7) 0.0208(5) -0.0057(8)
F1 0.079(2) 0.050(2) 0.066(2) -0.003(2) 0.0093(19) -0.016(2)
F3 0.0475(17) 0.085(3) 0.057(2) -0.011(2) -0.0043(14) 0.010(2)
F2 0.079(2) 0.095(4) 0.0547(19) -0.035(2) 0.0338(16) -0.030(3)
O1 0.089(3) 0.081(4) 0.051(2) -0.008(3) 0.023(2) -0.006(3)
O2 0.112(4) 0.077(4) 0.087(4) -0.022(3) 0.048(3) 0.020(4)
O3 0.081(3) 0.111(5) 0.086(3) -0.059(4) 0.049(3) -0.050(3)
O4 0.0388(18) 0.078(3) 0.065(2) 0.020(2) 0.0242(17) 0.002(2)
C1 0.034(2) 0.032(3) 0.033(2) 0.001(2) 0.0113(17) 0.002(2)
C2 0.035(2) 0.043(3) 0.036(2) -0.005(2) 0.0100(18) -0.003(2)
C8 0.035(2) 0.039(3) 0.029(2) -0.003(2) 0.0111(17) 0.001(2)
C7 0.038(2) 0.045(3) 0.042(2) 0.007(3) 0.0118(19) 0.008(2)
C6 0.049(2) 0.041(3) 0.040(2) 0.011(3) 0.0177(19) 0.006(3)
C5 0.038(2) 0.049(3) 0.039(3) 0.001(2) 0.017(2) 0.003(2)
C4 0.039(2) 0.051(3) 0.046(3) 0.009(3) 0.014(2) 0.014(3)
C3 0.046(3) 0.040(3) 0.042(3) 0.013(2) 0.020(2) 0.006(2)
C10 0.048(3) 0.051(4) 0.041(3) 0.001(2) 0.017(2) 0.003(3)
C11 0.043(3) 0.086(6) 0.046(3) 0.003(3) 0.022(2) 0.000(3)
C12 0.069(4) 0.070(5) 0.093(5) -0.028(5) -0.019(4) 0.020(4)
C9 0.060(3) 0.076(5) 0.081(4) 0.008(4) 0.043(3) -0.006(4)
loop_
_atom_type_symbol
_atom_type_description
_atom_type_scat_dispersion_real
_atom_type_scat_dispersion_imag
_atom_type_scat_source
C C 0.0033 0.0016 'International Tables Vol C Tables 4.2.6.8 and 6.1.1.4'
H H 0.0000 0.0000 'International Tables Vol C Tables 4.2.6.8 and 6.1.1.4'
F F 0.0171 0.0103 'International Tables Vol C Tables 4.2.6.8 and 6.1.1.4'
O O 0.0106 0.0060 'International Tables Vol C Tables 4.2.6.8 and 6.1.1.4'
S S 0.1246 0.1234 'International Tables Vol C Tables 4.2.6.8 and 6.1.1.4'
loop_
_geom_angle_atom_site_label_1
_geom_angle_atom_site_label_2
_geom_angle_atom_site_label_3
_geom_angle
_geom_angle_site_symmetry_1
_geom_angle_site_symmetry_3
_geom_angle_publ_flag
O1 S1 C2 102.8(3) . . ?
O2 S1 O1 100.5(3) . . ?
O2 S1 C2 105.6(3) . . ?
O3 S1 O1 116.8(3) . . ?
O3 S1 O2 115.9(4) . . ?
O3 S1 C2 113.6(3) . . ?
C12 O1 S1 114.7(5) . . ?
C5 O4 C9 117.4(4) . . ?
C2 C1 C8 127.2(4) . . ?
C2 C1 C10 118.1(4) . . ?
C8 C1 C10 114.7(4) . . ?
C1 C2 S1 121.4(4) . . ?
C1 C2 C11 127.5(5) . . ?
C11 C2 S1 111.1(4) . . ?
C7 C8 C1 120.5(4) . . ?
C7 C8 C3 119.1(4) . . ?
C3 C8 C1 120.4(5) . . ?
C8 C7 H7 119.4 . . ?
C8 C7 C6 121.2(5) . . ?
C6 C7 H7 119.4 . . ?
C7 C6 H6 120.7 . . ?
C5 C6 C7 118.7(5) . . ?
C5 C6 H6 120.7 . . ?
O4 C5 C4 114.8(5) . . ?
C6 C5 O4 124.2(5) . . ?
C6 C5 C4 121.0(4) . . ?
C5 C4 H4 120.4 . . ?
C3 C4 C5 119.2(5) . . ?
C3 C4 H4 120.4 . . ?
C8 C3 H3 119.6 . . ?
C4 C3 C8 120.9(5) . . ?
C4 C3 H3 119.6 . . ?
F1 C10 C1 111.7(4) . . ?
F3 C10 F1 107.5(5) . . ?
F3 C10 C1 112.7(5) . . ?
F2 C10 F1 106.6(5) . . ?
F2 C10 F3 106.2(5) . . ?
F2 C10 C1 111.7(4) . . ?
C2 C11 H11A 109.5 . . ?
C2 C11 H11B 109.5 . . ?
C2 C11 H11C 109.5 . . ?
H11A C11 H11B 109.5 . . ?
H11A C11 H11C 109.5 . . ?
H11B C11 H11C 109.5 . . ?
O1 C12 H12A 109.5 . . ?
O1 C12 H12B 109.5 . . ?
O1 C12 H12C 109.5 . . ?
H12A C12 H12B 109.5 . . ?
H12A C12 H12C 109.5 . . ?
H12B C12 H12C 109.5 . . ?
O4 C9 H9A 109.5 . . ?
O4 C9 H9B 109.5 . . ?
O4 C9 H9C 109.5 . . ?
H9A C9 H9B 109.5 . . ?
H9A C9 H9C 109.5 . . ?
H9B C9 H9C 109.5 . . ?
loop_
_geom_bond_atom_site_label_1
_geom_bond_atom_site_label_2
_geom_bond_distance
_geom_bond_site_symmetry_2
_geom_bond_publ_flag
S1 O1 1.529(5) . ?
S1 O2 1.449(6) . ?
S1 O3 1.364(5) . ?
S1 C2 1.774(5) . ?
F1 C10 1.325(8) . ?
F3 C10 1.321(6) . ?
F2 C10 1.310(6) . ?
O1 C12 1.501(9) . ?
O4 C5 1.384(5) . ?
O4 C9 1.420(8) . ?
C1 C2 1.324(6) . ?
C1 C8 1.493(6) . ?
C1 C10 1.524(7) . ?
C2 C11 1.501(6) . ?
C8 C7 1.369(7) . ?
C8 C3 1.388(7) . ?
C7 H7 0.9300 . ?
C7 C6 1.394(7) . ?
C6 H6 0.9300 . ?
C6 C5 1.376(7) . ?
C5 C4 1.387(8) . ?
C4 H4 0.9300 . ?
C4 C3 1.374(7) . ?
C3 H3 0.9300 . ?
C11 H11A 0.9600 . ?
C11 H11B 0.9600 . ?
C11 H11C 0.9600 . ?
C12 H12A 0.9600 . ?
C12 H12B 0.9600 . ?
C12 H12C 0.9600 . ?
C9 H9A 0.9600 . ?
C9 H9B 0.9600 . ?
C9 H9C 0.9600 . ?
loop_
_geom_torsion_atom_site_label_1
_geom_torsion_atom_site_label_2
_geom_torsion_atom_site_label_3
_geom_torsion_atom_site_label_4
_geom_torsion
_geom_torsion_site_symmetry_1
_geom_torsion_site_symmetry_2
_geom_torsion_site_symmetry_3
_geom_torsion_site_symmetry_4
_geom_torsion_publ_flag
O1 S1 C2 C1 126.3(5) . . . . ?
O1 S1 C2 C11 -56.4(5) . . . . ?
O2 S1 O1 C12 173.5(5) . . . . ?
O2 S1 C2 C1 -128.8(5) . . . . ?
O2 S1 C2 C11 48.5(5) . . . . ?
O3 S1 O1 C12 47.3(6) . . . . ?
O3 S1 C2 C1 -0.8(6) . . . . ?
O3 S1 C2 C11 176.5(5) . . . . ?
O4 C5 C4 C3 -179.5(5) . . . . ?
C1 C8 C7 C6 179.0(5) . . . . ?
C1 C8 C3 C4 -179.4(5) . . . . ?
C2 S1 O1 C12 -77.7(5) . . . . ?
C2 C1 C8 C7 96.8(6) . . . . ?
C2 C1 C8 C3 -85.5(7) . . . . ?
C2 C1 C10 F1 69.8(6) . . . . ?
C2 C1 C10 F3 -51.4(7) . . . . ?
C2 C1 C10 F2 -170.9(5) . . . . ?
C8 C1 C2 S1 -6.3(8) . . . . ?
C8 C1 C2 C11 176.9(5) . . . . ?
C8 C1 C10 F1 -109.3(5) . . . . ?
C8 C1 C10 F3 129.6(5) . . . . ?
C8 C1 C10 F2 10.1(7) . . . . ?
C8 C7 C6 C5 0.6(8) . . . . ?
C7 C8 C3 C4 -1.6(8) . . . . ?
C7 C6 C5 O4 179.4(5) . . . . ?
C7 C6 C5 C4 -2.3(8) . . . . ?
C6 C5 C4 C3 2.0(8) . . . . ?
C5 C4 C3 C8 0.0(8) . . . . ?
C3 C8 C7 C6 1.3(8) . . . . ?
C10 C1 C2 S1 174.7(4) . . . . ?
C10 C1 C2 C11 -2.1(9) . . . . ?
C10 C1 C8 C7 -84.2(6) . . . . ?
C10 C1 C8 C3 93.5(6) . . . . ?
C9 O4 C5 C6 -2.1(8) . . . . ?
C9 O4 C5 C4 179.5(6) . . . . ?
loop_
_twin_individual_id
_twin_individual_mass_fraction_refined
1 0.9(2)
2 0.1(2)
