#------------------------------------------------------------------------------
#$Date: 2021-10-07 11:35:34 +0300 (Thu, 07 Oct 2021) $
#$Revision: 269849 $
#$URL: file:///home/coder/svn-repositories/cod/cif/1/56/48/1564885.cif $
#------------------------------------------------------------------------------
#
# This file is available in the Crystallography Open Database (COD),
# http://www.crystallography.net/
#
# All data on this site have been placed in the public domain by the
# contributors.
#
data_1564885
loop_
_publ_author_name
'Murphy, Jaime M.'
'Gaertner, Andrea A.E.'
'Owen, Amanda M.'
'Struder, Samantha'
'McMillen, Colin D.'
'Wetzler, Modi'
'Brumaghim, Julia L.'
_publ_section_title
;
 Coordination complexes of methimazole with copper: Controlling redox
 reactions and sulfur extrusion
;
_journal_name_full               'Inorganica Chimica Acta'
_journal_page_first              119568
_journal_paper_doi               10.1016/j.ica.2020.119568
_journal_volume                  507
_journal_year                    2020
_chemical_absolute_configuration ad
_chemical_formula_sum            'C10 H13 Cu N5 O4 S2'
_chemical_formula_weight         394.91
_space_group_crystal_system      monoclinic
_space_group_IT_number           8
_space_group_name_Hall           'C -2y'
_space_group_name_H-M_alt        'C 1 m 1'
_atom_sites_solution_hydrogens   geom
_atom_sites_solution_primary     dual
_atom_sites_solution_secondary   difmap
_audit_creation_method           SHELXL-2016/6
_cell_angle_alpha                90
_cell_angle_beta                 99.2339(17)
_cell_angle_gamma                90
_cell_formula_units_Z            2
_cell_length_a                   12.6665(7)
_cell_length_b                   12.4100(7)
_cell_length_c                   4.8699(3)
_cell_measurement_reflns_used    3891
_cell_measurement_temperature    150(2)
_cell_measurement_theta_max      26.68
_cell_measurement_theta_min      3.26
_cell_volume                     755.59(8)
_computing_cell_refinement       'Bruker SAINT'
_computing_data_collection       'Bruker APEX3'
_computing_data_reduction        'Bruker SAINT'
_computing_molecular_graphics    'Bruker SHELXTL'
_computing_publication_material  'Bruker SHELXTL'
_computing_structure_refinement  'SHELXL-2016/6 (Sheldrick, 2016)'
_computing_structure_solution    'SHELXT 2014/5 (Sheldrick, 2014)'
_diffrn_ambient_temperature      150(2)
_diffrn_measured_fraction_theta_full 0.997
_diffrn_measured_fraction_theta_max 0.998
_diffrn_measurement_device_type  'Bruker D8 Quest Photon 100'
_diffrn_measurement_method       '\f and \w scans'
_diffrn_radiation_type           MoK\a
_diffrn_radiation_wavelength     0.71073
_diffrn_reflns_av_R_equivalents  0.0372
_diffrn_reflns_av_unetI/netI     0.0589
_diffrn_reflns_Laue_measured_fraction_full 0.997
_diffrn_reflns_Laue_measured_fraction_max 0.998
_diffrn_reflns_limit_h_max       15
_diffrn_reflns_limit_h_min       -15
_diffrn_reflns_limit_k_max       15
_diffrn_reflns_limit_k_min       -15
_diffrn_reflns_limit_l_max       6
_diffrn_reflns_limit_l_min       -6
_diffrn_reflns_number            4690
_diffrn_reflns_point_group_measured_fraction_full 0.989
_diffrn_reflns_point_group_measured_fraction_max 0.987
_diffrn_reflns_theta_full        25.242
_diffrn_reflns_theta_max         26.499
_diffrn_reflns_theta_min         3.259
_diffrn_source                   'fine focus sealed tube'
_exptl_absorpt_coefficient_mu    1.746
_exptl_absorpt_correction_T_max  1.0000
_exptl_absorpt_correction_T_min  0.8799
_exptl_absorpt_correction_type   multi-scan
_exptl_absorpt_process_details   'Bruker, SADABS'
_exptl_crystal_colour            blue
_exptl_crystal_density_diffrn    1.736
_exptl_crystal_density_meas      .
_exptl_crystal_density_method    .
_exptl_crystal_description       column
_exptl_crystal_F_000             402
_exptl_crystal_size_max          0.212
_exptl_crystal_size_mid          0.044
_exptl_crystal_size_min          0.042
_exptl_transmission_factor_max   .
_exptl_transmission_factor_min   .
_refine_diff_density_max         0.550
_refine_diff_density_min         -0.405
_refine_diff_density_rms         0.076
_refine_ls_abs_structure_details
;
 Flack x determined using 616 quotients [(I+)-(I-)]/[(I+)+(I-)]
 (Parsons, Flack and Wagner, Acta Cryst. B69 (2013) 249-259).
;
_refine_ls_abs_structure_Flack   0.054(10)
_refine_ls_extinction_coef       .
_refine_ls_extinction_method     none
_refine_ls_goodness_of_fit_ref   0.966
_refine_ls_hydrogen_treatment    constr
_refine_ls_matrix_type           full
_refine_ls_number_parameters     114
_refine_ls_number_reflns         1609
_refine_ls_number_restraints     8
_refine_ls_restrained_S_all      0.965
_refine_ls_R_factor_all          0.0402
_refine_ls_R_factor_gt           0.0339
_refine_ls_shift/su_max          0.000
_refine_ls_shift/su_mean         0.000
_refine_ls_structure_factor_coef Fsqd
_refine_ls_weighting_details
'w=1/[\s^2^(Fo^2^)+(0.0270P)^2^] where P=(Fo^2^+2Fc^2^)/3'
_refine_ls_weighting_scheme      calc
_refine_ls_wR_factor_gt          0.0583
_refine_ls_wR_factor_ref         0.0602
_reflns_Friedel_coverage         0.969
_reflns_Friedel_fraction_full    0.980
_reflns_Friedel_fraction_max     0.975
_reflns_number_gt                1461
_reflns_number_total             1609
_reflns_threshold_expression     'I > 2\s(I)'
_cod_data_source_file            9.cif
_cod_data_source_block           9
_cod_original_sg_symbol_H-M      'C m'
_cod_database_code               1564885
_shelx_shelxl_version_number     2016/6
_shelx_space_group_comment
;
The symmetry employed for this shelxl refinement is uniquely defined
by the following loop, which should always be used as a source of
symmetry information in preference to the above space-group names.
They are only intended as comments.
;
_shelx_estimated_absorpt_t_min   0.709
_shelx_estimated_absorpt_t_max   0.930
_exptl_absorpt_special_details   .
_shelx_res_file
;
TITL q-1118_a.res in Cm
    q-1118_a.res
    created by SHELXL-2016/6 at 14:37:10 on 07-Aug-2019
REM Old TITL q-1118 in C2
REM SHELXT solution in Cm
REM R1 0.076,  Rweak 0.041,  Alpha 0.001,  Orientation as input
REM Flack x =  0.070 ( 0.011 ) from Parsons' quotients
REM Formula found by SHELXT:  C11 Cu N3 O4 S2
CELL  0.71073  12.6665  12.4100   4.8699   90.000   99.2339   90.000
ZERR    2.000   0.0007   0.0007   0.0003    0.000    0.0017    0.000
LATT -7
SYMM X, -Y, Z
SFAC C H CU N O S
UNIT 20 26 2 10 8 4
TEMP -123
SIZE 0.042 0.044 0.212
L.S. 10
BOND $H
LIST 4
ACTA
ISOR 0.007 C5
FMAP 2
EQIV $4 x+1/2, y+1/2, z
HTAB C2 O2_$4
EQIV $5 x+1/2, y+1/2, z-1
HTAB C4 O3_$5
HTAB C6 O2
OMIT 2 0 0
OMIT -3 53
PLAN 20
WGHT    0.027000
FVAR       0.59967
CU1   3    0.623153    0.500000    0.408479    10.50000    0.02194    0.01607 =
         0.01866    0.00000    0.00794    0.00000
S1    6    0.823887    0.500000   -0.035080    10.50000    0.03646    0.02520 =
         0.02368    0.00000    0.01442    0.00000
S2    6    0.482269    0.500000    0.733597    10.50000    0.01872    0.01929 =
         0.01245    0.00000    0.00392    0.00000
O1    5    0.538347    0.405971    0.624333    11.00000    0.02533    0.01458 =
         0.02441    0.00138    0.00965    0.00192
O2    5    0.370049    0.500000    0.619930    10.50000    0.01879    0.02635 =
         0.02446    0.00000    0.00102    0.00000
O3    5    0.497835    0.500000    1.035196    10.50000    0.02850    0.04175 =
         0.01009    0.00000    0.00116    0.00000
N1    4    0.718075    0.615263    0.319166    11.00000    0.02043    0.01422 =
         0.02645   -0.00096    0.00673    0.00136
N2    4    0.854683    0.699271    0.192298    11.00000    0.02180    0.02030 =
         0.02657    0.00640   -0.00093   -0.00543
C1    1    0.797207    0.607523    0.173681    11.00000    0.02452    0.01399 =
         0.02166    0.00341    0.00202   -0.00079
C2    1    0.809550    0.769376    0.358453    11.00000    0.03072    0.01656 =
         0.03261   -0.00151   -0.00360   -0.00226
AFIX  43
H2    2    0.832167    0.840789    0.407463    11.00000   -1.20000
AFIX   0
C3    1    0.726787    0.716340    0.437695    11.00000    0.02976    0.01995 =
         0.02922   -0.00383    0.00233   -0.00050
AFIX  43
H3    2    0.681201    0.744386    0.557414    11.00000   -1.20000
AFIX   0
C4    1    0.950664    0.720574    0.071816    11.00000    0.02574    0.03900 =
         0.03766    0.00996    0.00658   -0.01257
AFIX 137
H4A   2    1.004277    0.664970    0.132578    11.00000   -1.50000
H4B   2    0.979458    0.791402    0.133374    11.00000   -1.50000
H4C   2    0.932841    0.719685   -0.131575    11.00000   -1.50000
AFIX   0
N3    4    0.045531    0.500000    0.544346    10.50000    0.07718    0.17778 =
         0.05087    0.00000    0.01869    0.00000
C5    1    0.106971    0.500000    0.734219    10.50000    0.04383    0.05384 =
         0.03764    0.00000    0.01786    0.00000
C6    1    0.184866    0.500000    0.975937    10.50000    0.04762    0.14751 =
         0.04939    0.00000    0.02211    0.00000
PART -1
AFIX 137
H6A   2    0.188978    0.571872    1.060359    10.50000   -1.50000
H6B   2    0.254553    0.480893    0.926803    10.50000   -1.50000
H6C   2    0.165232    0.447235    1.108721    10.50000   -1.50000
PART 0
AFIX   0
HKLF 4
REM  q-1118_a.res in Cm
REM R1 =  0.0339 for    1461 Fo > 4sig(Fo)  and  0.0402 for all    1609 data
REM    114 parameters refined using      8 restraints
END
WGHT      0.0191      0.0000
REM Highest difference peak  0.550,  deepest hole -0.405,  1-sigma level  0.076
Q1    1   0.8062  0.5000 -0.2394  10.50000  0.05    0.37
Q2    1   0.3429  0.5000  0.8075  10.50000  0.05    0.31
Q3    1   0.6952  0.5000  0.5397  10.50000  0.05    0.29
Q4    1   0.0070  0.5000  0.5404  10.50000  0.05    0.28
Q5    1   0.1976  0.5000  0.7550  10.50000  0.05    0.28
Q6    1   0.6820  0.5000 -0.0801  10.50000  0.05    0.27
Q7    1   0.0639  0.5000  1.0748  10.50000  0.05    0.27
Q8    1   0.3440  0.5000  1.0350  10.50000  0.05    0.27
Q9    1   0.0799  0.5000  0.4601  10.50000  0.05    0.26
Q10   1   0.0637  0.5632  0.5995  11.00000  0.05    0.26
Q11   1   0.4448  0.5000  1.0361  10.50000  0.05    0.26
Q12   1   0.6958  0.6923  0.3353  11.00000  0.05    0.25
Q13   1   0.8389  0.5548  0.1185  11.00000  0.05    0.25
Q14   1   0.4008  0.5000  0.6190  10.50000  0.05    0.25
Q15   1   0.7457  0.5772  0.2390  11.00000  0.05    0.24
Q16   1   0.3984  0.5540  0.7175  11.00000  0.05    0.24
Q17   1   0.4360  0.5000  0.8216  10.50000  0.05    0.24
Q18   1   1.0343  0.7799  0.1121  11.00000  0.05    0.24
Q19   1   0.1247  0.5000  0.5746  10.50000  0.05    0.23
Q20   1   0.5820  0.8216  0.4706  11.00000  0.05    0.23
;
_shelx_res_checksum              43748
_shelx_hkl_file
;
   2   0   0    2.00    1.90
  -2   0   0    6.50    2.80
  -4   0   0  528.25   22.60
   4   0   0  430.46   22.30
  -4   0   0  540.95   23.70
   4   0   0  404.76   21.70
   4   0   0  408.16   22.90
  -4   0   0  523.75   22.60
  -6   0   0 1078.19   49.99
  -6   0   0 1051.29   50.89
  -6   0   0 1088.09   49.99
   6   0   0 1256.07   50.79
   6   0   0 1184.48   51.79
   6   0   0 1225.78   50.09
   8   0   0  624.84   34.70
   8   0   0  606.04   36.00
   8   0   0  626.64   32.90
  -8   0   0  644.14   38.70
  -8   0   0  698.93   36.70
 -10   0   0  471.35   32.00
  10   0   0  514.65   35.00
 -10   0   0  483.05   32.00
  12   0   0  419.36   37.60
 -12   0   0  398.96   33.60
 -12   0   0  394.46   34.70
 -14   0   0   54.19   17.90
  14   0   0   43.70   21.60
 -14   0   0   51.59   22.80
  -3  -1   0  687.63   28.60
  -3  -1   0  687.33   27.40
   3  -1   0  599.74   27.90
  -3  -1   0  667.83   28.10
   3  -1   0  561.44   28.20
  -3   1   0  699.83   28.90
   3   1   0  568.44   27.70
  -3   1   0  632.24   28.50
  -3   1   0  662.33   27.40
   3   1   0  612.34   28.20
  -3   1   0  650.43   28.00
   3   1   0  585.74   28.20
  -5  -1   0  287.37   17.50
   5  -1   0  304.07   17.40
  -5  -1   0  302.47   17.70
   5  -1   0  318.37   17.10
  -5  -1   0  289.67   16.60
  -5   1   0  274.97   16.20
  -5   1   0  283.97   18.00
  -5   1   0  301.37   17.90
   5   1   0  319.47   17.80
   5   1   0  307.77   17.90
   5   1   0  334.77   16.80
  -7  -1   0  625.94   33.40
   7  -1   0  704.53   32.40
  -7  -1   0  600.14   31.40
   7  -1   0  721.83   33.10
  -7  -1   0  608.44   32.50
  -7   1   0  610.24   31.40
   7   1   0  680.73   34.60
  -7   1   0  567.94   33.80
   7   1   0  692.93   33.80
  -7   1   0  610.04   32.30
   7   1   0  692.53   31.70
  -9  -1   0  898.41   45.00
   9  -1   0  847.32   47.00
   9  -1   0  879.01   45.10
  -9  -1   0  906.61   43.70
   9   1   0  925.91   51.69
   9   1   0  843.12   46.20
  -9   1   0  955.00   44.50
  -9   1   0  900.21   45.40
   9   1   0  805.62   42.30
 -11  -1   0  274.47   28.10
 -11  -1   0  312.57   29.00
  11  -1   0  319.97   32.20
 -11   1   0  331.07   27.90
  11   1   0  293.77   30.90
 -11   1   0  260.77   28.60
  13  -1   0  180.28   35.30
 -13  -1   0  123.89   30.60
 -13  -1   0  181.48   36.20
 -13   1   0  132.59   34.10
  13   1   0   97.99   34.10
 -13   1   0  138.69   28.90
 -15  -1   0  107.49   31.40
 -15  -1   0  101.19   39.10
  15  -1   0  141.79   47.70
  15   1   0  132.19   47.20
 -15   1   0  109.49   38.30
 -15   1   0  238.68   49.20
   2  -2   0 2839.82  109.89
  -2  -2   0 2853.11  108.69
   2  -2   0 2880.01  109.79
  -2   2   0 2563.04  109.69
   2   2   0 2758.02  108.49
  -2   2   0 2923.51  109.69
   2   2   0 2785.42  109.89
  -2   2   0 2780.52  109.69
   2   2   0 2499.15  108.49
  -4  -2   0  716.13   32.30
  -4  -2   0  729.23   31.40
   4  -2   0  625.64   31.20
  -4  -2   0  718.93   30.30
   4  -2   0  642.04   31.90
   4   2   0  639.84   31.10
  -4   2   0  720.83   30.40
   4   2   0  685.13   30.30
   4   2   0  683.93   32.10
  -4   2   0  686.73   30.30
  -4   2   0  728.83   32.10
  -6  -2   0  727.13   34.70
  -6  -2   0  712.13   36.60
   6  -2   0  819.82   36.50
  -6  -2   0  732.03   36.10
   6   2   0  838.62   34.80
   6   2   0  784.22   36.60
  -6   2   0  729.63   34.80
  -6   2   0  742.83   34.50
  -6   2   0  769.32   38.00
  -6   2   0  721.33   36.50
   6   2   0  786.22   37.30
   8  -2   0  661.23   37.40
  -8  -2   0  692.43   39.70
   8  -2   0  649.04   34.90
  -8  -2   0  664.63   36.00
  -8  -2   0  635.84   33.00
   8   2   0  622.64   35.70
  -8   2   0  665.63   33.10
  -8   2   0  646.14   32.90
   8   2   0  692.33   33.20
  -8   2   0  663.13   36.00
   8   2   0  638.64   36.00
 -10  -2   0  216.38   23.60
 -10  -2   0  235.38   24.30
  10  -2   0  177.98   24.70
 -10   2   0  245.48   25.10
 -10   2   0  189.38   21.70
  10   2   0  180.38   24.90
 -10   2   0  197.98   21.50
  12  -2   0   53.79   18.10
 -12  -2   0   68.59   25.90
 -12  -2   0   35.40   16.30
  12   2   0   88.49   29.70
 -12   2   0  100.49   29.70
 -14  -2   0  326.47   40.10
 -14  -2   0  295.27   46.60
  14  -2   0  263.97   71.09
  14   2   0  314.57   44.60
 -14   2   0  338.37   37.80
 -14   2   0  361.76   47.90
  -1  -3   0 1698.33   64.29
  -1  -3   0 1687.73   65.09
   1  -3   0 1540.25   64.99
   1  -3   0 1478.95   65.09
  -1  -3   0 1724.23   66.49
   1  -3   0 1581.14   65.79
   1   3   0 1558.64   66.19
   1   3   0 1475.65   64.89
  -1   3   0 1745.93   65.29
  -1   3   0 1713.93   66.09
  -1   3   0 1723.83   65.49
   1   3   0 1467.85   63.99
  -3  -3   0  198.98   11.10
   3  -3   0  144.99   11.90
   3  -3   0  152.98   11.00
  -3  -3   0  204.78   13.40
   3   3   0  136.59   10.40
   3   3   0  154.18   12.90
  -3   3   0  203.48   12.10
  -3   3   0  186.48   12.80
   5  -3   0 1600.24   68.89
  -5  -3   0 1616.54   67.19
   5  -3   0 1572.64   67.99
  -5  -3   0 1575.04   68.69
  -5  -3   0 1554.04   65.89
  -5   3   0 1566.84   66.39
  -5   3   0 1580.04   68.29
  -5   3   0 1562.24   68.39
   5   3   0 1599.54   67.39
   5   3   0 1671.83   69.09
   5   3   0 1665.13   66.09
  -5   3   0 1635.94   66.39
   7  -3   0 1659.73   71.99
  -7  -3   0 1550.64   70.69
   7  -3   0 1556.34   69.69
  -7  -3   0 1537.45   69.09
  -7  -3   0 1577.24   67.39
  -7   3   0 1620.14   67.49
  -7   3   0 1553.24   70.39
   7   3   0 1689.13   67.39
  -7   3   0 1581.74   67.69
   7   3   0 1577.94   70.79
   9  -3   0  476.65   33.50
  -9  -3   0  516.15   31.20
  -9  -3   0  520.65   33.10
   9   3   0  451.25   31.90
  -9   3   0  547.65   30.90
   9   3   0  475.55   28.20
  -9   3   0  548.05   33.70
  -9   3   0  469.65   28.00
  11  -3   0  150.98   27.50
 -11  -3   0  112.79   26.80
 -11  -3   0  123.89   25.80
  11   3   0  139.69   27.80
 -11   3   0  102.69   27.30
 -11   3   0  115.39   21.20
 -13  -3   0   47.80   17.40
  13  -3   0   13.90   18.00
 -13  -3   0   34.40   18.40
  13   3   0    5.50   19.50
 -13   3   0    5.90   13.80
 -13   3   0   37.70   20.50
  15  -3   0  352.56   52.89
 -15  -3   0  244.48   54.39
 -15  -3   0  385.36   45.30
 -15   3   0  287.27   39.80
 -15   3   0  291.77   55.09
  15   3   0  284.37   52.29
   0  -4   0 6433.96  253.47
   0  -4   0 6446.55  254.67
   0  -4   0 6548.64  255.27
   0   4   0 6423.96  253.37
   0   4   0 6664.43  255.27
   0   4   0 6590.14  254.97
   2  -4   0  167.18   11.70
   2  -4   0  171.18   11.90
   2  -4   0  175.28   12.90
   2   4   0  179.38   10.60
   2   4   0  184.38   11.60
   2   4   0  159.38   13.00
   4  -4   0  893.41   41.50
   4  -4   0  909.31   41.50
   4  -4   0  938.91   40.00
  -4  -4   0  897.01   39.20
  -4  -4   0  876.11   42.00
   4   4   0  884.21   39.40
   4   4   0  887.61   42.40
  -4   4   0  876.61   41.50
   4   4   0  908.61   39.00
  -4   4   0  926.31   39.50
  -4   4   0  874.31   40.90
  -6  -4   0 1687.53   72.29
   6  -4   0 1792.52   76.69
   6  -4   0 1791.82   75.79
  -6  -4   0 1717.33   73.69
   6   4   0 1836.52   72.59
  -6   4   0 1682.03   72.69
  -6   4   0 1672.13   75.79
   6   4   0 1806.62   74.29
  -6   4   0 1559.54   75.19
  -6   4   0 1784.22   72.89
   6   4   0 1816.92   76.89
  -8  -4   0  863.01   42.00
  -8  -4   0  861.71   44.90
  -8  -4   0  876.51   40.90
   8  -4   0  796.32   45.20
   8   4   0  787.22   42.80
  -8   4   0  854.51   45.50
   8   4   0  820.12   39.60
  -8   4   0  885.51   40.40
  -8   4   0  877.21   40.50
 -10  -4   0  102.19   21.90
 -10  -4   0  108.39   23.40
  10  -4   0   75.59   23.30
 -10   4   0   91.19   18.70
  10   4   0   90.59   23.10
 -10   4   0   83.79   24.10
  10   4   0   80.49   17.90
  12  -4   0   17.40   16.20
 -12  -4   0   23.50   16.00
 -12  -4   0   36.80   16.10
 -12   4   0    4.00   17.30
 -12   4   0    2.70   12.90
  12   4   0   21.40   15.90
 -14  -4   0  194.78   39.60
 -14  -4   0  198.98   46.40
  14  -4   0  155.08   43.70
  14   4   0  163.38   42.30
 -14   4   0  157.28   33.30
 -14   4   0  156.78   49.10
  -1  -5   0  178.18   14.00
  -1  -5   0  176.38   10.80
   1  -5   0  177.98   13.20
   1  -5   0  195.28   14.20
   1  -5   0  186.18   12.00
  -1  -5   0  186.58   11.10
  -1  -5   0  193.18   13.20
  -1   5   0  189.58   13.50
   1   5   0  196.48   13.10
  -1   5   0  179.18   13.50
   1   5   0  193.98   14.20
  -1   5   0  187.68   12.50
  -3  -5   0  187.58   11.60
   3  -5   0  188.18   15.10
  -3  -5   0  187.08   15.60
   3  -5   0  165.08   13.10
   3  -5   0  186.08   14.00
  -3   5   0  174.48   14.30
  -3   5   0  185.78   13.20
   3   5   0  173.68   12.90
   3   5   0  176.08   11.80
   3   5   0  165.38   15.80
   3   5   0  178.68   12.70
  -3   5   0  194.38   14.60
  -5  -5   0 1223.08   59.79
  -5  -5   0 1301.27   55.79
   5  -5   0 1319.47   56.19
   5  -5   0 1306.47   58.99
   5  -5   0 1334.47   59.19
   5   5   0 1329.57   55.99
  -5   5   0 1290.17   55.79
  -5   5   0 1218.68   58.09
   5   5   0 1318.97   55.49
   5   5   0 1398.06   55.89
  -5   5   0 1239.48   59.19
   7  -5   0  723.33   40.30
  -7  -5   0  728.93   35.40
  -7  -5   0  703.33   35.90
  -7  -5   0  689.33   40.30
  -7   5   0  738.13   40.20
  -7   5   0  732.83   34.80
   7   5   0  743.43   34.80
  -7   5   0  750.92   35.70
  -9  -5   0  978.40   47.40
   9  -5   0  964.80   53.09
  -9  -5   0  975.80   51.99
  -9   5   0  981.80   47.30
  -9   5   0  964.20   46.10
   9   5   0  919.31   45.40
  -9   5   0 1006.20   53.69
   9   5   0  944.41   49.99
  11  -5   0  113.59   28.20
 -11  -5   0  115.89   26.80
 -11   5   0  125.69   22.30
 -11   5   0   92.09   30.70
  11   5   0  108.29   28.60
 -13  -5   0  110.29   35.90
 -13  -5   0   42.80   19.90
  13  -5   0   62.79   22.10
 -13   5   0   20.40   16.40
 -13   5   0   54.29   22.00
  13   5   0   65.09   24.70
   0  -6   0 1584.24   67.09
   0  -6   0 1518.15   67.49
   0  -6   0 1624.44   65.09
   0   6   0 1545.05   67.39
   0   6   0 1597.14   67.39
  -2  -6   0  246.18   15.70
   2  -6   0  191.58   14.40
  -2  -6   0  249.28   13.30
   2  -6   0  180.38   16.50
   2  -6   0  193.28   15.30
  -2  -6   0  238.88   13.00
  -2   6   0  225.48   18.90
  -2   6   0  253.97   16.00
  -2   6   0  263.77   16.20
   2   6   0  176.98   16.50
   2   6   0  189.38   14.80
  -4  -6   0  794.82   42.30
   4  -6   0  873.31   44.20
   4  -6   0  883.01   39.80
   4  -6   0  813.82   41.80
  -4  -6   0  886.41   37.50
  -4   6   0  755.72   41.10
   4   6   0  866.31   38.60
   4   6   0  777.92   42.00
   4   6   0  873.31   37.90
   4   6   0  846.02   38.50
  -4   6   0  837.62   38.80
  -4   6   0  825.12   40.70
  -6  -6   0  888.71   41.50
   6  -6   0  903.61   46.00
  -6  -6   0  840.12   46.30
   6  -6   0  923.61   42.40
   6   6   0  899.81   42.20
   6   6   0  915.31   41.10
   6   6   0  982.70   41.80
  -6   6   0  857.01   46.10
  -6   6   0  843.02   41.40
   8  -6   0 1021.20   55.49
  -8  -6   0 1058.39   50.59
  -8  -6   0 1102.09   56.99
   8   6   0 1093.29   48.90
  -8   6   0 1036.60   50.19
   8   6   0 1021.90   52.09
  -8   6   0 1078.99   55.69
  -8   6   0 1086.69   49.60
 -10  -6   0   74.89   24.50
 -10  -6   0   94.19   27.10
  10   6   0   70.29   20.70
 -10   6   0   66.39   19.10
  10   6   0   71.49   24.90
 -10   6   0   51.29   20.20
 -12  -6   0   -5.80   17.10
  12  -6   0   15.50   17.30
 -12  -6   0    5.70   16.60
 -12   6   0    8.80   19.10
  12   6   0   20.70   18.40
 -14  -6   0  247.98   48.50
 -14  -6   0  173.68   43.00
  14  -6   0  129.29   48.00
 -14   6   0  193.88   51.09
 -14   6   0  150.38   33.80
  -1  -7   0  818.32   38.20
  -1  -7   0  813.02   40.50
  -1  -7   0  833.82   34.90
   1  -7   0  698.13   38.30
  -1  -7   0  816.22   34.90
   1  -7   0  743.23   35.70
  -1   7   0  820.72   36.30
  -1   7   0  769.72   37.90
   1   7   0  706.83   38.80
   1   7   0  751.82   37.50
  -1   7   0  794.72   39.00
  -3  -7   0   13.70    4.50
  -3  -7   0    7.80    7.90
   3  -7   0    6.20    5.20
   3  -7   0    5.00    5.10
  -3   7   0   -0.80    6.00
  -3   7   0    4.10    7.50
   3   7   0   16.30    6.30
  -3   7   0   16.80    7.40
   3   7   0   12.60    6.20
   5  -7   0  934.11   54.39
  -5  -7   0  926.11   49.50
  -5  -7   0  974.40   43.00
   5  -7   0  954.60   47.90
  -5   7   0  948.11   44.40
  -5   7   0  914.71   47.90
   5   7   0  943.91   44.20
   5   7   0 1011.80   44.10
   5   7   0  975.60   44.30
  -7  -7   0  745.13   44.80
  -7  -7   0  786.32   37.30
   7  -7   0  815.22   41.10
   7  -7   0  807.32   43.60
  -7   7   0  736.63   43.50
  -7   7   0  700.93   37.80
   7   7   0  691.83   43.50
   7   7   0  685.03   45.60
   7   7   0  782.42   37.30
   9  -7   0  349.96   32.50
  -9  -7   0  425.66   36.40
  -9   7   0  398.46   28.50
   9   7   0  344.47   26.00
   9   7   0  350.66   25.80
   9   7   0  306.47   31.30
  -9   7   0  418.66   36.10
 -11  -7   0  148.39   33.60
  11  -7   0  146.59   33.80
  11   7   0  152.78   35.20
 -11   7   0  109.69   25.10
 -11   7   0  143.79   26.00
  13  -7   0   -2.80   22.40
 -13  -7   0   32.30   33.10
  13   7   0   37.20   25.40
 -13   7   0   20.00   16.80
 -13   7   0   22.10   25.80
   0  -8   0 3144.39  125.69
   0  -8   0 3221.08  125.79
   0  -8   0 3010.60  128.89
   0  -8   0 2957.80  129.49
   0   8   0 3281.27  136.99
   0   8   0 3093.59  129.29
  -2  -8   0  153.38   21.00
  -2  -8   0  172.48   12.50
  -2  -8   0  179.28   12.80
   2  -8   0  181.38   14.80
   2  -8   0  173.78   19.60
  -2  -8   0  189.98   17.80
   2   8   0  195.78   17.50
  -2   8   0  158.18   18.80
  -2   8   0  153.18   17.30
  -2   8   0  159.68   17.00
   4  -8   0   68.49   16.00
   4  -8   0   43.70   16.70
  -4  -8   0   87.29   20.90
   4   8   0   44.30   14.10
  -4   8   0   58.79   16.60
  -4   8   0   40.80    8.30
   4   8   0   55.39   16.20
  -4   8   0   71.19   19.50
   6  -8   0  718.53   41.00
  -6  -8   0  650.53   34.50
  -6  -8   0  654.03   43.30
   6  -8   0  756.62   41.10
   6   8   0  754.02   36.60
   6   8   0  728.93   37.30
   6   8   0  747.53   36.70
  -6   8   0  669.23   42.30
  -6   8   0  643.14   36.90
  -8  -8   0  222.78   20.10
  -8  -8   0  241.98   30.70
   8  -8   0  199.58   28.20
   8  -8   0  209.58   28.20
  -8   8   0  228.68   29.70
   8   8   0  172.88   22.60
   8   8   0  175.68   26.20
 -10  -8   0  237.78   35.30
  10  -8   0  250.37   34.70
 -10   8   0  297.07   40.70
 -10   8   0  302.47   29.90
  10   8   0  297.37   35.20
  10   8   0  312.67   29.40
 -12  -8   0   90.99   25.20
 -12   8   0   92.69   18.90
 -12   8   0  115.49   41.90
  12   8   0  155.18   27.20
  12   8   0  181.38   44.50
  -1  -9   0 1351.16   56.39
  -1  -9   0 1243.28   62.49
   1  -9   0 1336.77   57.59
   1  -9   0 1289.17   62.09
  -1  -9   0 1304.57   56.39
   1   9   0 1317.47   61.29
  -1   9   0 1301.07   58.59
  -1   9   0 1292.07   61.59
  -3  -9   0   16.40    5.40
   3  -9   0   -3.80    8.80
  -3  -9   0   10.00    5.70
   3  -9   0    4.20    9.50
  -3  -9   0    9.60   11.10
  -3   9   0   21.20   10.30
  -3   9   0   21.10   10.30
   3   9   0   11.20    7.70
   5  -9   0   74.19   20.00
  -5  -9   0   61.49   13.10
   5  -9   0   48.80   13.60
  -5  -9   0   48.80   14.50
   5   9   0   69.09   17.90
  -5   9   0   40.30   12.60
   5   9   0   37.30   10.80
   7  -9   0  220.38   29.30
   7  -9   0  181.08   26.90
  -7  -9   0  173.68   18.20
  -7  -9   0  182.68   31.00
  -7   9   0  229.18   29.50
   7   9   0  185.78   25.70
   7   9   0  178.28   21.40
  -9  -9   0  483.15   43.30
   9  -9   0  535.05   42.30
   9   9   0  421.46   34.30
  -9   9   0  527.45   45.30
   9   9   0  536.15   40.90
 -11  -9   0  133.09   39.90
  11  -9   0   74.79   22.40
  11   9   0   87.99   24.30
 -11   9   0   61.89   44.80
  11   9   0  107.69   26.90
   0 -10   0 2987.80  120.69
   0 -10   0 2878.21  126.49
   0 -10   0 3004.60  120.59
   0  10   0 2909.11  125.39
  -2 -10   0   91.89   25.40
   2 -10   0   77.29   17.60
   2 -10   0   63.69   21.60
  -2 -10   0   78.49   12.70
  -2 -10   0   51.29   12.40
   2  10   0   80.59   19.20
  -2  10   0   96.19   22.00
  -2  10   0   75.69   19.90
   4 -10   0  145.99   22.30
  -4 -10   0  167.28   15.40
  -4 -10   0  126.59   28.90
  -4 -10   0  145.69   14.50
  -4  10   0  132.19   25.20
   4  10   0  119.59   20.30
  -6 -10   0  227.58   19.70
   6 -10   0  288.67   29.90
  -6 -10   0  221.58   34.30
   6 -10   0  268.27   33.20
   6  10   0  313.57   25.70
  -6  10   0  205.68   32.30
   8 -10   0  343.47   38.40
   8 -10   0  283.87   38.00
  -8 -10   0  330.97   39.10
   8  10   0  342.17   29.20
   8  10   0  353.36   35.00
  -8  10   0  317.27   40.00
  10 -10   0  102.99   36.80
 -10 -10   0   62.79   38.20
  10  10   0   44.70   23.20
  10  10   0   59.29   15.00
 -10  10   0  213.88   80.69
 -10  10   0   71.09   28.80
  12 -10   0  152.88   46.90
 -12 -10   0   82.69   27.00
  12  10   0  222.88   53.99
 -12  10   0  108.09   33.90
 -12  10   0  140.29   34.60
  -1 -11   0  647.34   43.90
  -1 -11   0  617.24   32.50
   1 -11   0  624.44   35.40
   1 -11   0  648.24   34.30
  -1 -11   0  643.54   32.40
   1 -11   0  595.54   43.00
   1  11   0  666.23   41.40
  -1  11   0  695.33   42.30
   3 -11   0  222.28   25.10
  -3 -11   0  234.28   18.50
  -3 -11   0  242.88   35.00
   3 -11   0  212.48   30.70
  -3 -11   0  237.88   18.00
   3  11   0  235.48   26.40
  -3  11   0  241.58   27.80
   5 -11   0  375.36   33.40
  -5 -11   0  396.56   23.70
  -5 -11   0  330.37   41.00
  -5 -11   0  356.16   23.40
   5 -11   0  344.37   36.50
   5  11   0  362.76   30.80
  -5  11   0  411.46   37.50
  -7 -11   0  213.68   37.30
   7 -11   0  255.17   33.90
   7 -11   0  236.98   41.30
  -7  11   0  238.98   35.60
   7  11   0  206.28   28.20
   9 -11   0   90.29   34.90
   9 -11   0   66.29   24.20
  -9 -11   0   83.99   28.30
   9  11   0   87.39   26.50
   9  11   0   60.89   23.90
  -9  11   0  138.49   48.60
 -11 -11   0   61.09   28.50
  11 -11   0  105.69   42.60
  11  11   0   79.29   28.70
 -11  11   0   46.20   19.50
 -11  11   0   64.69   30.40
   0 -12   0  537.05   31.10
   0 -12   0  516.85   32.90
   0 -12   0  595.64   45.30
   0  12   0  580.94   41.90
   2 -12   0  156.38   25.50
  -2 -12   0  236.78   19.40
  -2 -12   0  245.98   18.50
   2 -12   0  164.58   33.70
  -2 -12   0  232.58   35.40
   2  12   0  215.88   29.90
  -2  12   0  201.48   30.80
  -4 -12   0  136.59   38.60
   4 -12   0  150.08   27.60
  -4 -12   0  182.98   17.90
   4 -12   0  124.99   36.00
  -4  12   0  167.68   31.10
   4  12   0  150.88   27.10
   6 -12   0  336.27   45.50
  -6 -12   0  353.16   48.40
   6 -12   0  318.67   36.40
   6  12   0  361.56   33.90
  -6  12   0  279.27   43.00
   8 -12   0   71.59   25.30
   8 -12   0   92.79   36.80
  -8 -12   0   55.09   15.20
  -8  12   0   91.29   25.00
 -10 -12   0  131.79   52.99
  10 -12   0   23.50   24.00
 -10  12   0   62.59   31.00
  -1 -13   0  256.67   41.30
  -1 -13   0  261.37   24.00
   1 -13   0  259.67   40.90
  -1  13   0  280.77   35.90
   1  13   0  284.17   35.00
   3 -13   0  107.39   28.40
  -3 -13   0  108.09   16.00
   3 -13   0   66.59   21.90
  -3 -13   0   68.69   22.10
  -3  13   0   90.79   33.50
   3  13   0  130.09   31.70
  -5 -13   0   40.20   23.50
   5 -13   0   94.99   31.10
   5 -13   0   78.29   24.50
  -5  13   0  118.99   39.20
   5  13   0   90.69   30.60
   7 -13   0  235.58   41.50
   7 -13   0  285.67   56.49
  -7 -13   0  215.78   54.19
  -7  13   0  249.38   46.40
   0 -14   0  402.06   33.90
   0 -14   0  509.95   50.59
   0  14   0  495.45   45.70
   2 -14   0   32.40   15.30
   2 -14   0   31.80   22.90
  -2 -14   0   44.10   23.80
  -2  14   0   43.50   19.80
   2  14   0   35.60   18.40
   4 -14   0   48.00   25.20
  -4 -14   0   56.89   26.40
   4 -14   0   89.39   31.40
  -4  14   0   88.09   37.30
   4  14   0   76.89   21.50
  -6 -14   0  146.29   35.00
   6 -14   0  173.38   57.09
   6 -14   0  237.08   39.00
  -6  14   0  126.19   47.00
   6  14   0  214.78   37.80
  -1 -15   0   72.09   27.40
   1 -15   0  113.89   47.10
  -1  15   0   75.29   33.50
   1  15   0  164.18   40.70
   3 -15   0   20.90   17.80
   3 -15   0   -6.10   27.80
  -3 -15   0   17.60   28.10
   3  15   0    1.50   20.40
  -3  15   0   17.50   22.20
 -16   0   1   19.80   29.30
 -16   0   1   16.20   42.70
  16   0  -1  -31.90   25.40
 -14   0   1   -1.80   19.60
  14   0  -1    2.70   20.50
  12   0  -1  668.03   46.10
 -12   0   1  589.74   40.40
 -12   0   1  667.93   44.00
  10   0  -1  646.44   33.60
  10   0  -1  684.43   40.70
 -10   0   1  595.34   37.80
 -10   0   1  629.34   35.20
   8   0  -1  971.80   51.09
   8   0  -1 1094.99   54.59
  -8   0   1 1068.19   46.50
  -8   0   1 1027.10   50.79
   8   0  -1 1029.80   46.00
   6   0  -1   59.49    8.10
   6   0  -1   54.99   11.10
  -6   0   1   83.59   12.00
  -6   0   1   74.59   11.10
  -6   0   1   79.29    9.00
   6   0  -1   96.09   12.50
   4   0  -1  304.67   18.10
  -4   0   1  322.37   15.20
  -4   0   1  318.77   18.30
   4   0  -1  312.27   18.30
  -4   0   1  328.57   18.50
   4   0  -1  313.57   15.50
  -2   0   1    5.80    3.40
  -2   0   1    8.90    3.50
   2   0  -1    1.40    3.00
   2   0  -1    1.10    2.20
  -2   0   1    4.80    3.10
  -2   0   1    7.30    2.30
   0   0   1 1660.43   66.29
   0   0  -1 1642.94   66.09
   0   0  -1 1667.43   65.59
   0   0   1 1634.74   65.59
   0   0   1 1642.84   66.29
   2   0   1 9626.14  369.96
  -2   0  -1 9418.56  369.86
   2   0   1 9509.95  367.96
  -2   0  -1 9580.04  370.56
  -2   0  -1 9005.10  367.86
   2   0   1 9999.00  370.66
   4   0   1  690.23   33.10
  -4   0  -1  702.73   30.20
   4   0   1  670.23   32.80
  -4   0  -1  727.23   32.70
   4   0   1  713.63   30.30
  -4   0  -1  698.63   33.40
  -6   0  -1  878.81   40.60
   6   0   1  820.82   37.50
   6   0   1  775.02   40.40
  -6   0  -1  870.31   41.30
  -6   0  -1  882.61   37.60
   8   0   1  273.77   20.50
   8   0   1  277.27   23.10
  -8   0  -1  206.18   21.90
  -8   0  -1  214.08   16.50
  10   0   1  386.16   32.80
 -10   0  -1  381.86   32.60
  10   0   1  346.47   31.80
 -10   0  -1  390.06   26.30
 -12   0  -1  248.08   27.10
  12   0   1  258.67   36.50
 -12   0  -1  265.47   37.00
  14   0   1  228.58   56.19
 -14   0  -1  161.28   49.70
 -14   0  -1   90.29   31.70
 -15  -1   1   37.90   24.20
 -15  -1   1   31.40   20.90
  15  -1  -1   -6.50   24.10
 -15   1   1  104.99   40.50
  15   1  -1    9.40   22.10
 -15   1   1   -3.50   23.30
  13  -1  -1  191.88   33.90
 -13  -1   1  239.68   32.60
 -13  -1   1  208.48   34.60
  13   1  -1  162.78   35.20
 -13   1   1  199.28   31.90
 -13   1   1  210.28   34.50
 -11  -1   1  617.04   36.60
 -11  -1   1  639.54   41.30
 -11   1   1  674.33   41.20
  11   1  -1  662.23   43.30
 -11   1   1  645.94   38.30
  11   1  -1  599.24   33.90
  -9  -1   1  425.16   24.50
  -9  -1   1  398.46   29.30
   9  -1  -1  446.06   30.80
   9  -1  -1  439.96   25.70
   9   1  -1  466.15   23.60
   9   1  -1  433.66   30.50
  -9   1   1  407.56   28.00
  -9   1   1  399.36   28.80
  -7  -1   1  982.90   47.00
  -7  -1   1 1016.80   42.30
  -7  -1   1  979.20   47.10
   7  -1  -1  973.10   43.80
   7  -1  -1  913.91   47.30
  -7   1   1  939.01   46.80
  -7   1   1 1023.20   44.10
   7   1  -1  941.31   47.20
   7   1  -1  949.90   47.60
   7   1  -1  995.90   41.90
  -7   1   1 1017.20   47.30
  -7   1   1  993.70   46.10
  -5  -1   1  334.17   21.00
  -5  -1   1  358.06   16.80
   5  -1  -1  404.66   21.70
  -5  -1   1  346.47   21.00
  -5   1   1  336.67   20.70
   5   1  -1  400.16   21.90
  -5   1   1  333.67   20.40
   5   1  -1  412.56   22.00
  -5   1   1  334.97   18.50
   3  -1  -1 4195.28  163.18
  -3  -1   1 4139.89  163.28
  -3  -1   1 3928.91  162.98
   3  -1  -1 4171.48  161.68
   3   1  -1 4364.86  163.48
  -3   1   1 4079.29  161.68
   3   1  -1 4042.50  163.18
  -3   1   1 4150.18  162.98
  -3   1   1 4013.80  162.88
  -1  -1   1   24.90    6.10
   1  -1  -1   19.70    5.60
   1  -1  -1   26.00    4.80
  -1  -1   1   31.60    4.20
  -1  -1   1   15.90    4.70
  -1   1   1   25.70    5.30
   1   1  -1   22.40    5.60
  -1   1   1   28.70    5.80
   1   1  -1   24.30    5.40
  -1   1   1   26.00    5.10
   1   1  -1   19.70    4.30
  -1  -1  -1 5221.88  206.38
   1  -1   1 5186.48  207.68
   1  -1   1 5467.45  207.58
  -1  -1  -1 5147.29  207.68
  -1  -1  -1 5254.27  206.88
  -1   1  -1 5463.55  207.78
  -1   1  -1 5297.17  207.78
   1   1   1 5233.28  206.38
   1   1   1 5255.27  206.78
   1   1   1 5545.15  207.98
   3  -1   1 2894.61  116.29
  -3  -1  -1 2808.12  114.49
  -3  -1  -1 2824.52  114.99
   3  -1   1 2951.00  116.39
  -3  -1  -1 2756.82  116.19
   3   1   1 3086.79  115.59
   3   1   1 2961.10  116.19
  -3   1  -1 2790.82  116.39
   3   1   1 2960.60  114.49
  -3   1  -1 2841.02  116.19
  -5  -1  -1  457.65   22.10
   5  -1   1  396.26   24.20
  -5  -1  -1  450.75   22.90
   5  -1   1  387.26   24.00
   5  -1   1  399.56   19.80
  -5  -1  -1  466.55   24.60
  -5   1  -1  466.05   20.10
   5   1   1  396.56   22.90
   5   1   1  409.86   21.90
   5   1   1  376.16   23.50
  -5   1  -1  456.15   24.20
  -5   1  -1  475.05   25.00
   7  -1   1  135.29   18.80
   7  -1   1  160.28   14.20
  -7  -1  -1  163.68   14.10
  -7  -1  -1  165.38   15.90
  -7  -1  -1  203.18   19.90
  -7   1  -1  175.58   12.10
   7   1   1  144.59   15.90
   7   1   1  177.28   17.90
   7   1   1  161.78   16.00
  -7   1  -1  184.38   19.30
  -9  -1  -1  216.38   20.30
   9  -1   1  234.48   21.50
  -9  -1  -1  229.48   25.10
   9  -1   1  218.18   24.80
   9   1   1  206.88   23.80
   9   1   1  228.48   24.10
  -9   1  -1  211.58   16.90
  -9   1  -1  185.68   23.50
 -11  -1  -1  169.98   23.70
 -11  -1  -1  239.68   33.20
  11  -1   1  165.38   30.70
  11   1   1  166.78   29.60
 -11   1  -1  228.18   30.00
 -11   1  -1  165.68   22.30
 -13  -1  -1  207.38   42.30
  13  -1   1  163.88   39.70
 -13  -1  -1  164.58   32.10
  13   1   1  219.38   40.00
 -13   1  -1  216.38   27.20
 -13   1  -1  200.98   41.20
  15  -1   1   57.39   29.90
 -15  -1  -1   28.20   31.90
 -15  -1  -1   32.20   18.70
 -15   1  -1   31.30   21.90
  15   1   1   24.00   28.00
 -15   1  -1   38.70   30.90
 -14  -2   1   33.00   21.40
  14  -2  -1   68.09   24.10
 -14  -2   1   35.70   19.80
 -14   2   1   50.99   18.90
 -14   2   1   40.70   21.70
  14   2  -1   30.90   20.60
 -12  -2   1  668.33   44.60
 -12  -2   1  664.43   38.60
 -12   2   1  680.13   43.40
  12   2  -1  628.74   45.10
 -12   2   1  643.44   42.00
  12   2  -1  540.25   33.70
 -10  -2   1  489.95   29.20
  10  -2  -1  549.65   37.40
 -10  -2   1  526.85   35.90
 -10   2   1  499.35   34.00
  10   2  -1  565.64   36.90
  10   2  -1  567.24   27.50
 -10   2   1  493.85   34.20
  -8  -2   1  120.69   18.20
   8  -2  -1  170.78   15.70
   8  -2  -1  163.48   19.10
  -8  -2   1  138.09   12.50
  -8   2   1  146.89   18.80
   8   2  -1  143.99   18.80
  -8   2   1  142.09   16.90
   8   2  -1  170.88   11.70
  -8   2   1  173.88   17.90
  -6  -2   1  933.51   42.60
  -6  -2   1  849.41   46.30
   6  -2  -1  896.41   40.50
  -6   2   1  919.51   40.50
   6   2  -1  866.61   42.80
   6   2  -1  768.62   45.50
  -6   2   1  885.71   42.10
  -6   2   1  907.71   42.10
  -6   2   1  919.11   41.50
  -4  -2   1 1019.80   45.40
   4  -2  -1  984.80   45.10
   4  -2  -1 1066.09   44.50
   4  -2  -1 1011.10   45.20
  -4  -2   1 1033.00   46.00
   4   2  -1 1041.60   45.60
  -4   2   1 1020.00   45.00
   4   2  -1  999.90   45.40
  -4   2   1 1030.00   45.40
  -4   2   1 1024.10   44.30
   2  -2  -1  173.68   12.00
  -2  -2   1  214.58   12.70
   2  -2  -1  177.38   11.40
   2  -2  -1  177.48   12.80
  -2   2   1  224.78   11.70
  -2   2   1  226.38   12.60
   2   2  -1  173.98   12.10
   2   2  -1  169.88   12.60
  -2   2   1  224.08   13.10
   0  -2  -1 1782.32   77.69
   0  -2   1 2094.09   76.59
   0  -2   1 1972.20   78.19
   0  -2   1 1998.60   76.79
   0  -2   1 2053.79   78.39
   0  -2  -1 1689.43   75.39
   0   2   1 1937.31   77.99
   0   2  -1 1780.92   76.19
   0   2   1 1954.80   75.49
   0   2   1 2024.30   78.09
   0   2   1 2013.80   77.99
   0   2  -1 1788.32   76.69
  -2  -2  -1 5830.72  229.68
   2  -2   1 5767.92  230.68
  -2  -2  -1 5694.43  228.18
   2  -2   1 5845.92  230.18
  -2  -2  -1 5837.72  230.28
   2   2   1 5918.01  230.48
   2   2   1 5906.31  228.08
  -2   2  -1 5945.40  230.58
  -2   2  -1 6025.50  230.38
   2   2   1 5896.01  229.68
   4  -2   1 1448.26   61.39
  -4  -2  -1 1380.66   58.59
  -4  -2  -1 1383.76   59.59
  -4  -2  -1 1335.57   60.29
   4   2   1 1455.35   58.99
   4   2   1 1442.16   60.69
  -4   2  -1 1380.06   60.89
   4   2   1 1502.15   59.89
  -4   2  -1 1371.46   60.89
   6  -2   1  536.85   32.00
  -6  -2  -1  577.94   35.20
   6  -2   1  484.05   29.90
  -6  -2  -1  597.24   29.30
  -6  -2  -1  606.44   29.20
  -6   2  -1  607.44   32.40
  -6   2  -1  582.34   25.10
   6   2   1  537.65   29.20
   6   2   1  538.85   29.40
  -6   2  -1  539.45   30.70
  -6   2  -1  621.94   25.50
   6   2   1  535.55   29.90
  -8  -2  -1  963.50   47.00
   8  -2   1  987.70   50.49
  -8  -2  -1  984.70   49.40
   8   2   1 1005.80   48.60
  -8   2  -1  958.00   42.60
  -8   2  -1  931.01   42.10
  -8   2  -1  939.11   49.60
   8   2   1  977.60   47.70
 -10  -2  -1   15.20   10.50
 -10  -2  -1   13.10   14.00
  10  -2   1    7.80   12.30
 -10   2  -1   11.30    6.70
  10   2   1   11.10   13.10
 -10   2  -1    8.50   13.00
 -10   2  -1   12.10    7.30
  12  -2   1  277.47   38.90
 -12  -2  -1  318.07   39.70
 -12  -2  -1  330.77   33.60
 -12   2  -1  298.47   26.90
 -12   2  -1  276.97   37.60
  12   2   1  303.37   38.30
  14  -2   1   43.30   24.10
 -14  -2  -1   46.70   17.90
 -14  -2  -1   63.39   26.10
  14   2   1   37.20   27.10
 -14   2  -1   15.80   26.10
 -14   2  -1   18.70   13.50
  15  -3  -1   35.70   23.00
 -15  -3   1   43.90   40.50
 -15  -3   1   12.30   21.80
 -15   3   1   18.80   21.90
 -15   3   1   -8.90   26.60
  15   3  -1   31.50   25.60
 -13  -3   1  509.85   42.50
  13  -3  -1  328.47   42.10
 -13  -3   1  462.05   38.30
 -13   3   1  449.76   42.10
  13   3  -1  423.96   42.50
 -13   3   1  448.96   41.10
 -11  -3   1  194.78   28.10
  11  -3  -1  192.18   28.60
 -11  -3   1  207.58   21.00
  11   3  -1  210.48   29.00
 -11   3   1  214.08   26.30
 -11   3   1  185.98   29.20
  11   3  -1  196.58   17.00
   9  -3  -1  145.69   20.60
  -9  -3   1  108.39   13.70
  -9  -3   1  113.79   20.40
  -9   3   1  111.99   19.90
  -9   3   1  102.99   18.90
   9   3  -1  142.69   20.80
   9   3  -1  138.69   11.70
  -7  -3   1  543.15   32.40
   7  -3  -1  570.04   30.00
  -7  -3   1  482.95   30.00
  -7   3   1  543.45   30.20
  -7   3   1  555.64   30.90
  -7   3   1  527.85   30.10
   7   3  -1  555.44   31.80
  -5  -3   1 1554.34   65.89
  -5  -3   1 1474.25   66.59
   5  -3  -1 1524.35   65.89
   5  -3  -1 1492.75   65.69
   5  -3  -1 1559.84   65.29
  -5   3   1 1512.25   64.99
  -5   3   1 1593.24   65.89
   5   3  -1 1472.35   65.79
   5   3  -1 1485.85   66.39
  -5   3   1 1563.54   65.59
  -3  -3   1 4303.17  175.08
   3  -3  -1 4461.15  173.88
  -3  -3   1 4340.27  174.48
   3  -3  -1 4446.56  174.48
   3  -3  -1 4521.55  175.38
  -3   3   1 4364.46  174.78
  -3   3   1 4337.27  174.48
   3   3  -1 4479.25  174.98
   3   3  -1 4344.47  174.68
  -3   3   1 4393.06  173.58
  -1  -3   1  205.98   12.90
   1  -3  -1  204.08   10.60
  -1  -3   1  212.08   13.50
   1  -3  -1  204.68   13.20
  -1   3   1  205.68   10.40
  -1   3   1  198.18   13.40
   1   3  -1  218.58   12.80
  -1   3   1  206.78   13.50
   1   3  -1  183.98   13.20
   1   3  -1  197.48   10.90
   1  -3   1   62.89    6.20
   1  -3   1   54.39    8.30
   1  -3   1   70.19    8.30
   1   3   1   58.69    8.80
   1   3   1   64.59    8.80
   1   3   1   55.99    8.60
  -3  -3  -1 1585.54   63.19
  -3  -3  -1 1515.55   66.09
  -3  -3  -1 1601.84   66.49
   3  -3   1 1551.04   66.99
  -3   3  -1 1546.15   66.89
   3   3   1 1565.04   63.29
   3   3   1 1557.04   66.29
   3   3   1 1609.44   66.39
  -3   3  -1 1594.64   66.99
  -5  -3  -1  489.65   23.10
  -5  -3  -1  484.55   25.50
  -5  -3  -1  459.65   25.50
   5  -3   1  448.66   27.90
   5  -3   1  421.76   25.60
  -5   3  -1  455.75   26.40
  -5   3  -1  439.36   26.70
   5   3   1  447.06   25.40
   5   3   1  441.96   23.10
   5   3   1  445.96   25.40
   7  -3   1  480.65   31.20
  -7  -3  -1  456.15   29.00
  -7  -3  -1  471.85   28.80
  -7  -3  -1  459.55   26.30
  -7   3  -1  456.05   30.10
   7   3   1  509.95   28.80
  -7   3  -1  459.85   22.20
   7   3   1  488.05   29.60
  -7   3  -1  487.85   22.40
  -9  -3  -1  272.87   27.10
  -9  -3  -1  267.97   25.80
   9  -3   1  316.27   28.80
  -9   3  -1  272.17   29.00
  -9   3  -1  273.57   18.20
  -9   3  -1  253.77   17.60
   9   3   1  313.17   26.30
 -11  -3  -1  344.77   36.10
  11  -3   1  293.07   35.20
 -11  -3  -1  327.47   30.90
 -11   3  -1  311.57   35.30
  11   3   1  291.07   33.60
 -11   3  -1  301.97   21.30
 -11   3  -1  241.58   21.50
  13  -3   1   26.80   20.60
 -13  -3  -1   -8.90   21.00
 -13  -3  -1   35.00   17.40
 -13   3  -1   19.80   21.40
 -13   3  -1   11.20   12.30
  13   3   1   14.70   21.00
  14  -4  -1   72.09   25.20
 -14  -4   1  152.88   35.30
 -14  -4   1  132.49   40.20
 -14   4   1   57.79   22.60
 -14   4   1   74.39   21.30
  14   4  -1  117.69   39.30
  12  -4  -1  488.25   42.90
 -12  -4   1  549.54   43.40
 -12  -4   1  517.95   34.40
 -12   4   1  534.45   45.60
  12   4  -1  493.95   42.80
 -12   4   1  603.34   40.80
 -10  -4   1  104.89   15.80
 -10  -4   1  113.49   24.50
  10   4  -1  149.09   24.10
 -10   4   1  121.39   25.00
 -10   4   1  119.59   22.10
   8  -4  -1  157.68   20.20
  -8  -4   1  162.98   21.60
   8   4  -1  202.58   21.20
  -8   4   1  168.08   20.40
  -8   4   1  163.28   19.50
  -6  -4   1  578.54   31.90
   6  -4  -1  461.35   29.90
   6  -4  -1  495.05   29.80
   6  -4  -1  470.35   28.70
  -6  -4   1  553.14   29.10
  -6   4   1  549.35   29.70
   6   4  -1  459.65   29.10
  -6   4   1  558.94   28.90
  -6   4   1  539.75   29.10
   4  -4  -1 1620.84   69.99
  -4  -4   1 1634.64   70.99
   4  -4  -1 1703.83   69.59
  -4  -4   1 1661.43   69.79
   4  -4  -1 1653.33   70.69
   4   4  -1 1655.83   70.99
   4   4  -1 1552.64   69.69
  -4   4   1 1633.94   69.89
  -4   4   1 1658.63   68.99
  -4   4   1 1615.84   69.99
  -2  -4   1 1693.83   67.39
   2  -4  -1 1619.24   69.69
   2  -4  -1 1699.23   69.69
  -2  -4   1 1623.14   69.29
   2  -4  -1 1710.83   67.29
  -2  -4   1 1596.34   68.89
  -2   4   1 1643.64   66.79
   2   4  -1 1701.13   69.49
   2   4  -1 1645.24   69.29
  -2   4   1 1603.24   69.49
  -2   4   1 1641.14   69.69
   2   4  -1 1618.14   65.89
   0  -4   1  105.79   10.30
   0  -4   1  112.29   11.00
   0  -4   1  109.29    9.50
   0  -4   1  109.59    9.70
   0   4   1  118.29   11.00
   0   4   1   99.39   11.20
   2  -4   1  417.36   22.00
   2  -4   1  425.36   18.90
   2  -4   1  420.36   22.80
   2   4   1  417.26   22.50
  -2   4  -1  392.46   18.90
  -2   4  -1  403.36   22.40
   2   4   1  408.36   22.40
   2   4   1  406.36   22.20
  -2   4  -1  390.26   22.00
   4  -4   1  593.84   31.60
   4  -4   1  577.54   33.10
  -4  -4  -1  620.74   31.00
  -4  -4  -1  623.34   31.60
  -4  -4  -1  655.83   27.40
  -4   4  -1  625.84   33.70
  -4   4  -1  586.94   31.80
   4   4   1  609.44   27.30
   4   4   1  586.84   31.10
   4   4   1  588.44   31.40
  -6  -4  -1  369.26   20.90
  -6  -4  -1  379.26   24.70
  -6  -4  -1  398.96   25.50
   6  -4   1  362.26   26.30
   6   4   1  359.66   21.30
   6   4   1  349.17   25.80
  -6   4  -1  374.36   26.50
   6   4   1  356.06   24.50
   8  -4   1  831.02   45.40
  -8  -4  -1  732.73   41.70
  -8  -4  -1  692.73   38.70
  -8  -4  -1  781.42   42.10
  -8   4  -1  731.13   43.60
   8   4   1  816.02   40.90
  -8   4  -1  781.12   34.40
  -8   4  -1  763.42   33.90
 -10  -4  -1  427.46   34.70
  10  -4   1  396.26   36.50
 -10  -4  -1  394.06   33.10
 -10   4  -1  420.36   36.80
  10   4   1  374.86   33.70
 -10   4  -1  413.36   23.90
 -10   4  -1  417.06   22.70
 -12  -4  -1   42.60   17.00
 -12  -4  -1   36.60   20.50
  12  -4   1   30.20   20.00
  12   4   1   22.40   19.20
 -12   4  -1   24.70   20.90
 -12   4  -1   26.10   12.30
 -14  -4  -1  -19.30   17.70
 -14  -4  -1   24.10   26.40
  14  -4   1  -24.70   24.60
  14   4   1  -24.60   24.40
 -14   4  -1  -18.90   24.60
  15  -5  -1   -6.20   24.60
 -15  -5   1   33.80   25.20
 -15   5   1    7.50   22.80
 -15   5   1   20.00   41.60
  15   5  -1   31.30   29.80
  13  -5  -1  375.66   43.50
 -13  -5   1  358.86   45.30
  13   5  -1  476.85   47.40
 -13   5   1  492.35   39.80
 -13   5   1  366.36   47.90
 -11  -5   1  233.38   33.60
  11  -5  -1  241.78   31.40
  11   5  -1  231.58   33.80
 -11   5   1  202.98   34.80
 -11   5   1  241.48   28.60
   9  -5  -1  575.24   36.90
  -9  -5   1  447.16   35.60
  -9   5   1  461.55   34.40
  -9   5   1  437.56   32.70
   9   5  -1  561.54   36.40
   7  -5  -1 1373.26   64.39
   7  -5  -1 1347.47   63.29
  -7  -5   1 1410.06   65.79
   7   5  -1 1321.97   63.29
  -7   5   1 1426.96   63.89
   5  -5  -1  455.25   25.10
  -5  -5   1  438.16   28.10
   5  -5  -1  432.36   26.10
  -5  -5   1  442.56   25.30
   5  -5  -1  419.86   26.50
  -5   5   1  437.06   27.10
  -5   5   1  453.45   26.00
   5   5  -1  433.46   25.40
   5   5  -1  415.96   27.30
  -5   5   1  437.26   25.60
  -3  -5   1 6158.38  250.57
   3  -5  -1 6301.67  251.87
   3  -5  -1 6476.15  252.07
  -3  -5   1 6240.08  247.28
   3  -5  -1 6439.26  249.68
  -3  -5   1 6263.17  252.17
  -3   5   1 5872.51  254.77
   3   5  -1 6437.96  252.37
   3   5  -1 6376.56  247.48
  -3   5   1 6767.92  249.88
  -3   5   1 6470.35  251.97
   3   5  -1 6465.95  251.27
  -1  -5   1   91.59   10.80
  -1  -5   1  111.59   11.10
  -1  -5   1   97.39    9.60
  -1  -5   1   98.29   11.20
   1  -5  -1   68.79   10.80
   1   5  -1   83.39   11.00
  -1   5   1   74.59   10.60
  -1   5   1   93.69   11.50
   1   5  -1   64.79    8.40
  -1   5   1  102.69   11.90
   1  -5   1  559.14   29.10
  -1  -5  -1  593.44   30.30
   1  -5   1  574.24   28.80
   1  -5   1  576.44   27.40
   1   5   1  556.94   29.40
  -1   5  -1  610.04   29.00
  -1   5  -1  596.04   29.70
  -1   5  -1  636.44   27.70
   1   5   1  569.44   29.70
   1   5   1  562.04   30.00
   3  -5   1  112.29   13.20
   3  -5   1  100.79    8.40
  -3   5  -1  103.39    8.70
   3   5   1  116.49   14.10
   3   5   1   96.89   12.40
   3   5   1  107.99   13.90
  -3   5  -1   69.79   13.30
  -5  -5  -1  286.97   16.50
   5  -5   1  293.37   24.00
  -5  -5  -1  275.57   21.80
  -5  -5  -1  277.17   24.00
   5  -5   1  292.37   16.00
  -5   5  -1  306.27   15.10
   5   5   1  308.27   23.80
   5   5   1  331.97   22.80
  -5   5  -1  288.87   23.70
   5   5   1  307.87   17.30
  -7  -5  -1  361.96   27.30
  -7  -5  -1  348.17   27.20
   7  -5   1  405.96   29.30
  -7  -5  -1  327.77   22.00
  -7   5  -1  352.06   29.00
  -7   5  -1  360.36   18.90
  -7   5  -1  352.86   18.30
   7   5   1  369.46   23.20
  -9  -5  -1  700.53   42.20
  -9  -5  -1  711.23   42.80
   9  -5   1  702.83   45.60
  -9   5  -1  681.03   32.60
  -9   5  -1  697.43   32.50
   9   5   1  679.33   40.40
  -9   5  -1  713.43   44.70
  11  -5   1   82.79   30.10
 -11  -5  -1   59.49   19.10
 -11  -5  -1   54.99   16.10
 -11   5  -1   53.89   14.90
  11   5   1   46.80   18.40
 -11   5  -1   51.59   18.80
 -13  -5  -1   49.20   23.90
  13  -5   1   45.30   24.60
  13   5   1   32.60   23.20
 -14  -6   1   75.09   25.30
  14  -6  -1   53.29   27.30
 -14   6   1   53.19   27.70
  14   6  -1   99.69   32.00
 -12  -6   1  466.25   43.70
  12  -6  -1  498.65   43.20
 -12   6   1  484.55   40.50
 -12   6   1  469.85   47.10
  12   6  -1  447.56   47.00
 -10  -6   1  167.98   28.90
  10  -6  -1  211.08   28.50
 -10   6   1  154.38   26.60
 -10   6   1  170.78   30.10
  10   6  -1  219.58   30.80
  -8  -6   1  164.98   23.90
   8  -6  -1  167.18   23.80
   8  -6  -1  137.09   21.80
  -8   6   1  141.79   23.10
   8   6  -1  191.68   23.90
  -6  -6   1  981.30   48.90
   6  -6  -1  865.21   45.60
  -6  -6   1  929.31   44.90
   6  -6  -1  852.01   46.00
   6   6  -1  869.91   45.70
  -6   6   1  957.80   46.90
  -6   6   1  965.10   46.30
   4  -6  -1 1631.44   77.79
  -4  -6   1 1559.94   69.09
   4  -6  -1 1688.03   69.19
  -4  -6   1 1555.54   71.89
   4  -6  -1 1652.43   71.89
   4   6  -1 1639.64   65.49
  -4   6   1 1571.84   71.29
   4   6  -1 1534.35   71.49
   4   6  -1 1677.73   65.69
  -4   6   1 1551.24   70.39
   4   6  -1 1614.04   69.79
  -4   6   1 1606.74   68.49
   2  -6  -1  863.51   37.90
  -2  -6   1  878.61   38.60
   2  -6  -1  892.51   42.50
  -2  -6   1  868.81   41.90
  -2  -6   1  834.12   40.50
  -2  -6   1  896.61   40.80
  -2   6   1  844.12   42.40
   2   6  -1  885.01   42.10
   2   6  -1  890.11   38.50
  -2   6   1  899.01   38.00
  -2   6   1  849.12   41.80
   0  -6   1   52.19   11.10
   0  -6   1   61.29   11.60
   0  -6  -1   53.19   11.70
   0  -6   1   61.39   10.10
   0  -6   1   64.19   11.00
   0  -6  -1   32.60   13.10
   0   6  -1   56.69   10.60
   0   6   1   66.19   12.60
   0   6   1   56.59   14.10
   0   6  -1   41.20    9.80
  -2  -6  -1  875.01   41.60
   2  -6   1  796.82   39.70
   2  -6   1  762.92   36.20
   2   6   1  756.02   39.90
  -2   6  -1  880.81   40.30
   2   6   1  754.22   42.60
  -2   6  -1  897.61   36.90
   2   6   1  745.83   38.90
   4  -6   1  441.66   21.70
   4  -6   1  424.36   27.60
  -4  -6  -1  390.66   28.60
   4   6   1  418.26   26.60
  -4   6  -1  421.56   20.80
  -4   6  -1  407.76   27.30
   4   6   1  428.66   25.90
  -6  -6  -1  182.98   20.90
   6  -6   1  179.38   21.80
  -6  -6  -1  198.48   23.00
  -6  -6  -1  174.18   13.90
   6   6   1  181.08   15.10
  -6   6  -1  179.98   12.60
  -6   6  -1  195.38   24.00
  -8  -6  -1  668.03   40.30
   8  -6   1  685.03   43.50
  -8  -6  -1  661.13   42.10
  -8  -6  -1  623.94   34.60
  -8   6  -1  692.13   31.50
   8   6   1  650.73   37.60
  -8   6  -1  695.83   44.20
  -8   6  -1  707.43   31.90
 -10  -6  -1  151.98   31.20
  10  -6   1  175.88   31.90
 -10  -6  -1  141.29   29.60
 -10   6  -1  167.48   17.50
 -10   6  -1  191.88   34.30
  10   6   1  145.39   28.30
 -12  -6  -1  106.79   33.90
  12  -6   1   74.69   40.40
 -12  -6  -1   90.49   23.50
  12   6   1   95.39   35.90
 -12   6  -1  119.19   40.70
 -12   6  -1   58.69   19.70
  13  -7  -1  219.58   41.40
 -13  -7   1  218.78   40.90
 -13   7   1  273.67   50.49
  13   7  -1  218.58   47.40
 -13   7   1  227.88   38.50
 -11  -7   1  227.78   36.00
  11  -7  -1  185.08   32.80
  11   7  -1  254.47   37.60
 -11   7   1  228.48   38.00
 -11   7   1  170.38   30.20
  -9  -7   1   83.09   27.20
   9  -7  -1   27.90   13.30
  -9   7   1   15.00   14.00
   9   7  -1   43.70   15.70
   7  -7  -1  370.56   29.30
   7  -7  -1  330.37   27.40
  -7  -7   1  339.47   31.10
  -7   7   1  338.17   28.40
   7   7  -1  345.57   28.20
   5  -7  -1  690.53   37.60
  -5  -7   1  743.23   42.10
  -5  -7   1  767.72   38.10
   5  -7  -1  730.43   41.20
  -5   7   1  708.93   37.60
   5   7  -1  726.43   32.90
   5   7  -1  736.93   39.20
  -5   7   1  742.73   40.60
  -3  -7   1 1429.06   65.39
  -3  -7   1 1466.95   68.59
  -3  -7   1 1528.05   63.69
   3  -7  -1 1491.95   68.49
   3  -7  -1 1540.35   64.29
  -3   7   1 1591.04   64.59
   3   7  -1 1530.85   63.59
  -1  -7   1   97.19   11.90
  -1  -7   1   78.79   18.60
  -1  -7   1  113.09   14.00
   1  -7  -1  105.39   18.50
  -1  -7   1   94.29   13.60
  -1   7   1  108.29   15.40
   1   7  -1  126.99   15.00
  -1   7   1  112.19   19.60
   1   7  -1  125.49   12.40
   1  -7   1  234.28   20.30
   1  -7   1  279.47   19.00
   1  -7   1  248.08   20.40
  -1  -7  -1  318.37   23.70
   1   7   1  255.87   21.40
  -1   7  -1  284.37   18.50
  -1   7  -1  302.57   21.30
  -1   7  -1  294.27   21.20
  -3  -7  -1  959.50   50.39
   3  -7   1 1014.20   45.10
   3  -7   1 1021.30   49.40
  -3   7  -1 1010.90   49.30
   3   7   1  999.90   49.50
  -3   7  -1 1003.30   44.70
   3   7   1 1007.10   49.10
  -5  -7  -1  164.28   22.80
   5  -7   1  158.78   15.50
   5  -7   1  172.28   22.10
  -5   7  -1  214.48   14.50
  -5   7  -1  201.88   22.60
   5   7   1  188.48   20.40
  -7  -7  -1  280.17   19.40
   7  -7   1  341.07   31.70
  -7  -7  -1  307.47   30.90
   7   7   1  311.17   22.30
  -7   7  -1  298.87   18.70
  -7   7  -1  282.77   31.30
   7   7   1  310.27   26.20
  -9  -7  -1  175.98   20.30
   9  -7   1  188.88   30.80
  -9  -7  -1  205.38   31.20
  -9  -7  -1  188.88   30.30
   9   7   1  256.67   27.40
  -9   7  -1  187.98   32.20
  -9   7  -1  148.19   17.00
  -9   7  -1  222.38   16.10
 -11  -7  -1  395.96   45.90
  11  -7   1  308.87   43.50
 -11  -7  -1  345.27   41.60
 -11   7  -1  397.56   45.60
 -11   7  -1  398.36   23.70
  11   7   1  381.76   40.30
 -13  -7  -1   12.20   24.00
 -13  -7  -1   50.69   28.40
  13  -7   1   30.00   25.30
  13   7   1   56.39   27.30
 -13   7  -1   -7.30   28.20
  12  -8  -1  208.78   38.10
 -12  -8   1  260.77   79.49
 -12   8   1  287.97   48.00
 -12   8   1  164.48   36.40
  12   8  -1  242.48   48.80
 -10  -8   1  265.17   36.70
  10  -8  -1  277.37   34.70
  10   8  -1  308.97   38.60
 -10   8   1  320.57   38.50
 -10   8   1  281.17   33.10
   8  -8  -1   70.09   24.30
  -8  -8   1  133.49   27.90
   8  -8  -1  123.09   28.50
   8   8  -1  110.19   28.50
  -8   8   1  166.68   26.70
   6  -8  -1  286.87   25.30
   6  -8  -1  314.87   30.00
  -6  -8   1  266.47   30.10
   6   8  -1  274.77   26.20
  -6   8   1  293.27   27.50
   6   8  -1  281.87   18.10
   6   8  -1  308.67   18.20
  -4  -8   1  439.56   31.60
   4  -8  -1  428.66   30.80
  -4  -8   1  430.16   26.00
   4  -8  -1  428.16   24.60
   4   8  -1  435.06   23.20
   4   8  -1  409.56   28.30
  -4   8   1  419.66   28.00
  -2  -8   1  242.18   20.30
  -2  -8   1  241.48   20.80
  -2  -8   1  227.28   23.10
   2  -8  -1  314.27   24.10
  -2  -8   1  220.08   19.50
   2  -8  -1  292.27   15.70
  -2   8   1  233.78   22.10
  -2   8   1  233.78   17.00
   0  -8  -1  162.58   20.90
   0  -8   1  183.18   18.20
   0  -8   1  165.88   17.60
   0  -8   1  189.98   20.30
   0  -8   1  169.58   18.80
   0   8   1  159.98   19.50
   0   8  -1  158.08   17.70
   0   8  -1  162.68   17.30
  -2  -8  -1 1331.57   63.79
   2  -8   1 1337.67   59.19
   2  -8   1 1354.36   62.29
  -2   8  -1 1308.27   62.19
   2   8   1 1354.86   62.49
  -2   8  -1 1309.77   58.69
  -4  -8  -1  196.48   25.90
   4  -8   1  276.17   19.20
   4  -8   1  257.47   23.30
  -4   8  -1  246.08   24.80
  -4   8  -1  206.58   17.20
   4   8   1  210.58   23.00
  -6  -8  -1  169.38   28.10
   6  -8   1  137.09   18.00
   6  -8   1  110.89   23.50
  -6   8  -1  197.08   15.80
  -6   8  -1  164.18   26.30
   6   8   1  142.89   23.30
  -8  -8  -1  394.66   25.20
   8  -8   1  486.85   39.30
  -8  -8  -1  457.15   38.50
  -8   8  -1  404.26   24.60
   8   8   1  465.15   33.40
   8   8   1  439.56   28.50
  -8   8  -1  397.76   40.20
  -8   8  -1  452.05   24.50
  10  -8   1  128.99   35.90
 -10  -8  -1  163.18   36.30
 -10   8  -1  172.38   38.30
  10   8   1  208.28   30.10
 -12  -8  -1  293.17   64.59
  12  -8   1  211.68   45.60
  12   8   1  165.98   47.90
 -12   8  -1  172.98   50.19
  13  -9  -1  163.48   46.10
 -13  -9   1   54.09   27.70
 -13   9   1   70.69   31.40
  13   9  -1   92.89   32.90
 -13   9   1   58.89   22.50
  11  -9  -1  277.97   42.50
 -11   9   1  345.07   38.90
  11   9  -1  469.75   49.30
 -11   9   1  388.56   47.90
  -9  -9   1  229.18   37.20
   9  -9  -1  303.27   39.80
   9  -9  -1  305.77   33.10
   9   9  -1  241.98   38.20
  -9   9   1  245.58   38.30
  -7  -9   1  518.95   40.30
   7  -9  -1  458.45   38.20
   7  -9  -1  430.56   33.30
   7   9  -1  410.16   24.70
   7   9  -1  421.66   36.10
  -7   9   1  463.05   36.50
   5  -9  -1  114.29   25.70
  -5  -9   1   76.09   24.40
   5  -9  -1   91.29   18.60
   5   9  -1   66.59   14.30
   5   9  -1   91.99   23.00
  -5   9   1   75.49   21.40
   5   9  -1   93.99   13.90
   3  -9  -1  957.10   43.10
  -3  -9   1  926.91   46.00
   3  -9  -1  980.50   50.49
  -3  -9   1  900.51   45.30
  -3  -9   1  847.42   44.50
  -3  -9   1  897.91   50.09
  -3   9   1  948.01   49.80
   3   9  -1  934.11   48.90
  -3   9   1  907.51   44.20
   1  -9  -1   13.00    9.30
  -1  -9   1   22.50   11.10
  -1  -9   1   41.90   16.30
  -1  -9   1   20.80   10.60
   1   9  -1   17.40    7.80
  -1   9   1   24.20   12.10
   1  -9   1 1322.17   62.19
  -1  -9  -1 1346.07   65.09
   1  -9   1 1285.07   61.59
  -1   9  -1 1312.17   61.69
   1   9   1 1352.66   63.39
  -1   9  -1 1331.97   62.39
  -3  -9  -1  704.83   44.80
   3  -9   1  795.52   43.10
   3  -9   1  813.62   41.50
  -3   9  -1  774.72   43.20
  -3   9  -1  723.43   38.40
   3   9   1  806.92   43.20
  -5  -9  -1   65.79   26.10
  -5   9  -1   84.69   24.50
   7  -9   1  157.58   27.20
   7  -9   1  186.38   30.90
  -7  -9  -1  204.18   34.00
   7   9   1  150.68   28.20
  -7   9  -1  197.08   18.30
  -7   9  -1  184.28   32.20
   9  -9   1  194.28   34.60
  -9  -9  -1  202.98   36.60
  -9   9  -1  111.29   37.00
   9   9   1  137.99   30.70
   9   9   1  186.28   32.50
  11  -9   1   51.49   23.70
  11   9   1  122.09   35.80
  11   9   1  119.49   40.40
 -11   9  -1   74.29   26.30
 -12 -10   1  200.88   52.59
  12 -10  -1  246.38   44.10
  12  10  -1  172.98   56.79
 -12  10   1  314.57   56.99
 -12  10   1  262.47   42.10
  10 -10  -1  118.79   44.10
  10 -10  -1  107.29   24.50
  10  10  -1  147.99   42.20
 -10  10   1  211.18   47.60
   8 -10  -1  231.78   38.40
   8 -10  -1  217.98   30.50
  -8 -10   1  213.08   36.40
  -8  10   1  292.07   36.90
   8  10  -1  306.47   39.50
  -6 -10   1   93.99   30.50
   6 -10  -1   56.69   17.30
   6 -10  -1   94.39   21.90
   6  10  -1   48.90   17.90
   6  10  -1   40.40   16.10
   6  10  -1   49.20   14.60
  -6  10   1   99.89   27.00
  -4 -10   1  404.46   30.10
  -4 -10   1  423.26   36.60
   4 -10  -1  410.66   28.30
   4 -10  -1  469.45   37.60
  -4  10   1  409.16   32.50
  -4  10   1  410.36   35.60
   4  10  -1  404.16   27.60
  -2 -10   1  102.49   25.20
   2 -10  -1   67.19   23.40
  -2 -10   1   83.79   19.60
   2 -10  -1   61.19   11.50
   2  10  -1   57.79   17.30
  -2  10   1   93.49   17.70
  -2  10   1   72.99   23.00
   0 -10   1   85.29   22.10
   0 -10  -1  100.09   25.40
   0 -10   1   81.99   19.40
   0  10   1  129.29   22.00
   0  10  -1   66.09   18.70
  -2 -10  -1 1333.57   68.29
   2 -10   1 1352.56   64.49
   2 -10   1 1352.96   64.59
   2  10   1 1339.77   65.79
  -2  10  -1 1301.97   65.49
   4 -10   1  125.79   24.90
   4 -10   1   99.89   25.00
  -4 -10  -1  114.89   27.90
   4  10   1  142.89   24.50
  -4  10  -1  127.79   26.20
   6 -10   1  116.49   29.50
   6 -10   1  131.69   29.40
  -6 -10  -1  184.78   35.00
   6  10   1  119.29   27.80
  -6  10  -1  198.98   21.10
  -6  10  -1  208.08   32.40
   8 -10   1  172.08   34.70
   8 -10   1  224.68   33.80
  -8 -10  -1  252.67   41.50
  -8  10  -1  179.58   38.70
 -10 -10  -1   58.19   25.80
  10 -10   1   51.69   24.10
  10  10   1  102.79   38.00
 -10  10  -1   52.99   25.80
 -11 -11   1  250.57   50.99
  11  11  -1  296.97   56.29
 -11  11   1  189.28   42.70
 -11  11   1  204.68   54.69
   9 -11  -1   85.99   33.50
  -9 -11   1   45.70   29.00
   9 -11  -1  129.19   46.20
   9  11  -1   58.39   24.70
  -9  11   1   33.50   27.20
  -7 -11   1  213.58   40.60
   7 -11  -1  199.78   42.20
   7 -11  -1  200.78   29.20
   7  11  -1  184.28   22.30
  -7  11   1  194.38   36.40
  -5 -11   1  145.49   34.00
   5 -11  -1  226.78   24.30
  -5 -11   1  174.08   26.20
   5 -11  -1  231.48   36.60
   5  11  -1  170.18   22.60
  -5  11   1  147.79   31.60
   5  11  -1  156.68   28.20
   3 -11  -1  332.87   36.30
  -3 -11   1  377.26   29.70
  -3 -11   1  402.56   39.00
  -3  11   1  387.26   35.40
  -3  11   1  393.06   30.90
   3  11  -1  358.76   27.80
   1 -11  -1   -3.60   13.10
  -1 -11   1   21.00   11.50
  -1 -11   1   11.40   15.10
  -1  11   1   68.09   23.60
   1  11  -1    8.20   10.40
  -1 -11  -1  420.76   39.00
   1 -11   1  447.86   35.90
   1 -11   1  456.35   33.20
  -1  11  -1  428.06   35.10
   1  11   1  458.05   35.70
   3 -11   1  484.75   38.50
  -3 -11  -1  453.55   42.10
   3 -11   1  443.86   35.20
  -3  11  -1  530.55   38.30
   3  11   1  443.26   37.40
   5 -11   1  324.57   36.40
  -5 -11  -1  385.76   41.20
   5 -11   1  352.66   36.70
  -5  11  -1  382.36   38.10
   5  11   1  374.36   35.40
  -7 -11  -1   40.30   21.40
   7 -11   1  139.79   36.50
  -7  11  -1   59.19   20.70
   7  11   1   55.59   17.10
   9 -11   1   48.80   41.70
  -9 -11  -1   78.99   24.60
   9  11   1   49.60   20.90
  -9  11  -1   51.49   25.40
  -9  11  -1  128.49   48.10
  10 -12  -1   28.50   23.60
 -10 -12   1   52.99   29.40
  10 -12  -1   97.89   33.80
  10  12  -1   82.19   31.30
 -10  12   1  137.39   51.39
  -8 -12   1   82.39   33.30
  -8 -12   1  116.69   44.00
   8 -12  -1  114.99   46.10
   8 -12  -1   49.00   19.00
  -8  12   1   33.10   21.50
   8  12  -1   57.99   22.60
   6 -12  -1  208.58   42.80
  -6 -12   1  264.17   44.10
   6 -12  -1  187.68   29.00
  -6 -12   1  198.58   31.10
  -6  12   1  174.08   38.30
   6  12  -1  194.48   24.40
  -4 -12   1  319.87   43.90
  -4 -12   1  308.27   30.40
   4 -12  -1  318.27   28.10
   4 -12  -1  351.96   42.60
   4  12  -1  281.67   27.50
  -4  12   1  284.17   37.50
   2 -12  -1  155.78   33.50
  -2 -12   1   77.19   23.80
  -2 -12   1  103.49   37.40
   2 -12  -1  110.79   14.30
  -2  12   1  100.09   29.90
   2  12  -1   60.09   22.50
   0 -12   1  172.18   26.40
   0 -12  -1  163.78   36.10
   0 -12   1  192.78   35.10
   0  12   1  204.58   30.20
   0  12  -1  137.39   27.50
   2 -12   1  487.75   43.40
   2 -12   1  471.95   37.80
  -2 -12  -1  549.45   47.20
  -2  12  -1  491.55   41.50
   2  12   1  505.25   41.20
  -4 -12  -1  208.98   40.40
   4 -12   1  190.78   37.50
   4 -12   1  213.78   32.00
  -4  12  -1  173.28   34.40
   4  12   1  175.08   31.90
   6 -12   1  115.99   35.80
   6 -12   1   73.29   22.50
  -6 -12  -1  108.29   39.40
  -6  12  -1  107.09   35.60
   6  12   1   69.89   18.30
   8 -12   1  249.48   44.60
  -8 -12  -1  216.18   56.09
   8 -12   1  236.38   44.30
  -8  12  -1  177.08   49.20
   8  12   1  305.67   38.30
  -7 -13   1  208.88   34.50
  -7 -13   1  229.98   50.79
   7 -13  -1  126.59   34.80
   7 -13  -1  264.57   55.19
  -7  13   1  221.58   46.80
   7  13  -1  132.29   25.90
  -5 -13   1  137.89   29.10
   5 -13  -1   98.59   27.50
  -5 -13   1   73.19   27.10
   5 -13  -1  116.49   26.50
   5  13  -1  107.29   25.30
  -5  13   1  154.88   50.99
   3 -13  -1  495.95   32.40
  -3 -13   1  505.05   54.39
   3 -13  -1  557.64   52.19
  -3 -13   1  479.45   39.10
   3  13  -1  511.15   37.80
  -3  13   1  551.84   48.60
  -1 -13   1  135.49   28.10
   1 -13  -1  133.19   39.70
  -1 -13   1  165.48   39.30
   1  13  -1  181.18   29.80
  -1  13   1  160.58   36.10
  -1 -13  -1   57.09   23.10
   1 -13   1   77.99   27.00
   1 -13   1   33.20   21.20
  -1  13  -1   35.10   17.40
   3 -13   1  398.26   37.20
  -3 -13  -1  415.56   48.90
   3 -13   1  355.76   47.10
   3  13   1  365.96   39.50
  -3  13  -1  452.55   42.70
  -5 -13  -1   39.40   23.60
   5 -13   1   16.60   19.60
   5 -13   1   -0.20   21.80
  -5  13  -1  109.89   37.20
   5  13   1   15.20   16.80
   7 -13   1   68.39   26.80
  -7 -13  -1  143.19   51.39
   7 -13   1  106.99   28.60
  -7  13  -1  148.69   43.10
   7  13   1  100.39   39.20
   6 -14  -1  161.18   60.09
  -6 -14   1  201.98   60.09
  -6 -14   1  161.58   33.50
   6 -14  -1   87.29   32.70
  -6  14   1  113.69   29.00
   6  14  -1   78.99   28.80
  -4 -14   1  263.87   33.50
  -4 -14   1  169.18   58.39
   4 -14  -1  177.58   51.79
   4 -14  -1  239.28   28.10
  -4  14   1  183.88   44.20
   4  14  -1  165.08   31.40
   2 -14  -1  257.27   49.30
  -2 -14   1  194.18   32.10
  -2 -14   1  171.68   46.10
  -2  14   1  157.48   51.09
   2  14  -1  235.88   34.30
   0 -14   1  118.79   45.00
   0 -14   1   31.20   17.00
   0 -14  -1   15.50   25.50
   0  14  -1   12.70   19.30
   0  14   1   51.39   21.90
   2 -14   1  182.38   34.30
   2 -14   1  122.29   48.20
  -2 -14  -1  199.88   48.20
   2  14   1  204.38   39.40
  -2  14  -1  135.49   39.10
   4 -14   1   65.99   26.80
   4 -14   1   18.40   21.20
  -4 -14  -1   48.70   26.40
   4  14   1   62.99   21.30
  -4  14  -1   75.79   34.20
   6 -14   1   35.00   29.10
  -6 -14  -1   18.60   28.00
   6 -14   1   24.40   25.10
  -6  14  -1  118.89   46.00
   6  14   1   40.80   21.20
  -3 -15   1  294.37   56.19
   3 -15  -1  240.28   57.19
  -3 -15   1  274.47   37.40
  -3  15   1  245.68   53.69
  -1 -15   1  -10.70   17.90
   1 -15  -1   36.50   26.60
  -1 -15   1   10.40   35.30
   1  15  -1  -28.50   20.10
  -1  15   1   19.40   24.90
   1 -15   1  137.19   34.10
  -1 -15  -1  169.88   54.19
   1 -15   1  103.29   31.50
  -1  15  -1   84.09   24.60
   1  15   1  191.38   48.30
   3 -15   1   40.30   22.60
   3 -15   1   52.79   29.80
  -3 -15  -1   31.40   28.60
  -3  15  -1   42.90   25.60
   3  15   1   87.09   40.40
 -14   0   2    3.40   18.60
 -14   0   2  -16.70   18.60
 -12   0   2   31.30   14.20
 -12   0   2   23.00   16.40
  12   0  -2   37.90   16.40
  10   0  -2 1553.24   77.69
 -10   0   2 1570.14   77.49
 -10   0   2 1718.33   69.99
  10   0  -2 1570.24   68.49
  -8   0   2  303.37   18.60
   8   0  -2  328.57   18.30
  -8   0   2  307.97   25.60
   8   0  -2  307.77   26.10
  -6   0   2  869.31   36.70
  -6   0   2  804.02   42.10
  -6   0   2  829.72   42.50
   6   0  -2  819.82   42.40
   6   0  -2  858.51   36.60
  -6   0   2  836.02   42.40
  -4   0   2  352.76   21.70
   4   0  -2  377.16   21.60
  -4   0   2  334.77   17.70
  -4   0   2  341.27   21.50
  -4   0   2  344.37   21.60
  -4   0   2  322.37   17.50
   2   0  -2 1903.01   74.69
  -2   0   2 1702.73   73.89
   2   0  -2 1911.91   72.69
  -2   0   2 1635.44   73.59
  -2   0   2 1687.03   73.39
  -2   0   2 1774.52   72.39
   0   0  -2  128.79   10.80
   0   0   2  161.38   12.80
   0   0   2  183.88   11.70
   0   0   2  168.88   12.40
   0   0   2  160.68   12.60
  -2   0  -2 2771.12  116.29
  -2   0  -2 2842.02  117.59
   2   0   2 2910.11  116.69
  -2   0  -2 2841.62  113.89
   2   0   2 2913.51  113.79
   2   0   2 2955.00  117.59
   4   0   2  684.03   33.20
  -4   0  -2  606.84   32.40
   4   0   2  650.83   34.40
  -4   0  -2  650.63   28.60
   4   0   2  684.33   29.00
  -4   0  -2  637.44   35.30
   6   0   2  444.86   29.90
   6   0   2  463.95   23.80
  -6   0  -2  477.05   22.40
  -6   0  -2  501.95   39.50
  -6   0  -2  463.75   31.10
   8   0   2  105.59   16.50
   8   0   2  136.49   23.30
  -8   0  -2  132.69   25.40
  -8   0  -2  154.78   13.70
  10   0   2  231.78   34.70
  10   0   2  320.37   29.10
 -10   0  -2  339.17   38.60
 -10   0  -2  267.87   20.50
 -12   0  -2   39.20   22.50
  12   0   2   76.29   24.30
 -14   0  -2   49.90   31.30
  14   0   2   82.19   31.60
  15  -1  -2  174.48   44.10
 -15  -1   2  195.88   45.60
 -15   1   2   67.19   44.90
  15   1  -2  171.58   46.90
 -13  -1   2    2.30   14.70
  13  -1  -2   25.70   17.30
 -13  -1   2   20.90   17.10
  13   1  -2   34.60   20.50
 -13   1   2   12.80   16.00
 -13   1   2   24.80   18.00
 -11  -1   2  329.67   23.90
  11  -1  -2  284.37   23.50
  11  -1  -2  301.47   32.10
 -11  -1   2  282.67   32.10
 -11   1   2  357.06   33.50
  11   1  -2  296.17   19.70
  11   1  -2  297.77   32.10
 -11   1   2  346.97   28.80
  -9  -1   2  715.53   32.30
   9  -1  -2  621.74   33.90
  -9  -1   2  685.53   41.70
   9  -1  -2  692.83   41.50
   9   1  -2  665.03   31.40
  -9   1   2  713.83   41.10
  -9   1   2  733.13   35.00
   9   1  -2  686.43   41.80
   7  -1  -2  693.13   32.40
   7  -1  -2  686.93   38.70
  -7  -1   2  697.03   38.10
  -7   1   2  691.93   32.40
   7   1  -2  642.84   37.90
  -7   1   2  672.33   37.70
  -5  -1   2  579.54   31.70
  -5  -1   2  578.74   31.70
   5  -1  -2  549.54   27.30
  -5   1   2  595.54   31.40
  -5   1   2  611.04   27.80
  -5   1   2  570.24   30.80
   5   1  -2  569.94   30.90
   5   1  -2  529.55   31.60
  -5   1   2  599.44   32.40
  -3  -1   2  517.85   23.50
  -3  -1   2  489.95   27.10
  -3  -1   2  506.45   23.40
   3  -1  -2  525.05   27.00
   3  -1  -2  539.25   26.70
  -3  -1   2  505.55   27.00
  -3  -1   2  522.75   26.70
   3   1  -2  532.95   27.70
  -3   1   2  517.85   25.30
  -3   1   2  526.35   25.40
  -3   1   2  527.75   27.00
  -3   1   2  511.95   27.20
   1  -1  -2  994.00   40.90
   1  -1  -2  966.90   40.80
  -1  -1   2  853.21   39.50
  -1  -1   2  866.31   39.30
  -1  -1   2  861.21   39.70
  -1  -1   2  866.41   41.20
   1  -1  -2  999.80   40.70
  -1   1   2  863.81   40.40
   1   1  -2  969.20   41.60
  -1   1   2  848.42   40.20
   1   1  -2  950.00   39.60
  -1   1   2  848.32   39.90
   1  -1   2  336.67   16.70
   1  -1   2  359.96   17.10
   1  -1   2  343.87   20.40
  -1  -1  -2  307.97   18.20
   1  -1   2  336.07   19.70
   1  -1   2  361.56   19.90
  -1  -1  -2  310.67   20.00
   1   1   2  352.96   18.20
   1   1   2  359.06   18.90
  -1   1  -2  320.17   20.10
   1   1   2  357.56   18.60
   1   1   2  353.96   20.90
   3  -1   2 1448.96   63.89
  -3  -1  -2 1351.96   64.79
   3  -1   2 1510.15   63.99
  -3  -1  -2 1490.75   62.19
  -3  -1  -2 1516.25   60.79
   3   1   2 1463.25   64.29
  -3   1  -2 1432.86   63.39
  -3   1  -2 1296.27   73.19
   3   1   2 1520.55   60.69
   3   1   2 1511.75   62.39
  -5  -1  -2 1394.76   64.99
  -5  -1  -2 1393.56   59.29
  -5  -1  -2 1401.26   62.19
   5  -1   2 1444.56   64.49
   5   1   2 1536.95   66.89
  -5   1  -2 1268.67   62.79
   5   1   2 1453.95   59.89
  -5   1  -2 1408.46   65.09
   7  -1   2  172.08   22.90
  -7  -1  -2  171.88   24.40
  -7  -1  -2  201.08   14.80
  -7   1  -2  231.98   23.70
   7   1   2  147.79   21.20
   7   1   2  154.58   17.70
   9  -1   2  282.17   31.20
  -9  -1  -2  253.17   20.00
  -9  -1  -2  246.78   33.20
   9   1   2  228.78   29.50
   9   1   2  237.68   26.30
  -9   1  -2  315.77   32.10
 -11  -1  -2  137.49   38.00
 -11  -1  -2  200.78   24.80
  11  -1   2  150.88   35.10
  11   1   2  192.88   36.20
 -11   1  -2  224.38   39.90
 -13  -1  -2  156.58   49.60
 -13   1  -2  158.98   46.30
  13   1   2  103.89   28.40
  14  -2  -2   52.19   23.50
 -14  -2   2   81.19   24.30
 -14   2   2   76.29   22.00
 -14   2   2  112.29   38.70
 -12  -2   2   28.50   16.80
  12  -2  -2   12.00   14.90
  12   2  -2   75.59   30.10
 -12   2   2   33.90   16.60
 -10  -2   2  384.56   33.50
  10  -2  -2  411.66   30.80
 -10   2   2  402.06   29.00
 -10   2   2  407.26   32.80
  10   2  -2  352.46   33.30
   8  -2  -2  298.07   20.80
  -8  -2   2  300.47   26.50
   8   2  -2  339.77   27.20
  -8   2   2  322.07   26.30
   6  -2  -2 1575.64   64.39
   6  -2  -2 1590.24   68.19
   6   2  -2 1460.25   67.79
  -6   2   2 1461.25   63.89
  -6   2   2 1366.96   66.49
   4  -2  -2  271.57   18.60
  -4  -2   2  309.97   19.40
  -4  -2   2  280.67   19.70
   4  -2  -2  243.58   16.90
   4  -2  -2  241.08   27.60
  -4   2   2  308.57   20.60
  -4   2   2  310.17   18.20
  -4   2   2  329.27   20.10
  -2  -2   2  999.00   46.10
  -2  -2   2 1064.29   44.10
  -2  -2   2 1032.50   47.80
   2  -2  -2 1085.89   45.90
   2  -2  -2 1079.39   47.50
  -2   2   2 1003.60   47.20
   2   2  -2 1082.39   48.20
   2   2  -2 1082.59   44.00
  -2   2   2 1100.69   46.30
  -2   2   2 1029.30   46.60
   2   2  -2 1066.99   46.30
  -2   2   2 1007.10   46.50
   0  -2   2  346.77   17.20
   0  -2  -2  276.37   18.70
   0  -2   2  349.47   18.60
   0  -2   2  347.27   20.70
   0  -2   2  351.86   17.20
   0  -2  -2  271.47   19.10
   0  -2   2  335.27   20.30
   0   2   2  351.26   17.70
   0   2   2  349.07   20.50
   0   2   2  335.17   19.00
   0   2  -2  284.87   18.00
   0   2   2  351.06   17.90
  -2  -2  -2   72.69   12.70
  -2  -2  -2   86.99    8.80
   2  -2   2   60.79   10.40
  -2  -2  -2   84.19    9.60
   2  -2   2   51.19   11.20
  -2   2  -2   75.89   12.30
  -2   2  -2   77.29   11.30
   2   2   2   57.09    8.80
   2   2   2   50.99    9.50
   2   2   2   58.49   13.40
  -4  -2  -2 2507.75  110.49
   4  -2   2 2674.63  111.19
  -4  -2  -2 2628.04  107.39
  -4  -2  -2 2741.33  107.89
  -4   2  -2 2561.14  110.39
   4   2   2 2759.72  107.89
   4   2   2 2802.02  108.19
  -4   2  -2 2555.84  110.59
   4   2   2 2545.15  110.79
   6  -2   2  109.69   19.50
  -6  -2  -2  157.48   13.60
  -6  -2  -2  164.48   20.50
  -6  -2  -2  140.99   15.20
   6   2   2  114.69   16.50
   6   2   2  105.19   16.50
  -6   2  -2  144.59   18.30
   8  -2   2   76.39   23.20
  -8  -2  -2   61.29   14.00
  -8  -2  -2   79.79   23.40
  -8   2  -2   59.99   20.60
 -10  -2  -2  269.87   27.50
 -10  -2  -2  253.77   34.30
  10  -2   2  272.67   35.20
  10   2   2  327.27   34.80
 -10   2  -2  251.47   34.00
 -12  -2  -2  184.38   30.00
  12  -2   2  174.18   38.60
 -12  -2  -2  148.29   42.10
 -12   2  -2  196.48   43.70
  15  -3  -2  152.88   44.20
 -15  -3   2  118.89   47.00
 -15   3   2  221.58   71.39
 -15   3   2  193.58   48.50
  15   3  -2  254.37   55.89
 -13  -3   2   -4.40   15.80
  13  -3  -2    0.20   17.20
  13   3  -2   21.20   21.40
 -13   3   2    5.30   19.20
 -13   3   2    7.40   19.00
 -11  -3   2  392.86   36.30
  11  -3  -2  356.86   35.70
 -11   3   2  368.86   35.90
 -11   3   2  383.96   33.10
  11   3  -2  369.16   37.70
   9  -3  -2  262.77   27.60
  -9  -3   2  266.67   27.60
  -9   3   2  254.17   27.10
   9   3  -2  269.97   28.70
  -9   3   2  278.07   23.70
  -7  -3   2   96.69   19.50
   7  -3  -2  125.19   17.90
   7  -3  -2  157.28   15.90
  -7   3   2  113.29   18.90
  -7   3   2  110.89   17.00
   7   3  -2  143.69   20.40
  -5  -3   2 1709.23   77.39
   5  -3  -2 1723.63   77.49
   5  -3  -2 1698.43   79.49
   5  -3  -2 1814.12   75.29
  -5  -3   2 1811.82   77.99
   5   3  -2 1681.83   76.39
  -5   3   2 1836.92   76.19
  -5   3   2 1709.53   76.99
  -5   3   2 1840.42   75.29
   5   3  -2 1759.82   77.79
  -3  -3   2  929.71   40.50
   3  -3  -2  769.22   39.00
  -3  -3   2  819.12   40.20
   3  -3  -2  792.32   38.10
  -3   3   2  899.01   40.10
  -3   3   2  862.41   40.80
  -3   3   2  905.71   38.90
   3   3  -2  781.02   39.30
  -1  -3   2 1731.53   75.39
  -1  -3   2 1801.32   73.09
   1  -3  -2 1831.62   71.69
  -1  -3   2 1651.23   74.89
   1  -3  -2 1819.72   75.19
  -1  -3   2 1748.23   71.89
  -1   3   2 1694.93   74.49
   1   3  -2 1871.71   72.39
  -1   3   2 1796.52   71.89
  -1   3   2 1625.84   74.19
   1   3  -2 1820.22   72.69
  -1   3   2 1663.03   74.49
  -1  -3  -2  719.93   44.70
  -1  -3  -2  742.33   37.80
   1  -3   2  891.81   35.20
   1  -3   2  889.31   38.80
   1   3   2  861.31   40.30
   1   3   2  846.22   35.40
  -1   3  -2  743.23   39.40
  -1   3  -2  779.92   38.30
   1   3   2  836.82   38.70
   1   3   2  904.91   35.70
  -3  -3  -2  863.21   38.10
  -3  -3  -2  908.41   35.70
   3  -3   2  734.63   40.20
  -3  -3  -2  810.02   40.40
   3  -3   2  710.43   38.90
  -3   3  -2  816.82   40.00
   3   3   2  734.43   40.20
  -3   3  -2  864.91   40.40
   3   3   2  776.32   35.30
   3   3   2  726.23   37.30
   5  -3   2 1423.36   66.49
  -5  -3  -2 1408.26   66.09
  -5  -3  -2 1453.95   62.89
  -5  -3  -2 1435.06   61.49
   5   3   2 1485.05   62.09
   5   3   2 1383.06   63.09
  -5   3  -2 1446.86   66.69
   7  -3   2   34.80   12.80
  -7  -3  -2   38.90   12.80
  -7  -3  -2   40.10   14.60
  -7  -3  -2   47.30   17.30
   7   3   2   33.80   10.80
  -7   3  -2   39.50   13.30
   7   3   2   35.50   12.90
   9  -3   2  297.27   33.60
  -9  -3  -2  259.07   27.70
  -9  -3  -2  321.77   33.40
  -9   3  -2  294.87   32.20
   9   3   2  351.56   31.20
  11  -3   2  182.18   36.00
 -11  -3  -2   95.99   22.80
 -11  -3  -2  145.69   29.40
  11   3   2  102.09   35.30
 -11   3  -2  141.69   35.30
  13  -3   2  148.99   47.20
 -13  -3  -2  159.48   35.50
 -13  -3  -2  120.39   31.40
  13   3   2  130.99   48.90
 -13   3  -2  163.78   48.30
  14  -4  -2   46.50   23.60
 -14  -4   2   50.89   23.30
 -14   4   2  119.79   41.40
 -14   4   2   66.29   26.10
  14   4  -2   36.60   29.80
 -12  -4   2  104.89   31.30
  12  -4  -2   77.79   21.90
 -12   4   2   81.29   31.50
 -12   4   2  132.89   34.50
  12   4  -2   73.99   22.30
  10  -4  -2  844.82   50.89
 -10   4   2  866.51   48.40
  10   4  -2  892.51   52.69
 -10   4   2  862.31   50.29
   8  -4  -2  273.97   24.60
  -8  -4   2  216.08   26.40
   8   4  -2  273.47   26.30
  -8   4   2  192.58   21.60
  -8   4   2  198.28   24.40
  -6  -4   2  606.34   36.40
   6  -4  -2  657.13   36.90
   6  -4  -2  658.53   34.20
   6  -4  -2  641.24   34.80
  -6   4   2  572.24   33.50
  -6   4   2  555.84   33.20
   6   4  -2  649.54   36.90
   4  -4  -2  912.01   41.70
  -4  -4   2  905.01   43.70
  -4  -4   2  965.40   44.80
   4  -4  -2  834.12   42.20
   4  -4  -2  829.72   44.10
   4   4  -2  814.42   42.80
  -4   4   2  872.61   43.30
  -4   4   2  952.60   41.40
  -4   4   2  905.61   43.00
   4   4  -2  886.71   44.70
   2  -4  -2 1677.23   71.69
   2  -4  -2 1612.14   66.69
  -2  -4   2 1638.54   69.49
  -2  -4   2 1580.44   70.79
  -2  -4   2 1644.94   66.09
   2   4  -2 1711.53   66.29
  -2   4   2 1608.44   66.69
   2   4  -2 1658.83   68.99
  -2   4   2 1499.85   73.69
   2   4  -2 1590.34   71.09
  -2   4   2 1584.54   70.89
   0  -4   2 1305.37   54.59
   0  -4   2 1286.67   57.49
   0  -4  -2 1150.98   58.89
   0  -4   2 1255.17   57.69
   0  -4   2 1328.57   53.79
   0   4  -2 1286.67   53.39
   0   4   2 1283.07   51.59
   0   4   2 1222.28   57.09
   0   4  -2 1290.47   54.89
   0   4   2 1250.17   56.49
   0   4   2 1254.97   57.29
   2  -4   2  216.98   18.50
   2  -4   2  196.88   17.30
  -2  -4  -2  184.88   18.70
   2   4   2  200.98   19.00
  -2   4  -2  183.08   18.40
   2   4   2  207.58   18.10
  -4  -4  -2  563.74   30.80
   4  -4   2  451.05   31.70
  -4  -4  -2  546.05   32.00
  -4  -4  -2  568.24   25.20
   4   4   2  465.65   25.30
  -4   4  -2  613.44   33.50
  -6  -4  -2  427.46   28.10
   6  -4   2  408.76   31.00
  -6  -4  -2  415.76   23.80
  -6  -4  -2  428.56   30.60
   6   4   2  409.26   34.00
   6   4   2  411.66   24.90
  -6   4  -2  425.76   31.10
  -8  -4  -2   12.10   10.60
  -8  -4  -2    1.70   12.20
   8  -4   2   21.20   13.90
   8   4   2   12.80   11.90
  -8   4  -2    4.60   13.00
  10  -4   2  358.66   39.40
 -10  -4  -2  369.66   35.30
 -10  -4  -2  367.66   39.80
  10   4   2  341.47   36.60
 -10   4  -2  355.26   40.20
 -12  -4  -2  125.99   45.10
  12  -4   2   81.99   31.60
 -12  -4  -2  113.89   36.10
 -12   4  -2  164.18   61.09
  12   4   2  101.09   40.80
 -13  -5   2   61.39   25.00
  13  -5  -2   41.10   20.70
  13   5  -2   58.09   24.40
 -13   5   2   29.10   23.80
 -13   5   2   61.69   20.50
 -11  -5   2  602.84   47.50
  11  -5  -2  604.54   45.30
  11   5  -2  640.94   48.70
 -11   5   2  646.24   45.00
 -11   5   2  655.53   44.90
   9  -5  -2   27.20   13.10
  -9  -5   2   20.10   13.30
  -9   5   2   27.20   13.00
  -9   5   2   17.50   12.70
   9   5  -2   26.60   14.30
   7  -5  -2  318.17   25.40
   7  -5  -2  304.07   28.00
  -7  -5   2  288.97   26.70
   7   5  -2  339.27   27.90
  -7   5   2  249.38   24.70
   5  -5  -2  340.97   27.20
  -5  -5   2  436.16   28.60
   5   5  -2  355.26   27.80
  -5   5   2  438.36   25.30
  -5   5   2  422.96   27.20
  -3  -5   2  943.01   47.20
   3  -5  -2  960.00   43.20
   3  -5  -2  928.11   46.20
  -3  -5   2  968.90   47.90
   3  -5  -2 1001.00   48.90
   3   5  -2  982.70   48.20
  -3   5   2  988.10   47.70
  -3   5   2 1015.40   43.30
   3   5  -2  985.00   46.00
  -1  -5   2 2249.57   96.09
  -1  -5   2 2312.47   93.19
   1  -5  -2 2172.68   95.69
  -1  -5   2 2242.68   95.99
  -1  -5   2 2280.77   91.79
   1   5  -2 2347.77   93.09
   1   5  -2 2353.26   92.09
  -1   5   2 2127.89   95.19
  -1   5   2 2135.89   95.09
  -1   5   2 2276.47   96.09
   1  -5   2  277.17   19.00
   1  -5   2  255.37   15.00
  -1  -5  -2  226.58   20.20
   1  -5   2  254.87   20.70
   1   5   2  220.08   19.60
   1   5   2  256.37   20.80
  -1   5  -2  220.18   13.90
  -1   5  -2  229.98   17.50
   1   5   2  304.27   27.20
  -3  -5  -2   96.49   15.80
   3  -5   2   66.89   16.70
  -3  -5  -2   89.19   16.60
  -3   5  -2   83.69   16.00
   3   5   2   71.69   16.30
  -5  -5  -2  832.42   44.50
   5  -5   2  756.42   43.90
  -5  -5  -2  799.82   42.80
  -5  -5  -2  837.42   35.90
   5   5   2  798.12   36.40
  -5   5  -2  785.62   43.60
  -7  -5  -2   24.30    7.50
  -7  -5  -2   12.70   11.90
   7  -5   2   19.80   13.80
  -7  -5  -2   23.20   11.50
  -7   5  -2   27.40   13.70
   7   5   2   49.30   15.30
  -9  -5  -2  365.66   39.80
   9  -5   2  387.36   38.20
  -9  -5  -2  378.56   33.50
  -9   5  -2  316.77   37.00
   9   5   2  376.16   32.50
 -11  -5  -2  414.96   46.30
  11  -5   2  412.76   47.20
 -11  -5  -2  382.46   40.20
  11   5   2  415.66   43.70
 -11   5  -2  386.76   46.30
  13  -5   2   64.69   28.70
  13   5   2   61.89   29.30
 -13   5  -2   70.19   28.30
 -14  -6   2   63.09   27.50
  14  -6  -2   43.00   25.20
 -14   6   2   19.70   28.80
  14   6  -2  147.59   54.19
 -14   6   2  141.09   41.20
  12  -6  -2  127.89   34.60
 -12  -6   2  122.99   35.60
  12   6  -2  164.58   42.10
 -12   6   2  141.89   37.40
 -12   6   2  113.59   31.70
 -10  -6   2  396.36   38.40
  10  -6  -2  422.76   35.90
 -10   6   2  398.16   36.90
 -10   6   2  424.46   36.40
  10   6  -2  417.36   41.70
  -8  -6   2  152.58   27.10
   8  -6  -2  197.68   27.80
   8  -6  -2  188.98   24.20
   8   6  -2  217.68   27.60
  -8   6   2  131.39   23.00
   6  -6  -2  478.15   30.20
  -6  -6   2  448.46   33.00
   6  -6  -2  461.15   32.80
  -6   6   2  461.15   30.60
  -6   6   2  443.66   30.70
   6   6  -2  512.15   33.70
   4  -6  -2  378.86   29.40
   4  -6  -2  359.16   22.20
  -4  -6   2  399.36   28.20
   4   6  -2  357.56   27.80
  -4   6   2  398.06   23.20
  -4   6   2  434.86   28.00
   2  -6  -2 1406.96   57.19
  -2  -6   2 1418.06   58.49
  -2  -6   2 1329.87   63.29
   2  -6  -2 1379.56   64.39
   2   6  -2 1412.16   58.09
  -2   6   2 1340.47   63.69
  -2   6   2 1370.46   57.09
   2   6  -2 1364.06   61.29
   0  -6   2  458.65   26.00
   0  -6   2  473.15   25.30
   0  -6   2  438.86   28.80
   0  -6  -2  459.75   29.20
   0   6  -2  478.05   25.80
   0   6  -2  473.65   24.20
   0   6   2  478.95   30.20
   2  -6   2   94.79   10.60
   2  -6   2   87.19   16.40
  -2  -6  -2  108.39   17.70
   2  -6   2   73.39   17.20
   2   6   2   98.09   17.60
  -2   6  -2   94.79    8.80
  -2   6  -2   94.09   15.80
   4  -6   2  589.54   36.60
  -4  -6  -2  632.34   36.70
  -4   6  -2  618.54   36.30
   4   6   2  580.14   36.10
  -6  -6  -2  109.89   22.10
  -6  -6  -2  156.58   12.80
   6  -6   2  128.89   23.90
  -6  -6  -2  189.18   26.20
  -6   6  -2  145.49   23.70
   6   6   2  142.39   15.10
  -8  -6  -2   11.60   15.70
  -8  -6  -2    2.70   12.70
   8  -6   2   10.10   13.50
  -8  -6  -2   -0.10    7.90
  -8   6  -2   -6.70   13.20
   8   6   2   -9.70   15.40
 -10  -6  -2  373.36   40.10
 -10  -6  -2  381.26   44.40
  10  -6   2  359.66   44.00
  10   6   2  381.66   37.30
 -10   6  -2  365.86   43.60
 -12  -6  -2   97.69   28.90
  12  -6   2  125.09   45.70
 -12  -6  -2  129.39   40.50
 -12   6  -2   72.59   29.50
  12   6   2   40.30   26.20
 -13  -7   2    5.40   23.90
  13  -7  -2   15.10   22.10
  13   7  -2   -5.10   26.80
 -13   7   2  -11.20   18.30
 -13   7   2   -3.60   24.70
  11  -7  -2  186.08   33.80
 -11  -7   2  185.78   38.70
 -11   7   2  219.28   36.50
  11   7  -2  252.17   41.00
 -11   7   2  211.68   37.30
   9  -7  -2  332.07   32.10
  -9  -7   2  326.87   36.30
   9   7  -2  399.66   40.30
  -9   7   2  304.27   32.70
   7  -7  -2   79.09   19.70
   7  -7  -2   94.89   25.40
   7   7  -2   91.59   26.00
  -7   7   2   99.79   23.80
   5  -7  -2  946.01   51.19
   5  -7  -2  824.22   44.60
  -5  -7   2  906.91   48.60
   5   7  -2  861.51   48.30
  -5   7   2  883.11   45.00
  -5   7   2  940.21   48.70
   3  -7  -2  436.86   24.00
  -3  -7   2  494.25   31.30
   3  -7  -2  408.66   32.10
  -3  -7   2  484.95   30.90
  -3  -7   2  499.45   25.20
  -3   7   2  549.35   26.50
  -3   7   2  494.35   31.50
   3   7  -2  427.06   23.30
  -1  -7   2  833.92   45.60
  -1  -7   2  876.21   42.70
   1  -7  -2  893.61   46.80
  -1   7   2  845.12   46.40
   1   7  -2  969.70   42.40
   1   7  -2  953.10   43.20
   1  -7   2  345.97   25.90
  -1  -7  -2  339.77   26.70
   1  -7   2  408.56   27.70
   1  -7   2  365.76   21.80
  -1   7  -2  329.27   24.80
   1   7   2  379.96   28.30
  -1   7  -2  348.57   20.80
   3  -7   2  499.95   35.00
  -3  -7  -2  579.64   36.70
  -3   7  -2  588.84   25.90
  -3   7  -2  549.95   33.90
   3   7   2  492.35   35.10
  -5  -7  -2  681.83   43.30
   5  -7   2  759.42   44.80
  -5   7  -2  715.73   43.60
   5   7   2  736.03   43.30
  -7  -7  -2    7.80    6.30
  -7  -7  -2   -9.20   12.20
  -7  -7  -2   11.00   14.50
   7  -7   2   10.20   14.30
  -7   7  -2  -12.70   12.90
  -9  -7  -2   99.39   20.80
   9  -7   2  159.18   36.30
  -9  -7  -2  189.78   37.80
  -9   7  -2  103.69   36.00
   9   7   2   93.49   28.20
 -11  -7  -2  144.19   40.40
 -11  -7  -2  194.88   50.69
  11  -7   2  165.58   43.50
 -11   7  -2  103.99   27.50
  11   7   2   62.79   23.30
 -12  -8   2  -31.20   20.60
  12  -8  -2    3.60   18.50
 -12   8   2   19.30   21.10
 -12   8   2    7.00   19.80
  10  -8  -2  539.45   42.50
 -10  -8   2  543.45   48.10
  10   8  -2  527.25   50.89
 -10   8   2  560.94   46.40
 -10   8   2  544.65   45.20
  -8  -8   2  123.39   30.40
   8  -8  -2   97.89   25.70
   8  -8  -2  153.48   32.10
   8   8  -2  135.99   32.40
  -8   8   2  140.59   29.20
  -6  -8   2  237.38   29.40
   6  -8  -2  249.97   23.90
   6  -8  -2  292.17   32.50
  -6   8   2  251.87   29.00
   6   8  -2  289.07   32.60
  -4  -8   2  487.15   33.80
  -4  -8   2  467.85   33.90
   4  -8  -2  470.95   36.10
   4  -8  -2  457.95   26.20
  -4   8   2  461.55   34.50
  -4   8   2  489.15   28.60
   2  -8  -2  481.05   33.10
  -2  -8   2  426.26   30.50
  -2  -8   2  426.86   26.80
  -2  -8   2  427.96   30.40
  -2   8   2  428.66   31.60
   2   8  -2  464.45   24.90
   0  -8   2  352.56   28.10
   0  -8  -2  376.46   30.30
   0  -8   2  372.86   27.60
   0  -8   2  382.56   26.70
   0   8  -2  379.16   24.20
   0   8  -2  400.86   26.90
   0   8   2  352.36   29.60
   2  -8   2  125.89   21.50
   2  -8   2  139.19   15.90
  -2  -8  -2  132.79   24.20
   2   8   2  116.89   23.50
  -2   8  -2  132.39   21.20
  -2   8  -2   98.99   13.40
   4  -8   2  743.43   44.80
  -4  -8  -2  699.13   44.40
   4   8   2  723.93   44.20
  -4   8  -2  692.43   42.80
  -4   8  -2  685.13   32.30
   6  -8   2   42.00   15.50
  -6  -8  -2   18.80   14.40
  -6   8  -2   38.70   15.40
   6   8   2   34.20   14.40
   8  -8   2   10.90   18.30
  -8  -8  -2   36.60   17.20
  -8   8  -2   17.10   17.40
   8   8   2   32.40   16.50
 -10  -8  -2  143.59   41.40
  10  -8   2  146.49   42.30
  10   8   2  234.48   35.10
 -10   8  -2  154.48   44.20
  11  -9  -2  155.48   35.20
 -11  -9   2  145.19   41.20
  11   9  -2  131.99   49.50
 -11   9   2  152.58   39.30
 -11   9   2  145.59   49.70
   9  -9  -2  320.97   44.30
  -9  -9   2  327.87   40.60
   9  -9  -2  261.67   35.20
  -9   9   2  368.86   38.00
   9   9  -2  313.87   42.30
  -7  -9   2  254.57   34.40
   7  -9  -2  174.68   26.30
   7  -9  -2  267.47   36.20
  -7   9   2  279.67   34.50
   7   9  -2  236.18   34.80
  -5  -9   2   44.00   15.80
   5  -9  -2  110.59   29.00
   5  -9  -2   57.99   18.50
  -5   9   2   44.80   14.90
  -5   9   2   67.29   23.50
  -3  -9   2  205.88   27.80
   3  -9  -2  167.48   28.90
  -3  -9   2  222.58   22.80
   3  -9  -2  261.67   15.80
  -3  -9   2  186.08   24.70
   3   9  -2  242.88   17.70
  -3   9   2  233.18   27.30
  -3   9   2  225.78   20.00
  -1  -9   2  488.65   34.10
  -1  -9   2  485.05   34.30
  -1  -9   2  506.95   34.00
   1  -9  -2  534.45   37.30
  -1   9   2  522.25   36.40
   1   9  -2  509.75   31.20
  -1  -9  -2   86.89   23.20
   1  -9   2   92.79   21.80
   1  -9   2   83.59   22.40
  -1   9  -2   46.50   15.60
   1   9   2   71.69   23.00
  -1   9  -2   83.19   20.40
  -3  -9  -2  526.05   40.40
   3  -9   2  513.35   37.70
   3  -9   2  590.54   30.90
  -3   9  -2  503.25   37.10
  -3   9  -2  447.76   27.70
   3   9   2  553.74   39.00
   5  -9   2  495.75   38.40
  -5  -9  -2  480.65   39.90
   5   9   2  528.85   40.30
  -5   9  -2  428.26   38.40
  -7  -9  -2  225.08   36.60
   7  -9   2  147.79   37.40
   7   9   2  207.48   36.20
  -7   9  -2  210.18   35.50
  -9  -9  -2  146.99   42.30
   9  -9   2  209.38   54.19
  -9   9  -2  158.68   42.30
   9   9   2  192.58   37.80
  11  -9   2   91.79   30.30
 -11  -9  -2   74.19   26.10
  11   9   2  166.08   49.70
 -11   9  -2   79.69   29.80
 -10 -10   2  404.56   51.79
  10 -10  -2  337.77   40.50
  10 -10  -2  420.66   53.49
 -10  10   2  399.46   59.59
  10  10  -2  482.45   54.59
   8 -10  -2  159.78   39.70
   8 -10  -2   76.79   18.30
  -8 -10   2  107.89   40.20
   8  10  -2  162.28   41.10
  -8  10   2   81.29   21.20
  -6 -10   2  199.68   36.30
   6 -10  -2  318.47   41.20
   6 -10  -2  232.98   25.60
  -6  10   2  225.18   36.30
  -4 -10   2   46.60   16.60
   4 -10  -2   84.59   31.40
  -4 -10   2   60.79   16.00
  -4 -10   2   55.59   14.10
   4 -10  -2   51.99   14.30
  -4  10   2  111.29   27.40
  -4  10   2   71.59   23.80
   4  10  -2   52.39   13.60
  -2 -10   2  476.25   36.80
  -2 -10   2  441.36   36.70
   2 -10  -2  476.55   39.60
  -2 -10   2  444.16   34.50
   2  10  -2  480.85   29.90
  -2  10   2  469.05   37.90
   0 -10   2   29.00   13.60
   0 -10   2   17.00   13.20
   0 -10  -2   12.10   13.20
   0  10  -2   14.60   11.00
   0  10   2   20.60   13.60
   2 -10   2  239.98   29.40
   2 -10   2  271.67   27.50
  -2 -10  -2  237.38   32.80
  -2  10  -2  196.68   28.20
   2  10   2  248.58   29.50
   4 -10   2  442.26   28.90
   4 -10   2  442.26   38.30
  -4 -10  -2  449.26   42.00
  -4  10  -2  412.86   38.00
  -4  10  -2  336.97   24.60
   4  10   2  448.66   38.30
   6 -10   2   97.39   32.30
  -6  10  -2  166.78   34.60
  -8 -10  -2   19.00   20.70
   8 -10   2   45.70   35.30
   8  10   2   30.50   21.40
  -8  10  -2   69.69   43.50
  10 -10   2   94.39   28.70
 -10 -10  -2   75.69   26.60
 -10  10  -2  137.89   49.40
  10  10   2  190.58   50.09
   9 -11  -2  226.08   50.89
   9 -11  -2  146.79   36.80
  -9 -11   2  252.37   48.00
  -9  11   2  156.08   45.00
   9  11  -2  168.38   49.10
  -7 -11   2  145.69   39.60
  -7 -11   2  192.38   36.20
   7 -11  -2  128.69   43.30
   7 -11  -2  120.39   29.10
  -7  11   2  152.38   40.40
   5 -11  -2  327.67   28.60
  -5 -11   2  377.16   36.20
  -5 -11   2  382.76   41.80
   5 -11  -2  358.96   42.20
   5  11  -2  304.87   21.80
  -5  11   2  382.46   41.10
  -3 -11   2  190.08   27.70
   3 -11  -2  159.98   36.20
  -3 -11   2  224.28   35.30
   3  11  -2  194.58   23.10
  -3  11   2  186.78   32.30
  -1 -11   2   89.19   33.40
  -1 -11   2  119.19   28.00
   1 -11  -2  230.18   33.70
  -1  11   2  155.88   29.00
   1  11  -2  165.18   23.40
  -1 -11  -2   81.79   30.80
   1 -11   2  111.29   30.10
   1 -11   2  143.79   28.80
  -1  11  -2   99.99   26.50
   1  11   2  161.98   29.60
  -3 -11  -2  215.88   35.50
   3 -11   2  203.58   32.60
   3 -11   2  217.28   32.70
   3  11   2  214.78   32.30
  -3  11  -2  229.38   33.50
  -5 -11  -2  529.35   48.40
   5 -11   2  488.65   43.30
  -5  11  -2  521.85   45.40
   5  11   2  440.16   44.90
   7 -11   2   30.60   34.20
   7  11   2    4.90   21.40
  -7  11  -2   66.19   41.20
  -9 -11  -2   10.30   24.70
   9 -11   2   49.40   27.00
  -9  11  -2   37.60   26.90
   9  11   2   21.90   26.20
   8 -12  -2   15.50   18.10
  -8 -12   2   79.99   25.70
  -8 -12   2   43.60   22.70
   8 -12  -2   40.70   40.50
  -8  12   2   21.70   23.60
   6 -12  -2  345.17   53.89
  -6 -12   2  268.57   38.20
   6 -12  -2  364.96   30.60
  -6 -12   2  308.07   47.30
  -4 -12   2  319.47   34.20
  -4 -12   2  299.17   44.30
   4 -12  -2  251.17   44.60
  -4  12   2  326.07   43.60
   4  12  -2  239.98   25.40
  -2 -12   2  195.08   32.50
  -2 -12   2  181.78   42.10
   2 -12  -2  223.78   39.30
   2  12  -2  259.07   28.40
  -2  12   2  169.98   35.00
   0 -12   2   49.99   19.40
   0 -12  -2  121.79   36.00
   0 -12   2   88.39   29.40
   0  12  -2   55.99   16.30
   0  12   2   81.39   29.90
   2 -12   2   18.90   19.10
   2 -12   2   40.60   18.50
  -2 -12  -2   -0.30   16.00
   2  12   2   19.50   16.80
  -2  12  -2   -7.90   14.80
   4 -12   2  393.06   43.50
   4 -12   2  394.56   44.40
  -4 -12  -2  459.85   52.49
  -4  12  -2  481.75   45.50
   4  12   2  478.25   44.90
   6 -12   2  134.89   41.20
  -6 -12  -2  169.38   46.80
  -6  12  -2  139.19   48.40
   6  12   2   79.99   21.80
   7 -13  -2   38.70   31.50
  -7 -13   2   80.19   29.20
  -7 -13   2   42.50   22.30
  -7  13   2   25.80   27.30
  -5 -13   2  154.08   49.90
   5 -13  -2  122.69   34.90
  -5 -13   2  154.38   34.20
  -5  13   2  141.29   51.49
   5  13  -2  159.98   25.20
   3 -13  -2  103.59   29.00
  -3 -13   2   85.09   26.90
  -3 -13   2  115.69   33.40
   3  13  -2  106.29   26.80
  -3  13   2   80.89   42.10
  -1 -13   2  365.96   48.10
   1 -13  -2  407.76   52.39
  -1 -13   2  372.46   40.50
  -1  13   2  288.57   42.70
   1  13  -2  383.46   36.30
   1 -13   2   99.89   33.60
  -1 -13  -2   57.19   44.60
   1 -13   2  125.89   43.40
  -1  13  -2   74.29   18.90
   1  13   2  155.78   37.90
  -3 -13  -2   51.89   24.50
   3 -13   2   52.89   23.90
   3 -13   2   60.29   21.10
  -3  13  -2   60.59   21.20
   3  13   2   35.80   20.80
  -5 -13  -2  272.97   55.19
   5 -13   2  254.77   79.79
   5  13   2  271.17   74.69
  -5  13  -2  231.98   46.70
  -4 -14   2  128.39   40.00
   4 -14  -2   85.39   30.70
  -4 -14   2  139.69   51.39
  -4  14   2  213.38   55.09
   4  14  -2  131.49   30.50
  -2 -14   2  243.58   41.50
  -2 -14   2  237.48   56.29
   2 -14  -2  291.17   52.19
   2  14  -2  290.27   35.70
  -2  14   2  265.07   50.99
   0 -14   2  100.69   39.00
   0 -14   2  105.99   29.20
   0 -14  -2   85.29   29.70
   0  14   2   90.69   25.50
   0  14  -2  166.08   37.70
   2 -14   2   18.70   25.90
   2 -14   2   32.90   23.30
  -2 -14  -2    6.90   26.40
  -2  14  -2  -17.60   20.50
   2  14   2   58.39   22.00
   4 -14   2   72.79   37.00
   4 -14   2   56.09   24.90
  -4 -14  -2   76.29   30.80
   4  14   2   38.60   23.30
  -4  14  -2   80.79   25.90
  14   0  -3  336.47   52.49
 -14   0   3  223.58   44.20
  12   0  -3   85.99   34.00
 -12   0   3   30.20   19.80
 -12   0   3   33.20   13.20
 -10   0   3  137.49   28.40
  10   0  -3  116.69   29.10
 -10   0   3  101.09   17.90
  -8   0   3 1196.48   52.39
  -8   0   3 1203.88   61.99
   8   0  -3 1135.89   61.29
  -8   0   3 1175.68   51.69
  -6   0   3  819.62   36.80
  -6   0   3  789.42   37.50
  -6   0   3  809.42   44.00
   6   0  -3  721.93   43.20
  -4   0   3  144.59   15.10
  -4   0   3  159.48   14.50
   4   0  -3  180.48   20.00
  -4   0   3  127.19   19.10
  -2   0   3  700.53   37.30
  -2   0   3  775.42   36.50
  -2   0   3  716.53   40.50
  -2   0   3  752.62   37.10
   2   0  -3  701.83   35.10
   2   0  -3  684.13   37.20
   0   0  -3 1114.39   50.69
   0   0   3 1041.60   50.89
   0   0   3 1056.39   50.79
   0   0   3 1076.89   48.40
   0   0   3 1066.79   50.99
   0   0  -3 1119.79   48.20
   2   0   3  490.45   29.40
  -2   0  -3  520.25   30.60
   2   0   3  497.45   25.50
   2   0   3  446.16   29.40
  -2   0  -3  529.75   24.90
   4   0   3  401.86   20.40
   4   0   3  378.86   27.10
  -4   0  -3  323.57   18.50
  -4   0  -3  303.17   27.40
  -6   0  -3 1110.29   59.59
   6   0   3 1143.79   57.99
   8   0   3  232.18   32.80
  -8   0  -3  224.68   34.70
  10   0   3   99.69   24.80
 -10   0  -3  140.39   39.80
  12   0   3  193.88   68.69
 -12   0  -3  153.08   52.09
  15  -1  -3  170.68   51.49
 -15  -1   3  101.09   28.60
  15   1  -3   89.89   32.80
 -15   1   3   59.89   26.90
  13  -1  -3  314.57   61.39
 -13  -1   3  206.68   41.50
 -13   1   3  264.97   36.70
 -13   1   3  263.27   44.70
 -11  -1   3   25.90   16.30
  11  -1  -3   77.19   30.90
  11  -1  -3   49.80   14.30
 -11   1   3   86.29   24.70
 -11   1   3   81.49   30.00
  11   1  -3   36.10   17.90
   9  -1  -3  391.36   24.30
   9  -1  -3  427.76   36.40
  -9  -1   3  428.96   36.10
   9   1  -3  429.26   37.20
  -9   1   3  429.16   35.90
  -9   1   3  384.06   27.30
  -7  -1   3  704.53   42.30
   7  -1  -3  689.83   42.30
  -7   1   3  740.33   35.90
  -7   1   3  711.33   36.40
   7   1  -3  690.73   42.20
  -7   1   3  720.93   42.30
  -5  -1   3  147.29   20.50
  -5  -1   3  147.89   13.50
   5  -1  -3  151.78   18.70
  -5  -1   3  162.08   13.30
  -5   1   3  124.79   14.90
  -5   1   3  115.29   16.80
   5   1  -3  189.88   21.70
  -5   1   3  122.79   20.00
  -3  -1   3  553.94   30.80
   3  -1  -3  505.75   30.20
  -3  -1   3  518.85   27.00
  -3  -1   3  516.55   30.10
  -3   1   3  498.75   30.10
  -3   1   3  515.35   31.30
  -3   1   3  563.64   28.60
  -3   1   3  550.34   32.30
  -3   1   3  540.85   29.40
   3   1  -3  493.45   26.00
   3   1  -3  502.15   31.90
  -1  -1   3  868.41   42.30
  -1  -1   3  852.21   44.80
  -1  -1   3  908.51   45.00
   1  -1  -3  865.91   43.30
  -1  -1   3  936.41   42.50
  -1  -1   3  933.41   42.50
  -1   1   3  922.91   44.20
  -1   1   3  926.01   42.80
  -1   1   3  887.91   43.10
   1   1  -3  882.11   42.00
   1  -1   3  673.33   38.70
   1  -1   3  684.03   37.20
  -1  -1  -3  723.53   37.80
   1  -1   3  665.83   32.60
  -1  -1  -3  771.82   34.40
   1  -1   3  653.23   37.20
   1  -1   3  707.33   33.10
  -1   1  -3  789.12   37.70
   1   1   3  678.53   34.20
   1   1   3  684.63   36.20
   3  -1   3   61.29   17.40
  -3  -1  -3   55.79   10.30
   3  -1   3   58.29    9.70
  -3   1  -3   35.70   11.30
   3   1   3   64.49   16.40
   3   1   3   72.19   13.10
  -5  -1  -3  266.57   27.70
  -5  -1  -3  259.37   18.40
   5  -1   3  345.27   28.10
   5   1   3  359.16   21.60
  -5   1  -3  281.77   29.40
   5   1   3  358.26   26.70
  -7  -1  -3  668.63   44.30
   7  -1   3  689.43   45.80
  -7  -1  -3  647.14   32.20
   7   1   3  704.23   43.70
   7   1   3  652.53   36.50
  -7   1  -3  662.43   45.80
  -9  -1  -3   90.79   35.50
  -9  -1  -3  125.49   14.70
   9  -1   3   62.39   19.90
   9   1   3   82.99   20.30
  -9   1  -3  102.89   24.20
  11  -1   3   31.90   22.10
 -11  -1  -3   33.30   33.30
  11   1   3   41.70   21.60
 -11   1  -3   37.90   26.60
 -14  -2   3  259.07   47.20
  14  -2  -3  382.06   49.90
 -14   2   3  338.67   46.50
 -14   2   3  388.06   53.69
  14   2  -3  417.16   57.79
 -12  -2   3   27.10   18.20
  12  -2  -3   44.80   19.30
 -12   2   3   46.10   19.10
 -12   2   3   97.79   30.30
  12   2  -3   43.70   21.50
  10  -2  -3   26.60   14.40
 -10  -2   3    4.70   15.10
 -10   2   3   58.09   20.70
 -10   2   3   34.50   14.70
  10   2  -3   71.19   28.40
   8  -2  -3 1367.46   63.59
   8  -2  -3 1449.46   70.69
  -8  -2   3 1430.56   71.69
   8   2  -3 1498.45   72.39
  -8   2   3 1404.46   71.19
  -8   2   3 1473.35   65.19
   6  -2  -3  173.38   20.70
  -6  -2   3  218.38   23.80
   6   2  -3  205.38   23.70
  -6   2   3  183.38   18.00
  -6   2   3  199.18   20.70
  -6   2   3  199.58   23.50
  -4  -2   3  374.46   19.70
  -4  -2   3  375.06   26.20
   4  -2  -3  363.56   26.20
   4  -2  -3  380.56   26.00
  -4  -2   3  375.16   20.30
   4   2  -3  389.96   27.30
  -4   2   3  364.56   25.40
  -4   2   3  350.56   24.50
  -4   2   3  334.87   25.70
  -2  -2   3 1090.59   49.80
  -2  -2   3 1111.69   49.60
  -2  -2   3 1129.29   47.90
   2  -2  -3 1026.10   50.79
   2  -2  -3 1000.60   48.70
   2   2  -3 1013.00   47.20
  -2   2   3 1114.49   51.19
   2   2  -3 1022.50   52.09
  -2   2   3 1060.89   50.69
  -2   2   3 1095.09   50.29
  -2   2   3 1080.49   49.50
   0  -2  -3  763.22   38.10
   0  -2   3  663.63   38.20
   0  -2   3  708.33   33.80
   0  -2   3  693.93   33.80
   0  -2  -3  734.73   41.20
   0  -2   3  688.03   36.20
   0   2   3  696.93   34.70
   0   2   3  669.93   35.80
   0   2   3  670.23   35.20
   0   2  -3  773.22   37.50
  -2  -2  -3  548.45   33.40
  -2  -2  -3  548.65   28.80
   2  -2   3  512.85   33.10
   2  -2   3  507.75   25.20
   2  -2   3  541.35   25.20
   2   2   3  556.64   29.10
   2   2   3  562.64   30.50
  -2   2  -3  563.54   33.20
   2   2   3  509.95   29.30
  -4  -2  -3  113.59   15.80
   4  -2   3  142.39   21.90
  -4  -2  -3  119.29   21.40
  -4  -2  -3  124.39   13.10
   4   2   3  110.19   17.00
  -4   2  -3  109.79   21.70
   4   2   3  133.29   18.30
  -6  -2  -3  715.43   45.80
  -6  -2  -3  751.82   38.00
   6  -2   3  768.32   46.10
   6   2   3  863.61   45.10
   6   2   3  768.12   41.10
   8  -2   3  258.17   35.50
  -8  -2  -3  325.87   36.80
  -8  -2  -3  293.47   24.00
   8   2   3  248.68   32.70
  -8   2  -3  272.67   35.40
 -10  -2  -3   69.39   22.80
  10  -2   3   18.10   20.10
 -10   2  -3   44.60   23.40
  10   2   3    8.00   19.90
  12  -2   3   34.50   28.50
 -12  -2  -3   42.90   27.90
  12   2   3    4.80   26.90
 -12   2  -3   -3.60   28.60
 -13  -3   3  285.07   41.30
 -13   3   3  270.17   44.10
 -13   3   3  272.37   49.40
  13   3  -3  384.26   52.29
 -11  -3   3   21.20   16.70
  11  -3  -3   28.60   15.30
 -11   3   3   -5.20   14.40
 -11   3   3    7.90   14.70
  11   3  -3    3.00   15.80
   9  -3  -3  387.16   32.90
  -9  -3   3  302.17   33.00
  -9   3   3  348.57   34.00
  -9   3   3  341.67   28.90
   9   3  -3  366.36   36.20
   7  -3  -3  294.27   26.70
  -7  -3   3  277.27   28.00
   7   3  -3  257.47   29.80
  -7   3   3  312.47   24.40
  -7   3   3  321.97   29.20
  -5  -3   3  800.42   45.10
   5  -3  -3  919.71   46.90
   5  -3  -3  903.71   44.10
  -5   3   3  803.12   43.20
  -5   3   3  808.92   44.60
   5   3  -3  907.51   47.60
  -3  -3   3 1155.58   51.79
   3  -3  -3  968.90   51.89
  -3  -3   3 1123.29   46.50
   3  -3  -3  975.60   51.99
  -3   3   3 1143.09   55.09
  -3   3   3 1143.79   50.39
   3   3  -3  975.20   52.59
   3   3  -3  993.90   45.90
  -3   3   3 1121.19   51.99
  -1  -3   3  489.15   31.40
  -1  -3   3  493.15   27.00
  -1  -3   3  468.55   26.70
  -1  -3   3  497.85   26.80
   1  -3  -3  499.35   31.10
  -1   3   3  538.55   35.80
  -1   3   3  487.45   30.70
  -1   3   3  492.25   26.90
   1   3  -3  474.55   26.50
  -1  -3  -3 1270.97   57.19
   1  -3   3 1162.28   58.39
   1  -3   3 1297.37   52.19
   1  -3   3 1188.28   56.39
   1  -3   3 1252.07   51.89
  -1  -3  -3 1171.18   58.29
   1   3   3 1196.68   53.89
  -1   3  -3 1262.37   56.99
   1   3   3 1181.88   56.09
   1   3   3 1198.18   53.39
  -3  -3  -3   17.90   10.30
  -3  -3  -3    7.10    8.20
   3  -3   3   14.10   10.00
   3   3   3   21.00    8.80
   3   3   3   18.20    6.90
   3   3   3   22.70    9.10
  -3   3  -3   13.30    9.10
  -5  -3  -3  132.29   17.40
  -5  -3  -3  152.18   19.00
  -5  -3  -3  113.59   25.10
   5  -3   3  146.39   24.70
  -5   3  -3  146.89   24.10
   5   3   3  120.09   20.80
   5   3   3  154.68   23.50
  -7  -3  -3  581.14   35.60
  -7  -3  -3  583.44   43.30
   7  -3   3  595.14   44.30
  -7   3  -3  634.74   43.30
   7   3   3  616.94   39.60
  -9  -3  -3   24.20   12.00
  -9  -3  -3   48.00   19.60
   9  -3   3    7.40   17.80
   9   3   3   11.20   16.70
  -9   3  -3  110.19   34.50
 -11  -3  -3   31.00   24.70
  11  -3   3   24.40   25.80
 -11  -3  -3   89.19   26.20
  11   3   3   18.70   25.40
 -11   3  -3   64.79   26.30
 -14  -4   3  143.09   48.60
  14  -4  -3  208.88   46.10
 -14   4   3  202.68   45.40
  14   4  -3  192.28   58.89
 -14   4   3  166.08   54.69
 -12  -4   3  108.69   37.60
  12  -4  -3  133.39   35.50
 -12   4   3  115.29   33.40
  12   4  -3   60.69   23.80
 -12   4   3   93.59   34.50
 -10  -4   3  300.17   35.70
  10  -4  -3  329.17   34.30
 -10   4   3  336.37   37.30
  10   4  -3  291.07   38.70
 -10   4   3  342.57   31.50
  -8  -4   3  580.94   40.70
   8  -4  -3  561.84   38.00
  -8   4   3  582.74   41.10
   8   4  -3  540.05   41.40
  -8   4   3  540.45   36.20
   6  -4  -3  439.46   29.50
   6  -4  -3  439.86   32.40
  -6  -4   3  364.36   31.20
  -6   4   3  372.66   28.70
   6   4  -3  410.86   32.90
   4  -4  -3  305.27   21.70
   4  -4  -3  294.57   25.50
  -4  -4   3  258.77   24.10
  -4   4   3  228.48   22.50
   4   4  -3  291.37   26.90
  -4   4   3  272.47   23.50
   2  -4  -3 1135.79   57.19
  -2  -4   3 1199.08   57.99
  -2  -4   3 1070.99   63.49
  -2  -4   3 1226.48   51.39
   2  -4  -3 1127.79   51.39
  -2   4   3 1250.57   52.59
   2   4  -3 1122.29   50.89
  -2   4   3 1228.18   56.99
   2   4  -3 1109.59   52.39
   0  -4   3 1202.08   56.09
   0  -4   3 1282.77   54.09
   0  -4  -3 1252.37   58.89
   0  -4   3 1155.98   59.09
   0  -4   3 1234.28   53.79
   0   4   3 1245.28   59.49
   0   4   3 1186.68   53.29
   0   4   3 1242.18   53.29
   0   4  -3 1265.87   56.49
   2  -4   3  579.14   36.00
  -2  -4  -3  559.74   33.30
  -2  -4  -3  539.15   35.60
  -2   4  -3  566.94   34.00
   2   4   3  588.14   29.10
   2   4   3  606.04   29.60
   4  -4   3   81.39   23.00
  -4  -4  -3   84.79   22.60
  -4  -4  -3  108.79   18.30
  -4   4  -3   71.79   19.70
   4   4   3   85.59   16.70
   6  -4   3  967.90   55.69
  -6  -4  -3 1022.40   57.59
  -6  -4  -3  916.91   46.40
  -6  -4  -3 1020.50   50.39
  -6   4  -3  969.40   54.39
   6   4   3  973.70   49.30
  -8  -4  -3  223.48   37.10
  -8  -4  -3  209.08   27.70
   8  -4   3  219.68   38.40
   8   4   3  197.08   29.70
  -8   4  -3  254.07   34.70
 -10  -4  -3  -26.80   21.10
  10  -4   3  -22.50   21.90
  10   4   3   -5.90   19.10
 -10   4  -3   45.70   34.80
  13  -5  -3  171.78   41.40
 -13  -5   3  110.49   44.00
  13   5  -3  233.58   52.29
 -13   5   3  172.68   46.00
 -13   5   3  201.88   42.60
  11  -5  -3   24.90   18.30
 -11  -5   3   37.80   18.00
 -11   5   3   30.00   18.80
 -11   5   3   94.69   30.70
  11   5  -3   38.20   20.70
   9  -5  -3  544.05   40.90
  -9  -5   3  565.04   43.90
  -9   5   3  541.05   42.50
  -9   5   3  528.45   39.20
   9   5  -3  606.84   46.80
   7  -5  -3  239.38   25.40
   7  -5  -3  208.28   28.40
  -7  -5   3  199.08   28.30
  -7   5   3  157.18   24.90
   7   5  -3  184.98   29.10
   5  -5  -3  389.46   31.00
   5  -5  -3  383.06   26.20
  -5  -5   3  306.17   28.70
  -5   5   3  308.57   27.40
   5   5  -3  386.16   32.10
  -5   5   3  307.47   27.60
   3  -5  -3  333.77   21.10
  -3  -5   3  392.06   27.20
   3  -5  -3  310.67   30.10
  -3  -5   3  377.06   21.10
   3   5  -3  337.47   19.50
  -3   5   3  367.66   27.50
   3   5  -3  350.96   28.30
  -3   5   3  369.96   23.70
  -1  -5   3 1202.18   52.19
  -1  -5   3 1146.49   51.99
   1  -5  -3 1092.19   56.49
  -1  -5   3 1157.78   57.59
   1   5  -3 1082.79   51.09
   1   5  -3 1111.59   50.99
  -1   5   3 1124.59   56.99
  -1   5   3 1148.99   49.60
  -1  -5  -3  631.14   36.40
   1  -5   3  602.34   29.10
   1  -5   3  618.24   29.30
   1  -5   3  579.34   37.30
   1   5   3  609.84   37.60
  -1   5  -3  597.94   34.10
   1   5   3  563.04   28.40
   3  -5   3   74.79   21.80
  -3  -5  -3   55.59   17.60
  -3  -5  -3   38.90   13.80
  -3   5  -3   63.69   17.80
  -5  -5  -3   71.99   20.50
   5  -5   3   32.10   14.50
  -5   5  -3   40.20   14.30
   5   5   3   38.50   14.80
  -7  -5  -3  691.93   38.70
   7  -5   3  788.32   52.59
  -7  -5  -3  750.22   45.40
  -7  -5  -3  793.92   52.99
   7   5   3  755.42   43.80
  -7   5  -3  775.62   49.40
  -9  -5  -3   16.80   20.50
   9  -5   3    9.70   19.90
  -9  -5  -3    7.40   13.70
   9   5   3    9.20   18.50
  -9   5  -3    8.10   18.30
  11  -5   3   45.20   27.80
 -11  -5  -3   22.80   27.00
 -11  -5  -3   96.09   34.30
  11   5   3   12.20   24.80
 -11   5  -3   48.60   26.60
  12  -6  -3   50.39   21.90
 -12  -6   3   59.19   24.20
  12   6  -3   74.49   49.80
 -12   6   3   24.70   21.80
  10  -6  -3  115.69   32.10
 -10  -6   3  138.09   35.90
 -10   6   3   82.99   20.70
 -10   6   3  117.79   30.80
  10   6  -3  132.69   40.10
   8  -6  -3  730.83   44.20
   8  -6  -3  687.13   48.00
  -8  -6   3  706.03   48.40
   8   6  -3  722.63   50.19
  -8   6   3  712.53   45.50
  -6  -6   3  180.48   27.50
   6  -6  -3  251.37   29.90
   6  -6  -3  263.87   24.90
   6   6  -3  239.58   31.90
  -6   6   3  204.08   27.20
   4  -6  -3   85.29   15.00
   4  -6  -3   80.59   24.20
  -4  -6   3   42.20   12.90
   4   6  -3   88.89   23.10
  -4   6   3   49.60   16.90
  -4   6   3   55.19   14.40
  -2  -6   3  988.70   47.40
   2  -6  -3  882.71   50.99
   2  -6  -3  895.61   41.30
  -2  -6   3  984.90   51.79
  -2  -6   3  940.61   44.10
   2   6  -3  907.21   43.10
   2   6  -3  839.52   44.90
  -2   6   3  957.90   51.09
  -2   6   3 1005.90   42.70
   0  -6  -3  523.05   34.70
   0  -6   3  483.85   27.80
   0  -6   3  485.65   34.70
   0  -6   3  466.05   32.00
   0   6  -3  521.55   26.70
   0   6   3  486.05   34.90
   0   6  -3  507.25   30.10
  -2  -6  -3  657.43   39.90
   2  -6   3  682.73   42.20
   2   6   3  670.03   41.70
  -2   6  -3  664.63   39.00
  -4  -6  -3   -1.20   12.00
   4  -6   3   15.10   13.30
  -4   6  -3  -12.50   11.30
  -6  -6  -3  448.06   37.10
   6  -6   3  436.66   39.80
  -6  -6  -3  433.26   42.80
  -6   6  -3  439.06   38.10
   8  -6   3  147.49   38.40
  -8  -6  -3  185.38   33.20
  -8  -6  -3  204.88   41.40
  -8   6  -3  101.89   33.00
   8   6   3  138.99   29.80
 -10  -6  -3   28.10   18.30
  10  -6   3   30.20   25.10
 -10  -6  -3   21.70   29.20
  10   6   3  -10.20   20.70
 -10   6  -3   26.30   24.20
  13  -7  -3  226.58   45.50
 -13  -7   3  188.08   51.69
 -13   7   3  140.39   46.70
 -13   7   3  192.28   54.69
  13   7  -3  190.98   60.49
 -11  -7   3    2.90   24.70
  11  -7  -3  -12.60   17.50
 -11   7   3   10.00   18.10
  11   7  -3   -2.60   22.60
 -11   7   3    0.20   19.00
   9  -7  -3  333.67   34.90
  -9  -7   3  323.57   40.20
   9   7  -3  352.26   42.20
  -9   7   3  295.37   37.80
  -7  -7   3  384.56   37.60
   7  -7  -3  394.46   38.70
   7  -7  -3  378.96   30.90
  -7   7   3  356.86   36.20
   7   7  -3  376.56   40.20
  -5  -7   3  410.16   34.80
   5  -7  -3  488.15   38.10
   5  -7  -3  438.36   28.70
  -5   7   3  390.26   33.90
  -5   7   3  356.26   29.50
   5   7  -3  436.76   37.30
  -3  -7   3  528.05   37.90
   3  -7  -3  483.05   38.40
  -3  -7   3  533.85   29.20
  -3  -7   3  529.85   35.70
   3  -7  -3  440.06   26.10
  -3   7   3  542.95   28.40
  -3   7   3  589.44   37.70
   3   7  -3  474.05   26.30
   1  -7  -3  189.58   26.10
  -1  -7   3  172.98   21.30
  -1  -7   3  169.48   22.70
  -1  -7   3  218.38   25.40
   1   7  -3  152.08   19.20
   1   7  -3  164.88   18.10
  -1   7   3  172.28   26.10
   1  -7   3  921.01   44.00
   1  -7   3  895.01   53.09
  -1  -7  -3  986.70   52.79
   1   7   3  933.21   53.49
  -1   7  -3  987.90   49.20
  -1   7  -3 1003.00   43.40
  -3  -7  -3   11.20   10.60
   3  -7   3   -9.00   13.90
  -3   7  -3    1.00   11.70
   3   7   3   -1.40   12.60
  -5  -7  -3  205.58   28.90
   5  -7   3  218.28   33.80
   5   7   3  236.48   34.90
  -5   7  -3  171.58   28.10
   7  -7   3  288.47   41.30
  -7  -7  -3  296.07   36.70
  -7  -7  -3  282.97   43.40
  -7   7  -3  292.07   37.80
   9  -7   3    9.90   24.50
  -9  -7  -3   32.20   19.30
  -9  -7  -3   27.90   30.30
  -9   7  -3   43.80   24.00
 -12  -8   3   38.40   28.20
  12  -8  -3   -7.00   35.40
 -12   8   3   15.40   36.80
 -12   8   3  -15.30   24.10
  12   8  -3   -0.70   26.30
  10  -8  -3   18.00   18.20
 -10  -8   3   23.90   23.60
 -10   8   3   25.60   20.00
 -10   8   3   -3.10   18.10
  10   8  -3    6.50   23.00
   8  -8  -3  783.52   56.89
   8  -8  -3  827.72   48.90
  -8  -8   3  734.93   53.49
  -8   8   3  793.32   54.09
   8   8  -3  733.23   56.39
  -6  -8   3   81.19   29.90
   6  -8  -3   79.49   31.10
   6  -8  -3  130.09   21.80
   6   8  -3  114.79   32.20
  -6   8   3  153.28   29.90
   4  -8  -3  131.19   14.60
  -4  -8   3   91.79   26.20
   4  -8  -3  194.08   32.50
  -4  -8   3  144.49   27.60
  -4   8   3  100.69   25.90
  -4   8   3   85.79   21.10
  -2  -8   3  416.46   30.90
  -2  -8   3  448.66   32.70
   2  -8  -3  419.26   37.70
  -2  -8   3  418.76   36.60
  -2   8   3  494.95   36.40
   2   8  -3  370.06   34.90
   0  -8   3  584.94   36.20
   0  -8  -3  669.03   43.10
   0  -8   3  586.04   41.90
   0   8   3  595.74   42.50
   0   8  -3  593.14   32.70
   0   8  -3  633.04   36.70
   2  -8   3  302.87   34.20
  -2  -8  -3  376.36   33.80
   2   8   3  336.77   37.70
  -2   8  -3  384.76   31.40
   4  -8   3    7.60   15.80
  -4  -8  -3    2.80   14.40
  -4   8  -3   30.50   15.00
   4   8   3   28.10   16.60
  -6  -8  -3  441.46   45.10
   6  -8   3  479.25   44.80
   6   8   3  496.95   45.50
  -6   8  -3  448.06   41.90
   8  -8   3   52.09   24.10
  -8  -8  -3   63.79   21.10
   8   8   3  112.69   39.80
  -8   8  -3  103.99   39.90
 -11  -9   3    4.50   24.80
  11  -9  -3  -17.30   20.10
 -11   9   3  -13.20   24.00
  11   9  -3   23.60   28.00
 -11   9   3   17.80   24.60
  -9  -9   3  265.37   42.60
   9  -9  -3  250.87   35.20
   9  -9  -3  291.17   45.90
   9   9  -3  312.77   49.10
  -9   9   3  294.17   46.10
   7  -9  -3  505.85   35.70
  -7  -9   3  422.36   44.30
   7  -9  -3  443.76   46.00
  -7   9   3  479.65   43.20
   7   9  -3  411.36   44.90
   5  -9  -3   51.69   20.50
  -5  -9   3   26.00   15.60
  -5  -9   3   18.60   15.60
   5  -9  -3   17.10   10.40
  -5   9   3   10.70   17.20
  -5   9   3    7.50   15.70
  -3  -9   3  189.78   25.10
  -3  -9   3  179.68   30.00
   3  -9  -3  230.08   34.80
  -3  -9   3  200.68   30.50
   3   9  -3  181.48   17.10
  -3   9   3  244.58   32.30
   1  -9  -3  284.57   34.90
  -1  -9   3  320.37   32.90
  -1  -9   3  335.27   31.40
   1   9  -3  288.47   26.50
  -1   9   3  329.27   34.20
  -1  -9  -3  226.48   32.60
   1  -9   3  210.68   32.30
   1  -9   3  205.18   31.60
   1   9   3  237.08   33.50
  -1   9  -3  177.78   18.90
  -1   9  -3  242.98   26.80
  -3  -9  -3   80.89   30.30
   3  -9   3  101.69   30.70
   3   9   3   63.69   19.30
  -3   9  -3   78.79   26.50
   5  -9   3  116.89   34.80
  -5  -9  -3  123.29   32.60
  -5   9  -3   85.09   20.90
   5   9   3  132.29   39.90
   7  -9   3  209.68   42.60
  -7  -9  -3  336.27   45.20
   7   9   3  309.87   46.80
   9  -9   3   60.49   29.40
  -9  -9  -3  106.79   41.10
   9   9   3  131.49   49.30
  -9   9  -3  118.99   46.30
 -10 -10   3   23.00   24.40
  10 -10  -3   -3.20   19.90
  10 -10  -3  -35.10   24.80
  10  10  -3   16.70   29.50
 -10  10   3   16.90   23.50
   8 -10  -3  365.96   37.20
  -8 -10   3  439.46   48.60
  -8  10   3  438.86   62.69
   8  10  -3  356.16   50.59
  -6 -10   3  189.88   38.10
   6 -10  -3  243.38   26.30
   6 -10  -3  203.58   43.40
  -6 -10   3  229.98   40.10
  -6  10   3  180.78   42.60
  -4 -10   3   47.60   18.20
   4 -10  -3   63.49   21.20
  -4 -10   3   39.50   18.50
  -4  10   3   41.50   19.00
  -2 -10   3  445.56   39.80
   2 -10  -3  423.46   44.30
  -2 -10   3  479.55   39.20
  -2  10   3  465.75   42.10
   2  10  -3  411.46   31.10
   0 -10   3  171.38   32.20
   0 -10   3  233.88   34.40
   0 -10  -3  189.48   34.90
   0  10   3  194.08   33.20
   0  10  -3  186.38   26.00
   2 -10   3  195.48   34.50
  -2 -10  -3  257.77   37.70
  -2  10  -3  200.48   29.40
   2  10   3  165.58   36.00
  -4 -10  -3   69.09   21.60
   4  10   3   55.79   21.20
  -4  10  -3   84.19   30.40
  -6 -10  -3  266.57   45.60
   6 -10   3  287.67   43.80
   6  10   3  268.97   79.79
  -6  10  -3  239.38   48.40
   8 -10   3   96.39   30.80
  -8 -10  -3  154.38   49.10
   8  10   3  123.59   34.70
  -8  10  -3  146.19   31.20
  -9 -11   3   65.39   28.70
   9 -11  -3  120.59   34.80
   9 -11  -3   90.59   31.40
  -9  11   3  149.59   53.39
   9  11  -3   68.79   34.20
   7 -11  -3  195.38   51.19
   7 -11  -3  275.57   29.80
  -7 -11   3  156.88   46.40
  -7 -11   3  251.37   42.40
  -7  11   3  198.98   49.99
  -5 -11   3  243.48   39.30
   5 -11  -3  327.67   50.79
  -5 -11   3  267.17   44.30
  -5  11   3  286.57   49.50
  -3 -11   3  147.49   34.00
  -3 -11   3  105.99   38.50
   3 -11  -3  151.18   41.90
  -3  11   3  163.68   38.90
   3  11  -3  137.99   21.80
   1 -11  -3  137.09   39.90
  -1 -11   3  167.28   37.10
  -1 -11   3  145.79   34.60
  -1  11   3  130.09   36.60
   1  11  -3  102.79   25.30
   1 -11   3  228.88   37.30
  -1 -11  -3  309.57   42.40
   1 -11   3  218.88   38.90
   1  11   3  276.67   39.70
  -1  11  -3  256.07   31.10
  -3 -11  -3    8.70   20.20
   3 -11   3    9.80   15.80
   3 -11   3   -5.60   18.50
  -3  11  -3    7.40   17.30
   3  11   3  -15.50   17.00
  -5 -11  -3  112.29   40.70
   5 -11   3  141.29   40.50
   5  11   3   93.09   27.00
  -5  11  -3   76.69   22.30
  -6 -12   3   28.30   29.00
   6 -12  -3   16.20   29.00
  -6 -12   3   54.99   23.80
  -6  12   3   59.59   28.10
  -4 -12   3  179.88   46.20
   4 -12  -3  230.18   50.89
  -4 -12   3  186.28   39.30
  -4  12   3  234.48   47.10
   2 -12  -3  170.48   46.40
  -2 -12   3  279.57   46.90
  -2 -12   3  269.37   38.80
  -2  12   3  294.27   44.50
   0 -12   3  179.68   47.00
   0 -12   3  170.28   40.20
   0 -12  -3  212.58   45.20
   0  12  -3  215.38   33.10
   2 -12   3   54.59   21.50
  -2 -12  -3  132.49   45.50
   2 -12   3   56.69   29.00
  -2  12  -3   59.59   19.70
   2  12   3   71.99   21.60
  -4 -12  -3   -8.30   23.30
   4 -12   3   15.30   22.10
   4  12   3  -19.50   20.60
  -4  12  -3  -14.90   20.20
   5 -13  -3  171.28   60.59
  -5 -13   3   73.09   39.50
  -5  13   3  102.39   30.60
  -3 -13   3  276.87   58.69
  -3 -13   3  248.78   43.30
   3 -13  -3  198.48   52.69
  -3  13   3  149.29   51.59
  -1 -13   3  166.08   63.09
  -1 -13   3   96.19   30.60
   1 -13  -3   72.89   27.50
  -1  13   3  164.08   44.90
   1  13  -3   58.09   18.10
   1 -13   3  156.28   47.70
  -1 -13  -3  127.19   50.49
  -1  13  -3  126.79   35.60
   1  13   3  241.48   47.90
   3 -13   3   11.20   25.80
  -3 -13  -3    2.30   27.20
  -3  13  -3   42.50   26.50
   3  13   3    5.80   23.20
 -12   0   4  447.16   52.79
  12   0  -4  467.25   55.99
  10   0  -4  119.59   37.50
 -10   0   4  133.59   36.20
  -8   0   4   16.10   15.60
   8   0  -4   15.40   14.50
  -8   0   4   13.70   11.90
  -8   0   4    7.10   10.50
  -6   0   4  682.03   38.80
  -6   0   4  686.53   37.10
  -6   0   4  701.33   44.30
   6   0  -4  621.24   42.70
  -4   0   4  516.75   36.00
   4   0  -4  488.95   35.90
  -4   0   4  531.25   32.70
  -4   0   4  496.15   33.60
  -2   0   4  315.67   29.40
  -2   0   4  318.67   28.00
   2   0  -4  383.36   27.00
   0   0   4  422.16   29.30
   0   0   4  460.05   32.20
   0   0  -4  408.06   30.60
   0   0   4  435.26   30.60
   2   0   4   60.99   20.90
  -2   0  -4   66.59   22.70
   2   0   4   80.79   18.50
   4   0   4  461.55   27.60
   4   0   4  426.06   37.30
  -4   0  -4  462.65   37.80
  -6   0  -4   24.60   15.60
   6   0   4   40.70   17.10
   8   0   4  202.38   44.20
 -10   0  -4   94.79   29.00
  10   0   4   99.49   31.30
  13  -1  -4  275.47   51.89
 -13  -1   4  171.88   47.50
 -13   1   4  267.67   55.39
  13   1  -4  230.58   55.79
 -11  -1   4  553.14   53.69
  11  -1  -4  547.75   50.69
 -11   1   4  541.55   40.00
 -11   1   4  557.34   51.79
  11   1  -4  643.54   57.09
   9  -1  -4   26.90   16.50
  -9  -1   4   12.90   15.80
   9   1  -4   31.60   17.60
  -9   1   4    4.40   12.70
  -9   1   4   16.20   17.50
   7  -1  -4  163.98   28.90
  -7  -1   4  149.19   28.60
  -7  -1   4  109.59   17.40
  -7  -1   4  142.79   19.20
  -7   1   4  129.19   26.90
   7   1  -4   88.69   28.90
  -7   1   4  146.69   21.60
  -7   1   4   93.69   26.60
  -5  -1   4 1115.69   54.49
   5  -1  -4 1096.39   59.39
  -5  -1   4 1234.78   62.09
  -5   1   4 1229.48   57.29
  -5   1   4 1229.78   62.19
   5   1  -4 1131.19   61.19
   3  -1  -4  242.88   24.30
  -3  -1   4  175.58   23.20
  -3  -1   4  177.68   23.50
  -3   1   4  168.58   24.70
   3   1  -4  254.17   26.10
  -3   1   4  205.08   23.80
  -1  -1   4  448.76   30.50
  -1  -1   4  471.85   33.80
   1  -1  -4  458.15   31.00
  -1  -1   4  425.36   32.20
   1   1  -4  451.75   30.50
  -1   1   4  446.26   31.80
   1  -1   4  149.09   24.20
  -1  -1  -4  129.49   19.00
   1  -1   4  178.98   19.30
  -1  -1  -4  119.79   22.20
   1  -1   4  173.18   17.80
  -1   1  -4  142.39   22.90
   1   1   4  171.28   22.50
   1   1   4  117.09   21.80
  -3  -1  -4  758.42   41.90
   3  -1   4  763.22   36.60
  -3  -1  -4  783.42   47.60
   3  -1   4  730.53   36.80
   3  -1   4  767.42   47.30
   3   1   4  703.03   40.60
   3   1   4  750.02   45.40
  -3   1  -4  779.12   45.90
   5  -1   4   73.99   29.60
  -5  -1  -4   46.30   16.50
  -5  -1  -4   46.10   13.10
  -5   1  -4   52.09   16.70
   5   1   4   86.79   27.30
   5   1   4   34.10   12.90
  -7  -1  -4   47.40   13.80
   7  -1   4   49.20   21.10
  -7  -1  -4   21.50   18.70
  -7   1  -4   34.00   18.70
   7   1   4   45.20   21.00
  -9  -1  -4  128.09   30.70
   9  -1   4  169.88   47.00
   9   1   4  118.99   45.60
  -9   1  -4  156.58   44.10
 -12  -2   4  306.47   47.80
  12  -2  -4  414.26   52.49
 -12   2   4  318.07   39.90
 -12   2   4  407.06   48.70
  12   2  -4  346.47   53.99
  10  -2  -4  113.39   34.10
 -10  -2   4   15.20   17.70
  10   2  -4   37.20   19.80
 -10   2   4   27.30   15.10
 -10   2   4   -1.10   17.40
  -8  -2   4   55.19   17.70
   8   2  -4   94.29   31.80
  -8   2   4   52.99   16.80
  -8   2   4  107.09   24.00
  -6  -2   4 1274.57   64.39
  -6  -2   4 1264.17   54.49
   6  -2  -4 1152.68   62.79
  -6   2   4 1217.98   59.39
   6   2  -4 1124.19   64.09
  -6   2   4 1281.97   66.29
  -4  -2   4  402.96   30.90
   4  -2  -4  377.66   30.50
  -4  -2   4  361.96   26.30
  -4   2   4  339.17   32.40
  -4   2   4  355.76   30.20
   4   2  -4  374.06   32.10
  -2  -2   4  156.08   25.20
   2  -2  -4  179.38   22.30
  -2  -2   4  161.88   22.50
  -2   2   4  159.78   24.10
   2   2  -4  187.88   20.40
  -2   2   4  168.08   23.60
   0  -2  -4  211.58   25.10
   0  -2   4  239.28   22.40
   0  -2   4  262.37   26.70
   0  -2  -4  191.08   23.10
   0   2  -4  238.58   23.80
   0   2   4  242.78   23.90
   2  -2   4  262.67   19.60
  -2  -2  -4  291.07   29.90
  -2  -2  -4  292.87   25.10
   2  -2   4  232.98   20.20
   2  -2   4  246.58   29.00
  -2   2  -4  263.77   27.70
   2   2   4  268.77   26.60
  -4  -2  -4  378.66   37.10
   4  -2   4  327.87   37.00
  -4  -2  -4  402.96   29.70
   4   2   4  318.17   30.00
   4   2   4  361.06   32.50
  -4   2  -4  375.06   34.60
   6  -2   4  110.89   32.70
  -6  -2  -4   45.50   19.00
  -6   2  -4   54.99   18.10
   6   2   4   93.89   32.00
  -8  -2  -4  107.09   39.70
   8  -2   4   81.59   25.40
  -8  -2  -4   92.19   21.80
  -8   2  -4   43.40   31.00
   8   2   4   56.59   22.00
 -10  -2  -4  176.08   55.99
  10  -2   4  162.08   56.89
 -10   2  -4  118.79   32.40
  10   2   4  214.68   53.29
  13  -3  -4  168.68   49.99
 -13  -3   4  141.19   46.50
  13   3  -4  154.18   56.09
 -13   3   4  178.08   47.60
 -13   3   4  110.69   43.40
  11  -3  -4  456.05   46.20
  11   3  -4  465.35   70.89
 -11   3   4  415.76   40.70
 -11   3   4  352.36   61.19
   9  -3  -4   -4.30   14.70
  -9  -3   4    3.90   16.00
  -9   3   4    6.50   14.00
  -9   3   4   -2.90   15.70
   9   3  -4    4.80   17.80
   7  -3  -4  202.68   28.20
  -7  -3   4  181.68   30.80
  -7   3   4  185.18   26.50
  -7   3   4  162.68   31.70
   7   3  -4  178.88   32.20
   5  -3  -4  535.75   36.30
  -5  -3   4  515.35   38.90
  -5  -3   4  539.35   29.50
  -5   3   4  542.65   36.50
   5   3  -4  529.25   40.70
  -5   3   4  593.24   42.50
  -3  -3   4  412.26   31.70
   3  -3  -4  429.66   29.70
  -3  -3   4  388.56   35.70
   3  -3  -4  432.56   32.90
  -3  -3   4  371.16   27.60
  -3   3   4  390.46   33.40
   3   3  -4  429.36   26.60
   1  -3  -4  126.99   23.00
  -1  -3   4  134.79   25.90
  -1  -3   4  139.49   21.80
  -1  -3   4  121.79   22.70
   1   3  -4  134.99   20.30
  -1   3   4  142.29   21.60
  -1   3   4  149.49   25.60
  -1  -3  -4  146.39   23.70
   1  -3   4  184.98   26.80
  -1  -3  -4  171.98   27.50
   1  -3   4  178.68   19.20
   1  -3   4  199.18   18.30
  -1   3  -4  166.48   23.50
   1   3   4  186.98   23.20
   1   3   4  208.48   32.90
  -3  -3  -4  662.83   39.00
  -3  -3  -4  624.54   44.10
   3  -3   4  610.54   44.60
   3   3   4  586.54   38.40
  -3   3  -4  661.13   42.80
  -5  -3  -4   66.59   21.90
   5  -3   4  108.59   31.00
  -5  -3  -4   83.59   20.00
  -5   3  -4   56.49   19.00
   5   3   4   59.89   16.40
  -7  -3  -4   30.00   21.00
   7  -3   4    2.40   19.70
   7   3   4   30.40   19.60
  -7   3  -4   30.70   20.30
  -9  -3  -4  181.48   52.89
   9  -3   4  146.89   47.70
  -9   3  -4  137.79   32.60
   9   3   4  231.88   47.00
  12  -4  -4  288.47   45.00
 -12  -4   4  198.58   44.00
 -12   4   4  276.57   41.50
 -12   4   4  181.78   45.80
  12   4  -4  265.27   53.39
  10  -4  -4  150.18   36.10
 -10  -4   4  177.78   37.70
  10   4  -4  108.79   27.40
 -10   4   4  116.19   38.50
 -10   4   4  119.49   33.40
  -8  -4   4   40.70   16.80
   8  -4  -4   22.30   15.20
  -8   4   4   35.40   15.80
   8   4  -4   32.90   18.00
  -8   4   4   43.40   17.30
   6  -4  -4  350.86   31.90
  -6  -4   4  309.47   34.30
  -6   4   4  298.37   37.10
   6   4  -4  317.67   37.60
  -6   4   4  342.87   31.90
  -4  -4   4  442.06   34.80
  -4  -4   4  466.05   29.40
   4  -4  -4  484.45   32.20
   4  -4  -4  497.55   37.60
   4   4  -4  499.25   39.10
  -4   4   4  467.65   36.20
   4   4  -4  496.35   26.20
  -2  -4   4  172.68   24.70
   2  -4  -4  218.78   27.00
  -2  -4   4  197.78   29.70
  -2  -4   4  197.68   25.40
  -2   4   4  194.18   24.20
  -2   4   4  217.88   28.60
  -2   4   4  178.98   27.60
   2   4  -4  232.58   21.60
   0  -4  -4  274.37   31.20
   0  -4   4  332.37   23.60
   0  -4   4  361.16   32.30
   0  -4   4  329.17   26.50
   0   4   4  331.27   26.30
   0   4  -4  286.37   27.10
   0   4   4  313.37   27.40
   0   4   4  360.66   34.10
   2  -4   4  325.17   34.80
  -2  -4  -4  321.27   35.00
  -2  -4  -4  341.17   30.80
  -2   4  -4  286.37   31.60
   2   4   4  321.17   29.50
   2   4   4  351.46   28.80
  -4  -4  -4  310.57   38.60
  -4  -4  -4  262.57   28.20
   4  -4   4  273.77   37.40
   4   4   4  278.87   28.80
   4   4   4  283.37   42.10
  -4   4  -4  249.88   33.70
   6  -4   4   18.60   17.90
  -6  -4  -4  124.09   38.60
  -6  -4  -4   32.70   14.40
  -6   4  -4   32.80   17.90
   6   4   4   32.00   16.50
   8  -4   4  208.88   60.79
  -8  -4  -4  241.98   51.99
  -8  -4  -4  242.58   30.60
  -8   4  -4  250.47   49.70
   8   4   4  281.17   42.70
 -11  -5   4  395.16   50.99
  11  -5  -4  425.46   45.80
 -11   5   4  369.36   49.30
  11   5  -4  367.06   54.39
 -11   5   4  343.87   45.70
  -9  -5   4  149.79   35.90
   9  -5  -4  100.49   30.70
  -9   5   4   69.09   22.70
   9   5  -4  139.09   39.50
  -9   5   4  112.19   32.90
   7  -5  -4   93.69   26.00
  -7  -5   4   58.49   18.70
  -7   5   4  117.99   30.20
  -7   5   4  119.39   33.90
   7   5  -4   37.30   19.20
  -5  -5   4  578.54   41.70
   5  -5  -4  601.94   45.20
   5  -5  -4  595.74   37.90
  -5   5   4  579.94   41.80
   5   5  -4  601.94   43.70
   3  -5  -4  615.34   40.90
  -3  -5   4  514.75   41.30
   3  -5  -4  624.04   34.00
  -3  -5   4  482.45   33.20
  -3  -5   4  570.84   37.90
   3   5  -4  571.04   39.30
  -3   5   4  536.95   40.70
  -3   5   4  538.55   44.10
  -1  -5   4  306.17   33.00
   1  -5  -4  256.47   32.00
  -1  -5   4  321.47   29.20
  -1  -5   4  307.07   27.50
  -1   5   4  294.37   36.20
  -1   5   4  310.77   27.00
  -1   5   4  352.26   33.80
   1   5  -4  316.17   25.80
  -1  -5  -4  271.97   31.30
   1  -5   4  293.57   23.00
   1  -5   4  302.97   22.00
   1  -5   4  330.87   33.90
   1   5   4  315.87   36.40
   1   5   4  266.87   25.10
   1   5   4  302.97   23.60
  -1   5  -4  233.48   28.80
   3  -5   4  606.34   47.20
  -3  -5  -4  594.24   47.00
  -3  -5  -4  659.33   42.30
   3   5   4  581.14   37.10
   3   5   4  590.54   40.10
  -3   5  -4  622.04   44.40
   5  -5   4    6.40   17.40
  -5  -5  -4   17.60   19.80
  -5  -5  -4   16.70   14.10
  -5   5  -4    8.80   16.30
   5   5   4    4.80   14.80
  -7  -5  -4   93.69   30.60
  -7   5  -4  108.19   34.20
   7   5   4   71.49   20.30
  -9  -5  -4  167.78   36.30
   9  -5   4  138.89   54.09
  -9  -5  -4  274.87   59.09
  -9   5  -4  292.07   56.19
   9   5   4  262.67   52.19
 -12  -6   4  162.28   50.69
  12  -6  -4  170.68   45.90
 -12   6   4  144.69   48.40
 -12   6   4   95.29   29.20
  12   6  -4  136.29   34.40
 -10  -6   4   42.10   28.20
  10  -6  -4   60.39   19.80
 -10   6   4   65.49   22.90
 -10   6   4   67.09   25.30
  10   6  -4   56.49   25.20
   8  -6  -4   27.00   15.40
  -8  -6   4   11.30   18.00
  -8   6   4   22.00   20.60
   8   6  -4    2.80   21.20
  -8   6   4   19.20   19.00
   6  -6  -4  538.15   36.70
   6  -6  -4  520.45   44.60
  -6  -6   4  523.55   43.90
  -6   6   4  558.14   42.80
   6   6  -4  512.75   45.20
  -4  -6   4  325.77   36.40
  -4  -6   4  275.47   32.00
   4  -6  -4  331.87   26.90
   4  -6  -4  328.97   35.60
  -4   6   4  300.17   34.40
  -2  -6   4  114.49   25.50
   2  -6  -4  132.19   30.80
  -2  -6   4   67.79   25.70
  -2  -6   4   99.59   28.40
  -2   6   4   80.29   31.00
   2   6  -4  145.19   20.20
  -2   6   4  102.09   22.10
   0  -6   4  360.76   28.00
   0  -6   4  416.86   38.40
   0  -6  -4  336.07   35.20
   0  -6   4  383.66   31.50
   0   6   4  389.36   25.00
   0   6   4  398.96   40.10
   0   6  -4  319.57   30.20
  -2  -6  -4  172.68   31.00
   2  -6   4  210.48   33.50
  -2   6  -4  198.08   29.70
   2   6   4  216.48   36.00
   4  -6   4  442.76   45.90
  -4  -6  -4  459.75   40.40
  -4   6  -4  516.15   42.10
   4   6   4  509.15   46.20
  -6  -6  -4   -7.20   15.60
   6  -6   4  -30.40   30.70
  -8  -6  -4  132.09   37.90
   8  -6   4  131.39   48.60
  -8  -6  -4  242.58   60.19
  11  -7  -4  138.89   41.50
 -11  -7   4  187.28   49.30
  11   7  -4  246.38   55.39
 -11   7   4  196.48   51.49
 -11   7   4  183.08   48.70
  -9  -7   4  -16.40   19.80
   9  -7  -4   -3.10   17.50
   9   7  -4    0.80   23.90
  -9   7   4    3.90   19.90
  -9   7   4   -6.40   20.80
  -7  -7   4  231.48   39.60
   7  -7  -4  268.37   31.90
   7  -7  -4  282.57   41.60
  -7   7   4  241.68   40.90
   7   7  -4  269.87   42.50
   5  -7  -4  477.35   34.40
   5  -7  -4  475.65   44.70
  -5  -7   4  531.45   45.90
  -5  -7   4  563.04   43.80
  -5   7   4  511.95   43.90
  -3  -7   4  103.39   31.40
   3  -7  -4  156.78   34.80
  -3  -7   4   97.79   29.10
  -3  -7   4  154.98   38.70
  -3   7   4  145.39   34.90
  -3   7   4  111.49   31.80
  -1  -7   4   22.20   15.20
  -1  -7   4   24.40   14.10
   1  -7  -4   30.60   16.20
   1   7  -4   26.00   11.60
  -1   7   4   12.50   16.70
   1  -7   4  132.19   32.20
   1   7   4  165.38   37.30
  -1   7  -4  123.49   26.20
  -3  -7  -4  514.25   44.30
   3  -7   4  586.24   49.90
   3   7   4  546.45   50.19
  -3   7  -4  546.05   42.30
  -5  -7  -4   85.49   20.70
  -5   7  -4   63.49   21.10
   7  -7   4   45.60   25.60
  -7  -7  -4    7.70   19.40
  -7   7  -4    5.60   20.60
 -10  -8   4   43.90   26.20
  10  -8  -4   15.50   20.80
  10   8  -4   30.70   30.80
 -10   8   4   22.10   25.40
  -8  -8   4   26.60   21.60
   8  -8  -4  102.59   29.90
   8  -8  -4  108.39   41.50
   8   8  -4   66.29   26.20
  -8   8   4   10.70   22.00
  -6  -8   4  604.84   50.99
   6  -8  -4  610.84   40.10
   6  -8  -4  580.24   53.79
  -6  -8   4  680.93   54.89
  -6   8   4  688.73   53.39
   4  -8  -4  148.69   20.60
  -4  -8   4  100.49   34.50
   4  -8  -4  152.68   37.10
  -4  -8   4  149.19   35.90
  -4   8   4  106.09   34.10
   2  -8  -4  104.19   35.50
  -2  -8   4   74.79   28.30
  -2  -8   4   50.29   18.30
   2   8  -4   67.79   21.80
   0  -8  -4   85.69   34.00
   0  -8   4  106.69   31.70
   0  -8   4  106.29   28.20
   0   8  -4  110.19   24.60
   0   8   4  100.39   36.60
  -2  -8  -4  176.08   36.60
   2  -8   4  189.08   38.60
   2   8   4  199.38   42.60
  -2   8  -4  183.38   31.80
   4  -8   4  181.38   49.60
  -4  -8  -4  228.88   39.60
   4   8   4  242.38   66.09
  -4   8  -4  281.67   37.40
   6  -8   4   41.50   25.20
  -6  -8  -4   12.20   20.10
   6   8   4   77.19   31.10
  -6   8  -4   35.20   22.10
   9  -9  -4   24.10   19.50
  -9  -9   4   -4.10   23.20
   9  -9  -4   25.60   25.80
   9   9  -4   35.90   29.10
  -9   9   4   21.30   27.90
   7  -9  -4  113.39   45.40
   7  -9  -4   69.29   27.70
  -7  -9   4   48.30   24.40
  -7  -9   4   61.99   24.40
  -7   9   4   90.19   45.70
  -5  -9   4  573.74   51.09
   5  -9  -4  521.75   34.90
  -5  -9   4  583.04   51.99
  -5   9   4  663.33   53.09
  -3  -9   4  135.69   37.00
  -3  -9   4  172.18   35.80
   3   9  -4  160.78   22.70
  -3   9   4  217.98   40.60
  -1  -9   4  210.58   35.50
   1  -9  -4  219.68   39.00
  -1  -9   4  272.37   39.20
   1   9  -4  268.67   28.20
   1  -9   4  123.49   29.40
  -1  -9  -4   49.20   20.30
   1  -9   4   64.29   21.90
  -1   9  -4   75.69   18.30
   1   9   4   71.09   28.40
  -3  -9  -4  416.76   46.20
   3  -9   4  274.97   46.80
   3   9   4  371.26   51.99
  -3   9  -4  392.26   38.90
   5  -9   4    8.10   25.50
  -5  -9  -4   29.10   21.90
  -5   9  -4   32.00   37.70
   5   9   4   29.50   29.90
  -8 -10   4   -4.70   25.50
   8 -10  -4  -13.30   26.00
   8 -10  -4   35.40   18.20
  -8 -10   4   -3.60   25.50
  -8  10   4   26.10   25.50
   6 -10  -4  234.18   52.69
  -6 -10   4  329.67   49.10
  -6 -10   4  342.47   48.50
  -6  10   4  267.07   48.90
  -4 -10   4  112.89   33.00
   4 -10  -4   88.99   28.30
  -4 -10   4  156.78   43.20
  -4  10   4  124.99   42.80
  -2 -10   4  107.89   40.00
   2 -10  -4  231.58   53.69
   2  10  -4  205.48   24.70
  -2  10   4  136.49   42.30
   0 -10   4  215.98   44.20
   0  10   4  141.99   45.50
   0  10  -4  178.18   30.50
   2 -10   4   62.09   26.60
  -2 -10  -4   64.89   27.00
  -2  10  -4   35.10   18.90
   2  10   4   47.00   27.10
  -4 -10  -4  208.88   46.70
   4 -10   4  214.48   49.99
   4  10   4  172.88   56.29
  -4  10  -4  171.48   47.60
  -5 -11   4  217.78   50.79
   5 -11  -4  320.87   57.09
  -5 -11   4  313.57   54.29
  -5  11   4  395.36   58.79
   3 -11  -4  159.08   51.89
  -3 -11   4   60.19   24.50
  -3 -11   4   50.09   25.20
  -3  11   4   59.09   27.00
  -1 -11   4  208.88   48.40
  -1 -11   4  111.89   44.40
   1 -11  -4  190.48   48.20
  -1  11   4   80.59   26.10
   1  11  -4  130.19   28.40
   1 -11   4  102.39   41.10
  -1 -11  -4   47.70   26.10
   1  11   4    8.20   25.00
  -1  11  -4   46.20   19.30
  10   0  -5  362.26   53.59
 -10   0   5  421.26   55.59
  -8   0   5  213.68   40.10
   8   0  -5  196.88   38.20
  -8   0   5  158.08   32.70
  -6   0   5   58.49   17.40
   6   0  -5  130.89   32.30
  -6   0   5   84.49   33.70
  -4   0   5  757.02   47.40
  -4   0   5  686.33   48.60
  -2   0   5   25.50   17.30
  -2   0   5   12.10   15.20
   0   0   5  305.77   33.00
   0   0   5  254.57   34.90
   0   0  -5  342.97   34.90
   2   0   5  235.08   38.40
  -2   0  -5  211.38   35.30
   2   0   5  217.98   31.70
   4   0   5   96.39   39.00
  -4   0  -5  100.29   36.40
  -6   0  -5  198.58   47.20
   6   0   5  170.98   48.60
 -11  -1   5   77.69   29.70
  11  -1  -5   48.00   27.10
 -11   1   5   73.29   27.90
  11   1  -5   52.09   27.70
   9  -1  -5  402.46   48.70
  -9  -1   5  383.26   69.89
   9   1  -5  395.86   49.99
  -9   1   5  442.06   49.90
  -9   1   5  329.07   41.00
  -7  -1   5   43.30   15.90
  -7  -1   5   43.20   19.10
   7  -1  -5   85.09   33.30
   7   1  -5   53.19   21.20
  -7   1   5   34.80   16.40
  -7   1   5   41.80   18.80
  -5  -1   5   73.99   18.20
  -5  -1   5  144.59   32.60
   5  -1  -5  111.89   31.10
  -5   1   5  102.79   30.70
  -5   1   5   65.99   18.90
   5   1  -5  132.79   31.90
  -3  -1   5  492.35   41.70
  -3  -1   5  557.14   39.80
  -3  -1   5  513.35   45.00
  -3   1   5  476.95   42.10
  -3   1   5  502.95   41.80
  -3   1   5  499.85   44.30
  -1  -1   5   37.80   15.60
  -1  -1   5   30.60   15.50
   1   1  -5   49.70   14.80
  -1   1   5   19.50   15.70
  -1   1   5   31.70   16.00
   1  -1   5  271.27   37.40
   1  -1   5  235.48   31.10
  -1  -1  -5  237.08   34.90
  -1   1  -5  236.78   34.80
   1   1   5  249.88   37.10
   1   1   5  249.18   32.60
   3  -1   5  123.19   39.80
  -3  -1  -5  104.99   35.80
   3   1   5  163.78   40.00
  -3   1  -5  113.99   35.20
   3   1   5   99.99   31.10
   5  -1   5  257.57   49.20
  -5  -1  -5  332.17   48.70
  -5   1  -5  341.57   45.90
   5   1   5  296.67   45.70
   7  -1   5   43.20   29.70
  -7  -1  -5   23.60   28.00
  -7   1  -5   -1.80   25.40
   7   1   5   27.90   28.30
 -10  -2   5  176.68   48.10
  10  -2  -5  174.58   45.80
 -10   2   5  148.39   41.50
  10   2  -5  153.88   48.60
 -10   2   5  200.98   48.10
   8  -2  -5  232.58   38.30
  -8  -2   5  199.18   43.00
  -8   2   5  229.48   38.20
   8   2  -5  165.38   51.19
  -8   2   5  216.68   45.80
  -6  -2   5   24.80   19.20
  -6  -2   5   28.20   15.30
   6  -2  -5   41.40   18.20
  -6   2   5   42.10   17.40
   6   2  -5   45.60   19.60
  -6   2   5   35.00   19.70
  -4  -2   5  257.87   35.70
  -4  -2   5  257.77   37.90
  -4  -2   5  250.67   31.70
  -4   2   5  151.98   36.60
  -4   2   5  219.18   34.90
  -2  -2   5  141.09   29.20
  -2  -2   5  137.89   34.20
   2   2  -5  106.69   26.20
  -2   2   5  116.79   34.70
  -2   2   5   93.69   30.60
  -2   2   5   95.79   30.50
   0  -2   5  125.79   34.30
   0  -2   5  155.88   28.30
   0  -2  -5  182.98   34.50
   0   2   5  165.18   31.50
   0   2  -5  170.08   30.20
   2  -2   5   61.19   21.50
   2  -2   5   79.89   21.50
  -2  -2  -5  118.89   24.70
  -2  -2  -5  100.69   34.60
   2   2   5   68.69   20.50
  -2   2  -5  110.09   31.70
  -4  -2  -5  135.99   24.10
   4  -2   5  197.28   44.30
  -4   2  -5  144.19   37.50
   4   2   5  130.99   41.80
   6  -2   5   27.20   44.00
  -6  -2  -5   78.99   28.70
   6   2   5   44.30   26.00
  -6   2  -5  142.29   43.50
   9  -3  -5  315.97   44.70
  -9  -3   5  228.78   47.30
  -9   3   5  320.17   45.60
   9   3  -5  367.86   51.39
  -9   3   5  275.37   48.00
   7  -3  -5   23.70   16.80
  -7  -3   5   16.30   19.80
   7   3  -5   -1.70   19.60
  -7   3   5   41.60   21.00
  -7   3   5   44.30   18.70
   5  -3  -5   80.59   29.60
  -5  -3   5  115.89   34.80
  -5   3   5   76.29   20.30
  -5   3   5  112.49   34.10
  -3  -3   5  333.47   41.50
  -3  -3   5  335.27   37.70
   3   3  -5  410.96   31.90
  -3   3   5  376.86   38.70
  -3   3   5  382.26   43.00
  -3   3   5  363.06   40.80
  -1  -3   5   19.10   16.00
   1  -3  -5   28.90   14.70
  -1  -3   5   34.50   17.30
   1   3  -5   91.69   26.50
  -1   3   5   39.60   19.70
  -1   3   5   36.80   15.90
   1  -3   5  121.49   37.10
  -1  -3  -5   98.09   27.30
   1  -3   5   75.39   27.00
   1   3   5  150.68   31.60
  -1   3  -5  141.89   30.20
   3  -3   5  240.88   44.10
  -3  -3  -5  198.08   43.70
  -3  -3  -5  177.68   32.50
  -3   3  -5  163.28   37.00
   3   3   5  182.38   35.80
   5  -3   5  179.98   69.59
  -5  -3  -5  152.78   28.90
  -5   3  -5   94.59   23.40
   5   3   5  111.99   42.80
  10  -4  -5  202.98   45.40
 -10  -4   5  157.88   49.30
 -10   4   5  224.28   49.70
 -10   4   5  139.79   49.60
  10   4  -5  222.58   55.09
   8  -4  -5  207.48   38.20
  -8  -4   5  235.68   43.70
  -8   4   5  221.78   48.10
   8   4  -5  235.28   46.20
  -8   4   5  247.38   44.60
  -6  -4   5   26.60   19.30
   6  -4  -5    4.10   15.10
  -6   4   5   20.30   19.70
   6   4  -5   35.40   21.60
  -6   4   5   22.80   19.00
  -4  -4   5  420.16   45.50
  -4  -4   5  389.36   41.60
  -4   4   5  433.06   44.80
   2  -4  -5  165.88   32.00
  -2  -4   5  110.39   33.20
  -2  -4   5   97.99   34.40
  -2   4   5  202.58   39.30
  -2   4   5  155.88   31.70
   0  -4   5   83.39   28.60
   0  -4   5  110.59   34.80
   0  -4  -5  116.79   31.80
   0   4  -5  171.58   29.70
   0   4   5  136.79   39.80
   0   4   5  134.79   30.10
   2  -4   5  160.58   40.70
  -2  -4  -5   82.99   32.00
   2   4   5  183.68   36.00
  -2   4  -5  144.79   31.30
   4  -4   5   55.09   26.80
  -4  -4  -5  116.09   32.40
  -4  -4  -5  125.09   48.80
  -4   4  -5   36.90   21.10
   4   4   5   50.29   21.30
   6  -4   5   83.09   31.30
  -6  -4  -5   97.09   36.10
  -6  -4  -5   99.59   32.30
  -6   4  -5   62.39   24.50
   6   4   5  128.49   45.20
  -9  -5   5  267.67   49.90
   9  -5  -5  220.88   44.50
   9   5  -5  231.18   54.09
  -9   5   5  225.88   51.59
  -9   5   5  198.48   54.79
   7  -5  -5  101.79   32.20
  -7  -5   5   50.89   22.40
  -7   5   5  155.88   38.60
  -7   5   5   68.79   25.20
   7   5  -5  128.59   41.80
  -5  -5   5   11.70   19.40
   5  -5  -5   28.40   16.20
  -5  -5   5   37.70   35.90
  -5   5   5   46.20   20.10
   3  -5  -5  419.46   44.30
  -3  -5   5  392.86   42.00
  -3  -5   5  451.65   48.90
  -3   5   5  357.66   47.00
   3   5  -5  457.95   31.20
  -3   5   5  410.96   38.70
  -1  -5   5  137.19   32.60
   1  -5  -5  150.88   35.50
  -1  -5   5  107.89   36.70
  -1   5   5  144.59   31.30
  -1   5   5  199.28   41.30
  -1  -5  -5   58.39   18.90
   1  -5   5   74.39   24.00
   1   5   5   55.39   19.70
  -1   5  -5   32.30   16.00
   1   5   5   78.29   23.80
  -3  -5  -5   61.89   20.70
   3  -5   5  111.89   43.60
   3   5   5   60.89   19.10
  -3   5  -5   75.19   21.10
  -5  -5  -5  233.78   59.79
  -5  -5  -5  265.07   39.90
   5  -5   5  270.37   54.09
   8  -6  -5  155.08   39.30
  -8  -6   5  205.08   59.99
  -8   6   5  186.58   51.09
   8   6  -5  215.38   49.30
  -8   6   5  224.98   48.90
  -6  -6   5   23.10   22.80
   6  -6  -5    3.10   17.80
   6  -6  -5   23.60   16.10
  -6  -6   5   17.70   24.00
  -6   6   5   29.50   21.80
  -4  -6   5  258.47   46.80
  -4  -6   5  274.97   41.20
   4  -6  -5  257.27   43.00
  -4   6   5  234.18   43.50
   4   6  -5  291.97   26.10
   2  -6  -5  107.69   38.70
  -2  -6   5   70.19   20.70
  -2   6   5   97.99   30.80
  -2   6   5   62.89   23.70
   2   6  -5  107.09   26.80
   0  -6   5  109.89   39.30
   0  -6   5  105.49   30.10
   0  -6  -5  141.99   36.60
   0   6   5   65.49   18.20
   0   6  -5  101.59   29.10
   0   6   5   85.69   37.20
   2  -6   5   54.09   25.50
  -2  -6  -5   33.60   18.30
   2   6   5   51.39   27.80
  -2   6  -5   39.10   17.80
  -4  -6  -5  198.48   41.30
   4  -6   5  163.78   52.59
   4   6   5  328.27   59.89
  -7  -7   5   45.50   28.90
   7  -7  -5   28.10   18.50
  -7  -7   5   19.70   26.10
  -5  -7   5  177.58   43.80
   5  -7  -5  118.49   43.20
  -5  -7   5  134.39   44.90
   5  -7  -5  179.08   29.80
  -5   7   5  151.98   55.99
  -3  -7   5  296.57   43.30
  -3  -7   5  236.38   47.60
   3   7  -5  289.57   27.60
  -3   7   5  277.27   35.90
  -1  -7   5    6.00   19.40
  -1  -7   5   33.20   19.30
   1  -7  -5   39.20   19.00
   1   7  -5   27.00   14.70
  -1   7   5   -6.90   21.60
  -1  -7  -5  149.29   41.60
   1   7   5  204.88   55.69
  -3  -7  -5  126.09   43.20
   3  -7   5  188.08   53.69
  -3   7  -5   85.79   24.60
   6  -8  -5   24.80   24.90
   6  -8  -5   65.79   20.90
  -6  -8   5   18.70   25.30
  -6  -8   5   38.00   28.30
  -6   8   5   40.80   27.30
  -4  -8   5  242.68   48.90
  -4  -8   5  285.27   53.69
   4  -8  -5  241.38   47.90
  -4   8   5  286.37   50.29
  -2  -8   5   24.00   22.90
   2  -8  -5   34.40   21.70
  -2  -8   5   53.69   22.50
  -2   8   5   14.60   24.40
   2   8  -5   26.20   14.50
   0  -8   5   61.79   26.30
   0  -8  -5  130.99   46.30
   0   8   5   77.79   28.40
   0   8  -5   68.19   18.60
  -2  -8  -5   91.69   30.20
   2  -8   5   71.49   28.00
   2   8   5  113.99   34.00
  -2   8  -5   88.79   23.20
  -3  -9   5  214.18   49.20
   3  -9  -5  256.67   53.49
  -3  -9   5  232.48   49.90
  -3   9   5  283.87   52.29
  -1  -9   5   55.79   28.10
   1  -9  -5   19.70   29.20
  -1   9   5   39.10   28.00
   1   9  -5   56.69   17.90
  -6   0   6  122.59   45.40
  -6   0   6  135.49   34.10
  -4   0   6   24.50   23.80
  -4   0   6    1.00   25.60
  -4   0   6   -5.70   30.90
  -2   0   6  311.37   48.90
  -2   0   6  317.17   51.99
  -2   0   6  299.07   54.79
   0   0   6  127.79   51.29
   0   0  -6  102.09   43.30
  -5  -1   6    3.00   25.10
  -5  -1   6    8.60   23.80
  -5  -1   6   34.80   25.60
  -5   1   6    3.90   35.00
  -5   1   6    1.20   25.90
  -3  -1   6   40.20   23.50
  -3  -1   6   32.40   25.30
  -3  -1   6   12.00   24.70
  -3   1   6   35.90   24.90
  -3   1   6   53.99   25.10
  -3   1   6   52.39   26.40
  -1  -1   6  178.28   50.39
  -1  -1   6  212.98   44.00
  -1   1   6  228.88   47.60
  -1   1   6  133.39   45.30
   1   1  -6  154.78   40.80
  -1   1   6  265.57   59.29
  -4  -2   6   19.20   25.90
  -4  -2   6   41.60   25.90
  -4  -2   6   21.30   25.40
  -4   2   6   27.00   27.50
  -4   2   6   18.60   25.20
  -4   2   6    8.50   28.80
  -2  -2   6  260.27   48.10
  -2  -2   6  242.98   48.00
  -2   2   6  197.68   49.00
  -2   2   6  215.98   58.19
  -2   2   6  177.38   46.60
   0  -2   6   59.39   29.50
   0   2  -6  104.79   25.20
   0   2   6   94.09   28.40
   0   2   6  183.58   52.09
   0   2   6   60.29   25.60
  -3  -3   6  -14.50   23.80
  -3  -3   6   25.90   24.70
  -3  -3   6  -18.40   24.00
  -3   3   6  -28.40   23.30
  -3   3   6  -43.30   45.60
  -3   3   6    5.80   28.80
  -1  -3   6  292.97   50.59
  -1  -3   6  196.48   75.79
   1   3  -6  276.67   42.30
  -1   3   6  301.77   50.49
  -1   3   6  244.18   58.29
  -1   3   6  218.98   49.40
   0   0   0    0.00    0.00
_computing_structure_solution     'SHELXT 2014/5 (Sheldrick, 2014)'
;
_shelx_hkl_checksum              50863
loop_
_space_group_symop_operation_xyz
'x, y, z'
'x, -y, z'
'x+1/2, y+1/2, z'
'x+1/2, -y+1/2, z'
loop_
_atom_site_label
_atom_site_type_symbol
_atom_site_fract_x
_atom_site_fract_y
_atom_site_fract_z
_atom_site_U_iso_or_equiv
_atom_site_adp_type
_atom_site_occupancy
_atom_site_site_symmetry_order
_atom_site_calc_flag
_atom_site_refinement_flags_posn
_atom_site_refinement_flags_adp
_atom_site_refinement_flags_occupancy
_atom_site_disorder_assembly
_atom_site_disorder_group
Cu1 Cu 0.62315(5) 0.500000 0.40848(8) 0.0184(3) Uani 1 2 d S T P . .
S1 S 0.82389(17) 0.500000 -0.0351(4) 0.0274(5) Uani 1 2 d S T P . .
S2 S 0.48227(14) 0.500000 0.7336(3) 0.0167(4) Uani 1 2 d S T P . .
O1 O 0.5383(3) 0.4060(3) 0.6243(6) 0.0208(9) Uani 1 1 d . . . . .
O2 O 0.3700(4) 0.500000 0.6199(10) 0.0235(12) Uani 1 2 d S T P . .
O3 O 0.4978(4) 0.500000 1.0352(10) 0.0270(11) Uani 1 2 d S T P . .
N1 N 0.7181(3) 0.6153(3) 0.3192(8) 0.0200(9) Uani 1 1 d . . . . .
N2 N 0.8547(3) 0.6993(3) 0.1923(8) 0.0234(9) Uani 1 1 d . . . . .
C1 C 0.7972(4) 0.6075(4) 0.1737(10) 0.0202(11) Uani 1 1 d . . . . .
C2 C 0.8095(4) 0.7694(4) 0.3585(10) 0.0276(12) Uani 1 1 d . . . . .
H2 H 0.832167 0.840789 0.407463 0.033 Uiso 1 1 calc R U . . .
C3 C 0.7268(4) 0.7163(4) 0.4377(10) 0.0266(12) Uani 1 1 d . . . . .
H3 H 0.681201 0.744386 0.557414 0.032 Uiso 1 1 calc R U . . .
C4 C 0.9507(4) 0.7206(5) 0.0718(10) 0.0340(13) Uani 1 1 d . . . . .
H4A H 1.004277 0.664970 0.132578 0.051 Uiso 1 1 calc R U . . .
H4B H 0.979458 0.791402 0.133374 0.051 Uiso 1 1 calc R U . . .
H4C H 0.932841 0.719685 -0.131575 0.051 Uiso 1 1 calc R U . . .
N3 N 0.0455(10) 0.500000 0.544(2) 0.101(4) Uani 1 2 d S T P . .
C5 C 0.1070(8) 0.500000 0.734(2) 0.044(3) Uani 1 2 d S TU P . .
C6 C 0.1849(8) 0.500000 0.976(2) 0.080(4) Uani 1 2 d S T P . .
H6A H 0.188978 0.571872 1.060359 0.120 Uiso 0.5 1 calc R U P A -1
H6B H 0.254553 0.480893 0.926803 0.120 Uiso 0.5 1 calc R U P A -1
H6C H 0.165232 0.447235 1.108721 0.120 Uiso 0.5 1 calc R U P A -1
loop_
_atom_site_aniso_label
_atom_site_aniso_U_11
_atom_site_aniso_U_22
_atom_site_aniso_U_33
_atom_site_aniso_U_23
_atom_site_aniso_U_13
_atom_site_aniso_U_12
Cu1 0.0219(5) 0.0161(4) 0.0187(5) 0.000 0.0079(4) 0.000
S1 0.0365(12) 0.0252(10) 0.0237(10) 0.000 0.0144(9) 0.000
S2 0.0187(10) 0.0193(9) 0.0125(9) 0.000 0.0039(8) 0.000
O1 0.025(2) 0.0146(17) 0.024(2) 0.0014(14) 0.0096(16) 0.0019(15)
O2 0.019(3) 0.026(3) 0.024(3) 0.000 0.001(2) 0.000
O3 0.029(3) 0.042(3) 0.010(2) 0.000 0.001(2) 0.000
N1 0.020(2) 0.014(2) 0.026(2) -0.0010(19) 0.0067(19) 0.0014(19)
N2 0.022(2) 0.020(2) 0.027(2) 0.0064(19) -0.0009(19) -0.0054(18)
C1 0.025(3) 0.014(2) 0.022(3) 0.003(2) 0.002(2) -0.001(2)
C2 0.031(3) 0.017(3) 0.033(3) -0.002(2) -0.004(3) -0.002(2)
C3 0.030(3) 0.020(3) 0.029(3) -0.004(2) 0.002(2) 0.000(2)
C4 0.026(3) 0.039(3) 0.038(3) 0.010(3) 0.007(3) -0.013(3)
N3 0.077(8) 0.178(11) 0.051(7) 0.000 0.019(6) 0.000
C5 0.044(6) 0.054(5) 0.038(5) 0.000 0.018(5) 0.000
C6 0.048(7) 0.148(13) 0.049(7) 0.000 0.022(6) 0.000
loop_
_atom_type_symbol
_atom_type_description
_atom_type_scat_dispersion_real
_atom_type_scat_dispersion_imag
_atom_type_scat_source
C C 0.0033 0.0016 'International Tables Vol C Tables 4.2.6.8 and 6.1.1.4'
H H 0.0000 0.0000 'International Tables Vol C Tables 4.2.6.8 and 6.1.1.4'
Cu Cu 0.3201 1.2651 'International Tables Vol C Tables 4.2.6.8 and 6.1.1.4'
N N 0.0061 0.0033 'International Tables Vol C Tables 4.2.6.8 and 6.1.1.4'
O O 0.0106 0.0060 'International Tables Vol C Tables 4.2.6.8 and 6.1.1.4'
S S 0.1246 0.1234 'International Tables Vol C Tables 4.2.6.8 and 6.1.1.4'
loop_
_geom_angle_atom_site_label_1
_geom_angle_atom_site_label_2
_geom_angle_atom_site_label_3
_geom_angle
_geom_angle_site_symmetry_1
_geom_angle_site_symmetry_3
N1 Cu1 N1 93.6(2) . 2_565
N1 Cu1 O1 160.72(14) . .
N1 Cu1 O1 95.24(14) 2_565 .
N1 Cu1 O1 95.24(14) . 2_565
N1 Cu1 O1 160.72(14) 2_565 2_565
O1 Cu1 O1 71.56(17) . 2_565
N1 Cu1 O3 101.67(15) . 1_554
N1 Cu1 O3 101.67(15) 2_565 1_554
O1 Cu1 O3 93.26(14) . 1_554
O1 Cu1 O3 93.26(14) 2_565 1_554
N1 Cu1 S2 130.37(11) . .
N1 Cu1 S2 130.37(12) 2_565 .
O1 Cu1 S2 35.85(9) . .
O1 Cu1 S2 35.85(9) 2_565 .
O3 Cu1 S2 91.64(13) 1_554 .
C1 S1 C1 99.9(3) 2_565 .
O2 S2 O3 110.8(3) . .
O2 S2 O1 110.88(18) . .
O3 S2 O1 111.25(18) . .
O2 S2 O1 110.88(18) . 2_565
O3 S2 O1 111.25(18) . 2_565
O1 S2 O1 101.5(3) . 2_565
O2 S2 Cu1 120.2(2) . .
O3 S2 Cu1 129.0(2) . .
O1 S2 Cu1 50.87(12) . .
O1 S2 Cu1 50.87(12) 2_565 .
S2 O1 Cu1 93.28(16) . .
S2 O3 Cu1 142.6(3) . 1_556
C1 N1 C3 105.9(4) . .
C1 N1 Cu1 127.7(3) . .
C3 N1 Cu1 125.6(3) . .
C1 N2 C2 107.7(4) . .
C1 N2 C4 127.1(4) . .
C2 N2 C4 125.1(4) . .
N1 C1 N2 110.6(4) . .
N1 C1 S1 127.1(4) . .
N2 C1 S1 122.2(4) . .
C3 C2 N2 106.0(4) . .
C3 C2 H2 127.0 . .
N2 C2 H2 127.0 . .
C2 C3 N1 109.8(5) . .
C2 C3 H3 125.1 . .
N1 C3 H3 125.1 . .
N2 C4 H4A 109.5 . .
N2 C4 H4B 109.5 . .
H4A C4 H4B 109.5 . .
N2 C4 H4C 109.5 . .
H4A C4 H4C 109.5 . .
H4B C4 H4C 109.5 . .
N3 C5 C6 179.9(13) . .
C5 C6 H6A 109.5 . .
C5 C6 H6B 109.5 . .
H6A C6 H6B 109.5 . .
C5 C6 H6C 109.5 . .
H6A C6 H6C 109.5 . .
H6B C6 H6C 109.5 . .
loop_
_geom_bond_atom_site_label_1
_geom_bond_atom_site_label_2
_geom_bond_distance
_geom_bond_site_symmetry_2
Cu1 N1 1.962(4) .
Cu1 N1 1.962(4) 2_565
Cu1 O1 1.996(3) .
Cu1 O1 1.996(3) 2_565
Cu1 O3 2.213(5) 1_554
Cu1 S2 2.5687(18) .
S1 C1 1.743(5) 2_565
S1 C1 1.743(5) .
S2 O2 1.440(5) .
S2 O3 1.450(5) .
S2 O1 1.507(3) .
S2 O1 1.507(3) 2_565
N1 C1 1.321(6) .
N1 C3 1.378(6) .
N2 C1 1.347(6) .
N2 C2 1.374(6) .
N2 C4 1.456(6) .
C2 C3 1.346(7) .
C2 H2 0.9500 .
C3 H3 0.9500 .
C4 H4A 0.9800 .
C4 H4B 0.9800 .
C4 H4C 0.9800 .
N3 C5 1.109(14) .
C5 C6 1.409(14) .
C6 H6A 0.9800 .
C6 H6B 0.9800 .
C6 H6C 0.9800 .
loop_
_geom_hbond_atom_site_label_D
_geom_hbond_atom_site_label_H
_geom_hbond_atom_site_label_A
_geom_hbond_distance_DH
_geom_hbond_distance_HA
_geom_hbond_distance_DA
_geom_hbond_angle_DHA
_geom_hbond_site_symmetry_A
C2 H2 O2 0.95 2.25 3.176(5) 165.9 3
C4 H4B O3 0.98 2.65 3.528(6) 149.3 3_554
C6 H6B O2 0.98 2.27 3.133(11) 146.9 .
