#------------------------------------------------------------------------------
#$Date: 2021-09-07 12:28:59 +0300 (Tue, 07 Sep 2021) $
#$Revision: 269022 $
#$URL: file:///home/coder/svn-repositories/cod/cif/1/56/45/1564580.cif $
#------------------------------------------------------------------------------
#
# This file is available in the Crystallography Open Database (COD),
# http://www.crystallography.net/
#
# All data on this site have been placed in the public domain by the
# contributors.
#
data_1564580
loop_
_publ_author_name
'Hasanzadeh Esfahani, Maryam'
'Behzad, Mahdi'
'Dusek, Michal'
'Kucerakova, Monika'
_publ_section_title
;
 Synthesis and characterization of a series of acylpyrazolone transition
 metal complexes: Crystal structures and catalytic performance in the
 epoxidation of cyclooctene
;
_journal_name_full               'Inorganica Chimica Acta'
_journal_page_first              119637
_journal_paper_doi               10.1016/j.ica.2020.119637
_journal_volume                  508
_journal_year                    2020
_chemical_absolute_configuration .
_chemical_formula_moiety         'Cu C24 H22 N4 O4'
_chemical_formula_sum            'C24 H22 Cu N4 O4'
_chemical_formula_weight         494
_space_group_IT_number           2
_space_group_name_Hall           '-P 1'
_space_group_name_H-M_alt        'P -1'
_symmetry_cell_setting           triclinic
_symmetry_Int_Tables_number      2
_symmetry_space_group_name_Hall  '-P 1'
_symmetry_space_group_name_H-M   'P -1'
_cell_angle_alpha                93.540(5)
_cell_angle_beta                 97.432(6)
_cell_angle_gamma                96.561(4)
_cell_formula_units_Z            1
_cell_length_a                   6.4811(3)
_cell_length_b                   7.1952(3)
_cell_length_c                   11.4811(9)
_cell_measurement_reflns_used    1406
_cell_measurement_temperature    95.00(10)
_cell_measurement_theta_max      73.99
_cell_measurement_theta_min      6.19
_cell_volume                     525.83(5)
_computing_cell_refinement       'CrysAlisPro 1.171.39.33b (Rigaku OD, 2017)'
_computing_data_collection       'CrysAlisPro 1.171.39.33b (Rigaku OD, 2017)'
_computing_data_reduction        'CrysAlisPro 1.171.39.33b (Rigaku OD, 2017)'
_diffrn_ambient_temperature      95
_diffrn_detector                 'CCD plate'
_diffrn_detector_area_resol_mean 5.2027
_diffrn_measured_fraction_theta_full 0.98
_diffrn_measured_fraction_theta_max 0.97
_diffrn_measurement_device       'four-circle diffractometer'
_diffrn_measurement_device_type  'SuperNova, Dual, Cu at home/near, AtlasS2'
_diffrn_measurement_method       '\w scans'
_diffrn_radiation_monochromator  mirror
_diffrn_radiation_probe          x-ray
_diffrn_radiation_source         'X-ray tube'
_diffrn_radiation_type           'Cu K\a'
_diffrn_radiation_wavelength     1.54184
_diffrn_reflns_av_R_equivalents  0.0281
_diffrn_reflns_av_unetI/netI     0.0525
_diffrn_reflns_limit_h_max       8
_diffrn_reflns_limit_h_min       -8
_diffrn_reflns_limit_k_max       8
_diffrn_reflns_limit_k_min       -8
_diffrn_reflns_limit_l_max       14
_diffrn_reflns_limit_l_min       -14
_diffrn_reflns_number            3597
_diffrn_reflns_reduction_process
;
Integration of the CCD images was done by program CrysAlisPro
(Agilent Technologies, 2010). The same program was used for indexing of the
crystal shape and absorption correction.
;
_diffrn_reflns_theta_full        74.17
_diffrn_reflns_theta_max         74.9
_diffrn_reflns_theta_min         3.89
_diffrn_source                   'micro-focus sealed X-ray tube'
_exptl_absorpt_coefficient_mu    1.816
_exptl_absorpt_correction_T_max  1
_exptl_absorpt_correction_T_min  0.987
_exptl_absorpt_correction_type   multi-scan
_exptl_absorpt_process_details
;
CrysAlisPro 1.171.39.33b (Rigaku Oxford Diffraction, 2017)
Empirical absorption correction using spherical harmonics,
 implemented in SCALE3 ABSPACK scaling algorithm.
;
_exptl_crystal_colour            yellow
_exptl_crystal_density_diffrn    1.5601
_exptl_crystal_description       'polygon shape'
_exptl_crystal_F_000             255
_exptl_crystal_size_max          0.058
_exptl_crystal_size_mid          0.04
_exptl_crystal_size_min          0.036
_refine_diff_density_max         0.38
_refine_diff_density_min         -0.43
_refine_ls_extinction_method     none
_refine_ls_goodness_of_fit_gt    1.39
_refine_ls_goodness_of_fit_ref   1.40
_refine_ls_hydrogen_treatment    constr
_refine_ls_number_constraints    44
_refine_ls_number_parameters     152
_refine_ls_number_reflns         3346
_refine_ls_number_restraints     0
_refine_ls_R_factor_all          0.0534
_refine_ls_R_factor_gt           0.0388
_refine_ls_shift/su_max          0.0225
_refine_ls_shift/su_mean         0.0060
_refine_ls_structure_factor_coef Fsqd
_refine_ls_weighting_details     w=1/(\s^2^(I)+0.0016I^2^)
_refine_ls_weighting_scheme      sigma
_refine_ls_wR_factor_gt          0.1023
_refine_ls_wR_factor_ref         0.1219
_reflns_number_gt                2409
_reflns_number_total             3346
_reflns_threshold_expression     I>3\s(I)
_cod_data_source_file            ICA-2020-508-119637.cif
_cod_data_source_block           II
_cod_depositor_comments
;
The following automatic conversions were performed:

data item '_diffrn_radiation_probe' value 'X-ray' was changed to
'x-ray' in accordance with the built-in table derived from the CIF
Core dictionary named 'cif_core.dic' version 2.4.5 last updated on
2014-11-21.

Automatic conversion script
Id: cif_fix_values 8369 2020-08-20 11:38:08Z andrius 
;
_cod_original_formula_sum        'Cu C24 H22 N4 O4'
_cod_database_code               1564580
loop_
_space_group_symop_id
_space_group_symop_operation_xyz
1 x,y,z
2 -x,-y,-z
loop_
_atom_site_label
_atom_site_type_symbol
_atom_site_fract_x
_atom_site_fract_y
_atom_site_fract_z
_atom_site_adp_type
_atom_site_U_iso_or_equiv
_atom_site_site_symmetry_multiplicity
_atom_site_occupancy
_atom_site_calc_flag
_atom_site_refinement_flags
_atom_site_disorder_assembly
_atom_site_disorder_group
Cu1 Cu 0 0.5 0.5 Uani 0.01772(18) 1 1 d . . .
O1 O 0.0913(3) 0.5950(3) 0.35895(16) Uani 0.0196(6) 2 1 d . . .
O2 O -0.2470(3) 0.3869(3) 0.39904(16) Uani 0.0197(5) 2 1 d . . .
N1 N -0.5930(3) 0.2505(3) 0.37622(19) Uani 0.0180(6) 2 1 d . . .
N2 N -0.7411(3) 0.1763(3) 0.4452(2) Uani 0.0179(6) 2 1 d . . .
C2 C -0.4319(4) 0.2725(4) 0.5592(2) Uani 0.0179(7) 2 1 d . . .
C4 C -0.4063(4) 0.3102(4) 0.4414(2) Uani 0.0164(7) 2 1 d . . .
C3 C -0.6425(4) 0.1867(4) 0.5529(2) Uani 0.0179(7) 2 1 d . . .
C7 C -0.6524(4) 0.2507(4) 0.2528(2) Uani 0.0186(7) 2 1 d . . .
C5 C -0.7600(4) 0.1150(4) 0.6486(2) Uani 0.0203(8) 2 1 d . . .
C9 C -0.9293(5) 0.2219(4) 0.0877(2) Uani 0.0265(9) 2 1 d . . .
C1 C 0.2682(4) 0.6798(4) 0.3457(2) Uani 0.0151(7) 2 1 d . . .
C10 C -0.7791(5) 0.2463(5) 0.0110(3) Uani 0.0302(9) 2 1 d . . .
C8 C -0.8673(4) 0.2228(4) 0.2081(2) Uani 0.0201(8) 2 1 d . . .
C12 C -0.5035(5) 0.2791(4) 0.1768(2) Uani 0.0246(8) 2 1 d . . .
C6 C 0.2934(4) 0.7269(4) 0.2224(2) Uani 0.0210(8) 2 1 d . . .
C11 C -0.5685(5) 0.2767(5) 0.0560(3) Uani 0.0287(9) 2 1 d . . .
H1c5 H -0.676985 0.036854 0.694981 Uiso 0.0244 2 1 d . . .
H2c5 H -0.788339 0.219051 0.697931 Uiso 0.0244 2 1 d . . .
H3c5 H -0.889831 0.043206 0.613986 Uiso 0.0244 2 1 d . . .
H1c9 H -1.075688 0.204537 0.056979 Uiso 0.0318 2 1 d . . .
H1c10 H -0.821935 0.241835 -0.072408 Uiso 0.0362 2 1 d . . .
H1c8 H -0.970443 0.204592 0.260578 Uiso 0.0241 2 1 d . . .
H1c12 H -0.356982 0.300276 0.207234 Uiso 0.0295 2 1 d . . .
H1c6 H 0.434116 0.714165 0.208205 Uiso 0.0253 2 1 d . . .
H2c6 H 0.19646 0.643012 0.167388 Uiso 0.0253 2 1 d . . .
H3c6 H 0.26592 0.853739 0.212622 Uiso 0.0253 2 1 d . . .
H1c11 H -0.465766 0.296524 0.003415 Uiso 0.0344 2 1 d . . .
loop_
_atom_site_aniso_label
_atom_site_aniso_type_symbol
_atom_site_aniso_U_11
_atom_site_aniso_U_22
_atom_site_aniso_U_33
_atom_site_aniso_U_12
_atom_site_aniso_U_13
_atom_site_aniso_U_23
Cu1 Cu 0.0133(3) 0.0225(3) 0.0161(3) -0.0026(2) 0.0016(2) 0.0010(2)
O1 O 0.0165(9) 0.0239(10) 0.0171(9) -0.0028(7) 0.0014(7) 0.0017(7)
O2 O 0.0181(9) 0.0238(10) 0.0154(8) -0.0039(7) 0.0020(7) 0.0006(7)
N1 N 0.0136(10) 0.0224(11) 0.0170(10) -0.0030(8) 0.0022(8) 0.0027(8)
N2 N 0.0132(10) 0.0189(11) 0.0216(11) -0.0008(8) 0.0024(8) 0.0067(8)
C2 C 0.0170(13) 0.0202(13) 0.0161(12) -0.0013(10) 0.0042(9) 0.0017(9)
C4 C 0.0133(11) 0.0172(12) 0.0187(12) 0.0012(9) 0.0031(9) 0.0006(9)
C3 C 0.0142(12) 0.0200(13) 0.0187(12) -0.0009(10) 0.0015(9) 0.0025(9)
C7 C 0.0188(12) 0.0179(13) 0.0178(12) -0.0006(10) -0.0003(9) 0.0014(9)
C5 C 0.0209(12) 0.0229(14) 0.0178(12) 0.0029(10) 0.0033(9) 0.0059(10)
C9 C 0.0216(14) 0.0331(16) 0.0236(14) 0.0051(11) -0.0013(10) -0.0002(11)
C1 C 0.0114(11) 0.0173(12) 0.0163(11) 0.0035(9) 0.0006(9) -0.0012(9)
C10 C 0.0280(15) 0.0414(18) 0.0197(13) 0.0051(13) -0.0016(11) 0.0002(12)
C8 C 0.0182(13) 0.0217(13) 0.0199(13) 0.0023(10) 0.0018(10) -0.0007(10)
C12 C 0.0251(14) 0.0311(16) 0.0174(12) 0.0020(11) 0.0036(10) 0.0020(10)
C6 C 0.0165(12) 0.0282(15) 0.0159(12) -0.0055(10) 0.0005(9) 0.0005(10)
C11 C 0.0203(14) 0.0460(19) 0.0202(14) 0.0045(12) 0.0031(10) 0.0055(12)
loop_
_atom_type_symbol
_atom_type_scat_dispersion_real
_atom_type_scat_dispersion_imag
_atom_type_scat_source
C 0.0181 0.0091 'International Tables Vol C tables 4.2.6.8 and 6.1.1.1'
H 0.0000 0.0000 'International Tables Vol C tables 4.2.6.8 and 6.1.1.1'
Cu -1.9646 0.5888 'International Tables Vol C tables 4.2.6.8 and 6.1.1.1'
N 0.0311 0.0180 'International Tables Vol C tables 4.2.6.8 and 6.1.1.1'
O 0.0492 0.0322 'International Tables Vol C tables 4.2.6.8 and 6.1.1.1'
loop_
_geom_angle_atom_site_label_1
_geom_angle_atom_site_label_2
_geom_angle_atom_site_label_3
_geom_angle_site_symmetry_1
_geom_angle_site_symmetry_2
_geom_angle_site_symmetry_3
_geom_angle
O1 Cu1 O1 . . 2_566 180
O1 Cu1 O2 . . . 85.75(8)
O1 Cu1 O2 . . 2_566 94.25(8)
O1 Cu1 O2 2_566 . . 94.25(8)
O1 Cu1 O2 2_566 . 2_566 85.75(8)
O2 Cu1 O2 . . 2_566 180
Cu1 O1 C1 . . . 128.65(16)
Cu1 O2 C4 . . . 121.24(16)
N2 N1 C4 . . . 111.9(2)
N2 N1 C7 . . . 118.8(2)
C4 N1 C7 . . . 129.3(2)
N1 N2 C3 . . . 105.7(2)
C4 C2 C3 . . . 105.2(2)
C4 C2 C1 . . 2_566 122.2(2)
C3 C2 C1 . . 2_566 132.6(2)
O2 C4 N1 . . . 123.8(2)
O2 C4 C2 . . . 130.4(2)
N1 C4 C2 . . . 105.8(2)
N2 C3 C2 . . . 111.3(2)
N2 C3 C5 . . . 118.7(2)
C2 C3 C5 . . . 130.0(2)
N1 C7 C8 . . . 118.6(2)
N1 C7 C12 . . . 121.3(2)
C8 C7 C12 . . . 120.1(2)
C3 C5 H1c5 . . . 109.47
C3 C5 H2c5 . . . 109.47
C3 C5 H3c5 . . . 109.47
H1c5 C5 H2c5 . . . 109.47
H1c5 C5 H3c5 . . . 109.47
H2c5 C5 H3c5 . . . 109.47
C10 C9 C8 . . . 120.2(3)
C10 C9 H1c9 . . . 119.9
C8 C9 H1c9 . . . 119.9
O1 C1 C2 . . 2_566 122.4(2)
O1 C1 C6 . . . 115.6(2)
C2 C1 C6 2_566 . . 121.9(2)
C9 C10 C11 . . . 119.7(3)
C9 C10 H1c10 . . . 120.16
C11 C10 H1c10 . . . 120.16
C7 C8 C9 . . . 119.7(3)
C7 C8 H1c8 . . . 120.16
C9 C8 H1c8 . . . 120.17
C7 C12 C11 . . . 119.5(3)
C7 C12 H1c12 . . . 120.26
C11 C12 H1c12 . . . 120.26
C1 C6 H1c6 . . . 109.47
C1 C6 H2c6 . . . 109.47
C1 C6 H3c6 . . . 109.47
H1c6 C6 H2c6 . . . 109.47
H1c6 C6 H3c6 . . . 109.47
H2c6 C6 H3c6 . . . 109.47
C10 C11 C12 . . . 120.9(3)
C10 C11 H1c11 . . . 119.57
C12 C11 H1c11 . . . 119.57
loop_
_geom_bond_atom_site_label_1
_geom_bond_atom_site_label_2
_geom_bond_site_symmetry_1
_geom_bond_site_symmetry_2
_geom_bond_distance
Cu1 O1 . . 1.9319(19)
Cu1 O1 . 2_566 1.9319(19)
Cu1 O2 . . 1.9171(17)
Cu1 O2 . 2_566 1.9171(17)
O1 C1 . . 1.267(3)
O2 C4 . . 1.280(3)
N1 N2 . . 1.402(3)
N1 C4 . . 1.347(3)
N1 C7 . . 1.420(3)
N2 C3 . . 1.310(3)
C2 C4 . . 1.422(4)
C2 C3 . . 1.423(4)
C2 C1 . 2_566 1.417(3)
C3 C5 . . 1.499(4)
C7 C8 . . 1.408(4)
C7 C12 . . 1.389(4)
C5 H1c5 . . 0.96
C5 H2c5 . . 0.96
C5 H3c5 . . 0.96
C9 C10 . . 1.398(4)
C9 C8 . . 1.388(4)
C9 H1c9 . . 0.96
C1 C6 . . 1.502(4)
C10 C11 . . 1.383(4)
C10 H1c10 . . 0.96
C8 H1c8 . . 0.96
C12 C11 . . 1.395(4)
C12 H1c12 . . 0.96
C6 H1c6 . . 0.96
C6 H2c6 . . 0.96
C6 H3c6 . . 0.96
C11 H1c11 . . 0.96
loop_
_geom_hbond_atom_site_label_D
_geom_hbond_atom_site_label_H
_geom_hbond_atom_site_label_A
_geom_hbond_site_symmetry_D
_geom_hbond_site_symmetry_H
_geom_hbond_site_symmetry_A
_geom_hbond_distance_DH
_geom_hbond_distance_HA
_geom_hbond_distance_DA
_geom_hbond_angle_DHA
C12 H1c12 O2 . . . 0.96 2.25 2.870(3) 121.31
loop_
_twin_individual_id
_twin_individual_mass_fraction_refined
_twin_individual_twin_matrix_11
_twin_individual_twin_matrix_12
_twin_individual_twin_matrix_13
_twin_individual_twin_matrix_21
_twin_individual_twin_matrix_22
_twin_individual_twin_matrix_23
_twin_individual_twin_matrix_31
_twin_individual_twin_matrix_32
_twin_individual_twin_matrix_33
1 0.8335(9) 1 0 0 0 1 0 0 0 1
2 0.1665(9) -0.9999 0.0008 0.4905 -0.0004 -1 0.2479 -0.0005 -0.0002 0.9996
loop_
_twin_refln_datum_id
_twin_refln_individual_id
_twin_refln_index_h
_twin_refln_index_k
_twin_refln_index_l
_twin_refln_F_squared_calc
_twin_refln_F_squared_meas
_twin_refln_F_squared_sigma
_twin_refln_include_status
1 1 1 0 0 64.36 75.92 5.60 o
2 1 3 0 0 378.37 390.49 16.98 o
3 1 5 0 0 87.91 79.85 8.05 o
4 1 7 0 0 64.18 48.96 4.47 o
5 1 -8 1 0 88.83 105.04 3.91 o
6 1 -6 1 0 11.12 11.78 5.49 <
7 1 -4 1 0 307.42 275.11 17.91 o
8 1 -3 1 0 44.55 41.96 10.14 o
9 1 -2 1 0 589.62 545.33 15.02 o
10 1 -1 1 0 1.02 1.52 2.98 <
11 1 0 1 0 1317.25 1200.70 32.92 o
12 1 1 1 0 1670.11 1770.78 12.31 o
13 1 2 1 0 659.44 656.66 10.03 o
14 1 3 1 0 439.94 410.71 17.24 o
15 1 5 1 0 6.90 3.55 11.75 <
16 1 -6 2 0 201.00 206.76 8.90 o
17 1 -4 2 0 436.08 477.08 22.26 o
18 1 -2 2 0 410.50 390.98 13.34 o
19 1 0 2 0 4970.75 5081.48 23.95 o
20 1 2 2 0 237.63 226.96 7.59 o
21 1 4 2 0 101.46 96.80 5.59 o
22 1 6 2 0 206.40 195.17 5.58 o
23 1 -7 3 0 7.68 4.36 4.35 <
24 1 -3 3 0 837.81 840.17 24.02 o
25 1 -2 3 0 383.90 364.69 8.45 o
26 1 -1 3 0 3028.36 2910.67 20.28 o
27 1 0 3 0 106.53 105.17 5.84 o
28 1 1 3 0 82.36 64.47 9.86 o
29 1 2 3 0 2.59 5.47 7.29 <
30 1 -7 4 0 118.30 120.41 4.55 o
31 1 -5 4 0 97.53 114.56 5.19 o
32 1 -1 4 0 269.21 342.34 17.10 o
33 1 1 4 0 189.64 194.74 15.17 o
34 1 3 4 0 104.58 104.43 3.65 o
35 1 5 4 0 134.18 126.54 7.81 o
36 1 1 5 0 8.01 8.30 5.00 <
37 1 3 5 0 170.76 193.08 7.95 o
38 1 -4 6 0 161.66 152.49 7.98 o
39 1 -2 6 0 0.90 -5.30 6.16 <
40 1 0 6 0 7.76 7.54 2.93 <
41 1 2 6 0 62.53 65.27 4.85 o
42 1 4 6 0 75.79 70.84 5.11 o
43 1 0 7 0 6.66 1.59 4.94 <
44 1 -3 8 0 0.83 0.80 4.00 <
45 1 -1 8 0 0.41 1.76 3.89 <
46 1 1 8 0 101.69 101.80 5.94 o
47 1 -1 -8 1 106.54 124.91 6.04 o
48 1 1 -8 1 93.12 93.13 5.61 o
49 1 3 -8 1 55.94 58.84 4.95 o
50 1 -2 -6 1 263.96 289.97 7.15 o
51 1 0 -6 1 67.08 64.99 4.43 o
52 1 2 -6 1 29.67 37.00 4.63 o
53 1 4 -6 1 2.66 4.49 5.41 <
54 1 6 -6 1 43.68 -0.49 2.20 <
55 1 -3 -5 1 226.35 253.88 6.36 o
56 1 -1 -5 1 14.48 6.08 4.79 <
57 1 1 -5 1 203.04 186.58 16.34 o
58 1 -3 -4 1 285.17 292.58 6.46 o
59 1 -1 -4 1 9.38 6.62 9.13 <
60 1 1 -4 1 278.87 303.79 16.85 o
61 1 5 -4 1 92.24 131.03 5.21 o
62 1 7 -4 1 213.98 228.74 6.39 o
63 1 -4 -3 1 302.43 324.98 9.47 o
64 1 -2 -3 1 10.07 33.64 8.55 o
65 1 -1 -3 1 178.15 171.11 12.25 o
66 1 0 -3 1 60.21 72.41 5.86 o
67 1 1 -3 1 32.06 26.74 5.32 o
68 1 2 -3 1 11.60 3.72 6.54 <
69 1 3 -3 1 371.25 368.70 12.41 o
70 1 5 -3 1 21.78 15.78 13.14 <
71 1 7 -3 1 27.17 33.56 3.24 o
72 1 -4 -2 1 579.10 570.40 22.34 o
73 1 -2 -2 1 127.30 112.65 6.18 o
74 1 0 -2 1 492.86 435.94 10.46 o
75 1 2 -2 1 334.91 297.73 13.25 o
76 1 4 -2 1 469.11 505.30 23.67 o
77 1 6 -2 1 242.07 274.27 9.55 o
78 1 -5 -1 1 15.73 12.15 6.55 <
79 1 -3 -1 1 12.47 31.11 8.77 o
80 1 -2 -1 1 663.76 634.61 9.29 o
81 1 -1 -1 1 0.38 1.18 3.41 <
82 1 0 -1 1 2453.36 2332.63 18.41 o
83 1 1 -1 1 1528.92 1463.88 18.28 o
84 1 2 -1 1 2788.17 2715.32 32.14 o
85 1 4 -1 1 5.95 4.22 9.81 <
86 1 6 -1 1 17.16 22.59 5.62 o
87 1 -7 0 1 116.89 118.91 5.76 o
88 1 -5 0 1 216.96 261.76 11.30 o
89 1 -3 0 1 131.66 99.63 11.20 o
90 1 -1 0 1 655.65 670.35 11.87 o
91 1 1 0 1 1132.17 1152.99 15.25 o
92 1 3 0 1 2151.18 2537.86 19.89 o
93 1 5 0 1 226.92 231.17 11.07 o
94 1 7 0 1 91.32 98.68 6.34 o
95 1 -6 1 1 2.57 1.57 5.47 <
96 1 -4 1 1 94.29 69.05 12.09 o
97 1 -3 1 1 727.74 751.77 22.34 o
98 1 -2 1 1 100.91 100.75 9.33 o
99 1 -1 1 1 2033.67 2107.18 12.55 o
100 1 1 1 1 1225.32 1131.89 16.58 o
101 1 2 1 1 0.51 1.08 4.62 <
102 1 3 1 1 195.25 186.27 7.50 o
103 1 5 1 1 6.71 2.51 5.14 <
104 1 -8 2 1 18.08 11.54 2.47 o
105 1 -6 2 1 23.44 33.77 6.33 o
106 1 -4 2 1 206.05 184.58 15.50 o
107 1 -2 2 1 99.99 86.47 5.45 o
108 1 0 2 1 649.30 615.34 14.91 o
109 1 2 2 1 1588.67 1587.14 17.44 o
110 1 4 2 1 99.39 104.68 5.83 o
111 1 6 2 1 178.11 167.48 5.38 o
112 1 -5 3 1 24.56 22.97 13.29 <
113 1 -3 3 1 41.75 35.94 8.29 o
114 1 -2 3 1 377.83 392.08 12.98 o
115 1 -1 3 1 214.21 191.71 12.06 o
116 1 0 3 1 1613.79 1581.24 28.73 o
117 1 1 3 1 144.07 129.71 11.51 o
118 1 2 3 1 662.24 678.39 22.04 o
119 1 4 3 1 11.31 7.29 5.46 <
120 1 -5 4 1 116.55 134.51 5.39 o
121 1 -1 4 1 437.36 504.61 20.10 o
122 1 1 4 1 555.65 604.10 23.76 o
123 1 3 4 1 137.58 146.87 4.26 o
124 1 5 4 1 264.26 263.10 9.39 o
125 1 1 5 1 109.45 120.89 6.95 o
126 1 3 5 1 4.64 4.14 3.90 <
127 1 -4 6 1 95.41 104.74 5.07 o
128 1 -2 6 1 222.12 262.58 5.25 o
129 1 0 6 1 366.63 378.08 7.04 o
130 1 2 6 1 46.25 53.05 4.89 o
131 1 4 6 1 202.11 202.66 4.40 o
132 1 -3 8 1 43.49 44.72 4.69 o
133 1 -1 8 1 3.38 3.94 3.27 <
134 1 1 8 1 9.85 14.95 4.51 o
135 1 -1 -8 2 50.19 50.43 4.45 o
136 1 1 -8 2 21.26 27.76 4.31 o
137 1 3 -8 2 52.99 60.22 4.72 o
138 1 -2 -7 2 66.79 78.86 6.10 o
139 1 -2 -6 2 122.61 117.09 5.43 o
140 1 0 -6 2 137.98 139.93 4.45 o
141 1 2 -6 2 146.74 130.90 8.13 o
142 1 4 -6 2 27.15 25.22 3.71 o
143 1 6 -6 2 103.00 109.43 4.01 o
144 1 -3 -5 2 129.28 126.71 7.84 o
145 1 -1 -5 2 35.91 32.44 5.06 o
146 1 6 -5 2 17.76 19.45 4.53 o
147 1 -3 -4 2 201.13 226.40 5.90 o
148 1 -1 -4 2 48.50 34.69 6.56 o
149 1 1 -4 2 90.72 91.50 9.15 o
150 1 3 -4 2 30.32 42.13 10.28 o
151 1 5 -4 2 226.16 265.79 6.53 o
152 1 7 -4 2 60.32 63.65 4.31 o
153 1 -2 -3 2 123.34 93.59 6.37 o
154 1 -1 -3 2 56.46 43.28 9.26 o
155 1 0 -3 2 623.05 638.59 12.97 o
156 1 1 -3 2 347.25 269.57 12.46 o
157 1 2 -3 2 15.73 13.84 7.64 <
158 1 3 -3 2 0.89 4.37 8.04 <
159 1 5 -3 2 129.23 128.94 7.91 o
160 1 7 -3 2 2.21 6.14 2.72 <
161 1 -6 -2 2 214.56 222.63 8.38 o
162 1 -4 -2 2 123.09 132.03 13.66 o
163 1 -2 -2 2 0.74 3.40 4.46 <
164 1 0 -2 2 335.62 307.80 8.27 o
165 1 2 -2 2 24.81 16.95 8.22 <
166 1 4 -2 2 324.38 352.72 21.67 o
167 1 6 -2 2 403.38 370.83 10.54 o
168 1 -5 -1 2 982.58 1000.20 14.49 o
169 1 -3 -1 2 4.11 10.68 8.45 <
170 1 -2 -1 2 10.45 17.99 7.63 <
171 1 -1 -1 2 343.98 331.61 10.88 o
172 1 0 -1 2 4.18 17.49 6.39 <
173 1 1 -1 2 0.26 1.78 7.35 <
174 1 2 -1 2 238.09 178.06 11.37 o
175 1 4 -1 2 227.72 225.83 18.10 o
176 1 6 -1 2 34.06 38.74 5.51 o
177 1 -7 0 2 74.48 74.43 5.65 o
178 1 -5 0 2 580.24 613.41 15.61 o
179 1 -3 0 2 14.65 8.34 8.83 <
180 1 -1 0 2 624.85 633.71 12.96 o
181 1 1 0 2 2.63 3.43 6.41 <
182 1 3 0 2 537.86 553.42 20.01 o
183 1 5 0 2 505.88 471.46 14.05 o
184 1 7 0 2 23.80 31.82 5.07 o
185 1 -6 1 2 100.76 107.62 7.48 o
186 1 -4 1 2 2.34 1.08 9.66 <
187 1 -3 1 2 163.18 131.77 12.07 o
188 1 -2 1 2 667.23 644.28 9.37 o
189 1 -1 1 2 84.38 62.76 4.38 o
190 1 0 1 2 1862.81 1871.44 12.94 o
191 1 1 1 2 2102.12 1901.99 20.54 o
192 1 2 1 2 1575.39 1686.14 25.71 o
193 1 3 1 2 17.72 14.82 5.23 <
194 1 5 1 2 96.48 77.69 4.73 o
195 1 7 1 2 7.31 13.01 4.20 o
196 1 -4 2 2 7.84 1.91 9.42 <
197 1 -2 2 2 42.12 25.12 4.53 o
198 1 0 2 2 73.26 59.68 8.19 o
199 1 2 2 2 1587.16 1682.12 19.14 o
200 1 4 2 2 212.48 213.94 5.78 o
201 1 6 2 2 190.93 198.28 5.50 o
202 1 -5 3 2 125.45 117.93 8.89 o
203 1 -3 3 2 198.39 195.51 12.79 o
204 1 -2 3 2 112.08 124.47 8.26 o
205 1 -1 3 2 814.60 857.58 21.89 o
206 1 0 3 2 396.78 331.29 15.50 o
207 1 2 3 2 32.94 21.26 9.51 <
208 1 4 3 2 10.21 10.75 3.79 <
209 1 6 3 2 26.23 24.07 4.93 o
210 1 -5 4 2 102.35 107.64 5.19 o
211 1 -1 4 2 208.17 198.11 14.58 o
212 1 1 4 2 884.35 935.20 29.23 o
213 1 3 4 2 25.95 25.52 3.72 o
214 1 5 4 2 292.66 301.28 9.37 o
215 1 1 5 2 178.24 169.50 5.18 o
216 1 3 5 2 22.16 18.42 5.55 o
217 1 -4 6 2 86.17 103.68 5.09 o
218 1 -2 6 2 16.26 19.08 3.30 o
219 1 0 6 2 304.78 345.36 7.23 o
220 1 2 6 2 44.02 47.88 6.55 o
221 1 4 6 2 225.79 214.74 4.41 o
222 1 -5 7 2 17.22 24.66 3.37 o
223 1 -3 8 2 45.43 55.44 4.62 o
224 1 -1 8 2 236.05 239.17 5.21 o
225 1 1 8 2 17.38 22.22 4.19 o
226 1 -1 -8 3 105.79 102.06 5.24 o
227 1 1 -8 3 27.56 28.89 4.07 o
228 1 3 -8 3 108.23 127.06 5.35 o
229 1 -2 -7 3 3.51 2.39 4.86 <
230 1 -4 -6 3 39.45 32.56 5.43 o
231 1 -2 -6 3 73.14 67.24 4.75 o
232 1 0 -6 3 226.57 216.14 6.54 o
233 1 2 -6 3 123.89 141.69 8.03 o
234 1 4 -6 3 0.97 0.91 3.45 <
235 1 -1 -5 3 15.20 15.34 5.57 <
236 1 1 -5 3 357.15 345.74 9.93 o
237 1 2 -5 3 150.04 131.02 7.48 o
238 1 4 -5 3 0.12 -1.40 5.06 <
239 1 6 -5 3 19.08 20.51 4.38 o
240 1 -3 -4 3 145.64 124.70 5.04 o
241 1 -1 -4 3 726.71 698.82 21.65 o
242 1 1 -4 3 269.99 282.67 15.07 o
243 1 3 -4 3 0.98 0.32 5.02 <
244 1 5 -4 3 67.71 78.73 4.68 o
245 1 7 -4 3 9.72 12.34 3.16 o
246 1 -2 -3 3 13.24 23.46 6.92 o
247 1 -1 -3 3 370.56 336.86 15.18 o
248 1 0 -3 3 400.12 385.85 15.26 o
249 1 1 -3 3 186.57 160.59 11.58 o
250 1 2 -3 3 21.47 18.91 8.92 <
251 1 3 -3 3 3.29 1.40 9.27 <
252 1 5 -3 3 58.85 71.66 4.56 o
253 1 7 -3 3 19.10 20.20 2.53 o
254 1 -4 -2 3 103.71 111.85 5.95 o
255 1 -2 -2 3 247.57 197.05 12.18 o
256 1 0 -2 3 313.24 249.02 12.20 o
257 1 2 -2 3 33.63 51.98 9.70 o
258 1 4 -2 3 340.55 373.53 12.03 o
259 1 6 -2 3 28.00 30.72 4.17 o
260 1 -5 -1 3 372.67 379.89 23.04 o
261 1 -3 -1 3 13.62 1.92 8.17 <
262 1 -2 -1 3 557.25 553.80 17.20 o
263 1 -1 -1 3 118.07 123.64 9.57 o
264 1 0 -1 3 869.05 774.69 17.13 o
265 1 1 -1 3 57.11 50.60 8.77 o
266 1 2 -1 3 1.98 -1.04 7.85 <
267 1 3 -1 3 679.29 668.49 23.72 o
268 1 6 -1 3 8.09 10.48 3.82 <
269 1 -7 0 3 82.62 86.84 5.94 o
270 1 -5 0 3 14.60 12.57 11.51 <
271 1 -3 0 3 3.07 -1.26 8.73 <
272 1 -1 0 3 406.85 350.03 12.33 o
273 1 1 0 3 44.51 51.22 7.99 o
274 1 3 0 3 821.03 852.94 25.56 o
275 1 5 0 3 318.90 311.15 9.42 o
276 1 7 0 3 54.88 70.13 5.24 o
277 1 -4 1 3 78.42 93.46 12.91 o
278 1 -3 1 3 36.31 44.31 9.93 o
279 1 -2 1 3 32.86 29.44 4.58 o
280 1 -1 1 3 629.02 544.08 13.77 o
281 1 0 1 3 13.74 18.50 4.81 o
282 1 1 1 3 57.46 29.30 6.37 o
283 1 2 1 3 1573.11 1628.27 27.04 o
284 1 3 1 3 377.19 410.11 16.25 o
285 1 4 1 3 275.37 298.81 9.28 o
286 1 5 1 3 20.57 23.24 4.10 o
287 1 7 1 3 5.13 17.49 3.86 o
288 1 -6 2 3 29.32 30.15 6.44 o
289 1 -4 2 3 5.38 -3.26 9.76 <
290 1 -2 2 3 62.25 53.69 5.19 o
291 1 0 2 3 2.64 0.41 7.62 <
292 1 2 2 3 580.42 596.09 20.36 o
293 1 4 2 3 585.44 539.61 8.47 o
294 1 6 2 3 11.22 13.69 3.34 o
295 1 -5 3 3 19.51 10.88 15.76 <
296 1 -3 3 3 255.10 249.52 13.47 o
297 1 -1 3 3 97.61 91.82 10.59 o
298 1 0 3 3 658.89 589.63 20.78 o
299 1 2 3 3 143.77 120.15 13.11 o
300 1 3 3 3 271.69 269.17 8.83 o
301 1 4 3 3 74.17 65.65 4.81 o
302 1 6 3 3 0.25 -1.81 2.48 <
303 1 -7 4 3 104.27 105.93 4.96 o
304 1 -5 4 3 37.63 37.33 4.28 o
305 1 -3 4 3 3.22 0.58 5.08 <
306 1 -1 4 3 5.67 6.25 9.11 <
307 1 1 4 3 488.76 515.51 23.88 o
308 1 3 4 3 305.13 301.74 8.97 o
309 1 5 4 3 101.93 104.24 4.24 o
310 1 1 5 3 18.98 16.56 5.49 o
311 1 3 5 3 39.99 40.66 6.08 o
312 1 5 5 3 0.80 0.40 3.61 <
313 1 -4 6 3 31.01 22.12 3.94 o
314 1 -2 6 3 7.19 11.22 3.02 o
315 1 0 6 3 220.41 229.82 6.51 o
316 1 2 6 3 43.76 46.96 6.55 o
317 1 4 6 3 191.74 183.09 5.46 o
318 1 2 7 3 0.46 -0.65 4.48 <
319 1 -3 8 3 13.83 12.69 3.65 o
320 1 -1 8 3 65.81 76.82 3.51 o
321 1 1 8 3 10.44 14.84 3.80 o
322 1 -1 -8 4 1.58 3.74 3.67 <
323 1 3 -8 4 93.57 114.17 4.77 o
324 1 -4 -6 4 6.02 11.24 4.44 <
325 1 -2 -6 4 101.11 85.77 7.44 o
326 1 0 -6 4 98.05 103.90 5.36 o
327 1 2 -6 4 409.30 437.04 11.88 o
328 1 4 -6 4 29.21 33.17 3.84 o
329 1 -1 -5 4 215.05 226.83 8.14 o
330 1 1 -5 4 306.87 313.41 9.27 o
331 1 2 -5 4 205.29 199.47 5.77 o
332 1 4 -5 4 22.47 23.48 4.25 o
333 1 6 -5 4 111.44 102.90 5.20 o
334 1 -3 -4 4 75.25 77.91 7.26 o
335 1 -1 -4 4 582.39 575.01 21.73 o
336 1 1 -4 4 387.15 408.87 19.04 o
337 1 3 -4 4 27.18 28.28 5.96 o
338 1 5 -4 4 5.60 4.74 3.67 <
339 1 -2 -3 4 59.12 47.06 8.53 o
340 1 -1 -3 4 58.95 49.41 10.04 o
341 1 0 -3 4 1339.33 1222.42 27.48 o
342 1 1 -3 4 657.62 618.99 21.23 o
343 1 2 -3 4 55.94 57.87 10.78 o
344 1 3 -3 4 1.53 0.14 10.21 <
345 1 4 -3 4 50.80 35.47 13.49 <
346 1 5 -3 4 99.08 94.42 4.05 o
347 1 7 -3 4 4.37 10.67 3.02 o
348 1 -6 -2 4 2.65 1.13 4.46 <
349 1 -4 -2 4 117.40 104.35 5.93 o
350 1 -2 -2 4 2274.24 2445.19 37.80 o
351 1 0 -2 4 122.15 121.58 11.01 o
352 1 2 -2 4 198.41 202.10 14.49 o
353 1 4 -2 4 34.70 29.39 6.22 o
354 1 6 -2 4 101.56 114.63 4.83 o
355 1 -5 -1 4 211.41 226.84 19.62 o
356 1 -3 -1 4 47.76 83.89 11.36 o
357 1 -2 -1 4 318.63 287.40 14.51 o
358 1 -1 -1 4 2062.44 2326.43 31.87 o
359 1 0 -1 4 198.56 170.86 11.21 o
360 1 1 -1 4 78.04 89.91 10.23 o
361 1 2 -1 4 6.76 19.73 9.19 <
362 1 3 -1 4 366.91 372.20 19.68 o
363 1 4 -1 4 278.22 288.51 5.93 o
364 1 6 -1 4 93.12 96.79 4.58 o
365 1 -7 0 4 32.53 42.69 5.11 o
366 1 -5 0 4 161.39 152.02 17.67 o
367 1 -3 0 4 1126.91 1191.14 29.29 o
368 1 -1 0 4 114.91 94.54 9.35 o
369 1 1 0 4 83.38 78.80 9.15 o
370 1 3 0 4 63.22 64.97 11.26 o
371 1 5 0 4 113.75 140.26 5.36 o
372 1 7 0 4 71.11 78.67 4.81 o
373 1 -6 1 4 136.35 141.21 8.16 o
374 1 -4 1 4 1.32 -4.16 10.04 <
375 1 -3 1 4 752.49 768.77 23.88 o
376 1 -2 1 4 668.24 708.67 12.15 o
377 1 -1 1 4 93.12 76.95 5.33 o
378 1 0 1 4 0.18 -0.96 5.41 <
379 1 1 1 4 56.85 49.64 7.22 o
380 1 2 1 4 1195.07 1222.25 25.35 o
381 1 3 1 4 352.97 346.35 16.87 o
382 1 5 1 4 79.15 79.92 4.99 o
383 1 7 1 4 68.87 85.50 4.19 o
384 1 -6 2 4 0.96 0.14 5.72 <
385 1 -4 2 4 134.81 116.03 13.53 o
386 1 -2 2 4 514.94 523.00 11.15 o
387 1 0 2 4 14.46 19.40 8.58 <
388 1 2 2 4 459.26 468.40 20.01 o
389 1 4 2 4 287.51 311.73 7.10 o
390 1 6 2 4 103.17 105.87 4.21 o
391 1 -5 3 4 41.90 51.77 6.49 o
392 1 -1 3 4 17.46 14.16 8.48 <
393 1 0 3 4 83.75 65.54 10.99 o
394 1 1 3 4 797.61 771.42 26.06 o
395 1 2 3 4 161.73 151.35 14.71 o
396 1 4 3 4 102.10 101.59 5.24 o
397 1 6 3 4 39.24 -0.17 2.39 <
398 1 -7 4 4 0.33 -0.04 2.99 <
399 1 -5 4 4 72.01 62.32 4.59 o
400 1 -3 4 4 143.89 159.93 5.10 o
401 1 -1 4 4 14.88 17.00 9.57 <
402 1 1 4 4 389.53 354.68 21.27 o
403 1 3 4 4 263.25 257.76 9.63 o
404 1 5 4 4 14.95 16.46 3.07 o
405 1 1 5 4 111.91 115.84 7.52 o
406 1 3 5 4 105.94 107.60 5.06 o
407 1 -4 6 4 3.25 7.39 3.55 <
408 1 -2 6 4 37.26 45.45 4.12 o
409 1 0 6 4 97.92 100.98 5.14 o
410 1 2 6 4 174.57 179.22 8.33 o
411 1 4 6 4 33.03 29.06 3.27 o
412 1 -2 7 4 71.01 80.19 5.75 o
413 1 -1 7 4 132.71 149.06 6.85 o
414 1 0 7 4 17.64 20.49 5.15 o
415 1 2 7 4 32.33 30.79 4.63 o
416 1 -3 8 4 15.32 15.64 3.28 o
417 1 -1 8 4 26.57 34.20 2.81 o
418 1 1 8 4 63.70 61.63 3.60 o
419 1 -1 -8 5 29.26 27.79 3.79 o
420 1 3 -8 5 17.38 17.91 2.74 o
421 1 2 -7 5 155.30 156.18 7.07 o
422 1 4 -7 5 233.47 240.27 6.84 o
423 1 -4 -6 5 17.89 21.95 4.55 o
424 1 -2 -6 5 37.77 38.36 6.23 o
425 1 0 -6 5 235.80 255.32 9.66 o
426 1 2 -6 5 113.96 124.05 5.11 o
427 1 4 -6 5 74.39 73.35 4.31 o
428 1 -3 -5 5 15.45 14.98 5.80 <
429 1 -1 -5 5 158.57 150.19 8.20 o
430 1 1 -5 5 497.61 498.53 11.24 o
431 1 2 -5 5 49.01 46.81 3.49 o
432 1 4 -5 5 11.07 7.05 3.86 <
433 1 6 -5 5 102.90 103.59 4.48 o
434 1 -3 -4 5 0.38 1.82 6.46 <
435 1 -1 -4 5 401.39 390.28 20.29 o
436 1 1 -4 5 996.28 981.57 30.41 o
437 1 3 -4 5 277.33 269.75 10.73 o
438 1 5 -4 5 11.98 9.96 3.77 <
439 1 -2 -3 5 272.97 239.92 16.88 o
440 1 -1 -3 5 136.99 126.17 13.13 o
441 1 0 -3 5 922.19 871.93 26.48 o
442 1 1 -3 5 170.61 149.35 13.94 o
443 1 2 -3 5 318.41 311.80 19.25 o
444 1 3 -3 5 16.08 13.94 5.96 <
445 1 4 -3 5 351.60 347.44 13.17 o
446 1 5 -3 5 121.12 116.35 7.41 o
447 1 -6 -2 5 6.57 12.48 4.76 <
448 1 -4 -2 5 3.55 2.87 4.50 <
449 1 -2 -2 5 532.42 529.69 20.87 o
450 1 0 -2 5 1391.88 1420.66 30.30 o
451 1 2 -2 5 243.92 240.66 16.37 o
452 1 4 -2 5 0.15 1.03 3.06 <
453 1 6 -2 5 132.90 157.29 4.86 o
454 1 -7 -1 5 17.08 12.91 3.98 o
455 1 -5 -1 5 425.75 429.40 25.47 o
456 1 -3 -1 5 162.87 169.53 14.66 o
457 1 -2 -1 5 176.33 150.66 12.76 o
458 1 -1 -1 5 2151.67 2218.62 34.69 o
459 1 0 -1 5 717.33 684.51 20.07 o
460 1 1 -1 5 164.66 172.68 12.95 o
461 1 2 -1 5 9.18 -0.33 8.96 <
462 1 3 -1 5 264.59 238.54 18.12 o
463 1 4 -1 5 4.11 3.66 3.38 <
464 1 5 -1 5 2.52 0.79 4.69 <
465 1 6 -1 5 11.94 14.62 5.33 <
466 1 7 -1 5 93.02 99.93 4.18 o
467 1 -7 0 5 0.22 5.49 4.39 <
468 1 -5 0 5 9.56 9.24 4.36 <
469 1 -3 0 5 1218.81 1326.46 32.75 o
470 1 -1 0 5 433.52 430.85 11.34 o
471 1 1 0 5 1178.27 1213.53 25.62 o
472 1 3 0 5 59.61 55.56 11.44 o
473 1 5 0 5 192.91 207.95 9.41 o
474 1 7 0 5 41.43 46.48 3.53 o
475 1 -6 1 5 373.03 387.88 11.31 o
476 1 -4 1 5 2.73 4.12 9.73 <
477 1 -3 1 5 149.66 130.17 13.16 o
478 1 -2 1 5 1657.79 1700.97 31.54 o
479 1 -1 1 5 191.01 170.53 9.65 o
480 1 0 1 5 126.16 138.04 8.98 o
481 1 1 1 5 2.54 6.36 5.79 <
482 1 2 1 5 355.96 375.64 16.00 o
483 1 3 1 5 126.16 125.91 4.62 o
484 1 5 1 5 107.47 115.87 5.41 o
485 1 -6 2 5 40.13 31.98 5.99 o
486 1 -4 2 5 610.94 627.03 14.16 o
487 1 -2 2 5 60.54 54.02 5.87 o
488 1 0 2 5 691.44 694.30 22.64 o
489 1 2 2 5 14.65 10.98 9.19 <
490 1 4 2 5 241.06 249.25 6.77 o
491 1 6 2 5 113.56 126.23 5.60 o
492 1 -5 3 5 9.59 7.21 5.59 <
493 1 -3 3 5 702.24 677.45 12.02 o
494 1 -1 3 5 29.83 27.38 9.68 <
495 1 0 3 5 159.95 125.56 13.89 o
496 1 1 3 5 738.51 753.59 27.51 o
497 1 2 3 5 254.00 244.92 5.76 o
498 1 3 3 5 20.96 21.53 5.36 o
499 1 4 3 5 46.86 41.86 4.58 o
500 1 -7 4 5 0.82 2.19 2.49 <
501 1 -5 4 5 111.89 124.24 5.03 o
502 1 -3 4 5 114.32 118.83 4.87 o
503 1 -1 4 5 47.30 47.03 11.95 o
504 1 1 4 5 168.63 166.08 17.18 o
505 1 3 4 5 407.07 434.09 7.59 o
506 1 5 4 5 135.14 129.96 5.18 o
507 1 -1 5 5 108.39 95.06 6.44 o
508 1 0 5 5 228.54 243.09 8.10 o
509 1 1 5 5 57.65 51.21 6.53 o
510 1 3 5 5 78.83 74.88 6.50 o
511 1 -4 6 5 70.88 74.55 4.08 o
512 1 -2 6 5 7.16 8.42 5.57 <
513 1 0 6 5 188.35 185.24 5.81 o
514 1 2 6 5 158.83 168.18 4.80 o
515 1 -1 7 5 110.44 134.28 4.51 o
516 1 0 7 5 50.05 43.44 5.19 o
517 1 1 7 5 20.61 22.27 4.49 o
518 1 2 7 5 109.32 113.85 5.04 o
519 1 -1 8 5 22.92 26.66 3.31 o
520 1 -1 -8 6 0.57 -0.21 2.77 <
521 1 1 -7 6 23.91 26.15 4.38 o
522 1 2 -7 6 6.63 11.83 4.41 <
523 1 3 -7 6 18.34 13.24 4.17 o
524 1 4 -7 6 27.23 25.16 2.99 o
525 1 -4 -6 6 29.87 34.41 2.74 o
526 1 -2 -6 6 12.10 15.27 5.66 <
527 1 0 -6 6 163.81 168.98 8.43 o
528 1 2 -6 6 6.90 5.81 3.57 <
529 1 4 -6 6 12.28 19.87 4.98 o
530 1 -3 -5 6 2.04 2.29 5.19 <
531 1 -1 -5 6 265.23 256.23 9.79 o
532 1 1 -5 6 158.39 161.55 10.65 o
533 1 2 -5 6 38.53 32.75 3.38 o
534 1 4 -5 6 284.98 321.31 6.95 o
535 1 -5 -4 6 80.84 91.55 6.48 o
536 1 -3 -4 6 77.57 65.80 8.27 o
537 1 -1 -4 6 380.09 381.27 12.06 o
538 1 1 -4 6 20.89 17.23 6.04 <
539 1 3 -4 6 126.50 133.65 5.67 o
540 1 5 -4 6 12.59 14.35 5.19 <
541 1 -2 -3 6 372.95 340.57 20.77 o
542 1 -1 -3 6 94.43 68.53 12.62 o
543 1 0 -3 6 613.99 593.78 24.24 o
544 1 1 -3 6 58.55 39.11 11.65 o
545 1 2 -3 6 461.93 463.41 12.51 o
546 1 3 -3 6 9.81 14.25 6.25 <
547 1 4 -3 6 8.29 4.28 5.65 <
548 1 5 -3 6 394.89 404.39 10.46 o
549 1 6 -3 6 6.21 1.65 2.82 <
550 1 -6 -2 6 74.31 77.89 4.22 o
551 1 -4 -2 6 46.82 43.96 5.47 o
552 1 -2 -2 6 813.68 837.52 28.14 o
553 1 0 -2 6 679.49 708.33 24.71 o
554 1 2 -2 6 432.00 411.57 21.84 o
555 1 4 -2 6 159.44 146.26 5.46 o
556 1 6 -2 6 15.53 15.50 2.79 o
557 1 -7 -1 6 3.03 -1.04 3.54 <
558 1 -3 -1 6 232.95 229.07 17.19 o
559 1 -2 -1 6 196.89 189.45 15.23 o
560 1 -1 -1 6 1126.76 1128.24 28.43 o
561 1 0 -1 6 65.41 46.24 9.83 o
562 1 1 -1 6 724.75 763.27 24.49 o
563 1 2 -1 6 42.94 47.97 11.14 o
564 1 3 -1 6 495.59 468.51 7.00 o
565 1 4 -1 6 437.83 417.33 7.22 o
566 1 5 -1 6 64.34 52.99 5.64 o
567 1 6 -1 6 43.56 47.47 5.10 o
568 1 -7 0 6 4.25 6.51 4.19 <
569 1 -5 0 6 1.03 4.27 4.81 <
570 1 -3 0 6 455.28 465.83 21.86 o
571 1 -1 0 6 1047.60 1130.08 25.99 o
572 1 1 0 6 122.59 89.99 10.79 o
573 1 3 0 6 204.90 221.52 5.49 o
574 1 5 0 6 111.77 142.21 8.05 o
575 1 -6 1 6 91.16 91.45 7.08 o
576 1 -4 1 6 125.99 113.92 8.22 o
577 1 -3 1 6 339.16 342.03 18.80 o
578 1 -2 1 6 1225.97 1238.41 19.80 o
579 1 -1 1 6 166.29 158.05 10.28 o
580 1 0 1 6 536.86 592.48 17.14 o
581 1 1 1 6 20.38 9.41 6.68 <
582 1 2 1 6 498.21 464.66 19.02 o
583 1 3 1 6 10.16 9.50 3.51 <
584 1 5 1 6 122.26 125.25 7.74 o
585 1 -6 2 6 0.65 2.43 3.34 <
586 1 -4 2 6 322.52 319.21 11.22 o
587 1 -2 2 6 474.24 475.80 12.88 o
588 1 0 2 6 549.34 528.99 21.98 o
589 1 2 2 6 1.84 2.09 3.54 <
590 1 4 2 6 35.09 41.17 4.69 o
591 1 6 2 6 6.89 6.22 3.25 <
592 1 -7 3 6 103.50 105.04 4.59 o
593 1 -5 3 6 12.88 13.68 3.92 o
594 1 -3 3 6 471.70 468.78 11.12 o
595 1 -1 3 6 11.51 17.23 10.21 <
596 1 0 3 6 12.27 21.62 10.81 <
597 1 1 3 6 351.83 379.43 9.16 o
598 1 2 3 6 2.75 2.74 3.73 <
599 1 3 3 6 79.25 77.50 5.12 o
600 1 4 3 6 271.80 268.53 9.22 o
601 1 -5 4 6 148.01 175.64 8.23 o
602 1 -3 4 6 72.30 69.76 4.48 o
603 1 -1 4 6 377.47 387.36 9.31 o
604 1 1 4 6 9.65 12.49 4.99 <
605 1 3 4 6 24.08 22.99 5.28 o
606 1 5 4 6 47.36 44.13 3.29 o
607 1 -6 5 6 0.96 0.72 3.41 <
608 1 -4 5 6 223.33 244.05 9.05 o
609 1 -2 5 6 1.15 0.92 3.54 <
610 1 0 5 6 452.59 464.62 11.15 o
611 1 1 5 6 17.15 12.85 5.77 <
612 1 2 5 6 75.57 80.07 6.79 o
613 1 3 5 6 29.58 29.31 5.19 o
614 1 4 5 6 115.91 109.72 4.98 o
615 1 -4 6 6 18.91 19.66 3.17 o
616 1 -2 6 6 66.51 70.65 6.28 o
617 1 0 6 6 14.50 13.33 3.62 o
618 1 2 6 6 168.24 164.64 4.29 o
619 1 -3 7 6 0.45 -1.41 3.63 <
620 1 -1 7 6 125.24 142.17 6.24 o
621 1 0 7 6 0.29 -0.90 2.63 <
622 1 1 7 6 5.31 6.72 2.25 <
623 1 2 7 6 10.86 13.35 2.80 o
624 1 -3 -7 7 99.01 89.41 4.05 o
625 1 -2 -7 7 68.31 77.50 4.97 o
626 1 0 -7 7 112.03 101.53 6.16 o
627 1 1 -7 7 80.24 73.14 5.38 o
628 1 2 -7 7 15.59 5.78 2.31 <
629 1 -4 -6 7 18.08 6.23 1.82 o
630 1 -2 -6 7 15.25 12.83 5.18 <
631 1 0 -6 7 21.67 28.47 5.87 o
632 1 2 -6 7 77.89 78.78 4.36 o
633 1 -5 -5 7 58.06 60.63 4.05 o
634 1 -3 -5 7 53.41 58.30 4.13 o
635 1 -1 -5 7 110.95 107.85 7.75 o
636 1 0 -5 7 80.72 74.37 7.21 o
637 1 1 -5 7 0.86 -0.31 3.66 <
638 1 2 -5 7 12.27 7.51 3.78 <
639 1 3 -5 7 46.62 45.61 4.20 o
640 1 4 -5 7 429.81 472.48 10.42 o
641 1 5 -5 7 2.28 2.03 3.56 <
642 1 -5 -4 7 13.61 20.31 4.82 o
643 1 -3 -4 7 7.00 9.40 3.78 <
644 1 -1 -4 7 237.23 222.44 10.60 o
645 1 1 -4 7 65.65 56.96 7.89 o
646 1 3 -4 7 266.89 291.20 7.23 o
647 1 5 -4 7 28.68 31.41 4.79 o
648 1 -6 -3 7 107.71 112.92 5.60 o
649 1 -4 -3 7 0.21 1.01 5.66 <
650 1 -3 -3 7 54.52 51.93 14.45 o
651 1 -2 -3 7 342.77 344.25 12.01 o
652 1 -1 -3 7 313.61 297.53 20.36 o
653 1 0 -3 7 53.79 56.98 13.17 o
654 1 1 -3 7 60.64 62.43 7.25 o
655 1 2 -3 7 551.10 521.64 14.06 o
656 1 3 -3 7 912.98 941.19 11.39 o
657 1 5 -3 7 93.21 87.99 4.33 o
658 1 -6 -2 7 67.18 75.78 3.87 o
659 1 -4 -2 7 28.98 28.41 5.55 o
660 1 -2 -2 7 296.98 306.30 19.93 o
661 1 0 -2 7 68.04 53.36 11.76 o
662 1 2 -2 7 569.67 566.98 13.94 o
663 1 4 -2 7 192.85 185.23 5.68 o
664 1 6 -2 7 114.30 117.73 4.38 o
665 1 -7 -1 7 58.79 54.05 3.98 o
666 1 -5 -1 7 0.13 0.33 5.14 <
667 1 -4 -1 7 0.70 5.78 12.77 <
668 1 -3 -1 7 633.12 635.91 15.14 o
669 1 -2 -1 7 316.67 297.27 18.45 o
670 1 -1 -1 7 49.18 47.73 11.06 o
671 1 0 -1 7 127.25 128.97 13.51 o
672 1 1 -1 7 635.51 607.28 24.02 o
673 1 2 -1 7 335.67 321.72 8.45 o
674 1 3 -1 7 177.87 171.36 4.63 o
675 1 4 -1 7 474.91 462.71 6.51 o
676 1 5 -1 7 3.47 3.77 5.22 <
677 1 6 -1 7 52.79 69.72 4.66 o
678 1 -7 0 7 120.88 132.16 5.36 o
679 1 -5 0 7 113.37 94.45 6.20 o
680 1 -3 0 7 610.98 627.12 14.73 o
681 1 -1 0 7 491.46 495.84 19.68 o
682 1 1 0 7 749.09 759.10 24.70 o
683 1 3 0 7 3.00 3.89 3.50 <
684 1 5 0 7 53.00 62.77 6.42 o
685 1 -6 1 7 14.00 12.20 5.31 <
686 1 -4 1 7 232.55 236.40 10.57 o
687 1 -3 1 7 108.53 95.09 8.89 o
688 1 -2 1 7 189.63 192.30 13.12 o
689 1 -1 1 7 258.46 253.73 13.38 o
690 1 0 1 7 528.82 478.68 17.24 o
691 1 2 1 7 46.52 46.16 4.27 o
692 1 3 1 7 932.21 896.99 14.44 o
693 1 4 1 7 60.50 42.72 6.84 o
694 1 5 1 7 78.72 91.13 6.75 o
695 1 6 1 7 22.94 17.75 3.44 o
696 1 -6 2 7 17.57 14.36 3.38 o
697 1 -4 2 7 335.76 322.93 12.45 o
698 1 -2 2 7 305.48 327.57 9.51 o
699 1 0 2 7 174.61 154.18 15.50 o
700 1 2 2 7 116.85 121.86 6.98 o
701 1 4 2 7 205.59 229.82 9.20 o
702 1 -5 3 7 98.91 98.39 4.80 o
703 1 -3 3 7 358.73 377.98 10.67 o
704 1 -2 3 7 181.35 184.47 5.88 o
705 1 -1 3 7 192.28 187.03 5.28 o
706 1 0 3 7 123.40 129.41 6.81 o
707 1 1 3 7 102.12 94.78 6.52 o
708 1 2 3 7 63.56 71.21 7.30 o
709 1 3 3 7 312.51 306.92 10.32 o
710 1 4 3 7 203.61 186.85 7.63 o
711 1 5 3 7 44.71 38.70 2.76 o
712 1 -5 4 7 60.53 70.61 6.23 o
713 1 -3 4 7 207.24 210.07 5.79 o
714 1 -1 4 7 176.26 179.04 7.77 o
715 1 1 4 7 11.14 16.59 5.82 <
716 1 3 4 7 38.36 42.88 3.97 o
717 1 -6 5 7 37.97 34.69 3.39 o
718 1 -4 5 7 108.50 123.68 7.24 o
719 1 -3 5 7 14.34 15.91 5.49 <
720 1 -2 5 7 4.26 4.43 3.39 <
721 1 -1 5 7 12.29 16.53 5.41 o
722 1 0 5 7 80.19 78.97 4.40 o
723 1 1 5 7 0.44 1.12 4.74 <
724 1 2 5 7 5.73 6.96 4.79 <
725 1 3 5 7 486.01 497.09 9.63 o
726 1 4 5 7 58.36 58.80 3.25 o
727 1 -4 6 7 89.63 83.25 5.04 o
728 1 -2 6 7 70.31 88.22 6.10 o
729 1 0 6 7 21.48 25.16 3.37 o
730 1 2 6 7 1.76 1.27 2.15 <
731 1 -3 7 7 0.47 0.40 2.78 <
732 1 -2 7 7 30.35 30.21 4.05 o
733 1 -1 7 7 107.52 121.96 5.29 o
734 1 0 7 7 1.12 3.67 3.17 <
735 1 -2 -7 8 66.07 62.32 4.17 o
736 1 -1 -7 8 23.90 17.78 3.93 o
737 1 0 -7 8 144.55 138.79 5.86 o
738 1 1 -7 8 30.01 26.05 4.06 o
739 1 2 -7 8 3.67 -1.09 2.19 <
740 1 -2 -6 8 144.61 151.38 7.27 o
741 1 0 -6 8 52.43 42.91 6.03 o
742 1 2 -6 8 102.42 103.05 3.43 o
743 1 4 -6 8 9.36 14.25 2.96 o
744 1 -5 -5 8 76.59 79.46 3.63 o
745 1 -3 -5 8 128.24 115.45 4.58 o
746 1 -2 -5 8 0.56 0.02 5.37 <
747 1 -1 -5 8 615.15 577.77 13.29 o
748 1 0 -5 8 30.17 35.21 6.54 o
749 1 1 -5 8 14.29 13.95 3.19 o
750 1 2 -5 8 1.48 0.92 3.00 <
751 1 3 -5 8 63.10 52.76 5.36 o
752 1 4 -5 8 51.30 50.53 5.12 o
753 1 5 -5 8 0.30 0.47 2.63 <
754 1 -5 -4 8 61.55 54.75 4.93 o
755 1 -3 -4 8 86.50 83.84 4.62 o
756 1 -1 -4 8 0.16 0.60 5.30 <
757 1 1 -4 8 196.02 192.78 5.88 o
758 1 3 -4 8 242.61 234.11 9.35 o
759 1 5 -4 8 22.12 23.97 3.81 o
760 1 -6 -3 8 65.68 68.45 4.44 o
761 1 -4 -3 8 137.88 140.86 7.94 o
762 1 -2 -3 8 444.82 433.41 13.83 o
763 1 -1 -3 8 17.31 16.19 12.56 <
764 1 0 -3 8 13.16 10.93 4.51 <
765 1 1 -3 8 11.62 5.93 4.98 <
766 1 2 -3 8 241.20 205.04 11.05 o
767 1 3 -3 8 302.23 313.45 10.01 o
768 1 4 -3 8 23.46 37.48 4.13 o
769 1 5 -3 8 75.04 71.47 3.54 o
770 1 -6 -2 8 19.84 22.21 3.05 o
771 1 -4 -2 8 91.75 71.51 6.93 o
772 1 -2 -2 8 273.59 271.66 20.91 o
773 1 0 -2 8 103.14 95.64 5.80 o
774 1 2 -2 8 479.99 482.82 7.82 o
775 1 4 -2 8 6.68 9.30 3.50 <
776 1 -7 -1 8 55.84 66.43 3.36 o
777 1 -5 -1 8 3.08 2.41 5.14 <
778 1 -3 -1 8 378.70 362.04 9.31 o
779 1 -2 -1 8 48.90 51.20 12.33 o
780 1 -1 -1 8 234.29 235.91 17.56 o
781 1 0 -1 8 10.99 11.87 10.16 <
782 1 1 -1 8 920.56 824.74 12.37 o
783 1 2 -1 8 660.32 649.13 7.29 o
784 1 3 -1 8 1.57 4.23 3.16 <
785 1 4 -1 8 56.51 53.73 4.25 o
786 1 5 -1 8 82.43 81.91 5.74 o
787 1 -7 0 8 22.43 26.53 3.44 o
788 1 -5 0 8 5.46 4.59 3.31 <
789 1 -3 0 8 253.40 254.83 8.26 o
790 1 -1 0 8 110.82 98.24 12.13 o
791 1 1 0 8 1030.87 983.74 9.77 o
792 1 3 0 8 129.65 133.71 5.50 o
793 1 5 0 8 124.71 131.60 6.76 o
794 1 -6 1 8 2.90 5.57 4.83 <
795 1 -4 1 8 520.54 529.49 12.23 o
796 1 -3 1 8 178.43 165.62 8.16 o
797 1 -2 1 8 58.64 59.62 4.54 o
798 1 -1 1 8 1.20 1.90 3.54 <
799 1 0 1 8 857.97 823.52 9.57 o
800 1 1 1 8 252.95 262.80 6.35 o
801 1 2 1 8 45.62 36.96 4.26 o
802 1 3 1 8 165.49 135.15 8.30 o
803 1 4 1 8 107.58 112.45 7.54 o
804 1 5 1 8 30.62 31.48 5.02 o
805 1 -6 2 8 46.83 37.40 3.25 o
806 1 -4 2 8 315.81 308.84 10.22 o
807 1 -2 2 8 556.20 564.49 8.76 o
808 1 0 2 8 841.03 856.21 9.64 o
809 1 2 2 8 29.15 32.26 6.52 o
810 1 4 2 8 23.52 28.27 5.61 o
811 1 -6 3 8 5.14 8.95 3.30 <
812 1 -5 3 8 163.73 177.55 7.93 o
813 1 -3 3 8 5.73 3.87 5.88 <
814 1 -2 3 8 61.79 64.35 4.88 o
815 1 -1 3 8 609.65 596.72 8.19 o
816 1 0 3 8 167.84 175.07 7.97 o
817 1 1 3 8 6.25 5.51 5.97 <
818 1 2 3 8 405.55 396.13 11.36 o
819 1 3 3 8 16.70 26.79 5.97 o
820 1 4 3 8 20.75 21.33 4.42 o
821 1 -5 4 8 205.97 217.77 7.65 o
822 1 -3 4 8 227.04 264.80 9.34 o
823 1 -1 4 8 227.74 236.94 9.28 o
824 1 1 4 8 0.09 -0.33 3.66 <
825 1 3 4 8 100.97 107.95 4.21 o
826 1 -5 5 8 42.38 48.11 4.31 o
827 1 -4 5 8 48.14 53.99 5.53 o
828 1 -3 5 8 142.71 155.05 4.82 o
829 1 -2 5 8 166.04 158.07 7.42 o
830 1 -1 5 8 35.88 36.70 5.67 o
831 1 0 5 8 8.63 8.45 3.25 <
832 1 1 5 8 68.01 70.91 3.93 o
833 1 2 5 8 66.32 58.80 5.16 o
834 1 3 5 8 40.79 36.89 3.69 o
835 1 -4 6 8 101.61 111.48 4.17 o
836 1 -2 6 8 149.56 152.95 6.31 o
837 1 0 6 8 4.59 3.83 4.03 <
838 1 2 6 8 33.72 35.34 3.03 o
839 1 -1 7 8 10.78 12.74 2.90 o
840 1 -1 -7 9 84.37 78.89 4.06 o
841 1 0 -7 9 29.89 31.44 3.63 o
842 1 1 -7 9 53.09 47.45 3.44 o
843 1 -2 -6 9 5.83 2.49 3.97 <
844 1 0 -6 9 3.70 5.18 4.81 <
845 1 2 -6 9 179.69 163.85 6.00 o
846 1 -3 -5 9 65.57 62.52 3.44 o
847 1 -2 -5 9 3.22 4.91 3.17 <
848 1 -1 -5 9 117.81 101.30 7.23 o
849 1 0 -5 9 107.83 106.60 7.33 o
850 1 1 -5 9 8.93 6.64 3.42 <
851 1 2 -5 9 100.37 102.28 4.60 o
852 1 3 -5 9 47.87 44.29 3.36 o
853 1 4 -5 9 19.44 17.89 3.36 o
854 1 -5 -4 9 46.72 42.86 4.04 o
855 1 -3 -4 9 94.64 97.98 4.44 o
856 1 -1 -4 9 140.42 124.28 7.83 o
857 1 1 -4 9 164.22 156.33 7.56 o
858 1 3 -4 9 19.47 19.60 5.59 o
859 1 -6 -3 9 130.47 124.24 4.09 o
860 1 -4 -3 9 137.08 130.34 7.43 o
861 1 -3 -3 9 22.18 21.04 5.27 o
862 1 -2 -3 9 807.84 774.63 13.49 o
863 1 -1 -3 9 91.81 99.43 7.24 o
864 1 0 -3 9 20.16 15.76 5.02 o
865 1 1 -3 9 96.84 85.27 7.03 o
866 1 2 -3 9 28.90 24.97 6.06 o
867 1 3 -3 9 81.41 73.33 6.87 o
868 1 4 -3 9 0.30 0.42 4.58 <
869 1 5 -3 9 47.19 52.63 3.56 o
870 1 -6 -2 9 49.27 44.04 2.77 o
871 1 -4 -2 9 45.42 47.73 6.47 o
872 1 -2 -2 9 160.04 136.05 18.00 o
873 1 0 -2 9 232.59 238.34 8.13 o
874 1 2 -2 9 138.38 128.56 8.02 o
875 1 4 -2 9 90.34 98.53 6.47 o
876 1 -5 -1 9 206.34 179.86 7.51 o
877 1 -3 -1 9 604.22 602.67 12.92 o
878 1 -2 -1 9 110.06 102.21 15.57 o
879 1 -1 -1 9 24.06 32.19 5.25 o
880 1 0 -1 9 88.45 94.27 6.28 o
881 1 1 -1 9 130.12 123.61 6.92 o
882 1 2 -1 9 353.46 340.97 7.20 o
883 1 3 -1 9 2.13 2.96 3.68 <
884 1 4 -1 9 171.23 169.32 5.05 o
885 1 5 -1 9 140.36 136.71 5.30 o
886 1 -5 0 9 67.13 58.32 3.87 o
887 1 -3 0 9 23.37 26.76 6.38 o
888 1 -1 0 9 6.28 6.23 3.36 <
889 1 1 0 9 262.75 281.26 6.81 o
890 1 3 0 9 12.58 12.93 3.93 o
891 1 5 0 9 57.07 37.41 4.27 o
892 1 -6 1 9 43.93 42.14 4.77 o
893 1 -4 1 9 316.68 314.32 10.18 o
894 1 -3 1 9 33.98 34.89 6.56 o
895 1 -2 1 9 196.93 180.74 6.05 o
896 1 -1 1 9 143.03 160.28 4.58 o
897 1 0 1 9 437.24 425.87 6.26 o
898 1 1 1 9 461.52 450.60 8.25 o
899 1 2 1 9 1.79 -0.96 3.79 <
900 1 3 1 9 179.75 198.19 5.61 o
901 1 4 1 9 107.41 109.47 6.69 o
902 1 5 1 9 34.18 25.87 3.72 o
903 1 -6 2 9 17.81 13.21 2.54 o
904 1 -4 2 9 44.68 52.51 6.60 o
905 1 -2 2 9 8.26 8.56 4.09 <
906 1 0 2 9 557.40 551.11 11.89 o
907 1 2 2 9 9.28 17.02 6.43 <
908 1 4 2 9 98.11 92.97 5.85 o
909 1 -6 3 9 6.75 7.40 3.17 <
910 1 -5 3 9 343.10 363.98 9.23 o
911 1 -4 3 9 7.17 6.08 5.65 <
912 1 -3 3 9 140.21 151.91 8.12 o
913 1 -2 3 9 1.33 3.07 4.03 <
914 1 -1 3 9 318.73 317.41 7.01 o
915 1 0 3 9 153.74 163.26 8.75 o
916 1 1 3 9 17.17 19.51 6.11 o
917 1 2 3 9 167.53 162.71 8.19 o
918 1 3 3 9 86.64 84.20 6.20 o
919 1 4 3 9 27.38 22.66 2.54 o
920 1 -5 4 9 91.73 98.21 5.42 o
921 1 -3 4 9 119.46 114.06 6.93 o
922 1 -1 4 9 316.96 319.81 10.29 o
923 1 1 4 9 0.66 0.82 3.38 <
924 1 3 4 9 6.61 6.27 2.45 <
925 1 -5 5 9 0.77 1.63 2.70 <
926 1 -4 5 9 5.42 9.88 3.71 <
927 1 -3 5 9 1.52 2.78 2.66 <
928 1 -2 5 9 398.94 372.56 9.17 o
929 1 -1 5 9 86.58 83.66 5.94 o
930 1 0 5 9 0.38 0.98 4.30 <
931 1 1 5 9 159.03 158.94 4.00 o
932 1 2 5 9 37.99 33.11 2.54 o
933 1 -2 6 9 47.90 54.71 4.24 o
934 1 0 6 9 0.49 0.55 3.28 <
935 1 -2 -6 10 30.62 30.00 3.30 o
936 1 0 -6 10 30.58 28.62 4.43 o
937 1 2 -6 10 211.46 208.59 5.06 o
938 1 -3 -5 10 66.92 58.69 2.80 o
939 1 -2 -5 10 233.85 233.44 4.65 o
940 1 -1 -5 10 72.57 69.94 6.04 o
941 1 0 -5 10 40.81 48.38 5.74 o
942 1 1 -5 10 2.25 2.16 3.00 <
943 1 2 -5 10 32.97 38.54 3.32 o
944 1 3 -5 10 94.17 79.23 3.08 o
945 1 -5 -4 10 11.86 11.87 2.59 o
946 1 -3 -4 10 56.71 55.03 5.15 o
947 1 -1 -4 10 142.63 140.76 7.61 o
948 1 1 -4 10 336.79 307.29 8.92 o
949 1 3 -4 10 10.30 13.39 4.64 <
950 1 -5 -3 10 8.23 4.10 3.60 <
951 1 -4 -3 10 41.26 40.65 5.45 o
952 1 -3 -3 10 119.11 119.87 6.70 o
953 1 -2 -3 10 45.22 34.82 5.53 o
954 1 -1 -3 10 80.38 89.47 6.64 o
955 1 0 -3 10 2.80 4.67 5.14 <
956 1 1 -3 10 272.10 253.02 9.22 o
957 1 2 -3 10 122.97 116.16 7.57 o
958 1 3 -3 10 7.66 7.75 4.91 <
959 1 4 -3 10 1.08 0.27 3.81 <
960 1 -6 -2 10 70.86 74.06 3.48 o
961 1 -4 -2 10 105.69 111.51 4.70 o
962 1 0 -2 10 242.65 232.51 9.03 o
963 1 2 -2 10 102.52 102.30 7.35 o
964 1 4 -2 10 70.78 71.68 5.07 o
965 1 -6 -1 10 7.37 8.38 3.32 <
966 1 -5 -1 10 61.17 59.14 4.99 o
967 1 -4 -1 10 169.38 162.51 7.58 o
968 1 -3 -1 10 298.46 296.51 9.90 o
969 1 -2 -1 10 180.32 198.53 9.19 o
970 1 -1 -1 10 18.32 18.76 5.72 o
971 1 0 -1 10 331.16 323.05 10.38 o
972 1 1 -1 10 8.07 9.93 6.03 <
973 1 2 -1 10 0.20 2.52 3.63 <
974 1 3 -1 10 30.67 24.12 3.70 o
975 1 4 -1 10 180.14 193.33 4.30 o
976 1 -5 0 10 33.20 40.00 3.29 o
977 1 -3 0 10 68.10 67.01 7.15 o
978 1 -1 0 10 417.26 415.45 6.42 o
979 1 1 0 10 227.91 229.71 6.47 o
980 1 3 0 10 131.68 140.37 5.03 o
981 1 -6 1 10 72.89 67.94 4.10 o
982 1 -5 1 10 78.13 77.07 5.63 o
983 1 -4 1 10 177.99 186.59 8.36 o
984 1 -3 1 10 4.39 -1.06 5.67 <
985 1 -2 1 10 130.07 145.00 5.79 o
986 1 -1 1 10 265.46 260.31 6.81 o
987 1 0 1 10 7.27 12.57 3.28 o
988 1 1 1 10 173.55 162.63 5.99 o
989 1 2 1 10 48.63 45.37 4.29 o
990 1 3 1 10 166.98 179.87 7.82 o
991 1 4 1 10 57.49 62.24 4.94 o
992 1 -6 2 10 31.04 28.83 2.97 o
993 1 -4 2 10 0.29 -0.56 5.40 <
994 1 -2 2 10 64.27 69.15 4.93 o
995 1 0 2 10 176.91 205.02 9.34 o
996 1 2 2 10 96.46 104.55 7.42 o
997 1 4 2 10 29.71 19.46 3.57 o
998 1 -5 3 10 70.23 81.19 5.12 o
999 1 -4 3 10 15.35 11.97 4.99 <
1000 1 -3 3 10 5.23 4.41 5.27 <
1001 1 -2 3 10 407.13 419.80 7.82 o
1002 1 -1 3 10 61.17 67.71 4.37 o
1003 1 0 3 10 271.67 272.34 9.95 o
1004 1 1 3 10 0.41 3.16 3.23 <
1005 1 2 3 10 139.32 157.56 7.09 o
1006 1 3 3 10 84.03 88.19 3.41 o
1007 1 -5 4 10 0.20 -0.48 3.06 <
1008 1 -3 4 10 22.52 21.15 4.66 o
1009 1 -1 4 10 312.62 338.29 9.77 o
1010 1 1 4 10 33.73 37.62 5.13 o
1011 1 -4 5 10 40.09 32.70 2.99 o
1012 1 -3 5 10 50.05 0.44 2.47 <
1013 1 -2 5 10 6.08 7.14 3.57 <
1014 1 -1 5 10 100.46 113.53 5.47 o
1015 1 1 5 10 150.95 147.17 4.90 o
1016 1 0 -6 11 10.10 10.92 2.88 o
1017 1 -2 -5 11 61.12 62.00 4.02 o
1018 1 -1 -5 11 58.84 51.52 4.71 o
1019 1 0 -5 11 47.57 51.56 4.92 o
1020 1 1 -5 11 108.91 109.90 5.50 o
1021 1 2 -5 11 63.73 62.07 2.75 o
1022 1 -3 -4 11 66.27 70.12 4.64 o
1023 1 -1 -4 11 7.65 5.33 4.65 <
1024 1 1 -4 11 181.60 177.67 5.12 o
1025 1 3 -4 11 19.60 23.82 2.53 o
1026 1 -5 -3 11 0.29 -0.52 2.53 <
1027 1 -4 -3 11 168.51 177.63 6.36 o
1028 1 -3 -3 11 114.18 119.46 4.37 o
1029 1 -2 -3 11 146.34 128.67 7.16 o
1030 1 -1 -3 11 25.11 32.50 5.08 o
1031 1 0 -3 11 32.70 32.04 5.23 o
1032 1 1 -3 11 49.37 54.29 5.84 o
1033 1 2 -3 11 59.19 48.65 5.54 o
1034 1 3 -3 11 1.89 3.53 4.06 <
1035 1 4 -3 11 0.33 1.38 2.42 <
1036 1 -4 -2 11 123.86 126.58 4.29 o
1037 1 -2 -2 11 95.44 89.23 7.20 o
1038 1 0 -2 11 295.26 300.19 9.74 o
1039 1 2 -2 11 6.38 9.73 5.43 <
1040 1 4 -2 11 93.15 91.26 3.83 o
1041 1 -5 -1 11 100.07 102.99 4.73 o
1042 1 -4 -1 11 52.33 56.79 5.47 o
1043 1 -3 -1 11 123.59 115.00 7.24 o
1044 1 -2 -1 11 2.09 6.33 6.01 <
1045 1 -1 -1 11 27.98 29.21 5.70 o
1046 1 0 -1 11 209.43 207.38 8.97 o
1047 1 1 -1 11 155.19 150.85 8.18 o
1048 1 2 -1 11 10.93 5.97 5.25 <
1049 1 3 -1 11 0.13 -0.98 4.29 <
1050 1 -5 0 11 112.12 116.06 3.36 o
1051 1 -3 0 11 37.25 37.69 6.27 o
1052 1 -1 0 11 125.76 119.49 5.35 o
1053 1 1 0 11 54.92 61.33 3.57 o
1054 1 3 0 11 81.71 79.57 3.65 o
1055 1 -5 1 11 94.40 89.47 3.38 o
1056 1 -4 1 11 203.85 218.64 7.94 o
1057 1 -3 1 11 7.15 5.68 5.46 <
1058 1 -2 1 11 38.88 41.80 4.41 o
1059 1 -1 1 11 241.11 241.56 6.47 o
1060 1 0 1 11 20.52 27.05 3.99 o
1061 1 1 1 11 50.65 38.07 6.02 o
1062 1 2 1 11 39.27 37.12 5.69 o
1063 1 3 1 11 323.55 342.81 8.15 o
1064 1 -4 2 11 0.99 -0.10 4.59 <
1065 1 -2 2 11 220.52 209.45 8.21 o
1066 1 0 2 11 172.85 184.99 8.33 o
1067 1 2 2 11 65.25 67.22 5.87 o
1068 1 -5 3 11 59.57 71.17 3.86 o
1069 1 -4 3 11 18.48 14.18 4.07 o
1070 1 -3 3 11 0.60 -0.22 4.43 <
1071 1 -2 3 11 103.74 102.39 5.85 o
1072 1 -1 3 11 0.20 1.56 5.26 <
1073 1 0 3 11 3.26 2.62 5.12 <
1074 1 1 3 11 137.47 120.36 6.40 o
1075 1 2 3 11 187.11 181.82 3.86 o
1076 1 -3 4 11 98.19 105.50 4.57 o
1077 1 1 4 11 60.89 51.49 4.24 o
1078 1 -1 5 11 55.24 48.82 3.45 o
1079 1 0 5 11 32.87 29.71 2.96 o
1080 1 -1 -5 12 1.17 1.70 1.85 <
1081 1 0 -5 12 28.43 25.27 3.31 o
1082 1 1 -5 12 38.36 31.59 3.09 o
1083 1 -3 -4 12 64.50 68.17 3.48 o
1084 1 -1 -4 12 12.37 6.84 2.30 <
1085 1 1 -4 12 93.16 94.01 3.45 o
1086 1 -4 -3 12 20.03 16.80 2.92 o
1087 1 -3 -3 12 119.82 128.09 3.74 o
1088 1 -2 -3 12 11.02 10.27 4.59 <
1089 1 -1 -3 12 75.29 72.00 4.02 o
1090 1 0 -3 12 129.92 120.99 4.25 o
1091 1 1 -3 12 164.31 167.63 6.57 o
1092 1 2 -3 12 9.93 12.44 3.91 o
1093 1 3 -3 12 0.11 -0.41 1.83 <
1094 1 -4 -2 12 42.31 38.85 2.71 o
1095 1 -2 -2 12 3.62 3.36 4.96 <
1096 1 0 -2 12 147.71 144.62 7.14 o
1097 1 2 -2 12 48.36 47.53 3.21 o
1098 1 -4 -1 12 113.79 125.45 3.85 o
1099 1 -3 -1 12 20.08 18.59 5.08 o
1100 1 -2 -1 12 84.46 102.45 6.97 o
1101 1 -1 -1 12 85.80 94.37 7.16 o
1102 1 0 -1 12 103.59 106.77 4.91 o
1103 1 1 -1 12 4.25 4.73 3.22 <
1104 1 2 -1 12 3.17 2.00 4.20 <
1105 1 3 -1 12 53.56 54.84 3.67 o
1106 1 -5 0 12 68.48 63.40 3.33 o
1107 1 -3 0 12 11.40 10.96 5.11 <
1108 1 -1 0 12 174.92 183.12 5.38 o
1109 1 1 0 12 22.21 30.29 3.54 o
1110 1 3 0 12 65.98 69.00 3.56 o
1111 1 -5 1 12 29.57 29.47 2.86 o
1112 1 -4 1 12 38.20 36.70 4.67 o
1113 1 -3 1 12 28.52 34.67 5.46 o
1114 1 -2 1 12 32.15 27.47 5.52 o
1115 1 -1 1 12 131.59 132.26 4.95 o
1116 1 0 1 12 30.72 29.53 3.43 o
1117 1 1 1 12 1.35 2.25 4.62 <
1118 1 2 1 12 9.81 12.47 3.95 o
1119 1 3 1 12 43.61 35.78 3.09 o
1120 1 -4 2 12 0.10 2.60 3.51 <
1121 1 -2 2 12 40.70 45.72 5.21 o
1122 1 0 2 12 14.02 15.76 5.03 o
1123 1 2 2 12 84.56 89.49 4.58 o
1124 1 -4 3 12 1.84 1.42 2.77 <
1125 1 -3 3 12 30.96 24.95 3.75 o
1126 1 -2 3 12 138.58 142.40 5.03 o
1127 1 0 3 12 13.72 6.95 4.33 <
1128 1 1 3 12 16.53 14.71 3.74 o
1129 1 -1 4 12 47.35 35.41 3.04 o
1130 1 -1 -4 13 5.36 5.87 2.75 <
1131 1 -3 -3 13 0.08 -0.23 2.44 <
1132 1 -2 -3 13 14.66 19.25 2.41 o
1133 1 -1 -3 13 119.55 124.37 5.51 o
1134 1 0 -3 13 21.86 18.18 2.59 o
1135 1 1 -3 13 50.01 46.43 2.63 o
1136 1 -2 -2 13 6.98 4.40 4.04 <
1137 1 0 -2 13 150.43 153.73 4.12 o
1138 1 -4 -1 13 69.97 69.35 3.39 o
1139 1 -3 -1 13 27.84 35.22 4.32 o
1140 1 -2 -1 13 66.55 66.26 5.33 o
1141 1 -1 -1 13 56.24 49.24 5.25 o
1142 1 0 -1 13 156.35 168.74 6.20 o
1143 1 1 -1 13 22.77 -2.22 2.37 <
1144 1 -3 0 13 18.93 17.31 4.14 o
1145 1 -1 0 13 114.90 114.82 6.10 o
1146 1 1 0 13 12.65 11.55 3.34 o
1147 1 -4 1 13 1.18 2.62 2.75 <
1148 1 -3 1 13 54.16 62.58 4.44 o
1149 1 -2 1 13 91.85 107.84 5.42 o
1150 1 -1 1 13 127.87 130.14 5.37 o
1151 1 0 1 13 0.33 0.35 3.75 <
1152 1 1 1 13 4.77 5.61 3.29 <
1153 1 -2 2 13 77.39 82.81 4.11 o
1154 1 0 2 13 26.57 27.80 3.94 o
1155 1 -2 -2 14 17.37 15.79 1.87 o
1156 1 -2 -1 14 213.29 246.24 5.47 o
1157 1 -1 -1 14 12.66 11.00 3.01 o
1158 1 -1 0 14 147.83 155.09 4.37 o
1159 2 1 0 0 12.86 13.99 5.04 <
1160 2 3 0 0 75.60 74.13 10.41 o
1161 2 5 0 0 17.56 14.29 6.67 <
1162 2 7 0 0 12.82 1.02 4.46 <
1163 2 -8 1 0 17.75 16.19 2.73 o
1164 2 -4 1 0 61.42 51.32 11.39 o
1165 2 -3 1 0 8.90 10.36 9.35 <
1166 2 -2 1 0 117.80 106.43 9.71 o
1167 2 -1 1 0 0.20 0.16 3.02 <
1168 2 0 1 0 263.18 249.47 5.04 o
1169 2 1 1 0 333.68 372.16 6.45 o
1170 2 2 1 0 131.75 139.41 5.58 o
1171 2 3 1 0 87.90 82.19 10.74 o
1172 2 5 1 0 1.38 2.57 11.91 <
1173 2 -4 2 0 87.13 80.39 12.62 o
1174 2 -2 2 0 82.02 75.27 4.53 o
1175 2 0 2 0 993.13 1032.45 13.29 o
1176 2 2 2 0 47.48 47.10 5.55 o
1177 2 4 2 0 20.27 21.88 4.42 o
1178 2 -5 3 0 16.00 13.50 7.26 <
1179 2 -3 3 0 167.39 164.45 12.70 o
1180 2 -2 3 0 76.70 73.97 5.32 o
1181 2 -1 3 0 605.05 603.13 11.01 o
1182 2 0 3 0 21.28 24.15 5.11 o
1183 2 1 3 0 16.45 11.67 8.60 <
1184 2 2 3 0 0.52 -0.03 4.34 <
1185 2 -5 4 0 19.49 21.83 4.07 o
1186 2 -1 4 0 53.79 62.95 11.25 o
1187 2 1 4 0 37.89 33.52 10.87 o
1188 2 3 4 0 20.90 26.21 3.97 o
1189 2 -1 5 0 35.48 36.07 11.75 o
1190 2 1 5 0 1.60 -0.12 4.77 <
1191 2 -4 6 0 32.30 30.33 6.17 o
1192 2 -2 6 0 0.18 0.18 4.27 <
1193 2 0 6 0 1.55 1.19 3.18 <
1194 2 2 6 0 12.49 13.59 4.24 o
1195 2 4 6 0 15.14 15.22 5.19 <
1196 2 2 7 0 12.06 15.45 5.06 o
1197 2 -3 8 0 0.16 -1.27 4.20 <
1198 2 -1 8 0 0.08 0.32 4.13 <
1199 2 1 8 0 20.32 13.64 3.97 o
1200 2 -1 -8 1 21.29 23.93 5.10 o
1201 2 1 -8 1 18.61 14.71 4.59 o
1202 2 3 -8 1 11.18 6.50 4.35 <
1203 2 -2 -7 1 7.66 9.07 5.23 <
1204 2 5 -7 1 0.18 0.82 3.30 <
1205 2 -2 -6 1 52.74 56.31 4.78 o
1206 2 0 -6 1 13.40 14.80 3.09 o
1207 2 2 -6 1 5.93 10.85 5.97 <
1208 2 4 -6 1 0.53 2.01 3.76 <
1209 2 -3 -5 1 45.22 48.12 6.75 o
1210 2 -1 -5 1 2.89 -0.60 4.81 <
1211 2 -3 -4 1 56.98 57.02 4.35 o
1212 2 -1 -4 1 1.87 -3.27 9.53 <
1213 2 1 -4 1 55.72 51.85 10.58 o
1214 2 5 -4 1 18.43 22.20 4.00 o
1215 2 7 -4 1 42.75 35.09 3.88 o
1216 2 -2 -3 1 2.01 4.48 8.54 <
1217 2 -1 -3 1 35.59 37.40 9.85 o
1218 2 0 -3 1 12.03 13.06 8.71 <
1219 2 1 -3 1 6.41 9.51 8.05 <
1220 2 2 -3 1 2.32 3.96 6.02 <
1221 2 3 -3 1 74.17 61.91 9.38 o
1222 2 5 -3 1 4.35 -2.86 15.18 <
1223 2 -6 -2 1 12.46 13.51 5.10 <
1224 2 -4 -2 1 115.70 141.51 13.96 o
1225 2 -2 -2 1 25.43 20.23 4.88 o
1226 2 0 -2 1 98.47 84.89 3.32 o
1227 2 2 -2 1 66.91 56.31 5.26 o
1228 2 4 -2 1 93.73 112.35 13.25 o
1229 2 6 -2 1 48.36 46.21 6.51 o
1230 2 -5 -1 1 3.14 10.38 5.06 <
1231 2 -3 -1 1 2.49 5.70 7.97 <
1232 2 -2 -1 1 132.62 135.44 5.89 o
1233 2 -1 -1 1 0.08 1.14 3.61 <
1234 2 1 -1 1 305.47 300.51 5.84 o
1235 2 2 -1 1 557.06 550.39 8.48 o
1236 2 3 -1 1 135.41 121.47 11.93 o
1237 2 4 -1 1 1.19 -0.53 9.67 <
1238 2 6 -1 1 3.43 3.11 5.91 <
1239 2 -7 0 1 23.35 22.70 4.92 o
1240 2 -5 0 1 43.35 55.31 7.44 o
1241 2 -3 0 1 26.30 20.30 9.41 <
1242 2 -1 0 1 130.99 126.50 6.53 o
1243 2 1 0 1 226.20 242.94 8.84 o
1244 2 3 0 1 429.80 524.70 19.47 o
1245 2 5 0 1 45.34 52.39 13.77 o
1246 2 7 0 1 18.24 19.78 4.75 o
1247 2 -6 1 1 0.51 -1.10 5.52 <
1248 2 -4 1 1 18.84 11.01 9.88 <
1249 2 -3 1 1 145.40 147.25 12.80 o
1250 2 -2 1 1 20.16 15.18 7.50 <
1251 2 -1 1 1 406.32 426.76 10.61 o
1252 2 0 1 1 23.31 20.35 5.14 o
1253 2 1 1 1 244.81 235.73 6.23 o
1254 2 2 1 1 0.10 0.20 7.48 <
1255 2 3 1 1 39.01 38.16 9.79 o
1256 2 5 1 1 1.34 -2.70 11.95 <
1257 2 7 1 1 17.02 16.94 4.03 o
1258 2 -6 2 1 4.68 5.12 5.84 <
1259 2 -4 2 1 41.17 41.41 11.41 o
1260 2 -2 2 1 19.98 11.10 7.30 <
1261 2 0 2 1 129.73 123.57 6.05 o
1262 2 2 2 1 317.41 331.43 13.84 o
1263 2 4 2 1 19.86 19.72 4.64 o
1264 2 6 2 1 35.58 29.61 5.18 o
1265 2 -5 3 1 4.91 4.71 12.49 <
1266 2 -3 3 1 8.34 6.05 8.47 <
1267 2 -2 3 1 75.49 67.05 8.66 o
1268 2 -1 3 1 42.80 34.09 5.57 o
1269 2 0 3 1 322.43 339.87 9.98 o
1270 2 1 3 1 28.78 27.74 8.67 o
1271 2 2 3 1 132.31 130.35 7.46 o
1272 2 -5 4 1 23.29 23.06 4.18 o
1273 2 -1 4 1 87.38 77.95 12.07 o
1274 2 1 4 1 111.02 117.67 8.55 o
1275 2 3 4 1 27.49 29.08 3.92 o
1276 2 1 5 1 21.87 20.74 5.09 o
1277 2 -4 6 1 19.06 17.21 6.16 <
1278 2 -2 6 1 44.38 48.68 5.02 o
1279 2 0 6 1 73.25 75.10 3.91 o
1280 2 2 6 1 9.24 8.75 4.03 <
1281 2 4 6 1 40.38 36.64 5.21 o
1282 2 -3 8 1 8.69 7.44 4.22 <
1283 2 -1 8 1 0.67 0.77 3.92 <
1284 2 1 8 1 1.97 3.57 3.88 <
1285 2 -1 -8 2 10.03 9.37 4.98 <
1286 2 1 -8 2 4.25 6.25 3.48 <
1287 2 3 -8 2 10.59 10.19 4.17 <
1288 2 5 -7 2 0.67 0.30 2.92 <
1289 2 -2 -6 2 24.50 26.50 4.46 o
1290 2 0 -6 2 27.57 27.43 3.31 o
1291 2 2 -6 2 29.32 32.00 3.41 o
1292 2 4 -6 2 5.43 3.22 3.83 <
1293 2 -3 -5 2 25.83 28.28 4.37 o
1294 2 -1 -5 2 7.18 7.51 5.14 <
1295 2 -3 -4 2 40.18 44.87 3.37 o
1296 2 -1 -4 2 9.69 10.22 10.09 <
1297 2 1 -4 2 18.13 15.36 8.93 <
1298 2 5 -4 2 45.19 43.87 4.37 o
1299 2 7 -4 2 12.05 8.54 2.97 <
1300 2 -4 -3 2 132.34 141.40 7.40 o
1301 2 -2 -3 2 24.64 20.47 8.14 <
1302 2 -1 -3 2 11.28 9.28 8.75 <
1303 2 0 -3 2 124.48 131.12 12.07 o
1304 2 1 -3 2 69.38 57.40 9.27 o
1305 2 2 -3 2 3.14 3.81 5.77 <
1306 2 3 -3 2 0.18 -1.28 7.72 <
1307 2 5 -3 2 25.82 18.56 5.88 o
1308 2 -4 -2 2 24.59 20.80 9.72 <
1309 2 -2 -2 2 0.15 1.46 4.38 <
1310 2 0 -2 2 67.05 69.83 8.29 o
1311 2 2 -2 2 4.96 4.50 4.39 <
1312 2 4 -2 2 64.81 61.02 11.87 o
1313 2 6 -2 2 80.59 68.11 7.02 o
1314 2 -5 -1 2 196.31 198.95 18.19 o
1315 2 -3 -1 2 0.82 1.81 4.15 <
1316 2 -2 -1 2 2.09 3.87 4.68 <
1317 2 -1 -1 2 68.73 67.23 4.72 o
1318 2 0 -1 2 0.83 3.60 2.71 <
1319 2 1 -1 2 0.05 0.05 5.61 <
1320 2 2 -1 2 47.57 35.17 4.69 o
1321 2 3 -1 2 362.67 367.58 17.08 o
1322 2 4 -1 2 45.50 39.97 10.99 o
1323 2 6 -1 2 6.81 4.61 5.96 <
1324 2 -7 0 2 14.88 12.65 4.55 <
1325 2 -5 0 2 115.93 114.08 8.85 o
1326 2 -3 0 2 2.93 5.51 8.68 <
1327 2 -1 0 2 124.84 120.68 7.80 o
1328 2 1 0 2 0.53 3.59 6.42 <
1329 2 3 0 2 107.46 111.37 12.27 o
1330 2 5 0 2 101.07 82.59 15.03 o
1331 2 7 0 2 4.76 5.92 4.35 <
1332 2 -6 1 2 20.13 15.54 5.65 <
1333 2 -4 1 2 0.47 1.62 10.00 <
1334 2 -2 1 2 133.31 126.37 10.26 o
1335 2 -1 1 2 16.86 15.32 6.96 <
1336 2 0 1 2 372.18 378.87 11.60 o
1337 2 1 1 2 419.99 396.51 13.24 o
1338 2 2 1 2 314.76 359.79 14.76 o
1339 2 3 1 2 3.54 3.87 8.25 <
1340 2 5 1 2 19.28 7.51 13.88 <
1341 2 7 1 2 1.46 0.88 3.47 <
1342 2 -8 2 2 19.25 15.12 2.73 o
1343 2 -6 2 2 80.15 78.98 7.28 o
1344 2 -4 2 2 1.57 -1.93 10.07 <
1345 2 -2 2 2 8.42 2.23 7.61 <
1346 2 0 2 2 14.64 11.43 7.29 <
1347 2 2 2 2 317.11 344.05 15.08 o
1348 2 4 2 2 42.45 39.23 5.14 o
1349 2 6 2 2 38.15 36.83 5.05 o
1350 2 -3 3 2 39.64 37.69 9.47 o
1351 2 -2 3 2 22.39 26.70 8.08 o
1352 2 -1 3 2 162.75 172.43 11.40 o
1353 2 0 3 2 79.27 64.26 9.22 o
1354 2 1 3 2 35.45 36.16 8.91 o
1355 2 2 3 2 6.58 1.10 7.14 <
1356 2 3 3 2 170.94 191.20 8.73 o
1357 2 -7 4 2 8.09 7.67 3.32 <
1358 2 -5 4 2 20.45 18.17 5.88 o
1359 2 -3 4 2 40.32 33.31 7.15 o
1360 2 -1 4 2 41.59 35.21 8.48 o
1361 2 1 4 2 176.69 188.29 13.57 o
1362 2 3 4 2 5.18 11.18 6.21 <
1363 2 -1 5 2 43.05 47.31 6.45 o
1364 2 1 5 2 35.61 39.62 6.49 o
1365 2 3 5 2 4.43 4.21 5.89 <
1366 2 -4 6 2 17.22 18.05 6.30 <
1367 2 -2 6 2 3.25 2.66 5.74 <
1368 2 0 6 2 60.89 63.05 5.14 o
1369 2 2 6 2 8.79 10.14 6.11 <
1370 2 4 6 2 45.11 38.02 4.82 o
1371 2 -3 8 2 9.08 8.93 4.15 <
1372 2 -1 8 2 47.16 24.98 3.84 o
1373 2 1 8 2 3.47 4.24 3.52 <
1374 2 -1 -8 3 21.14 20.78 4.93 o
1375 2 1 -8 3 5.51 5.61 3.36 <
1376 2 3 -8 3 21.62 18.89 4.25 o
1377 2 -4 -6 3 7.88 2.80 4.06 <
1378 2 -2 -6 3 14.61 13.49 4.19 o
1379 2 0 -6 3 45.27 42.44 4.36 o
1380 2 2 -6 3 24.75 26.51 3.23 o
1381 2 4 -6 3 0.19 0.72 3.44 <
1382 2 -3 -5 3 24.44 29.28 5.94 o
1383 2 -1 -5 3 3.04 3.19 5.14 <
1384 2 -5 -4 3 21.55 20.25 5.65 o
1385 2 -3 -4 3 29.10 28.83 3.14 o
1386 2 -1 -4 3 145.19 145.81 14.44 o
1387 2 1 -4 3 53.94 51.66 10.77 o
1388 2 3 -4 3 0.20 0.89 3.29 <
1389 2 5 -4 3 13.53 12.84 3.76 o
1390 2 -2 -3 3 2.65 3.00 9.43 <
1391 2 0 -3 3 79.94 84.61 10.43 o
1392 2 1 -3 3 37.28 31.71 8.92 o
1393 2 5 -3 3 11.76 15.28 5.54 <
1394 2 7 -3 3 3.82 4.68 3.48 <
1395 2 -6 -2 3 3.61 0.94 3.45 <
1396 2 -4 -2 3 20.72 25.38 4.52 o
1397 2 -2 -2 3 49.46 38.08 5.11 o
1398 2 0 -2 3 62.58 49.32 8.30 o
1399 2 2 -2 3 6.72 7.80 4.58 <
1400 2 4 -2 3 68.04 69.19 6.70 o
1401 2 6 -2 3 5.59 7.52 3.37 <
1402 2 -5 -1 3 74.46 63.15 13.78 o
1403 2 -3 -1 3 2.72 0.20 4.82 <
1404 2 -2 -1 3 111.33 113.60 9.60 o
1405 2 -1 -1 3 23.59 20.15 5.67 o
1406 2 0 -1 3 173.63 168.62 6.59 o
1407 2 1 -1 3 11.41 10.25 6.50 <
1408 2 2 -1 3 0.39 0.91 4.41 <
1409 2 3 -1 3 135.72 147.65 13.48 o
1410 2 4 -1 3 40.31 36.69 11.94 o
1411 2 6 -1 3 1.62 0.15 5.87 <
1412 2 -7 0 3 16.51 13.35 4.17 o
1413 2 -5 0 3 2.92 -0.55 6.56 <
1414 2 -1 0 3 81.29 70.07 8.15 o
1415 2 1 0 3 8.89 14.84 7.55 <
1416 2 3 0 3 164.04 179.92 14.19 o
1417 2 5 0 3 63.71 64.24 5.47 o
1418 2 7 0 3 10.96 12.28 4.01 o
1419 2 -6 1 3 170.88 158.01 8.21 o
1420 2 -4 1 3 15.67 17.69 10.42 <
1421 2 -2 1 3 6.56 5.58 7.95 <
1422 2 -1 1 3 125.67 104.32 9.54 o
1423 2 0 1 3 2.75 4.44 7.31 <
1424 2 1 1 3 11.48 4.10 8.02 <
1425 2 2 1 3 314.30 338.87 15.81 o
1426 2 3 1 3 75.36 83.22 11.69 o
1427 2 7 1 3 1.02 1.65 3.17 <
1428 2 -8 2 3 5.40 4.37 2.59 <
1429 2 -6 2 3 5.86 5.11 5.59 <
1430 2 -4 2 3 1.07 3.38 10.52 <
1431 2 -2 2 3 12.44 8.40 7.81 <
1432 2 0 2 3 0.53 0.46 7.83 <
1433 2 2 2 3 115.96 108.39 11.77 o
1434 2 4 2 3 116.97 111.88 6.40 o
1435 2 6 2 3 2.24 1.53 3.16 <
1436 2 -7 3 3 36.57 36.45 4.96 o
1437 2 -5 3 3 3.90 10.06 14.16 <
1438 2 -3 3 3 50.97 45.06 10.45 o
1439 2 -2 3 3 60.30 56.46 9.85 o
1440 2 -1 3 3 19.50 17.73 8.28 <
1441 2 0 3 3 131.64 115.76 11.52 o
1442 2 1 3 3 230.40 237.85 15.10 o
1443 2 2 3 3 28.73 21.24 10.33 <
1444 2 6 3 3 0.05 0.25 4.05 <
1445 2 -7 4 3 20.83 18.18 4.07 o
1446 2 -5 4 3 7.52 5.80 3.85 <
1447 2 -3 4 3 0.64 0.17 5.07 <
1448 2 -1 4 3 1.13 1.98 8.24 <
1449 2 1 4 3 97.65 96.14 12.28 o
1450 2 3 4 3 60.96 64.22 7.90 o
1451 2 5 4 3 20.36 18.52 4.99 o
1452 2 -2 5 3 27.32 35.08 6.27 o
1453 2 -1 5 3 54.26 50.87 6.05 o
1454 2 1 5 3 3.79 4.79 4.15 <
1455 2 3 5 3 7.99 8.89 5.64 <
1456 2 5 5 3 0.16 -1.56 3.35 <
1457 2 -6 6 3 0.01 0.81 2.60 <
1458 2 -4 6 3 6.20 2.24 3.49 <
1459 2 -2 6 3 1.44 0.76 5.87 <
1460 2 0 6 3 44.04 51.10 6.89 o
1461 2 2 6 3 8.74 10.99 5.80 <
1462 2 4 6 3 38.31 24.12 2.45 o
1463 2 -3 8 3 2.76 3.02 3.58 <
1464 2 1 8 3 2.09 3.97 3.22 <
1465 2 -1 -8 4 0.32 1.12 4.23 <
1466 2 1 -8 4 9.09 8.09 3.25 <
1467 2 3 -8 4 18.69 16.45 3.70 o
1468 2 -4 -6 4 1.20 5.26 3.96 <
1469 2 -2 -6 4 20.20 21.10 6.21 o
1470 2 0 -6 4 19.59 20.38 4.29 o
1471 2 2 -6 4 81.78 80.02 3.73 o
1472 2 4 -6 4 5.84 6.62 3.51 <
1473 2 -3 -5 4 7.22 3.11 5.03 <
1474 2 -1 -5 4 42.97 40.11 4.30 o
1475 2 6 -5 4 22.27 18.88 3.69 o
1476 2 -5 -4 4 1.77 12.21 5.44 <
1477 2 -3 -4 4 15.03 17.78 3.15 o
1478 2 -1 -4 4 116.36 119.85 14.75 o
1479 2 1 -4 4 77.35 75.16 11.99 o
1480 2 3 -4 4 5.43 5.57 3.64 <
1481 2 5 -4 4 1.12 2.56 5.27 <
1482 2 -4 -3 4 74.61 74.82 6.62 o
1483 2 -2 -3 4 11.81 8.10 9.10 <
1484 2 0 -3 4 267.59 260.58 15.59 o
1485 2 1 -3 4 131.39 125.36 12.05 o
1486 2 5 -3 4 19.79 17.50 3.91 o
1487 2 7 -3 4 0.87 2.78 2.76 <
1488 2 -6 -2 4 0.53 0.95 3.49 <
1489 2 -4 -2 4 23.46 22.01 3.78 o
1490 2 -2 -2 4 454.38 494.01 11.54 o
1491 2 0 -2 4 24.41 23.78 8.37 <
1492 2 2 -2 4 39.64 32.94 5.40 o
1493 2 4 -2 4 6.93 3.27 5.70 <
1494 2 6 -2 4 20.29 22.60 3.49 o
1495 2 -5 -1 4 42.24 43.76 5.78 o
1496 2 -3 -1 4 9.54 17.68 5.59 o
1497 2 -2 -1 4 63.66 54.89 8.43 o
1498 2 -1 -1 4 412.06 419.23 12.35 o
1499 2 0 -1 4 39.67 39.45 5.86 o
1500 2 1 -1 4 15.59 16.69 4.66 o
1501 2 2 -1 4 1.35 3.08 8.20 <
1502 2 3 -1 4 73.31 81.99 11.93 o
1503 2 4 -1 4 55.59 56.68 6.91 o
1504 2 6 -1 4 18.61 15.60 5.75 <
1505 2 -7 0 4 6.50 6.86 4.83 <
1506 2 -5 0 4 32.25 40.10 7.09 o
1507 2 -3 0 4 225.15 239.85 15.13 o
1508 2 -1 0 4 22.96 17.02 7.53 <
1509 2 1 0 4 16.66 18.80 5.60 o
1510 2 3 0 4 12.63 10.31 9.16 <
1511 2 5 0 4 22.73 32.47 5.30 o
1512 2 7 0 4 14.21 12.74 3.65 o
1513 2 -8 1 4 0.05 1.39 2.49 <
1514 2 -6 1 4 27.24 24.11 5.56 o
1515 2 -4 1 4 0.26 0.16 11.25 <
1516 2 -3 1 4 150.34 156.65 14.45 o
1517 2 -2 1 4 133.51 132.46 11.88 o
1518 2 -1 1 4 18.61 16.75 8.43 <
1519 2 0 1 4 0.04 -0.49 7.95 <
1520 2 1 1 4 11.36 7.52 6.10 <
1521 2 2 1 4 238.77 251.08 15.63 o
1522 2 3 1 4 70.52 62.10 11.82 o
1523 2 5 1 4 15.81 14.98 5.48 <
1524 2 7 1 4 13.76 15.19 2.99 o
1525 2 -6 2 4 0.19 2.53 5.40 <
1526 2 -4 2 4 26.93 29.13 11.58 <
1527 2 -2 2 4 102.88 98.85 11.28 o
1528 2 0 2 4 2.89 2.94 8.42 <
1529 2 2 2 4 91.76 104.89 12.63 o
1530 2 4 2 4 57.44 63.34 6.00 o
1531 2 6 2 4 20.61 19.11 3.24 o
1532 2 -7 3 4 49.38 41.53 3.35 o
1533 2 -5 3 4 8.37 8.27 5.73 <
1534 2 -3 3 4 3.68 0.19 9.62 <
1535 2 -2 3 4 15.79 14.83 9.12 <
1536 2 -1 3 4 3.49 3.49 9.11 <
1537 2 0 3 4 16.73 11.38 8.97 <
1538 2 1 3 4 159.36 164.04 14.37 o
1539 2 2 3 4 32.31 31.82 11.36 <
1540 2 4 3 4 20.40 21.18 6.09 o
1541 2 6 3 4 7.84 9.22 3.72 <
1542 2 -7 4 4 0.07 -0.26 3.40 <
1543 2 -5 4 4 14.39 11.80 4.01 <
1544 2 -3 4 4 28.75 32.25 5.84 o
1545 2 -1 4 4 2.97 4.49 9.22 <
1546 2 1 4 4 77.83 70.68 7.10 o
1547 2 3 4 4 52.60 45.12 4.40 o
1548 2 5 4 4 2.99 2.06 4.17 <
1549 2 -6 5 4 15.81 14.36 4.39 o
1550 2 -4 5 4 7.70 6.85 5.21 <
1551 2 -2 5 4 5.07 5.33 3.73 <
1552 2 -1 5 4 21.17 24.46 5.67 o
1553 2 1 5 4 22.36 18.58 6.06 o
1554 2 3 5 4 21.17 22.67 3.91 o
1555 2 5 5 4 0.42 1.25 2.93 <
1556 2 -6 6 4 0.87 -1.18 2.54 <
1557 2 -4 6 4 0.65 -1.15 3.48 <
1558 2 -2 6 4 7.44 8.75 3.87 <
1559 2 0 6 4 19.56 20.91 5.96 o
1560 2 2 6 4 34.88 25.40 5.86 o
1561 2 -2 7 4 14.19 13.15 5.24 <
1562 2 2 7 4 6.46 3.67 4.23 <
1563 2 3 7 4 1.95 3.96 2.84 <
1564 2 -3 8 4 3.06 -0.60 3.13 <
1565 2 1 8 4 12.73 18.96 2.90 o
1566 2 -1 -8 5 5.85 5.97 3.84 <
1567 2 1 -8 5 27.51 23.08 2.96 o
1568 2 3 -8 5 3.47 1.02 2.83 <
1569 2 1 -7 5 0.11 1.14 4.81 <
1570 2 -4 -6 5 3.57 3.36 2.65 <
1571 2 -2 -6 5 7.55 5.82 5.82 <
1572 2 0 -6 5 47.11 49.45 4.57 o
1573 2 2 -6 5 22.77 21.82 5.98 o
1574 2 4 -6 5 14.86 11.68 3.29 o
1575 2 -3 -5 5 3.09 3.53 5.24 <
1576 2 -2 -5 5 4.62 6.98 14.23 <
1577 2 -1 -5 5 31.68 29.60 5.69 o
1578 2 4 -5 5 2.21 0.62 5.26 <
1579 2 6 -5 5 20.56 18.58 3.26 o
1580 2 -5 -4 5 3.27 3.67 5.20 <
1581 2 -3 -4 5 0.08 14.01 5.18 <
1582 2 -1 -4 5 80.20 79.97 13.84 o
1583 2 1 -4 5 199.05 224.44 16.57 o
1584 2 3 -4 5 55.41 54.42 4.19 o
1585 2 5 -4 5 2.39 0.56 5.20 <
1586 2 -4 -3 5 13.42 12.33 3.79 o
1587 2 -2 -3 5 54.54 47.54 11.06 o
1588 2 -1 -3 5 27.37 30.50 10.89 <
1589 2 0 -3 5 184.25 178.15 14.39 o
1590 2 1 -3 5 34.09 34.29 9.88 o
1591 2 3 -3 5 3.21 7.36 5.14 <
1592 2 5 -3 5 24.20 21.80 3.92 o
1593 2 -6 -2 5 1.31 3.90 3.49 <
1594 2 -4 -2 5 0.71 0.32 3.72 <
1595 2 -2 -2 5 106.37 104.83 11.93 o
1596 2 0 -2 5 278.09 304.11 15.66 o
1597 2 2 -2 5 48.73 48.22 6.14 o
1598 2 4 -2 5 0.03 -1.58 6.12 <
1599 2 6 -2 5 26.55 30.85 3.33 o
1600 2 -5 -1 5 85.06 79.44 4.71 o
1601 2 -4 -1 5 94.64 100.42 6.66 o
1602 2 -3 -1 5 32.54 38.61 9.04 o
1603 2 -2 -1 5 35.23 28.12 8.29 o
1604 2 -1 -1 5 429.89 435.77 13.82 o
1605 2 0 -1 5 143.32 146.31 8.90 o
1606 2 1 -1 5 32.90 36.75 7.15 o
1607 2 2 -1 5 1.83 0.88 5.21 <
1608 2 3 -1 5 52.86 39.77 10.44 o
1609 2 4 -1 5 0.82 -0.40 6.60 <
1610 2 6 -1 5 2.38 4.65 5.01 <
1611 2 -7 0 5 0.04 -0.64 4.60 <
1612 2 -5 0 5 1.91 2.56 13.88 <
1613 2 -3 0 5 243.51 246.02 15.80 o
1614 2 -1 0 5 86.62 78.46 9.58 o
1615 2 1 0 5 235.41 280.81 13.97 o
1616 2 3 0 5 11.91 11.42 10.08 <
1617 2 5 0 5 38.54 38.46 5.59 o
1618 2 7 0 5 8.28 8.68 2.80 o
1619 2 -6 1 5 74.53 66.95 4.67 o
1620 2 -4 1 5 0.55 -0.31 10.82 <
1621 2 -3 1 5 29.90 18.89 10.15 <
1622 2 -2 1 5 331.22 321.93 16.32 o
1623 2 -1 1 5 38.16 28.14 9.04 o
1624 2 0 1 5 25.21 25.55 8.62 <
1625 2 1 1 5 0.51 1.99 8.70 <
1626 2 2 1 5 71.12 82.96 8.65 o
1627 2 3 1 5 25.21 32.00 11.07 <
1628 2 4 1 5 15.85 19.06 13.29 <
1629 2 5 1 5 21.47 23.78 5.25 o
1630 2 -6 2 5 8.02 7.50 3.84 <
1631 2 -4 2 5 122.06 105.80 7.93 o
1632 2 -2 2 5 12.10 10.22 9.35 <
1633 2 0 2 5 138.15 145.03 13.34 o
1634 2 2 2 5 2.93 0.12 10.17 <
1635 2 4 2 5 48.16 46.42 6.22 o
1636 2 6 2 5 22.69 24.45 2.83 o
1637 2 -7 3 5 45.07 36.09 3.03 o
1638 2 -5 3 5 1.92 -0.01 3.84 <
1639 2 -4 3 5 51.43 45.40 13.82 o
1640 2 -3 3 5 140.30 127.96 7.77 o
1641 2 -2 3 5 3.76 0.11 10.28 <
1642 2 -1 3 5 5.96 4.94 10.10 <
1643 2 0 3 5 31.96 28.87 10.49 <
1644 2 1 3 5 147.55 162.20 15.71 o
1645 2 2 3 5 50.75 46.94 7.19 o
1646 2 3 3 5 4.19 2.92 12.78 <
1647 2 4 3 5 9.36 12.17 5.46 <
1648 2 6 3 5 10.66 10.29 3.06 o
1649 2 -7 4 5 0.16 2.40 3.13 <
1650 2 -5 4 5 22.35 20.41 3.97 o
1651 2 -3 4 5 22.84 26.63 6.37 o
1652 2 -1 4 5 9.45 9.15 5.89 <
1653 2 1 4 5 33.69 35.08 6.69 o
1654 2 3 4 5 81.33 85.45 4.78 o
1655 2 5 4 5 27.00 26.16 4.19 o
1656 2 -6 5 5 0.16 -2.52 3.81 <
1657 2 -4 5 5 13.52 13.37 4.14 o
1658 2 -2 5 5 0.52 1.53 3.22 <
1659 2 -1 5 5 21.66 20.46 4.23 o
1660 2 0 5 5 45.66 39.75 16.50 <
1661 2 1 5 5 11.52 6.80 6.06 <
1662 2 3 5 5 15.75 12.57 3.60 o
1663 2 -4 6 5 14.16 12.33 3.64 o
1664 2 -2 6 5 1.43 0.46 3.69 <
1665 2 0 6 5 37.63 37.12 6.51 o
1666 2 2 6 5 31.73 28.47 5.74 o
1667 2 -4 7 5 2.43 5.66 4.40 <
1668 2 -2 7 5 5.92 4.00 4.34 <
1669 2 0 7 5 10.00 11.59 5.04 <
1670 2 2 7 5 21.84 19.41 3.70 o
1671 2 -1 -8 6 0.11 0.19 3.17 <
1672 2 1 -8 6 1.83 0.46 3.31 <
1673 2 -2 -7 6 4.09 4.82 4.51 <
1674 2 0 -7 6 17.01 16.45 4.96 o
1675 2 1 -7 6 4.78 7.29 3.41 <
1676 2 3 -7 6 3.66 0.51 3.84 <
1677 2 -4 -6 6 5.97 5.11 3.79 <
1678 2 -2 -6 6 2.42 0.89 5.42 <
1679 2 0 -6 6 32.73 36.01 4.22 o
1680 2 2 -6 6 1.38 2.11 5.42 <
1681 2 4 -6 6 2.45 2.52 2.73 <
1682 2 -3 -5 6 0.41 1.30 5.46 <
1683 2 -1 -5 6 52.99 59.02 6.56 o
1684 2 0 -5 6 8.38 9.10 4.93 <
1685 2 1 -5 6 31.64 37.50 5.83 o
1686 2 2 -5 6 7.70 7.24 3.56 <
1687 2 4 -5 6 56.94 55.05 6.25 o
1688 2 -5 -4 6 16.15 17.11 3.39 o
1689 2 -3 -4 6 15.50 12.44 5.65 <
1690 2 -1 -4 6 75.94 81.17 14.94 o
1691 2 1 -4 6 4.17 6.60 4.49 <
1692 2 3 -4 6 25.27 25.93 3.81 o
1693 2 5 -4 6 2.52 1.09 4.85 <
1694 2 -6 -3 6 6.67 4.61 2.62 <
1695 2 -4 -3 6 1.24 -0.07 3.99 <
1696 2 -2 -3 6 74.51 73.69 13.13 o
1697 2 -1 -3 6 18.87 22.38 10.72 <
1698 2 0 -3 6 122.67 116.09 13.74 o
1699 2 1 -3 6 11.70 11.80 9.18 <
1700 2 2 -3 6 92.29 91.49 4.59 o
1701 2 3 -3 6 1.96 0.53 5.43 <
1702 2 5 -3 6 78.90 73.85 4.29 o
1703 2 6 -3 6 1.24 -2.03 2.74 <
1704 2 -6 -2 6 14.85 15.37 3.52 o
1705 2 -4 -2 6 9.35 6.44 3.95 <
1706 2 -2 -2 6 162.57 156.96 14.26 o
1707 2 0 -2 6 135.76 153.52 13.53 o
1708 2 2 -2 6 86.31 91.14 11.17 o
1709 2 4 -2 6 31.86 28.92 6.13 o
1710 2 6 -2 6 3.10 3.31 2.67 <
1711 2 -7 -1 6 0.61 -1.97 3.81 <
1712 2 -5 -1 6 4.36 3.82 4.03 <
1713 2 -3 -1 6 46.54 52.67 10.59 o
1714 2 -2 -1 6 39.34 35.50 8.12 o
1715 2 -1 -1 6 225.12 237.16 11.88 o
1716 2 0 -1 6 13.07 13.38 6.41 <
1717 2 1 -1 6 144.80 176.26 11.08 o
1718 2 2 -1 6 8.58 13.97 7.62 <
1719 2 3 -1 6 99.02 101.22 9.34 o
1720 2 4 -1 6 87.48 91.88 8.90 o
1721 2 6 -1 6 8.70 9.01 4.40 <
1722 2 -7 0 6 0.85 -0.44 4.10 <
1723 2 -5 0 6 0.21 -0.22 3.76 <
1724 2 -3 0 6 90.96 92.74 12.31 o
1725 2 -1 0 6 209.30 219.15 13.43 o
1726 2 1 0 6 24.49 29.46 8.38 o
1727 2 3 0 6 40.94 42.73 6.70 o
1728 2 5 0 6 22.33 28.24 3.52 o
1729 2 -7 1 6 4.11 9.93 3.78 <
1730 2 -6 1 6 18.21 14.41 3.71 o
1731 2 -4 1 6 25.17 21.44 3.60 o
1732 2 -3 1 6 67.76 59.83 13.15 o
1733 2 -2 1 6 244.94 250.00 16.24 o
1734 2 -1 1 6 33.22 22.59 9.94 <
1735 2 0 1 6 107.26 127.36 12.76 o
1736 2 1 1 6 4.07 0.84 8.92 <
1737 2 2 1 6 99.54 103.20 13.99 o
1738 2 3 1 6 2.03 2.21 4.68 <
1739 2 5 1 6 24.43 19.00 5.43 o
1740 2 -6 2 6 0.13 0.43 3.51 <
1741 2 -4 2 6 64.44 60.61 3.51 o
1742 2 -2 2 6 94.75 92.88 13.69 o
1743 2 0 2 6 109.76 107.41 13.08 o
1744 2 2 2 6 0.37 0.91 11.39 <
1745 2 4 2 6 7.01 9.22 5.61 <
1746 2 6 2 6 1.38 1.19 2.03 <
1747 2 -7 3 6 20.68 17.56 2.38 o
1748 2 -5 3 6 2.57 4.06 3.76 <
1749 2 -4 3 6 27.25 23.93 7.86 o
1750 2 -3 3 6 94.24 89.18 7.56 o
1751 2 -2 3 6 11.27 7.08 5.96 <
1752 2 -1 3 6 2.30 -3.10 11.08 <
1753 2 0 3 6 2.45 -0.69 10.45 <
1754 2 1 3 6 70.29 75.99 14.13 o
1755 2 2 3 6 0.55 1.53 6.40 <
1756 2 4 3 6 54.30 54.98 6.55 o
1757 2 -7 4 6 0.15 -0.15 2.60 <
1758 2 -5 4 6 29.57 27.88 4.13 o
1759 2 -3 4 6 14.45 12.95 6.82 <
1760 2 -1 4 6 75.42 69.75 7.42 o
1761 2 1 4 6 1.93 2.77 6.51 <
1762 2 3 4 6 4.81 4.79 3.58 <
1763 2 5 4 6 9.46 9.42 3.12 o
1764 2 -6 5 6 0.19 1.74 3.41 <
1765 2 -4 5 6 44.62 36.88 4.40 o
1766 2 -2 5 6 0.23 -0.10 3.21 <
1767 2 -1 5 6 6.40 4.74 3.91 <
1768 2 0 5 6 90.42 88.61 7.69 o
1769 2 1 5 6 3.43 7.18 6.20 <
1770 2 2 5 6 15.10 13.47 5.50 <
1771 2 3 5 6 5.91 7.18 3.00 <
1772 2 -4 6 6 3.78 2.75 3.23 <
1773 2 -2 6 6 13.29 10.52 3.79 <
1774 2 0 6 6 2.90 2.47 5.49 <
1775 2 2 6 6 33.61 29.26 4.97 o
1776 2 -4 7 6 0.42 0.61 3.31 <
1777 2 -3 7 6 0.09 0.58 2.38 <
1778 2 -2 7 6 8.01 4.27 2.46 <
1779 2 -1 7 6 25.02 24.21 4.57 o
1780 2 0 7 6 0.06 -0.11 4.02 <
1781 2 1 7 6 1.06 1.83 3.89 <
1782 2 2 7 6 2.17 2.22 2.62 <
1783 2 1 -8 7 0.22 0.34 2.59 <
1784 2 -2 -7 7 13.65 16.34 4.31 o
1785 2 -1 -7 7 0.29 1.73 4.25 <
1786 2 0 -7 7 22.38 19.03 4.61 o
1787 2 1 -7 7 16.03 9.49 3.06 o
1788 2 3 -7 7 0.44 0.89 3.33 <
1789 2 -4 -6 7 3.61 3.08 3.12 <
1790 2 -2 -6 7 3.05 2.49 5.42 <
1791 2 0 -6 7 4.33 3.75 3.74 <
1792 2 2 -6 7 15.56 15.83 5.08 o
1793 2 4 -6 7 56.61 50.21 4.05 o
1794 2 -3 -5 7 10.67 10.39 3.91 <
1795 2 -1 -5 7 22.17 25.10 6.16 o
1796 2 0 -5 7 16.13 21.57 5.42 o
1797 2 2 -5 7 2.45 1.93 3.44 <
1798 2 3 -5 7 9.31 11.36 5.18 <
1799 2 4 -5 7 85.87 88.55 6.03 o
1800 2 5 -5 7 0.46 5.00 3.53 <
1801 2 -5 -4 7 2.72 3.42 3.01 <
1802 2 -3 -4 7 1.40 0.85 3.67 <
1803 2 -1 -4 7 47.40 52.26 5.35 o
1804 2 1 -4 7 13.12 13.93 4.82 <
1805 2 3 -4 7 53.32 56.53 4.20 o
1806 2 5 -4 7 5.73 6.32 4.32 <
1807 2 -6 -3 7 21.52 17.83 2.63 o
1808 2 -4 -3 7 0.04 -0.37 3.88 <
1809 2 -3 -3 7 10.89 8.60 5.24 <
1810 2 -2 -3 7 68.48 71.77 4.31 o
1811 2 -1 -3 7 62.66 66.32 5.54 o
1812 2 0 -3 7 10.75 6.25 10.38 <
1813 2 1 -3 7 12.12 10.98 4.69 <
1814 2 2 -3 7 110.11 104.38 5.14 o
1815 2 3 -3 7 182.41 188.21 8.62 o
1816 2 5 -3 7 18.62 18.41 5.01 o
1817 2 6 -3 7 1.36 0.52 2.78 <
1818 2 -6 -2 7 13.42 12.43 3.32 o
1819 2 -4 -2 7 5.79 3.56 4.04 <
1820 2 -2 -2 7 59.34 51.53 11.89 o
1821 2 0 -2 7 13.59 3.77 10.07 <
1822 2 2 -2 7 113.82 124.37 5.15 o
1823 2 4 -2 7 38.53 40.92 6.24 o
1824 2 6 -2 7 22.84 23.36 2.33 o
1825 2 -7 -1 7 11.75 12.03 3.38 o
1826 2 -5 -1 7 0.03 0.56 3.88 <
1827 2 -3 -1 7 126.49 131.15 4.77 o
1828 2 -2 -1 7 63.27 57.20 9.73 o
1829 2 -1 -1 7 9.83 12.83 6.75 <
1830 2 0 -1 7 25.42 25.20 7.03 o
1831 2 1 -1 7 126.97 132.82 11.36 o
1832 2 2 -1 7 67.06 73.89 4.28 o
1833 2 3 -1 7 35.54 33.50 6.07 o
1834 2 4 -1 7 94.89 88.57 7.23 o
1835 2 6 -1 7 10.55 13.65 3.66 o
1836 2 -7 0 7 24.15 22.87 4.21 o
1837 2 -5 0 7 22.65 19.84 4.01 o
1838 2 -3 0 7 122.07 122.04 6.29 o
1839 2 -1 0 7 98.19 105.39 11.53 o
1840 2 1 0 7 149.66 147.33 13.18 o
1841 2 3 0 7 0.60 1.54 4.85 <
1842 2 5 0 7 10.59 12.20 3.17 o
1843 2 -6 1 7 2.80 1.31 3.28 <
1844 2 -5 1 7 3.11 0.08 4.80 <
1845 2 -4 1 7 46.46 42.89 3.91 o
1846 2 -3 1 7 21.68 20.31 4.83 o
1847 2 -2 1 7 37.89 35.34 11.23 o
1848 2 -1 1 7 51.64 52.19 11.16 o
1849 2 0 1 7 105.65 95.44 12.75 o
1850 2 1 1 7 55.36 66.05 11.95 o
1851 2 2 1 7 9.30 4.61 11.21 <
1852 2 3 1 7 186.25 199.31 7.82 o
1853 2 5 1 7 15.73 17.12 4.91 o
1854 2 6 1 7 4.58 2.24 3.09 <
1855 2 -6 2 7 3.51 1.51 3.20 <
1856 2 -4 2 7 67.08 65.00 4.37 o
1857 2 -2 2 7 61.03 56.61 7.30 o
1858 2 0 2 7 34.89 34.19 11.18 o
1859 2 2 2 7 23.35 28.17 13.01 <
1860 2 4 2 7 41.08 45.98 6.09 o
1861 2 -7 3 7 3.99 3.13 2.70 <
1862 2 -5 3 7 19.76 14.26 5.55 <
1863 2 -4 3 7 32.25 29.77 5.99 o
1864 2 -3 3 7 71.67 64.92 8.03 o
1865 2 -2 3 7 36.23 29.75 6.75 o
1866 2 -1 3 7 38.42 33.00 6.80 o
1867 2 0 3 7 24.65 27.27 4.73 o
1868 2 1 3 7 20.40 22.35 13.11 <
1869 2 2 3 7 12.70 14.97 5.64 <
1870 2 3 3 7 62.44 68.95 5.93 o
1871 2 4 3 7 40.68 39.02 5.63 o
1872 2 5 3 7 8.93 7.88 3.53 <
1873 2 -5 4 7 12.09 10.28 5.40 <
1874 2 -3 4 7 41.41 35.66 4.79 o
1875 2 -1 4 7 35.22 31.53 7.61 o
1876 2 1 4 7 2.23 0.92 5.52 <
1877 2 3 4 7 7.66 10.89 4.98 <
1878 2 -6 5 7 7.59 3.86 2.96 <
1879 2 -4 5 7 21.68 20.90 4.09 o
1880 2 -3 5 7 2.87 5.10 3.78 <
1881 2 -2 5 7 0.85 1.79 3.89 <
1882 2 -1 5 7 2.45 3.00 2.84 <
1883 2 0 5 7 16.02 18.62 5.83 o
1884 2 1 5 7 0.09 -1.41 5.48 <
1885 2 2 5 7 1.15 -0.39 3.04 <
1886 2 3 5 7 97.10 88.59 3.38 o
1887 2 -4 6 7 17.91 13.28 4.72 <
1888 2 -2 6 7 14.05 15.17 2.70 o
1889 2 0 6 7 4.29 3.36 4.92 <
1890 2 2 6 7 0.35 0.40 3.57 <
1891 2 -2 7 7 6.06 -1.67 2.21 <
1892 2 -1 7 7 21.48 18.00 3.67 o
1893 2 0 7 7 0.22 1.57 3.33 <
1894 2 1 7 7 2.83 1.34 2.83 <
1895 2 -2 -7 8 13.20 10.93 3.49 o
1896 2 -1 -7 8 4.77 3.24 2.36 <
1897 2 0 -7 8 28.88 23.21 2.76 o
1898 2 1 -7 8 6.00 7.93 3.92 <
1899 2 2 -7 8 0.73 0.24 3.24 <
1900 2 -4 -6 8 11.67 6.40 2.75 <
1901 2 -2 -6 8 28.89 26.09 3.29 o
1902 2 0 -6 8 10.47 9.27 3.58 <
1903 2 2 -6 8 20.46 23.78 4.98 o
1904 2 -3 -5 8 25.62 24.58 5.41 o
1905 2 -2 -5 8 0.11 -1.56 5.74 <
1906 2 -1 -5 8 122.90 123.44 7.75 o
1907 2 0 -5 8 6.03 7.73 3.67 <
1908 2 1 -5 8 2.86 1.71 4.78 <
1909 2 2 -5 8 0.30 0.92 3.38 <
1910 2 3 -5 8 12.61 13.10 3.18 o
1911 2 4 -5 8 10.25 12.20 3.87 o
1912 2 5 -5 8 0.06 0.35 2.41 <
1913 2 -5 -4 8 12.30 11.38 3.67 o
1914 2 -3 -4 8 17.28 17.20 3.88 o
1915 2 -1 -4 8 0.03 -1.25 5.29 <
1916 2 1 -4 8 39.16 41.37 6.37 o
1917 2 3 -4 8 48.47 58.21 6.07 o
1918 2 5 -4 8 4.42 5.68 3.48 <
1919 2 -6 -3 8 13.12 -0.91 2.29 <
1920 2 -4 -3 8 27.55 26.40 4.16 o
1921 2 -3 -3 8 1.31 -0.58 3.84 <
1922 2 -2 -3 8 88.87 91.24 6.32 o
1923 2 -1 -3 8 3.46 4.52 4.95 <
1924 2 0 -3 8 2.63 3.70 4.89 <
1925 2 1 -3 8 2.32 2.06 3.59 <
1926 2 2 -3 8 48.19 45.75 4.53 o
1927 2 3 -3 8 60.38 67.59 6.65 o
1928 2 4 -3 8 4.69 5.80 5.29 <
1929 2 5 -3 8 14.99 13.21 4.20 o
1930 2 -6 -2 8 3.96 3.03 3.94 <
1931 2 -4 -2 8 18.33 15.68 4.24 o
1932 2 -2 -2 8 54.66 59.07 5.81 o
1933 2 0 -2 8 20.61 21.34 3.48 o
1934 2 2 -2 8 95.90 101.68 5.22 o
1935 2 4 -2 8 1.33 1.99 5.27 <
1936 2 -7 -1 8 11.16 15.33 2.89 o
1937 2 -5 -1 8 0.62 0.37 5.66 <
1938 2 -4 -1 8 12.18 8.48 5.65 <
1939 2 -3 -1 8 75.66 77.37 6.13 o
1940 2 -2 -1 8 9.77 8.41 3.45 <
1941 2 1 -1 8 183.92 186.16 4.47 o
1942 2 2 -1 8 131.93 140.80 5.47 o
1943 2 3 -1 8 0.31 -0.58 5.62 <
1944 2 4 -1 8 11.29 8.19 5.30 <
1945 2 5 -1 8 16.47 16.15 4.31 o
1946 2 -7 0 8 4.48 3.58 3.13 <
1947 2 -5 0 8 1.09 -1.21 5.86 <
1948 2 -3 0 8 50.63 54.27 3.90 o
1949 2 -1 0 8 22.14 19.58 9.47 <
1950 2 1 0 8 205.96 214.50 5.20 o
1951 2 3 0 8 25.90 33.21 6.13 o
1952 2 5 0 8 24.92 26.34 2.85 o
1953 2 -7 1 8 11.53 13.89 3.33 o
1954 2 -6 1 8 0.58 1.27 4.65 <
1955 2 -5 1 8 0.04 0.66 4.70 <
1956 2 -4 1 8 104.00 98.28 4.02 o
1957 2 -3 1 8 35.65 30.67 3.77 o
1958 2 -2 1 8 11.72 12.05 2.98 o
1959 2 -1 1 8 0.24 -0.89 3.98 <
1960 2 0 1 8 171.42 175.59 6.57 o
1961 2 1 1 8 50.54 56.31 5.12 o
1962 2 2 1 8 9.11 5.64 13.16 <
1963 2 3 1 8 33.06 32.17 6.06 o
1964 2 4 1 8 21.49 20.76 5.25 o
1965 2 5 1 8 6.12 5.93 3.68 <
1966 2 -6 2 8 9.36 5.93 2.77 <
1967 2 -4 2 8 63.10 56.14 4.41 o
1968 2 -2 2 8 111.12 106.81 8.63 o
1969 2 0 2 8 168.03 163.22 6.69 o
1970 2 4 2 8 4.70 5.35 3.20 <
1971 2 -6 3 8 1.03 0.69 2.93 <
1972 2 -5 3 8 32.71 30.89 5.55 o
1973 2 -3 3 8 1.14 0.07 4.16 <
1974 2 -2 3 8 12.35 9.08 7.03 <
1975 2 -1 3 8 121.80 110.29 6.52 o
1976 2 0 3 8 33.53 34.37 4.78 o
1977 2 1 3 8 1.25 0.63 5.29 <
1978 2 2 3 8 81.03 75.82 6.22 o
1979 2 3 3 8 3.34 3.08 4.57 <
1980 2 4 3 8 4.15 5.27 4.39 <
1981 2 5 3 8 3.67 3.33 2.38 <
1982 2 -5 4 8 41.15 34.12 5.07 o
1983 2 -3 4 8 45.36 42.88 4.71 o
1984 2 -1 4 8 45.50 42.03 5.58 o
1985 2 1 4 8 0.02 -0.78 5.43 <
1986 2 3 4 8 20.17 22.48 4.48 o
1987 2 -4 5 8 9.62 10.50 4.97 <
1988 2 -3 5 8 28.51 25.96 3.90 o
1989 2 -2 5 8 33.17 26.86 3.23 o
1990 2 -1 5 8 7.17 7.38 3.52 <
1991 2 0 5 8 1.72 -0.37 5.67 <
1992 2 1 5 8 13.59 16.53 5.12 o
1993 2 2 5 8 13.25 12.81 4.35 <
1994 2 3 5 8 8.15 1.40 2.14 <
1995 2 -4 6 8 20.30 18.48 3.34 o
1996 2 -2 6 8 29.88 25.85 3.02 o
1997 2 0 6 8 0.92 0.63 4.13 <
1998 2 2 6 8 6.74 5.58 2.51 <
1999 2 -1 7 8 2.15 2.89 2.52 <
2000 2 -1 -7 9 16.86 17.09 2.93 o
2001 2 0 -7 9 5.97 4.34 2.95 <
2002 2 1 -7 9 10.61 7.40 3.13 <
2003 2 -2 -6 9 1.17 0.11 2.59 <
2004 2 0 -6 9 0.74 0.11 2.91 <
2005 2 2 -6 9 35.90 34.94 4.41 o
2006 2 -4 -5 9 0.81 1.64 3.63 <
2007 2 -3 -5 9 13.10 12.86 5.03 <
2008 2 -2 -5 9 0.64 0.62 4.97 <
2009 2 -1 -5 9 23.54 21.50 3.49 o
2010 2 0 -5 9 21.54 25.27 3.63 o
2011 2 1 -5 9 1.78 -2.09 4.71 <
2012 2 2 -5 9 20.05 15.49 5.09 o
2013 2 3 -5 9 9.56 10.43 3.58 <
2014 2 4 -5 9 3.88 2.48 2.80 <
2015 2 -5 -4 9 9.33 8.75 3.25 <
2016 2 -3 -4 9 18.91 21.57 3.75 o
2017 2 -1 -4 9 28.06 28.21 4.03 o
2018 2 1 -4 9 32.81 36.99 6.19 o
2019 2 3 -4 9 3.89 5.29 4.57 <
2020 2 5 -4 9 14.13 13.12 2.57 o
2021 2 -4 -3 9 27.39 24.04 5.47 o
2022 2 -3 -3 9 4.43 6.15 5.76 <
2023 2 -2 -3 9 161.40 169.42 8.52 o
2024 2 -1 -3 9 18.34 21.87 6.00 o
2025 2 0 -3 9 4.03 3.55 5.80 <
2026 2 1 -3 9 19.35 16.79 3.99 o
2027 2 2 -3 9 5.77 7.68 3.89 <
2028 2 3 -3 9 16.26 13.44 5.20 <
2029 2 4 -3 9 0.06 -0.86 4.40 <
2030 2 5 -3 9 9.43 12.86 3.25 o
2031 2 -6 -2 9 9.84 2.74 1.89 <
2032 2 -4 -2 9 9.08 10.14 5.62 <
2033 2 -2 -2 9 31.98 32.62 5.63 o
2034 2 0 -2 9 46.47 46.54 5.80 o
2035 2 2 -2 9 27.65 27.41 4.36 o
2036 2 4 -2 9 18.05 17.75 5.34 o
2037 2 -5 -1 9 41.23 37.05 6.24 o
2038 2 -4 -1 9 0.88 0.36 5.70 <
2039 2 -3 -1 9 120.72 130.68 8.18 o
2040 2 -2 -1 9 21.99 19.29 3.74 o
2041 2 -1 -1 9 4.81 5.84 3.70 <
2042 2 0 -1 9 17.67 23.42 3.10 o
2043 2 1 -1 9 26.00 28.77 4.15 o
2044 2 2 -1 9 70.62 72.43 4.89 o
2045 2 3 -1 9 0.43 0.26 5.52 <
2046 2 4 -1 9 34.21 41.08 5.81 o
2047 2 5 -1 9 28.04 30.12 2.57 o
2048 2 -5 0 9 13.41 7.89 5.51 <
2049 2 -3 0 9 4.67 6.07 3.49 <
2050 2 -1 0 9 1.25 2.20 3.26 <
2051 2 1 0 9 52.50 63.63 4.32 o
2052 2 3 0 9 2.51 4.82 5.44 <
2053 2 5 0 9 11.40 9.62 2.95 o
2054 2 -6 1 9 8.78 6.89 4.10 <
2055 2 -5 1 9 7.59 10.06 5.09 <
2056 2 -4 1 9 63.27 59.01 3.50 o
2057 2 -3 1 9 6.79 7.57 3.06 <
2058 2 -2 1 9 39.35 36.65 3.84 o
2059 2 -1 1 9 28.58 34.29 5.02 o
2060 2 0 1 9 87.36 83.02 5.87 o
2061 2 1 1 9 92.21 98.24 6.04 o
2062 2 2 1 9 0.36 -3.14 5.88 <
2063 2 3 1 9 35.91 41.66 6.14 o
2064 2 4 1 9 21.46 24.44 4.56 o
2065 2 5 1 9 6.83 4.62 2.74 <
2066 2 -6 2 9 3.56 3.14 2.23 <
2067 2 -4 2 9 8.93 10.01 3.04 o
2068 2 -2 2 9 1.65 2.35 4.54 <
2069 2 0 2 9 111.37 109.46 6.46 o
2070 2 4 2 9 19.60 18.05 2.80 o
2071 2 -6 3 9 1.35 0.62 2.95 <
2072 2 -5 3 9 68.55 55.39 3.70 o
2073 2 -4 3 9 1.43 2.37 3.45 <
2074 2 -3 3 9 28.01 23.09 6.10 o
2075 2 -2 3 9 0.26 4.65 5.01 <
2076 2 -1 3 9 63.68 64.37 6.16 o
2077 2 0 3 9 30.72 36.52 5.26 o
2078 2 1 3 9 3.43 4.69 5.07 <
2079 2 2 3 9 33.47 36.93 5.88 o
2080 2 3 3 9 17.31 17.74 3.25 o
2081 2 4 3 9 5.47 5.43 3.39 <
2082 2 -5 4 9 18.33 14.27 2.79 o
2083 2 -3 4 9 23.87 15.94 5.27 o
2084 2 -1 4 9 63.33 65.73 5.80 o
2085 2 1 4 9 0.13 -1.02 4.94 <
2086 2 3 4 9 1.32 0.78 3.21 <
2087 2 -5 5 9 0.15 -2.15 2.54 <
2088 2 -4 5 9 1.08 2.00 3.50 <
2089 2 -3 5 9 0.30 0.18 2.89 <
2090 2 -2 5 9 79.71 68.40 4.11 o
2091 2 -1 5 9 17.30 14.71 3.30 o
2092 2 0 5 9 0.08 -0.05 4.78 <
2093 2 1 5 9 31.77 30.02 4.90 o
2094 2 2 5 9 7.59 7.15 3.01 <
2095 2 -2 6 9 9.57 6.67 3.57 <
2096 2 0 6 9 0.10 0.35 3.22 <
2097 2 -2 -6 10 6.12 3.94 3.17 <
2098 2 0 -6 10 6.11 7.11 3.85 <
2099 2 2 -6 10 42.25 32.85 3.35 o
2100 2 -4 -5 10 2.59 0.65 2.78 <
2101 2 -3 -5 10 13.37 11.02 4.41 <
2102 2 -2 -5 10 46.72 47.69 5.33 o
2103 2 -1 -5 10 14.50 14.40 3.19 o
2104 2 0 -5 10 8.15 8.97 4.22 <
2105 2 1 -5 10 0.45 1.15 4.46 <
2106 2 2 -5 10 6.59 5.10 3.89 <
2107 2 -3 -4 10 11.33 12.08 3.35 o
2108 2 -1 -4 10 28.50 28.17 3.92 o
2109 2 1 -4 10 67.29 60.88 6.41 o
2110 2 3 -4 10 2.06 1.78 3.71 <
2111 2 -5 -3 10 1.64 2.00 2.41 <
2112 2 -4 -3 10 8.24 5.88 4.70 <
2113 2 -3 -3 10 23.80 29.00 5.89 o
2114 2 -2 -3 10 9.04 7.51 5.79 <
2115 2 -1 -3 10 16.06 20.71 6.18 o
2116 2 0 -3 10 0.56 3.38 5.64 <
2117 2 1 -3 10 54.36 56.22 4.28 o
2118 2 2 -3 10 24.57 25.16 4.12 o
2119 2 3 -3 10 1.53 0.18 4.37 <
2120 2 4 -3 10 0.22 -0.28 3.60 <
2121 2 -6 -2 10 14.16 12.46 2.78 o
2122 2 -4 -2 10 21.12 19.28 5.68 o
2123 2 -2 -2 10 0.11 -0.80 3.37 <
2124 2 0 -2 10 48.48 51.82 6.70 o
2125 2 2 -2 10 20.48 21.65 4.16 o
2126 2 4 -2 10 14.14 18.46 4.33 o
2127 2 -6 -1 10 1.47 0.61 3.28 <
2128 2 -5 -1 10 12.22 10.75 5.00 <
2129 2 -4 -1 10 33.84 33.49 6.19 o
2130 2 -3 -1 10 59.63 55.94 6.86 o
2131 2 -2 -1 10 36.03 43.60 4.17 o
2132 2 -1 -1 10 3.66 3.84 3.74 <
2133 2 0 -1 10 66.16 67.47 3.75 o
2134 2 1 -1 10 1.61 5.21 3.99 <
2135 2 2 -1 10 0.04 -0.23 3.80 <
2136 2 3 -1 10 6.13 1.34 5.20 <
2137 2 4 -1 10 35.99 43.77 4.85 o
2138 2 -5 0 10 6.63 5.89 5.01 <
2139 2 -3 0 10 13.61 15.33 3.66 o
2140 2 -1 0 10 83.37 95.28 4.92 o
2141 2 1 0 10 45.53 45.61 3.48 o
2142 2 3 0 10 26.31 27.45 5.56 o
2143 2 -6 1 10 14.56 11.62 3.37 o
2144 2 -5 1 10 15.61 14.00 4.54 o
2145 2 -4 1 10 35.56 34.74 3.80 o
2146 2 -3 1 10 0.88 1.39 3.52 <
2147 2 -2 1 10 25.99 31.21 4.00 o
2148 2 -1 1 10 53.04 55.07 6.24 o
2149 2 0 1 10 1.45 7.13 5.24 <
2150 2 1 1 10 34.67 42.31 5.70 o
2151 2 2 1 10 9.72 10.13 5.74 <
2152 2 3 1 10 33.36 39.63 5.59 o
2153 2 4 1 10 11.49 12.69 2.57 o
2154 2 -4 2 10 0.06 -2.14 4.43 <
2155 2 -2 2 10 12.84 13.66 5.59 <
2156 2 0 2 10 35.35 42.01 5.63 o
2157 2 2 2 10 19.27 25.28 5.59 o
2158 2 4 2 10 5.94 3.58 3.08 <
2159 2 -5 3 10 14.03 13.62 3.56 o
2160 2 -4 3 10 3.07 2.49 4.46 <
2161 2 -3 3 10 1.04 0.09 4.83 <
2162 2 -2 3 10 81.34 71.60 6.59 o
2163 2 -1 3 10 12.22 12.74 4.95 <
2164 2 0 3 10 54.28 54.56 5.38 o
2165 2 1 3 10 0.08 -1.11 4.68 <
2166 2 2 3 10 27.83 36.83 5.14 o
2167 2 3 3 10 16.79 15.82 2.51 o
2168 2 -5 4 10 0.04 0.71 2.66 <
2169 2 -3 4 10 4.50 1.93 4.33 <
2170 2 -1 4 10 62.46 64.14 4.28 o
2171 2 1 4 10 6.74 6.72 4.16 <
2172 2 -4 5 10 8.01 5.95 2.75 <
2173 2 -3 5 10 10.00 9.08 2.50 o
2174 2 -2 5 10 1.22 0.75 2.58 <
2175 2 -1 5 10 20.07 21.16 4.58 o
2176 2 0 5 10 3.91 3.60 4.06 <
2177 2 1 5 10 30.16 24.47 2.38 o
2178 2 0 -6 11 2.02 0.75 2.69 <
2179 2 -3 -5 11 11.95 10.24 2.96 o
2180 2 -2 -5 11 12.21 11.28 2.52 o
2181 2 -1 -5 11 11.76 10.79 2.51 o
2182 2 0 -5 11 9.50 8.96 3.71 <
2183 2 1 -5 11 21.76 22.32 4.05 o
2184 2 2 -5 11 12.73 13.16 2.80 o
2185 2 -3 -4 11 13.24 15.50 2.83 o
2186 2 -1 -4 11 1.53 0.04 3.04 <
2187 2 1 -4 11 36.28 35.75 5.55 o
2188 2 3 -4 11 3.92 5.09 2.54 <
2189 2 -5 -3 11 0.06 -0.28 2.49 <
2190 2 -4 -3 11 33.67 36.79 4.53 o
2191 2 -3 -3 11 22.81 25.95 5.18 o
2192 2 -2 -3 11 29.24 28.71 5.78 o
2193 2 -1 -3 11 5.02 7.11 5.53 <
2194 2 0 -3 11 6.53 7.46 5.61 <
2195 2 1 -3 11 9.86 13.25 5.62 <
2196 2 2 -3 11 11.83 11.09 4.23 <
2197 2 3 -3 11 0.38 3.05 3.60 <
2198 2 4 -3 11 0.07 -0.13 2.34 <
2199 2 -4 -2 11 24.75 27.21 5.14 o
2200 2 -2 -2 11 19.07 17.50 5.77 o
2201 2 0 -2 11 58.99 67.83 6.89 o
2202 2 2 -2 11 1.27 3.00 4.69 <
2203 2 4 -2 11 18.61 19.83 3.14 o
2204 2 -5 -1 11 19.99 21.70 4.36 o
2205 2 -4 -1 11 10.45 10.72 5.03 <
2206 2 -3 -1 11 24.69 22.34 3.43 o
2207 2 -2 -1 11 0.42 0.56 3.54 <
2208 2 -1 -1 11 5.59 5.60 3.70 <
2209 2 0 -1 11 41.84 45.47 4.21 o
2210 2 1 -1 11 31.01 31.81 4.10 o
2211 2 2 -1 11 2.18 0.75 4.94 <
2212 2 3 -1 11 0.03 1.43 4.41 <
2213 2 4 -1 11 34.46 35.68 3.57 o
2214 2 -5 0 11 22.40 24.11 4.30 o
2215 2 -3 0 11 7.44 5.99 3.37 <
2216 2 -1 0 11 25.13 25.33 3.17 o
2217 2 1 0 11 10.97 12.33 3.71 o
2218 2 3 0 11 16.32 18.35 4.51 o
2219 2 -5 1 11 18.86 17.56 3.88 o
2220 2 -4 1 11 40.73 37.89 3.35 o
2221 2 -3 1 11 1.43 3.65 3.35 <
2222 2 -2 1 11 7.77 8.26 3.61 <
2223 2 -1 1 11 48.17 50.61 6.07 o
2224 2 0 1 11 4.10 2.13 5.22 <
2225 2 1 1 11 10.12 7.88 5.55 <
2226 2 2 1 11 7.85 7.89 5.04 <
2227 2 3 1 11 64.64 74.14 5.07 o
2228 2 -4 2 11 0.20 -1.62 3.77 <
2229 2 -2 2 11 44.06 41.84 5.67 o
2230 2 0 2 11 34.53 33.04 5.21 o
2231 2 2 2 11 13.04 13.10 4.50 <
2232 2 -5 3 11 11.90 11.02 2.41 o
2233 2 -4 3 11 3.69 3.99 3.70 <
2234 2 -3 3 11 0.12 -0.92 4.23 <
2235 2 -2 3 11 20.73 16.40 4.88 o
2236 2 -1 3 11 0.04 -0.27 4.26 <
2237 2 0 3 11 0.65 0.05 3.00 <
2238 2 1 3 11 27.47 26.80 3.29 o
2239 2 2 3 11 37.38 38.73 2.82 o
2240 2 -3 4 11 19.62 16.41 2.76 o
2241 2 -1 4 11 20.61 21.56 3.11 o
2242 2 1 4 11 12.17 13.86 2.41 o
2243 2 -2 5 11 1.62 1.77 2.94 <
2244 2 -1 5 11 11.04 8.63 3.18 <
2245 2 0 5 11 6.57 5.08 1.88 <
2246 2 -1 -5 12 0.23 -0.66 2.68 <
2247 2 0 -5 12 5.68 6.88 2.97 <
2248 2 -3 -4 12 12.89 11.84 2.00 o
2249 2 -1 -4 12 2.47 -0.09 3.85 <
2250 2 1 -4 12 18.61 21.79 3.54 o
2251 2 -4 -3 12 4.00 3.86 2.00 <
2252 2 -3 -3 12 23.94 29.28 3.04 o
2253 2 -2 -3 12 2.20 2.46 2.95 <
2254 2 -1 -3 12 15.04 16.78 5.06 o
2255 2 0 -3 12 25.96 25.98 5.19 o
2256 2 1 -3 12 32.83 33.30 5.16 o
2257 2 2 -3 12 1.98 3.76 2.62 <
2258 2 -4 -2 12 8.45 9.35 3.83 <
2259 2 -2 -2 12 0.72 -0.91 4.92 <
2260 2 0 -2 12 29.51 35.29 5.54 o
2261 2 2 -2 12 9.66 13.11 3.80 o
2262 2 -5 -1 12 18.33 19.32 3.01 o
2263 2 -4 -1 12 22.73 27.66 4.56 o
2264 2 -3 -1 12 4.01 7.81 4.86 <
2265 2 -2 -1 12 16.87 21.23 5.30 o
2266 2 -1 -1 12 17.14 19.31 5.49 o
2267 2 0 -1 12 20.70 27.85 3.50 o
2268 2 1 -1 12 0.85 2.39 3.13 <
2269 2 2 -1 12 0.63 -2.34 4.00 <
2270 2 3 -1 12 10.70 13.10 3.30 o
2271 2 -5 0 12 13.68 10.73 3.04 o
2272 2 -3 0 12 2.28 1.79 2.81 <
2273 2 -1 0 12 34.95 40.42 3.03 o
2274 2 1 0 12 4.44 4.39 4.76 <
2275 2 3 0 12 13.18 15.03 3.32 o
2276 2 -4 1 12 7.63 5.94 2.29 <
2277 2 -3 1 12 5.70 7.88 2.88 <
2278 2 -2 1 12 6.42 6.18 4.54 <
2279 2 -1 1 12 26.29 26.71 3.60 o
2280 2 0 1 12 6.14 7.59 3.33 <
2281 2 1 1 12 0.27 1.75 4.62 <
2282 2 2 1 12 1.96 3.64 3.82 <
2283 2 3 1 12 8.71 6.14 1.89 o
2284 2 -4 2 12 0.02 -0.54 2.82 <
2285 2 -2 2 12 8.13 10.94 4.40 <
2286 2 0 2 12 2.80 2.53 2.47 <
2287 2 2 2 12 16.89 22.46 3.64 o
2288 2 -4 3 12 0.37 0.96 2.42 <
2289 2 -3 3 12 6.19 2.28 3.41 <
2290 2 -2 3 12 27.69 31.05 4.24 o
2291 2 -1 3 12 0.92 2.26 2.67 <
2292 2 0 3 12 2.74 0.79 2.57 <
2293 2 1 3 12 3.30 2.45 3.36 <
2294 2 -3 4 12 5.70 1.61 1.70 <
2295 2 -1 4 12 9.46 9.81 3.23 o
2296 2 -1 -4 13 1.07 0.55 2.65 <
2297 2 -3 -3 13 0.02 -0.57 2.47 <
2298 2 -2 -3 13 2.93 5.60 3.34 <
2299 2 -1 -3 13 23.89 25.84 4.02 o
2300 2 0 -3 13 4.37 2.95 3.65 <
2301 2 -2 -2 13 1.40 0.09 3.93 <
2302 2 0 -2 13 30.06 36.65 4.57 o
2303 2 -4 -1 13 13.98 10.72 3.03 o
2304 2 -3 -1 13 5.56 7.45 3.74 <
2305 2 -2 -1 13 13.30 12.54 4.11 o
2306 2 -1 -1 13 11.24 10.94 4.14 <
2307 2 0 -1 13 31.24 32.28 4.54 o
2308 2 1 -1 13 4.55 7.95 3.21 <
2309 2 2 -1 13 3.47 5.86 2.66 <
2310 2 -3 0 13 3.78 4.51 3.23 <
2311 2 -1 0 13 22.96 21.88 4.01 o
2312 2 1 0 13 2.53 1.11 3.35 <
2313 2 -3 1 13 10.82 12.80 3.20 o
2314 2 -2 1 13 18.35 21.70 3.98 o
2315 2 -1 1 13 25.55 27.50 2.77 o
2316 2 0 1 13 0.07 1.92 3.56 <
2317 2 1 1 13 0.95 3.57 3.23 <
2318 2 2 1 13 10.32 7.68 2.50 o
2319 2 -2 2 13 15.46 16.58 3.39 o
2320 2 0 2 13 5.31 7.14 3.27 <
2321 2 -2 3 13 10.69 9.40 1.91 o
2322 2 -1 3 13 0.10 0.99 1.79 <
2323 2 0 3 13 1.45 0.97 2.33 <
2324 2 -2 -2 14 3.47 3.51 2.49 <
2325 2 -2 -1 14 42.61 42.07 3.15 o
2326 2 -1 -1 14 2.53 2.14 2.64 <
2327 2 8 -1 -3 35.28 27.07 4.03 o
2327 1 -8 1 1 35.28 27.07 4.03 o
2328 2 8 -1 -2 56.23 68.50 4.48 o
2328 1 -8 1 2 56.23 68.50 4.48 o
2329 2 8 -1 -1 108.83 102.65 4.67 o
2329 1 -8 1 3 108.83 102.65 4.67 o
2330 2 8 -2 -2 37.29 29.22 3.86 o
2330 1 -8 2 1 37.29 29.22 3.86 o
2331 2 8 -2 -1 99.96 99.02 4.50 o
2331 1 -8 2 2 99.96 99.02 4.50 o
2332 2 7 3 -4 51.37 48.38 4.52 o
2332 1 -7 -3 0 51.37 48.38 4.52 o
2333 2 7 3 -3 142.49 151.47 6.11 o
2333 1 -7 -3 1 142.49 151.47 6.11 o
2334 2 7 3 -2 23.56 27.85 4.66 o
2334 1 -7 -3 2 23.56 27.85 4.66 o
2335 2 7 3 -1 74.62 85.55 5.44 o
2335 1 -7 -3 3 74.62 85.55 5.44 o
2336 2 7 3 0 93.35 92.49 5.22 o
2336 1 -7 -3 4 93.35 92.49 5.22 o
2337 2 7 3 1 32.09 27.17 3.80 o
2337 1 -7 -3 5 32.09 27.17 3.80 o
2338 2 7 2 -6 167.19 161.56 5.69 o
2338 1 -7 -2 -2 167.19 161.56 5.69 o
2339 2 7 2 -5 152.18 160.65 4.41 o
2339 1 -7 -2 -1 152.18 160.65 4.41 o
2340 2 7 2 -4 154.45 77.86 3.82 o
2340 1 -7 -2 0 154.45 77.86 3.82 o
2341 2 7 2 -3 40.25 42.11 5.50 o
2341 1 -7 -2 1 40.25 42.11 5.50 o
2342 2 7 2 -2 25.51 28.24 5.32 o
2342 1 -7 -2 2 25.51 28.24 5.32 o
2343 2 7 2 -1 11.87 9.13 4.87 <
2343 1 -7 -2 3 11.87 9.13 4.87 <
2344 2 7 2 0 31.06 41.51 5.36 o
2344 1 -7 -2 4 31.06 41.51 5.36 o
2345 2 7 2 1 93.46 87.30 5.57 o
2345 1 -7 -2 5 93.46 87.30 5.57 o
2346 2 7 2 2 103.25 104.92 5.20 o
2346 1 -7 -2 6 103.25 104.92 5.20 o
2347 2 7 1 -5 88.67 99.94 6.59 o
2347 1 -7 -1 -1 88.67 99.94 6.59 o
2348 2 7 1 -4 62.22 70.98 6.49 o
2348 1 -7 -1 0 62.22 70.98 6.49 o
2349 2 7 1 -3 54.22 49.13 6.37 o
2349 1 -7 -1 1 54.22 49.13 6.37 o
2350 2 7 1 -2 191.98 219.42 7.81 o
2350 1 -7 -1 2 191.98 219.42 7.81 o
2351 2 7 0 -3 80.54 55.80 7.19 o
2351 1 -7 0 0 80.54 55.80 7.19 o
2352 2 7 -1 -7 172.90 173.58 7.10 o
2352 1 -7 1 -4 172.90 173.58 7.10 o
2353 2 7 -1 -6 180.00 189.79 7.86 o
2353 1 -7 1 -3 180.00 189.79 7.86 o
2354 2 7 -1 -5 131.38 135.73 8.61 o
2354 1 -7 1 -2 131.38 135.73 8.61 o
2355 2 7 -1 -4 13.56 8.92 6.58 <
2355 1 -7 1 -1 13.56 8.92 6.58 <
2356 2 7 -2 -7 78.08 89.37 5.63 o
2356 1 -7 2 -4 78.08 89.37 5.63 o
2357 2 7 -2 -6 172.03 185.20 7.86 o
2357 1 -7 2 -3 172.03 185.20 7.86 o
2358 2 7 -2 -5 83.29 96.24 7.47 o
2358 1 -7 2 -2 83.29 96.24 7.47 o
2359 2 7 -2 -4 109.18 113.44 8.32 o
2359 1 -7 2 -1 109.18 113.44 8.32 o
2360 2 6 5 -4 104.57 110.91 4.88 o
2360 1 -6 -5 0 104.57 110.91 4.88 o
2361 2 6 5 -3 58.02 64.98 4.84 o
2361 1 -6 -5 1 58.02 64.98 4.84 o
2362 2 6 5 -2 31.02 39.07 4.44 o
2362 1 -6 -5 2 31.02 39.07 4.44 o
2363 2 6 5 -1 32.45 31.11 4.39 o
2363 1 -6 -5 3 32.45 31.11 4.39 o
2364 2 6 5 0 107.26 110.13 5.18 o
2364 1 -6 -5 4 107.26 110.13 5.18 o
2365 2 6 4 -6 80.78 86.68 6.49 o
2365 1 -6 -4 -2 80.78 86.68 6.49 o
2366 2 6 4 -5 145.94 167.78 8.17 o
2366 1 -6 -4 -1 145.94 167.78 8.17 o
2367 2 6 4 -4 96.85 116.88 7.84 o
2367 1 -6 -4 0 96.85 116.88 7.84 o
2368 2 6 4 -3 73.08 65.26 7.17 o
2368 1 -6 -4 1 73.08 65.26 7.17 o
2369 2 6 4 -2 0.27 -0.61 5.80 <
2369 1 -6 -4 2 0.27 -0.61 5.80 <
2370 2 6 4 -1 15.36 16.81 6.06 <
2370 1 -6 -4 3 15.36 16.81 6.06 <
2371 2 6 4 0 44.48 44.90 6.38 o
2371 1 -6 -4 4 44.48 44.90 6.38 o
2372 2 6 4 1 84.14 90.00 6.82 o
2372 1 -6 -4 5 84.14 90.00 6.82 o
2373 2 6 4 2 27.36 34.70 5.26 o
2373 1 -6 -4 6 27.36 34.70 5.26 o
2374 2 6 4 3 43.63 50.09 4.81 o
2374 1 -6 -4 7 43.63 50.09 4.81 o
2375 2 6 3 -5 124.71 135.79 8.01 o
2375 1 -6 -3 -1 124.71 135.79 8.01 o
2376 2 6 3 -4 47.10 50.68 7.33 o
2376 1 -6 -3 0 47.10 50.68 7.33 o
2377 2 6 3 -3 148.63 160.26 8.89 o
2377 1 -6 -3 1 148.63 160.26 8.89 o
2378 2 6 3 -2 168.22 171.38 9.06 o
2378 1 -6 -3 2 168.22 171.38 9.06 o
2379 2 6 3 -1 171.36 188.55 9.19 o
2379 1 -6 -3 3 171.36 188.55 9.19 o
2380 2 6 3 0 9.91 8.27 6.63 <
2380 1 -6 -3 4 9.91 8.27 6.63 <
2381 2 6 3 1 41.20 36.41 6.78 o
2381 1 -6 -3 5 41.20 36.41 6.78 o
2382 2 6 3 2 38.51 35.34 6.39 o
2382 1 -6 -3 6 38.51 35.34 6.39 o
2383 2 6 2 -2 105.10 99.93 5.54 o
2383 1 -6 -2 1 105.10 99.93 5.54 o
2384 2 6 2 0 59.68 60.44 7.70 o
2384 1 -6 -2 3 59.68 60.44 7.70 o
2385 2 6 2 1 38.77 32.34 6.97 o
2385 1 -6 -2 4 38.77 32.34 6.97 o
2386 2 6 2 2 45.44 60.26 7.30 o
2386 1 -6 -2 5 45.44 60.26 7.30 o
2387 2 6 1 -9 107.54 110.82 6.76 o
2387 1 -6 -1 -6 107.54 110.82 6.76 o
2388 2 6 1 -8 310.11 343.00 9.78 o
2388 1 -6 -1 -5 310.11 343.00 9.78 o
2389 2 6 1 -7 202.19 191.94 9.47 o
2389 1 -6 -1 -4 202.19 191.94 9.47 o
2390 2 6 1 -6 312.82 299.34 7.55 o
2390 1 -6 -1 -3 312.82 299.34 7.55 o
2391 2 6 1 -5 64.44 60.82 5.70 o
2391 1 -6 -1 -2 64.44 60.82 5.70 o
2392 2 6 1 -4 31.84 29.13 5.41 o
2392 1 -6 -1 -1 31.84 29.13 5.41 o
2393 2 6 1 -3 142.47 127.69 8.90 o
2393 1 -6 -1 0 142.47 127.69 8.90 o
2394 2 6 1 -2 113.83 124.68 9.24 o
2394 1 -6 -1 1 113.83 124.68 9.24 o
2395 2 6 1 -1 72.27 70.07 7.94 o
2395 1 -6 -1 2 72.27 70.07 7.94 o
2396 2 6 1 0 45.99 41.95 7.55 o
2396 1 -6 -1 3 45.99 41.95 7.55 o
2397 2 6 1 1 90.21 100.09 8.43 o
2397 1 -6 -1 4 90.21 100.09 8.43 o
2398 2 6 1 2 13.63 19.15 6.52 <
2398 1 -6 -1 5 13.63 19.15 6.52 <
2399 2 6 1 3 96.42 103.86 7.86 o
2399 1 -6 -1 6 96.42 103.86 7.86 o
2400 2 6 1 4 107.20 96.97 7.02 o
2400 1 -6 -1 7 107.20 96.97 7.02 o
2401 2 6 1 5 220.81 212.10 7.54 o
2401 1 -6 -1 8 220.81 212.10 7.54 o
2402 2 6 1 6 39.46 36.02 4.78 o
2402 1 -6 -1 9 39.46 36.02 4.78 o
2403 2 6 0 -10 17.15 18.84 4.99 o
2403 1 -6 0 -7 17.15 18.84 4.99 o
2404 2 6 0 -9 114.57 120.20 7.89 o
2404 1 -6 0 -6 114.57 120.20 7.89 o
2405 2 6 0 -8 97.77 91.15 8.36 o
2405 1 -6 0 -5 97.77 91.15 8.36 o
2406 2 6 0 -7 173.67 201.88 10.79 o
2406 1 -6 0 -4 173.67 201.88 10.79 o
2407 2 6 0 -6 287.39 311.46 12.84 o
2407 1 -6 0 -3 287.39 311.46 12.84 o
2408 2 6 0 -5 79.96 78.80 9.39 o
2408 1 -6 0 -2 79.96 78.80 9.39 o
2409 2 6 -3 -6 16.08 16.69 6.12 <
2409 1 -6 3 -4 16.08 16.69 6.12 <
2410 2 6 -3 -5 129.20 135.54 8.13 o
2410 1 -6 3 -3 129.20 135.54 8.13 o
2411 2 6 -4 -8 67.17 65.53 4.75 o
2411 1 -6 4 -6 67.17 65.53 4.75 o
2412 2 5 6 -4 83.93 90.61 4.87 o
2412 1 -5 -6 0 83.93 90.61 4.87 o
2413 2 5 6 -3 28.27 24.50 4.12 o
2413 1 -5 -6 1 28.27 24.50 4.12 o
2414 2 5 6 -2 7.11 12.63 3.95 o
2414 1 -5 -6 2 7.11 12.63 3.95 o
2415 2 5 6 -1 66.99 70.69 4.76 o
2415 1 -5 -6 3 66.99 70.69 4.76 o
2416 2 5 6 0 24.02 27.24 3.88 o
2416 1 -5 -6 4 24.02 27.24 3.88 o
2417 2 5 5 -6 121.93 126.28 6.86 o
2417 1 -5 -5 -2 121.93 126.28 6.86 o
2418 2 5 5 -5 74.94 85.01 6.67 o
2418 1 -5 -5 -1 74.94 85.01 6.67 o
2419 2 5 5 -4 91.91 98.61 7.25 o
2419 1 -5 -5 0 91.91 98.61 7.25 o
2420 2 5 5 -3 65.02 65.97 7.09 o
2420 1 -5 -5 1 65.02 65.97 7.09 o
2421 2 5 5 -2 366.03 406.70 10.65 o
2421 1 -5 -5 2 366.03 406.70 10.65 o
2422 2 5 5 -1 26.83 31.60 6.36 o
2422 1 -5 -5 3 26.83 31.60 6.36 o
2423 2 5 5 0 19.44 17.23 6.01 <
2423 1 -5 -5 4 19.44 17.23 6.01 <
2424 2 5 5 1 73.98 70.46 6.51 o
2424 1 -5 -5 5 73.98 70.46 6.51 o
2425 2 5 5 2 80.38 77.30 6.01 o
2425 1 -5 -5 6 80.38 77.30 6.01 o
2426 2 5 4 -2 147.13 158.98 9.38 o
2426 1 -5 -4 1 147.13 158.98 9.38 o
2427 2 5 4 -1 149.52 172.47 9.60 o
2427 1 -5 -4 2 149.52 172.47 9.60 o
2428 2 5 4 0 134.95 117.60 8.86 o
2428 1 -5 -4 3 134.95 117.60 8.86 o
2429 2 5 4 1 62.42 72.25 7.98 o
2429 1 -5 -4 4 62.42 72.25 7.98 o
2430 2 5 4 2 75.84 88.99 7.66 o
2430 1 -5 -4 5 75.84 88.99 7.66 o
2431 2 5 3 -9 195.46 212.84 5.34 o
2431 1 -5 -3 -6 195.46 212.84 5.34 o
2432 2 5 3 -8 277.83 262.19 6.54 o
2432 1 -5 -3 -5 277.83 262.19 6.54 o
2433 2 5 3 -7 310.41 298.72 7.27 o
2433 1 -5 -3 -4 310.41 298.72 7.27 o
2434 2 5 3 -6 223.05 211.85 6.99 o
2434 1 -5 -3 -3 223.05 211.85 6.99 o
2435 2 5 3 -5 1.08 -0.55 4.96 <
2435 1 -5 -3 -2 1.08 -0.55 4.96 <
2436 2 5 3 -4 93.70 81.61 8.82 o
2436 1 -5 -3 -1 93.70 81.61 8.82 o
2437 2 5 3 -3 96.60 97.03 9.87 o
2437 1 -5 -3 0 96.60 97.03 9.87 o
2438 2 5 3 -2 204.58 224.97 12.14 o
2438 1 -5 -3 1 204.58 224.97 12.14 o
2439 2 5 3 -1 64.15 70.77 9.13 o
2439 1 -5 -3 2 64.15 70.77 9.13 o
2440 2 5 3 0 48.29 44.89 8.57 o
2440 1 -5 -3 3 48.29 44.89 8.57 o
2441 2 5 3 1 71.76 71.57 8.86 o
2441 1 -5 -3 4 71.76 71.57 8.86 o
2442 2 5 3 2 0.99 2.66 7.39 <
2442 1 -5 -3 5 0.99 2.66 7.39 <
2443 2 5 3 3 137.86 135.29 9.62 o
2443 1 -5 -3 6 137.86 135.29 9.62 o
2444 2 5 3 4 270.73 261.11 10.36 o
2444 1 -5 -3 7 270.73 261.11 10.36 o
2445 2 5 3 5 214.24 190.86 8.93 o
2445 1 -5 -3 8 214.24 190.86 8.93 o
2446 2 5 3 6 40.15 45.03 6.28 o
2446 1 -5 -3 9 40.15 45.03 6.28 o
2447 2 5 2 -11 20.94 23.32 5.03 o
2447 1 -5 -2 -8 20.94 23.32 5.03 o
2448 2 5 2 -10 45.84 43.02 6.73 o
2448 1 -5 -2 -7 45.84 43.02 6.73 o
2449 2 5 2 -9 86.41 82.66 8.35 o
2449 1 -5 -2 -6 86.41 82.66 8.35 o
2450 2 5 2 -8 115.60 112.98 6.69 o
2450 1 -5 -2 -5 115.60 112.98 6.69 o
2451 2 5 2 -7 391.83 399.09 10.13 o
2451 1 -5 -2 -4 391.83 399.09 10.13 o
2452 2 5 2 -6 46.34 52.85 6.12 o
2452 1 -5 -2 -3 46.34 52.85 6.12 o
2453 2 5 2 -5 161.07 141.83 7.35 o
2453 1 -5 -2 -2 161.07 141.83 7.35 o
2454 2 5 2 -4 218.28 218.40 8.13 o
2454 1 -5 -2 -1 218.28 218.40 8.13 o
2455 2 5 2 -3 365.18 387.22 13.98 o
2455 1 -5 -2 0 365.18 387.22 13.98 o
2456 2 5 2 -2 42.32 39.07 8.21 o
2456 1 -5 -2 1 42.32 39.07 8.21 o
2457 2 5 2 -1 117.15 111.26 9.00 o
2457 1 -5 -2 2 117.15 111.26 9.00 o
2458 2 5 2 0 1789.53 1808.78 24.65 o
2458 1 -5 -2 3 1789.53 1808.78 24.65 o
2459 2 5 2 1 464.45 437.83 14.97 o
2459 1 -5 -2 4 464.45 437.83 14.97 o
2460 2 5 2 2 309.57 306.82 13.08 o
2460 1 -5 -2 5 309.57 306.82 13.08 o
2461 2 5 2 3 101.99 102.85 9.43 o
2461 1 -5 -2 6 101.99 102.85 9.43 o
2462 2 5 2 4 355.21 334.42 13.21 o
2462 1 -5 -2 7 355.21 334.42 13.21 o
2463 2 5 2 5 129.77 130.35 9.52 o
2463 1 -5 -2 8 129.77 130.35 9.52 o
2464 2 5 2 6 106.13 130.89 8.71 o
2464 1 -5 -2 9 106.13 130.89 8.71 o
2465 2 5 2 7 116.41 112.42 7.56 o
2465 1 -5 -2 10 116.41 112.42 7.56 o
2466 2 5 2 8 27.97 32.22 4.84 o
2466 1 -5 -2 11 27.97 32.22 4.84 o
2467 2 5 1 -4 49.71 59.39 16.41 o
2467 1 -5 -1 -1 49.71 59.39 16.41 o
2468 2 5 1 -3 82.17 92.07 7.87 o
2468 1 -5 -1 0 82.17 92.07 7.87 o
2469 2 5 1 -2 212.68 217.19 9.06 o
2469 1 -5 -1 1 212.68 217.19 9.06 o
2470 2 5 1 -1 985.70 1000.31 13.79 o
2470 1 -5 -1 2 985.70 1000.31 13.79 o
2471 2 5 1 0 374.03 362.04 10.66 o
2471 1 -5 -1 3 374.03 362.04 10.66 o
2472 2 5 1 1 212.74 203.32 9.04 o
2472 1 -5 -1 4 212.74 203.32 9.04 o
2473 2 5 1 2 444.84 434.56 11.40 o
2473 1 -5 -1 5 444.84 434.56 11.40 o
2474 2 5 1 3 25.76 32.77 6.85 o
2474 1 -5 -1 6 25.76 32.77 6.85 o
2475 2 5 -1 -8 64.38 53.58 8.06 o
2475 1 -5 1 -6 64.38 53.58 8.06 o
2476 2 5 -1 -7 5.53 5.09 7.44 <
2476 1 -5 1 -5 5.53 5.09 7.44 <
2477 2 5 -1 -6 61.99 69.84 8.50 o
2477 1 -5 1 -4 61.99 69.84 8.50 o
2478 2 5 -1 -5 293.05 260.35 25.36 o
2478 1 -5 1 -3 293.05 260.35 25.36 o
2479 2 5 -1 -4 342.81 404.67 28.60 o
2479 1 -5 1 -2 342.81 404.67 28.60 o
2480 2 5 -1 -3 613.81 649.02 32.50 o
2480 1 -5 1 -1 613.81 649.02 32.50 o
2481 2 5 -1 -2 209.55 203.12 22.44 o
2481 1 -5 1 0 209.55 203.12 22.44 o
2482 2 5 -1 -1 270.07 236.51 22.49 o
2482 1 -5 1 1 270.07 236.51 22.49 o
2483 2 5 -1 0 43.20 52.47 17.10 o
2483 1 -5 1 2 43.20 52.47 17.10 o
2484 2 5 -1 1 511.48 490.05 29.63 o
2484 1 -5 1 3 511.48 490.05 29.63 o
2485 2 5 -1 2 711.39 845.52 33.77 o
2485 1 -5 1 4 711.39 845.52 33.77 o
2486 2 5 -1 3 198.12 212.07 22.80 o
2486 1 -5 1 5 198.12 212.07 22.80 o
2487 2 5 -2 -11 50.74 -0.70 3.03 <
2487 1 -5 2 -9 50.74 -0.70 3.03 <
2488 2 5 -2 -10 92.52 93.63 6.22 o
2488 1 -5 2 -8 92.52 93.63 6.22 o
2489 2 5 -2 -9 74.80 82.55 5.19 o
2489 1 -5 2 -7 74.80 82.55 5.19 o
2490 2 5 -2 -8 19.68 22.02 7.06 o
2490 1 -5 2 -6 19.68 22.02 7.06 o
2491 2 5 -2 -7 79.58 78.40 8.70 o
2491 1 -5 2 -5 79.58 78.40 8.70 o
2492 2 5 -2 -6 49.55 41.90 8.18 o
2492 1 -5 2 -4 49.55 41.90 8.18 o
2493 2 5 -2 -5 42.88 37.34 20.88 <
2493 1 -5 2 -3 42.88 37.34 20.88 <
2494 2 5 -2 -4 43.71 20.47 18.09 <
2494 1 -5 2 -2 43.71 20.47 18.09 <
2495 2 5 -2 -3 376.29 350.61 31.74 o
2495 1 -5 2 -1 376.29 350.61 31.74 o
2496 2 5 -2 -2 329.16 329.35 30.08 o
2496 1 -5 2 0 329.16 329.35 30.08 o
2497 2 5 -2 -1 101.28 81.73 19.86 o
2497 1 -5 2 1 101.28 81.73 19.86 o
2498 2 5 -2 0 68.10 88.47 19.78 o
2498 1 -5 2 2 68.10 88.47 19.78 o
2499 2 5 -2 1 487.39 475.51 33.50 o
2499 1 -5 2 3 487.39 475.51 33.50 o
2500 2 5 -2 2 41.80 38.68 17.33 <
2500 1 -5 2 4 41.80 38.68 17.33 <
2501 2 5 -2 3 152.96 142.00 23.87 o
2501 1 -5 2 5 152.96 142.00 23.87 o
2502 2 5 -3 -2 105.22 93.13 19.91 o
2502 1 -5 3 0 105.22 93.13 19.91 o
2503 2 4 6 -2 129.75 144.88 6.93 o
2503 1 -4 -6 1 129.75 144.88 6.93 o
2504 2 4 6 -1 62.70 64.05 6.10 o
2504 1 -4 -6 2 62.70 64.05 6.10 o
2505 2 4 6 0 54.74 46.11 5.76 o
2505 1 -4 -6 3 54.74 46.11 5.76 o
2506 2 4 6 1 46.89 53.14 5.57 o
2506 1 -4 -6 4 46.89 53.14 5.57 o
2507 2 4 6 2 63.74 68.84 5.38 o
2507 1 -4 -6 5 63.74 68.84 5.38 o
2508 2 4 5 -8 279.70 277.44 8.38 o
2508 1 -4 -5 -5 279.70 277.44 8.38 o
2509 2 4 5 -7 210.43 204.78 5.92 o
2509 1 -4 -5 -4 210.43 204.78 5.92 o
2510 2 4 5 -6 42.78 42.51 4.80 o
2510 1 -4 -5 -3 42.78 42.51 4.80 o
2511 2 4 5 -5 12.43 20.95 4.73 o
2511 1 -4 -5 -2 12.43 20.95 4.73 o
2512 2 4 5 -4 94.80 89.07 5.57 o
2512 1 -4 -5 -1 94.80 89.07 5.57 o
2513 2 4 5 -3 118.90 139.96 9.09 o
2513 1 -4 -5 0 118.90 139.96 9.09 o
2514 2 4 5 -2 16.92 20.15 5.42 o
2514 1 -4 -5 1 16.92 20.15 5.42 o
2515 2 4 5 -1 6.09 8.12 5.04 <
2515 1 -4 -5 2 6.09 8.12 5.04 <
2516 2 4 5 0 142.13 157.37 7.14 o
2516 1 -4 -5 3 142.13 157.37 7.14 o
2517 2 4 5 1 20.91 19.95 5.10 o
2517 1 -4 -5 4 20.91 19.95 5.10 o
2518 2 4 5 2 31.51 29.16 4.94 o
2518 1 -4 -5 5 31.51 29.16 4.94 o
2519 2 4 5 3 157.01 164.18 5.95 o
2519 1 -4 -5 6 157.01 164.18 5.95 o
2520 2 4 5 4 314.87 320.55 6.25 o
2520 1 -4 -5 7 314.87 320.55 6.25 o
2521 2 4 5 5 84.21 77.59 5.99 o
2521 1 -4 -5 8 84.21 77.59 5.99 o
2522 2 4 5 6 27.62 24.02 4.33 o
2522 1 -4 -5 9 27.62 24.02 4.33 o
2523 2 4 4 -11 3.11 4.24 4.18 <
2523 1 -4 -4 -8 3.11 4.24 4.18 <
2524 2 4 4 -10 11.69 9.73 3.51 <
2524 1 -4 -4 -7 11.69 9.73 3.51 <
2525 2 4 4 -9 161.75 163.53 6.01 o
2525 1 -4 -4 -6 161.75 163.53 6.01 o
2526 2 4 4 -8 155.77 165.74 5.37 o
2526 1 -4 -4 -5 155.77 165.74 5.37 o
2527 2 4 4 -7 151.47 160.06 7.26 o
2527 1 -4 -4 -4 151.47 160.06 7.26 o
2528 2 4 4 -6 55.96 49.61 5.79 o
2528 1 -4 -4 -3 55.96 49.61 5.79 o
2529 2 4 4 -5 112.25 111.39 6.64 o
2529 1 -4 -4 -2 112.25 111.39 6.64 o
2530 2 4 4 -4 121.80 124.07 6.78 o
2530 1 -4 -4 -1 121.80 124.07 6.78 o
2531 2 4 4 -3 186.18 189.06 11.52 o
2531 1 -4 -4 0 186.18 189.06 11.52 o
2532 2 4 4 -2 200.94 186.51 8.14 o
2532 1 -4 -4 1 200.94 186.51 8.14 o
2533 2 4 4 -1 900.94 910.39 14.32 o
2533 1 -4 -4 2 900.94 910.39 14.32 o
2534 2 4 4 0 909.22 899.28 14.16 o
2534 1 -4 -4 3 909.22 899.28 14.16 o
2535 2 4 4 1 329.64 324.37 9.38 o
2535 1 -4 -4 4 329.64 324.37 9.38 o
2536 2 4 4 2 222.02 215.40 8.17 o
2536 1 -4 -4 5 222.02 215.40 8.17 o
2537 2 4 4 3 187.03 185.29 7.59 o
2537 1 -4 -4 6 187.03 185.29 7.59 o
2538 2 4 4 4 238.83 245.70 11.90 o
2538 1 -4 -4 7 238.83 245.70 11.90 o
2539 2 4 4 5 89.26 101.18 8.82 o
2539 1 -4 -4 8 89.26 101.18 8.82 o
2540 2 4 4 6 193.59 208.59 9.60 o
2540 1 -4 -4 9 193.59 208.59 9.60 o
2541 2 4 4 7 43.19 45.41 6.07 o
2541 1 -4 -4 10 43.19 45.41 6.07 o
2542 2 4 4 8 2.43 1.64 3.82 <
2542 1 -4 -4 11 2.43 1.64 3.82 <
2543 2 4 3 -3 75.03 71.57 7.96 o
2543 1 -4 -3 0 75.03 71.57 7.96 o
2544 2 4 3 -2 435.21 456.48 11.74 o
2544 1 -4 -3 1 435.21 456.48 11.74 o
2545 2 4 3 -1 722.58 748.28 9.63 o
2545 1 -4 -3 2 722.58 748.28 9.63 o
2546 2 4 3 0 101.57 93.16 5.62 o
2546 1 -4 -3 3 101.57 93.16 5.62 o
2547 2 4 3 1 375.70 371.08 11.14 o
2547 1 -4 -3 4 375.70 371.08 11.14 o
2548 2 4 3 2 69.23 70.97 7.92 o
2548 1 -4 -3 5 69.23 70.97 7.92 o
2549 2 4 3 3 20.77 13.39 7.47 <
2549 1 -4 -3 6 20.77 13.39 7.47 <
2550 2 4 1 -8 111.61 91.42 9.12 o
2550 1 -4 -1 -6 111.61 91.42 9.12 o
2551 2 4 1 -7 79.48 82.10 6.00 o
2551 1 -4 -1 -5 79.48 82.10 6.00 o
2552 2 4 1 -6 60.34 51.19 5.14 o
2552 1 -4 -1 -4 60.34 51.19 5.14 o
2553 2 4 1 -5 368.31 371.49 9.35 o
2553 1 -4 -1 -3 368.31 371.49 9.35 o
2554 2 4 1 -4 608.88 640.60 27.84 o
2554 1 -4 -1 -2 608.88 640.60 27.84 o
2555 2 4 1 -3 1088.42 1085.62 32.70 o
2555 1 -4 -1 -1 1088.42 1085.62 32.70 o
2556 2 4 1 -2 151.41 132.31 16.71 o
2556 1 -4 -1 0 151.41 132.31 16.71 o
2557 2 4 1 -1 109.85 97.04 15.15 o
2557 1 -4 -1 1 109.85 97.04 15.15 o
2558 2 4 1 0 251.97 261.14 19.78 o
2558 1 -4 -1 2 251.97 261.14 19.78 o
2559 2 4 1 1 1585.31 1549.55 37.76 o
2559 1 -4 -1 3 1585.31 1549.55 37.76 o
2560 2 4 1 2 715.92 787.63 29.79 o
2560 1 -4 -1 4 715.92 787.63 29.79 o
2561 2 4 1 3 529.74 491.61 10.38 o
2561 1 -4 -1 5 529.74 491.61 10.38 o
2562 2 4 1 4 81.65 93.44 17.01 o
2562 1 -4 -1 6 81.65 93.44 17.01 o
2563 2 4 0 -13 20.82 15.82 3.76 o
2563 1 -4 0 -11 20.82 15.82 3.76 o
2564 2 4 0 -12 111.43 143.42 7.63 o
2564 1 -4 0 -10 111.43 143.42 7.63 o
2565 2 4 0 -11 102.08 111.50 8.74 o
2565 1 -4 0 -9 102.08 111.50 8.74 o
2566 2 4 0 -10 271.62 287.05 12.49 o
2566 1 -4 0 -8 271.62 287.05 12.49 o
2567 2 4 0 -9 13.07 17.76 7.92 <
2567 1 -4 0 -7 13.07 17.76 7.92 <
2568 2 4 0 -8 275.35 299.72 13.35 o
2568 1 -4 0 -6 275.35 299.72 13.35 o
2569 2 4 0 -7 50.85 56.89 5.78 o
2569 1 -4 0 -5 50.85 56.89 5.78 o
2570 2 4 0 -6 104.44 99.31 6.09 o
2570 1 -4 0 -4 104.44 99.31 6.09 o
2571 2 4 0 -5 44.43 38.77 16.03 <
2571 1 -4 0 -3 44.43 38.77 16.03 <
2572 2 4 0 -4 353.58 355.73 27.30 o
2572 1 -4 0 -2 353.58 355.73 27.30 o
2573 2 4 0 -3 489.05 489.65 30.38 o
2573 1 -4 0 -1 489.05 489.65 30.38 o
2574 2 4 0 -2 379.26 359.13 26.42 o
2574 1 -4 0 0 379.26 359.13 26.42 o
2575 2 4 0 -1 47.23 52.56 15.52 o
2575 1 -4 0 1 47.23 52.56 15.52 o
2576 2 4 0 0 273.30 271.65 23.61 o
2576 1 -4 0 2 273.30 271.65 23.61 o
2577 2 4 0 1 325.49 299.38 24.69 o
2577 1 -4 0 3 325.49 299.38 24.69 o
2578 2 4 0 2 217.38 222.98 23.05 o
2578 1 -4 0 4 217.38 222.98 23.05 o
2579 2 4 0 3 139.44 151.74 20.65 o
2579 1 -4 0 5 139.44 151.74 20.65 o
2580 2 4 0 4 358.00 347.53 28.16 o
2580 1 -4 0 6 358.00 347.53 28.16 o
2581 2 4 0 5 178.48 153.51 22.78 o
2581 1 -4 0 7 178.48 153.51 22.78 o
2582 2 4 0 10 218.76 247.49 8.30 o
2582 1 -4 0 12 218.76 247.49 8.30 o
2583 2 4 -3 -4 267.81 245.73 21.54 o
2583 1 -4 3 -3 267.81 245.73 21.54 o
2584 2 4 -3 -3 370.31 398.81 24.81 o
2584 1 -4 3 -2 370.31 398.81 24.81 o
2585 2 4 -3 -2 936.58 981.87 32.52 o
2585 1 -4 3 -1 936.58 981.87 32.52 o
2586 2 4 -3 -1 157.22 135.14 17.01 o
2586 1 -4 3 0 157.22 135.14 17.01 o
2587 2 4 -3 0 190.78 182.35 17.72 o
2587 1 -4 3 1 190.78 182.35 17.72 o
2588 2 4 -3 1 365.14 348.83 20.28 o
2588 1 -4 3 2 365.14 348.83 20.28 o
2589 2 4 -3 2 198.41 196.65 17.47 o
2589 1 -4 3 3 198.41 196.65 17.47 o
2590 2 4 -4 -11 16.78 12.39 4.17 <
2590 1 -4 4 -10 16.78 12.39 4.17 <
2591 2 4 -4 -10 44.44 44.73 6.33 o
2591 1 -4 4 -9 44.44 44.73 6.33 o
2592 2 4 -4 -4 194.87 183.57 17.70 o
2592 1 -4 4 -3 194.87 183.57 17.70 o
2593 2 4 -4 -3 295.60 302.44 28.28 o
2593 1 -4 4 -2 295.60 302.44 28.28 o
2594 2 3 7 -7 29.32 28.19 3.97 o
2594 1 -3 -7 -4 29.32 28.19 3.97 o
2595 2 3 7 -6 34.76 32.91 4.67 o
2595 1 -3 -7 -3 34.76 32.91 4.67 o
2596 2 3 7 -5 54.14 51.96 5.34 o
2596 1 -3 -7 -2 54.14 51.96 5.34 o
2597 2 3 7 -4 52.31 46.59 5.68 o
2597 1 -3 -7 -1 52.31 46.59 5.68 o
2598 2 3 7 -3 15.30 19.49 5.19 o
2598 1 -3 -7 0 15.30 19.49 5.19 o
2599 2 3 7 -2 9.29 6.68 4.90 <
2599 1 -3 -7 1 9.29 6.68 4.90 <
2600 2 3 7 -1 34.43 35.60 6.89 o
2600 1 -3 -7 2 34.43 35.60 6.89 o
2601 2 3 7 0 9.03 11.30 6.31 <
2601 1 -3 -7 3 9.03 11.30 6.31 <
2602 2 3 7 1 14.74 11.92 5.70 <
2602 1 -3 -7 4 14.74 11.92 5.70 <
2603 2 3 7 2 69.36 70.68 6.37 o
2603 1 -3 -7 5 69.36 70.68 6.37 o
2604 2 3 7 3 173.33 188.91 6.54 o
2604 1 -3 -7 6 173.33 188.91 6.54 o
2605 2 3 6 -9 154.57 159.29 6.89 o
2605 1 -3 -6 -6 154.57 159.29 6.89 o
2606 2 3 6 -8 37.53 30.15 6.20 o
2606 1 -3 -6 -5 37.53 30.15 6.20 o
2607 2 3 6 -7 26.54 29.73 6.53 o
2607 1 -3 -6 -4 26.54 29.73 6.53 o
2608 2 3 6 -6 74.63 69.89 5.17 o
2608 1 -3 -6 -3 74.63 69.89 5.17 o
2609 2 3 6 -5 45.49 45.74 4.94 o
2609 1 -3 -6 -2 45.49 45.74 4.94 o
2610 2 3 6 -4 54.71 55.36 5.23 o
2610 1 -3 -6 -1 54.71 55.36 5.23 o
2611 2 3 6 -3 97.02 103.16 5.11 o
2611 1 -3 -6 0 97.02 103.16 5.11 o
2612 2 3 6 -2 293.33 317.18 8.79 o
2612 1 -3 -6 1 293.33 317.18 8.79 o
2613 2 3 6 -1 590.72 622.23 17.86 o
2613 1 -3 -6 2 590.72 622.23 17.86 o
2614 2 3 6 0 364.22 395.37 14.77 o
2614 1 -3 -6 3 364.22 395.37 14.77 o
2615 2 3 6 1 180.80 188.18 11.32 o
2615 1 -3 -6 4 180.80 188.18 11.32 o
2616 2 3 6 2 106.90 99.47 9.39 o
2616 1 -3 -6 5 106.90 99.47 9.39 o
2617 2 3 6 3 212.98 226.87 10.98 o
2617 1 -3 -6 6 212.98 226.87 10.98 o
2618 2 3 6 4 82.69 79.41 7.61 o
2618 1 -3 -6 7 82.69 79.41 7.61 o
2619 2 3 6 5 74.48 72.07 6.43 o
2619 1 -3 -6 8 74.48 72.07 6.43 o
2620 2 3 6 6 89.18 91.83 5.34 o
2620 1 -3 -6 9 89.18 91.83 5.34 o
2621 2 3 5 -6 40.40 43.82 7.56 o
2621 1 -3 -5 -3 40.40 43.82 7.56 o
2622 2 3 5 -5 25.30 19.04 7.08 <
2622 1 -3 -5 -2 25.30 19.04 7.08 <
2623 2 3 5 -4 11.94 9.08 6.64 <
2623 1 -3 -5 -1 11.94 9.08 6.64 <
2624 2 3 5 -3 195.42 213.35 7.13 o
2624 1 -3 -5 0 195.42 213.35 7.13 o
2625 2 3 5 -2 252.28 257.89 10.11 o
2625 1 -3 -5 1 252.28 257.89 10.11 o
2626 2 3 5 -1 174.36 186.62 9.30 o
2626 1 -3 -5 2 174.36 186.62 9.30 o
2627 2 3 5 0 156.18 159.64 6.60 o
2627 1 -3 -5 3 156.18 159.64 6.60 o
2628 2 3 5 1 37.06 38.98 5.42 o
2628 1 -3 -5 4 37.06 38.98 5.42 o
2629 2 3 5 2 19.84 23.67 6.65 o
2629 1 -3 -5 5 19.84 23.67 6.65 o
2630 2 3 5 3 9.87 6.26 6.36 <
2630 1 -3 -5 6 9.87 6.26 6.36 <
2631 2 3 3 -7 31.64 27.44 7.61 o
2631 1 -3 -3 -5 31.64 27.44 7.61 o
2632 2 3 3 -6 69.22 69.42 5.26 o
2632 1 -3 -3 -4 69.22 69.42 5.26 o
2633 2 3 3 -5 304.62 287.76 9.04 o
2633 1 -3 -3 -3 304.62 287.76 9.04 o
2634 2 3 3 -4 1063.02 1145.15 30.68 o
2634 1 -3 -3 -2 1063.02 1145.15 30.68 o
2635 2 3 3 -3 451.20 1054.80 27.47 o
2635 1 -3 -3 -1 451.20 1054.80 27.47 o
2636 2 3 3 -2 197.17 210.93 15.39 o
2636 1 -3 -3 0 197.17 210.93 15.39 o
2637 2 3 3 0 839.86 883.38 23.65 o
2637 1 -3 -3 2 839.86 883.38 23.65 o
2638 2 3 3 1 1033.89 1070.54 27.58 o
2638 1 -3 -3 3 1033.89 1070.54 27.58 o
2639 2 3 3 2 1230.33 1287.86 31.92 o
2639 1 -3 -3 4 1230.33 1287.86 31.92 o
2640 2 3 3 3 222.41 197.45 6.13 o
2640 1 -3 -3 5 222.41 197.45 6.13 o
2641 2 3 3 4 23.06 32.49 6.73 o
2641 1 -3 -3 6 23.06 32.49 6.73 o
2642 2 3 2 -13 57.46 64.21 5.65 o
2642 1 -3 -2 -11 57.46 64.21 5.65 o
2643 2 3 2 -12 78.40 90.56 7.87 o
2643 1 -3 -2 -10 78.40 90.56 7.87 o
2644 2 3 2 -11 292.70 315.54 12.72 o
2644 1 -3 -2 -9 292.70 315.54 12.72 o
2645 2 3 2 -10 120.59 124.22 10.53 o
2645 1 -3 -2 -8 120.59 124.22 10.53 o
2646 2 3 2 -9 176.34 185.93 11.76 o
2646 1 -3 -2 -7 176.34 185.93 11.76 o
2647 2 3 2 -8 351.29 384.41 9.71 o
2647 1 -3 -2 -6 351.29 384.41 9.71 o
2648 2 3 2 -7 7.45 7.86 4.78 <
2648 1 -3 -2 -5 7.45 7.86 4.78 <
2649 2 3 2 -6 158.57 159.00 8.58 o
2649 1 -3 -2 -4 158.57 159.00 8.58 o
2650 2 3 2 -5 71.51 67.40 13.71 o
2650 1 -3 -2 -3 71.51 67.40 13.71 o
2651 2 3 2 -4 602.66 586.27 18.42 o
2651 1 -3 -2 -2 602.66 586.27 18.42 o
2652 2 3 2 -3 143.45 115.48 9.68 o
2652 1 -3 -2 -1 143.45 115.48 9.68 o
2653 2 3 2 -2 402.64 415.02 14.15 o
2653 1 -3 -2 0 402.64 415.02 14.15 o
2654 2 3 2 -1 179.86 328.77 17.92 o
2654 1 -3 -2 1 179.86 328.77 17.92 o
2655 2 3 2 0 254.63 233.42 18.23 o
2655 1 -3 -2 2 254.63 233.42 18.23 o
2656 2 3 2 1 281.72 316.88 21.52 o
2656 1 -3 -2 3 281.72 316.88 21.52 o
2657 2 3 2 2 160.60 137.11 17.37 o
2657 1 -3 -2 4 160.60 137.11 17.37 o
2658 2 3 2 3 116.71 107.63 17.03 o
2658 1 -3 -2 5 116.71 107.63 17.03 o
2659 2 3 2 4 357.43 355.93 26.71 o
2659 1 -3 -2 6 357.43 355.93 26.71 o
2660 2 3 2 11 32.08 40.75 4.95 o
2660 1 -3 -2 13 32.08 40.75 4.95 o
2661 2 3 -1 -3 1822.51 1844.44 34.46 o
2661 1 -3 1 -2 1822.51 1844.44 34.46 o
2662 2 3 -1 -2 709.97 653.13 21.47 o
2662 1 -3 1 -1 709.97 653.13 21.47 o
2663 2 3 -2 -13 10.49 8.05 4.06 <
2663 1 -3 2 -12 10.49 8.05 4.06 <
2664 2 3 -2 -12 12.98 14.37 5.62 <
2664 1 -3 2 -11 12.98 14.37 5.62 <
2665 2 3 -2 -11 23.73 22.02 6.94 o
2665 1 -3 2 -10 23.73 22.02 6.94 o
2666 2 3 -2 -10 239.43 238.36 12.14 o
2666 1 -3 2 -9 239.43 238.36 12.14 o
2667 2 3 -2 -9 40.98 43.53 8.35 o
2667 1 -3 2 -8 40.98 43.53 8.35 o
2668 2 3 -2 -8 228.52 223.93 27.06 o
2668 1 -3 2 -7 228.52 223.93 27.06 o
2669 2 3 -2 -7 692.66 691.77 39.18 o
2669 1 -3 2 -6 692.66 691.77 39.18 o
2670 2 3 -2 -6 222.70 217.37 23.72 o
2670 1 -3 2 -5 222.70 217.37 23.72 o
2671 2 3 -2 -5 635.19 586.70 32.35 o
2671 1 -3 2 -4 635.19 586.70 32.35 o
2672 2 3 -2 -4 371.22 394.12 25.77 o
2672 1 -3 2 -3 371.22 394.12 25.77 o
2673 2 3 -2 -3 824.71 887.58 33.87 o
2673 1 -3 2 -2 824.71 887.58 33.87 o
2674 2 3 -2 -2 16.45 18.26 11.35 <
2674 1 -3 2 -1 16.45 18.26 11.35 <
2675 2 3 -2 -1 50.95 53.02 13.63 o
2675 1 -3 2 0 50.95 53.02 13.63 o
2676 2 3 -2 0 26.04 23.69 11.81 <
2676 1 -3 2 1 26.04 23.69 11.81 <
2677 2 3 -2 1 51.29 43.03 12.37 o
2677 1 -3 2 2 51.29 43.03 12.37 o
2678 2 3 -2 2 721.31 711.98 29.00 o
2678 1 -3 2 3 721.31 711.98 29.00 o
2679 2 3 -2 3 136.43 115.25 15.12 o
2679 1 -3 2 4 136.43 115.25 15.12 o
2680 2 3 -2 4 240.35 235.42 19.94 o
2680 1 -3 2 5 240.35 235.42 19.94 o
2681 2 3 -2 5 267.43 313.79 23.08 o
2681 1 -3 2 6 267.43 313.79 23.08 o
2682 2 3 -2 6 149.90 168.96 20.23 o
2682 1 -3 2 7 149.90 168.96 20.23 o
2683 2 3 -6 -9 5.39 3.87 3.67 <
2683 1 -3 6 -9 5.39 3.87 3.67 <
2684 2 3 -6 -8 19.66 22.04 5.18 o
2684 1 -3 6 -8 19.66 22.04 5.18 o
2685 2 2 8 -5 42.75 42.36 4.65 o
2685 1 -2 -8 -2 42.75 42.36 4.65 o
2686 2 2 8 -4 5.69 6.92 4.42 <
2686 1 -2 -8 -1 5.69 6.92 4.42 <
2687 2 2 8 -3 89.28 95.26 5.94 o
2687 1 -2 -8 0 89.28 95.26 5.94 o
2688 2 2 8 1 26.92 36.14 4.96 o
2688 1 -2 -8 4 26.92 36.14 4.96 o
2689 2 2 8 2 116.45 111.57 5.68 o
2689 1 -2 -8 5 116.45 111.57 5.68 o
2690 2 2 7 -5 22.28 20.79 6.42 o
2690 1 -2 -7 -2 22.28 20.79 6.42 o
2691 2 2 7 -4 90.87 99.79 7.81 o
2691 1 -2 -7 -1 90.87 99.79 7.81 o
2692 2 2 7 -3 61.06 67.99 7.68 o
2692 1 -2 -7 0 61.06 67.99 7.68 o
2693 2 2 7 -2 51.70 60.53 5.36 o
2693 1 -2 -7 1 51.70 60.53 5.36 o
2694 2 2 7 -1 74.43 98.00 8.40 o
2694 1 -2 -7 2 74.43 98.00 8.40 o
2695 2 2 7 0 15.49 24.24 6.99 o
2695 1 -2 -7 3 15.49 24.24 6.99 o
2696 2 2 7 1 19.66 17.71 6.75 <
2696 1 -2 -7 4 19.66 17.71 6.75 <
2697 2 2 7 2 11.33 8.04 6.55 <
2697 1 -2 -7 5 11.33 8.04 6.55 <
2698 2 2 7 3 20.55 28.21 6.29 o
2698 1 -2 -7 6 20.55 28.21 6.29 o
2699 2 2 5 -7 6.73 2.42 7.49 <
2699 1 -2 -5 -5 6.73 2.42 7.49 <
2700 2 2 5 -6 115.12 117.71 6.17 o
2700 1 -2 -5 -4 115.12 117.71 6.17 o
2701 2 2 5 -5 297.81 312.92 7.46 o
2701 1 -2 -5 -3 297.81 312.92 7.46 o
2702 2 2 5 -4 492.79 522.87 7.19 o
2702 1 -2 -5 -2 492.79 522.87 7.19 o
2703 2 2 5 -3 176.70 186.62 6.58 o
2703 1 -2 -5 -1 176.70 186.62 6.58 o
2704 2 2 5 -2 280.74 262.87 7.06 o
2704 1 -2 -5 0 280.74 262.87 7.06 o
2705 2 2 5 -1 595.83 633.97 9.25 o
2705 1 -2 -5 1 595.83 633.97 9.25 o
2706 2 2 5 0 477.60 469.88 8.77 o
2706 1 -2 -5 2 477.60 469.88 8.77 o
2707 2 2 5 1 878.66 882.00 17.97 o
2707 1 -2 -5 3 878.66 882.00 17.97 o
2708 2 2 5 2 417.98 442.71 13.08 o
2708 1 -2 -5 4 417.98 442.71 13.08 o
2709 2 2 5 3 82.52 83.80 8.84 o
2709 1 -2 -5 5 82.52 83.80 8.84 o
2710 2 2 5 4 33.48 27.86 5.16 o
2710 1 -2 -5 6 33.48 27.86 5.16 o
2711 2 2 5 5 27.24 32.36 5.03 o
2711 1 -2 -5 7 27.24 32.36 5.03 o
2712 2 2 5 6 15.97 12.73 6.02 <
2712 1 -2 -5 8 15.97 12.73 6.02 <
2713 2 2 4 -12 85.93 83.07 4.21 o
2713 1 -2 -4 -10 85.93 83.07 4.21 o
2714 2 2 4 -11 165.41 163.78 6.23 o
2714 1 -2 -4 -9 165.41 163.78 6.23 o
2715 2 2 4 -10 116.07 125.75 6.47 o
2715 1 -2 -4 -8 116.07 125.75 6.47 o
2716 2 2 4 -9 496.89 550.39 15.46 o
2716 1 -2 -4 -7 496.89 550.39 15.46 o
2717 2 2 4 -8 44.17 47.06 7.89 o
2717 1 -2 -4 -6 44.17 47.06 7.89 o
2718 2 2 4 -7 73.41 78.24 5.79 o
2718 1 -2 -4 -5 73.41 78.24 5.79 o
2719 2 2 4 -6 33.72 28.68 6.59 o
2719 1 -2 -4 -4 33.72 28.68 6.59 o
2720 2 2 4 -5 208.23 197.20 9.34 o
2720 1 -2 -4 -3 208.23 197.20 9.34 o
2721 2 2 4 -4 95.08 76.26 5.63 o
2721 1 -2 -4 -2 95.08 76.26 5.63 o
2722 2 2 4 -3 115.67 97.92 18.05 o
2722 1 -2 -4 -1 115.67 97.92 18.05 o
2723 2 2 4 -2 284.80 300.23 24.23 o
2723 1 -2 -4 0 284.80 300.23 24.23 o
2724 2 2 4 -1 63.22 28.22 14.09 <
2724 1 -2 -4 1 63.22 28.22 14.09 <
2725 2 2 4 0 254.43 278.97 22.75 o
2725 1 -2 -4 2 254.43 278.97 22.75 o
2726 2 2 4 2 30.49 29.49 7.23 o
2726 1 -2 -4 4 30.49 29.49 7.23 o
2727 2 2 4 3 226.22 230.21 7.70 o
2727 1 -2 -4 5 226.22 230.21 7.70 o
2728 2 2 4 4 62.67 63.03 5.66 o
2728 1 -2 -4 6 62.67 63.03 5.66 o
2729 2 2 4 5 57.85 61.26 8.61 o
2729 1 -2 -4 7 57.85 61.26 8.61 o
2730 2 2 4 6 17.50 14.54 7.42 <
2730 1 -2 -4 8 17.50 14.54 7.42 <
2731 2 2 4 7 667.89 683.23 17.36 o
2731 1 -2 -4 9 667.89 683.23 17.36 o
2732 2 2 4 8 286.69 270.39 11.22 o
2732 1 -2 -4 10 286.69 270.39 11.22 o
2733 2 2 4 9 105.36 120.52 5.37 o
2733 1 -2 -4 11 105.36 120.52 5.37 o
2734 2 2 4 10 113.93 115.62 5.86 o
2734 1 -2 -4 12 113.93 115.62 5.86 o
2735 2 2 0 -13 16.48 15.76 5.18 o
2735 1 -2 0 -12 16.48 15.76 5.18 o
2736 2 2 0 -12 55.58 61.45 5.46 o
2736 1 -2 0 -11 55.58 61.45 5.46 o
2737 2 2 0 -11 35.65 38.54 5.69 o
2737 1 -2 0 -10 35.65 38.54 5.69 o
2738 2 2 0 -10 231.18 235.34 8.51 o
2738 1 -2 0 -9 231.18 235.34 8.51 o
2739 2 2 0 -9 240.16 249.28 7.96 o
2739 1 -2 0 -8 240.16 249.28 7.96 o
2740 2 2 0 -8 431.30 452.66 9.16 o
2740 1 -2 0 -7 431.30 452.66 9.16 o
2741 2 2 0 -7 338.81 342.03 24.12 o
2741 1 -2 0 -6 338.81 342.03 24.12 o
2742 2 2 0 -6 486.85 475.69 25.44 o
2742 1 -2 0 -5 486.85 475.69 25.44 o
2743 2 2 0 -5 581.78 553.97 25.02 o
2743 1 -2 0 -4 581.78 553.97 25.02 o
2744 2 2 0 -4 1292.57 1351.77 34.70 o
2744 1 -2 0 -3 1292.57 1351.77 34.70 o
2745 2 2 0 -3 607.33 589.58 22.52 o
2745 1 -2 0 -2 607.33 589.58 22.52 o
2746 2 2 0 -2 123.98 112.15 12.88 o
2746 1 -2 0 -1 123.98 112.15 12.88 o
2747 2 2 0 -1 1.51 0.55 3.66 <
2747 1 -2 0 0 1.51 0.55 3.66 <
2748 2 2 0 0 3.09 6.10 10.37 <
2748 1 -2 0 1 3.09 6.10 10.37 <
2749 2 2 0 1 616.12 588.32 21.96 o
2749 1 -2 0 2 616.12 588.32 21.96 o
2750 2 2 0 2 805.43 826.56 26.24 o
2750 1 -2 0 3 805.43 826.56 26.24 o
2751 2 2 0 3 300.97 309.91 19.52 o
2751 1 -2 0 4 300.97 309.91 19.52 o
2752 2 2 0 4 1041.47 1061.60 34.31 o
2752 1 -2 0 5 1041.47 1061.60 34.31 o
2753 2 2 0 5 171.21 185.39 18.82 o
2753 1 -2 0 6 171.21 185.39 18.82 o
2754 2 2 -4 -12 38.06 38.90 4.32 o
2754 1 -2 4 -12 38.06 38.90 4.32 o
2755 2 2 -4 -11 44.00 38.43 6.04 o
2755 1 -2 4 -11 44.00 38.43 6.04 o
2756 2 2 -4 -10 19.80 12.77 6.50 <
2756 1 -2 4 -10 19.80 12.77 6.50 <
2757 2 2 -4 -9 54.51 46.29 8.10 o
2757 1 -2 4 -9 54.51 46.29 8.10 o
2758 2 2 -4 -7 42.93 41.18 19.47 <
2758 1 -2 4 -7 42.93 41.18 19.47 <
2759 2 2 -4 -6 208.36 219.64 24.85 o
2759 1 -2 4 -6 208.36 219.64 24.85 o
2760 2 2 -4 -5 43.89 41.04 11.87 o
2760 1 -2 4 -5 43.89 41.04 11.87 o
2761 2 2 -4 -4 47.46 42.97 14.81 <
2761 1 -2 4 -4 47.46 42.97 14.81 <
2762 2 2 -4 -3 107.27 97.83 15.85 o
2762 1 -2 4 -3 107.27 97.83 15.85 o
2763 2 2 -4 -2 351.06 372.45 21.34 o
2763 1 -2 4 -2 351.06 372.45 21.34 o
2764 2 1 7 -7 20.90 19.36 4.86 o
2764 1 -1 -7 -5 20.90 19.36 4.86 o
2765 2 1 7 -6 70.34 70.65 4.65 o
2765 1 -1 -7 -4 70.34 70.65 4.65 o
2766 2 1 7 -5 219.12 218.15 6.05 o
2766 1 -1 -7 -3 219.12 218.15 6.05 o
2767 2 1 7 -4 42.89 51.41 8.08 o
2767 1 -1 -7 -2 42.89 51.41 8.08 o
2768 2 1 7 -3 85.93 92.01 8.73 o
2768 1 -1 -7 -1 85.93 92.01 8.73 o
2769 2 1 7 -2 228.75 238.87 7.26 o
2769 1 -1 -7 0 228.75 238.87 7.26 o
2770 2 1 7 -1 240.41 267.84 7.62 o
2770 1 -1 -7 1 240.41 267.84 7.62 o
2771 2 1 7 0 328.22 360.23 8.31 o
2771 1 -1 -7 2 328.22 360.23 8.31 o
2772 2 1 7 1 322.09 343.75 8.25 o
2772 1 -1 -7 3 322.09 343.75 8.25 o
2773 2 1 7 2 39.11 46.13 7.59 o
2773 1 -1 -7 4 39.11 46.13 7.59 o
2774 2 1 7 3 44.61 44.79 7.45 o
2774 1 -1 -7 5 44.61 44.79 7.45 o
2775 2 1 7 4 45.00 45.79 6.81 o
2775 1 -1 -7 6 45.00 45.79 6.81 o
2776 2 1 7 5 5.63 3.50 5.85 <
2776 1 -1 -7 7 5.63 3.50 5.85 <
2777 2 1 6 -11 130.34 127.78 4.87 o
2777 1 -1 -6 -9 130.34 127.78 4.87 o
2778 2 1 6 -10 124.13 124.02 4.61 o
2778 1 -1 -6 -8 124.13 124.02 4.61 o
2779 2 1 6 -9 202.52 219.75 6.71 o
2779 1 -1 -6 -7 202.52 219.75 6.71 o
2780 2 1 6 -8 101.72 107.36 6.06 o
2780 1 -1 -6 -6 101.72 107.36 6.06 o
2781 2 1 6 -7 15.11 20.45 5.00 o
2781 1 -1 -6 -5 15.11 20.45 5.00 o
2782 2 1 6 -6 14.05 18.47 5.23 o
2782 1 -1 -6 -4 14.05 18.47 5.23 o
2783 2 1 6 -5 66.04 66.94 6.00 o
2783 1 -1 -6 -3 66.04 66.94 6.00 o
2784 2 1 6 -4 22.73 19.33 4.20 o
2784 1 -1 -6 -2 22.73 19.33 4.20 o
2785 2 1 6 -3 61.32 47.33 5.94 o
2785 1 -1 -6 -1 61.32 47.33 5.94 o
2786 2 1 6 -2 47.84 51.93 6.18 o
2786 1 -1 -6 0 47.84 51.93 6.18 o
2787 2 1 6 -1 94.46 93.66 6.92 o
2787 1 -1 -6 1 94.46 93.66 6.92 o
2788 2 1 6 0 102.06 110.76 7.19 o
2788 1 -1 -6 2 102.06 110.76 7.19 o
2789 2 1 6 1 16.50 11.35 5.52 <
2789 1 -1 -6 3 16.50 11.35 5.52 <
2790 2 1 6 2 11.70 9.78 5.65 <
2790 1 -1 -6 4 11.70 9.78 5.65 <
2791 2 1 6 3 69.78 73.13 9.51 o
2791 1 -1 -6 5 69.78 73.13 9.51 o
2792 2 1 6 4 29.17 27.65 8.13 o
2792 1 -1 -6 6 29.17 27.65 8.13 o
2793 2 1 6 5 11.44 14.72 7.55 <
2793 1 -1 -6 7 11.44 14.72 7.55 <
2794 2 1 6 6 190.46 201.12 11.00 o
2794 1 -1 -6 8 190.46 201.12 11.00 o
2795 2 1 6 7 551.21 563.72 14.52 o
2795 1 -1 -6 9 551.21 563.72 14.52 o
2796 2 1 6 8 48.18 52.49 6.20 o
2796 1 -1 -6 10 48.18 52.49 6.20 o
2797 2 1 6 9 121.94 122.25 5.21 o
2797 1 -1 -6 11 121.94 122.25 5.21 o
2798 2 1 5 -6 166.27 147.76 21.53 o
2798 1 -1 -5 -4 166.27 147.76 21.53 o
2799 2 1 5 -5 51.42 36.75 16.81 <
2799 1 -1 -5 -3 51.42 36.75 16.81 <
2800 2 1 5 -4 221.92 207.06 8.70 o
2800 1 -1 -5 -2 221.92 207.06 8.70 o
2801 2 1 5 -3 112.51 125.93 7.23 o
2801 1 -1 -5 -1 112.51 125.93 7.23 o
2802 2 1 5 -2 15.21 11.64 6.18 <
2802 1 -1 -5 0 15.21 11.64 6.18 <
2803 2 1 5 -1 17.37 6.34 6.24 <
2803 1 -1 -5 1 17.37 6.34 6.24 <
2804 2 1 5 0 37.51 41.27 7.25 o
2804 1 -1 -5 2 37.51 41.27 7.25 o
2805 2 1 5 1 36.77 40.68 7.38 o
2805 1 -1 -5 3 36.77 40.68 7.38 o
2806 2 1 5 2 249.99 248.85 9.99 o
2806 1 -1 -5 4 249.99 248.85 9.99 o
2807 2 1 3 -4 1164.84 1187.12 29.47 o
2807 1 -1 -3 -3 1164.84 1187.12 29.47 o
2808 2 1 3 -3 250.10 272.67 16.44 o
2808 1 -1 -3 -2 250.10 272.67 16.44 o
2809 2 1 2 -14 3.30 5.71 3.78 <
2809 1 -1 -2 -13 3.30 5.71 3.78 <
2810 2 1 2 -13 13.32 16.56 5.87 <
2810 1 -1 -2 -12 13.32 16.56 5.87 <
2811 2 1 2 -12 33.31 41.41 7.88 o
2811 1 -1 -2 -11 33.31 41.41 7.88 o
2812 2 1 2 -11 86.81 106.43 10.30 o
2812 1 -1 -2 -10 86.81 106.43 10.30 o
2813 2 1 2 -10 237.93 264.20 13.26 o
2813 1 -1 -2 -9 237.93 264.20 13.26 o
2814 2 1 2 -9 150.65 170.65 7.14 o
2814 1 -1 -2 -8 150.65 170.65 7.14 o
2815 2 1 2 -8 188.25 194.82 6.94 o
2815 1 -1 -2 -7 188.25 194.82 6.94 o
2816 2 1 2 -5 761.29 778.77 31.12 o
2816 1 -1 -2 -4 761.29 778.77 31.12 o
2817 2 1 2 -4 1492.39 1496.32 37.93 o
2817 1 -1 -2 -3 1492.39 1496.32 37.93 o
2818 2 1 2 -3 441.34 412.07 20.18 o
2818 1 -1 -2 -2 441.34 412.07 20.18 o
2819 2 1 2 -2 96.40 108.85 5.91 o
2819 1 -1 -2 -1 96.40 108.85 5.91 o
2820 2 1 2 -1 103.83 100.11 6.03 o
2820 1 -1 -2 0 103.83 100.11 6.03 o
2821 2 1 2 0 477.99 457.72 11.04 o
2821 1 -1 -2 1 477.99 457.72 11.04 o
2822 2 1 2 1 313.71 289.41 10.55 o
2822 1 -1 -2 2 313.71 289.41 10.55 o
2823 2 1 2 2 381.21 383.59 17.78 o
2823 1 -1 -2 3 381.21 383.59 17.78 o
2824 2 1 2 10 133.05 149.27 9.77 o
2824 1 -1 -2 11 133.05 149.27 9.77 o
2825 2 1 -2 -13 100.85 115.82 4.55 o
2825 1 -1 2 -13 100.85 115.82 4.55 o
2826 2 1 -2 -12 44.85 49.51 7.21 o
2826 1 -1 2 -12 44.85 49.51 7.21 o
2827 2 1 -2 -11 0.80 3.51 6.98 <
2827 1 -1 2 -11 0.80 3.51 6.98 <
2828 2 1 -2 -10 57.52 47.87 8.30 o
2828 1 -1 2 -10 57.52 47.87 8.30 o
2829 2 1 -2 -9 18.65 21.57 6.95 o
2829 1 -1 2 -9 18.65 21.57 6.95 o
2830 2 1 -2 -8 44.49 48.05 6.62 o
2830 1 -1 2 -8 44.49 48.05 6.62 o
2831 2 1 -2 -7 220.50 205.33 22.84 o
2831 1 -1 2 -7 220.50 205.33 22.84 o
2832 2 1 -2 -6 687.92 699.04 33.66 o
2832 1 -1 2 -6 687.92 699.04 33.66 o
2833 2 1 -2 -5 199.53 271.32 21.26 o
2833 1 -1 2 -5 199.53 271.32 21.26 o
2834 2 1 -2 -4 28.46 39.80 12.58 o
2834 1 -1 2 -4 28.46 39.80 12.58 o
2835 2 1 -2 -3 57.24 55.30 12.05 o
2835 1 -1 2 -3 57.24 55.30 12.05 o
2836 2 1 -2 -2 788.42 798.45 23.65 o
2836 1 -1 2 -2 788.42 798.45 23.65 o
2837 2 1 -2 -1 3671.45 3791.28 41.65 o
2837 1 -1 2 -1 3671.45 3791.28 41.65 o
2838 2 1 -2 0 13546.40 14032.30 67.21 o
2838 1 -1 2 0 13546.40 14032.30 67.21 o
2839 2 1 -2 1 13689.00 14120.50 255.60 o
2839 1 -1 2 1 13689.00 14120.50 255.60 o
2840 2 1 -2 2 1290.77 1355.04 21.06 o
2840 1 -1 2 2 1290.77 1355.04 21.06 o
2841 2 1 -2 3 254.53 271.33 9.04 o
2841 1 -1 2 3 254.53 271.33 9.04 o
2842 2 0 8 -6 13.15 13.73 3.06 o
2842 1 0 -8 -4 13.15 13.73 3.06 o
2843 2 0 8 -5 8.21 8.14 3.43 <
2843 1 0 -8 -3 8.21 8.14 3.43 <
2844 2 0 8 -4 8.25 7.07 3.67 <
2844 1 0 -8 -2 8.25 7.07 3.67 <
2845 2 0 8 -3 0.35 2.09 3.51 <
2845 1 0 -8 -1 0.35 2.09 3.51 <
2846 2 0 8 -2 71.95 84.61 8.55 o
2846 1 0 -8 0 71.95 84.61 8.55 o
2847 2 0 8 -1 19.90 30.45 7.77 o
2847 1 0 -8 1 19.90 30.45 7.77 o
2848 2 0 8 1 1.38 0.06 4.91 <
2848 1 0 -8 3 1.38 0.06 4.91 <
2849 2 0 8 2 21.64 19.41 5.10 o
2849 1 0 -8 4 21.64 19.41 5.10 o
2850 2 0 8 3 7.99 7.61 4.45 <
2850 1 0 -8 5 7.99 7.61 4.45 <
2851 2 0 8 4 10.25 8.55 4.06 <
2851 1 0 -8 6 10.25 8.55 4.06 <
2852 2 0 7 -7 72.84 76.66 6.76 o
2852 1 0 -7 -5 72.84 76.66 6.76 o
2853 2 0 7 -6 34.92 29.87 6.61 o
2853 1 0 -7 -4 34.92 29.87 6.61 o
2854 2 0 7 -5 50.55 56.72 5.31 o
2854 1 0 -7 -3 50.55 56.72 5.31 o
2855 2 0 7 -4 56.41 60.08 5.47 o
2855 1 0 -7 -2 56.41 60.08 5.47 o
2856 2 0 7 -3 70.49 79.54 8.59 o
2856 1 0 -7 -1 70.49 79.54 8.59 o
2857 2 0 7 -2 19.05 17.36 5.32 o
2857 1 0 -7 0 19.05 17.36 5.32 o
2858 2 0 7 -1 1.05 0.72 4.00 <
2858 1 0 -7 1 1.05 0.72 4.00 <
2859 2 0 7 0 63.09 67.08 4.54 o
2859 1 0 -7 2 63.09 67.08 4.54 o
2860 2 0 7 1 77.59 87.98 6.06 o
2860 1 0 -7 3 77.59 87.98 6.06 o
2861 2 0 7 2 96.96 102.16 8.14 o
2861 1 0 -7 4 96.96 102.16 8.14 o
2862 2 0 7 3 94.78 98.43 8.03 o
2862 1 0 -7 5 94.78 98.43 8.03 o
2863 2 0 7 4 88.56 97.46 7.58 o
2863 1 0 -7 6 88.56 97.46 7.58 o
2864 2 0 5 -5 454.89 472.65 10.76 o
2864 1 0 -5 -4 454.89 472.65 10.76 o
2865 2 0 5 -4 209.82 217.08 8.43 o
2865 1 0 -5 -3 209.82 217.08 8.43 o
2866 2 0 5 -3 152.95 154.34 5.58 o
2866 1 0 -5 -2 152.95 154.34 5.58 o
2867 2 0 5 -2 4.22 4.96 14.38 <
2867 1 0 -5 -1 4.22 4.96 14.38 <
2868 2 0 5 -1 108.30 106.00 16.93 o
2868 1 0 -5 0 108.30 106.00 16.93 o
2869 2 0 5 0 235.93 256.54 20.38 o
2869 1 0 -5 1 235.93 256.54 20.38 o
2870 2 0 5 2 122.95 123.15 5.95 o
2870 1 0 -5 3 122.95 123.15 5.95 o
2871 2 0 5 3 84.59 85.02 6.14 o
2871 1 0 -5 4 84.59 85.02 6.14 o
2872 2 0 5 4 134.12 132.19 8.90 o
2872 1 0 -5 5 134.12 132.19 8.90 o
2873 2 0 5 5 88.73 84.33 8.56 o
2873 1 0 -5 6 88.73 84.33 8.56 o
2874 2 0 4 -13 11.75 17.11 3.57 o
2874 1 0 -4 -12 11.75 17.11 3.57 o
2875 2 0 4 -12 12.33 15.42 5.77 <
2875 1 0 -4 -11 12.33 15.42 5.77 <
2876 2 0 4 -11 139.66 140.26 9.36 o
2876 1 0 -4 -10 139.66 140.26 9.36 o
2877 2 0 4 -10 56.36 72.96 8.80 o
2877 1 0 -4 -9 56.36 72.96 8.80 o
2878 2 0 4 -9 7.40 6.45 7.36 <
2878 1 0 -4 -8 7.40 6.45 7.36 <
2879 2 0 4 -8 201.07 220.96 6.44 o
2879 1 0 -4 -7 201.07 220.96 6.44 o
2880 2 0 4 -7 61.11 62.35 4.58 o
2880 1 0 -4 -6 61.11 62.35 4.58 o
2881 2 0 4 -6 68.50 73.02 7.39 o
2881 1 0 -4 -5 68.50 73.02 7.39 o
2882 2 0 4 -5 823.68 888.42 39.85 o
2882 1 0 -4 -4 823.68 888.42 39.85 o
2883 2 0 4 -4 687.66 672.16 33.84 o
2883 1 0 -4 -3 687.66 672.16 33.84 o
2884 2 0 4 -3 193.79 185.76 20.18 o
2884 1 0 -4 -2 193.79 185.76 20.18 o
2885 2 0 4 -2 92.35 97.29 15.86 o
2885 1 0 -4 -1 92.35 97.29 15.86 o
2886 2 0 4 -1 984.83 1041.05 37.70 o
2886 1 0 -4 0 984.83 1041.05 37.70 o
2887 2 0 4 0 203.85 214.98 19.98 o
2887 1 0 -4 1 203.85 214.98 19.98 o
2888 2 0 4 1 185.61 165.93 18.56 o
2888 1 0 -4 2 185.61 165.93 18.56 o
2889 2 0 4 5 27.19 42.88 7.71 o
2889 1 0 -4 6 27.19 42.88 7.71 o
2890 2 0 4 8 23.43 20.92 8.13 <
2890 1 0 -4 9 23.43 20.92 8.13 <
2891 2 0 4 9 35.09 40.98 8.41 o
2891 1 0 -4 10 35.09 40.98 8.41 o
2892 2 0 4 10 65.20 70.44 8.28 o
2892 1 0 -4 11 65.20 70.44 8.28 o
2893 2 0 4 11 38.41 49.14 6.14 o
2893 1 0 -4 12 38.41 49.14 6.14 o
2894 2 0 0 -13 35.18 39.31 3.90 o
2894 1 0 0 -13 35.18 39.31 3.90 o
2895 2 0 0 -12 28.76 36.30 5.05 o
2895 1 0 0 -12 28.76 36.30 5.05 o
2896 2 0 0 -11 27.05 21.83 4.36 o
2896 1 0 0 -11 27.05 21.83 4.36 o
2897 2 0 0 -10 4.47 6.62 4.47 <
2897 1 0 0 -10 4.47 6.62 4.47 <
2898 2 0 0 -9 0.59 1.53 3.98 <
2898 1 0 0 -9 0.59 1.53 3.98 <
2899 2 0 0 -8 76.38 75.92 15.06 o
2899 1 0 0 -8 76.38 75.92 15.06 o
2900 2 0 0 -7 836.72 850.23 33.08 o
2900 1 0 0 -7 836.72 850.23 33.08 o
2901 2 0 0 -6 46.03 30.06 11.26 <
2901 1 0 0 -6 46.03 30.06 11.26 <
2902 2 0 0 -5 379.98 510.98 21.89 o
2902 1 0 0 -5 379.98 510.98 21.89 o
2903 2 0 0 -4 45.05 39.24 8.44 o
2903 1 0 0 -4 45.05 39.24 8.44 o
2904 2 0 0 -3 39.01 47.65 9.46 o
2904 1 0 0 -3 39.01 47.65 9.46 o
2905 2 0 0 -2 1243.80 1392.36 20.13 o
2905 1 0 0 -2 1243.80 1392.36 20.13 o
2906 2 0 0 -1 4974.65 5673.18 27.43 o
2906 1 0 0 -1 4974.65 5673.18 27.43 o
2907 2 0 -4 -12 6.03 10.45 3.98 <
2907 1 0 4 -13 6.03 10.45 3.98 <
2908 2 0 -4 -7 164.39 150.04 24.87 o
2908 1 0 4 -8 164.39 150.04 24.87 o
2909 2 0 -4 -6 55.58 67.62 19.25 o
2909 1 0 4 -7 55.58 67.62 19.25 o
2910 2 0 -4 -5 27.19 34.30 15.44 <
2910 1 0 4 -6 27.19 34.30 15.44 <
2911 2 0 -4 -4 265.35 256.40 22.61 o
2911 1 0 4 -5 265.35 256.40 22.61 o
2912 2 0 -4 -3 968.98 919.06 34.73 o
2912 1 0 4 -4 968.98 919.06 34.73 o
2913 2 0 -4 -2 433.12 445.55 22.69 o
2913 1 0 4 -3 433.12 445.55 22.69 o
2914 2 0 -4 -1 185.61 161.92 13.62 o
2914 1 0 4 -2 185.61 161.92 13.62 o
2915 2 -1 7 -5 132.81 142.90 8.77 o
2915 1 1 -7 -4 132.81 142.90 8.77 o
2916 2 -1 7 -4 37.14 34.54 5.36 o
2916 1 1 -7 -3 37.14 34.54 5.36 o
2917 2 -1 7 -3 7.58 10.15 5.21 <
2917 1 1 -7 -2 7.58 10.15 5.21 <
2918 2 -1 7 -2 11.35 5.68 8.00 <
2918 1 1 -7 -1 11.35 5.68 8.00 <
2919 2 -1 7 -1 258.51 251.44 7.81 o
2919 1 1 -7 0 258.51 251.44 7.81 o
2920 2 -1 7 0 56.10 71.39 6.21 o
2920 1 1 -7 1 56.10 71.39 6.21 o
2921 2 -1 7 1 19.84 18.79 7.19 <
2921 1 1 -7 2 19.84 18.79 7.19 <
2922 2 -1 7 2 13.31 19.20 4.63 o
2922 1 1 -7 3 13.31 19.20 4.63 o
2923 2 -1 7 3 26.57 27.87 4.60 o
2923 1 1 -7 4 26.57 27.87 4.60 o
2924 2 -1 7 4 27.52 27.22 4.46 o
2924 1 1 -7 5 27.52 27.22 4.46 o
2925 2 -1 7 5 46.36 52.66 6.35 o
2925 1 1 -7 6 46.36 52.66 6.35 o
2926 2 -1 6 -11 25.53 29.15 3.61 o
2926 1 1 -6 -10 25.53 29.15 3.61 o
2927 2 -1 6 -10 1.88 6.30 4.79 <
2927 1 1 -6 -9 1.88 6.30 4.79 <
2928 2 -1 6 -9 13.45 16.34 6.20 <
2928 1 1 -6 -8 13.45 16.34 6.20 <
2929 2 -1 6 -8 27.25 33.19 7.45 o
2929 1 1 -6 -7 27.25 33.19 7.45 o
2930 2 -1 6 -7 5.20 12.10 4.67 <
2930 1 1 -6 -6 5.20 12.10 4.67 <
2931 2 -1 6 -6 208.08 222.06 8.20 o
2931 1 1 -6 -5 208.08 222.06 8.20 o
2932 2 -1 6 -5 321.57 330.03 8.03 o
2932 1 1 -6 -4 321.57 330.03 8.03 o
2933 2 -1 6 -4 250.40 262.32 7.52 o
2933 1 1 -6 -3 250.40 262.32 7.52 o
2934 2 -1 6 -3 60.79 61.87 6.11 o
2934 1 1 -6 -2 60.79 61.87 6.11 o
2935 2 -1 6 -2 252.02 275.62 7.48 o
2935 1 1 -6 -1 252.02 275.62 7.48 o
2936 2 -1 6 -1 153.66 168.02 7.58 o
2936 1 1 -6 0 153.66 168.02 7.58 o
2937 2 -1 6 0 30.80 28.36 8.76 o
2937 1 1 -6 1 30.80 28.36 8.76 o
2938 2 -1 6 1 249.27 254.77 9.04 o
2938 1 1 -6 2 249.27 254.77 9.04 o
2939 2 -1 6 2 291.18 306.62 7.67 o
2939 1 1 -6 3 291.18 306.62 7.67 o
2940 2 -1 6 3 250.72 231.28 8.44 o
2940 1 1 -6 4 250.72 231.28 8.44 o
2941 2 -1 6 4 64.72 62.43 6.18 o
2941 1 1 -6 5 64.72 62.43 6.18 o
2942 2 -1 6 5 92.81 91.53 6.63 o
2942 1 1 -6 6 92.81 91.53 6.63 o
2943 2 -1 6 6 20.34 23.56 5.03 o
2943 1 1 -6 7 20.34 23.56 5.03 o
2944 2 -1 6 7 11.06 10.49 6.72 <
2944 1 1 -6 8 11.06 10.49 6.72 <
2945 2 -1 6 8 15.86 22.02 6.30 o
2945 1 1 -6 9 15.86 22.02 6.30 o
2946 2 -1 6 9 3.88 3.23 4.81 <
2946 1 1 -6 10 3.88 3.23 4.81 <
2947 2 -1 6 10 16.96 21.40 3.62 o
2947 1 1 -6 11 16.96 21.40 3.62 o
2948 2 -1 5 -6 140.88 104.12 20.23 o
2948 1 1 -5 -5 140.88 104.12 20.23 o
2949 2 -1 5 -5 207.94 185.39 8.21 o
2949 1 1 -5 -4 207.94 185.39 8.21 o
2950 2 -1 5 -4 334.06 313.36 6.79 o
2950 1 1 -5 -3 334.06 313.36 6.79 o
2951 2 -1 5 -3 287.95 261.18 6.29 o
2951 1 1 -5 -2 287.95 261.18 6.29 o
2952 2 -1 5 -2 413.39 405.70 23.91 o
2952 1 1 -5 -1 413.39 405.70 23.91 o
2953 2 -1 5 -1 218.26 188.99 18.48 o
2953 1 1 -5 0 218.26 188.99 18.48 o
2954 2 -1 5 2 399.46 381.95 10.88 o
2954 1 1 -5 3 399.46 381.95 10.88 o
2955 2 -1 5 3 359.90 362.36 10.42 o
2955 1 1 -5 4 359.90 362.36 10.42 o
2956 2 -1 5 4 518.21 497.14 11.93 o
2956 1 1 -5 5 518.21 497.14 11.93 o
2957 2 -1 2 -12 9.05 9.06 4.20 <
2957 1 1 -2 -12 9.05 9.06 4.20 <
2958 2 -1 2 -11 2.03 0.86 4.82 <
2958 1 1 -2 -11 2.03 0.86 4.82 <
2959 2 -1 2 -10 53.09 55.47 6.13 o
2959 1 1 -2 -10 53.09 55.47 6.13 o
2960 2 -1 2 -9 87.65 94.22 6.30 o
2960 1 1 -2 -9 87.65 94.22 6.30 o
2961 2 -1 2 -8 221.37 222.19 7.59 o
2961 1 1 -2 -8 221.37 222.19 7.59 o
2962 2 -1 2 -7 206.70 206.27 20.62 o
2962 1 1 -2 -7 206.70 206.27 20.62 o
2963 2 -1 2 -6 143.21 155.71 17.09 o
2963 1 1 -2 -6 143.21 155.71 17.09 o
2964 2 -1 2 -5 41.26 52.23 11.70 o
2964 1 1 -2 -5 41.26 52.23 11.70 o
2965 2 -1 2 -4 6.90 4.38 7.88 <
2965 1 1 -2 -4 6.90 4.38 7.88 <
2966 2 -1 2 -3 254.53 257.31 6.30 o
2966 1 1 -2 -3 254.53 257.31 6.30 o
2967 2 -1 2 -2 1290.77 1306.02 27.73 o
2967 1 1 -2 -2 1290.77 1306.02 27.73 o
2968 2 -1 2 -1 13689.00 14110.20 83.38 o
2968 1 1 -2 -1 13689.00 14110.20 83.38 o
2969 2 -1 2 0 13546.40 13745.30 81.82 o
2969 1 1 -2 0 13546.40 13745.30 81.82 o
2970 2 -1 2 1 3671.45 3834.98 45.27 o
2970 1 1 -2 1 3671.45 3834.98 45.27 o
2971 2 -1 2 13 100.85 126.05 6.78 o
2971 1 1 -2 13 100.85 126.05 6.78 o
2972 2 -1 -2 -13 2.85 4.26 3.63 <
2972 1 1 2 -14 2.85 4.26 3.63 <
2973 2 -1 -2 -12 54.14 63.39 7.03 o
2973 1 1 2 -13 54.14 63.39 7.03 o
2974 2 -1 -2 -11 69.31 79.79 9.06 o
2974 1 1 2 -12 69.31 79.79 9.06 o
2975 2 -1 -2 -10 133.05 159.39 9.50 o
2975 1 1 2 -11 133.05 159.39 9.50 o
2976 2 -1 -2 -9 48.80 61.14 7.89 o
2976 1 1 2 -10 48.80 61.14 7.89 o
2977 2 -1 -2 -8 433.82 450.82 12.74 o
2977 1 1 2 -9 433.82 450.82 12.74 o
2978 2 -1 -2 -7 149.14 167.83 22.79 o
2978 1 1 2 -8 149.14 167.83 22.79 o
2979 2 -1 -2 -6 97.83 117.32 19.02 o
2979 1 1 2 -7 97.83 117.32 19.02 o
2980 2 -1 -2 -5 64.40 64.40 15.02 o
2980 1 1 2 -6 64.40 64.40 15.02 o
2981 2 -1 -2 -4 676.72 677.29 29.70 o
2981 1 1 2 -5 676.72 677.29 29.70 o
2982 2 -1 -2 -3 1239.54 1228.09 33.93 o
2982 1 1 2 -4 1239.54 1228.09 33.93 o
2983 2 -1 -3 -1 85.47 67.36 10.14 o
2983 1 1 3 -2 85.47 67.36 10.14 o
2984 2 -2 8 -6 130.96 131.61 6.16 o
2984 1 2 -8 -5 130.96 131.61 6.16 o
2985 2 -2 8 -5 89.93 101.09 6.62 o
2985 1 2 -8 -4 89.93 101.09 6.62 o
2986 2 -2 8 -4 28.91 33.87 6.04 o
2986 1 2 -8 -3 28.91 33.87 6.04 o
2987 2 -2 8 -3 50.27 56.16 7.01 o
2987 1 2 -8 -2 50.27 56.16 7.01 o
2988 2 -2 8 -2 136.36 156.15 9.04 o
2988 1 2 -8 -1 136.36 156.15 9.04 o
2989 2 -2 8 -1 7.53 6.07 6.13 <
2989 1 2 -8 0 7.53 6.07 6.13 <
2990 2 -2 8 0 35.53 33.81 6.52 o
2990 1 2 -8 1 35.53 33.81 6.52 o
2991 2 -2 8 1 101.24 117.14 8.15 o
2991 1 2 -8 2 101.24 117.14 8.15 o
2992 2 -2 8 2 119.64 124.46 7.58 o
2992 1 2 -8 3 119.64 124.46 7.58 o
2993 2 -2 8 3 7.50 7.90 4.76 <
2993 1 2 -8 4 7.50 7.90 4.76 <
2994 2 -2 8 4 21.82 19.97 4.31 o
2994 1 2 -8 5 21.82 19.97 4.31 o
2995 2 -2 7 -7 43.28 38.73 5.85 o
2995 1 2 -7 -6 43.28 38.73 5.85 o
2996 2 -2 7 -6 30.99 33.20 6.44 o
2996 1 2 -7 -5 30.99 33.20 6.44 o
2997 2 -2 7 -5 102.46 117.18 8.26 o
2997 1 2 -7 -4 102.46 117.18 8.26 o
2998 2 -2 7 -4 91.34 90.22 8.08 o
2998 1 2 -7 -3 91.34 90.22 8.08 o
2999 2 -2 7 -3 76.77 68.82 8.32 o
2999 1 2 -7 -2 76.77 68.82 8.32 o
3000 2 -2 7 -2 13.95 13.49 5.54 <
3000 1 2 -7 -1 13.95 13.49 5.54 <
3001 2 -2 7 -1 10.88 13.25 5.65 <
3001 1 2 -7 0 10.88 13.25 5.65 <
3002 2 -2 7 0 52.53 75.27 8.53 o
3002 1 2 -7 1 52.53 75.27 8.53 o
3003 2 -2 7 1 55.19 66.56 8.32 o
3003 1 2 -7 2 55.19 66.56 8.32 o
3004 2 -2 7 2 134.59 155.05 9.18 o
3004 1 2 -7 3 134.59 155.05 9.18 o
3005 2 -2 7 3 134.88 158.50 9.12 o
3005 1 2 -7 4 134.88 158.50 9.12 o
3006 2 -2 5 -5 12.08 11.38 4.89 <
3006 1 2 -5 -5 12.08 11.38 4.89 <
3007 2 -2 5 -4 65.67 55.24 5.29 o
3007 1 2 -5 -4 65.67 55.24 5.29 o
3008 2 -2 5 -3 166.21 190.64 5.86 o
3008 1 2 -5 -3 166.21 190.64 5.86 o
3009 2 -2 5 -2 425.50 434.99 5.98 o
3009 1 2 -5 -2 425.50 434.99 5.98 o
3010 2 -2 5 -1 589.19 586.73 6.71 o
3010 1 2 -5 -1 589.19 586.73 6.71 o
3011 2 -2 5 0 297.65 294.87 6.91 o
3011 1 2 -5 0 297.65 294.87 6.91 o
3012 2 -2 5 1 218.85 208.19 6.76 o
3012 1 2 -5 1 218.85 208.19 6.76 o
3013 2 -2 5 2 215.38 180.34 9.13 o
3013 1 2 -5 2 215.38 180.34 9.13 o
3014 2 -2 5 4 210.49 200.70 8.74 o
3014 1 2 -5 4 210.49 200.70 8.74 o
3015 2 -2 4 -11 45.70 40.95 5.17 o
3015 1 2 -4 -11 45.70 40.95 5.17 o
3016 2 -2 4 -10 4.14 1.39 3.41 <
3016 1 2 -4 -10 4.14 1.39 3.41 <
3017 2 -2 4 -9 219.62 226.78 10.68 o
3017 1 2 -4 -9 219.62 226.78 10.68 o
3018 2 -2 4 -8 11.87 13.85 5.36 <
3018 1 2 -4 -8 11.87 13.85 5.36 <
3019 2 -2 4 -7 63.75 48.40 5.88 o
3019 1 2 -4 -7 63.75 48.40 5.88 o
3020 2 -2 4 -6 41.89 44.27 5.55 o
3020 1 2 -4 -6 41.89 44.27 5.55 o
3021 2 -2 4 -5 16.46 19.55 4.16 o
3021 1 2 -4 -5 16.46 19.55 4.16 o
3022 2 -2 4 -4 9.69 17.63 12.73 <
3022 1 2 -4 -4 9.69 17.63 12.73 <
3023 2 -2 4 -3 444.72 479.51 25.70 o
3023 1 2 -4 -3 444.72 479.51 25.70 o
3024 2 -2 4 -2 1659.29 1845.32 46.45 o
3024 1 2 -4 -2 1659.29 1845.32 46.45 o
3025 2 -2 4 -1 3316.46 3573.62 62.90 o
3025 1 2 -4 -1 3316.46 3573.62 62.90 o
3026 2 -2 4 0 1638.35 1740.46 44.70 o
3026 1 2 -4 0 1638.35 1740.46 44.70 o
3027 2 -2 4 5 43.89 44.94 5.54 o
3027 1 2 -4 5 43.89 44.94 5.54 o
3028 2 -2 4 6 208.36 208.60 8.13 o
3028 1 2 -4 6 208.36 208.60 8.13 o
3029 2 -2 4 7 42.93 38.28 5.96 o
3029 1 2 -4 7 42.93 38.28 5.96 o
3030 2 -2 4 8 2.51 4.66 7.49 <
3030 1 2 -4 8 2.51 4.66 7.49 <
3031 2 -2 4 11 44.00 41.05 6.66 o
3031 1 2 -4 11 44.00 41.05 6.66 o
3032 2 -2 4 12 38.06 40.69 4.84 o
3032 1 2 -4 12 38.06 40.69 4.84 o
3033 2 -2 3 -5 84.58 80.39 12.90 o
3033 1 2 -3 -5 84.58 80.39 12.90 o
3034 2 -2 3 -4 90.48 93.08 11.59 o
3034 1 2 -3 -4 90.48 93.08 11.59 o
3035 2 -2 3 -3 306.05 266.31 14.21 o
3035 1 2 -3 -3 306.05 266.31 14.21 o
3036 2 -2 3 -2 115.17 110.17 11.24 o
3036 1 2 -3 -2 115.17 110.17 11.24 o
3037 2 -2 3 -1 380.10 403.71 15.38 o
3037 1 2 -3 -1 380.10 403.71 15.38 o
3038 2 -2 0 -13 33.80 42.41 4.43 o
3038 1 2 0 -14 33.80 42.41 4.43 o
3039 2 -2 0 -12 75.77 87.62 7.37 o
3039 1 2 0 -13 75.77 87.62 7.37 o
3040 2 -2 0 -11 148.24 162.46 10.42 o
3040 1 2 0 -12 148.24 162.46 10.42 o
3041 2 -2 0 -10 12.10 17.42 8.19 <
3041 1 2 0 -11 12.10 17.42 8.19 <
3042 2 -2 0 -9 145.33 156.93 7.62 o
3042 1 2 0 -10 145.33 156.93 7.62 o
3043 2 -2 0 -8 620.24 638.91 11.38 o
3043 1 2 0 -9 620.24 638.91 11.38 o
3044 2 -2 0 -7 94.65 93.22 17.40 o
3044 1 2 0 -8 94.65 93.22 17.40 o
3045 2 -2 0 -6 128.81 155.28 18.07 o
3045 1 2 0 -7 128.81 155.28 18.07 o
3046 2 -2 -4 -10 113.93 111.18 6.28 o
3046 1 2 4 -12 113.93 111.18 6.28 o
3047 2 -2 -4 -9 105.36 116.11 7.64 o
3047 1 2 4 -11 105.36 116.11 7.64 o
3048 2 -2 -4 -5 57.85 42.49 19.69 <
3048 1 2 4 -7 57.85 42.49 19.69 <
3049 2 -2 -4 -4 62.67 64.10 18.68 o
3049 1 2 4 -6 62.67 64.10 18.68 o
3050 2 -2 -4 -3 226.22 226.80 22.94 o
3050 1 2 4 -5 226.22 226.80 22.94 o
3051 2 -2 -4 -2 30.49 30.77 13.69 <
3051 1 2 4 -4 30.49 30.77 13.69 <
3052 2 -2 -4 -1 143.41 142.05 16.99 o
3052 1 2 4 -3 143.41 142.05 16.99 o
3053 2 -3 7 -4 15.43 20.58 6.40 o
3053 1 3 -7 -4 15.43 20.58 6.40 o
3054 2 -3 7 -3 204.80 226.53 9.62 o
3054 1 3 -7 -3 204.80 226.53 9.62 o
3055 2 -3 7 -2 260.51 288.88 11.10 o
3055 1 3 -7 -2 260.51 288.88 11.10 o
3056 2 -3 7 -1 91.48 100.44 8.85 o
3056 1 3 -7 -1 91.48 100.44 8.85 o
3057 2 -3 7 0 88.48 93.85 8.84 o
3057 1 3 -7 0 88.48 93.85 8.84 o
3058 2 -3 7 1 65.54 73.48 8.31 o
3058 1 3 -7 1 65.54 73.48 8.31 o
3059 2 -3 7 2 70.83 68.81 8.24 o
3059 1 3 -7 2 70.83 68.81 8.24 o
3060 2 -3 7 3 122.92 117.37 8.64 o
3060 1 3 -7 3 122.92 117.37 8.64 o
3061 2 -3 7 4 58.93 61.90 7.39 o
3061 1 3 -7 4 58.93 61.90 7.39 o
3062 2 -3 7 5 19.90 16.57 6.38 <
3062 1 3 -7 5 19.90 16.57 6.38 <
3063 2 -3 6 -8 10.66 8.76 4.71 <
3063 1 3 -6 -8 10.66 8.76 4.71 <
3064 2 -3 6 -7 6.74 7.85 3.81 <
3064 1 3 -6 -7 6.74 7.85 3.81 <
3065 2 -3 6 -6 20.71 22.26 4.59 o
3065 1 3 -6 -6 20.71 22.26 4.59 o
3066 2 -3 6 -5 4.86 10.65 4.76 <
3066 1 3 -6 -5 4.86 10.65 4.76 <
3067 2 -3 6 -4 12.05 12.86 5.05 <
3067 1 3 -6 -4 12.05 12.86 5.05 <
3068 2 -3 6 -3 389.05 469.33 10.69 o
3068 1 3 -6 -3 389.05 469.33 10.69 o
3069 2 -3 6 -2 540.86 678.43 17.46 o
3069 1 3 -6 -2 540.86 678.43 17.46 o
3070 2 -3 6 -1 656.75 728.48 13.24 o
3070 1 3 -6 -1 656.75 728.48 13.24 o
3071 2 -3 6 0 351.91 373.65 15.04 o
3071 1 3 -6 0 351.91 373.65 15.04 o
3072 2 -3 6 1 137.55 160.97 11.46 o
3072 1 3 -6 1 137.55 160.97 11.46 o
3073 2 -3 6 2 137.98 164.37 11.61 o
3073 1 3 -6 2 137.98 164.37 11.61 o
3074 2 -3 6 3 77.86 88.06 9.95 o
3074 1 3 -6 3 77.86 88.06 9.95 o
3075 2 -3 6 4 4.46 6.60 5.04 <
3075 1 3 -6 4 4.46 6.60 5.04 <
3076 2 -3 6 5 23.63 30.08 5.41 o
3076 1 3 -6 5 23.63 30.08 5.41 o
3077 2 -3 6 6 79.19 85.47 8.97 o
3077 1 3 -6 6 79.19 85.47 8.97 o
3078 2 -3 6 7 3.62 -0.50 6.21 <
3078 1 3 -6 7 3.62 -0.50 6.21 <
3079 2 -3 5 -7 23.98 20.03 6.36 o
3079 1 3 -5 -7 23.98 20.03 6.36 o
3080 2 -3 5 -6 96.91 98.55 5.69 o
3080 1 3 -5 -6 96.91 98.55 5.69 o
3081 2 -3 5 -5 36.09 42.59 5.29 o
3081 1 3 -5 -5 36.09 42.59 5.29 o
3082 2 -3 5 -4 179.51 176.46 6.78 o
3082 1 3 -5 -4 179.51 176.46 6.78 o
3083 2 -3 5 -3 29.20 36.24 5.38 o
3083 1 3 -5 -3 29.20 36.24 5.38 o
3084 2 -3 5 -2 65.31 78.95 5.85 o
3084 1 3 -5 -2 65.31 78.95 5.85 o
3085 2 -3 5 -1 256.01 296.53 10.91 o
3085 1 3 -5 -1 256.01 296.53 10.91 o
3086 2 -3 5 0 13.51 10.27 5.02 <
3086 1 3 -5 0 13.51 10.27 5.02 <
3087 2 -3 5 1 54.04 51.18 5.48 o
3087 1 3 -5 1 54.04 51.18 5.48 o
3088 2 -3 5 2 66.50 72.20 5.50 o
3088 1 3 -5 2 66.50 72.20 5.50 o
3089 2 -3 5 3 33.06 33.13 5.19 o
3089 1 3 -5 3 33.06 33.13 5.19 o
3090 2 -3 5 4 112.25 119.65 6.35 o
3090 1 3 -5 4 112.25 119.65 6.35 o
3091 2 -3 5 5 174.43 197.31 7.21 o
3091 1 3 -5 5 174.43 197.31 7.21 o
3092 2 -3 5 6 431.15 435.41 6.84 o
3092 1 3 -5 6 431.15 435.41 6.84 o
3093 2 -3 5 7 49.38 40.67 7.51 o
3093 1 3 -5 7 49.38 40.67 7.51 o
3094 2 -3 2 -12 49.09 59.12 4.80 o
3094 1 3 -2 -13 49.09 59.12 4.80 o
3095 2 -3 2 -11 57.31 76.93 6.99 o
3095 1 3 -2 -12 57.31 76.93 6.99 o
3096 2 -3 2 -10 13.36 19.50 7.19 <
3096 1 3 -2 -11 13.36 19.50 7.19 <
3097 2 -3 2 -9 421.40 458.93 15.57 o
3097 1 3 -2 -10 421.40 458.93 15.57 o
3098 2 -3 2 -8 32.40 38.24 8.51 o
3098 1 3 -2 -9 32.40 38.24 8.51 o
3099 2 -3 2 -7 47.68 55.42 8.74 o
3099 1 3 -2 -8 47.68 55.42 8.74 o
3100 2 -3 2 -6 149.90 175.17 10.57 o
3100 1 3 -2 -7 149.90 175.17 10.57 o
3101 2 -3 2 7 692.66 718.13 12.17 o
3101 1 3 -2 6 692.66 718.13 12.17 o
3102 2 -3 2 8 228.52 232.00 11.52 o
3102 1 3 -2 7 228.52 232.00 11.52 o
3103 2 -3 2 9 40.98 44.68 8.26 o
3103 1 3 -2 8 40.98 44.68 8.26 o
3104 2 -3 1 -6 210.33 198.43 9.03 o
3104 1 3 -1 -7 210.33 198.43 9.03 o
3105 2 -3 -2 -11 32.08 35.61 4.85 o
3105 1 3 2 -13 32.08 35.61 4.85 o
3106 2 -3 -2 -10 135.71 153.07 8.26 o
3106 1 3 2 -12 135.71 153.07 8.26 o
3107 2 -3 -2 -9 224.58 226.47 10.85 o
3107 1 3 2 -11 224.58 226.47 10.85 o
3108 2 -3 -2 -8 430.62 433.84 14.33 o
3108 1 3 2 -10 430.62 433.84 14.33 o
3109 2 -3 -2 -7 158.32 161.40 10.21 o
3109 1 3 2 -9 158.32 161.40 10.21 o
3110 2 -3 -2 -6 84.82 103.66 8.37 o
3110 1 3 2 -8 84.82 103.66 8.37 o
3111 2 -3 -2 -5 26.96 14.03 16.52 <
3111 1 3 2 -7 26.96 14.03 16.52 <
3112 2 -3 -3 -4 23.06 18.72 15.15 <
3112 1 3 3 -6 23.06 18.72 15.15 <
3113 2 -4 8 -3 113.98 23.65 3.49 o
3113 1 4 -8 -3 113.98 23.65 3.49 o
3114 2 -4 8 -2 158.85 191.19 6.21 o
3114 1 4 -8 -2 158.85 191.19 6.21 o
3115 2 -4 8 -1 155.33 174.43 6.58 o
3115 1 4 -8 -1 155.33 174.43 6.58 o
3116 2 -4 8 0 11.75 17.92 4.62 o
3116 1 4 -8 0 11.75 17.92 4.62 o
3117 2 -4 8 1 36.89 35.81 4.92 o
3117 1 4 -8 1 36.89 35.81 4.92 o
3118 2 -4 8 2 42.97 53.17 4.85 o
3118 1 4 -8 2 42.97 53.17 4.85 o
3119 2 -4 8 3 22.92 33.85 4.20 o
3119 1 4 -8 3 22.92 33.85 4.20 o
3120 2 -4 7 -5 59.23 39.33 4.86 o
3120 1 4 -7 -5 59.23 39.33 4.86 o
3121 2 -4 7 -4 28.95 34.26 5.84 o
3121 1 4 -7 -4 28.95 34.26 5.84 o
3122 2 -4 7 -3 9.12 13.17 5.74 <
3122 1 4 -7 -3 9.12 13.17 5.74 <
3123 2 -4 7 -2 74.72 82.65 7.25 o
3123 1 4 -7 -2 74.72 82.65 7.25 o
3124 2 -4 7 -1 28.31 34.27 6.74 o
3124 1 4 -7 -1 28.31 34.27 6.74 o
3125 2 -4 7 0 2.69 2.32 6.54 <
3125 1 4 -7 0 2.69 2.32 6.54 <
3126 2 -4 7 1 38.67 39.43 7.08 o
3126 1 4 -7 1 38.67 39.43 7.08 o
3127 2 -4 7 2 24.95 33.94 6.87 o
3127 1 4 -7 2 24.95 33.94 6.87 o
3128 2 -4 7 3 28.07 22.57 6.63 o
3128 1 4 -7 3 28.07 22.57 6.63 o
3129 2 -4 7 4 32.20 37.29 6.25 o
3129 1 4 -7 4 32.20 37.29 6.25 o
3130 2 -4 5 -4 72.07 84.47 8.36 o
3130 1 4 -5 -5 72.07 84.47 8.36 o
3131 2 -4 5 -3 38.58 42.84 8.15 o
3131 1 4 -5 -4 38.58 42.84 8.15 o
3132 2 -4 5 -2 72.64 80.70 5.82 o
3132 1 4 -5 -3 72.64 80.70 5.82 o
3133 2 -4 5 -1 12.97 20.19 5.19 o
3133 1 4 -5 -2 12.97 20.19 5.19 o
3134 2 -4 5 0 138.95 148.86 6.65 o
3134 1 4 -5 -1 138.95 148.86 6.65 o
3135 2 -4 5 1 277.55 297.76 6.07 o
3135 1 4 -5 0 277.55 297.76 6.07 o
3136 2 -4 5 2 4.38 13.47 5.03 <
3136 1 4 -5 1 4.38 13.47 5.03 <
3137 2 -4 5 3 22.81 14.12 5.20 <
3137 1 4 -5 2 22.81 14.12 5.20 <
3138 2 -4 5 4 7.95 1.90 8.11 <
3138 1 4 -5 3 7.95 1.90 8.11 <
3139 2 -4 4 -10 52.23 53.78 4.67 o
3139 1 4 -4 -11 52.23 53.78 4.67 o
3140 2 -4 4 -9 82.25 99.12 7.09 o
3140 1 4 -4 -10 82.25 99.12 7.09 o
3141 2 -4 4 -8 30.32 33.68 6.88 o
3141 1 4 -4 -9 30.32 33.68 6.88 o
3142 2 -4 4 -7 0.34 -0.01 6.78 <
3142 1 4 -4 -8 0.34 -0.01 6.78 <
3143 2 -4 4 -6 105.53 110.34 10.04 o
3143 1 4 -4 -7 105.53 110.34 10.04 o
3144 2 -4 4 -5 114.70 134.32 10.69 o
3144 1 4 -4 -6 114.70 134.32 10.69 o
3145 2 -4 4 -4 55.54 51.47 8.81 o
3145 1 4 -4 -5 55.54 51.47 8.81 o
3146 2 -4 4 -3 159.01 151.51 10.61 o
3146 1 4 -4 -4 159.01 151.51 10.61 o
3147 2 -4 4 -2 160.62 176.01 10.71 o
3147 1 4 -4 -3 160.62 176.01 10.71 o
3148 2 -4 4 -1 72.25 63.66 4.60 o
3148 1 4 -4 -2 72.25 63.66 4.60 o
3149 2 -4 4 0 12.09 9.48 3.60 <
3149 1 4 -4 -1 12.09 9.48 3.60 <
3150 2 -4 4 1 2.60 2.14 3.52 <
3150 1 4 -4 0 2.60 2.14 3.52 <
3151 2 -4 4 2 98.27 97.70 5.22 o
3151 1 4 -4 1 98.27 97.70 5.22 o
3152 2 -4 4 3 295.60 303.46 9.00 o
3152 1 4 -4 2 295.60 303.46 9.00 o
3153 2 -4 4 4 194.87 188.85 7.98 o
3153 1 4 -4 3 194.87 188.85 7.98 o
3154 2 -4 4 5 234.82 249.04 8.77 o
3154 1 4 -4 4 234.82 249.04 8.77 o
3155 2 -4 4 6 227.05 255.90 9.09 o
3155 1 4 -4 5 227.05 255.90 9.09 o
3156 2 -4 4 7 500.37 526.72 11.52 o
3156 1 4 -4 6 500.37 526.72 11.52 o
3157 2 -4 4 8 0.99 -1.25 7.04 <
3157 1 4 -4 7 0.99 -1.25 7.04 <
3158 2 -4 4 9 116.77 121.85 8.90 o
3158 1 4 -4 8 116.77 121.85 8.90 o
3159 2 -4 4 10 44.44 47.82 5.54 o
3159 1 4 -4 9 44.44 47.82 5.54 o
3160 2 -4 3 -7 41.61 43.64 7.92 o
3160 1 4 -3 -8 41.61 43.64 7.92 o
3161 2 -4 3 -6 163.09 162.93 9.51 o
3161 1 4 -3 -7 163.09 162.93 9.51 o
3162 2 -4 3 -5 207.82 223.39 10.30 o
3162 1 4 -3 -6 207.82 223.39 10.30 o
3163 2 -4 3 -4 267.89 270.79 7.07 o
3163 1 4 -3 -5 267.89 270.79 7.07 o
3164 2 -4 3 -3 190.46 200.40 6.48 o
3164 1 4 -3 -4 190.46 200.40 6.48 o
3165 2 -4 3 -2 198.41 190.32 6.53 o
3165 1 4 -3 -3 198.41 190.32 6.53 o
3166 2 -4 3 2 936.58 965.35 15.82 o
3166 1 4 -3 1 936.58 965.35 15.82 o
3167 2 -4 3 3 370.31 395.02 7.58 o
3167 1 4 -3 2 370.31 395.02 7.58 o
3168 2 -4 3 4 267.81 254.01 6.98 o
3168 1 4 -3 3 267.81 254.01 6.98 o
3169 2 -4 3 5 101.21 95.95 5.85 o
3169 1 4 -3 4 101.21 95.95 5.85 o
3170 2 -4 3 6 378.10 380.65 11.64 o
3170 1 4 -3 5 378.10 380.65 11.64 o
3171 2 -4 3 7 39.65 38.68 7.97 o
3171 1 4 -3 6 39.65 38.68 7.97 o
3172 2 -4 3 8 52.00 56.98 7.87 o
3172 1 4 -3 7 52.00 56.98 7.87 o
3173 2 -4 0 -11 21.23 14.29 3.85 o
3173 1 4 0 -13 21.23 14.29 3.85 o
3174 2 -4 0 -10 218.76 256.36 9.20 o
3174 1 4 0 -12 218.76 256.36 9.20 o
3175 2 -4 0 -9 155.81 183.40 9.66 o
3175 1 4 0 -11 155.81 183.40 9.66 o
3176 2 -4 0 -8 185.27 204.80 11.00 o
3176 1 4 0 -10 185.27 204.80 11.00 o
3177 2 -4 0 -7 61.33 62.20 8.57 o
3177 1 4 0 -9 61.33 62.20 8.57 o
3178 2 -4 0 -6 55.12 61.84 8.49 o
3178 1 4 0 -8 55.12 61.84 8.49 o
3179 2 -4 0 -5 178.48 168.32 9.88 o
3179 1 4 0 -7 178.48 168.32 9.88 o
3180 2 -4 0 -4 358.00 341.77 12.08 o
3180 1 4 0 -6 358.00 341.77 12.08 o
3181 2 -4 -1 -7 16.63 19.38 6.90 <
3181 1 4 1 -9 16.63 19.38 6.90 <
3182 2 -4 -1 -6 81.14 76.67 7.79 o
3182 1 4 1 -8 81.14 76.67 7.79 o
3183 2 -5 7 0 29.17 38.76 5.12 o
3183 1 5 -7 -1 29.17 38.76 5.12 o
3184 2 -5 7 1 22.63 16.19 4.87 o
3184 1 5 -7 0 22.63 16.19 4.87 o
3185 2 -5 7 2 4.37 -0.46 4.71 <
3185 1 5 -7 1 4.37 -0.46 4.71 <
3186 2 -5 7 3 3.42 8.72 4.20 <
3186 1 5 -7 2 3.42 8.72 4.20 <
3187 2 -5 7 4 2.23 0.58 4.07 <
3187 1 5 -7 3 2.23 0.58 4.07 <
3188 2 -5 6 -6 17.46 33.42 4.32 o
3188 1 5 -6 -7 17.46 33.42 4.32 o
3189 2 -5 6 -5 42.70 44.39 5.68 o
3189 1 5 -6 -6 42.70 44.39 5.68 o
3190 2 -5 6 -4 32.24 34.12 6.07 o
3190 1 5 -6 -5 32.24 34.12 6.07 o
3191 2 -5 6 -3 39.79 51.63 7.04 o
3191 1 5 -6 -4 39.79 51.63 7.04 o
3192 2 -5 6 -2 129.70 139.40 9.07 o
3192 1 5 -6 -3 129.70 139.40 9.07 o
3193 2 -5 6 -1 20.45 21.13 5.96 o
3193 1 5 -6 -2 20.45 21.13 5.96 o
3194 2 -5 6 0 2.53 1.75 5.77 <
3194 1 5 -6 -1 2.53 1.75 5.77 <
3195 2 -5 6 1 10.32 10.46 6.39 <
3195 1 5 -6 0 10.32 10.46 6.39 <
3196 2 -5 6 2 94.53 89.55 5.25 o
3196 1 5 -6 1 94.53 89.55 5.25 o
3197 2 -5 6 3 72.09 68.63 4.97 o
3197 1 5 -6 2 72.09 68.63 4.97 o
3198 2 -5 6 4 105.24 107.07 5.35 o
3198 1 5 -6 3 105.24 107.07 5.35 o
3199 2 -5 6 5 106.53 114.98 5.13 o
3199 1 5 -6 4 106.53 114.98 5.13 o
3200 2 -5 6 6 195.71 218.55 5.40 o
3200 1 5 -6 5 195.71 218.55 5.40 o
3201 2 -5 5 -6 85.69 105.25 6.93 o
3201 1 5 -5 -7 85.69 105.25 6.93 o
3202 2 -5 5 -5 101.72 122.94 7.84 o
3202 1 5 -5 -6 101.72 122.94 7.84 o
3203 2 -5 5 -4 69.21 78.71 7.92 o
3203 1 5 -5 -5 69.21 78.71 7.92 o
3204 2 -5 5 -3 100.80 116.79 9.06 o
3204 1 5 -5 -4 100.80 116.79 9.06 o
3205 2 -5 5 -2 118.59 109.40 9.30 o
3205 1 5 -5 -3 118.59 109.40 9.30 o
3206 2 -5 5 -1 73.98 75.18 5.64 o
3206 1 5 -5 -2 73.98 75.18 5.64 o
3207 2 -5 5 0 159.43 166.92 5.46 o
3207 1 5 -5 -1 159.43 166.92 5.46 o
3208 2 -5 5 1 177.68 207.46 7.15 o
3208 1 5 -5 0 177.68 207.46 7.15 o
3209 2 -5 5 2 230.48 250.32 7.37 o
3209 1 5 -5 1 230.48 250.32 7.37 o
3210 2 -5 5 3 82.57 96.05 5.86 o
3210 1 5 -5 2 82.57 96.05 5.86 o
3211 2 -5 5 4 66.10 69.07 5.50 o
3211 1 5 -5 3 66.10 69.07 5.50 o
3212 2 -5 5 5 48.04 44.96 5.18 o
3212 1 5 -5 4 48.04 44.96 5.18 o
3213 2 -5 5 6 39.30 36.97 4.79 o
3213 1 5 -5 5 39.30 36.97 4.79 o
3214 2 -5 5 7 71.66 69.08 6.39 o
3214 1 5 -5 6 71.66 69.08 6.39 o
3215 2 -5 3 -3 21.10 17.45 7.53 <
3215 1 5 -3 -5 21.10 17.45 7.53 <
3216 2 -5 3 -2 67.26 74.25 7.86 o
3216 1 5 -3 -4 67.26 74.25 7.86 o
3217 2 -5 3 -1 23.74 32.76 5.28 o
3217 1 5 -3 -3 23.74 32.76 5.28 o
3218 2 -5 3 0 141.32 125.47 8.28 o
3218 1 5 -3 -2 141.32 125.47 8.28 o
3219 2 -5 3 1 29.47 29.20 5.12 o
3219 1 5 -3 -1 29.47 29.20 5.12 o
3220 2 -5 3 2 105.22 91.37 5.69 o
3220 1 5 -3 0 105.22 91.37 5.69 o
3221 2 -5 3 3 25.74 21.42 7.73 <
3221 1 5 -3 1 25.74 21.42 7.73 <
3222 2 -5 2 -9 45.40 59.73 5.65 o
3222 1 5 -2 -11 45.40 59.73 5.65 o
3223 2 -5 2 -8 84.65 87.78 4.81 o
3223 1 5 -2 -10 84.65 87.78 4.81 o
3224 2 -5 2 -7 15.84 21.37 4.69 o
3224 1 5 -2 -9 15.84 21.37 4.69 o
3225 2 -5 2 -6 18.27 20.94 5.15 o
3225 1 5 -2 -8 18.27 20.94 5.15 o
3226 2 -5 2 -5 341.52 339.74 13.30 o
3226 1 5 -2 -7 341.52 339.74 13.30 o
3227 2 -5 2 -4 197.02 203.15 7.96 o
3227 1 5 -2 -6 197.02 203.15 7.96 o
3228 2 -5 2 -3 152.96 160.34 7.37 o
3228 1 5 -2 -5 152.96 160.34 7.37 o
3229 2 -5 2 -2 41.80 40.35 5.59 o
3229 1 5 -2 -4 41.80 40.35 5.59 o
3230 2 -5 2 -1 487.39 496.25 10.23 o
3230 1 5 -2 -3 487.39 496.25 10.23 o
3231 2 -5 2 0 68.10 64.56 8.67 o
3231 1 5 -2 -2 68.10 64.56 8.67 o
3232 2 -5 2 1 101.28 90.35 9.16 o
3232 1 5 -2 -1 101.28 90.35 9.16 o
3233 2 -5 2 2 329.16 341.70 13.28 o
3233 1 5 -2 0 329.16 341.70 13.28 o
3234 2 -5 2 3 376.29 363.24 13.77 o
3234 1 5 -2 1 376.29 363.24 13.77 o
3235 2 -5 2 4 43.71 35.33 8.08 o
3235 1 5 -2 2 43.71 35.33 8.08 o
3236 2 -5 2 5 42.88 38.11 8.03 o
3236 1 5 -2 3 42.88 38.11 8.03 o
3237 2 -5 2 6 49.55 49.77 8.37 o
3237 1 5 -2 4 49.55 49.77 8.37 o
3238 2 -5 2 7 79.58 78.96 8.72 o
3238 1 5 -2 5 79.58 78.96 8.72 o
3239 2 -5 2 8 19.68 17.19 6.87 <
3239 1 5 -2 6 19.68 17.19 6.87 <
3240 2 -5 2 9 74.80 80.65 7.32 o
3240 1 5 -2 7 74.80 80.65 7.32 o
3241 2 -5 1 -7 38.72 29.90 6.68 o
3241 1 5 -1 -9 38.72 29.90 6.68 o
3242 2 -5 1 -6 13.18 9.12 6.46 <
3242 1 5 -1 -8 13.18 9.12 6.46 <
3243 2 -5 1 -5 16.09 10.77 6.76 <
3243 1 5 -1 -7 16.09 10.77 6.76 <
3244 2 -5 1 -4 163.74 177.96 8.78 o
3244 1 5 -1 -6 163.74 177.96 8.78 o
3245 2 -5 1 -1 511.48 532.30 14.04 o
3245 1 5 -1 -3 511.48 532.30 14.04 o
3246 2 -5 1 0 43.20 38.07 7.51 o
3246 1 5 -1 -2 43.20 38.07 7.51 o
3247 2 -5 1 1 270.07 244.97 10.37 o
3247 1 5 -1 -1 270.07 244.97 10.37 o
3248 2 -5 1 2 209.55 214.43 9.92 o
3248 1 5 -1 0 209.55 214.43 9.92 o
3249 2 -5 1 3 613.81 600.09 13.03 o
3249 1 5 -1 1 613.81 600.09 13.03 o
3250 2 -5 1 4 342.81 364.29 11.07 o
3250 1 5 -1 2 342.81 364.29 11.07 o
3251 2 -5 1 5 293.05 263.33 9.88 o
3251 1 5 -1 3 293.05 263.33 9.88 o
3252 2 -5 1 6 61.99 57.93 7.34 o
3252 1 5 -1 4 61.99 57.93 7.34 o
3253 2 -6 5 -3 4.55 7.23 5.20 <
3253 1 6 -5 -5 4.55 7.23 5.20 <
3254 2 -6 5 -2 82.62 80.92 6.63 o
3254 1 6 -5 -4 82.62 80.92 6.63 o
3255 2 -6 5 -1 77.68 68.09 5.58 o
3255 1 6 -5 -3 77.68 68.09 5.58 o
3256 2 -6 5 0 9.01 9.14 5.16 <
3256 1 6 -5 -2 9.01 9.14 5.16 <
3257 2 -6 5 1 24.42 15.51 5.71 <
3257 1 6 -5 -1 24.42 15.51 5.71 <
3258 2 -6 5 2 11.18 11.84 5.89 <
3258 1 6 -5 0 11.18 11.84 5.89 <
3259 2 -6 5 3 32.17 31.15 6.15 o
3259 1 6 -5 1 32.17 31.15 6.15 o
3260 2 -6 4 -6 128.71 138.62 6.49 o
3260 1 6 -4 -8 128.71 138.62 6.49 o
3261 2 -6 4 -5 171.99 186.98 8.11 o
3261 1 6 -4 -7 171.99 186.98 8.11 o
3262 2 -6 4 -4 120.55 128.44 5.17 o
3262 1 6 -4 -6 120.55 128.44 5.17 o
3263 2 -6 4 -3 24.16 33.83 4.41 o
3263 1 6 -4 -5 24.16 33.83 4.41 o
3264 2 -6 4 -2 129.43 132.26 6.23 o
3264 1 6 -4 -4 129.43 132.26 6.23 o
3265 2 -6 4 -1 50.90 54.05 5.34 o
3265 1 6 -4 -3 50.90 54.05 5.34 o
3266 2 -6 4 0 49.07 50.71 5.34 o
3266 1 6 -4 -2 49.07 50.71 5.34 o
3267 2 -6 4 1 233.84 243.88 11.51 o
3267 1 6 -4 -1 233.84 243.88 11.51 o
3268 2 -6 4 2 125.35 139.72 9.85 o
3268 1 6 -4 0 125.35 139.72 9.85 o
3269 2 -6 4 3 75.27 69.29 8.35 o
3269 1 6 -4 1 75.27 69.29 8.35 o
3270 2 -6 4 4 27.92 30.50 7.29 o
3270 1 6 -4 2 27.92 30.50 7.29 o
3271 2 -6 4 5 28.25 28.15 6.95 o
3271 1 6 -4 3 28.25 28.15 6.95 o
3272 2 -6 4 6 25.38 26.19 6.39 o
3272 1 6 -4 4 25.38 26.19 6.39 o
3273 2 -6 4 7 36.27 35.53 6.00 o
3273 1 6 -4 5 36.27 35.53 6.00 o
3274 2 -6 4 8 67.17 75.81 5.51 o
3274 1 6 -4 6 67.17 75.81 5.51 o
3275 2 -6 3 -6 6.37 6.52 4.84 <
3275 1 6 -3 -8 6.37 6.52 4.84 <
3276 2 -6 3 -5 9.71 9.67 3.84 <
3276 1 6 -3 -7 9.71 9.67 3.84 <
3277 2 -6 3 -4 69.22 73.85 4.86 o
3277 1 6 -3 -6 69.22 73.85 4.86 o
3278 2 -6 3 -3 97.14 105.71 5.72 o
3278 1 6 -3 -5 97.14 105.71 5.72 o
3279 2 -6 3 -2 375.86 426.87 8.56 o
3279 1 6 -3 -4 375.86 426.87 8.56 o
3280 2 -6 3 -1 46.71 42.05 5.37 o
3280 1 6 -3 -3 46.71 42.05 5.37 o
3281 2 -6 3 0 105.77 103.16 6.00 o
3281 1 6 -3 -2 105.77 103.16 6.00 o
3282 2 -6 3 1 118.09 150.25 10.32 o
3282 1 6 -3 -1 118.09 150.25 10.32 o
3283 2 -6 3 2 236.05 248.00 12.13 o
3283 1 6 -3 0 236.05 248.00 12.13 o
3284 2 -6 3 3 188.07 214.96 11.24 o
3284 1 6 -3 1 188.07 214.96 11.24 o
3285 2 -6 3 4 233.75 240.97 10.84 o
3285 1 6 -3 2 233.75 240.97 10.84 o
3286 2 -6 3 5 129.20 138.05 9.24 o
3286 1 6 -3 3 129.20 138.05 9.24 o
3287 2 -6 3 6 16.08 19.60 6.85 <
3287 1 6 -3 4 16.08 19.60 6.85 <
3288 2 -6 3 7 2.37 2.09 5.65 <
3288 1 6 -3 5 2.37 2.09 5.65 <
3289 2 -6 3 8 7.21 4.19 5.05 <
3289 1 6 -3 6 7.21 4.19 5.05 <
3290 2 -6 2 0 441.59 474.83 12.77 o
3290 1 6 -2 -2 441.59 474.83 12.77 o
3291 2 -6 1 0 857.51 885.93 15.84 o
3291 1 6 -1 -3 857.51 885.93 15.84 o
3292 2 -6 0 -7 50.52 49.03 5.56 o
3292 1 6 0 -10 50.52 49.03 5.56 o
3293 2 -6 0 -6 95.71 103.00 7.68 o
3293 1 6 0 -9 95.71 103.00 7.68 o
3294 2 -6 0 -4 108.36 112.06 9.49 o
3294 1 6 0 -7 108.36 112.06 9.49 o
3295 2 -6 0 -3 133.39 138.43 10.38 o
3295 1 6 0 -6 133.39 138.43 10.38 o
3296 2 -6 0 -2 261.99 260.46 12.53 o
3296 1 6 0 -5 261.99 260.46 12.53 o
3297 2 -6 0 -1 826.84 877.28 19.93 o
3297 1 6 0 -4 826.84 877.28 19.93 o
3298 2 -6 0 0 533.44 578.65 16.73 o
3298 1 6 0 -3 533.44 578.65 16.73 o
3299 2 -6 0 1 12.55 18.79 7.27 <
3299 1 6 0 -2 12.55 18.79 7.27 <
3300 2 -6 0 2 30.08 22.81 7.25 o
3300 1 6 0 -1 30.08 22.81 7.25 o
3301 2 -6 0 3 204.80 198.50 10.73 o
3301 1 6 0 0 204.80 198.50 10.73 o
3302 2 -6 0 4 251.61 245.12 10.73 o
3302 1 6 0 1 251.61 245.12 10.73 o
3303 2 -6 -1 -6 39.46 38.89 5.78 o
3303 1 6 1 -9 39.46 38.89 5.78 o
3304 2 -6 -1 -2 13.63 20.25 7.24 <
3304 1 6 1 -5 13.63 20.25 7.24 <
3305 2 -6 -1 -1 90.21 97.25 8.46 o
3305 1 6 1 -4 90.21 97.25 8.46 o
3306 2 -6 -1 0 45.99 44.58 7.55 o
3306 1 6 1 -3 45.99 44.58 7.55 o
3307 2 -6 -1 1 72.27 77.64 7.88 o
3307 1 6 1 -2 72.27 77.64 7.88 o
3308 2 -7 5 1 67.98 94.26 4.34 o
3308 1 7 -5 -1 67.98 94.26 4.34 o
3309 2 -7 5 2 151.51 162.90 5.32 o
3309 1 7 -5 0 151.51 162.90 5.32 o
3310 2 -7 5 3 61.93 74.14 4.25 o
3310 1 7 -5 1 61.93 74.14 4.25 o
3311 2 -7 4 0 64.20 69.86 5.61 o
3311 1 7 -4 -2 64.20 69.86 5.61 o
3312 2 -7 4 1 92.22 98.31 6.21 o
3312 1 7 -4 -1 92.22 98.31 6.21 o
3313 2 -7 4 2 126.35 139.51 6.52 o
3313 1 7 -4 0 126.35 139.51 6.52 o
3314 2 -7 3 -2 226.01 227.12 7.17 o
3314 1 7 -3 -5 226.01 227.12 7.17 o
3315 2 -7 3 -1 252.53 266.19 8.15 o
3315 1 7 -3 -4 252.53 266.19 8.15 o
3316 2 -7 3 0 184.60 190.48 7.94 o
3316 1 7 -3 -3 184.60 190.48 7.94 o
3317 2 -7 3 1 8.85 14.43 6.16 <
3317 1 7 -3 -2 8.85 14.43 6.16 <
3318 2 -7 3 2 6.28 10.33 6.06 <
3318 1 7 -3 -1 6.28 10.33 6.06 <
3319 2 -7 2 -5 93.88 83.76 4.57 o
3319 1 7 -2 -8 93.88 83.76 4.57 o
3320 2 -7 2 -4 18.57 17.42 4.83 o
3320 1 7 -2 -7 18.57 17.42 4.83 o
3321 2 -7 2 -3 134.16 156.37 7.96 o
3321 1 7 -2 -6 134.16 156.37 7.96 o
3322 2 -7 2 -2 261.28 302.25 10.68 o
3322 1 7 -2 -5 261.28 302.25 10.68 o
3323 2 -7 2 -1 314.99 371.10 12.13 o
3323 1 7 -2 -4 314.99 371.10 12.13 o
3324 2 -7 2 0 77.85 85.99 8.32 o
3324 1 7 -2 -3 77.85 85.99 8.32 o
3325 2 -7 2 1 28.02 29.79 6.98 o
3325 1 7 -2 -2 28.02 29.79 6.98 o
3326 2 -7 2 2 22.74 24.05 6.80 o
3326 1 7 -2 -1 22.74 24.05 6.80 o
3327 2 -7 2 3 59.10 53.74 7.38 o
3327 1 7 -2 0 59.10 53.74 7.38 o
3328 2 -7 2 4 109.18 109.92 7.85 o
3328 1 7 -2 1 109.18 109.92 7.85 o
3329 2 -7 2 5 83.29 95.58 6.83 o
3329 1 7 -2 2 83.29 95.58 6.83 o
3330 2 -7 2 6 172.03 189.51 7.03 o
3330 1 7 -2 3 172.03 189.51 7.03 o
3331 2 -7 2 7 78.08 82.87 4.77 o
3331 1 7 -2 4 78.08 82.87 4.77 o
3332 2 -7 1 -5 76.50 67.13 4.68 o
3332 1 7 -1 -8 76.50 67.13 4.68 o
3333 2 -7 1 -4 58.04 61.41 5.61 o
3333 1 7 -1 -7 58.04 61.41 5.61 o
3334 2 -7 1 -3 56.02 58.29 6.51 o
3334 1 7 -1 -6 56.02 58.29 6.51 o
3335 2 -7 1 -2 27.60 25.99 6.41 o
3335 1 7 -1 -5 27.60 25.99 6.41 o
3336 2 -7 1 -1 13.85 19.45 6.41 o
3336 1 7 -1 -4 13.85 19.45 6.41 o
3337 2 -7 1 0 17.36 18.72 6.85 <
3337 1 7 -1 -3 17.36 18.72 6.85 <
3338 2 -7 1 1 49.40 45.10 7.28 o
3338 1 7 -1 -2 49.40 45.10 7.28 o
3339 2 -7 1 2 102.68 108.09 8.27 o
3339 1 7 -1 -1 102.68 108.09 8.27 o
3340 2 -7 1 3 64.55 52.62 6.69 o
3340 1 7 -1 0 64.55 52.62 6.69 o
3341 2 -7 1 4 13.56 13.77 5.62 <
3341 1 7 -1 1 13.56 13.77 5.62 <
3342 2 -7 1 5 131.38 147.67 6.77 o
3342 1 7 -1 2 131.38 147.67 6.77 o
3343 2 -7 -1 0 17.16 21.78 5.30 o
3343 1 7 1 -4 17.16 21.78 5.30 o
3344 2 -7 -1 1 84.54 88.86 5.97 o
3344 1 7 1 -3 84.54 88.86 5.97 o
3345 2 -8 2 0 31.30 25.83 3.35 o
3345 1 8 -2 -3 31.30 25.83 3.35 o
3346 2 -8 2 1 99.96 103.82 4.29 o
3346 1 8 -2 -2 99.96 103.82 4.29 o
