#------------------------------------------------------------------------------
#$Date: 2021-08-26 11:12:23 +0300 (Thu, 26 Aug 2021) $
#$Revision: 268245 $
#$URL: file:///home/coder/svn-repositories/cod/cif/1/56/44/1564416.cif $
#------------------------------------------------------------------------------
#
# This file is available in the Crystallography Open Database (COD),
# http://www.crystallography.net/
#
# All data on this site have been placed in the public domain by the
# contributors.
#
data_1564416
loop_
_publ_author_name
'Pucho\<nov\'a, Miroslava'
'Maroszov\'a, Jaroslava'
'Vaskov\'a, Zuzana'
'Maz\'ur, Milan'
'Valigura, Du\<san'
'Koman, Marian'
'Moncol, Jan'
_publ_section_title
;
 One dimensional carboxylatocopper(II) coordination polymers with
 4-pyridylmethanol
;
_journal_name_full               'Inorganica Chimica Acta'
_journal_page_first              119763
_journal_paper_doi               10.1016/j.ica.2020.119763
_journal_volume                  510
_journal_year                    2020
_chemical_formula_moiety         'C26 H22 Cu N4 O10'
_chemical_formula_sum            'C26 H22 Cu N4 O10'
_chemical_formula_weight         614.01
_space_group_crystal_system      triclinic
_space_group_IT_number           2
_space_group_name_Hall           '-P 1'
_space_group_name_H-M_alt        'P -1'
_atom_sites_solution_hydrogens   mixed
_atom_sites_solution_primary     dual
_cell_angle_alpha                86.543(5)
_cell_angle_beta                 87.753(5)
_cell_angle_gamma                65.686(5)
_cell_formula_units_Z            1
_cell_length_a                   7.5681(5)
_cell_length_b                   9.1950(6)
_cell_length_c                   9.8055(6)
_cell_measurement_reflns_used    13986
_cell_measurement_temperature    100
_cell_measurement_theta_max      72.23
_cell_measurement_theta_min      4.52
_cell_volume                     620.62(7)
_computing_cell_refinement
;
X-Area Recipe 1.33.0.0 (STOE, 2015)
;
_computing_data_collection
;
X-Area Pilatus3_SV 1.31.150.0 (STOE, 2018)
;
_computing_data_reduction
;
X-Area Integrate 1.73.1.0 (STOE, 2018)
X-Area LANA 1.73.2.0 (STOE, 2018)
;
_computing_molecular_graphics    'Olex2 (Dolomanov et al., 2009)'
_computing_publication_material
;
STOE & Cie GmbH, X-Area, software package for collecting single-crystal or
multi-domain crystal data on STOE area-detector diffractometers, for image
processing, for the correction and scaling of reflection intensities and
for outlier rejection, version 1.84, Darmstadt 2018
;
_computing_structure_refinement  'ShelXL (Sheldrick, 2015)'
_computing_structure_solution    'ShelXT (Sheldrick, 2015)'
_diffrn_ambient_temperature      100
_diffrn_detector                 'Pilatus3R 300K'
_diffrn_detector_area_resol_mean 5.81
_diffrn_detector_type            'DECTRIS PILATUS3R 300K'
_diffrn_measured_fraction_theta_full 0.993
_diffrn_measured_fraction_theta_max 0.963
_diffrn_measurement_device       'Eulerian 4-circle diffractometer'
_diffrn_measurement_device_type  'Stoe Stadivari with Xenocs Genix3D Cu HF'
_diffrn_measurement_method       '\w scans'
_diffrn_radiation_collimation    '0.6 mm diameter'
_diffrn_radiation_monochromator  'Graded multilayer mirror'
_diffrn_radiation_polarisn_norm  270
_diffrn_radiation_type           CuK\a
_diffrn_radiation_wavelength     1.54186
_diffrn_reflns_av_R_equivalents  0.0140
_diffrn_reflns_av_unetI/netI     0.0123
_diffrn_reflns_Laue_measured_fraction_full 0.993
_diffrn_reflns_Laue_measured_fraction_max 0.963
_diffrn_reflns_limit_h_max       8
_diffrn_reflns_limit_h_min       -3
_diffrn_reflns_limit_k_max       11
_diffrn_reflns_limit_k_min       -9
_diffrn_reflns_limit_l_max       11
_diffrn_reflns_limit_l_min       -11
_diffrn_reflns_number            7261
_diffrn_reflns_point_group_measured_fraction_full 0.993
_diffrn_reflns_point_group_measured_fraction_max 0.963
_diffrn_reflns_theta_full        67.686
_diffrn_reflns_theta_max         71.640
_diffrn_reflns_theta_min         4.518
_diffrn_source                   'Genix3D Cu HF'
_diffrn_source_current           0.600
_diffrn_source_power             0.030
_diffrn_source_voltage           50
_exptl_absorpt_coefficient_mu    1.862
_exptl_absorpt_correction_T_max  0.479
_exptl_absorpt_correction_T_min  0.231
_exptl_absorpt_correction_type   multi-scan
_exptl_absorpt_process_details
;
STOE LANA, J. Koziskova, F. Hahn, J. Richter, J. Kozisek,
Acta Chimica Slovaca, vol. 9, no. 2, 2016, pp. 136 - 140.
;
_exptl_crystal_colour            blue
_exptl_crystal_colour_primary    blue
_exptl_crystal_density_diffrn    1.643
_exptl_crystal_description       block
_exptl_crystal_F_000             315
_exptl_crystal_size_max          0.35
_exptl_crystal_size_mid          0.14
_exptl_crystal_size_min          0.05
_refine_diff_density_max         0.372
_refine_diff_density_min         -0.502
_refine_diff_density_rms         0.057
_refine_ls_extinction_coef       0.0067(5)
_refine_ls_extinction_expression Fc^*^=kFc[1+0.001xFc^2^\l^3^/sin(2\q)]^-1/4^
_refine_ls_extinction_method     'SHELXL-2018/3 (Sheldrick 2018)'
_refine_ls_goodness_of_fit_ref   1.093
_refine_ls_hydrogen_treatment    constr
_refine_ls_matrix_type           full
_refine_ls_number_parameters     188
_refine_ls_number_reflns         2340
_refine_ls_number_restraints     0
_refine_ls_restrained_S_all      1.093
_refine_ls_R_factor_all          0.0265
_refine_ls_R_factor_gt           0.0258
_refine_ls_shift/su_max          0.000
_refine_ls_shift/su_mean         0.000
_refine_ls_structure_factor_coef Fsqd
_refine_ls_weighting_details
'w=1/[\s^2^(Fo^2^)+(0.0285P)^2^+0.5402P] where P=(Fo^2^+2Fc^2^)/3'
_refine_ls_weighting_scheme      calc
_refine_ls_wR_factor_gt          0.0666
_refine_ls_wR_factor_ref         0.0669
_reflns_Friedel_coverage         0.000
_reflns_Friedel_fraction_full    .
_reflns_Friedel_fraction_max     .
_reflns_number_gt                2273
_reflns_number_total             2340
_reflns_threshold_expression     'I > 2\s(I)'
_cod_data_source_file            6.cif
_cod_data_source_block           6
_cod_database_code               1564416
_shelx_space_group_comment
;
The symmetry employed for this shelxl refinement is uniquely defined
by the following loop, which should always be used as a source of
symmetry information in preference to the above space-group names.
They are only intended as comments.
;
_shelx_estimated_absorpt_t_max   0.913
_shelx_estimated_absorpt_t_min   0.562
_olex2_refinement_description
;
1. Fixed Uiso
 At 1.2 times of:
  All C(H) groups, All C(H,H) groups
 At 1.5 times of:
  All O(H) groups
2.a Riding coordinates:
 O3(H3)
2.b Secondary CH2 refined with riding coordinates:
 C14(H14A,H14B)
2.c Aromatic/amide H refined with riding coordinates:
 C3(H3A), C5(H5), C6(H6), C7(H7), C9(H9), C10(H10), C12(H12), C13(H13)
;
_shelx_res_file
;
TITL jm1072_a.res in P-1
    jam5.res
    created by SHELXL-2018/3 at 09:19:50 on 27-Jul-2019
REM Old TITL jm1072_a.res in P-1
REM SHELXT solution in P-1: R1 0.088, Rweak 0.008, Alpha 0.085
REM <I/s> 0.000 for 0 systematic absences, Orientation as input
REM Formula found by SHELXT: C26 Cu N2 O12
CELL 1.54186 7.5681 9.195 9.8055 86.543 87.753 65.686
ZERR 1 0.0005 0.0006 0.0006 0.005 0.005 0.005
LATT 1
SFAC C H Cu N O
UNIT 26 22 1 4 10
L.S. 10
PLAN  20
SIZE 0.05 0.14 0.35
TEMP -173.15
BOND
list 4
fmap 2
acta
REM <olex2.extras>
REM <HklSrc "%.\\jm1072.hkl">
REM </olex2.extras>
WGHT    0.028500    0.540200
EXTI    0.006739
FVAR       0.83195
CU1   3    0.000000    0.500000    1.000000    10.50000    0.00712    0.01024 =
         0.01030    0.00174   -0.00107   -0.00288
O1    5   -0.080927    0.604905    0.816179    11.00000    0.01197    0.01276 =
         0.01278    0.00197   -0.00164   -0.00442
O2    5   -0.067458    0.843301    0.830587    11.00000    0.02144    0.01388 =
         0.01528    0.00109   -0.00582   -0.00680
O3    5    0.994585    0.265152    0.911145    11.00000    0.01230    0.01467 =
         0.01447    0.00128   -0.00311   -0.00711
AFIX   3
H3    2    1.000555    0.212832    0.985365    11.00000   -1.50000
AFIX   0
O4    5   -0.276170    1.226578    0.440644    11.00000    0.02877    0.01943 =
         0.02827    0.00572   -0.00542   -0.01206
O5    5   -0.374905    1.165612    0.257093    11.00000    0.03111    0.03037 =
         0.01875    0.01348   -0.00923   -0.01183
N1    4    0.281971    0.413831    0.938139    11.00000    0.01005    0.01188 =
         0.01049   -0.00097   -0.00154   -0.00494
N2    4   -0.309304    1.133169    0.373053    11.00000    0.01386    0.01959 =
         0.01898    0.00713   -0.00073   -0.00579
C1    1   -0.099961    0.742521    0.768776    11.00000    0.00811    0.01315 =
         0.01318    0.00056   -0.00014   -0.00198
C2    1   -0.170051    0.784500    0.623719    11.00000    0.00782    0.01495 =
         0.01227    0.00021    0.00020   -0.00295
C3    1   -0.203778    0.935599    0.566043    11.00000    0.00964    0.01451 =
         0.01459   -0.00007   -0.00073   -0.00442
AFIX  43
H3A   2   -0.181338    1.011338    0.616344    11.00000   -1.20000
AFIX   0
C4    1   -0.270749    0.972615    0.433723    11.00000    0.00953    0.01603 =
         0.01524    0.00379    0.00019   -0.00363
C5    1   -0.304754    0.866510    0.356161    11.00000    0.01415    0.02483 =
         0.01156    0.00088   -0.00093   -0.00715
AFIX  43
H5    2   -0.350970    0.895817    0.265535    11.00000   -1.20000
AFIX   0
C6    1   -0.269531    0.715863    0.414292    11.00000    0.02024    0.02216 =
         0.01625   -0.00425   -0.00064   -0.00999
AFIX  43
H6    2   -0.290947    0.640295    0.363075    11.00000   -1.20000
AFIX   0
C7    1   -0.202999    0.675436    0.547277    11.00000    0.01476    0.01498 =
         0.01551    0.00004    0.00045   -0.00557
AFIX  43
H7    2   -0.179720    0.572273    0.586505    11.00000   -1.20000
AFIX   0
C9    1    0.403846    0.262095    0.969963    11.00000    0.01255    0.01212 =
         0.01430    0.00041   -0.00151   -0.00600
AFIX  43
H9    2    0.355265    0.195799    1.022334    11.00000   -1.20000
AFIX   0
C10   1    0.597225    0.198187    0.929710    11.00000    0.01146    0.01113 =
         0.01563   -0.00081   -0.00216   -0.00353
AFIX  43
H10   2    0.678495    0.090080    0.953969    11.00000   -1.20000
AFIX   0
C11   1    0.671708    0.293277    0.853542    11.00000    0.01030    0.01564 =
         0.01045   -0.00372   -0.00097   -0.00619
C12   1    0.545220    0.450301    0.820374    11.00000    0.01290    0.01477 =
         0.01175   -0.00002   -0.00098   -0.00783
AFIX  43
H12   2    0.590179    0.519012    0.768040    11.00000   -1.20000
AFIX   0
C13   1    0.353830    0.505764    0.863973    11.00000    0.01227    0.01127 =
         0.01191    0.00023   -0.00285   -0.00494
AFIX  43
H13   2    0.269407    0.613315    0.840618    11.00000   -1.20000
AFIX   0
C14   1    0.883910    0.230197    0.813489    11.00000    0.01058    0.01591 =
         0.01431   -0.00281   -0.00045   -0.00542
AFIX  23
H14A  2    0.935368    0.113074    0.805469    11.00000   -1.20000
H14B  2    0.897982    0.278538    0.723006    11.00000   -1.20000
AFIX   0
HKLF 4
REM  jm1072_a.res in P-1
REM wR2 = 0.0669, GooF = S = 1.093, Restrained GooF = 1.093 for all data
REM R1 = 0.0258 for 2273 Fo > 4sig(Fo) and 0.0265 for all 2340 data
REM 188 parameters refined using 0 restraints
END
WGHT      0.0282      0.5360
REM Highest difference peak  0.372,  deepest hole -0.502,  1-sigma level  0.057
Q1    1   0.7713  0.2675  0.8307  11.00000  0.05    0.37
Q2    1   0.6077  0.3607  0.8213  11.00000  0.05    0.33
Q3    1   0.1897  0.4564  0.9826  11.00000  0.05    0.30
Q4    1   0.6368  0.2442  0.8762  11.00000  0.05    0.30
Q5    1   0.4997  0.2230  0.9267  11.00000  0.05    0.27
Q6    1   0.1622  0.4286  0.9334  11.00000  0.05    0.26
Q7    1  -0.1893  0.9371  0.4788  11.00000  0.05    0.25
Q8    1   0.4507  0.4746  0.8605  11.00000  0.05    0.24
Q9    1  -0.1611  0.7241  0.5785  11.00000  0.05    0.23
Q10   1  -0.1268  0.7644  0.6866  11.00000  0.05    0.23
Q11   1  -0.1575  0.8475  0.5859  11.00000  0.05    0.23
Q12   1   0.3109  0.4458  0.8859  11.00000  0.05    0.22
Q13   1   0.3476  0.3591  0.9704  11.00000  0.05    0.21
Q14   1  -0.2818  1.0447  0.4081  11.00000  0.05    0.20
Q15   1   0.0719  0.3808  0.9607  11.00000  0.05    0.20
Q16   1  -0.2380  0.9077  0.3873  11.00000  0.05    0.19
Q17   1  -0.2518  0.7859  0.3791  11.00000  0.05    0.18
Q18   1  -0.0783  0.6578  0.7970  11.00000  0.05    0.18
Q19   1  -0.0243  0.5455  0.7637  11.00000  0.05    0.17
Q20   1  -0.1853  0.6780  0.4651  11.00000  0.05    0.16
;
_shelx_res_checksum              49703
_shelx_hkl_file
;
  -2  -2  -9  101.91    2.95   0
  -1  -1  -9  159.31    3.62   0
   1   0  -9   34.92    1.89   0
   2   0  -9   73.14    2.50   0
   0   1  -7  142.92    3.16   0
   3   2  -5  477.64    4.57   0
   3   2  -4  802.73    5.09   0
   1   1  -8    1.10    0.98   0
   1   2  -5  481.23    4.65   0
   1   2  -4 1403.35    6.92   0
  -1   1  -4 2107.57    8.51   0
   3   1  -8   76.33    2.56   0
   3   2  -3  207.86    2.25   0
  -3  -3  -9   39.22    2.07   0
   1   2  -6    4.37    0.84   0
   1   2  -3 2251.18    7.64   0
   3   2  -6  230.59    3.61   0
  -3  -1  -4   10.21    0.79   0
  -1   1  -6   12.78    1.10   0
   0   1  -8   47.33    2.14   0
  -3  -1  -6  282.88    4.02   0
  -1   1  -3  584.09    3.92   0
  -1   1  -7    1.36    1.04   0
   1   1  -9  121.89    3.40   0
   2   1  -9   47.87    2.20   0
   3   2  -7   92.84    2.71   0
   0   2  -5  203.88    3.18   0
   0   2  -4  243.36    3.08   0
  -3  -1  -7  381.01    5.14   0
   0   0 -10   16.18    1.53   0
   0   2  -6  517.98    5.67   0
  -3  -1  -3  145.58    1.82   0
   0   1  -9    8.59    1.48   0
  -3  -2  -9   15.38    1.73   0
  -1   1  -8  120.74    3.31   0
   0   2  -7   82.83    2.67   0
   1   2  -8   75.80    2.69   0
   0   1  -1 2076.05    4.79   0
   0   2  -3  451.36    3.64   0
   3   2  -8  337.25    5.06   0
  -2   0  -2    5.74    0.43   0
  -1   1  -2  439.50    2.94   0
   3   3  -5  258.02    3.60   0
  -2   0  -9    8.63    1.53   0
   0   2  -8  282.12    4.97   0
   1   3  -5  502.83    5.17   0
   2   2  -9  140.98    3.56   0
   3   3  -6  318.87    4.45   0
  -1   1  -9   13.65    1.51   0
  -1   2  -6  398.51    5.18   0
   1   3  -6  745.72    6.96   0
   3   3  -4    3.59    0.74   0
  -3   0  -6   47.30    1.94   0
   1   3  -4  445.60    4.33   0
  -3   0  -5   51.35    1.68   0
  -1   2  -7  405.88    5.66   0
  -1   2  -4  683.86    5.35   0
   1   3  -7  218.34    4.17   0
   3   3  -7  576.51    6.32   0
  -3   0  -7    0.25    1.25   0
   0   2  -9  170.09    3.96   0
  -3   0  -4  562.97    4.51   0
   0   3  -6  287.24    4.47   0
   0   3  -5  604.26    5.82   0
   1   3  -8    2.79    1.11   0
   3   3  -3  244.46    2.66   0
  -1   2  -3 1448.25    6.88   0
   0   3  -7    2.10    0.93   0
  -2   1  -9  248.07    4.66   0
   2   3  -9  282.11    4.80   0
  -1   2  -9  180.82    4.04   0
   1   3  -9   72.78    2.64   0
  -3  -1  -2   37.32    0.70   0
  -3   0  -3   56.26    1.27   0
   0   3  -3  157.17    2.42   0
   1   4  -6  303.76    4.64   0
   3   4  -6   48.57    1.91   0
  -1   3  -5  555.73    5.78   0
   1   3  -2  349.09    3.05   0
   1   4  -7  454.74    6.07   0
   1   4  -5    3.61    0.83   0
   3   4  -7  374.82    5.16   0
  -3   1  -7   37.12    2.02   0
  -3   1  -6   38.56    1.79   0
  -1   3  -7    1.61    1.05   0
   0   3  -9   20.90    1.62   0
   3   4  -4  205.37    3.02   0
  -3   1  -5   13.52    1.09   0
  -1   1  -1    0.82    0.30   0
  -1   2  -2 1873.16    6.94   0
   1   4  -4  459.73    4.75   0
  -1   3  -8  392.34    5.80   0
  -1   3  -4  338.25    4.08   0
   1   4  -8  271.88    4.82   0
   3   4  -8   52.54    2.34   0
  -3   1  -8    4.99    1.46   0
   0   4  -6    6.24    1.01   0
   0   4  -5  273.66    4.21   0
  -3   1  -4  198.21    2.90   0
   0   2  -1  944.26    4.08   0
   0   4  -7  626.68    7.16   0
   0   3  -2  661.54    4.42   0
   1   4  -3  320.40    3.61   0
  -1   3  -3  388.39    3.97   0
   0   4  -8    1.57    1.14   0
   0   4  -4  458.79    4.93   0
   3   4  -3  152.83    2.32   0
  -3  -5  -5   32.52    1.54   0
  -1  -6  -7  110.19    3.06   0
   1   0  -3  540.77    3.43   0
   3   0  -3  882.61    4.81   0
  -3  -7  -6  321.09    4.76   0
  -1  -5  -7    2.21    0.97   0
  -1  -3  -6  101.97    2.42   0
  -1  -1  -3 2843.44    7.77   0
   1  -2  -6  552.12    5.61   0
   1  -1  -5   21.20    1.07   0
   3  -4  -6   69.02    2.34   0
   3  -3  -6   69.85    2.36   0
  -3  -6  -6  266.38    4.19   0
   0  -2  -6  431.37    4.81   0
  -1  -4  -7   15.45    1.33   0
   0   0  -2  577.01    2.81   0
   1  -3  -7  354.59    5.03   0
   3  -1  -5    3.98    0.87   0
  -3  -4  -5   16.06    1.15   0
   0  -3  -7   28.23    1.55   0
   0  -1  -5  174.70    2.68   0
  -2  -5  -7    5.85    1.10   0
   3  -2  -6  291.78    4.27   0
  -3  -5  -6   80.21    2.30   0
  -1  -1  -4  380.10    3.38   0
   1   0  -4   39.86    1.16   0
   3   0  -4  281.47    3.16   0
   0  -5  -8  131.33    3.22   0
  -1  -3  -7  461.52    5.48   0
   1  -2  -7  533.70    6.00   0
   1  -1  -6  241.53    3.60   0
  -3  -3  -4  227.49    2.78   0
  -1  -5  -8  212.50    4.08   0
   0  -2  -7  508.90    5.73   0
  -3  -6  -7   39.96    1.89   0
   0  -1  -6  280.07    3.80   0
   3  -1  -6   18.06    1.38   0
  -3  -4  -6   41.41    1.79   0
  -1  -4  -8  666.51    7.02   0
   0  -3  -8  564.62    6.56   0
   0   0  -4   45.72    1.24   0
   1  -3  -8  488.15    6.04   0
   1   0  -5  100.34    2.05   0
  -1  -1  -5  327.54    3.60   0
   3  -2  -7  188.75    3.61   0
   3   0  -5    2.00    0.78   0
  -3  -5  -7  757.93    7.04   0
  -2  -5  -8  169.66    3.56   0
  -3  -3  -5   90.82    2.08   0
  -1  -2  -7  157.92    3.23   0
   1  -1  -7  434.13    5.29   0
  -1  -3  -8  130.15    3.22   0
   1  -2  -8  311.50    4.88   0
   0   0  -5 1954.34    8.73   0
  -1  -1  -6  241.06    3.54   0
   0  -2  -8    4.16    1.00   0
   0  -1  -7   67.73    2.14   0
   1   0  -6  270.47    3.74   0
   3   0  -6  367.55    4.48   0
   3   1  -3  267.70    2.48   0
  -3  -4  -7 1746.29   10.49   0
  -2  -1  -3  638.25    3.68   0
  -1  -4  -9   77.13    2.61   0
  -3  -3  -6  222.83    3.52   0
   1   1  -3  687.27    3.85   0
   3   1  -4  457.36    3.83   0
   4   0  -5    0.84    0.92   0
  -2  -1  -2  109.90    1.21   0
  -1   0  -3  197.11    2.09   0
   0   0  -6   10.56    1.02   0
   1  -1  -8  252.35    4.44   0
   1   1  -4  503.95    3.92   0
   3  -2  -8  141.50    3.28   0
  -3  -5  -8  652.87    6.67   0
  -2  -3  -8  340.24    5.01   0
  -1  -2  -8   43.68    1.96   0
  -1   0  -4  741.03    4.73   0
   1  -2  -9   52.81    2.28   0
   1   0  -7  222.80    3.81   0
  -3  -2  -4  166.08    2.29   0
  -3  -2  -3  400.46    2.87   0
  -1   0  -2  514.31    2.70   0
   0  -1  -8   17.06    1.35   0
   1   1  -5  692.96    5.34   0
  -2  -4  -9    1.65    1.06   0
  -1   0  -5 1142.37    6.83   0
   0  -2  -9   43.05    2.05   0
   2  -2  -9    3.26    1.07   0
   3   0  -7  315.34    4.49   0
  -3  -4  -8   74.93    2.57   0
   3  -1  -8   94.38    2.64   0
  -3  -2  -5  164.23    2.69   0
   0   0  -7  169.73    3.35   0
   1   1  -6    3.98    0.89   0
   3   1  -6  625.97    5.83   0
  -1  -2  -9   64.93    2.42   0
  -1  -1  -8  383.49    5.43   0
   0   1  -4 2498.28    8.90   0
   1  -1  -9  213.18    4.23   0
   1   0  -8   -0.16    0.93   0
   0   1  -5   51.16    1.56   0
   2  -1  -9  171.00    3.65   0
  -3  -2  -6  218.60    3.48   0
   0   0  -8    7.93    1.11   0
   3   0  -8  170.84    3.54   0
  -3  -9   0  717.33    7.08   0
  -2  -7  -2  127.92    2.96   0
  -2  -4  -2  286.45    2.88   0
  -3  -8  -1   67.91    2.31   0
   3  -5  -1    5.88    1.24   0
  -3  -4  -1  448.08    3.03   0
  -1  -8  -2  134.78    3.28   0
   0  -5  -3   60.35    1.85   0
   0  -4  -3   28.41    1.18   0
   1  -7  -2   15.55    1.41   0
   3  -1  -1  338.74    2.75   0
  -2  -8  -2  355.35    5.03   0
  -1  -5  -3  478.10    4.78   0
   0  -6  -3   12.10    1.09   0
   1  -4  -3  260.75    3.48   0
   1  -5  -3   19.50    1.26   0
  -3  -9  -1  479.48    5.73   0
  -3  -6  -2    2.33    0.67   0
  -1  -4  -3 2195.83    8.91   0
   1  -3  -3  787.44    5.34   0
   3  -3  -2  870.30    6.27   0
  -1  -7  -3  103.19    2.77   0
   0  -7  -3  128.59    3.21   0
   0  -3  -3  730.21    4.86   0
   3  -6  -1    6.75    1.15   0
   3  -4  -2  132.90    2.81   0
   2  -4  -3  536.75    5.39   0
  -3  -8  -2 1254.03    8.88   0
  -3  -5  -2  479.28    3.96   0
  -1  -2  -2 3749.03    7.94   0
   3  -5  -2   15.72    1.44   0
   3  -2  -2  200.86    2.67   0
   4  -3  -1    8.39    1.11   0
  -2  -3  -2  712.06    3.77   0
   2  -7  -2   28.27    1.72   0
   2  -3  -3  224.40    3.09   0
  -1  -8  -3  396.34    5.41   0
   1  -7  -3  830.59    7.88   0
  -2  -8  -3   37.07    1.94   0
  -1  -3  -3    1.07    0.40   0
   1  -2  -3  319.30    3.10   0
   0  -6  -4  180.82    3.51   0
   0  -5  -4   60.88    1.94   0
  -3  -9  -2   75.64    2.59   0
  -1  -5  -4  659.29    5.93   0
  -3  -7  -3  148.44    3.04   0
  -3  -6  -3   62.75    1.88   0
   0  -7  -4  365.14    5.24   0
   0  -1  -2  516.41    2.82   0
   1  -6  -4   22.85    1.55   0
   3  -4  -3  108.44    2.62   0
  -3  -8  -3  654.19    6.60   0
   3  -3  -3  684.28    5.81   0
   3  -1  -2  775.14    4.48   0
  -3  -4  -2 2892.09    8.33   0
  -2  -7  -4  316.96    4.77   0
  -1  -4  -4  116.22    2.28   0
   1  -3  -4   28.18    1.22   0
   2  -4  -4  234.52    3.80   0
   3  -5  -3  111.32    2.82   0
   4  -3  -2   38.01    1.65   0
  -1  -8  -4  186.74    3.78   0
   0  -3  -4   18.39    0.96   0
   1  -7  -4  178.83    3.78   0
   2  -3  -4  433.59    4.63   0
   3  -2  -3   87.15    1.96   0
  -3  -5  -3  847.13    5.67   0
  -2  -8  -4  481.68    5.95   0
   4  -2  -2  125.96    2.36   0
   0  -6  -5   71.51    2.47   0
   0  -5  -5   40.04    1.81   0
  -1  -6  -5    2.24    1.10   0
   1  -5  -5  284.85    4.48   0
  -2  -3  -3  211.99    2.42   0
  -1  -7  -5   48.34    2.08   0
  -1  -5  -5   13.30    1.25   0
  -1  -2  -3  770.59    4.29   0
   0  -7  -5  103.35    2.91   0
   1  -6  -5  245.49    4.40   0
   1  -4  -5   35.38    1.67   0
   1  -1  -3  134.58    1.86   0
  -3  -7  -4  193.94    3.63   0
   0  -4  -5    4.41    0.81   0
   3  -4  -4   13.39    1.29   0
  -3  -8  -4  141.96    3.30   0
  -3  -6  -4   34.42    1.60   0
   3  -5  -4  100.91    2.82   0
  -2  -6  -5  439.35    5.42   0
  -1  -8  -5   32.02    1.76   0
   0  -2  -4  148.52    2.27   0
   1  -7  -5  179.44    3.75   0
  -1  -4  -5    7.72    0.87   0
   1  -3  -5  321.31    4.15   0
  -2  -8  -5   29.96    1.90   0
   0  -3  -5   67.84    1.89   0
  -3  -4  -3   19.04    0.92   0
   2  -3  -5    2.03    0.73   0
   3  -2  -4  237.32    3.37   0
  -3  -5  -4   11.20    1.01   0
  -2  -2  -2   69.81    1.07   0
   0  -6  -6  202.61    3.97   0
  -1  -6  -6  162.64    3.59   0
   1  -5  -6    9.20    1.29   0
  -1  -7  -6   12.57    1.29   0
   0  -7  -6   14.56    1.38   0
   1  -6  -6  245.65    4.28   0
   1   0  -2 1202.77    4.16   0
  -1  -5  -6    1.05    0.80   0
  -1  -1  -2 3233.52    6.64   0
   0  -4  -6   10.36    1.04   0
   1  -4  -6   44.30    1.87   0
   1  -2  -5  592.41    5.18   0
   3  -4  -5   81.07    2.43   0
  -3  -8  -5   11.60    1.63   0
  -1  -2  -4  792.14    4.91   0
   3  -5  -5   33.15    1.77   0
   3  -3  -5    2.31    1.01   0
  -3  -6  -5  292.69    4.07   0
  -2  -7   4   -0.34    1.13   0
  -1  -7   5  557.76    6.77   0
  -1  -5   1   41.53    1.42   0
   1  -6   5  113.80    3.22   0
   1  -6   6  334.13    5.35   0
  -3  -4   1  172.94    2.01   0
  -1  -6   2  527.49    5.62   0
   1  -5   2  538.99    5.70   0
   3  -4   5  371.25    5.30   0
  -3  -7   4   63.91    2.34   0
  -1  -7   4  218.74    4.22   0
   1  -6   4   40.18    2.02   0
   2  -4   2  171.41    3.08   0
   0  -5   1  654.89    5.63   0
   3  -4   4  848.29    7.63   0
  -3  -6   2   45.04    1.57   0
  -1  -4   0    1.65    0.50   0
   0  -7   5    7.62    1.24   0
   0  -6   2   17.37    1.25   0
  -1  -7   3   74.57    2.48   0
   1  -6   3   80.52    2.66   0
  -3  -7   3   74.88    2.34   0
  -2  -3   0 1270.32    4.45   0
   0  -7   4    4.48    1.10   0
   0  -4   0  888.74    5.44   0
   1  -3   0  225.18    2.57   0
   3  -3   2  108.10    2.35   0
   3  -1   1  397.43    2.94   0
  -3  -5   1  148.00    2.23   0
   3  -4   3   94.53    2.62   0
  -2  -4   0 1217.20    5.45   0
  -1  -6   1    4.59    0.81   0
   1  -5   1  270.00    3.86   0
   0  -7   3   20.34    1.52   0
   2  -4   1  608.94    5.41   0
  -1  -7   2    4.98    0.96   0
   0  -6   1  145.08    3.03   0
   1  -6   2  135.51    3.14   0
   3  -2   1  422.68    3.64   0
  -2  -8   4    7.81    1.20   0
   1  -4   0  596.95    4.84   0
  -3  -7   2   10.29    1.23   0
  -1  -8   4   14.98    1.42   0
   1  -7   4   63.88    2.38   0
  -3  -8   4   17.55    1.59   0
  -3  -6   1   22.28    1.11   0
  -2  -8   3  540.79    6.21   0
   3  -5   4  123.62    3.10   0
   3  -4   2  421.92    4.92   0
  -1  -8   3   30.98    1.75   0
  -1  -7   1    4.35    1.11   0
   1  -7   3    5.03    1.11   0
   3  -3   1    9.17    0.82   0
  -3  -8   3   54.03    2.09   0
  -1  -6   0    0.19    0.61   0
   1  -6   1  230.05    3.93   0
   1  -5   0    5.48    0.88   0
   3  -5   3  188.96    3.69   0
   4  -2   2  509.27    4.41   0
  -2  -8   2  923.97    7.94   0
   0  -8   3   57.48    2.33   0
   0  -6   0    7.81    0.91   0
   0  -4  -1 1176.61    6.14   0
  -1  -4  -1  821.17    4.79   0
  -1  -3  -1 1940.02    6.17   0
  -3  -8   2   50.70    2.08   0
   1  -3  -1  197.08    2.36   0
   3  -4   1  461.22    4.99   0
  -3  -5   0  296.07    2.97   0
  -1  -5  -1  234.04    3.01   0
  -3  -4   0  268.74    2.25   0
  -1  -7   0   80.98    2.37   0
   0  -8   2  170.11    3.66   0
   0  -5  -1   54.66    1.62   0
   1  -4  -1   13.87    0.86   0
  -3  -6   0  264.31    3.33   0
  -2  -8   1  761.23    7.17   0
   1  -7   1  108.60    3.01   0
   1  -6   0   17.01    1.27   0
   3  -2   0   19.26    0.91   0
   0  -7   0    1.18    1.02   0
   2  -5   0  238.71    3.79   0
  -2  -4  -1 1442.23    5.95   0
   1  -5  -1  124.87    2.65   0
   3  -3   0  740.56    5.48   0
   3  -1   0  144.13    1.72   0
  -3  -8   1    1.04    1.15   0
   0  -8   1  204.62    4.06   0
   0  -6  -1   17.96    1.20   0
  -3  -7   0  382.60    4.55   0
  -1  -2  -1 1433.64    4.19   0
   3  -5   1  566.97    6.02   0
   4  -2   1  606.33    4.64   0
   1  -1  -1 1616.05    4.62   0
   2  -4  -1  228.50    3.33   0
  -2  -8   0  105.12    2.87   0
  -1  -8   0   30.33    1.72   0
   1  -7   0  110.11    3.04   0
  -1  -7  -1  129.86    2.99   0
   1  -6  -1    9.91    1.11   0
  -2  -3  -1  147.84    1.56   0
   0  -4  -2  660.97    4.87   0
   0  -8   0  196.46    3.97   0
   0  -7  -1   15.56    1.37   0
   2  -5  -1   50.82    1.89   0
  -3  -8   0  294.94    4.45   0
  -1  -5  -2  202.57    2.97   0
  -1  -4  -2  502.15    4.06   0
   0  -3  -2  270.49    2.74   0
   0  -1  -1 3726.93    6.09   0
   1  -4  -2  711.76    5.51   0
  -3  -5  -1  306.65    3.12   0
  -1  -6  -2  519.96    5.37   0
   0  -6  -2   25.58    1.42   0
   1  -5  -2  108.75    2.55   0
  -1  -8  -1  207.65    4.05   0
   1  -7  -1  340.23    5.18   0
  -2  -3   8   16.86    1.62   0
   3   0   4  575.86    4.57   0
  -3  -3   8  127.97    3.42   0
  -1  -3   3   10.03    0.72   0
  -1  -3   8    2.99    1.18   0
   0  -3   5  608.87    5.92   0
   0  -3   7    2.68    0.95   0
   1  -2   3 1414.98    6.79   0
   3   0   8  274.66    4.67   0
   0  -3   4  134.58    2.52   0
   2  -1   9  246.61    4.57   0
  -1  -3   9   70.40    2.66   0
   0  -3   8  146.02    3.69   0
  -3  -4   5  403.30    4.68   0
  -3  -4   6   45.85    1.94   0
  -2  -3   2  100.90    1.56   0
  -2  -2   1  708.74    2.76   0
  -1  -4   6  305.56    4.78   0
  -1  -2   1  107.40    1.24   0
   0  -3   3  159.89    2.44   0
   3   0   3   58.13    1.29   0
  -1  -4   5    3.74    0.85   0
  -1  -4   7  451.95    6.19   0
   1  -3   5  555.07    5.81   0
   1  -3   6  303.55    4.73   0
   3  -1   6   38.54    1.87   0
  -2  -4   8  396.44    5.81   0
  -1  -3   2  331.22    2.94   0
   0  -3   9   23.72    1.74   0
   1  -3   7    2.15    1.08   0
   3  -1   5   14.88    1.21   0
   3  -1   7   37.30    2.01   0
  -3  -4   4  196.27    2.96   0
   1  -2   2 1860.66    6.90   0
   1  -1   1    0.47    0.23   0
  -3  -4   8   53.92    2.53   0
  -1  -4   8  273.59    4.98   0
   1  -3   4  347.11    4.18   0
   1  -3   8  387.65    5.82   0
   0  -4   5  272.91    4.29   0
   0  -4   6    7.18    1.09   0
   3  -1   8    3.57    1.28   0
  -3  -3   2   15.45    0.67   0
   0  -4   7  642.85    7.43   0
   0  -2   1  926.20    4.02   0
   3  -1   4  198.13    2.95   0
  -1  -4   3  325.28    3.70   0
   0  -3   2  666.39    4.47   0
   0  -4   4  467.66    5.08   0
   0  -4   8    2.94    1.15   0
   1  -3   3  409.13    4.12   0
  -3  -5   6  127.70    3.11   0
  -1  -5   6  827.81    8.13   0
   1  -4   6  935.17    8.71   0
  -3  -5   7  230.73    4.34   0
  -1  -5   5  134.63    3.16   0
   0  -4   3  114.62    2.37   0
   1  -4   5  504.34    6.05   0
   1  -4   7  135.37    3.55   0
   3  -2   6  179.27    3.70   0
   3  -2   7   10.60    1.51   0
  -2  -5   8   19.42    1.68   0
   2  -3   8   42.35    2.18   0
   3  -2   5  312.97    4.45   0
   3  -1   3 1843.67    7.78   0
  -1  -5   4  373.20    4.83   0
  -1  -5   8   45.72    2.22   0
  -1  -4   2  159.76    2.43   0
   1  -4   8  232.19    4.54   0
   3   0   2   24.05    0.71   0
  -3  -5   4  436.93    4.74   0
  -1  -3   1   73.58    1.30   0
   0  -5   6  232.91    4.57   0
   1  -4   4   52.19    1.91   0
  -2  -3   1 1372.34    5.01   0
   0  -5   5   29.46    1.69   0
   0  -5   7  471.33    6.50   0
   1  -3   2   48.91    1.38   0
   1  -2   1   77.02    1.35   0
   3  -2   4    3.11    0.79   0
  -1  -5   3 1533.70    9.01   0
  -3  -4   2  274.87    2.79   0
   0  -5   4   21.96    1.40   0
   0  -4   2 1204.93    6.98   0
   1  -4   3  456.79    4.95   0
  -3  -5   3  355.41    3.96   0
  -2  -6   6   32.36    1.96   0
   2  -4   7    8.77    1.37   0
  -3  -6   6   28.45    1.82   0
  -1  -6   6  215.66    4.36   0
   1  -5   6  192.96    4.16   0
  -3  -6   5   85.07    2.56   0
  -1  -6   5  367.00    5.43   0
   1  -5   5  414.11    5.82   0
   1  -5   7   29.91    1.89   0
   3  -3   7   93.08    2.90   0
   3  -2   3  379.52    4.04   0
   3  -3   5  381.92    5.17   0
   3  -1   2  379.72    3.18   0
  -3  -6   4  252.58    3.98   0
  -1  -6   4  739.71    7.30   0
  -1  -5   2 1107.97    7.17   0
  -1  -4   1 1209.77    6.12   0
   1  -5   4  214.03    4.03   0
   1  -4   2  118.73    2.44   0
  -2  -4   1  813.35    4.69   0
   0  -6   6  152.42    3.73   0
   1  -3   1  208.04    2.58   0
   0  -6   5    2.05    1.03   0
   3  -3   4  319.14    4.43   0
  -1  -2   0  366.54    2.05   0
   0  -5   2 1057.36    7.42   0
   0  -4   1   18.74    0.93   0
   0  -2   0 1064.23    4.00   0
  -1  -6   3  830.35    7.30   0
   0  -6   4    4.85    1.08   0
   1  -5   3  168.35    3.36   0
   0   0   5 1960.18    9.04   0
   0   4   9  414.14    5.76   0
   2   4   8   86.59    2.63   0
  -1   0   6  272.90    3.91   0
   0   2   8    3.43    0.98   0
   1   1   6  239.73    3.57   0
  -3  -1   2  930.49    3.72   0
  -3  -1   3  276.94    2.63   0
  -3   0   6  363.17    4.72   0
   3   4   7 1732.96   10.37   0
  -1   3   9  224.62    4.25   0
   2   1   3  624.43    3.69   0
  -3  -1   4  443.76    3.95   0
  -1  -1   3  686.35    3.99   0
   0   3   9   54.01    2.26   0
   2   1   2  111.74    1.24   0
   3   3   6  221.04    3.47   0
  -3   2   8  141.31    3.38   0
  -1  -1   2   21.31    0.62   0
  -1  -1   4  520.66    4.13   0
  -1   1   8  243.08    4.47   0
   1   2   8   44.05    2.06   0
   3   5   8  644.63    6.45   0
   1   0   4  761.26    4.89   0
   2   3   8  305.08    4.65   0
  -1   0   7  226.10    3.94   0
  -1   2   9   55.22    2.31   0
  -3  -1   5  423.06    4.45   0
  -1  -1   5  701.67    5.53   0
   0   1   8   17.21    1.36   0
   1   0   2  524.53    2.75   0
   3   2   4  170.48    2.33   0
  -3   0   7  325.46    4.79   0
  -2   2   9    2.80    1.12   0
   0   2   9   42.68    2.05   0
   1   0   5 1098.67    6.76   0
   2   4   9    0.74    0.90   0
   0   0   7  174.48    3.47   0
   3   2   5  167.27    2.69   0
   3   3   7   56.82    2.04   0
  -1  -1   6    4.31    0.82   0
  -3  -1   6  597.25    5.88   0
  -1   1   9  219.46    4.32   0
   0  -1   4 2484.66    9.00   0
   1   0   6  265.02    3.80   0
   1   2   9   62.98    2.33   0
   2   3   9   49.76    2.14   0
  -2   1   9  170.53    3.74   0
   3   2   2   58.64    0.81   0
   3   2   6  215.17    3.45   0
   0   1   9  156.73    3.65   0
   0   0   8    8.18    1.10   0
   3   3   8  200.26    3.84   0
  -1  -1   7   85.80    2.55   0
   0  -1   2 2417.16    6.26   0
   0  -1   6  801.75    6.71   0
   1   0   7   10.74    1.13   0
  -3  -1   7  234.84    4.11   0
   1   1   9  163.01    3.72   0
   3   2   7   13.78    1.31   0
  -1   0   9   36.73    1.99   0
   2   2   9  101.90    2.87   0
  -3  -2   4  806.18    5.26   0
   0  -1   7  150.73    3.31   0
  -3  -2   5  470.42    4.66   0
  -1  -2   4 1419.61    7.10   0
  -1  -2   5  494.56    4.85   0
  -1  -1   8    1.53    1.04   0
   0   0   9    3.91    1.16   0
   1   0   8   18.00    1.51   0
  -3  -2   3  207.36    2.27   0
   1  -1   4 2013.69    8.42   0
   1  -1   5  115.00    2.36   0
  -3  -2   6  237.89    3.85   0
  -3  -1   8   78.73    2.62   0
  -1  -2   3 2268.29    7.75   0
  -1  -2   6    5.82    0.92   0
   3   1   5  142.93    2.57   0
   3   2   8   93.98    2.83   0
   0  -1   8   48.97    2.19   0
   1  -1   6   12.65    1.11   0
   3   1   4   11.57    0.81   0
   3   1   6  287.03    4.05   0
   1  -1   3  592.60    3.95   0
  -2  -1   9   50.14    2.31   0
  -1  -2   7   77.09    2.53   0
  -1  -1   9  119.14    3.41   0
   1  -1   7    1.77    1.07   0
   1   0   9  268.91    4.84   0
   2   1   9  133.77    3.36   0
  -3  -2   7   91.89    2.73   0
  -2  -2   2  477.75    2.90   0
   0  -2   4  243.92    3.11   0
   0  -2   5  215.59    3.31   0
   3   1   7  387.44    5.16   0
   0  -2   6  525.50    5.78   0
   0  -1   9   11.03    1.53   0
   3   2   9   18.36    1.89   0
  -1  -2   2  184.02    1.93   0
   0  -2   7   91.87    2.86   0
   1  -1   8  114.73    3.24   0
   0  -2   3  460.15    3.70   0
   0  -1   1 2069.86    4.75   0
  -3  -2   2   41.54    0.85   0
  -3  -3   5  248.65    3.59   0
  -2  -2   9  144.67    3.78   0
  -1  -3   5  508.26    5.32   0
   0  -2   8  291.75    5.13   0
   2   0   9    7.57    1.48   0
  -1  -3   6  776.26    7.29   0
  -1  -2   9    0.77    1.19   0
   1  -2   5    1.33    0.70   0
   1  -1   9   13.43    1.56   0
  -1   0  -7   10.86    1.07   0
   1   0  -9   34.90    1.97   0
   2   1  -8   11.16    1.33   0
   3   2  -2   37.50    1.02   0
   4   2  -5  844.75    7.22   0
   4   2  -3  925.87    5.95   0
  -2  -1  -7  166.19    3.01   0
   1   2  -4 1471.76    7.28   0
   2   2  -2  476.33    3.26   0
   1   1  -8    0.79    0.97   0
   1   2  -5  477.27    4.73   0
   5   1  -6  279.44    4.51   0
  -1  -1  -9  168.59    3.60   0
   1   2  -3 2217.72    7.80   0
   4   2  -6  217.70    4.05   0
   0   0  -9    5.44    1.34   0
   2   2  -7  362.91    5.22   0
   4   1  -8    6.86    1.25   0
   4   2  -2   27.25    1.00   0
   2   1  -9   51.07    2.29   0
   3   1  -9   55.45    2.37   0
   1   2  -7   76.98    2.47   0
   5   2  -5   65.04    2.24   0
   5   2  -4    3.58    0.99   0
  -1   1  -4 2047.37    7.67   0
   1   1  -9  118.56    3.26   0
   3   3  -5  248.39    3.83   0
  -2   0  -5    5.22    0.74   0
  -1   1  -6   14.19    1.13   0
   3   3  -4    4.66    0.74   0
   5   2  -6  162.74    3.56   0
   0   2  -5  208.40    3.10   0
   0   2  -4  239.75    2.94   0
   3   2  -1  111.63    1.45   0
   4   3  -5  683.91    6.57   0
   4   3  -4   14.10    1.19   0
  -2   0  -6  274.38    3.44   0
  -2   0  -4 2302.26    7.16   0
   0   2  -6  540.95    5.55   0
   1   2  -8   79.81    2.78   0
   2   3  -6  338.53    4.78   0
  -1   0  -9  272.25    4.51   0
  -1   1  -7    0.64    0.94   0
   5   2  -7  176.29    3.84   0
   0   1  -9    9.01    1.47   0
   3   2  -9  284.88    4.92   0
   4   3  -3   73.88    1.86   0
   0   1  -1 2072.08    4.57   0
   2   2  -9  139.33    3.55   0
   2   3  -7  189.97    3.92   0
  -2   0  -7    0.99    0.98   0
   1   3  -5  484.93    5.08   0
   1   3  -6  770.31    7.08   0
   1   3  -4  451.69    4.39   0
   3   3  -8  131.36    3.50   0
  -1   1  -8  119.39    3.04   0
   2   3  -8   15.96    1.63   0
   4   2  -1   99.28    1.41   0
   5   3  -4    3.61    1.03   0
   0   2  -8  280.46    4.72   0
   1   3  -7  211.72    4.10   0
   2   3  -2  103.69    1.76   0
  -2   0  -3    1.14    0.28   0
   1   3  -3   10.58    0.73   0
   1   2  -1  108.72    1.34   0
   3   4  -6   46.03    2.00   0
   3   4  -5  408.98    5.11   0
   4   4  -5   92.82    2.69   0
   5   3  -3    9.79    1.09   0
   0   2  -2  153.39    1.82   0
   1   3  -8    2.37    1.26   0
   3   4  -4  208.36    3.38   0
  -1   2  -6  390.86    4.69   0
  -1   2  -5    2.20    0.77   0
   2   3  -9  291.14    5.02   0
   2   4  -5   80.69    2.32   0
   3   4  -7  373.50    5.57   0
   0   2  -9  161.49    3.70   0
   0   3  -5  599.93    5.64   0
   2   4  -4   33.06    1.43   0
  -1   2  -7  427.85    5.34   0
  -1   2  -4  668.78    4.85   0
   2   4  -7  124.29    3.34   0
   3   4  -3  157.38    2.68   0
   0   3  -4  130.37    2.40   0
   1   3  -2  342.32    3.11   0
   3   4  -8   51.51    2.38   0
   4   4  -3   68.91    1.89   0
   5   4  -6   22.75    1.78   0
   5   4  -5   35.00    1.91   0
  -2   1  -6  241.85    3.39   0
  -2   1  -5 1051.16    6.12   0
   2   4  -3 1285.10    7.41   0
   1   4  -6  315.66    4.82   0
   2   4  -8  394.45    5.89   0
   5   4  -4    5.62    1.03   0
  -2   1  -7   39.89    1.81   0
  -1   2  -8  104.16    2.98   0
   0   3  -8  155.12    3.70   0
   1   4  -7  453.02    6.11   0
   1   4  -4  478.96    4.95   0
   2   3  -1 1383.27    5.64   0
  -2   1  -4  173.96    2.20   0
   3   5  -6  123.87    3.28   0
   4   3  -1  209.36    2.24   0
   4   4  -2  221.72    2.96   0
   1   4  -8  285.43    4.96   0
   1   4  -3  337.75    3.80   0
   2   4  -2    1.90    0.53   0
   3   5  -7  222.96    4.37   0
   3   5  -4  437.83    5.18   0
   4   5  -4  609.95    6.16   0
   0   3  -9   21.83    1.96   0
   2   5  -6    3.44    0.97   0
   2   5  -5   24.72    1.49   0
   2   2   0    8.63    0.39   0
   2   5  -7   30.47    1.94   0
   2   5  -4  325.23    4.46   0
   5   5  -6   21.93    1.78   0
   5   5  -5  341.98    4.92   0
  -1   3  -6  313.69    4.40   0
  -1   3  -5  559.31    5.37   0
   0   2  -1  930.18    3.94   0
   0   4  -5  277.76    4.15   0
   4   5  -3  731.12    6.22   0
  -1  -4  -6    5.01    0.91   0
   3  -4  -6   72.33    2.46   0
  -2  -4  -5   13.11    0.93   0
  -2  -3  -4 1352.46    5.61   0
   0  -1  -4  405.13    3.35   0
   3  -3  -6   69.23    2.45   0
   3   1   0  133.75    1.18   0
   0  -6  -7  190.29    3.74   0
   2  -2  -6    9.58    1.03   0
   3  -1  -5    5.79    0.85   0
   3   1  -1 1754.91    5.40   0
   1  -4  -7   24.31    1.64   0
   1  -2  -6  557.10    5.56   0
   2   0  -4   32.17    1.17   0
   3   0  -4  278.05    3.50   0
   5  -1  -3  326.37    4.34   0
   2  -4  -7    0.68    1.08   0
   3  -2  -6  301.20    4.58   0
   0  -4  -7  106.07    2.81   0
   5  -2  -4   56.79    2.11   0
  -2  -5  -6   17.47    1.27   0
  -1  -6  -7  108.52    2.78   0
   5   0  -2 1275.37    7.31   0
  -1  -3  -6  103.41    2.24   0
   2  -3  -7  124.84    3.08   0
   4   0  -4    7.33    0.90   0
  -1  -2  -5   46.47    1.35   0
   0  -2  -6  422.01    4.48   0
   0   0  -2  574.27    2.69   0
   5  -1  -4   23.16    1.60   0
   2  -1  -6  433.61    5.09   0
   3  -3  -7  133.88    3.27   0
   3  -1  -6   20.75    1.47   0
   2  -2  -7   78.27    2.55   0
   2   0  -5   93.04    2.12   0
  -1  -4  -7   13.90    1.31   0
   1  -1  -6  244.55    3.58   0
   5  -2  -5  117.08    3.02   0
  -2  -4  -6   56.37    1.70   0
  -2  -3  -5 2870.01    9.34   0
   1  -2  -7  547.39    5.96   0
   2   1  -3  594.33    3.99   0
   3  -2  -7  182.24    3.74   0
   0   0  -3  152.41    1.74   0
   4   1  -3  218.14    2.93   0
   1   0  -5  102.65    2.08   0
   5  -1  -5    0.57    1.09   0
   5   0  -4  239.41    3.86   0
  -2  -2  -3   54.22    0.87   0
   0  -4  -8  276.15    4.45   0
   2  -3  -8   30.55    1.81   0
   3   1  -4  459.59    4.32   0
  -1  -1  -4  376.61    3.03   0
   1  -3  -8  499.79    6.07   0
   2  -1  -7  244.13    4.16   0
  -1  -3  -7  469.07    5.02   0
  -1  -2  -6   37.59    1.43   0
   0  -1  -6  284.33    3.66   0
   2   0  -6 1126.76    7.99   0
   2   1  -4  250.89    3.01   0
   3  -1  -7  230.41    4.14   0
   4   1  -4  495.32    4.87   0
   0   0  -4   47.32    1.19   0
   0  -3  -8  553.48    6.07   0
   1  -1  -7  443.39    5.28   0
   2  -2  -8  290.26    4.75   0
   1  -2  -8  299.32    4.70   0
   3  -2  -8  139.05    3.30   0
   3   1  -5  435.48    4.74   0
   5  -1  -6    8.41    1.45   0
  -2  -2  -4   52.95    1.11   0
  -1  -4  -8  695.15    6.50   0
  -1  -1  -5  328.23    3.32   0
   2   1  -5 1635.52    8.64   0
   0   0  -5 1932.13    8.41   0
   1   1  -4  519.19    4.08   0
   2   0  -7    8.92    1.17   0
   3   0  -7  315.74    4.85   0
   5   1  -4   38.22    1.71   0
   2  -1  -8  133.96    3.33   0
   3  -1  -8   95.49    2.88   0
   0  -2  -8    3.61    0.99   0
   1  -3  -9  230.70    4.18   0
   3   1  -6  594.63    6.12   0
   5   0  -6    0.11    1.14   0
   1  -1  -8  251.31    4.34   0
   3   2  -2   40.29    1.03   0
  -1  -3  -8  133.75    2.94   0
   1   0  -7  233.97    3.87   0
   1   1  -5  713.36    5.46   0
   2  -2  -9    2.42    1.15   0
   2   1  -6    1.75    0.71   0
   4   2  -3  889.60    5.66   0
   4   2  -2   27.23    0.98   0
   5   1  -5  216.17    3.83   0
  -2  -2  -5 1890.31    7.38   0
   0   0  -6   11.06    1.02   0
   3   2  -4  792.99    5.68   0
   4   2  -4  555.04    5.07   0
  -1  -1  -6  246.35    3.29   0
   0  -3  -9   56.86    2.18   0
   2   0  -8  145.44    3.50   0
   3   0  -8  182.42    3.86   0
   2   2  -3    5.06    0.53   0
   3   2  -5  466.85    4.93   0
   4   2  -5  833.45    6.85   0
   0  -1  -8   16.81    1.32   0
   1   1  -6    4.34    0.77   0
   2  -1  -9  173.39    3.77   0
   2   1  -7  205.67    3.81   0
   2   2  -4  242.24    3.03   0
   2   2  -2  482.29    3.15   0
   4   2  -1   99.20    1.39   0
   0  -2  -9   44.80    2.06   0
   5   2  -4    3.29    1.06   0
  -2  -2  -6 2502.84    9.72   0
   0   0  -7  174.73    3.25   0
   1   0  -8    0.55    0.90   0
   2   2  -5  194.62    3.09   0
  -1  -1  -7  228.94    3.53   0
   0   1  -4 2486.96    8.59   0
   0   1  -3  472.25    3.21   0
   3   2  -6  237.71    3.93   0
   0  -8  -1   68.79    2.35   0
   5  -1   1    0.92    0.92   0
   0  -7  -2  286.81    4.37   0
   0  -2  -2  197.06    1.90   0
   4   0   0  121.75    1.89   0
  -1  -3  -2 1259.17    4.70   0
   2  -7  -1    8.53    1.20   0
   3  -3  -2  842.48    6.68   0
   4  -2  -1   81.81    2.10   0
   2  -6  -2   82.29    2.64   0
   3  -6  -1    6.35    1.24   0
   3  -4  -2  128.51    2.95   0
   3  -2  -2  201.75    2.95   0
  -2  -6  -2   18.65    1.02   0
  -2  -5  -2  275.80    2.68   0
   1  -7  -2   15.94    1.38   0
   1  -4  -3  267.16    3.47   0
   2  -1  -2 2226.42    7.52   0
   3   0  -1 4272.11    9.71   0
   4  -1  -1    5.62    0.69   0
   1  -3  -3  776.72    5.30   0
   5  -2   0   64.29    2.07   0
   0  -8  -2   28.42    1.77   0
   1  -6  -3  179.97    3.55   0
   2  -4  -3  542.91    5.49   0
   2  -3  -3  237.69    3.27   0
   5  -3   0   13.69    1.29   0
   5  -1   0    3.32    0.94   0
  -1  -8  -2  131.28    2.90   0
   2  -5  -3  258.92    4.19   0
   3  -1  -2  755.76    4.96   0
  -1  -6  -3    2.35    0.84   0
  -1  -5  -3  482.09    4.28   0
   0  -3  -3  732.72    4.56   0
   1   0  -1  349.16    1.85   0
   0  -7  -3  130.19    3.02   0
   3  -6  -2   73.09    2.43   0
  -2  -4  -2  295.10    2.26   0
  -1  -4  -3 2160.95    7.80   0
   1  -2  -3  315.66    3.05   0
   2  -6  -3  318.53    4.86   0
   2  -2  -3 1499.49    7.38   0
  -1  -7  -3   97.74    2.44   0
   4   0  -1   44.14    1.27   0
   3  -5  -3  111.52    3.00   0
   5  -3  -1  590.31    6.11   0
   5  -2  -1   33.29    1.59   0
   4  -1  -2   60.62    1.68   0
   1  -5  -4  139.48    2.92   0
   5  -1  -1    2.68    0.89   0
   0  -8  -3  705.26    6.73   0
   0  -6  -4  179.98    3.35   0
   1  -6  -4   22.37    1.53   0
   4   1   0  119.23    1.50   0
  -1  -8  -3  393.44    4.87   0
   2  -5  -4  511.58    5.91   0
   2  -3  -4  432.82    4.66   0
  -2  -6  -3  115.83    2.14   0
   0  -2  -3   16.11    0.67   0
   2  -1  -3  288.49    3.00   0
   2   0  -2  531.96    3.28   0
   0  -7  -4  378.38    4.96   0
   2  -6  -4   51.28    2.16   0
  -2  -5  -3   75.75    1.55   0
  -1  -6  -4   35.93    1.57   0
   3  -4  -4   14.69    1.29   0
   3  -3  -4  376.31    4.74   0
   5  -3  -2   84.83    2.45   0
   5  -2  -2    0.98    0.87   0
  -1  -5  -4  628.88    5.09   0
   2  -2  -4  477.85    4.54   0
   3  -5  -4   96.71    2.81   0
   4   0  -2 3902.72   11.48   0
  -1  -7  -4    7.56    1.20   0
   5   0  -1  488.52    4.36   0
   1  -2  -4   15.09    0.83   0
   3  -2  -4  218.23    3.35   0
   4  -1  -3  661.52    5.54   0
   5  -1  -2   75.17    2.13   0
   1  -5  -5  288.35    4.30   0
   3   1  -1 1737.77    5.27   0
   1  -4  -5   34.45    1.52   0
   2  -4  -5   97.07    2.54   0
   0  -6  -5   74.08    2.33   0
   1   0  -2 1249.21    4.33   0
   2  -5  -5  207.08    3.83   0
   4  -4  -4  236.27    4.06   0
   4   1  -1 1903.07    6.41   0
   2  -3  -5    0.50    0.63   0
   5  -3  -3  222.41    3.80   0
  -2  -4  -3  776.90    4.07   0
   1  -3  -5  324.52    4.00   0
   2  -6  -5    7.99    1.17   0
   2  -1  -4  286.62    3.29   0
   3  -1  -4    1.12    0.58   0
   0  -7  -5  103.40    2.73   0
   2   0  -3   27.17    0.94   0
   3  -5  -5   32.16    1.79   0
   3  -3  -5    3.09    0.87   0
   5   0  -2 1305.56    7.47   0
  -2  -6  -4   74.41    1.90   0
   0  -2  -4  148.19    2.08   0
   4   0  -3   94.56    2.02   0
   5  -1  -3  322.44    4.23   0
  -2  -3  -2  712.19    2.77   0
  -1  -6  -5    1.95    0.99   0
   2  -2  -5  262.02    3.67   0
  -1  -5  -5   15.10    1.13   0
  -1  -3  -4    4.27    0.57   0
   1  -1  -4    7.67    0.65   0
   0  -1  -3  675.00    3.62   0
   1  -2  -5  596.92    5.02   0
   3   1  -2  914.52    4.44   0
   1  -5  -6    9.39    1.12   0
   2  -5  -6    5.64    1.14   0
   4   1  -2  203.17    2.38   0
   1  -4  -6   46.01    1.82   0
   5  -2  -4   55.18    2.02   0
   2  -3   1  141.53    2.48   0
   3  -4   4  836.09    8.18   0
   5   0   4  377.43    4.72   0
   1  -4   1  518.16    4.74   0
   4  -2   3  250.97    4.02   0
   0  -3   0 1673.87    6.02   0
   1  -6   4   37.66    2.04   0
   1  -5   2  556.10    5.76   0
   3  -3   2  108.28    2.57   0
   5  -1   5  205.29    3.95   0
   2  -1   0    4.82    0.49   0
  -1  -7   5  561.92    6.20   0
  -1  -5   1   42.32    1.32   0
   3  -2   1  448.57    4.32   0
  -1  -6   2  513.89    4.98   0
   0  -5   1  650.48    5.35   0
   5  -1   4  344.20    4.82   0
  -1  -7   4  228.61    3.95   0
   1  -6   3   76.21    2.50   0
   2  -2   0  400.33    3.43   0
   5   0   3 1045.09    7.05   0
  -2  -6   2  209.06    2.85   0
   0  -7   5    7.05    1.38   0
   2  -4   1  608.95    5.67   0
   3  -5   5  444.76    5.99   0
   4  -2   2  501.94    5.27   0
   0  -7   4    4.63    1.29   0
   0  -4   0  910.34    5.23   0
   1  -5   1  276.53    3.91   0
   2  -5   2  520.04    5.96   0
  -2  -5   1  122.38    1.80   0
   3  -5   4  115.90    3.19   0
   3  -4   2  435.80    5.42   0
   3  -3   1    9.26    0.92   0
   1  -6   2  137.44    3.17   0
   1  -4   0  616.10    4.94   0
   2  -3   0  318.41    3.53   0
   4   0   1   14.72    0.83   0
   5  -2   4  237.77    4.18   0
   5  -1   3  417.04    4.95   0
   4  -1   1  171.79    2.66   0
   0  -7   3   20.45    1.49   0
   2  -6   3  204.45    4.08   0
  -1  -6   1    5.11    0.82   0
   3   0   0 2270.20    6.60   0
   4   1   1  478.02    3.06   0
   0  -5   0   52.11    1.55   0
   2  -5   1  811.65    7.14   0
   3  -2   0   20.81    1.01   0
   4  -2   1  585.05    5.41   0
   5  -2   3  109.66    2.84   0
   2  -4   0   16.42    1.13   0
   5   0   2  133.59    2.40   0
  -1  -5   0  198.65    2.53   0
   0  -7   2  142.63    3.17   0
   1  -6   1  235.85    3.94   0
   2  -6   2  450.62    5.80   0
   5  -1   2  601.67    5.53   0
   1  -5   0    5.47    0.78   0
   3  -3   0  766.34    6.09   0
  -2  -6   1  161.43    2.35   0
   1  -3  -1  192.19    2.33   0
   0  -3  -1 1501.45    5.63   0
   2  -2  -1  175.66    2.20   0
   5  -3   3   10.47    1.39   0
   0  -4  -1 1184.57    5.86   0
   2  -5   0  237.54    3.80   0
   2  -3  -1  783.78    5.37   0
   3  -5   1  559.84    6.26   0
  -1  -7   1    5.10    0.98   0
  -1  -6   0    0.35    0.65   0
   0  -7   1   21.89    1.39   0
   0  -2  -1   20.78    0.59   0
   1  -1  -1 1515.91    4.55   0
   2  -6   1   51.08    2.05   0
   2  -1  -1    6.24    0.45   0
   1  -6   0   15.06    1.28   0
  -2  -4   0 1237.23    4.14   0
   5  -1   1    0.71    0.87   0
  -2  -5   0    3.49    0.52   0
   0  -5  -1   54.65    1.52   0
   2  -4  -1  225.68    3.31   0
   3  -2  -1   23.36    1.08   0
   5  -3   2   14.09    1.35   0
   5   0   1   92.04    1.89   0
  -1  -8   2   54.77    2.03   0
   2  -7   2   33.30    1.76   0
   5  -2   1    6.47    1.12   0
  -1  -4  -1  846.73    4.38   0
   0  -8   2  175.22    3.44   0
   3  -3  -1  195.06    3.08   0
   2  -6   0   86.92    2.55   0
  -1  -5  -1  237.09    2.75   0
   0  -7   0    1.17    0.82   0
  -1  -7   0   80.54    2.12   0
   2  -7   1   31.16    1.70   0
   3  -4  -1 1353.67    8.90   0
   5  -3   1   38.11    1.84   0
   1  -6  -1    9.24    1.01   0
   4  -5   1  128.15    3.05   0
  -1  -8   1  153.54    3.09   0
   1  -4  -2  700.37    5.24   0
   1  -3  -2  766.33    4.82   0
   3   0  -1 4375.70    9.29   0
  -1  -6  -1  289.90    3.50   0
   2  -3  -2  636.55    4.93   0
   4  -2  -1   82.35    2.06   0
   4  -1  -1    5.37    0.73   0
   4   1   0  119.45    1.47   0
   0  -4  -2  713.72    4.83   0
   2  -6  -1   50.38    2.09   0
   2  -4  -2  614.73    5.54   0
   2  -2  -2  350.18    3.23   0
   3  -6   0  117.00    2.99   0
   3  -5  -1    4.34    1.12   0
   5  -2   0   63.41    2.08   0
   5  -1   0    3.51    0.75   0
   0  -1  -1 3748.55    5.68   0
   1  -5  -2  105.86    2.38   0
   2  -7   0    0.55    1.06   0
   0  -5  -2   26.20    1.18   0
   0  -3  -2  282.48    2.64   0
   4  -5   0  185.34    3.66   0
  -2  -3   4   11.60    0.75   0
  -1  -3   4  448.59    4.00   0
   4   1   7  162.63    3.80   0
  -2  -3   7  205.72    3.61   0
  -1  -3   7  216.18    3.91   0
   0  -2   2  147.54    1.78   0
   0  -2   9  169.13    3.90   0
   1  -2   3 1446.81    7.06   0
   1  -2   8  106.64    3.29   0
   4   1   4  287.65    3.81   0
   0  -3   5  599.72    5.68   0
   4   1   8   62.13    2.62   0
   2  -1   9  243.57    4.72   0
   3   0   9  366.70    5.65   0
   0  -3   4  136.93    2.49   0
   3  -1   6   39.58    1.93   0
  -1  -3   8    3.19    1.19   0
   1  -2   9  177.75    4.08   0
   2  -2   5  425.57    5.21   0
   2  -2   6  158.71    3.53   0
   3  -1   7   36.98    2.16   0
  -1  -3   3   10.35    0.64   0
   1  -1   1    0.33    0.27   0
   2  -2   7  384.05    5.78   0
   2  -1   2   30.64    0.99   0
   4   1   3  197.01    2.79   0
   4   2   2  245.27    2.37   0
   5   2   6  144.98    3.42   0
  -2  -3   3  952.35    4.34   0
   0  -3   8  149.15    3.63   0
   2  -2   4   33.78    1.44   0
   4   0   6    1.95    1.12   0
   5   2   7  165.65    3.82   0
   1  -3   5  561.49    5.92   0
   1  -3   6  297.77    4.72   0
   2  -2   8  143.89    3.70   0
   3  -1   8    4.85    1.23   0
   4   0   5  259.39    4.19   0
   0  -3   3  156.91    2.34   0
   1  -3   7    1.62    1.07   0
   1  -2   2 1814.93    7.03   0
   1  -3   4  354.56    4.28   0
   4   0   4   20.13    1.35   0
   0  -3   9   23.66    2.03   0
   2  -2   3    4.17    0.65   0
   3  -1   3 1818.13    8.83   0
  -1  -4   6  309.26    4.37   0
  -1  -4   5    3.05    0.75   0
   5   1   6  163.88    3.66   0
  -2  -4   5   83.14    1.98   0
  -2  -4   6   26.60    1.50   0
  -1  -4   7  458.77    5.61   0
   3  -2   6  177.29    3.90   0
   5   1   7   96.24    3.07   0
  -1  -4   4  462.95    4.38   0
   1  -3   3  396.64    4.09   0
   2  -3   6    1.51    0.93   0
   3  -2   5  310.14    4.76   0
   3  -2   7   11.34    1.42   0
   4   0   3 1724.25    8.68   0
   4   1   2  215.77    2.50   0
   5   1   5  173.66    3.51   0
   0  -4   7  659.00    7.18   0
   0  -2   1  923.06    3.86   0
   2  -3   7  267.93    4.92   0
  -1  -4   8  273.18    4.58   0
   0  -4   4  474.62    4.90   0
   0  -3   2  675.52    4.32   0
   3  -2   4    2.52    0.82   0
   3  -2   8   81.35    2.84   0
   0  -4   8    2.78    1.41   0
   2  -3   4   60.48    2.02   0
   2  -3   8   42.36    2.18   0
   2  -2   2   60.69    1.53   0
   2  -1   1  221.22    2.25   0
   5   1   4   79.31    2.25   0
   1  -4   6  903.99    8.44   0
   4  -1   4  430.12    5.22   0
   1  -4   5  498.01    5.91   0
   1  -4   7  128.32    3.42   0
  -1  -4   3  310.77    3.25   0
   1  -3   2   48.02    1.40   0
   3  -2   3  388.55    4.53   0
   3   0   1    0.47    0.39   0
   0  -4   3  115.87    2.26   0
   1  -4   4   50.67    1.86   0
   2  -3   3    1.41    0.64   0
   5   0   5   18.04    1.63   0
  -2  -3   2  105.18    1.21   0
   3  -3   5  380.91    5.56   0
   3  -3   6   11.06    1.39   0
   3  -3   7   90.51    3.02   0
   4  -1   3  190.85    3.24   0
   4   0   2   58.28    1.51   0
  -2  -4   3 1245.13    5.64   0
  -1  -5   6  822.37    7.20   0
   5   1   3    2.94    0.85   0
  -1  -5   5  131.63    2.79   0
  -1  -5   7  157.43    3.44   0
   1  -4   3  455.49    4.86   0
   2  -4   6  126.87    3.40   0
   2  -4   7   10.58    1.55   0
   5   0   4  351.71    4.65   0
   3  -3   4  323.30    4.80   0
  -1  -5   4  352.11    4.18   0
   0  -3   1  362.00    2.93   0
   2  -4   4   31.06    1.72   0
   2  -3   2   88.13    2.04   0
   2  -2   1   37.78    1.14   0
   3  -2   2  389.23    4.18   0
  -2  -5   5   26.01    1.40   0
  -1  -4   2  156.56    2.15   0
   0  -4   2 1161.80    6.48   0
   5  -1   6  270.59    4.69   0
   1  -5   6  193.92    4.10   0
   1  -1   0   19.89    0.54   0
   5  -1   5  208.69    4.01   0
   1  -5   5  428.78    5.74   0
   1  -3   1  205.38    2.55   0
   3  -3   3  109.26    2.67   0
   4  -1   2 1222.77    7.31   0
  -2  -5   4  315.67    3.51   0
   1  -4   2  114.46    2.32   0
   2  -4   3  364.26    4.76   0
   4   1   1  493.64    3.18   0
   5   0   3 1009.76    7.05   0
  -1  -5   3 1495.55    7.89   0
   0  -5   3  291.61    3.93   0
   1  -5   4  214.87    3.90   0
   5  -1   4  342.00    4.79   0
   3  -4   6  279.92    4.85   0
   2  -1   0    4.84    0.41   0
   2  -5   6   49.23    2.20   0
   2  -3   1  136.91    2.36   0
   3  -4   4  807.89    7.80   0
   3   3   6  210.46    3.75   0
   4   6   7   45.44    2.17   0
  -1   1   7  447.52    5.29   0
   2   1   4    5.67    0.67   0
  -1   2   8  306.08    4.78   0
   0   0   5 1989.86    8.96   0
   5   6   5   92.66    2.92   0
   0   1   7   68.84    2.22   0
   1   4   9   73.35    2.68   0
  -2   1   7  252.32    3.87   0
   1   0   2  511.68    2.98   0
   2   1   5  202.76    3.22   0
   2   3   8  312.77    5.01   0
   3   2   5  166.12    3.11   0
   4   3   3  115.68    2.19   0
   4   4   6    1.50    0.95   0
   4   5   7   49.34    2.18   0
   1   0   4  752.59    5.11   0
   1   2   8   43.36    2.15   0
   2   2   7  279.79    4.51   0
   3   3   7   59.56    2.41   0
   4   3   2    7.25    0.69   0
   4   3   4  526.21    5.15   0
   3   4   8   71.99    2.54   0
   0   0   6   10.51    0.99   0
   1   1   7  233.60    4.03   0
   1   3   9   45.51    2.24   0
   2   4   9    1.50    1.03   0
   5   6   6    1.51    1.66   0
   4   3   5   75.07    2.27   0
   5   5   5    3.30    1.35   0
   2   1   6  215.97    3.67   0
   4   4   7  299.56    4.94   0
  -1   1   8  243.22    4.23   0
   4   5   8   99.03    2.94   0
   1   0   1  447.90    2.15   0
   2   2   8   74.92    2.59   0
   3   3   8  203.95    4.19   0
   4   3   6 1140.93    9.05   0
  -2  -1   3  581.78    2.89   0
  -1   2   9   51.38    2.29   0
   2   3   9   49.42    2.18   0
   5   5   6   72.17    2.55   0
   0   0   7  175.36    3.43   0
   1   1   8  377.60    5.44   0
   1   2   9   62.81    2.44   0
   2   1   7  163.35    3.53   0
   3   2   7   14.89    1.36   0
   3   4   9  500.21    6.11   0
  -2   0   7    9.93    1.22   0
   5   4   4   46.34    1.84   0
   0  -1   3  451.66    3.20   0
   0  -1   4 2552.24    8.93   0
   4   4   8   28.41    1.84   0
   5   4   5   14.95    1.53   0
  -2  -1   5 1631.42    7.24   0
   0  -1   5   51.71    1.60   0
   2   0   4 2329.67    9.53   0
   5   5   7  265.98    4.67   0
   1   0   7   10.99    1.16   0
   2   0   5    5.38    0.77   0
   4   2   4  411.85    4.44   0
  -1  -1   6    3.90    0.75   0
  -1   0   8    1.74    1.22   0
  -1   1   9  217.83    4.06   0
   0   1   9  164.04    3.71   0
   2   2   9  102.21    3.01   0
   3   1   6  281.73    4.34   0
   3   2   8   92.81    2.96   0
   4   2   3   35.78    1.28   0
   5   4   6  681.39    7.02   0
   2   1   8  378.19    5.53   0
   3   1   2   37.52    1.00   0
  -2  -1   6    0.97    0.78   0
   0  -1   2 2394.84    6.02   0
   0  -1   6  811.29    6.54   0
   1   1   9  164.38    3.72   0
   2   0   6  273.89    4.14   0
   4   2   6   19.36    1.60   0
   1  -1   4 2067.33    8.59   0
   2   0   2    5.01    0.44   0
   1  -1   5  114.94    2.36   0
   1   0   8   19.76    1.54   0
   5   4   7   77.25    2.72   0
  -1  -1   7   87.66    2.36   0
   2   0   7    1.99    0.83   0
   1  -1   6   13.30    1.10   0
   3   2   9   15.31    1.43   0
   5   3   5  887.25    7.31   0
   2   1   9  136.48    3.43   0
   5   3   4 1105.92    7.29   0
  -2  -1   7  213.21    3.41   0
  -1   0   9   35.50    1.97   0
   0   0   9    4.60    1.16   0
   5   3   6    8.65    1.29   0
   1  -1   7    1.98    1.03   0
   3   0   5   52.21    1.88   0
  -1  -1   8    0.55    1.18   0
   3   0   4  560.35    4.99   0
   3   0   6   47.12    1.93   0
   4   1   4  290.16    3.76   0
   4   1   5   70.21    2.16   0
   5   3   7   36.76    1.96   0
   2  -1   4  170.82    2.72   0
   2  -1   5 1034.46    7.40   0
   4   1   6   28.78    1.70   0
  -1  -2   6    5.37    0.91   0
   0  -2   5  203.26    3.02   0
   2  -1   6  237.54    3.98   0
   3   0   7    1.53    1.20   0
   3   1   9  213.18    4.26   0
   0  -2   6  537.35    5.50   0
   1  -1   8  117.65    3.19   0
   4   1   3  199.13    2.76   0
   2  -1   3 1667.27    7.42   0
   2  -1   7   42.10    1.96   0
   2   0   9    6.30    1.23   0
  -2  -2   4  239.39    2.41   0
   0  -2   3  450.96    3.49   0
   0  -1   1 2094.80    4.56   0
   0  -1   9   11.66    1.57   0
   5   2   5  757.19    6.87   0
  -2  -2   6  225.67    3.26   0
   3   0   8  265.83    4.83   0
   1  -2   4  690.82    5.43   0
   1  -2   6  393.38    5.13   0
   0   5   4   61.22    1.90   0
   1   0   1  458.30    1.57   0
   1   5   6    0.33    1.07   0
   2   0   3    0.84    0.32   0
   2   4   5   13.71    1.02   0
   2   3   3  217.26    2.60   0
   1   2   1 1462.38    4.43   0
   2   4   4  342.66    3.94   0
  -1   2   0  194.59    0.97   0
   0   1   0  290.10    1.07   0
   1   4   2  506.90    3.80   0
   3   2   6  213.58    3.60   0
   3   3   6  211.65    3.91   0
   2   2   2   74.17    1.24   0
   2   4   3  782.46    5.40   0
   3   2   5  172.20    2.89   0
   2   1   2  113.70    1.33   0
   3   1   6  285.45    3.80   0
   3   1   5  141.24    2.41   0
   1   3   1 1912.28    5.88   0
   2   3   2  724.24    4.26   0
   0   6   4  180.29    3.43   0
   3   1   4   11.33    0.76   0
   3   4   4   -0.05    0.57   0
   0   5   2   29.96    1.16   0
   1   6   4   35.36    1.65   0
   2   5   3   79.36    2.00   0
   2   6   5  423.94    5.65   0
   3   5   5   31.98    1.67   0
   0   2   0 1090.59    2.93   0
   1   5   2  198.32    2.74   0
   3   3   3   32.35    1.16   0
  -1   4   1   15.15    0.63   0
   3   5   4   11.19    1.06   0
   1   4   1  850.25    4.55   0
   1   6   3    1.17    0.81   0
  -1  -1   0  816.64    2.58   0
   4   4   6    1.42    1.36   0
   2   2   1  160.89    1.71   0
   2   5   2  271.17    3.32   0
   4   3   6 1132.41    8.99   0
   2   3   1  151.93    1.90   0
   3   5   3  856.37    6.64   0
   4   5   5   34.36    1.92   0
   2   4   1 1464.72    6.51   0
   3   2   2   59.27    1.29   0
   3   4   2 2917.18   10.45   0
   4   4   4   39.75    1.68   0
   2   1   1    0.94    0.29   0
   1   2   0  370.51    2.13   0
   1   6   2  521.81    4.96   0
   4   5   4    1.22    0.88   0
   2   6   2   17.18    1.10   0
   4   4   3   21.43    1.19   0
   4   6   4  357.80    5.24   0
   2   5   1   51.31    1.43   0
   2   7   3  490.05    5.76   0
   4   5   3    1.04    0.72   0
   3   1   2   37.09    0.92   0
   1   1   0  833.91    2.62   0
   3   6   2    1.34    0.88   0
   3   3   1  284.65    2.85   0
   3   4   1  440.42    3.92   0
   3   7   3  143.17    3.35   0
   4   2   3   36.16    1.20   0
   5   4   5   13.14    1.52   0
  -3  -3  -5   85.31    1.88   0
   2   3  -5   14.03    1.08   0
  -3  -3  -2   11.92    0.38   0
  -1  -2  -4  853.63    5.05   0
   0  -1  -4  400.67    3.52   0
   0  -1  -3  673.46    3.90   0
  -1  -2  -3  738.38    3.97   0
  -1  -2  -5   45.89    1.47   0
   0  -1  -5  170.41    2.66   0
  -3  -3  -6  214.82    3.30   0
   2   3  -6  332.76    4.45   0
   2   3  -1 1425.23    3.26   0
   0  -1  -2  512.64    2.80   0
   1   0  -4   40.70    1.24   0
  -1  -2  -6   34.92    1.52   0
  -1  -1  -8  365.51    5.25   0
   1   0  -3  546.94    3.67   0
   1   1  -7   87.45    2.47   0
   0   0  -8    8.74    1.29   0
   1   0  -5  104.81    2.17   0
   2   4  -7  133.60    3.24   0
  -2  -3  -5 2874.05   10.46   0
  -2  -3  -4 1313.85    6.12   0
  -1  -2  -2 3703.70    7.09   0
  -3  -3  -7   61.62    2.16   0
   2   3  -7  181.08    3.63   0
  -2  -3  -6  718.18    5.91   0
  -2  -3  -3  215.47    2.06   0
   1   0  -2 1275.82    4.62   0
   1   0  -7  222.92    3.87   0
   2   1  -5 1642.40    8.71   0
   2   1  -4  248.75    3.02   0
  -2  -3  -7 1093.14    8.03   0
   0  -1  -8   17.63    1.43   0
   2   1  -6    1.13    0.71   0
   0  -2  -5   73.22    1.83   0
   2   1  -3  588.85    3.96   0
   3   4  -5  421.79    4.64   0
   0  -2  -6  428.94    4.78   0
   0  -2  -4  152.40    2.28   0
   1  -1  -5   22.02    1.11   0
   1   0  -8    1.05    0.88   0
   1  -1  -6  248.47    3.75   0
   1  -1  -4    5.90    0.64   0
   2   1  -7  200.36    3.73   0
   2   2  -8   35.01    1.86   0
   3   4  -3  158.31    2.02   0
  -2  -3  -8  321.12    4.77   0
  -1  -3  -6   99.26    2.36   0
  -1  -3  -5   85.30    1.92   0
   3   3  -5  242.56    3.50   0
   3   3  -4    4.57    0.77   0
  -1  -3  -4    2.23    0.57   0
   0  -2  -7  511.00    5.72   0
   0  -2  -3   17.28    0.77   0
  -1  -3  -7  455.18    5.29   0
   0  -1  -1 3809.59    5.58   0
   1  -1  -3  131.87    1.89   0
   2   1  -8    9.91    1.24   0
   2   0  -6 1132.37    8.11   0
   2   0  -4   30.17    1.16   0
   2   1  -2  102.89    1.38   0
   3   3  -7  572.33    6.29   0
   3   3  -3  236.55    2.51   0
   1  -1  -8  236.32    4.24   0
   3   2  -6  229.26    3.81   0
  -1  -3  -8  133.38    3.21   0
  -1  -3  -3    1.23    0.43   0
   2   0  -7    7.54    1.09   0
   2   2  -1  689.14    2.31   0
  -2  -4  -6   56.23    1.80   0
  -2  -4  -5   14.19    0.97   0
   2   0  -3   26.41    0.94   0
  -2  -4  -7    0.69    1.04   0
   1  -2  -6  547.35    5.65   0
   0  -3  -5   66.96    1.85   0
   1  -2  -5  593.73    5.31   0
  -2  -4  -4  337.37    3.05   0
   0  -2  -2  185.61    1.78   0
   1  -1  -2   25.77    0.75   0
   1  -2  -4   14.97    0.88   0
   0  -3  -4   18.33    0.93   0
  -1  -4  -6    5.90    0.98   0
  -1  -4  -7   12.73    1.37   0
  -1  -4  -5    5.98    0.81   0
   2  -1  -4  281.44    3.40   0
   3   3  -2   15.96    0.56   0
   2   0  -2  513.55    3.25   0
   3   0  -5    1.04    0.67   0
  -1  -4  -4  111.50    1.99   0
  -1  -3  -2 1260.38    4.27   0
   2  -1  -3  259.46    2.89   0
   4   3  -6  449.37    5.36   0
  -2  -4  -3  764.68    3.65   0
   1  -3  -7  358.58    5.09   0
   2   1  -1  318.15    1.84   0
   2  -2  -7   74.98    2.49   0
   0  -4  -7  103.38    2.78   0
   4   3  -4   13.47    1.02   0
   1  -3  -4   28.24    1.28   0
   3  -1  -6   18.74    1.41   0
   1  -2  -2   18.20    0.72   0
   3   0  -3  833.06    5.42   0
  -1  -4  -3 2187.17    7.37   0
   2  -1  -2 2125.09    7.26   0
   0  -4  -4   26.07    1.14   0
  -1  -5  -6    1.45    1.00   0
   0  -2  -1   24.44    0.57   0
   3  -1  -4    1.40    0.66   0
   1  -3  -3  749.98    5.16   0
   2  -3  -6    5.29    1.20   0
   2  -2  -3 1371.74    7.22   0
   4   3  -3   73.62    1.48   0
  -1  -5  -5   13.74    1.16   0
   1  -4  -7   23.84    1.77   0
   2  -3  -7  118.73    3.16   0
   2   0  -1 9999.99   12.11   0
   4   0  -6    0.01    1.15   0
   2  -3  -5    1.66    0.82   0
   3  -1  -3   71.99    1.85   0
  -2  -5  -4   25.55    1.02   0
   0  -4  -3   25.82    1.07   0
   3  -2  -5   86.40    2.52   0
   3   0  -2  864.21    4.89   0
   2  -3  -4  407.67    4.74   0
   0  -5  -5   41.62    1.80   0
   2  -2  -2  328.04    3.25   0
   3  -2  -4  212.64    3.58   0
   1  -3  -2  749.58    4.72   0
   1  -2  -1   51.81    1.03   0
   4  -1  -5   29.71    1.70   0
   2  -4  -6   42.54    2.15   0
   2  -1  -1    5.13    0.44   0
   3  -3  -5    1.90    1.11   0
   3  -2  -3   83.07    2.12   0
   4  -1  -4   43.31    1.84   0
  -1  -3  -1 1896.81    4.36   0
   1  -5  -5  284.31    4.53   0
   4   1  -2  196.21    2.51   0
   4   3  -2  337.45    2.44   0
   5   2  -4    3.38    1.09   0
  -2  -4  -2  292.14    1.59   0
  -1  -5  -3  481.76    3.89   0
   0  -3  -1 1399.54    5.06   0
   1   0   0  623.46    2.10   0
   2  -4  -4  237.01    3.99   0
   3  -3  -4  384.38    5.22   0
   4  -2  -5  106.64    3.06   0
   4  -1  -3  677.63    6.19   0
   5   1  -4   36.38    1.84   0
   2  -3  -2  619.50    5.04   0
   0  -5  -3   56.23    1.63   0
   2  -2  -1  170.13    2.20   0
   1  -4  -2  682.39    5.19   0
   3   3  -1   59.30    0.56   0
   4  -2  -4  457.37    5.82   0
   1  -3  -1  195.62    2.32   0
   1  -1   0   18.02    0.52   0
   2  -4  -3  524.30    5.54   0
   3  -3  -3  669.06    6.44   0
   5   0  -4  213.80    3.98   0
   5   2  -3    1.43    0.86   0
   0  -6  -5   73.66    2.52   0
   0  -1   0  262.21    1.20   0
   5   1  -3  163.05    3.04   0
   2   0   0  133.67    1.41   0
   2   1   0 4607.58    6.44   0
   1  -5  -3   18.73    1.31   0
   4  -1  -2   62.17    1.82   0
   3  -4  -4   13.29    1.39   0
   5   0  -3   44.86    1.95   0
   0  -6  -4  180.65    3.38   0
   2  -1   0    4.51    0.48   0
   5  -1  -4   21.11    1.63   0
   1  -2   0  285.30    2.35   0
   2  -3  -1  755.54    5.31   0
   3  -2  -1   24.57    1.12   0
  -1  -5  -2  201.44    2.32   0
   0  -5  -2   30.04    1.17   0
   0  -2   0 1060.04    3.41   0
   3  -4  -3  108.55    2.94   0
   4  -2  -2  120.30    2.81   0
   5   1  -2  402.45    4.27   0
   1  -4  -1   13.92    0.85   0
   5  -1  -3  317.31    4.81   0
   5   2  -2   51.00    1.48   0
  -1  -4  -1  847.20    3.64   0
   1  -6  -4   21.80    1.67   0
   1  -5  -2  104.63    2.38   0
   2  -2   0  393.69    3.34   0
   3   0   0 2284.40    7.29   0
   4  -3  -3  167.22    3.66   0
   5   0  -2 1256.77    8.25   0
  -1  -6  -3    0.99    0.83   0
   0  -6  -3   13.31    1.27   0
   1  -3   0  224.89    2.48   0
   3  -4  -2  134.73    3.18   0
   3  -3  -1  195.23    3.19   0
   0  -3   0 1685.25    5.40   0
   2  -4  -1  229.44    3.40   0
   4  -3  -2   39.11    1.86   0
   2  -3   0  302.17    3.37   0
   0  -5  -1   57.76    1.54   0
   5   1  -1  217.52    3.01   0
   1  -5  -1  124.09    2.55   0
   0  -6  -2   29.44    1.49   0
   4   1   0  118.89    1.83   0
   1  -4   0  615.99    4.76   0
   3  -4  -1 1399.50    9.44   0
   3   2   0   31.74    0.61   0
   5   2  -1  150.41    2.21   0
   1  -6  -2  279.33    4.27   0
   3  -3   0  720.31    5.95   0
   4  -3  -1    7.53    1.06   0
   5  -1  -1    3.19    0.89   0
  -1  -6  -2  505.98    4.09   0
  -1  -5  -1  240.43    2.34   0
   2  -1   1  216.68    2.21   0
   3  -5  -2   14.91    1.46   0
   2  -4   0   17.95    1.10   0
   2  -2   1   37.90    1.13   0
   1  -2   1   76.30    1.28   0
   2  -6  -2   77.68    2.65   0
   2   0   1  318.92    2.27   0
   3  -1   1  393.65    3.58   0
   3   0   1   -0.43    0.42   0
   4   2   0  829.61    3.96   0
   1  -1   1    0.06    0.25   0
   2  -3   1  140.63    2.38   0
   3  -5  -1    4.32    1.25   0
   3  -4   0   43.38    1.77   0
   3  -2   1  432.74    4.21   0
   5   0   0    7.70    0.85   0
   0  -6  -1   18.41    1.23   0
   1  -6  -1    9.49    1.15   0
   1  -5   0    5.08    0.76   0
   5  -1   0    2.46    0.96   0
   5   1   0  369.21    3.79   0
   0  -5   0   52.81    1.45   0
  -1  -3   0  519.23    2.14   0
   3  -3   1   10.03    0.96   0
   4  -1   1  177.54    2.83   0
   6   0  -1   78.86    2.46   0
   2  -6  -1   50.14    2.13   0
   1  -4   1  515.00    4.39   0
   2  -4   1  637.21    5.68   0
  -2   5  -1  808.57    6.18   0
   0   2  -1  897.77    3.15   0
   0   3  -1  337.11    2.45   0
   1   3   1 1882.04    5.80   0
  -3   5  -1  563.93    5.56   0
  -2   4  -2  177.16    2.50   0
   1   5   2  193.00    2.76   0
   1   5   5   12.77    1.03   0
  -2   6   0   86.23    2.47   0
   1   2   1 1492.11    4.13   0
   0   4  -1   19.28    0.81   0
   0   7   3  128.57    3.08   0
   1   5   1  241.08    2.97   0
   1   5   6    0.49    0.88   0
   1   6   3    0.96    0.61   0
  -1   4  -2  116.86    1.86   0
   1   6   5    2.64    0.98   0
   0   6   0    8.06    0.97   0
  -2   2  -3    4.18    0.38   0
   0   5  -1  676.78    5.02   0
   1   3   0  534.87    3.11   0
   1   4   0    1.90    0.41   0
  -2   5  -2  541.83    5.05   0
  -2   6  -1   50.85    2.08   0
   0   1  -1 2137.71    3.57   0
  -1   6  -1  230.63    3.60   0
   0   7   1   14.61    1.30   0
   1   5   0  205.91    2.73   0
   1   6   6  158.95    3.12   0
  -2   3  -3    0.81    0.43   0
   1   7   4    8.12    1.07   0
  -1   5  -2  518.93    4.57   0
   1   7   2  918.44    7.68   0
   2   4   3  761.46    4.87   0
   2   4   4  345.25    3.34   0
   2   5   4   25.92    1.28   0
   0   7   0    1.43    1.01   0
   1   6   0    0.66    0.69   0
   1   2   0  383.17    2.16   0
   1   7   1  132.47    3.01   0
   2   6   4   75.60    2.27   0
   2   5   5   13.43    1.10   0
   0   5  -2 1027.63    6.26   0
   1   4  -1 1164.24    5.54   0
   2   4   5   15.45    0.89   0
   2   6   2   17.63    1.16   0
  -1   6  -2  138.78    2.88   0
   2   3   3  214.26    2.12   0
   2   5   1   52.45    1.50   0
  -1   3  -3  398.58    2.85   0
   1   3  -1   75.69    1.23   0
   1   7   0   81.76    2.45   0
   2   3   4 1367.68    5.26   0
   2   4   1 1491.81    6.52   0
   2   7   4  307.92    4.59   0
   0   2  -2  145.10    1.38   0
   0   7  -1   21.09    1.41   0
   2   6   1  167.14    2.96   0
   2   7   2  129.52    3.05   0
   1   6  -1    5.69    0.77   0
   2   7   5  172.93    3.55   0
   1   1   1   42.91    0.54   0
   2   5   0    3.52    0.57   0
  -1   2  -3 1446.37    4.23   0
   2   3   1  155.42    1.83   0
   2   6   0   71.35    1.93   0
   2   4   0 1205.22    5.85   0
   1   5  -2 1124.96    6.58   0
   1   4  -2  158.41    2.16   0
   2   8   1  129.43    3.27   0
   0   7  -2  143.19    3.13   0
   0   5  -3  306.65    3.50   0
   1   2  -1  109.03    1.24   0
   2   5  -1  121.31    2.19   0
   3   5   3  823.92    5.98   0
   3   6   4   33.45    1.67   0
   1   3  -2  339.09    2.69   0
   2   3   0 1228.39    5.13   0
   3   7   2  280.28    4.54   0
   3   7   4  193.84    3.78   0
   0   6  -3  189.74    3.17   0
   1   7  -2    5.67    1.01   0
   2   4  -1  870.49    5.07   0
   2   7  -1  228.41    3.83   0
   3   5   4   12.09    1.01   0
   3   6   1  555.76    5.55   0
   3   7   1  741.99    7.15   0
   2   2   3   56.32    0.84   0
   3   5   1  303.69    3.62   0
   2   8  -1  774.65    7.55   0
   3   4   3   20.49    0.95   0
   3   6   0  260.54    3.77   0
   3   7   0  378.67    5.05   0
   3   8   1   66.36    2.45   0
   2   5  -2  798.98    5.70   0
   2   6  -2  201.68    3.26   0
   1   1   0  816.17    2.54   0
   1   6  -3  798.99    6.41   0
   2   2   1  164.28    1.57   0
   3   4   1  459.91    3.88   0
   3   4   4    0.67    0.53   0
   3   6  -1   22.54    1.23   0
   3   7  -1   34.08    1.66   0
   0   1  -2 2419.28    4.31   0
   0   2  -3  450.36    2.54   0
  -1   3  -4  347.03    2.48   0
   0   5  -4   19.13    1.11   0
   1   2  -2  182.35    1.72   0
   3   4   0  286.06    3.12   0
   3   5  -1  148.33    2.57   0
   3   8  -1    3.11    1.00   0
   4   7   2  488.48    6.08   0
   4   7   3  374.80    5.30   0
   2   2   0    9.07    0.47   0
   2   6  -3    0.49    0.65   0
   4   6   2   10.07    1.04   0
   4   7   1  114.59    3.02   0
   2   7  -3  227.51    3.93   0
   4   6   1   21.30    1.33   0
   4   8   1  396.28    5.81   0
   3   3   2   11.86    0.66   0
   3   6  -2   44.30    1.68   0
   3   7  -2    9.91    1.14   0
   1   5  -4  357.00    3.93   0
   2   3  -2  102.03    1.65   0
   3   4  -1  164.27    2.44   0
   4   7   0   17.16    1.42   0
   1   6  -4  711.38    6.04   0
   3   3   1  293.38    2.74   0
   3   3   3   32.26    0.90   0
   3   5  -2   13.60    0.94   0
   4   5   2    0.52    0.75   0
   4   6   0    4.29    0.86   0
   0   3  -4  131.66    1.72   0
   2   4  -3 1240.11    6.59   0
   4   5   3    0.61    0.78   0
   4   7  -1   10.61    1.32   0
   1   1  -1   17.22    0.48   0
   1   4  -4  461.12    3.94   0
   3   3   0  505.14    3.72   0
   4   5   0   91.61    2.20   0
   4   6  -1    3.32    0.78   0
   3   4  -2  268.69    3.23   0
   3   6  -3  306.91    4.27   0
   2   6  -4  150.26    2.99   0
   2   5  -4  322.23    3.95   0
   2   7  -4    0.46    1.03   0
   3   5  -3  348.76    4.18   0
   4   5  -1   50.60    1.75   0
   4   7  -2    1.65    1.02   0
   3   3  -1   58.78    1.37   0
   4   4   2  604.44    4.69   0
   2   3  -3  938.35    5.20   0
   4   6  -2  102.40    2.60   0
   5   7   1  186.53    3.90   0
   5   7   2   58.93    2.35   0
   1   3  -4  444.63    3.44   0
   4   4   0 1237.04    7.14   0
  -1   2  -4  696.80    2.33   0
   4   4   3   20.11    0.99   0
   5   7   0  546.19    6.53   0
   2   2  -2  470.65    3.19   0
   4   5  -2  170.06    3.08   0
   5   6   1    0.92    0.91   0
   5   6   2   51.11    1.99   0
   1   5  -5  132.61    2.46   0
   3   4  -3  158.06    2.60   0
   3   7  -4   60.99    2.26   0
   4   4  -1  431.53    4.35   0
   5   7  -1  115.71    3.11   0
   4   6  -3  320.51    4.58   0
   1   1  -2   20.77    0.56   0
   5   6  -1  183.03    3.67   0
   1   4  -5    3.16    0.71   0
   2   6  -5   35.11    1.64   0
   2   5  -5   25.40    1.39   0
   3   2   0   29.37    0.89   0
   4   4  -2  223.30    3.28   0
   4   5  -3  692.01    6.27   0
   5   5   2  625.03    5.69   0
   5   7  -2  225.20    4.20   0
   0   1  -3  462.13    2.08   0
   3   2   2   58.16    1.05   0
   2   1   0 4495.53    7.91   0
   4   3   1  790.89    5.06   0
   5   6  -2   60.51    2.20   0
   3   2  -1  110.99    1.74   0
   3   3  -3  241.88    2.99   0
   3   4  -4  197.74    3.05   0
   4   3   0  211.37    2.77   0
   5   5  -1  236.69    3.84   0
   1   2  -4 1487.77    5.63   0
   3   6  -5   82.48    2.51   0
   4   3   2   61.91    1.42   0
   2   4  -5   81.79    1.93   0
   4   3  -1  373.89    3.82   0
   2   1  -1  374.64    2.51   0
   5   5  -2  436.89    5.31   0
   1   3  -5  500.42    3.76   0
   3   5  -5   59.09    1.98   0
   4   5  -4  601.32    6.05   0
   3   2  -2   39.27    1.14   0
   5   4   1 1593.53    8.60   0
   6   6   0  200.70    3.99   0
   6   6   1  115.71    3.10   0
   1   1  -3  682.70    3.28   0
   3   3  -4    3.49    0.72   0
   5   4  -1  581.22    5.62   0
   5   5  -3   98.85    2.66   0
   2   1  -2  108.54    1.49   0
   2   3  -5   14.76    0.93   0
   3   4  -5  410.31    4.56   0
   4   4  -4  716.75    6.26   0
   5   4  -2  187.73    3.34   0
   4   3  -3   74.82    1.92   0
   4   5  -5  283.12    4.30   0
   6   5   0  768.48    7.15   0
   4   2   0  829.78    5.16   0
   5   5  -4  614.63    6.50   0
   6   5   1  369.43    4.80   0
   2   4  -6   27.25    1.34   0
   4   2  -1   98.72    1.95   0
   5   4  -3  822.73    7.09   0
   1   2  -5  489.75    3.39   0
   2   1  -3  579.97    3.65   0
   4   2   1  690.11    4.39   0
   5   3   0  251.70    3.42   0
   3   3  -5  252.44    3.40   0
   5   3  -1  767.67    6.15   0
   6   5  -2    0.60    0.90   0
   0   0  -1  781.49    1.53   0
   0   2  -5  211.42    1.72   0
   3   2  -4  821.69    5.52   0
   4   2  -2   26.43    1.11   0
   1   1  -4  495.73    3.03   0
   5   3  -2  293.29    3.97   0
   0   1  -4 2529.14    5.13   0
   2   2  -5  195.52    2.53   0
   3   4  -6   46.39    1.75   0
   5   4  -4    4.87    1.01   0
   1   0  -1  340.24    1.79   0
   4   2  -3  943.14    6.37   0
   4   2   2  239.44    2.34   0
   6   4   0  102.25    2.56   0
   1   0   0  640.40    2.07   0
   2   3  -6  324.30    3.53   0
   5   3  -3   10.18    1.09   0
   2   1  -4  250.71    2.59   0
   6   4  -2   72.08    2.31   0
   3   1  -3  279.73    2.96   0
   1   0  -2 1217.81    3.81   0
   4   2  -4  552.46    5.04   0
   4   4  -6  159.04    3.15   0
   5   4  -5   35.17    1.70   0
   6   4  -3   30.75    1.63   0
   0   0  -2  567.31    1.75   0
   5   3  -4    3.37    0.82   0
   2   0  -1 9755.32   12.44   0
   5   2   0   76.17    1.83   0
   2   0  -2  520.46    3.10   0
   4   1  -1 1934.04    7.87   0
   5   2  -2   49.67    1.63   0
   0  -1   1 2003.07    4.06   0
   3  -2  -1   23.69    1.03   0
  -2  -4   2    1.90    0.40   0
   0  -4   2 1165.08    6.18   0
  -2  -8   1  757.78    7.06   0
  -1  -6   2  523.76    5.08   0
   0  -7   1   21.08    1.53   0
   0  -5   2 1002.04    6.61   0
   0  -3   2  669.00    4.02   0
   3  -5  -2   14.92    1.69   0
   3  -4  -1 1395.11    9.02   0
   1   0   0  650.72    1.87   0
   3  -1  -1  322.90    2.68   0
  -2  -7   2  245.07    3.70   0
   0  -6   2   17.82    1.20   0
   1  -3   2   47.46    1.28   0
  -1  -7   2    4.52    0.97   0
   3  -5  -1    5.73    1.30   0
   3  -3   0  719.00    5.72   0
  -3  -5   2   14.26    0.70   0
   0  -2   2  152.52    1.65   0
   3  -4   0   45.24    1.88   0
   3  -2   0   20.78    0.95   0
   3   0  -2  883.72    2.88   0
  -2  -3   2  102.02    1.12   0
   1  -2   2 1802.69    6.55   0
   1  -6   2  135.78    2.99   0
  -1  -5   3 1472.61    7.64   0
   2  -1   1  219.23    2.13   0
   3  -5   0  328.55    4.87   0
   3  -1   0  144.03    1.90   0
  -1  -6   3  820.99    6.53   0
  -1  -4   3  335.63    3.20   0
   0  -5   3  288.85    3.78   0
   2  -3   2   86.92    1.93   0
   2   0   0  143.22    1.27   0
  -2  -6   3    0.07    0.75   0
  -2  -5   3  939.02    5.46   0
  -1  -1   1   18.15    0.24   0
   0  -3   3  161.22    2.19   0
   2  -2   2   62.31    1.46   0
  -1  -7   3   75.71    2.37   0
   1  -5   3  168.80    3.17   0
   1  -3   3  401.19    3.87   0
   3   0  -1 4362.03    7.43   0
  -2  -7   3  228.25    3.59   0
  -1  -3   3   10.43    0.62   0
   1  -6   3   79.06    2.47   0
   1  -1   2  414.13    2.74   0
  -2  -4   3 1293.24    5.32   0
   2  -4   3  360.02    4.49   0
   4  -4   0    5.05    1.48   0
   1  -2   3 1468.40    6.53   0
   2  -5   3  123.32    2.93   0
   2  -3   3    0.94    0.55   0
   2  -1   2   29.78    0.93   0
   3  -2   2  372.64    3.96   0
   0  -2   3  452.75    3.17   0
   0  -1   2 2347.18    5.34   0
  -1  -6   4  720.21    6.30   0
  -1  -5   4  364.12    4.05   0
   0  -6   4    4.00    0.99   0
   3   0   0 2246.88    6.14   0
   4  -3   1  184.98    3.54   0
   1  -5   4  214.13    3.74   0
   1  -4   4   50.56    1.74   0
   2   0   1  320.37    2.19   0
   4  -1   0  223.23    2.76   0
   1   0   1  436.98    2.02   0
  -1  -4   4  466.17    4.06   0
   1  -3   4  336.76    3.84   0
   3  -1   2  381.48    3.59   0
   2  -4   4   29.34    1.60   0
   2  -5   4   42.98    1.97   0
   2  -3   4   59.57    1.87   0
   3  -2   3  384.35    4.31   0
   4  -3   2  230.99    3.92   0
   4  -1   1  168.43    2.56   0
  -2  -5   4  334.48    3.40   0
   2  -1   3 1646.85    7.10   0
   4  -2   2  505.61    5.24   0
  -1  -2   3 2205.48    5.83   0
   1  -2   4  704.49    5.03   0
   0  -5   5   28.89    1.62   0
  -2  -3   3  951.83    3.55   0
  -1  -3   4  450.65    3.47   0
   1  -4   5  487.95    5.46   0
   0  -4   5  269.74    3.72   0
   2   0   2    5.16    0.43   0
   3  -3   4  313.36    4.50   0
   4  -3   3  362.24    5.02   0
   4   0  -1   43.09    0.94   0
  -1  -6   5  361.13    4.71   0
   0  -2   4  240.66    2.61   0
   4  -1   2 1201.68    7.16   0
   4   0   0  124.17    1.72   0
   1  -3   5  552.71    5.32   0
   2  -4   5   54.88    2.11   0
   3  -2   4    2.39    0.71   0
   3   0   2   47.56    1.22   0
  -2  -4   4   31.64    0.98   0
   0  -1   3  467.64    2.83   0
   1   0   2  504.73    2.67   0
   2  -3   5   86.72    2.44   0
   4   0   1   15.84    0.83   0
   2  -1   4  177.05    2.62   0
   1  -1   4 2128.28    7.93   0
   1  -2   5    1.09    0.59   0
   2  -2   5  418.57    4.73   0
   3  -1   4  198.32    3.11   0
   4   0   2   59.43    1.55   0
   0  -5   6  236.00    4.06   0
   1  -4   6  889.70    7.70   0
   3   0   3   59.84    1.48   0
   3  -2   5  300.89    4.42   0
   0  -4   6    7.46    1.00   0
   5  -1   2  607.80    5.86   0
   1   0   3  195.55    1.98   0
   2  -3   6    2.15    0.98   0
   0  -1   4 2473.53    7.57   0
   0  -3   6  281.96    3.80   0
   0   0   1  759.06    2.00   0
   1  -1   5  115.96    2.14   0
   2  -2   6  167.71    3.31   0
   2   0   4 2243.08    8.58   0
   3   0   4  562.75    4.86   0
   3   1   1  327.64    2.37   0
   5  -1   3  410.58    5.11   0
   1  -2   6  392.61    4.62   0
   3   1   0  131.61    1.23   0
  -2  -3   4   12.08    0.57   0
  -1  -4   6  314.23    3.89   0
   3  -2   6  179.34    3.66   0
   2   1   1    0.55    0.26   0
   4  -1   5  107.99    2.80   0
   1   0   4  736.38    4.43   0
   4   1   1  471.56    3.37   0
   0   0   2  569.66    2.44   0
   2   1   2  111.42    1.43   0
   4   1   2  215.56    2.61   0
   5  -1   4  330.28    4.80   0
   0  -2   6  536.78    4.87   0
   2  -1   6  247.60    3.79   0
   2   0   5    5.93    0.76   0
   3  -1   6   40.38    1.81   0
   3   0   5   50.54    1.71   0
   3   1   3  135.82    2.05   0
   0  -4   7  648.68    6.50   0
  -1  -2   5  495.96    3.69   0
   1  -1   6   14.58    1.08   0
   2   1   3  650.97    3.97   0
   4   1   3  192.20    2.78   0
  -1  -3   6  769.82    5.48   0
   2  -2   7  393.97    5.35   0
   4   0   5  253.38    4.00   0
   5   0   4  349.61    4.68   0
   0  -3   7    3.72    1.12   0
   0   0   3  155.62    1.60   0
   1  -2   7  421.56    5.24   0
   3   1   4   10.44    0.80   0
   1   0   5 1101.80    6.21   0
   3   0   6   47.84    1.87   0
   2  -1   7   40.90    1.93   0
   2   0   6  272.22    3.83   0
   2   1   4    6.80    0.61   0
   3  -1   7   37.63    1.99   0
   5   1   2   53.26    1.60   0
   4   0   6    1.06    1.10   0
   5   0   5   18.65    1.44   0
   5   1   3    3.67    0.90   0
   3   1   5  135.24    2.60   0
  -1  -1   4  512.00    3.10   0
   0  -2   7   92.15    2.38   0
   0  -1   6  804.27    5.66   0
   1   1   2 3141.50    6.78   0
   1   1   3 2905.30    7.71   0
   2   1   5  199.13    2.88   0
   5   1   4   76.87    2.21   0
   1   0   6  277.30    3.56   0
  -2  -2   3    5.70    0.28   0
   1   1   1   42.24    0.67   0
   3   0   7    0.52    0.88   0
   1   1   4  377.67    3.23   0
   2   0   7    1.97    0.87   0
   3   1   6  278.81    4.11   0
   5   1   5  170.58    3.48   0
   3   2   3  402.99    3.50   0
   4   1   6   29.28    1.64   0
   4   2   2  242.34    2.65   0
   4   2   3   34.14    1.21   0
   2   1   6  216.72    3.40   0
  -1  -1   5  714.52    4.31   0
   1   1   5  327.69    3.44   0
   1  -1   8  117.21    2.99   0
   4   2   1  714.68    3.84   0
   4   2   5  632.35    5.96   0
   0  -2   8  293.14    4.36   0
   3   2   1  161.06    1.68   0
   4   1   7  161.61    3.63   0
   5   2   4  472.13    5.12   0
   2   0   8   36.41    1.88   0
   2   2   4   50.50    1.37   0
  -2  -6   2  207.51    3.08   0
  -1  -7   2    5.76    0.97   0
   2  -7   3   62.32    2.12   0
   2  -7   6  178.19    2.65   0
   1  -7   2   78.69    2.42   0
   1  -7   7    7.73    0.81   0
   3  -6   2   30.83    1.59   0
   5  -3   1   38.90    1.68   0
  -1  -6   1    5.31    0.92   0
   0  -7   2  143.49    3.10   0
   0  -7   7  124.71    2.28   0
   2  -7   4  109.11    2.56   0
   2  -7   5  184.29    3.06   0
   2  -6   1   49.30    1.94   0
   3  -6   7  100.63    1.80   0
   3  -3  -1  200.32    3.01   0
  -1  -7   6  502.54    4.96   0
   5  -4   3  488.44    4.98   0
   1  -7   3    5.53    0.99   0
   2  -5   0  247.43    3.83   0
   3  -6   3    1.38    0.82   0
   4  -3   0  147.57    2.88   0
  -1  -7   4  216.29    3.65   0
  -1  -7   5  567.25    5.63   0
   0  -6   1  148.28    2.93   0
   0  -5   0   53.81    1.58   0
   1  -7   6   11.13    0.99   0
   1  -6   1  239.89    3.89   0
   3  -5   1  578.44    6.10   0
   4  -5   3   92.49    2.48   0
   4  -4   1    1.08    0.84   0
   0  -7   6   72.78    2.07   0
   1  -7   4   64.19    2.15   0
   1  -5   0    5.45    0.80   0
   3  -6   4   13.45    1.13   0
   3  -6   6   67.91    1.79   0
   5  -4   4  334.81    4.02   0
   0  -7   4    4.13    1.08   0
   2  -6   2  440.27    5.49   0
   3  -6   5  296.32    3.97   0
   5  -4   5  132.88    2.47   0
  -1  -6   2  526.96    5.12   0
   0  -7   5    7.36    1.02   0
   4  -5   4    0.09    0.71   0
   4  -5   6   58.48    1.64   0
   5  -3   2   15.71    1.21   0
   5  -2   1    5.80    1.05   0
   4  -5   5   35.80    1.48   0
   6  -2   4   60.45    1.80   0
   0  -6   8  350.61    3.76   0
   1  -6   8   19.13    1.10   0
   2  -6   3  209.04    3.90   0
   2  -6   7  113.68    2.35   0
   2  -5   1  848.12    7.13   0
   3  -5   2  195.29    3.68   0
   4  -2   0  200.91    3.00   0
   0  -6   2   15.34    1.15   0
   3  -5   8   65.79    1.58   0
   6  -2   5   40.75    1.48   0
   6  -2   6   21.58    1.05   0
  -1  -6   3  834.36    6.58   0
   4  -3   1  163.60    3.09   0
   0  -5   1  673.78    5.41   0
   1  -5   1  270.69    3.78   0
   2  -6   4  122.11    2.97   0
   2  -6   5  175.72    3.50   0
   3  -4   1  472.09    5.22   0
   5  -3   3   10.21    1.08   0
   1  -6   3   77.93    2.37   0
   3  -5   3  190.02    3.69   0
   4  -4   8  272.51    2.97   0
  -1  -6   4  729.25    6.34   0
   1  -6   7    2.63    0.80   0
   4  -4   3  114.04    2.85   0
  -1  -6   6  218.58    3.60   0
   0  -6   7  285.83    3.97   0
   1  -6   4   40.19    1.93   0
   2  -5   2  512.56    5.69   0
   3  -5   7  106.49    2.35   0
   5  -3   4   77.21    2.32   0
   5  -2   2   35.86    1.58   0
  -1  -6   5  350.44    4.50   0
   1  -6   5  112.02    2.93   0
   1  -5   9   27.46    1.20   0
   0  -6   4    3.47    0.97   0
   0  -6   6  152.36    3.17   0
   3  -5   6  343.46    4.58   0
   3  -4   9  107.53    1.94   0
   4  -4   4    0.98    0.86   0
   4  -4   7  162.14    2.80   0
   5  -3   5   21.46    1.34   0
   6  -1   4    5.74    1.07   0
   0  -6   5    1.84    0.97   0
   1  -5   2  549.34    5.49   0
   2  -5   8   45.80    1.64   0
   2  -4   1  637.04    5.61   0
   3  -4   2  432.06    5.17   0
   4  -4   5   14.18    1.34   0
   4  -3   2  233.08    3.81   0
   0  -5   2 1007.10    6.82   0
   2  -5   3  127.44    3.01   0
   4  -3   9  245.51    2.79   0
   4  -2   1  600.65    5.33   0
   6  -1   7   95.98    1.95   0
   6  -1   5  107.06    2.44   0
  -1  -5   3 1469.25    7.97   0
   5  -2   3  107.13    2.62   0
   6  -1   6   57.46    1.78   0
   1  -5   8   -0.11    0.87   0
   2  -5   4   45.10    1.93   0
   2  -5   7  170.41    3.34   0
   5  -1   2  600.08    5.48   0
   0  -5   8  656.06    5.95   0
   1  -5   3  169.89    3.24   0
   2  -5   5    1.70    1.12   0
   2  -5   6   50.17    2.14   0
   3  -4   3   94.71    2.60   0
   3  -4   8   76.05    2.06   0
   5  -2   8   16.41    0.94   0
  -1  -5   7  156.19    3.11   0
   2  -4   2  178.46    3.15   0
   5  -2   4  233.70    3.95   0
  -1  -5   4  353.56    4.20   0
   4  -3   8  186.65    3.04   0
   1  -5   4  209.33    3.73   0
   3  -4   4  836.61    7.73   0
   3  -4   7  111.50    2.79   0
   6   0   4    0.30    0.97   0
  -1  -5   5  136.63    2.85   0
  -1  -5   6  808.62    6.83   0
   0  -5   7  463.56    5.44   0
   1  -5   5  419.86    5.47   0
   1  -5   6  200.30    3.92   0
   3  -4   5  353.38    5.21   0
   3  -4   6  291.27    4.69   0
   3  -3   2  111.22    2.49   0
   4  -3   4  233.21    4.09   0
   4  -2   2  515.26    5.21   0
   5  -2   5  443.50    5.38   0
   1  -4   2  109.81    2.28   0
   4  -3   5    3.49    1.14   0
   4  -3   7  169.31    3.31   0
   5  -1   9  128.40    2.12   0
   0  -5   5   28.13    1.54   0
   0  -4   9  113.47    2.54   0
   1  -4   9  372.19    4.43   0
   2  -4   3  372.43    4.73   0
   4  -3   6  264.80    4.37   0
   5  -1   3  426.04    4.96   0
   6   0   5   41.19    1.79   0
   6   0   7   17.75    1.21   0
   4  -2   9    0.39    0.66   0
   6   0   6   88.86    2.34   0
   2  -4   4   31.14    1.63   0
   3  -3   3  109.08    2.69   0
   1  -4   3  460.61    4.84   0
   1  -3  10  449.63    4.47   0
   2  -4   7    8.89    1.20   0
   3  -2  10   15.51    1.00   0
   1  -4   8  232.94    4.08   0
   2  -4   5   57.98    2.20   0
   2  -4   6  123.51    3.20   0
   2  -3   2   89.91    2.05   0
   4  -1  10    3.53    0.58   0
   5  -1   4  331.45    4.63   0
   6   1   8   44.08    1.51   0
   0  -4   8    1.34    1.08   0
   4  -2   8  135.94    2.97   0
   2  -3   9    7.76    1.00   0
   3  -3   4  313.78    4.64   0
   4  -1   2 1230.40    7.46   0
   5  -1   5  198.97    3.78   0
  -1  -4   7  466.68    5.29   0
   1  -4   4   50.01    1.82   0
   3  -3   7   90.90    2.76   0
   5   0   9   71.03    1.87   0
   6   1   5   79.47    2.35   0
   6   1   7  366.50    4.42   0
   1  -4   5  498.07    5.76   0
   1  -4   6  937.39    8.25   0
   3  -3   6   12.28    1.32   0
   4  -2   5   98.51    2.87   0
   4  -2   7  233.99    4.19   0
   5   0   3 1029.38    7.36   0
   5   1  10    3.03    0.60   0
  -1  -4   5    3.23    0.97   0
  -1  -4   6  306.89    4.19   0
   0  -4   4  468.93    4.79   0
   2  -3   3    0.30    0.77   0
   0  -4   5  278.15    4.03   0
   0  -4   6    6.50    1.19   0
   1  -3   9  705.08    6.77   0
   4  -1   9   17.71    1.28   0
   0  -3   9   24.11    1.57   0
   2  -3   8   43.68    2.02   0
   4  -1   3  196.85    3.35   0
   5   0   8  101.34    2.59   0
   6   2   8   88.28    2.09   0
   2  -3   4   57.80    1.96   0
   3  -2   3  378.03    4.47   0
   3  -1  10  117.70    2.50   0
   4   0  10   40.58    1.45   0
   5   0   4  362.51    4.76   0
   0  -2  10   30.16    1.54   0
   1  -2  10    1.50    0.84   0
   1  -1  11  111.69    2.19   0
   3  -2   8   79.32    2.59   0
  -1  -3   8    3.21    1.18   0
   2  -3   5   86.22    2.55   0
   2  -3   6    1.24    1.00   0
   4  -1   8  150.99    3.39   0
   5   1   9  108.05    2.43   0
   6   2   5   52.63    2.03   0
   6   2   7  149.43    3.03   0
   2  -2   9   31.52    1.82   0
   3  -2   4    3.41    0.86   0
   5   0   6    1.96    1.02   0
   6   2   6   10.96    1.32   0
   0  -3   8  151.43    3.35   0
   3  -2   7   11.39    1.33   0
   5   1   3    3.87    1.03   0
   1  -3   4  350.14    4.24   0
   3  -2   5  300.89    4.66   0
   4  -1   5  107.20    2.93   0
   4  -1   6   27.15    1.82   0
   4   2  11   13.72    0.80   0
   6   3   8  110.74    2.42   0
   3  -1   9  113.97    2.98   0
   4   0   9  185.21    3.50   0
   0  -3   7    1.81    1.14   0
   1  -3   5  544.59    5.71   0
   1  -3   6  309.62    4.69   0
   2  -2   8  142.67    3.51   0
   3   1  11    0.06    0.54   0
   4   1  10   82.96    2.09   0
  -1  -3   6  759.96    6.30   0
   0  -2   9  162.19    3.47   0
   0   0  11  274.57    3.31   0
   3   0  10   88.19    2.37   0
   5   1   4   81.41    2.42   0
   6   3   7    9.78    1.30   0
   0  -3   5  580.59    5.45   0
   0  -3   6  284.10    4.19   0
   1   0  11  100.76    2.25   0
   4   0   3 1684.28    8.98   0
   4   0   8   61.67    2.44   0
   4   3  11  182.15    2.35   0
   6   3   6   81.61    2.44   0
   6   4   8    5.67    1.01   0
   0  -1  10  147.88    3.08   0
   1  -1  10   71.03    2.25   0
   2  -2   7  381.77    5.60   0
   3  -1   8    3.72    1.08   0
   5   1   5  178.68    3.64   0
   5   1   6  164.54    3.67   0
   2  -2   4   33.32    1.46   0
   2  -2   5  424.12    5.19   0
   2  -2   6  164.36    3.56   0
   2  -1   9  243.24    4.37   0
   4   0   7   30.80    1.96   0
   6   5   8   59.61    1.78   0
  -1  -2   8   78.21    2.46   0
   2   1  11   72.98    1.96   0
   3   2  11   12.36    0.93   0
   4   0   4   20.91    1.35   0
   4   1   9    1.47    0.89   0
   6   4   7   66.63    2.20   0
   0  -2   8  291.17    4.70   0
   2   0  10  412.23    5.24   0
   3  -1   6   40.44    2.03   0
   3   0   9  374.47    5.35   0
   4   0   6    1.89    0.96   0
   4   2  10  182.39    3.10   0
   1  -2   7  427.03    5.74   0
   3  -1   5   13.87    1.25   0
   6   4   6  888.96    7.30   0
   0   1  11   12.48    1.08   0
   1   1  11   26.32    1.38   0
   3   1  10   76.49    2.26   0
  -1  -1   9  121.07    2.88   0
   2  -1   8    2.46    1.08   0
   5   2   4  473.20    5.28   0
   5   2   7  164.25    3.64   0
   0  -2   7   87.50    2.64   0
   1  -2   5    1.76    0.86   0
   1  -2   6  395.38    5.12   0
   1   0  10  430.62    5.45   0
  -1  -2   7   77.15    2.35   0
   0  -1   9   10.56    1.28   0
   2   2  11  137.70    2.63   0
   3   0   8  278.20    4.87   0
   3   3  11  240.67    3.10   0
   4   3  10   39.75    1.58   0
   5   2   5  770.80    7.24   0
   5   2   6  146.85    3.43   0
   0   0  10   15.70    1.31   0
   2  -1   7   40.85    2.08   0
   4   2   9  100.35    2.82   0
   0  -2   6  527.83    5.56   0
   2   0   9    7.87    1.23   0
   4   1   7  163.20    3.83   0
  -1  -2   6    5.18    1.07   0
   1   2  11   22.90    1.32   0
   2   1  10    7.71    1.10   0
   3   0   7    1.62    1.15   0
   3   1   9  219.78    4.19   0
   3   2  10  110.20    2.73   0
   3   4  11    2.64    0.65   0
   2  -1   6  241.07    4.13   0
   2  -1   5 1027.30    7.69   0
   2   3  11   88.18    2.10   0
   3   5  11    2.00    0.52   0
   4   4  10   19.05    1.08   0
   5   6   9    1.35    0.70   0
  -1  -1   8    1.94    1.21   0
  -1   1  10   44.85    1.77   0
   0  -1   8   48.32    2.20   0
   3   0   4  578.97    5.45   0
   4   2   8  119.32    3.29   0
   0   3  11  155.07    2.42   0
   1  -1   7    1.54    1.10   0
   2   0   8   36.96    2.09   0
   4   3   9   47.56    2.05   0
   1   3  11   28.23    1.34   0
   3   1   8  190.16    4.12   0
   4   5  10  173.14    2.68   0
   4   6  10  133.02    2.16   0
   5   3   6    7.99    1.26   0
  -1   0   9   35.47    1.84   0
   0   0   9    4.52    1.27   0
   0   1  10   91.52    2.53   0
   2   4  11   43.98    1.43   0
   3   3  10  121.45    2.73   0
   5   3   5  881.85    7.69   0
   2   1   9  141.79    3.46   0
   2   2  10   56.43    2.09   0
   2   5  11   16.24    0.88   0
   3   2   9   17.76    1.56   0
   4   2   7    1.64    1.18   0
   1  -1   6   14.00    1.19   0
   1   4  11   16.75    0.99   0
   0  -1   7  144.37    3.19   0
   2   0   7    1.84    0.98   0
  -1   2  10   39.78    1.64   0
   1   0   8   20.03    1.51   0
   3   1   7  369.14    5.45   0
   3   4  10   22.44    1.31   0
   4   3   8   13.12    1.37   0
   5   6   8   45.69    1.81   0
   5   7   8   27.68    1.30   0
   5   4   6  663.96    7.06   0
   0   2  10   97.96    2.63   0
   1   1   9  166.50    3.75   0
   2   0   6  274.09    4.27   0
   2   3  10   63.93    2.13   0
   4   2   5  630.97    6.42   0
   0  -1   6  828.04    6.77   0
   2   1   8  367.53    5.46   0
   3   2   8   93.98    2.91   0
   3   3   9   37.75    1.93   0
   3   5  10    0.25    0.59   0
   4   2   4  410.28    4.72   0
   4   5   9   54.72    1.89   0
   5   4   4   46.16    2.02   0
   5   4   5   14.38    1.53   0
   5   5   7  252.77    4.34   0
  -1   3  10   27.54    1.37   0
   0   0   8    7.46    1.20   0
   2   0   5    6.76    1.00   0
   3   6  10    6.91    0.78   0
  -1   0   8    0.01    0.96   0
  -1   1   9  217.89    3.80   0
   0   1   9  158.48    3.52   0
   3   1   5  136.01    2.88   0
   4   3   7  168.15    3.75   0
   4   6   9  356.93    4.18   0
  -2   3  -7  268.29    4.22   0
   0   4 -10   54.97    1.69   0
   1   6  -8   10.16    1.11   0
   2   6  -2  213.55    3.53   0
   5   7  -5   13.85    1.31   0
  -2   3  -6    0.95    1.14   0
  -1   4  -8  235.75    4.04   0
   0   5  -3  291.11    4.15   0
   2   6  -9   34.27    1.41   0
   3   7  -7  164.97    3.25   0
   4   7  -4  252.97    4.14   0
   1   6  -4  737.81    7.29   0
   1   6  -7  154.12    3.50   0
   3   7  -6   86.23    2.57   0
   3   7  -5   29.28    1.70   0
   4   7  -5   91.77    2.62   0
  -1   4  -7  131.76    3.30   0
   1   5  -2 1130.53    7.39   0
   1   6  -6  219.93    4.25   0
   1   6  -5  359.22    5.29   0
   3   6  -9   25.14    1.22   0
  -1   4  -5  483.45    5.72   0
   0   5  -7  468.91    6.06   0
   2   5 -10   69.98    1.78   0
  -2   2  -8  146.29    3.13   0
  -1   3  -9  684.37    6.37   0
  -1   4  -6  907.37    8.08   0
   0   5  -6  242.79    4.45   0
   0   5  -5   28.46    1.66   0
   1   5  -9   10.95    1.08   0
   2   6  -8   37.06    1.72   0
   3   5 -10   33.84    1.27   0
  -1   2 -10    1.38    0.94   0
   2   6  -4  148.78    3.34   0
   3   6  -3  307.53    4.36   0
  -2   2  -7  376.34    4.95   0
   2   6  -7  128.93    3.23   0
   3   6  -8  232.61    3.86   0
   4   6  -8   40.08    1.58   0
   5   6  -7   10.05    1.16   0
   5   6  -4  191.62    3.44   0
  -2   2  -5  430.01    4.75   0
   0   2 -11    0.76    0.69   0
   1   3 -11   97.89    1.95   0
   1   4 -10   85.27    2.14   0
   1   5  -8   46.41    2.13   0
   1   5  -3 1498.52    9.00   0
   2   6  -6   32.06    1.78   0
  -2   2  -6  161.89    3.17   0
  -1   3  -8  409.55    5.44   0
   0   3 -10   24.37    1.40   0
   0   4  -3  119.01    2.43   0
   2   5  -9  190.41    3.52   0
   5   6  -6   32.62    1.68   0
   5   6  -5  121.38    2.86   0
   3   6  -7  167.21    3.56   0
   4   6  -4  117.78    2.90   0
  -1   3  -4  342.45    4.13   0
   1   5  -7  155.66    3.71   0
   1   5  -4  352.01    4.71   0
   3   6  -6   30.50    1.82   0
   3   6  -5   81.32    2.63   0
   3   5  -9  228.45    3.70   0
   4   5  -9    2.37    0.67   0
   4   6  -5  519.85    5.98   0
   0   4  -7  641.13    7.12   0
   0   4  -4  466.38    5.07   0
   1   5  -6  829.81    8.06   0
   1   5  -5  134.84    3.16   0
   2   3 -11  108.71    2.07   0
   2   4 -10  331.13    4.17   0
   4   4 -10   11.62    0.84   0
  -1   2  -9  183.49    3.55   0
  -1   3  -5  553.39    5.65   0
   1   4  -9  253.31    4.25   0
   2   5  -8   18.65    1.46   0
   2   5  -3  923.36    6.93   0
   3   3 -11   60.19    1.45   0
  -1   1 -10   70.50    2.11   0
   0   4  -6    6.93    1.07   0
   0   4  -5  273.84    4.23   0
   3   4 -10  121.93    2.47   0
   5   4  -9    8.69    0.87   0
  -2   1  -7   39.65    1.90   0
   0   1 -11    7.60    0.94   0
   1   2 -11    9.45    0.91   0
   1   3 -10  120.74    2.78   0
   2   5  -7   30.88    1.83   0
   2   5  -4  319.09    4.44   0
   3   5  -8  650.35    6.86   0
   4   5  -8   10.76    1.23   0
   0   2 -10   30.39    1.61   0
   3   5  -3  352.10    4.28   0
   4   5  -3  725.25    6.15   0
   5   5  -4  613.86    5.94   0
  -2   1  -6  245.64    3.72   0
  -1   2  -8  104.18    2.93   0
   1   4  -8  277.97    4.78   0
   2   4  -9    4.70    1.15   0
   2   5  -5   24.33    1.55   0
   3   5  -7  231.01    4.36   0
   5   5  -6   18.50    1.42   0
   5   5  -5  348.32    4.75   0
   2   2 -11   16.55    1.00   0
   4   4  -9  395.93    4.68   0
   1   4  -7  472.75    6.16   0
   2   3 -10  156.23    3.12   0
   3   2 -11   52.87    1.44   0
   3   4  -9  243.45    4.07   0
   3   5  -6  121.59    3.15   0
   3   5  -5   58.59    2.22   0
   4   3 -10   62.23    1.67   0
   4   5  -4  608.38    6.01   0
  -1   0 -10  446.49    4.89   0
   1   4  -6  304.49    4.79   0
   4   5  -5  272.29    4.34   0
   5   4  -8   91.79    2.34   0
   0   0 -11  267.34    3.39   0
   1   1 -11   89.72    2.16   0
   1   3  -9   74.58    2.52   0
   2   4  -8  388.82    5.64   0
   5   3  -9   45.84    1.53   0
   0   3  -6  296.44    4.46   0
   0   3  -5  592.10    5.74   0
   1   2 -10   67.72    2.24   0
   6   3  -7  155.90    2.74   0
   2   4  -7  122.01    3.27   0
   3   4  -8   51.94    2.21   0
   5   4  -7    5.33    1.18   0
   1   3  -8    2.92    1.19   0
   2   1 -11  342.22    3.94   0
   2   3  -9  297.54    4.83   0
   3   1 -11    8.76    0.76   0
  -1   1  -8  115.73    3.02   0
   2   4  -6   27.71    1.72   0
   4   2 -10    3.80    0.68   0
   0  -1 -11   13.35    1.08   0
   2   2 -10  132.52    3.00   0
   2   4  -5   84.10    2.39   0
   3   3  -9    3.35    1.08   0
   3   4  -7  387.09    5.59   0
   4   3  -9    7.50    0.99   0
   5   4  -6   22.62    1.53   0
   5   4  -4    4.33    1.17   0
  -1  -1 -10  141.59    2.86   0
   1   0 -11  229.12    3.31   0
   3   2 -10   13.39    1.17   0
   4   4  -3   70.53    2.00   0
   5   2  -9  117.01    2.33   0
   5   4  -5   35.93    1.85   0
   1   3  -7  207.26    4.05   0
   1   2  -9    0.32    0.96   0
   2   3  -8   16.51    1.55   0
   3   0 -11    9.89    0.75   0
   3   4  -6   49.99    2.06   0
  -1   1  -7    0.22    0.91   0
   0  -2 -11   40.56    1.45   0
   0   0 -10   15.04    1.38   0
   0   1  -9    8.55    1.38   0
   1   1 -10   36.16    1.75   0
   2   0 -11   96.60    2.13   0
   3   4  -5  408.40    5.08   0
   4   4  -4  692.66    6.15   0
   1   3  -6  790.76    7.24   0
   4   1 -10   87.23    1.98   0
   4   3  -8   79.20    2.58   0
   1  -1 -11   76.87    2.00   0
   1   3  -5  499.04    5.26   0
   3  -1 -11   13.92    0.79   0
   3   3  -8  125.89    3.26   0
   5   3  -7   76.71    2.43   0
  -1  -2 -10    1.07    0.99   0
  -1   1  -6   13.14    1.18   0
   2   1 -10    7.48    1.18   0
   2   3  -7  205.34    4.09   0
   4   2  -9   59.55    2.02   0
   5   1  -9    7.28    0.82   0
   1   2  -8   76.31    2.59   0
   2  -1 -11   71.58    1.81   0
   3   1 -10   16.88    1.21   0
   3   2  -9  275.16    4.59   0
   6   2  -6  230.99    3.61   0
  -1   0  -8   21.03    1.59   0
   4   0 -10  101.78    2.09   0
   5   3  -6    8.94    1.34   0
   6   1  -7  278.71    3.50   0
   1  -2 -11   21.19    1.14   0
   2   3  -6  346.24    4.92   0
   3   3  -7  554.32    6.58   0
   5   0  -9  113.13    2.11   0
  -1  -1  -9  166.49    3.34   0
   0  -1 -10   90.07    2.49   0
   1  -3 -11    0.02    0.63   0
   1   0 -10   91.23    2.58   0
   1   1  -9  117.93    3.12   0
   2  -2 -11    0.97    0.55   0
   5   3  -5  189.07    3.62   0
  -1  -3 -10   17.01    1.28   0
   2   3  -5   14.03    1.09   0
   4  -1 -10   43.77    1.35   0
   0   0  -9    4.58    1.11   0
   1   2  -7   78.42    2.51   0
   2   2  -8   36.73    1.94   0
   3   0 -10   44.10    1.70   0
   3   3  -6  318.03    4.77   0
   4   1  -9    0.82    0.91   0
   4   2  -8    3.10    1.16   0
   2   0 -10  284.27    4.35   0
   3   2  -8  351.76    5.40   0
   5   1  -8   59.03    2.00   0
   6   1  -6   68.11    2.20   0
  -1   0  -7   10.62    1.16   0
   3   3  -5  250.86    3.90   0
   4   3  -5  690.89    6.51   0
   1   2  -6    4.78    0.90   0
   3   1  -9   51.60    2.11   0
   4   3  -4   13.88    1.22   0
   0  -2 -10  100.08    2.49   0
   1   1  -8    1.99    1.11   0
   2   2  -7  379.58    5.37   0
   3  -1 -10   16.37    1.13   0
  -1  -1  -8  382.73    5.02   0
   4   0  -9  142.01    2.93   0
   4   2  -7    3.34    1.24   0
  -1   0  -6  269.32    3.76   0
   0   0  -8    9.07    1.37   0
   1   0  -9   37.06    1.86   0
   1   2  -5  501.85    4.99   0
   2  -1 -10  321.49    4.47   0
   3   2  -7   92.02    2.86   0
   5   0  -8   72.62    2.08   0
   0  -1  -9  161.87    3.51   0
   3  -2 -10   30.57    1.26   0
   4   1  -8    7.11    1.25   0
   0  -3 -10   13.88    1.25   0
   2   1  -8    9.19    1.27   0
   3  -3 -10  172.73    2.47   0
   5   1  -7  182.79    3.54   0
   5   2  -5   66.27    2.34   0
   2  -2 -10   43.75    1.73   0
   2   0  -9   74.35    2.55   0
   2   2  -6  222.16    3.80   0
   3   0  -9   49.12    2.01   0
   4  -1  -9   45.11    1.70   0
   5  -1  -8  261.36    3.46   0
   0  -5 -10  148.04    2.36   0
   0  -4 -10  123.83    2.52   0
   5  -2  -8  135.56    2.27   0
   5   2  -4    3.06    1.12   0
  -1  -3  -9   44.80    1.87   0
   1  -5 -10  149.76    2.24   0
   2  -4 -10   96.60    1.92   0
   3   2  -6  230.70    3.98   0
   4  -3  -9   45.47    1.32   0
   4  -2  -9  120.80    2.40   0
  -1  -1  -7  236.99    3.80   0
   1  -1  -9  216.44    4.13   0
   2  -3 -10   45.70    1.54   0
   2   2  -5  195.77    3.22   0
   1   0  -8    0.09    0.84   0
   3  -1  -9    0.07    0.89   0
   4   0  -8   15.09    1.31   0
   4   1  -7  317.66    4.87   0
   4   2  -5  850.08    7.15   0
   5   1  -6  282.00    4.45   0
  -1  -2  -8   44.48    1.94   0
   0  -2  -9   44.36    1.93   0
   2  -1  -9  177.90    3.78   0
   2   1  -7  215.07    3.98   0
   3   2  -5  487.56    5.21   0
  -1  -4  -9   78.43    2.25   0
   0  -1  -8   16.02    1.38   0
   3   1  -7  241.32    4.31   0
   2   0  -8  139.47    3.39   0
   3   0  -8  172.80    3.74   0
   4   2  -4  543.92    5.25   0
   3  -2  -9   41.08    1.68   0
   4  -1  -8  170.36    3.41   0
   5  -1  -7   53.93    1.86   0
  -1  -5  -9  229.38    3.45   0
   3  -4  -9    2.04    0.67   0
   5  -3  -7   81.35    1.81   0
   0  -3  -9   54.92    2.06   0
   2  -2  -9    1.76    0.91   0
   2   1  -6    1.24    0.79   0
   3  -3  -9  265.35    3.71   0
   4  -4  -8   19.88    0.98   0
   5  -2  -7  187.76    3.02   0
   5   0  -6    1.91    1.09   0
   3   1  -6  622.78    6.41   0
   4  -2  -8   13.74    1.24   0
   4   0  -7  275.35    4.50   0
   5   1  -4   38.22    1.80   0
  -1  -2  -7  157.35    3.10   0
   0  -6  -9   34.91    1.36   0
   0  -4  -9  427.09    5.18   0
   0  -2  -8    3.19    1.16   0
   1  -6  -9    9.06    0.82   0
   1  -3  -9  229.64    4.01   0
   2  -5  -9   39.25    1.34   0
   2  -3  -9  260.92    4.04   0
   0  -5  -9  335.96    4.27   0
   0  -1  -7   67.95    2.17   0
   2  -4  -9  175.43    3.07   0
   2   0  -7    8.66    1.09   0
   3   0  -7  325.37    4.96   0
   4   1  -5  102.07    2.61   0
   5  -4  -6  137.99    2.18   0
   5  -1  -6    9.95    1.23   0
   1  -4  -9  282.56    4.18   0
   2   1  -5 1624.48    8.92   0
   5   0  -5   87.17    2.57   0
   3  -2  -8  134.98    3.17   0
   3   1  -5  438.35    4.91   0
   4  -1  -7  249.33    4.23   0
   1   0  -6  271.71    3.88   0
   3  -5  -8   25.23    1.19   0
  -1  -4  -8  674.62    6.34   0
   1  -2  -8  308.82    4.80   0
   2  -2  -8  301.03    4.83   0
   4   1  -4  512.79    5.20   0
  -1  -7  -8   17.16    1.21   0
   0  -3  -8  558.16    6.17   0
   1  -1  -7  448.07    5.42   0
   3  -4  -8   31.46    1.51   0
   3  -3  -8   78.22    2.32   0
   4  -2  -7    3.51    0.95   0
   5   0  -4  228.33    3.78   0
   2   0  -6 1172.35    8.36   0
   3  -1  -7  221.48    4.05   0
   3   0  -6  360.73    4.89   0
   5  -1  -5    1.09    1.04   0
   2  -6  -8   28.77    1.20   0
   2  -1  -7  249.25    4.26   0
   4  -3  -7    0.32    0.74   0
  -1  -6  -8   26.74    1.50   0
  -1  -3  -7  464.97    5.11   0
  -1  -2  -6   37.42    1.49   0
   0  -7  -8   30.73    1.30   0
   1  -3  -8  497.40    6.05   0
   4   0  -5    1.44    1.02   0
   5  -4  -5   38.93    1.42   0
   0  -4  -8  270.39    4.36   0
   2  -5  -8    1.50    0.84   0
   3  -6  -7   90.77    1.86   0
   5  -2  -5  113.69    2.75   0
   5   0  -3   44.42    1.81   0
   2  -4  -8   56.65    2.02   0
   3  -2  -7  188.92    3.77   0
   5  -3  -5  290.37    3.96   0
   0  -6  -8  121.48    2.67   0
   0  -5  -8  136.57    3.08   0
   1  -6  -8  137.21    2.64   0
   1  -4  -8    0.31    0.78   0
   1  -5  -8   13.72    1.17   0
   1  -2  -7  535.38    5.99   0
   2  -7  -7    0.96    0.53   0
   2   0  -5   90.83    2.20   0
   3   0  -5    1.26    0.73   0
   4  -2  -6  127.50    3.12   0
   5  -1  -4   21.90    1.43   0
   1  -1  -6  245.03    3.68   0
   2  -2  -7   75.58    2.42   0
   3  -5  -7   37.86    1.54   0
   3  -3  -7  131.19    3.10   0
   1  -2  -6  545.88    5.49   0
   4  -2  -6  125.33    2.88   0
   5  -4  -5   37.41    1.39   0
   2  -8  -5    3.87    0.64   0
   2  -7  -6    7.96    0.82   0
   3  -6  -6  236.70    3.38   0
   4  -6  -5   47.54    1.37   0
   5  -3  -5  282.90    3.79   0
   1  -9  -4    0.70    0.57   0
   1  -7  -6  263.92    3.86   0
   2  -2  -6   10.36    1.09   0
  -2  -5  -4   28.99    1.45   0
   3  -7  -5   73.46    1.72   0
   5  -5  -4   23.99    1.06   0
  -2  -7  -4  317.88    4.24   0
  -1  -4  -5    6.83    0.86   0
   0  -9  -4   75.58    1.82   0
   0  -8  -5  276.41    3.87   0
   0  -5  -6   66.44    2.32   0
   1  -3  -6  671.44    6.41   0
   3  -5  -6  200.63    3.53   0
  -1  -7  -5   49.07    1.99   0
   2  -6  -6   43.91    1.76   0
   2  -1  -5  110.44    2.36   0
   3  -4  -6   73.23    2.37   0
   3  -3  -6   64.65    2.18   0
   1  -6  -6  246.27    4.10   0
   2  -3  -6    5.29    0.94   0
   3  -1  -5    4.88    0.99   0
   4  -5  -5  132.03    2.67   0
  -1  -6  -5    3.32    1.08   0
  -1  -5  -5   14.03    1.15   0
   1  -5  -6    9.04    1.15   0
   2  -5  -6    6.32    1.01   0
   2  -4  -6   43.09    1.95   0
   0  -3  -5   67.69    1.84   0
   1  -2  -5  604.84    5.27   0
   5  -4  -4  123.48    2.50   0
  -1  -9  -3    9.58    1.09   0
  -1  -8  -4  193.54    3.41   0
   2  -8  -4  314.29    3.63   0
   2  -7  -5    8.41    0.94   0
   4  -6  -4  130.32    2.41   0
   4  -4  -5   80.82    2.42   0
   1  -9  -3   11.45    0.88   0
   5  -3  -4  203.87    3.43   0
   5  -2  -4   54.07    2.00   0
   1  -7  -5  180.73    3.42   0
   3  -7  -4  536.61    4.89   0
   0  -9  -3    4.60    0.89   0
   0  -4  -5    4.95    0.82   0
   2  -2  -5  277.02    3.85   0
   5  -5  -3   30.76    1.23   0
   1  -3  -5  340.60    4.29   0
   2  -6  -5    8.60    1.16   0
   3  -5  -5   31.93    1.63   0
   4  -1  -4   42.45    1.70   0
  -1  -7  -4    8.40    1.25   0
   1  -6  -5  248.99    4.20   0
   3  -4  -5   80.27    2.49   0
   3  -3  -5    2.73    0.82   0
   2  -3  -5    1.67    0.91   0
   3  -8  -2   23.97    1.03   0
   4  -7  -2    8.95    0.75   0
  -1  -9  -2    2.15    1.06   0
  -1  -5  -4  659.57    5.72   0
   2  -5  -5  210.32    3.86   0
   1  -9  -2   20.06    1.10   0
   2  -8  -3   44.61    1.54   0
   2  -7  -4    1.63    0.80   0
   2  -4  -5   97.93    2.63   0
   3  -6  -4   47.71    1.91   0
   4  -6  -3   24.98    1.30   0
   4  -2  -4  463.80    5.23   0
   5  -4  -3   42.86    1.63   0
  -1  -8  -3  406.09    4.85   0
   0  -7  -4  376.51    5.03   0
   4  -4  -4  240.17    4.01   0
   0  -9  -2   87.61    2.15   0
   1  -7  -4  179.09    3.50   0
   3  -7  -3    7.18    0.82   0
   5  -5  -2   10.44    1.00   0
   5  -2  -3   99.36    2.56   0
   6  -3  -1    7.29    1.02   0
   0  -8  -3  685.44    6.38   0
   3  -8  -1  214.33    2.79   0
   4  -7  -1    0.99    0.57   0
   0  -4  -4   28.02    1.27   0
   2  -6  -4   51.71    2.04   0
   5  -6   0   59.86    1.45   0
  -1  -9  -1  140.95    2.67   0
  -1  -7  -3  107.39    2.68   0
   1  -9  -1   21.95    1.17   0
   1  -6  -4   24.99    1.61   0
   2  -8  -2   68.32    1.98   0
   3  -4  -4   14.52    1.34   0
   3  -3  -4  389.14    4.84   0
   4  -5  -3   61.14    2.07   0
   4  -1  -3  677.45    5.58   0
   5  -4  -2  437.34    4.95   0
   1  -5  -4  141.80    3.07   0
   2  -5  -4  512.22    5.89   0
   2  -3  -4  454.14    4.86   0
   3  -6  -3   46.29    1.88   0
  -1  -8  -2  133.95    2.85   0
  -1  -6  -3    1.52    0.81   0
   2  -4  -4  236.03    3.80   0
   3  -8   0  247.81    3.01   0
   3  -7  -2  161.32    2.98   0
   4  -7   0    2.79    0.63   0
   4  -4  -3  404.09    5.25   0
   5  -5  -1   92.81    2.15   0
   0  -7  -3  132.33    3.01   0
   1  -7  -3  851.03    7.58   0
   4  -2  -3   63.27    2.05   0
   5  -3  -2   82.38    2.37   0
   6  -3   0  107.36    2.33   0
   0  -8  -2   28.32    1.62   0
   5  -2  -2    1.39    1.00   0
   1  -9   0  107.72    2.18   0
  -1  -9   0   93.33    2.21   0
   2  -8  -1  133.48    2.69   0
   2  -6  -3  320.26    4.77   0
   3  -8   1   17.20    0.93   0
   3  -5  -3  108.20    2.86   0
   4  -7   1   16.26    0.93   0
   4  -5  -2   63.54    2.21   0
   0  -9   0  186.94    3.04   0
  -1  -7  -2  948.30    7.31   0
   1  -6  -3  181.26    3.49   0
   2  -7  -2   28.72    1.59   0
   3  -7  -1   48.42    1.76   0
   3  -6  -2   70.07    2.34   0
   3  -4  -3  110.26    2.83   0
   5  -5   0  175.40    2.96   0
  -1  -8  -1  214.02    3.57   0
   1  -9   1   77.93    1.85   0
   3  -8   2   11.01    0.73   0
   3  -3  -3  697.22    6.19   0
   4  -7   2   17.25    0.90   0
   6  -3   1   51.67    1.74   0
   2  -5  -3  263.69    4.19   0
   4  -4  -2   36.22    1.80   0
   4  -1  -2   60.12    1.77   0
   0  -7  -2  297.08    4.38   0
   1  -7  -2   16.56    1.31   0
   2  -8   0  122.26    2.59   0
   5  -3  -1  619.37    6.10   0
  -1  -6  -2  519.60    5.07   0
   0  -9   1  190.25    3.02   0
   0  -8  -1   74.59    2.27   0
   1  -9   2   76.21    1.75   0
   1  -4  -3  260.66    3.53   0
   2  -4  -3  519.06    5.36   0
   2  -3  -3  225.59    3.23   0
   4  -6   0   20.22    1.32   0
   5  -1  -1    3.42    0.98   0
   3  -7   0   59.55    1.98   0
   4  -5  -1   44.93    1.96   0
   5  -5   1   62.17    1.84   0
   5  -2  -1   35.61    1.60   0
   6  -3   2   96.95    2.28   0
   2  -6  -2   79.85    2.50   0
   3  -5  -2   14.17    1.30   0
   5  -4   0  298.80    4.24   0
   2  -8   1  134.12    2.71   0
   3  -6  -1    7.37    1.16   0
   0  -9   2    0.74    0.69   0
   1  -6  -2  276.15    4.27   0
   5  -5   2   94.93    2.20   0
  -1  -8   0   30.29    1.52   0
  -1  -7  -1  137.67    2.82   0
   3  -4  -2  141.67    3.06   0
   4  -6   1  204.05    3.41   0
   6  -3   3  126.64    2.38   0
   0  -9   3   15.28    1.06   0
   0  -8   0  202.18    3.62   0
   2  -5  -2   47.07    1.92   0
   3  -7   1   97.89    2.41   0
   4  -4  -1   49.60    1.99   0
   6  -2   2  169.87    3.04   0
   0  -7  -1   16.13    1.39   0
   2  -8   2   43.15    1.56   0
   3  -3  -2  875.93    6.77   0
   4  -5   0  184.80    3.60   0
   5  -5   3   58.56    1.69   0
   5  -3   0   15.13    1.25   0
   2  -7   0    1.21    1.01   0
   5  -5   4  190.66    2.62   0
   5  -4   1  268.36    4.03   0
   1  -5  -2  108.15    2.47   0
   2  -8   3    6.03    0.83   0
   2  -6  -1   50.63    2.05   0
   2  -4  -2  626.88    5.77   0
   3  -6   0  119.42    3.00   0
   3  -5  -1    4.94    0.97   0
   4  -6   2   78.55    2.12   0
   5  -2   0   66.00    2.12   0
  -1  -6  -1  298.00    3.79   0
   2  -8   4    4.62    0.69   0
   3  -7   2    1.79    0.70   0
   5  -1   0    3.89    0.87   0
  -1  -8   1  148.87    2.99   0
   1  -4  -2  706.09    5.49   0
   2  -3  -2  647.20    5.19   0
   4  -2  -1   82.75    2.15   0
   6  -2   3  192.35    3.17   0
   3  -7   3   39.34    1.56   0
   4  -6   3   50.81    1.67   0
   5  -4   2   58.23    2.06   0
  -1  -7   0   85.24    2.32   0
   0  -6  -1   18.57    1.32   0
   1  -7   0  107.92    2.83   0
   3  -7   5   22.15    1.02   0
   4  -6   4  102.76    2.17   0
   4  -6   5  156.98    2.33   0
   4  -5   1  132.66    3.06   0
   5  -3   1   38.79    1.82   0
   2  -7   1   32.89    1.70   0
   3  -7   4   57.66    1.66   0
   3  -4  -1 1433.47    9.41   0
   0  -7   0    1.52    0.87   0
   2  -5  -1   53.13    1.97   0
   3  -6   1   81.18    2.48   0
   0  -8   2  169.92    3.30   0
   2  -6   0   91.53    2.64   0
   3  -5   0  333.23    4.86   0
   5  -4   3  486.85    5.27   0
  -1  -8   2   56.59    1.91   0
   3  -3  -1  200.60    3.25   0
   5  -2   1    5.94    0.98   0
   1  -8   5   22.54    1.13   0
   1  -5  -1  123.31    2.61   0
   2  -7   2   33.81    1.70   0
   4  -5   2   50.66    1.99   0
   5  -4   4  332.82    4.20   0
   2  -4  -1  233.84    3.53   0
   3  -6   2   34.60    1.81   0
   4  -4   1    1.26    1.01   0
   5  -4   5  130.27    2.49   0
   5  -3   2   14.63    1.26   0
   5  -1   1    1.18    0.95   0
   1  -6   0   16.96    1.39   0
   4  -2   0  196.03    3.25   0
  -1  -7   1    4.51    1.06   0
  -1  -6   0    0.08    0.71   0
   0  -8   6  239.88    3.00   0
   0  -7   1   21.24    1.53   0
   2  -7   3   64.34    2.23   0
   4  -5   3   90.86    2.60   0
   2  -6   1   50.59    2.09   0
   2  -5   0  252.59    4.09   0
   3  -5   1  572.84    6.41   0
   3  -4   0   44.77    1.83   0
   0  -8   5   10.29    1.08   0
   2  -7   4  118.09    2.79   0
   2  -7   6  182.13    2.78   0
   3  -6   3    1.03    0.84   0
   5  -3   3   11.71    1.30   0
   5  -2   2   33.34    1.72   0
  -1  -8   4   13.96    1.30   0
  -1  -8   5    1.33    1.02   0
   1  -7   2   77.53    2.47   0
   2  -7   5  186.08    3.16   0
   4  -5   4    0.55    0.78   0
   4  -5   6   57.65    1.66   0
   4  -5   5   35.98    1.53   0
   4  -4   2  283.41    4.51   0
   5  -3   7  100.59    2.00   0
   3  -6   5  305.98    4.19   0
   3  -3   0  787.68    6.38   0
   5  -3   4   74.43    2.37   0
   0  -7   2  144.79    3.23   0
   1  -7   3    5.54    1.21   0
   1  -6   1  234.96    3.98   0
   1  -5   0    4.28    0.80   0
   2  -6   2  458.98    5.84   0
   3  -5   2  193.62    3.90   0
   5  -1   2  626.17    5.79   0
  -1  -7   2    5.37    0.97   0
   2  -4   0   17.01    1.13   0
   5  -3   5   23.37    1.48   0
   5  -3   6   97.50    2.33   0
   2  -5   1  849.95    7.49   0
   3  -4   1  455.21    5.44   0
   4  -4   3  113.42    3.05   0
   4  -2   1  596.01    5.63   0
   5  -2   3  106.17    2.72   0
  -1  -6   1    5.75    1.01   0
   0  -6   1  143.63    2.98   0
   1  -7   4   63.35    2.31   0
   2  -6   8    4.52    0.67   0
   1  -7   5   93.32    2.60   0
   2  -6   3  211.01    4.04   0
   3  -5   3  191.88    3.89   0
   3  -5   8   61.76    1.58   0
   4  -4   4    1.00    1.11   0
  -1  -7   3   72.92    2.29   0
   1  -6   2  139.20    3.18   0
   4  -4   7  159.25    2.81   0
   5  -1   3  412.64    4.97   0
   2  -6   4  122.54    3.15   0
   2  -6   7  109.75    2.48   0
   4  -4   5   13.69    1.29   0
   4  -4   6   31.62    1.64   0
   0  -7   4    4.55    1.13   0
   0  -7   7  126.00    2.55   0
   1  -5   1  277.34    3.99   0
   2  -6   5  174.12    3.67   0
   2  -5   2  542.33    6.19   0
   3  -5   4  116.83    3.10   0
   3  -5   7  105.95    2.49   0
   3  -4   2  426.28    5.43   0
   5  -2   5  453.96    5.50   0
   5  -2   7  144.17    2.77   0
   0  -7   5    5.74    1.21   0
   2  -6   6  156.34    3.24   0
   3  -5   5  452.86    5.83   0
   5  -2   6  162.93    3.27   0
  -1  -7   4  227.90    3.88   0
  -1  -7   7   79.91    2.10   0
   0  -7   6   72.61    2.22   0
   0  -6   2   16.24    1.27   0
   3  -5   6  341.38    4.79   0
  -1  -6   2  532.63    5.28   0
   2  -5   9    9.19    0.82   0
   3  -4   9  106.34    2.03   0
   5  -1   4  350.60    4.81   0
  -1  -7   5  568.87    5.95   0
  -1  -7   6  499.67    5.36   0
   0  -6   9   23.66    1.11   0
   0  -5   1  644.34    5.52   0
   1  -6   8   18.90    1.19   0
   5  -1   8   93.80    2.16   0
   2  -5   3  127.42    3.19   0
   3  -4   3   96.71    2.78   0
   1  -6   4   39.18    1.98   0
  -1  -6   9    6.80    0.87   0
   0  -6   3  202.22    3.80   0
   3  -3   2  111.85    2.65   0
   5  -1   5  197.77    3.74   0
   5  -1   7    4.54    1.13   0
   1  -6   6  338.94    5.12   0
   2  -5   8   47.67    1.82   0
   2  -4  10    3.27    0.61   0
   3  -4   4  855.00    8.26   0
   3  -4   8   77.36    2.23   0
   4  -2   3  247.18    4.03   0
   2  -4   2  173.13    3.29   0
  -2   4   6   41.21    1.73   0
  -1   4   7   24.46    1.60   0
  -1   5   7   53.59    2.14   0
   1   5   8  202.18    3.93   0
   1   6   8   24.85    1.63   0
   2   7   8   38.56    1.73   0
   3   3   6  218.80    3.62   0
  -2   2   5  278.71    3.75   0
   0   3   7   28.64    1.61   0
   2   6   8   41.48    1.86   0
   4   6   7   48.26    1.91   0
   5   9   6   14.66    0.98   0
   1   2   6   35.58    1.53   0
   2   9   7    2.78    0.70   0
  -1   7   6  260.53    3.62   0
   4   7   7  143.51    3.01   0
   5   7   6   32.89    1.53   0
   5   8   6  196.17    3.10   0
  -1   8   5  194.15    2.78   0
   0   4   7  114.71    3.02   0
   2   4   7    2.27    1.12   0
   3   5   7  666.95    6.75   0
   1   8   7   17.52    1.16   0
   3  10   6   95.64    1.86   0
  -2   3   5    1.38    0.96   0
   0   5   7   98.67    2.87   0
   0   6   7  188.36    3.73   0
   1   4   7   13.82    1.24   0
   4   5   6    1.72    0.89   0
   0   8   6   22.34    1.32   0
   2   3   6  726.06    6.43   0
   2   8   7    5.55    1.00   0
   3   6   7   43.31    2.03   0
   3   8   7  175.90    3.26   0
   4   4   5   55.50    1.95   0
  -2   5   5  207.51    3.46   0
  -1   2   5  617.73    5.50   0
  -1   6   6  251.75    4.02   0
   0   9   5   22.41    1.11   0
   1   7   7  305.16    4.66   0
   1   9   6  141.13    2.50   0
   2   5   7    5.32    1.02   0
   3   3   5   88.27    2.22   0
   3   4   6   37.90    1.69   0
   3   7   7   27.21    1.61   0
   5   6   5   83.93    2.38   0
  -1   4   6   45.13    1.92   0
  -1   5   6   10.64    1.35   0
   0   3   6  343.47    4.62   0
   1   5   7    1.11    0.85   0
   1   6   7  109.17    3.04   0
   1   3   6  101.76    2.56   0
   2   6   7  278.69    4.62   0
   2   7   7    4.95    0.99   0
   4   6   6  328.74    4.57   0
   5   9   5   11.61    1.07   0
   2   9   6    8.02    0.94   0
   3   9   6    7.67    1.01   0
   4   7   6   42.58    1.92   0
   5   7   5  196.93    3.42   0
  -1   7   5  182.68    3.31   0
   0   4   6   11.91    1.29   0
   2   4   6   58.17    2.04   0
   2  10   5   63.44    1.65   0
   4  10   5  249.00    3.21   0
  -1   3   5  334.60    4.25   0
  -1   8   4  279.53    3.56   0
   1   8   6    3.26    0.94   0
   5  10   4    1.37    0.71   0
  -2   3   4  430.16    4.43   0
   0   5   6   64.06    2.35   0
   0   6   6  206.04    3.98   0
   1   4   6    4.90    0.95   0
   2   3   5 2790.92   11.52   0
   2   8   6   80.59    2.52   0
   3   6   6  260.28    4.40   0
   3   8   6   32.43    1.72   0
   4   4   4   40.60    1.64   0
  -2   4   4  231.47    3.50   0
  -2   5   4  506.32    5.24   0
  -1   6   5  245.64    4.10   0
   0   8   5  277.76    4.06   0
   0   9   4   75.62    1.96   0
   1   7   6   11.42    1.41   0
   1   9   5   55.02    1.80   0
   2   5   6   16.27    1.36   0
   3   4   5   14.89    1.11   0
   3   7   6  308.31    4.81   0
   5   6   4  135.33    2.88   0
  -1   4   5   36.61    1.67   0
   1   5   6    1.33    0.90   0
   1   6   6  160.90    3.62   0
   4   9   5  128.39    2.85   0
   1   3   5   87.12    2.18   0
   2   6   6  410.03    5.58   0
   4   6   5  381.38    4.86   0
   5   9   4   96.14    2.35   0
   2   9   5   16.07    1.23   0
   2  10   4   13.51    1.07   0
   3  11   3   23.84    0.98   0
   4   7   5  135.31    3.16   0
   4  10   4  465.93    4.76   0
   5   7   4   70.42    2.24   0
  -1   7   4  181.11    3.35   0
  -1   8   3   65.03    1.97   0
   5   8   4   24.08    1.44   0
   0   4   5    5.78    0.90   0
   1   8   5   30.80    1.71   0
   3  10   4   13.63    1.04   0
   1   4   5    7.70    1.04   0
   4   5   4    1.58    0.93   0
   0   5   5   42.19    1.85   0
   0   8   4   82.14    2.50   0
   0   9   3    4.56    0.96   0
   1   9   4   46.14    1.80   0
   3   6   5  307.58    4.64   0
   3   8   5   11.30    1.27   0
  -1   6   4   23.49    1.50   0
   1   7   5   48.59    2.15   0
   3   7   5    8.80    1.21   0
   4  11   2  190.35    2.64   0
   5   6   3   15.71    1.38   0
  -2   4   3  529.46    4.98   0
  -1   4   4 1108.64    7.69   0
   2   5   5   13.23    1.19   0
   3  11   2    4.44    0.69   0
  -1   5   4  141.44    3.04   0
   1   6   5    2.11    0.98   0
   2   6   5  443.11    5.65   0
   2   7   5  172.42    3.72   0
   5   9   3   33.81    1.61   0
   2   9   4   28.12    1.60   0
   2  10   3    6.80    0.93   0
   2  11   1   40.51    1.24   0
   3   9   4    8.60    1.26   0
   4  10   3  115.89    2.56   0
  -1   7   3  843.61    7.25   0
  -1   8   2   50.38    1.85   0
   3  10   3   57.00    1.97   0
   5   7   3   73.24    2.21   0
   5   8   3   71.58    2.31   0
   5  10   2   13.00    1.04   0
   1   8   4  185.90    3.82   0
   0   9   2   84.62    2.26   0
   4  11   1   21.04    1.05   0
   0   4   4   26.98    1.33   0
   0   8   3  728.32    7.04   0
   2   4   4  331.82    3.96   0
   2   8   4  480.10    6.19   0
   3   8   4  137.52    3.35   0
   3  11   1    0.41    0.51   0
   0   5   4   65.38    2.17   0
   2  11   0   13.07    0.79   0
   4   5   3    0.72    0.85   0
   4   9   3   10.56    1.34   0
  -1   6   3  186.63    3.57   0
   1   4   4  117.08    2.45   0
   2  10   2    4.61    0.96   0
   3   6   4   33.15    1.61   0
   3   7   4  184.71    3.77   0
  -2   5   2   44.93    1.78   0
   2   5   4   27.44    1.47   0
   2   7   4  325.66    5.03   0
   2   9   3   44.63    2.04   0
   4  10   2   16.76    1.20   0
   5  10   1    5.44    0.97   0
  -1   8   1   61.79    2.04   0
   1   5   4  640.86    6.09   0
   2   6   4   74.34    2.42   0
   3   9   3   93.80    2.75   0
   3  10   2   10.47    1.17   0
   4  11   0   35.68    1.24   0
  -1   4   3  264.69    3.63   0
  -1   5   3   18.81    1.31   0
   3  11   0    9.66    0.80   0
   4   6   3   21.25    1.41   0
   5   7   2   60.12    2.14   0
   5   8   2  209.60    3.75   0
   0   9   1  295.41    4.05   0
   1   8   3  408.26    5.66   0
   4   7   3  373.13    5.00   0
   1   9   2    2.56    0.92   0
   4  11  -1   10.80    0.81   0
   0   8   2   26.61    1.68   0
   2  10   1   74.98    2.23   0
   3   8   3  660.17    7.16   0
   3  11  -1   72.75    1.68   0
   4   9   2    5.17    1.23   0
   5  10   0   82.57    2.12   0
   2   8   3   34.92    1.89   0
   4  10   1   29.40    1.49   0
   5   9   1    9.76    1.21   0
   2   9   2   67.32    2.45   0
   3  10   1  289.53    4.30   0
  -1   6   2  273.59    4.22   0
  -1   8   0  418.29    4.83   0
   0   9   0  185.00    3.29   0
   1   7   3  107.33    2.98   0
   3   6   3   64.07    2.16   0
   3   7   3  136.59    3.20   0
   3   9   2   74.31    2.53   0
   2   7   3  481.10    5.98   0
   4   5   2    0.46    0.81   0
   5   8   1  551.93    6.00   0
  -1   7   1  334.51    4.69   0
   1   6   3    2.29    1.02   0
   1   9   1  158.14    3.43   0
   5  10  -1    4.12    0.80   0
   2  10   0   23.73    1.36   0
   4  10   0   46.58    1.79   0
   5   7   1  184.01    3.43   0
  -1   5   2  111.51    2.55   0
   0   8   1   69.23    2.37   0
   3  10   0  172.93    3.36   0
   4   7   2  476.60    5.60   0
   4   9   1  100.13    2.88   0
   5   9   0  100.38    2.63   0
  -1   8  -1  432.61    4.88   0
   0   9  -1  186.57    3.27   0
   2   8   2  367.30    5.50   0
   3   8   2 1286.98    9.97   0
   5  10  -2   51.88    1.61   0
   2   9   1    1.74    0.93   0
   2  10  -1    0.64    0.70   0
   3   9   1  481.52    6.11   0
   4  10  -1   35.65    1.63   0
   1   7   2  970.16    8.47   0
   1   9   0   98.88    2.72   0
   3   7   2  287.01    4.56   0
   5   8   0  294.74    4.47   0
  -1   6   1    9.35    1.28   0
   0   9  -2    0.81    0.85   0
   3  10  -1  183.40    3.35   0
   5   9  -1  216.63    3.67   0
  -1   7   0  109.63    2.77   0
  -1   8  -2   47.10    1.81   0
   0   8   0  193.47    3.82   0
   1   8   1  204.89    4.08   0
   2   7   2  131.11    3.15   0
   2  10  -2   24.27    1.36   0
   0   9  -3   15.24    1.19   0
   4  10  -2   15.91    1.14   0
   5   7   0  553.95    5.81   0
   0   9  -4   12.13    0.98   0
   1   6   2  521.11    5.71   0
   2   9   0   89.36    2.72   0
   3   8   1   67.75    2.54   0
   3  10  -2   69.05    2.09   0
  -1   8  -3   51.74    1.81   0
   1   9  -1  142.39    3.20   0
   2   6   2   16.42    1.17   0
   2   8   1  127.53    3.29   0
   2  10  -4  161.54    2.54   0
   2  10  -3   26.38    1.25   0
   4  10  -3   21.16    1.21   0
  -1   5   1  124.82    2.69   0
  -1   8  -4    0.26    0.86   0
   4   6   1   22.11    1.31   0
   1   5   2  202.41    3.19   0
   3  10  -3   26.09    1.27   0
   5   8  -1  344.67    4.78   0
  -1   7  -1  110.39    2.86   0
   0   8  -1  201.35    3.89   0
   1   7   1  133.74    3.21   0
   3  10  -4  108.81    2.17   0
   1   9  -2   31.23    1.71   0
   2   9  -1  151.86    3.44   0
   3   7   1  740.04    7.13   0
   5   9  -5   72.58    1.72   0
  -1   6   0   16.04    1.32   0
   2   7   1  304.68    4.71   0
   3   9  -1  201.18    3.98   0
   5   9  -4   28.76    1.34   0
   2   8   0  110.45    3.14   0
   3   8   0  298.04    4.87   0
   1   9  -3   56.60    1.98   0
   4   7   0   15.16    1.45   0
   4   9  -2  120.68    2.99   0
   5   8  -2   87.18    2.55   0
  -2   5  -1  831.53    6.55   0
   0   8  -2  179.24    3.62   0
   2   9  -2  338.25    4.96   0
   1   8  -1  154.10    3.61   0
   1   9  -5   42.22    1.49   0
   1   9  -4   30.32    1.43   0
   3   9  -2  103.40    2.87   0
   2   6   1  167.71    3.16   0
   4   6   0    4.94    1.05   0
   4   9  -6   41.97    1.38   0
   4   9  -3   69.09    2.26   0
   1   7   0   80.48    2.54   0
   2   9  -3   35.67    1.82   0
   5   8  -3  342.12    4.57   0
  -1   5   0    4.77    0.90   0
  -1   6  -1  243.01    4.01   0
   0   8  -3   54.41    2.10   0
   2   9  -6   50.35    1.55   0
   3   7   0  362.33    5.06   0
   3   9  -3    3.65    0.95   0
   5   7  -2  231.40    3.90   0
   5   8  -6   19.59    1.13   0
  -1   7  -3    5.48    1.20   0
   0   8  -6  233.72    3.25   0
   2   7   0  268.69    4.45   0
   2   9  -4  116.91    2.75   0
   3   9  -6   18.21    1.06   0
   5   8  -4  219.07    3.53   0
   0   8  -4    0.85    0.87   0
   2   9  -5   48.74    1.71   0
   3   9  -4   52.69    1.96   0
   4   7  -1   10.29    1.36   0
   5   8  -5    4.36    0.98   0
   3   9  -5   19.37    1.20   0
  -2   5  -2  519.07    5.35   0
  -1   7  -4   64.25    2.23   0
  -1   7  -6   12.31    1.16   0
   1   6   0    0.29    0.87   0
   3   8  -2   53.74    2.25   0
   1   7  -1    5.74    1.05   0
   1   8  -3   32.27    1.80   0
   1   8  -7   34.36    1.38   0
   2   6   0   70.46    2.11   0
   3   7  -1   33.62    1.76   0
   4   6  -1    4.50    0.90   0
   4   8  -7   86.22    1.96   0
   2   7  -1  232.19    4.16   0
   4   7  -2    0.63    1.12   0
   5   7  -4  113.20    2.82   0
  -1   5  -1  271.67    3.88   0
   0   7  -8   11.53    0.91   0
   1   8  -6  105.37    2.57   0
   2   8  -3  544.48    6.57   0
   3   8  -3   54.76    2.26   0
   5   6  -3  116.39    2.87   0
   5   7  -6    1.34    0.96   0
   5   7  -5   14.33    1.36   0
   1   8  -5    0.58    0.83   0
   2   8  -7  229.74    3.37   0
   3   8  -7   29.10    1.29   0
   0  -3  -9   58.41    2.04   0
   1   2  -6    4.20    0.99   0
   2  -2 -10   44.22    1.66   0
   3  -1 -10   15.04    1.07   0
   3   3  -7  578.48    6.47   0
   5   1  -9    6.30    0.74   0
   4   4  -5   99.22    2.59   0
   0  -1  -8   18.67    1.49   0
   2   3  -5   14.82    1.09   0
   3   1  -9   51.83    2.02   0
   5   4  -5   37.34    1.73   0
   3   2  -8  337.19    5.03   0
   5   0  -9  114.63    2.16   0
   5   2  -8  120.37    2.71   0
   7   2  -6  154.77    2.42   0
   1   2  -5  490.66    4.77   0
   2   0  -9   76.47    2.41   0
   2   2  -7  367.51    5.02   0
   4   2  -8    1.99    1.06   0
   4   4  -4  714.48    5.91   0
   3   3  -6  308.60    4.47   0
   5  -1  -9  139.46    2.17   0
   5   4  -4    4.81    1.06   0
   6   3  -6  360.77    4.44   0
   1   0  -8    0.57    0.77   0
   2   1  -8   10.28    1.19   0
   6   0  -8  214.65    2.65   0
   6   2  -7   71.87    1.98   0
   0  -2  -8    2.93    1.08   0
   1  -4  -9  288.95    3.73   0
   3   0  -9   53.89    2.01   0
   4   0  -9  141.05    2.78   0
   1  -3  -9  236.87    3.71   0
   4  -3  -9   43.01    1.25   0
   2   2  -6  213.15    3.54   0
   3  -4  -9    1.20    0.59   0
   3   2  -7   92.15    2.61   0
   5   1  -8   59.57    1.94   0
   5   3  -6    7.74    1.06   0
   7   1  -6   64.02    1.58   0
   0  -1  -7   66.47    2.04   0
   2  -4  -9  178.25    2.75   0
   3   1  -8   74.54    2.43   0
   4  -2  -9  114.98    2.22   0
   4  -1  -9   40.95    1.50   0
   0  -4  -8  282.21    3.93   0
   4   1  -8    6.15    1.03   0
   4   2  -7    5.10    1.13   0
   7   2  -5  108.16    2.19   0
   2  -3  -9  269.27    3.77   0
   2   0  -8  141.66    3.16   0
   2   1  -7  209.30    3.71   0
   1   0  -7  224.45    3.66   0
   3   3  -4    3.13    0.70   0
   4   3  -5  712.41    6.34   0
   5   0  -8   71.14    2.00   0
   2   2  -5  200.50    3.07   0
   5   3  -5  191.01    3.42   0
   6   2  -6  229.22    3.54   0
   3   2  -6  241.99    3.84   0
   0  -2  -7  517.08    5.23   0
   1  -5  -8   13.55    1.13   0
   1  -2  -8  297.38    4.30   0
   3  -5  -8   24.72    1.02   0
   4   0  -8   14.82    1.16   0
   5  -2  -8  133.44    2.26   0
   5  -1  -8  242.30    3.32   0
   6  -2  -7   62.71    1.38   0
   6   0  -7   48.26    1.52   0
   6   3  -4  130.80    2.74   0
   2  -1  -8  124.88    2.93   0
   3   1  -7  236.66    4.00   0
   5   1  -7  180.71    3.39   0
   1  -3  -8  513.37    5.56   0
   4   2  -6  208.37    3.68   0
   6  -1  -7   27.41    1.10   0
   7   1  -5   30.04    1.30   0
   1  -4  -8    0.21    0.84   0
   1  -1  -7  436.76    4.96   0
   2  -5  -8    0.45    0.73   0
   2   1  -6    1.38    0.69   0
   4  -1  -8  162.11    3.14   0
   4   1  -7  314.70    4.68   0
   5   3  -4    3.25    1.00   0
   0  -3  -7   28.93    1.41   0
   1   0  -6  274.16    3.64   0
   2  -2  -8  300.03    4.46   0
   2   0  -7    7.37    0.95   0
   3  -1  -8   94.41    2.62   0
   6   1  -6   70.16    2.08   0
   6   2  -5  160.50    3.10   0
   4  -3  -8   57.25    1.65   0
   4  -2  -8   13.41    1.03   0
   7   0  -5   77.12    1.75   0
   3  -2  -8  137.28    3.01   0
   5   0  -7  157.72    3.05   0
   7  -1  -5    0.08    0.53   0
   3  -3  -8   77.78    2.17   0
   5   3  -3    8.84    1.02   0
   0  -2  -6  431.08    4.37   0
   3   1  -6  617.59    5.97   0
   5   2  -5   68.84    2.14   0
   7   1  -4  133.37    2.49   0
   2  -6  -7    0.98    0.70   0
   2  -1  -7  241.26    3.88   0
   5  -3  -7   78.84    1.79   0
   5  -1  -7   52.27    1.81   0
   2   1  -5 1588.37    8.21   0
   4   1  -6  225.22    3.82   0
   5  -2  -7  191.46    3.07   0
   6  -2  -6   31.84    1.22   0
   6   2  -4  388.72    4.67   0
   2   0  -6 1147.91    7.65   0
   6  -1  -6   26.88    1.23   0
   6   1  -5  159.47    3.08   0
   1  -5  -7   51.97    1.83   0
   1  -3  -7  355.90    4.55   0
   1  -1  -6  241.18    3.36   0
   3  -1  -7  232.21    3.98   0
   4  -4  -7   16.01    1.03   0
   4  -1  -7  247.96    3.98   0
   1  -4  -7   24.64    1.50   0
   7   0  -4    0.93    0.64   0
   0  -3  -6  326.99    3.82   0
   2  -2  -7   77.18    2.27   0
   4  -2  -7    3.25    0.92   0
   5   2  -4    3.12    0.96   0
   7  -1  -4  177.03    2.55   0
   7   1  -3  224.36    3.24   0
   2  -5  -7    0.97    0.68   0
   3  -2  -7  189.88    3.58   0
   3   0  -6  374.70    4.72   0
   3   1  -5  446.43    4.65   0
   4  -3  -7    0.78    0.68   0
   5  -4  -6  148.61    2.31   0
   4   0  -6    0.07    0.78   0
   6   2  -3   18.39    1.35   0
   0  -5  -6   65.75    1.97   0
   0  -4  -6   10.92    0.99   0
   2  -4  -7    0.56    0.76   0
   3  -3  -7  132.54    2.88   0
   4   1  -5  101.65    2.47   0
   5  -1  -6    8.70    1.12   0
   6  -3  -5   47.44    1.35   0
   2  -1  -6  436.92    4.76   0
   3  -6  -6  233.52    2.95   0
   4  -5  -6   92.23    1.97   0
   5  -5  -5   21.22    0.90   0
   5  -3  -6    8.10    0.82   0
   6  -1  -5   50.05    1.77   0
   6   1  -4   88.86    2.33   0
   2   0  -5   91.27    2.04   0
   5  -2  -6  123.58    2.69   0
   6  -2  -5  277.33    3.53   0
   7   0  -3  585.75    5.08   0
   4  -1  -6   32.75    1.66   0
   5   2  -3    0.43    0.82   0
   6  -4  -4   65.79    1.42   0
   7  -2  -3    5.90    0.72   0
   2  -6  -6   43.78    1.60   0
   3  -1  -6   19.55    1.26   0
   7  -1  -3   30.07    1.30   0
   1  -3  -6  665.44    5.77   0
   4  -4  -6    4.84    0.92   0
   5   0  -5   82.55    2.32   0
   2  -2  -6    8.93    0.97   0
   3   1  -4  436.61    4.19   0
   4  -2  -6  121.33    2.80   0
   5   1  -4   36.12    1.57   0
   6   0  -4   11.86    1.10   0
   1  -5  -6   11.02    1.08   0
   2  -7  -5    8.08    0.89   0
   3   0  -5    1.39    0.61   0
   4  -3  -6    2.10    0.80   0
   6   1  -3  111.57    2.61   0
   1  -7  -5  178.84    2.78   0
   2  -5  -6    6.20    1.04   0
   3  -2  -6  291.61    4.25   0
   5  -1  -5    1.50    0.93   0
   6  -3  -4  143.74    2.45   0
   7   0  -2  219.99    3.28   0
   2  -3  -6    5.12    0.92   0
   3  -4  -6   71.16    2.15   0
   3  -3  -6   66.84    2.17   0
   5   2  -2   51.50    1.61   0
   7  -2  -2    6.57    0.80   0
   2  -1  -5  107.89    2.22   0
   5  -5  -4   24.12    1.03   0
   5  -3  -5  275.81    3.90   0
   5  -2  -5  117.61    2.74   0
   6  -2  -4  145.06    2.75   0
   3  -6  -5   95.73    2.19   0
   4  -5  -5  129.72    2.52   0
   6  -4  -3   43.66    1.27   0
   3  -7  -4  538.11    4.31   0
   4  -1  -5   31.31    1.50   0
   7   0  -1   70.35    2.01   0
   3  -1  -5    4.96    0.79   0
   6   0  -3 1176.12    8.10   0
   6   1  -2  889.46    6.80   0
   4  -4  -5   83.88    2.32   0
   7  -2  -1   93.08    1.97   0
   1  -6  -5  248.29    3.58   0
   2  -6  -5    7.90    0.93   0
   3   0  -4  285.83    3.50   0
   4  -3  -5  203.71    3.67   0
   4  -2  -5  109.79    2.67   0
   4   0  -4    8.34    0.90   0
   4   1  -3  221.40    3.09   0
   5  -4  -4  122.92    2.52   0
   6  -3  -3  186.80    2.95   0
   1  -3  -5  327.87    3.82   0
   2  -8  -3   42.96    1.36   0
   2  -2  -5  272.12    3.64   0
   3  -5  -5   31.44    1.53   0
   5  -6  -2   28.09    0.99   0
   5  -1  -4   22.39    1.36   0
   5  -3  -4  203.34    3.55   0
   6  -4  -2   65.52    1.65   0
   6  -2  -3   10.39    1.00   0
   1  -5  -5  281.07    3.88   0
   1  -4  -5   37.15    1.52   0
   2  -5  -5  209.39    3.54   0
   3  -4  -5   79.01    2.37   0
   3  -3  -5    3.15    0.96   0
   5  -5  -3   30.14    1.20   0
   7  -2   0   90.86    1.96   0
   2  -3  -5    0.61    0.62   0
   4  -5  -4   85.85    2.29   0
   6   0  -2    3.14    0.97   0
   6   1  -1   52.34    1.83   0
   7  -1   0   42.35    1.61   0
   4  -1  -4   44.74    1.74   0
   5   1  -2  412.41    4.33   0
   7  -2   1   67.63    1.74   0
   3  -7  -3    6.93    0.88   0
   4  -6  -3   25.63    1.23   0
   6  -3  -2  120.97    2.53   0
   3  -1  -4    0.78    0.56   0
   5  -6  -1  138.06    2.09   0
   6  -1  -2    3.13    0.99   0
   0  -6  -4  186.61    3.04   0
   4  -4  -4  238.86    3.92   0
   4  -2  -4  455.52    5.22   0
   5  -4  -3   43.10    1.64   0
   6  -4  -1   65.96    1.68   0
   2  -6  -4   50.69    1.91   0
   4  -3  -4  124.20    2.90   0
   5  -5  -2    9.26    0.92   0
   5  -1  -3  313.87    4.34   0
   3  -5  -4   99.82    2.57   0
   4  -7  -1    1.19    0.52   0
   5  -3  -3  222.90    3.77   0
   5  -2  -3  102.30    2.69   0
   1  -6  -4   24.07    1.32   0
   2  -8  -2   70.50    1.75   0
   2  -2  -4  498.65    4.58   0
   3  -2  -4  230.63    3.44   0
   2  -7  -3  276.52    3.81   0
   3  -4  -4   13.72    1.29   0
   4  -5  -3   62.18    2.02   0
   5  -6   0   58.43    1.41   0
   5   0  -2 1292.94    8.06   0
   5   1  -1  226.12    3.15   0
   6  -4   0   85.53    1.97   0
   6  -3  -1    7.21    1.02   0
   3  -3  -4  379.17    4.65   0
   4  -6  -2   11.42    1.03   0
   6  -1  -1   18.87    1.37   0
   1  -4  -4 1099.43    7.04   0
   2  -3  -4  456.50    4.66   0
   3  -6  -3   44.98    1.75   0
   4  -1  -3  682.84    5.81   0
   5  -4  -2  445.58    5.12   0
   2  -4  -4  225.65    3.51   0
   3  -8   0  253.90    2.77   0
   4  -7   0    2.45    0.57   0
   5  -5  -1   92.30    2.22   0
   1  -8  -2   48.12    1.65   0
   4  -4  -3  396.20    5.10   0
   5  -6   1   19.32    0.89   0
   6   0   0   21.02    1.37   0
   3  -1  -3   74.25    1.79   0
   4  -2  -3   61.63    1.98   0
   4   0  -2 3900.71   12.44   0
   5  -3  -2   83.20    2.39   0
   6  -4   2   78.91    1.80   0
   2  -8  -1  131.65    2.39   0
   2  -6  -3  326.41    4.47   0
   3  -5  -3  108.15    2.74   0
   4  -5  -2   62.95    2.14   0
   5   1   0  372.62    3.95   0
   6  -4   3    3.94    0.66   0
   6  -2   0  105.48    2.64   0
   6  -1   0   32.37    1.64   0
   0  -6  -3   13.05    1.15   0
   4  -7   1   15.03    0.84   0
   4  -6  -1   22.71    1.25   0
   5  -4  -1   10.08    1.17   0
   5   0  -1  474.39    4.80   0
   1  -6  -3  186.20    3.27   0
   2  -7  -2   29.33    1.48   0
   3  -7  -1   47.03    1.64   0
   3  -4  -3  106.85    2.72   0
   3  -2  -3   82.83    2.02   0
   5  -5   0  180.83    3.04   0
   6   0   1   33.41    1.63   0
   3  -6  -2   70.49    2.21   0
   3  -3  -3  690.98    6.13   0
   4  -7   2   17.37    0.89   0
   1  -9   1   76.88    1.69   0
   4  -4  -2   34.90    1.70   0
   5  -3  -1  599.51    6.25   0
   5  -1  -1    2.71    0.99   0
   1  -8  -1   62.72    1.92   0
   5  -2  -1   34.55    1.72   0
   6  -3   2  102.32    2.40   0
   6  -2   1  186.40    3.40   0
   6  -1   1  561.53    5.80   0
   1  -7  -2   17.56    1.36   0
   1  -5  -3   19.28    1.18   0
   2  -8   0  125.95    2.45   0
   2  -4  -3  550.43    5.32   0
   2  -3  -3  232.61    3.19   0
   4  -2  -2  124.29    2.71   0
   5  -5   1   66.44    1.93   0
   0  -7  -2  293.03    3.85   0
   1  -4  -3  268.65    3.37   0
   4  -5  -1   45.51    1.85   0
   5  -4   0  297.48    4.34   0
   6  -3   3  123.77    2.49   0
   6  -3   4    0.50    0.75   0
   0  -8  -1   72.07    2.01   0
   3  -7   0   61.47    1.89   0
   3  -5  -2   14.06    1.24   0
   6  -2   2  168.64    3.28   0
   1  -9   2   68.40    1.55   0
   5  -5   2   94.43    2.19   0
   6  -1   2  243.90    3.92   0
   2  -7  -1    8.92    1.10   0
   3  -6  -1    7.17    1.03   0
   5  -3   0   14.82    1.39   0
   2  -8   1  132.42    2.55   0
   3  -4  -2  141.93    3.06   0
   4  -6   1  197.68    3.33   0
   5  -5   3   58.57    1.67   0
   5  -1   0    3.58    0.98   0
   6  -2   3  194.88    3.37   0
   1  -6  -2  270.94    3.98   0
   3  -3  -2  881.21    6.90   0
   3  -2  -2  189.86    2.91   0
   5  -4   1  275.55    4.22   0
   3  -7   1  100.83    2.39   0
   4  -5   0  188.53    3.60   0
  -1  -5   3 1498.28    8.47   0
   5  -2   6  162.10    3.16   0
  -2  -5   5   26.93    1.53   0
  -2  -5   6    2.63    1.15   0
  -1  -5   8   45.53    1.89   0
   0  -5   3  302.56    4.13   0
   0  -4  10   60.99    1.71   0
   1  -5   8    0.57    0.79   0
   3  -4   4  818.80    7.64   0
   3  -3   2  110.69    2.53   0
   4  -3   4  237.16    4.05   0
   2  -4   9  122.38    2.60   0
   3  -4   5  359.91    5.29   0
   3  -4   7  109.40    2.83   0
   4  -3   7  173.32    3.36   0
   0  -5   8  643.03    6.46   0
   1  -5   4  219.95    3.95   0
   1  -5   7   29.59    1.81   0
   3  -4   6  284.49    4.66   0
  -1  -5   4  360.62    4.48   0
   1  -5   5  428.70    5.74   0
   1  -4   2  109.66    2.32   0
   2  -4   3  388.03    4.92   0
   0  -5   4   18.32    1.25   0
   1  -5   6  193.70    3.97   0
  -1  -5   6  813.47    7.32   0
   3  -3   9  159.11    2.90   0
   4  -2   9   -0.09    0.53   0
   5  -1   4  339.30    4.54   0
  -1  -4   9  250.25    3.76   0
   0  -5   5   28.92    1.59   0
   1  -4   9  374.85    4.81   0
   2  -4   8  198.41    3.76   0
   2  -3  10   45.38    1.52   0
   5  -1   8   94.18    2.22   0
   2  -4   4   29.74    1.60   0
   2  -2  11   87.55    1.76   0
   0  -4   9  114.09    2.75   0
   1  -4   3  470.65    5.03   0
   2  -4   7    9.54    1.36   0
   2  -3   2   90.12    2.08   0
   4  -1  10    4.30    0.67   0
   5  -1   5  205.52    3.76   0
   2  -4   5   59.86    2.27   0
   2  -4   6  128.03    3.38   0
   3  -3   8  176.42    3.54   0
   3  -2  10   15.72    0.98   0
   3  -1  11    0.50    0.50   0
   4  -2   8  133.98    2.98   0
   5  -1   6  264.89    4.23   0
   5  -1   7    5.48    0.99   0
   1  -4   8  239.43    4.37   0
   3  -3   4  308.54    4.61   0
   4  -2   4  280.15    4.31   0
   5   0   9   69.02    1.80   0
  -2  -4   5   84.47    2.20   0
   0  -4   3  112.10    2.33   0
   0  -3  10   25.84    1.47   0
   0  -2  11    0.02    0.69   0
   1  -2  11    0.96    0.66   0
   3  -3   7   88.35    2.84   0
  -2  -4   6   27.20    1.65   0
  -1  -4   8  277.23    4.34   0
   1  -4   4   50.90    1.90   0
   2  -3   9    8.11    1.07   0
   3  -3   5  364.13    5.28   0
   4  -2   5   97.90    2.80   0
   4  -2   7  244.77    4.27   0
   0  -4   8    1.79    1.03   0
   1  -4   7  133.53    3.38   0
  -1  -4   4  463.30    4.66   0
   1  -4   5  483.49    5.84   0
   1  -4   6  933.03    8.53   0
  -1  -4   7  455.85    5.60   0
   0  -4   4  466.23    4.98   0
   3  -2   9    9.28    1.06   0
   4  -1   3  195.83    3.26   0
   5   0   4  370.67    4.66   0
   5   0   8  107.53    2.62   0
  -1  -4   5    3.09    0.99   0
   2  -3   8   44.24    2.06   0
   2  -2  10    3.67    0.81   0
  -1  -3   9   70.63    2.31   0
   0  -4   5  277.22    4.16   0
   1  -3   9  694.75    7.04   0
   2  -1  11   93.56    2.01   0
   3  -2   3  373.68    4.39   0
   4   0  10   41.96    1.50   0
  -1  -2  10   66.70    2.03   0
   0  -3   9   23.35    1.69   0
   2  -3   4   58.67    2.01   0
   5   0   5   19.69    1.57   0
   5   0   7   70.39    2.38   0
   2  -3   7  261.16    4.71   0
   3  -2   8   83.56    2.69   0
   3   0  11  108.51    2.04   0
   4  -1   8  157.08    3.42   0
   5   0   6    1.64    1.17   0
   5   2  10    9.29    0.79   0
   2  -3   5   84.48    2.56   0
   2  -3   6    2.20    0.92   0
   4  -1   4  431.69    5.15   0
   0  -2  10   30.55    1.64   0
   1  -3   8  399.43    5.73   0
  -1  -3   8    2.30    1.25   0
   2  -2   9   33.84    1.80   0
   3  -2   7   11.13    1.36   0
   4  -1   5  111.66    2.97   0
   4  -1   7    1.62    1.06   0
   0  -3   8  154.07    3.64   0
   3  -2   5  307.52    4.69   0
   3  -2   6  183.91    3.88   0
   4   2  11   13.98    0.76   0
   1  -3   4  353.80    4.31   0
   1  -3   7    1.62    0.96   0
   3  -1   9  112.50    2.99   0
   4   0   9  177.85    3.42   0
   5   1   8  185.86    3.52   0
   1  -3   5  564.57    5.95   0
   2  -1  10  107.62    2.74   0
   2   0  11  104.53    2.28   0
   5   3  10   96.20    1.85   0
  -1  -3   7  212.74    3.86   0
   1  -2   9  179.57    3.87   0
   2  -2   8  142.40    3.54   0
   3   1  11    0.54    0.62   0
   4   1  10   80.67    2.05   0
   5   1   4   83.82    2.37   0
  -1  -2   9    1.13    1.11   0
   3   0  10   87.78    2.36   0
   5   1   7   92.12    2.73   0
   5   2   9  103.11    2.41   0
  -1  -3   6  774.72    6.64   0
  -1  -1  10   35.52    1.66   0
   0   0  11  281.53    3.60   0
   4   0   8   62.64    2.42   0
   5   1   5  175.57    3.49   0
   1  -1  10   72.56    2.41   0
   2  -2   7  375.56    5.59   0
   5   1   6  167.11    3.51   0
   0  -1  10  149.41    3.24   0
   2  -2   4   33.91    1.47   0
   1  -2   8  106.42    3.11   0
   2  -2   5  427.08    5.21   0
   2  -2   6  165.78    3.58   0
   2  -1   9  243.98    4.48   0
   4   0   4   21.26    1.42   0
   2   1  11   69.99    1.98   0
   3  -1   7   36.88    1.99   0
   4   1   9    0.70    0.83   0
   5   2   8   30.37    1.73   0
  -1  -2   8   80.96    2.59   0
   3  -1   6   39.11    1.98   0
   3   0   9  374.76    5.35   0
   3   2  11   11.81    0.86   0
   4   0   5  260.22    4.22   0
   4   2  10  186.05    3.09   0
   5   3   9    3.45    0.94   0
   1  -2   7  408.95    5.71   0
   2   0  10  389.33    5.13   0
   3  -1   5   13.89    1.21   0
   0   1  11   13.27    1.09   0
   3   1  10   75.51    2.25   0
  -1   0  10   90.33    2.38   0
   1  -1   9   14.39    1.39   0
   2  -1   8    2.17    0.95   0
   5   2   7  169.91    3.56   0
  -1  -1   9  118.87    2.94   0
   1  -2   6  381.63    5.08   0
   4   1   8   59.13    2.33   0
  -1  -2   7   77.09    2.35   0
   0  -1   9    9.97    1.31   0
   1  -2   5    1.82    0.70   0
   1   0  10  440.21    5.56   0
   2   2  11  136.10    2.64   0
   3   3  11  253.05    3.17   0
   4   3  10   36.92    1.50   0
   5   2   5  764.11    6.93   0
   5   2   6  148.06    3.40   0
   2  -1   7   40.56    2.03   0
   4   2   9   99.88    2.77   0
   5   3   8   16.37    1.45   0
   5   4   9    0.93    0.85   0
   0   2  11   42.53    1.51   0
   2   0   9    6.75    1.15   0
  -1  -2   6    4.22    1.04   0
   1  -1   8  117.24    3.19   0
   2   1  10    7.49    1.08   0
   3   0   7    1.47    1.13   0
   3   1   9  210.65    4.11   0
   3   2  10  114.03    2.74   0
   3   4  11    3.74    0.66   0
  -1   1  10   42.85    1.76   0
   2  -1   5 1046.37    7.69   0
   2   3  11   87.79    2.12   0
   3   5  11    2.06    0.51   0
   4   1   4  294.12    3.98   0
   4   4  10   18.15    1.09   0
   5   5   9   27.06    1.27   0
  -1  -1   8    1.16    0.98   0
   0   3  11  164.21    2.54   0
   3   0   6   47.36    2.00   0
   4   1   5   68.25    2.23   0
   5   3   7   37.08    1.85   0
   5   6   9    1.44    0.68   0
   1  -1   7    1.41    1.11   0
   1   0   9  275.19    4.75   0
   1   1  10  142.03    3.25   0
   2   0   8   38.27    2.09   0
   3   0   5   52.17    2.00   0
   4   2   8  115.45    3.10   0
   5   4   8  112.46    2.82   0
  -1   0   9   34.81    1.80   0
   2   4  11   44.41    1.48   0
   4   5  10  176.23    2.68   0
   0   0   9    3.63    1.19   0
   2   5  11   17.03    0.91   0
   3   1   8  186.09    4.00   0
   3   3  10  118.78    2.69   0
   5   3   6    8.81    1.27   0
   2   1   9  138.01    3.41   0
   2   2  10   55.39    2.07   0
   3   2   9   15.17    1.48   0
   5   3   5  902.93    7.54   0
  -1   2  10   38.83    1.65   0
   1  -1   6   13.47    1.18   0
  -1  -1   7   87.39    2.47   0
   2   0   7    0.43    0.82   0
   5   4   7   76.08    2.56   0
   1   0   8   18.97    1.54   0
   1   2  10    1.70    1.07   0
   3   1   7  375.28    5.44   0
   3   4  10   23.20    1.35   0
   4   4   9   65.71    2.14   0
  -1   3  10   27.01    1.39   0
   0   2  10   99.20    2.69   0
   4   2   6   18.58    1.61   0
   4   3   8   12.61    1.39   0
  -1   4  10   55.50    1.64   0
   1   1   9  163.69    3.70   0
   2   0   6  272.31    4.23   0
   2   3  10   65.41    2.17   0
   5   6   8   45.37    1.74   0
  -1   0   8    1.29    1.07   0
  -1   1   9  214.78    3.86   0
   2   1   8  382.48    5.57   0
   3   1   6  284.08    4.49   0
   3   2   8   95.35    2.96   0
   3   5  10    0.08    0.71   0
   5   7   8   28.09    1.31   0
  -1  -1   6    3.95    0.91   0
   0   1   9  160.71    3.62   0
   2   2   9  101.39    2.92   0
   3   3   9   36.27    1.83   0
   3   6  10    7.95    0.84   0
   4   2   4  424.06    4.72   0
   4   2   5  618.47    6.20   0
   4   5   9   52.27    1.83   0
   1   0   7   11.56    1.19   0
   1   3  10   18.80    1.47   0
   2   0   5    5.81    0.86   0
   5   5   7  245.91    4.19   0
   0   3  10   13.63    1.17   0
   2   4  10    6.06    0.94   0
   5   4   5   14.91    1.54   0
   4   4   8   27.28    1.70   0
   0   4  10  117.49    2.58   0
   1   1   8  373.84    5.47   0
   2   1   7  162.02    3.58   0
   2   5  10   25.03    1.40   0
  -1   2   9   54.04    2.13   0
   0   5  10  147.61    2.57   0
   1   0   6  276.28    4.12   0
   1   2   9   66.62    2.43   0
   1   4  10  105.54    2.61   0
   2   6  10   58.97    1.69   0
   3   2   7   14.05    1.40   0
   3   4   9  505.46    5.89   0
   5   6   7  131.51    2.99   0
  -1   0   7  233.93    3.92   0
   1   5  10   53.66    1.80   0
   1   6  10   86.13    1.90   0
   2   3   9   49.41    2.11   0
   4   3   6 1123.41    9.03   0
   5   5   6   73.33    2.47   0
   5   7   7  183.93    3.27   0
   2   2   8   75.94    2.57   0
  -1   1   8  240.19    4.19   0
   3   5   9   52.59    2.03   0
   2   1   6  217.55    3.77   0
   5   5   5    4.02    1.33   0
  -2   2   8  289.47    4.19   0
   1   3   9   44.02    2.14   0
   3   7   9   14.47    1.03   0
   4   3   5   74.26    2.34   0
   4   8   8   88.24    1.96   0
   5   6   6    1.81    1.20   0
   1   1   7  232.60    4.09   0
   2   4   9    1.76    0.91   0
  -1   4   9  284.19    4.10   0
   1   2   8   42.28    2.01   0
   3   3   7   57.19    2.36   0
   3   4   8   74.37    2.54   0
   4   3   4  539.66    5.45   0
   5   8   6  203.51    3.35   0
  -1   5   9  230.26    3.37   0
   2   2   7  283.88    4.63   0
   5   7   6   33.35    1.75   0
   1   4   9   80.29    2.69   0
   2   3   8  324.90    5.09   0
   2   5   9  190.34    3.73   0
   2   7   9    1.28    0.76   0
   4   4   6    1.26    1.05   0
   4   9   7    8.69    0.83   0
  -2   3   8   31.31    1.66   0
   1   7   9   52.11    1.65   0
   2   6   9    0.60    0.89   0
   5   6   5   93.49    2.82   0
   3   5   8  620.75    6.80   0
   1   1   6  245.97    3.88   0
   1   5   9  217.34    3.99   0
   1   6   9  101.04    2.59   0
   3   8   8  142.83    2.73   0
   1   8  -4   15.51    1.27   0
   1   8  -3   32.18    1.60   0
   3   7   2  275.20    4.09   0
   4  10  -3   20.62    1.04   0
   6  10  -3   30.90    1.06   0
   7   8   0  480.54    4.30   0
   2   6   2   17.92    1.11   0
   2   8   0  111.11    2.75   0
   5   7   2   68.72    2.12   0
   5  10  -4   54.46    1.36   0
   5  10  -2   53.69    1.60   0
   6   8   1  167.51    3.03   0
   6   9   0   33.42    1.43   0
   0   6  -1  145.16    2.75   0
   1   6   1  287.23    3.72   0
   3   9  -1  209.15    3.69   0
   4   9   0   27.84    1.49   0
   5  10  -3   66.73    1.63   0
   2   7   1  292.74    4.13   0
   5   9   0  104.01    2.60   0
   7   9  -2  146.94    2.17   0
   4   8   1  403.58    5.12   0
   2   8  -1  787.94    7.06   0
   7   9  -3   74.24    1.53   0
   0   6  -2   17.18    1.23   0
   3   6   2    1.45    0.71   0
   4   9  -1  213.45    3.70   0
   6   7   1  296.31    3.92   0
   2   8  -6   17.89    1.12   0
   3   8   0  290.82    4.35   0
   3   9  -3    2.08    0.77   0
   4   6   2    8.82    1.02   0
   4   9  -6   41.33    1.24   0
   7   8  -1  219.98    3.02   0
   3   7   1  751.99    6.60   0
   5   9  -1  220.53    3.60   0
   6   8   0  346.11    4.38   0
   0   6  -3  200.02    3.25   0
   1   6   0    0.20    0.58   0
   1   7  -2    5.09    1.06   0
   0   6  -4    4.41    1.06   0
   3   5   2  489.24    4.35   0
   4   8   0   28.98    1.62   0
   4   9  -2  117.35    2.72   0
   5   9  -6    7.65    0.61   0
   6   6   1  119.26    2.47   0
   6   9  -2  225.81    3.30   0
   2   8  -5    0.91    0.81   0
   4   5   2    0.29    0.61   0
   4   7   1  113.06    2.65   0
   5   8   0  303.64    4.38   0
   5   9  -2  145.96    2.95   0
   6   9  -5    0.26    0.51   0
   1   7  -5  576.19    5.49   0
   1   7  -3   75.25    2.25   0
   2   8  -4    8.57    1.05   0
   3   8  -1    1.37    0.76   0
   4   9  -3   68.52    2.07   0
   6   9  -3   44.67    1.49   0
   7   8  -2  258.25    3.23   0
   5   9  -5   78.17    1.81   0
   5   9  -3  211.60    3.39   0
   6   9  -4   26.62    1.12   0
   7   7  -1   67.65    1.89   0
   5   9  -4   32.23    1.38   0
   6   8  -1    5.94    1.10   0
   2   7  -1  228.00    3.67   0
   3   6   1  556.29    5.17   0
   3   7   0  365.58    4.63   0
   6   7   0  134.94    2.79   0
   7   8  -3   33.86    1.27   0
   4   8  -1   38.95    1.77   0
   5   6   1    1.05    0.76   0
   5   8  -1  346.38    4.74   0
   7   8  -4  122.66    2.08   0
   0   5  -2 1023.98    6.39   0
   2   6   0   71.71    1.96   0
   2   7  -7  117.29    2.34   0
   3   8  -6   16.00    1.07   0
   4   8  -7   86.79    1.82   0
   3   8  -3   55.30    2.00   0
   4   7   0   14.61    1.15   0
   3   7  -8   40.16    1.36   0
   4   8  -2  229.80    3.98   0
   5   8  -7    0.09    0.44   0
   7   7  -2  187.34    2.98   0
   1   6  -2  523.32    5.12   0
   5   5   1  141.68    2.57   0
   6   6   0  205.88    3.33   0
   6   8  -6    1.93    0.58   0
   0   5  -3  306.40    3.69   0
   3   7  -1   35.12    1.58   0
   6   7  -1    0.83    0.96   0
   4   8  -6   28.66    1.30   0
   4   8  -3  141.74    3.12   0
   0   5  -4   19.53    1.29   0
   1   6  -3  847.15    6.70   0
   3   6   0  259.35    3.59   0
   4   5   1  138.69    2.45   0
   4   8  -5   12.00    1.18   0
   4   8  -4   66.28    2.24   0
   5   8  -6   21.38    1.09   0
   5   8  -3  351.01    4.75   0
   6   8  -5   27.54    1.23   0
   6   8  -4   44.87    1.66   0
   7   7  -3   87.18    2.08   0
   1   6  -6  217.24    3.52   0
   2   7  -5    1.45    0.87   0
   2   7  -4   -0.27    0.87   0
   5   7  -1  115.68    2.83   0
   1   6  -4  723.40    6.39   0
   3   7  -2    9.29    1.19   0
   4   7  -8  115.61    2.06   0
   5   6   0  404.87    4.69   0
   5   7  -8  151.58    2.15   0
   5   8  -4  225.01    3.70   0
   7   6  -2   24.11    1.39   0
   7   7  -4  101.52    2.12   0
   1   6  -5  365.18    4.60   0
   2   6  -8   36.49    1.46   0
   3   7  -7  162.99    2.96   0
   4   6   0    4.81    0.85   0
   6   7  -7   75.21    1.69   0
   6   6  -1  321.11    4.31   0
   2   6  -2  212.15    3.37   0
   3   7  -3   73.50    2.30   0
   4   6  -9    2.29    0.62   0
   4   7  -2    1.34    0.76   0
   5   7  -2  231.51    3.95   0
   3   6  -1   23.70    1.25   0
   3   7  -4   67.57    2.35   0
   4   7  -7  161.18    2.94   0
   6   7  -3    1.33    0.87   0
   7   6  -3   42.36    1.66   0
   3   5   0  282.48    3.42   0
   3   7  -5   30.30    1.65   0
   5   5   0  102.23    2.34   0
   5   7  -7   54.49    1.66   0
   6   6  -8    9.16    0.71   0
   6   7  -6   40.47    1.52   0
   2   6  -7  127.33    2.85   0
   4   7  -3   46.20    1.90   0
   5   7  -3  165.70    3.46   0
   6   7  -4   74.67    2.25   0
   2   6  -3    0.26    0.71   0
   4   5   0   90.64    2.06   0
   4   6  -1    4.18    0.83   0
   4   7  -6  185.30    3.49   0
   7   6  -5   43.92    1.53   0
   3   6  -8  255.86    3.64   0
   4   7  -4  253.36    4.24   0
   5   7  -6    1.41    0.73   0
   5   7  -4  114.65    2.91   0
   6   5  -1  262.16    3.78   0
   6   6  -2  101.82    2.59   0
   1   5  -7  153.15    3.05   0
   1   5  -3 1495.95    8.27   0
   3   6  -2   47.09    1.74   0
   7   5  -3  340.32    4.29   0
   2   6  -5   35.68    1.74   0
   5   6  -8  142.16    2.50   0
   4   6  -8   42.87    1.63   0
   5   4   0  397.07    4.10   0
   5   6  -2   62.27    2.19   0
   6   6  -7   71.68    1.89   0
   1   5  -6  822.44    6.97   0
   1   5  -4  375.07    4.42   0
   4   6  -2  100.15    2.53   0
   7   5  -4   25.63    1.47   0
   1   5  -5  134.56    2.90   0
   3   5  -9  211.15    3.17   0
   3   5  -1  147.56    2.60   0
   3   6  -3  311.46    4.40   0
   5   5  -9  369.97    3.55   0
   7   5  -5  198.54    3.22   0
   2   5  -8   19.19    1.42   0
   2   5  -2  770.50    5.85   0
   5   5  -1  230.36    3.54   0
   6   5  -8   84.76    1.86   0
   6   5  -2    1.45    1.01   0
   6   6  -6  223.24    3.65   0
   6   6  -4  121.54    2.92   0
   7   4  -7  131.47    2.13   0
   7   4  -3   56.63    1.94   0
   3   6  -6   27.67    1.66   0
   3   6  -4  250.87    4.13   0
   4   6  -7   35.72    1.76   0
   5   6  -7   11.01    1.03   0
   5   6  -3  113.74    2.93   0
   6   6  -5   52.84    1.99   0
   3   6  -5   83.63    2.53   0
   7   4  -4  174.52    3.25   0
   1   4  -8  275.70    3.99   0
   2   5  -3  933.65    6.82   0
   4   6  -6  195.77    3.80   0
   4   6  -5  519.20    6.16   0
   4   6  -4  109.95    2.85   0
   5   6  -5  118.40    2.99   0
   7   4  -6   90.54    2.14   0
   2   5  -7   30.42    1.67   0
   3   5  -2   13.51    1.06   0
   6   5  -7    3.82    0.80   0
   6   5  -3   30.88    1.60   0
   5   5  -8  143.13    2.77   0
   2   5  -6    3.70    1.18   0
   2   5  -4  322.00    4.30   0
   4   5  -2  166.15    3.03   0
   5   4  -1  592.40    5.32   0
   6   4  -2   73.12    2.14   0
   6   5  -6   96.50    2.64   0
   7   3  -6   38.75    1.58   0
   7   3  -4   27.19    1.63   0
   4   5  -8   11.41    1.13   0
   5   4  -9    8.91    0.88   0
   6   4  -8   54.99    1.60   0
   6   5  -5   93.87    2.68   0
   7   3  -5   44.36    1.81   0
   1   4  -7  477.26    5.47   0
   2   3 -10  158.28    2.71   0
   3   5  -7  223.82    4.12   0
   3   5  -3  345.12    4.36   0
   5   5  -7   61.92    2.17   0
   5   5  -3   98.12    2.64   0
   1   3  -9   70.80    2.12   0
   3   4  -9  246.26    3.81   0
   4   4  -9  392.36    4.60   0
   4   5  -7   50.97    2.16   0
   4   5  -3  710.00    6.55   0
   1   4  -6  310.94    4.35   0
   3   5  -6  128.36    3.16   0
   3   5  -4  439.09    5.21   0
   4   3 -10   62.46    1.62   0
   5   5  -6   20.38    1.49   0
   5   5  -4  613.07    6.60   0
   6   3  -2    9.61    1.22   0
   6   4  -7   62.70    2.00   0
   6   4  -3   32.44    1.63   0
   1   4  -5    3.61    0.88   0
   2   4  -8  395.07    5.18   0
   3   3 -10   40.51    1.50   0
   3   5  -5   59.33    2.14   0
   6   3  -8  234.44    3.23   0
   4   5  -6   17.57    1.38   0
   4   5  -5  272.22    4.50   0
   4   5  -4  599.02    6.31   0
   5   3  -1  791.96    5.88   0
   5   4  -8   90.51    2.41   0
   5   4  -2  183.68    3.24   0
   5   3  -9   47.28    1.61   0
   2   4  -7  135.94    3.23   0
   4   4  -8   61.47    2.20   0
   1   3  -8    3.85    1.21   0
   2   3  -9  288.87    4.35   0
   5   4  -7    5.52    1.05   0
   6   3  -7  158.13    3.11   0
   6   3  -3  131.88    2.90   0
   4   2 -10    4.86    0.78   0
   2   2 -10  131.56    2.75   0
   2   4  -4   34.35    1.44   0
   3   4  -7  375.67    5.43   0
   4   3  -9    8.26    0.99   0
   5   4  -6   23.89    1.66   0
   5   4  -4    4.84    1.15   0
   6   1  -8    4.43    0.76   0
   3   4  -3  152.45    2.77   0
   4   4  -7  109.57    2.99   0
   4   4  -3   69.37    2.06   0
   5   2  -9  118.20    2.46   0
   5   3  -8  318.25    4.58   0
   5   4  -5   36.84    1.89   0
   6   3  -5   17.94    1.53   0
   5   3  -2  293.61    3.89   0
   1   3  -7  215.62    3.80   0
   3   4  -4  206.13    3.45   0
   4   4  -6  165.84    3.62   0
   4   4  -4  720.43    6.76   0
   6   2  -3   18.76    1.52   0
   1   2  -9    0.21    0.95   0
   2   3  -8   15.68    1.56   0
   3   4  -5  412.94    5.20   0
   1   1 -10   34.71    1.62   0
   2   0 -11   95.41    1.98   0
   4   1 -10   84.10    1.95   0
   4   3  -8   80.59    2.62   0
   5   3  -7   79.64    2.66   0
   1   3  -6  756.76    6.62   0
   3   3  -8  130.73    3.34   0
   5   1  -9    7.82    0.85   0
   5   3  -3   10.09    1.19   0
   6   1  -7  279.33    3.92   0
   6   2  -5  155.60    3.53   0
   6   2  -4  391.45    5.23   0
   0   2  -7   87.70    2.37   0
   1   3  -5  493.22    4.95   0
   4   2  -9   62.29    2.08   0
   5   2  -8  124.89    2.93   0
   2   2  -9  135.07    3.24   0
   5   0  -9  114.72    2.21   0
   5   3  -6    6.87    1.22   0
   2   1 -10    6.39    1.13   0
   3   1 -10   16.86    1.14   0
   3   2  -9  280.06    4.53   0
   4   0 -10  101.04    2.12   0
   4   3  -7  510.33    6.36   0
   5   2  -2   53.68    1.83   0
   5   3  -5  182.80    3.78   0
   6  -1  -6   28.14    1.42   0
   0   4   4   26.47    1.34   0
   0   6   4  178.99    3.55   0
   1   9   3    9.97    1.09   0
   3   4   4    0.44    0.64   0
   3  10   3   55.17    1.89   0
   4  10   3  116.57    2.57   0
   1  10   1    7.70    0.92   0
  -1   5   3   20.82    1.38   0
  -1   7   2   18.39    1.36   0
   0   9   1  300.81    3.94   0
   4   6   4  347.96    4.45   0
   5   9   3   32.24    1.52   0
  -1   4   3  255.00    3.45   0
   1   7   4    7.85    1.11   0
   2   8   4  482.03    6.05   0
   2  10   2    4.43    0.93   0
   4   7   4  232.88    3.95   0
   4  11   1   19.54    1.02   0
  -1   8   0  411.01    4.53   0
   1   4   4  114.49    2.35   0
   2   4   4  337.03    3.90   0
   3   8   4  142.32    3.32   0
   5  10   2   10.63    0.97   0
   2   9   3   44.85    1.93   0
   3   5   4   10.91    1.00   0
   5   7   3   70.22    2.17   0
   5   8   3   70.97    2.22   0
   0   8   2   26.57    1.56   0
   1   5   4  648.59    6.00   0
   1   8   3  403.50    5.48   0
   1   9   2    2.43    1.04   0
   1  10   0    8.66    0.93   0
   2   7   4  312.13    4.80   0
   3   7   4  183.40    3.64   0
   3  11   0   10.32    0.82   0
   0   9   0  187.86    3.14   0
   2   5   4   27.12    1.35   0
   2   6   4   73.22    2.33   0
   3   9   3   96.39    2.72   0
   3  10   2   11.24    1.06   0
   4  10   2   15.84    1.17   0
   6  10   0   17.75    1.03   0
  -1   7   1  335.93    4.51   0
   4  11   0   36.29    1.27   0
   6   9   1  177.25    2.94   0
   2  10   1   76.95    2.14   0
   1  10  -1    2.44    0.71   0
   3  11  -1   74.92    1.64   0
   4   5   3    0.76    0.80   0
   5   9   2   47.79    1.85   0
   5  10   1    5.33    0.97   0
  -1   5   2  107.26    2.45   0
   0   5   3   58.14    1.87   0
   0   9  -1  192.68    3.10   0
   1   7   3  105.52    2.87   0
   1  10  -2    2.76    0.73   0
   2   9   2   65.76    2.30   0
   3   8   3  646.90    6.95   0
   4   7   3  377.52    5.00   0
   4  11  -1   11.08    0.78   0
   6  10  -1  234.05    2.77   0
   3  10   1  288.19    4.14   0
   4   6   3   21.94    1.32   0
   4  10   1   35.46    1.66   0
   5   8   2  213.96    3.75   0
   0   9  -2    1.49    0.86   0
   1   6   3    2.04    0.98   0
   2  10   0   26.60    1.36   0
   3   9   2   75.44    2.47   0
   4   9   2    4.20    1.01   0
   4  11  -2  252.12    2.79   0
   5   6   2   50.07    1.78   0
  -1   6   1    8.45    1.17   0
  -1   7   0  107.50    2.67   0
   2   7   3  482.82    5.86   0
   3   7   3  145.49    3.23   0
   5   7   2   68.47    2.18   0
   6   9   0   33.35    1.52   0
   1   5   3  494.77    5.00   0
   3   5   3  856.88    6.32   0
   2   6   3  119.96    2.75   0
   3   6   3   62.37    2.03   0
   5   9   1    8.46    1.09   0
   0   8   0  206.16    3.74   0
   2   5   3   74.82    1.95   0
   2   8   2  361.98    5.26   0
   2   9   1    1.97    0.94   0
   2  10  -1    1.53    0.80   0
   3  10   0  170.66    3.22   0
   1   7   2  959.57    8.19   0
   4  10   0   41.89    1.70   0
  -1   7  -1  112.11    2.69   0
   0   7   1   15.28    1.32   0
   1   8   1  210.35    4.01   0
   3   8   2 1280.08    9.76   0
   4   9   1  100.64    2.84   0
   6   9  -1  280.96    3.66   0
   2  10  -2   27.44    1.35   0
   3   9   1  468.58    5.88   0
   5   8   1  553.92    6.01   0
   3  10  -1  181.56    3.28   0
   4   5   2    0.48    0.77   0
   4   7   2  477.84    5.56   0
  -1   6   0   15.79    1.32   0
   0   8  -1  205.95    3.70   0
   2   7   2  131.37    3.09   0
   2  10  -4  159.31    2.39   0
   4   6   2    8.49    1.12   0
   4  10  -1   33.19    1.51   0
   1   6   2  519.42    5.55   0
   2   9   0   88.49    2.63   0
   5   7   1  181.69    3.39   0
  -1   7  -2   78.22    2.30   0
   2   8   1  132.48    3.26   0
   3  10  -2   64.80    1.99   0
   6   9  -2  232.83    3.23   0
   1   9  -2   30.35    1.55   0
   4   8   1  400.81    5.40   0
   4   9   0   29.21    1.76   0
   4  10  -2   15.34    1.15   0
   6   8  -1    5.00    1.12   0
   0   7   0    1.79    0.94   0
   1   5   2  196.58    3.08   0
   1   8   0   30.90    1.72   0
   2   6   2   17.29    1.20   0
   3   6   2    1.67    0.78   0
   3   8   1   68.00    2.39   0
   3   9   0  703.44    7.17   0
   1   9  -5   44.13    1.44   0
   1   9  -3   52.59    1.87   0
   3  10  -4  119.47    2.25   0
   3  10  -3   26.87    1.29   0
  -1   7  -3    4.92    1.11   0
   1   9  -4   31.60    1.45   0
   2   9  -1  154.23    3.36   0
   4  10  -3   20.45    1.14   0
   5   8   0  288.58    4.41   0
   6   9  -4   24.62    1.07   0
  -1   5   0    4.99    0.85   0
  -1   6  -1  238.06    3.72   0
   0   8  -3   54.49    2.02   0
   4  10  -4    5.68    0.69   0
   2   7   1  307.92    4.65   0
   6   8  -2    1.14    1.04   0
   0   8  -5   10.15    1.11   0
   0   8  -4    0.28    0.93   0
   1   8  -1  156.08    3.49   0
   2   8   0  110.92    3.00   0
   2   9  -2  333.19    4.81   0
   3   7   1  748.78    7.08   0
   3   9  -1  198.14    3.84   0
   4   9  -1  214.28    3.94   0
   0   7  -1   20.47    1.45   0
   1   6   1  293.71    4.12   0
   4   6   1   21.92    1.42   0
   5   7   0  538.99    5.79   0
   0   6   0    9.30    1.17   0
   2   9  -3   35.92    1.77   0
   5   8  -1  357.34    4.96   0
   6   8  -3   57.91    1.93   0
   2   6   1  171.36    3.18   0
   4   9  -2  122.15    2.98   0
   5   6   0  396.37    4.56   0
   6   7  -2   24.41    1.55   0
   2   9  -5   55.93    1.79   0
   2   9  -4  118.74    2.68   0
   3   6   1  540.42    5.43   0
   0   7  -2  147.87    3.27   0
   1   8  -7   30.36    1.19   0
   6   8  -5   27.92    1.23   0
   6   8  -4   47.26    1.66   0
   2   7   0  259.99    4.25   0
   3   9  -3    3.58    0.90   0
   4   8  -1   38.92    1.93   0
   4   9  -3   69.82    2.24   0
   3   7   0  384.41    5.17   0
   3   9  -6   19.86    1.04   0
   4   9  -6   41.02    1.34   0
   5   7  -1  117.21    2.91   0
   5   8  -2   85.09    2.59   0
  -1   6  -3   80.43    2.39   0
   0   5   0   53.63    1.69   0
   3   9  -5   20.74    1.21   0
   4   9  -5   26.71    1.35   0
   4   9  -4   21.20    1.31   0
   6   7  -3    1.88    1.04   0
   0   7  -3   21.51    1.58   0
   1   6   0   -0.01    0.62   0
   1   8  -6  113.60    2.49   0
   2   8  -2  943.74    8.42   0
   0   7  -7  128.90    2.41   0
   1   8  -5    1.76    0.99   0
   4   6   0    5.27    1.04   0
   4   8  -2  227.93    4.18   0
   5   8  -7    0.29    0.55   0
   5   8  -3  345.80    4.85   0
   0   7  -4    4.88    1.18   0
   2   6   0   73.64    2.18   0
   3   8  -2   55.06    2.21   0
   5   6  -1  178.28    3.25   0
   6   7  -6   38.96    1.44   0
   6   7  -4   74.48    2.22   0
  -1   5  -2  535.81    5.20   0
  -1   6  -5  112.81    2.71   0
   0   7  -6   74.30    2.20   0
   0   7  -5    8.41    1.26   0
   1   7  -2    6.08    1.18   0
   2   7  -1  226.63    4.01   0
   2   8  -3  533.05    6.35   0
   3   6   0  265.67    3.89   0
   4   5   0   87.68    2.13   0
   6   7  -5  227.71    3.39   0
   2   8  -7  226.72    3.23   0
   5   7  -2  227.50    3.93   0
   0   6  -2   16.05    1.38   0
   2   8  -4    9.45    1.34   0
   3   8  -3   56.15    2.29   0
   4   8  -3  144.39    3.35   0
   1   6  -1    5.56    1.00   0
   1   7  -8   22.68    1.18   0
   2   8  -6   14.53    1.17   0
   2   8  -5    0.32    0.99   0
   4   8  -7   84.35    1.99   0
   0   5  -1  671.38    5.66   0
   3   8  -7   28.55    1.29   0
   4   8  -4   63.52    2.34   0
   1   7  -3   73.40    2.43   0
   2   7  -2  255.99    4.33   0
   3   8  -4   17.66    1.41   0
   4   7  -2    0.76    1.08   0
   5   7  -3  166.78    3.48   0
   3   8  -6   14.88    1.17   0
   3   8  -5   13.08    1.23   0
   4   6  -1    3.99    0.91   0
   5   6  -2   63.55    2.18   0
   6   6  -6  223.45    3.35   0
  -1   5  -3  170.22    3.11   0
   0   6  -3  199.07    3.68   0
   2   6  -1  163.70    3.19   0
   0   6  -8  354.53    4.10   0
   1   7  -7   82.03    2.30   0
   3   6  -1   23.24    1.36   0
   2   7  -3  224.53    4.20   0
   1   6  -2  518.79    5.66   0
   2   7  -8   88.15    2.16   0
   4   7  -8  115.99    2.31   0
   4   7  -3   47.30    2.08   0
   5   7  -6    1.04    0.98   0
   5   7  -5   14.93    1.41   0
  -1   5  -4  219.40    3.71   0
   0   6  -4    3.27    1.02   0
   4   5  -1   50.58    1.71   0
   5   5  -2  433.49    4.83   0
   0   5  -2 1060.96    7.34   0
   1   6  -9    7.84    0.89   0
   2   7  -4   -0.32    1.10   0
   3   7  -8   39.29    1.52   0
  -1   5  -7   27.92    1.61   0
   0   6  -6  155.94    3.44   0
   0   6  -5    1.94    1.17   0
   4   7  -4  259.82    4.51   0
   5   6  -8  147.32    2.55   0
  -1   5  -5  426.05    5.24   0
   2   6  -2  207.88    3.65   0
   2   7  -6   20.83    1.63   0
   2   7  -5    0.23    0.88   0
   3   7  -4   62.17    2.44   0
   4   7  -7  158.80    3.12   0
  -1   5  -6  199.35    3.68   0
   1   6  -3  834.61    7.44   0
   3   6  -2   43.51    1.79   0
   4   6  -9    2.57    0.58   0
   4   7  -6  181.31    3.64   0
   3   7  -6   84.74    2.62   0
   0   5  -9  112.28    2.44   0
   2   6  -9   35.03    1.45   0
   5   5  -3  100.86    2.64   0
   5   6  -7   10.52    1.11   0
   1   5 -10   23.03    1.09   0
   3   4  -8   52.91    1.58   0
   3   5  -7  235.17    3.39   0
   3   6   0  255.06    2.99   0
   6   5  -8   87.43    1.46   0
   3   6  -5   84.14    2.21   0
   5   5  -8  148.80    2.26   0
   8   7  -4    6.77    0.59   0
   8   7  -1   91.66    1.59   0
   4   6   1   21.25    1.04   0
   4   7  -3   47.12    1.71   0
   4   7  -2    1.00    0.68   0
   5   7  -5   15.50    1.16   0
   5   7   0  544.46    4.81   0
   6   6  -7   70.48    1.53   0
   7   7  -5   54.44    1.39   0
   7   7   0   50.32    1.49   0
   8   7  -3   10.61    0.73   0
   8   7  -2   19.73    0.89   0
   3   6  -4  247.46    3.60   0
   6   7  -5  235.67    3.21   0
   6   7   0  129.58    2.40   0
   2   5  -4  329.55    3.80   0
   3   6  -3  318.16    3.92   0
   3   6  -2   46.67    1.55   0
   5   7  -4  115.04    2.55   0
   2   5  -3  950.57    6.05   0
   2   5  -2  790.18    5.19   0
   4   4  -8   61.13    1.67   0
   7   5  -7   28.02    0.89   0
   7   6  -6   30.49    1.06   0
   7   7  -4  105.12    2.06   0
   8   6  -5  192.70    2.15   0
   4   5  -7   52.18    1.69   0
   5   6  -6   32.85    1.50   0
   5   7  -2  221.18    3.36   0
   6   7  -4   76.98    2.04   0
   7   7  -1   69.60    1.77   0
   2   3  -7  193.83    2.85   0
   3   3  -8  126.31    2.28   0
   5   6   1    0.99    0.69   0
   6   4  -8   59.02    1.27   0
   7   7  -3   90.97    2.01   0
   6   6  -6  223.86    3.09   0
   7   7  -2  187.44    2.80   0
   6   5  -7    3.26    0.66   0
   6   6   1  121.59    2.20   0
   8   6  -4  131.38    2.01   0
   2   4  -5   82.84    1.93   0
   8   6  -1  119.49    1.95   0
   4   6  -3  316.51    3.99   0
   4   3  -8   82.18    1.92   0
   5   6   0  413.28    4.06   0
   6   3  -8  227.78    2.42   0
   6   6  -5   52.38    1.69   0
   7   4  -7  129.51    1.83   0
   8   5  -5  153.93    2.06   0
   8   6  -2  114.91    1.97   0
   2   4  -4   34.28    1.26   0
   5   6  -4  189.11    3.28   0
   7   5  -6  127.07    2.10   0
   7   6   0  242.72    3.10   0
   2   3  -6  338.49    3.69   0
   3   2  -8  338.74    3.57   0
   3   5  -3  360.58    3.87   0
   3   5  -1  148.50    2.20   0
   4   4  -7  123.48    2.50   0
   5   3  -8  314.50    3.39   0
   6   6   0  201.92    2.95   0
   7   6  -4   87.13    2.02   0
   3   5  -2   14.99    0.85   0
   5   5  -6   20.15    1.22   0
   5   6  -3  114.51    2.54   0
   6   5  -6  107.90    2.32   0
   2   2  -7  369.52    3.70   0
   3   3  -7  571.24    5.02   0
   4   5  -5  285.34    3.90   0
   5   6  -2   63.67    1.83   0
   7   6  -3   41.27    1.48   0
   7   6  -1    7.35    0.81   0
   6   2  -8   52.52    1.21   0
   6   6  -3   79.99    2.15   0
   6   6  -1  319.39    3.86   0
   8   5  -4   31.56    1.12   0
   6   6  -2   98.57    2.27   0
   7   5  -5  204.50    2.97   0
   4   2  -8    3.07    0.78   0
   4   5   0   88.94    1.76   0
   8   4  -5   10.68    0.66   0
   3   4  -5  403.79    4.29   0
   4   5  -4  629.79    5.60   0
   5   5  -5  330.63    4.30   0
   5   5   1  138.81    2.19   0
   7   4  -6   92.09    1.86   0
   8   5  -2  131.27    2.22   0
   8   5  -1  227.55    2.75   0
   2   3  -5   14.57    0.89   0
   5   2  -8  122.50    2.13   0
   6   5  -5  101.46    2.36   0
   4   3  -7  522.61    5.02   0
   4   5  -3  692.23    5.60   0
   7   5  -4   25.55    1.33   0
   4   5  -2  166.94    2.63   0
   5   5  -4  615.17    5.78   0
   7   5   0    8.31    0.94   0
   3   3  -6  317.26    3.80   0
   3   4  -4  199.04    2.87   0
   5   3  -7   80.83    2.12   0
   5   4  -6   23.47    1.27   0
   8   3  -5    2.22    0.51   0
   8   4  -4   54.48    1.43   0
   2   2  -6  219.24    2.87   0
   7   5  -3  335.11    4.12   0
   8   4   0  421.71    3.66   0
   4   1  -8    7.02    0.85   0
   4   4  -5   94.87    2.26   0
   5   1  -8   57.54    1.48   0
   5   5  -3   98.67    2.30   0
   6   5   0  767.68    5.62   0
   7   3  -6   37.46    1.29   0
   7   4  -5    4.06    0.68   0
   7   5  -1   43.25    1.53   0
   3   4  -3  158.30    2.42   0
   5   5  -2  419.71    4.40   0
   8   4  -3   25.13    1.08   0
   6   5  -2    0.95    0.80   0
   6   5  -1  255.33    3.46   0
   8   2  -5   38.00    1.04   0
   8   4  -2  188.10    2.70   0
   8   4  -1   53.10    1.49   0
   6   4  -5  416.47    4.74   0
   7   4   1   19.37    1.10   0
   8   3  -4   68.67    1.62   0
   4   2  -7    4.06    0.89   0
   4   0  -8   14.01    0.97   0
   5   2  -7  171.37    2.94   0
   5   3  -6    7.91    0.96   0
   7   3  -5   45.49    1.59   0
   4   4  -3   68.21    1.80   0
   5   4  -4    5.46    0.90   0
   6   1  -7  267.73    3.13   0
   6   4  -4  117.26    2.64   0
   7   4  -3   53.39    1.88   0
   7   4   0  706.84    5.57   0
   8   3  -3   61.55    1.63   0
   8   3   0   43.80    1.40   0
   3   1  -7  245.33    3.27   0
   3   2  -6  237.11    3.26   0
   5   4   1 1542.39    7.02   0
   6   4   1  907.81    5.84   0
   8   2  -4    5.02    0.60   0
   4   4  -2  219.03    2.90   0
   7   1  -6   62.48    1.47   0
   7   4  -1  264.74    3.68   0
   8   3  -1  175.84    2.65   0
   2   1  -6    0.53    0.68   0
   4   3  -5  724.19    5.98   0
   5   4  -3  806.43    6.33   0
   6  -1  -7   27.24    0.96   0
   6   0  -7   50.60    1.38   0
   6   4  -3   33.39    1.55   0
   7   0  -6   29.59    0.98   0
   8   1  -4   36.36    1.12   0
   4   1  -7  322.40    3.99   0
   5   1  -7  182.08    2.97   0
   6   2  -6  228.86    3.36   0
   6   3  -5   17.30    1.18   0
   6   4   0   99.36    2.18   0
   7   3  -4   27.22    1.36   0
   8   2  -3   14.57    0.94   0
   4   2  -6  214.58    3.40   0
   5   3  -5  186.52    3.27   0
   5   4  -2  180.41    2.90   0
   7   2  -5  106.46    2.25   0
   5   2  -6  162.01    3.09   0
   6   4  -1  108.26    2.34   0
   7   3   1   17.16    1.09   0
   8   2   0   35.13    1.34   0
   8   2  -1   78.98    1.95   0
   4   3  -4   13.25    0.94   0
   6   3  -4  122.71    2.76   0
   7   3  -3   52.55    1.87   0
   8   1  -3  486.35    4.21   0
   3   2  -5  471.41    4.39   0
   6   1  -6   66.91    1.87   0
   7   1  -5   31.78    1.28   0
   8   0  -3   18.80    0.84   0
   5   3  -4    3.30    0.76   0
   6   2  -5  154.03    3.04   0
   7   2  -4  124.29    2.62   0
   7   3  -2  145.56    2.94   0
   7   3  -1   51.67    1.83   0
   7   3   0   36.80    1.44   0
   8   1   0   61.60    1.64   0
   3   1  -6  596.27    5.11   0
   4   0  -7  272.14    3.65   0
   7   0  -5   80.02    1.80   0
   8   0   0   11.23    0.83   0
   8   1  -1   92.20    2.06   0
   5  -1  -7   53.59    1.55   0
   6   3  -3  128.80    2.80   0
   6   3   1   20.94    1.19   0
   7  -1  -5    0.24    0.40   0
   8   0  -1    9.20    0.83   0
   4   2  -5  859.16    6.56   0
   5   2  -5   66.98    2.06   0
   6   0  -6   45.49    1.53   0
   2   0  -6 1174.91    6.46   0
   4   1  -6  226.13    3.50   0
   6  -2  -6   31.76    1.12   0
   6   3  -2   11.94    1.12   0
   7   1  -4  131.50    2.65   0
   7   2  -3   82.10    2.26   0
   3  -1  -7  231.09    3.28   0
   3   2  -4  825.99    5.58   0
   4  -1  -7  249.69    3.43   0
   4   3  -2  340.53    3.58   0
   5   3   1   38.97    1.26   0
   6   2  -4  385.53    4.89   0
   6   3   0  128.85    2.56   0
   7   2   1    5.64    0.88   0
   6   1  -5  156.73    3.05   0
   7   2  -2  135.40    2.90   0
   7  -2  -4   39.51    1.16   0
   7   0  -4    0.93    0.68   0
   7   2  -1   34.69    1.58   0
   4  -2  -7    3.60    0.84   0
   5   2  -4    2.99    0.88   0
   7  -1  -4  172.35    2.65   0
   7   1  -3  223.54    3.63   0
   3   1  -5  438.16    4.35   0
   4  -3  -7    0.52    0.70   0
   4   2  -4  570.10    5.21   0
   3  -2  -7  193.48    3.00   0
   3   0  -6  365.24    4.17   0
   4   0  -6    0.42    0.90   0
   6   0  -5   31.09    1.47   0
   6   2  -3   18.36    1.32   0
   4   1  -5   97.44    2.41   0
   6  -3  -5   47.47    1.30   0
   6   1  -4   91.19    2.54   0
   7   1   1   11.33    1.11   0
   6  -1  -5   48.35    1.74   0
   7   0  -3  567.74    5.59   0
   5  -3  -6    9.02    0.90   0
   5   2  -3    0.84    0.62   0
   6  -2  -5  277.59    3.49   0
   7  -3  -2   57.60    1.32   0
   7  -2  -3    5.53    0.67   0
   7  -1  -3   29.35    1.39   0
   7   1   0   51.34    1.91   0
   2  -1  -6  438.71    4.20   0
   4   2  -3  923.05    6.35   0
   5  -2  -6  122.88    2.53   0
   4  -5  -6   93.97    1.77   0
   6  -4  -4   63.10    1.37   0
   6   2   0  113.86    2.52   0
   7   0  -2  222.01    3.76   0
   5   1  -4   35.54    1.63   0
   6   0  -4   12.25    1.11   0
   6   1  -3  111.53    2.82   0
   7   0   1   54.95    1.92   0
   3  -1  -6   21.12    1.36   0
   7  -2   1   66.27    1.72   0
   7  -1  -2   10.76    1.03   0
   7   0   0  142.01    3.09   0
   4  -1   9   19.30    0.98   0
   6  -1   6   58.37    1.73   0
   7   0   5    5.89    0.69   0
   8   2   4   18.92    0.95   0
   8   2   5    0.84    0.52   0
   6   0   8  496.80    3.86   0
   3  -2   8   80.90    2.06   0
   5  -2   3  104.08    2.52   0
   5  -2   5  452.95    5.11   0
   6  -1   3  133.76    2.75   0
   6  -1   5  110.19    2.49   0
   1  -3   6  301.75    3.59   0
   5  -2   4  236.92    3.76   0
   5   0   9   68.36    1.48   0
   6   0   1   33.63    1.45   0
   7   1   7    4.38    0.55   0
   2  -3   2   90.51    1.81   0
   2  -3   6    1.45    0.73   0
   3  -3   5  383.39    4.67   0
   6   1   0  171.16    2.62   0
   7   1   2    1.47    0.77   0
   3  -1   9  114.04    2.18   0
   5  -1   1    1.13    0.66   0
   7   2   8  194.78    2.16   0
   8   3   3    0.66    0.68   0
   2  -3   3    0.44    0.58   0
   2  -3   5   86.87    2.16   0
   4  -1   0  226.93    2.80   0
   4  -2   2  514.41    4.94   0
   4  -2   6  323.58    4.45   0
   5  -1   7    6.35    0.87   0
   5   0   0    7.71    0.86   0
   7   1   3   42.10    1.64   0
   7   1   6   10.86    0.86   0
   3  -2   1  435.92    3.83   0
   4   1  10   83.81    1.60   0
   6   0   2  623.48    5.67   0
   8   3   4  459.97    3.98   0
   8   3   5   29.89    1.12   0
   3  -2   7   10.14    1.05   0
   4  -2   3  255.93    3.71   0
   4  -1   8  154.61    2.80   0
   7   1   5   19.29    1.12   0
   4  -2   4  279.71    4.05   0
   5  -1   6  267.51    4.06   0
   6   0   6   89.46    2.30   0
   6   2   9  114.70    1.77   0
   5   0   8  106.88    2.30   0
   6   0   3   23.50    1.48   0
   7   2   7   10.72    0.85   0
   8   4   3   30.68    1.28   0
   3  -2   2  391.23    3.89   0
   5  -1   3  422.31    4.90   0
   5  -1   5  204.98    3.64   0
   6   0   4    1.19    0.92   0
   6   0   5   39.10    1.68   0
   7   2   2   13.07    1.10   0
   7   3   8   35.09    1.06   0
   8   4   6    7.80    0.64   0
   5  -1   4  340.83    4.59   0
   5   1   9  103.39    1.98   0
   6   1   1   63.55    1.78   0
   3  -1   8    5.11    0.88   0
   4  -1   7    0.94    1.00   0
   8   4   4    7.84    0.88   0
   8   4   5  582.26    4.47   0
   3  -2   3  376.67    4.07   0
   3  -2   5  314.34    4.19   0
   5   0   1   94.09    2.08   0
   7   2   6   12.54    0.98   0
   2  -2   6  161.94    2.92   0
   2  -1   8    2.97    0.96   0
   3  -2   4    3.31    0.74   0
   3   0   9  386.28    4.17   0
   6   1   7  371.01    4.36   0
   7   2   3  162.63    2.96   0
   4   2  10  190.23    2.46   0
   5   3  10   98.08    1.57   0
   7   2   5    6.98    0.90   0
   4  -1   2 1225.84    7.29   0
   4  -1   6   27.06    1.50   0
   5   1   0  372.56    3.62   0
   6   1   2    6.56    0.88   0
   6   2   8   88.73    2.04   0
   6   3   9   53.25    1.29   0
   7   4   8   25.66    0.96   0
   2  -2   5  436.16    4.47   0
   4   0   8   59.69    1.96   0
   6   1   6  437.90    5.16   0
   7   3   7    1.46    0.62   0
   8   5   4    2.79    0.77   0
   8   5   5   28.50    1.17   0
   3  -1   7   39.49    1.72   0
   4  -1   5  112.43    2.71   0
   4   1   9    0.11    0.74   0
   5   0   6    1.55    0.83   0
   5   1   8  180.49    3.16   0
   7   3   2  202.93    3.19   0
   4  -1   4  422.51    4.92   0
   6   1   5   79.41    2.39   0
   5   0   3 1003.23    7.52   0
   5   0   5   18.67    1.35   0
   6   1   4   14.00    1.25   0
   6   2   1   28.30    1.38   0
   7   3   6   35.45    1.56   0
   8   6   5    0.32    0.60   0
   2  -1   7   41.96    1.73   0
   6   4   9   32.38    1.07   0
   7   3   3  436.82    4.93   0
   7   5   8   37.66    1.10   0
   3   0   8  270.15    3.99   0
   4   0   7   33.64    1.76   0
   6   2   7  145.00    2.93   0
   7   3   5   50.03    1.91   0
   4   3  10   38.29    1.28   0
   5   1   1   46.64    1.55   0
   7   3   4  375.69    4.75   0
   7   4   7   30.39    1.26   0
   3   1   9  217.22    3.36   0
   5   1   7   89.42    2.49   0
   3  -1   3 1878.43    8.78   0
   3  -1   5   15.15    1.12   0
   6   2   2   13.09    1.23   0
   6   2   6   12.22    1.28   0
   2   0   8   35.41    1.67   0
   3  -1   4  201.42    3.14   0
   4   0   6    0.67    1.03   0
   5   2   8   28.47    1.54   0
   6   5   9   30.34    1.00   0
   7   4   6   42.94    1.73   0
   4   0   2   60.24    1.70   0
   4   2   9   94.23    2.24   0
   5   1   6  169.04    3.56   0
   7   5   7    0.80    0.69   0
   4   4  10   19.28    0.99   0
   5   1   2   49.96    1.71   0
   6   2   4  433.96    5.45   0
   6   2   5   53.02    2.09   0
   7   4   3    3.27    1.04   0
   3   0   7    1.67    0.89   0
   6   3   7   10.42    1.08   0
   2  -1   5 1034.72    6.85   0
   4   0   3 1698.14    9.10   0
   4   0   4   21.13    1.28   0
   5   1   3    4.11    0.86   0
   6   4   8    5.32    0.79   0
   5   1   4   75.09    2.30   0
   7   6   7   66.47    1.70   0
   3   1   8  190.65    3.52   0
   4   5  10  177.80    2.37   0
   5   2   7  165.54    3.48   0
   5   4   9    1.47    0.58   0
   7   5   6  106.28    2.48   0
   7   7   7   44.58    1.29   0
   2   0   7    1.05    0.98   0
   3   2   9   18.19    1.24   0
   4   3   9   44.65    1.71   0
   5   2   1  119.24    2.35   0
   5   3   8   15.91    1.24   0
   6   3   2  101.61    2.49   0
   6   5   8   60.25    1.79   0
   7   5   3    9.54    1.21   0
   6   3   5  722.87    7.33   0
   6   4   7   65.52    2.22   0
   7   6   6  118.83    2.58   0
   2   2   9  104.80    2.48   0
   4   1   6   29.79    1.72   0
   5   2   6  142.14    3.35   0
   6   3   3  260.06    4.20   0
   3   5  10    0.63    0.67   0
   6   6   8  127.14    2.36   0
   7   8   6   23.19    1.01   0
   6   4   1  926.54    6.74   0
   2   0   6  283.08    3.93   0
   3   0   4  578.25    5.27   0
   3   1   7  383.38    5.08   0
   5   2   2   37.57    1.53   0
   5   2   5  740.79    7.33   0
   5   3   7   35.27    1.92   0
   5   7   9   44.55    1.24   0
   6   4   6  897.45    8.17   0
   6   7   8    1.41    0.50   0
   7   6   3  364.58    4.69   0
   7   6   4  338.60    4.66   0
   3   3   9   38.70    1.72   0
   4   4   9   65.95    2.01   0
   5   2   3   92.16    2.51   0
   5   2   4  466.63    5.66   0
   5   4   8  107.32    2.66   0
   4   1   3  196.27    3.19   0
   4   1   4  282.96    4.08   0
   4   2   7    1.71    0.89   0
   7   7   3   48.32    1.90   0
   4   3   8   10.58    1.36   0
   6   4   2  166.19    3.29   0
   6   4   5    0.35    0.88   0
   2   3   9   50.52    1.92   0
   3   1   6  282.44    4.31   0
   6   4   3    1.99    1.01   0
   6   6   7   14.47    1.20   0
   2   1   7  167.51    3.28   0
   5   3   1   39.73    1.58   0
   5   5   8   34.18    1.60   0
   6   5   1  365.11    4.47   0
   6   5   6  230.44    4.23   0
   3   4   9  519.64    5.43   0
   5   4   7   76.37    2.52   0
   6   7   7   26.94    1.35   0
   6   8   7   24.31    1.10   0
   2   2   8   75.49    2.38   0
   5   3   5  892.29    8.32   0
   5   8   8   80.40    1.79   0
   6   5   5   39.13    2.03   0
   3   1   5  138.84    2.87   0
   4   2   5  641.61    6.66   0
   4   3   7  165.53    3.64   0
   4   4   8   26.56    1.58   0
   5   3   2   75.62    2.17   0
   5   3   4 1115.46    8.94   0
   5   7   8   27.64    1.33   0
   6   5   2  183.01    3.58   0
   6   6   6   85.17    2.63   0
   6   5   3   15.70    1.59   0
   2   4   9    1.16    1.02   0
   3   5   9   54.71    1.89   0
   5   4   6  669.17    7.45   0
   5   5   7  229.55    4.23   0
   6   7   6  171.24    3.47   0
   6   8   6    9.35    1.05   0
   2   1   6  214.86    3.53   0
   4   2   4  422.73    5.12   0
   6   6   5  344.51    5.41   0
   3   6   9    9.17    1.08   0
   4   5   8   96.02    2.70   0
   4   3   6 1136.97    9.37   0
   5   9   7   57.93    1.53   0
   6   9   5    0.12    0.69   0
   1   8  -2   56.46    2.13   0
   2   8   0  106.70    2.75   0
   5   8   1  556.71    5.78   0
   5  10  -4   52.07    1.35   0
   5  10  -3   65.22    1.65   0
   0   7  -3   21.05    1.49   0
   1   6   1  297.01    3.89   0
   1   7   0   84.31    2.35   0
   1   8  -5    1.51    0.92   0
   2   7   1  304.02    4.30   0
   3   9  -1  202.39    3.67   0
   4   8   1  393.98    5.08   0
  -1   5  -2  535.83    4.89   0
   0   7  -4    4.49    1.06   0
   1   8  -3   30.35    1.64   0
   4   6   2    7.96    1.03   0
   6   8   0  345.27    4.27   0
   1   8  -4   15.27    1.30   0
   0   6  -1  143.20    2.76   0
   4   5   2    0.14    0.73   0
   4   9  -1  219.00    3.80   0
   2   8  -1  752.51    7.05   0
   3   9  -2  104.50    2.65   0
   5   7   1  186.97    3.32   0
   5   9  -1  217.81    3.60   0
   6   9  -2  226.63    3.29   0
   1   7  -1    5.66    0.94   0
   3   7   1  760.42    6.70   0
   3   9  -3    2.19    0.81   0
   4   8   0   30.09    1.68   0
   5   8   0  294.82    4.30   0
   0   6  -2   16.71    1.28   0
   1   6   0    0.41    0.56   0
   2   6   1  167.19    2.89   0
   2   7   0  263.14    3.98   0
   3   9  -4   53.89    1.81   0
   4   9  -2  120.44    2.79   0
   5   9  -2  144.94    2.96   0
   6   7   0  137.59    2.76   0
   6   9  -5    0.68    0.50   0
   2   8  -2  933.30    7.80   0
   5   9  -6    8.13    0.67   0
   6   8  -1    4.87    0.98   0
   6   9  -4   28.59    1.18   0
   7   8  -3   33.30    1.25   0
   2   8  -6   16.16    1.15   0
   3   8  -1    1.40    0.95   0
   5   6   1    0.74    0.69   0
   2   8  -3  560.81    6.06   0
   4   9  -5   27.65    1.23   0
   5   9  -3  207.62    3.35   0
   7   8  -4  126.75    2.01   0
   0   5  -1  636.34    5.06   0
   0   6  -3  191.84    3.31   0
   3   6   1  557.87    5.22   0
   5   9  -5   71.59    1.74   0
   5   9  -4   29.40    1.36   0
   1   7  -3   76.40    2.37   0
   2   8  -5    0.55    0.77   0
   3   7   0  371.06    4.72   0
   4   6   1   22.37    1.24   0
   0   6  -5    1.61    1.02   0
   0   6  -4    5.11    1.09   0
   3   8  -7   28.72    1.21   0
   3   8  -2   52.60    2.08   0
   6   8  -2    0.76    0.91   0
   1   6  -1    6.18    0.83   0
   1   7  -5  566.62    5.78   0
   1   7  -4  218.19    3.76   0
   4   7   0   16.58    1.24   0
   2   6   0   72.07    1.95   0
   6   7  -1    1.58    1.00   0
   3   8  -3   55.67    2.15   0
   4   5   1  140.42    2.45   0
   4   8  -2  242.94    4.10   0
   5   8  -2   83.52    2.47   0
   7   7  -3   89.57    2.06   0
   0   5  -2 1039.83    6.64   0
   2   7  -2  245.54    3.97   0
   4   8  -7   88.26    1.89   0
   6   8  -6    2.24    0.52   0
   3   7  -1   34.29    1.58   0
   3   8  -5   14.91    1.30   0
   7   7  -4  100.29    2.06   0
   3   6   0  262.89    3.67   0
   4   8  -3  143.19    3.20   0
   5   6   0  405.54    4.59   0
   6   8  -5   28.94    1.24   0
   7   7  -5   53.25    1.45   0
   2   7  -7  115.29    2.47   0
   4   7  -1   10.54    1.06   0
   4   8  -6   28.52    1.40   0
   5   8  -6   20.52    1.13   0
   5   8  -3  345.23    4.68   0
   4   8  -5   12.46    1.20   0
   4   8  -4   64.42    2.15   0
   5   8  -4  232.71    3.80   0
   6   6  -1  315.83    4.11   0
   6   7  -2   22.83    1.37   0
   0   5  -3  294.76    3.74   0
   2   6  -1  163.36    2.91   0
   5   8  -5    5.15    0.83   0
   7   6  -3   42.05    1.65   0
   1   6  -7  150.78    2.95   0
   2   7  -6   20.25    1.37   0
   2   7  -4    0.28    0.78   0
   3   7  -2    9.51    1.01   0
   5   7  -8  151.78    2.21   0
   5   5   0   99.46    2.25   0
   6   7  -7   75.69    1.67   0
   0   5  -4   19.94    1.35   0
   4   7  -2    0.17    0.74   0
   6   7  -3    1.99    0.86   0
   7   6  -6   31.27    1.17   0
   7   6  -4   84.59    2.10   0
   0   5  -6  233.99    3.61   0
   1   6  -6  213.82    3.69   0
   1   6  -4  719.03    6.55   0
   7   6  -5   44.98    1.54   0
   1   6  -5  353.81    4.72   0
   2   6  -2  215.38    3.48   0
   3   6  -9   25.92    1.15   0
   3   6  -1   24.95    1.30   0
   5   6  -1  175.78    3.21   0
   6   7  -6   39.37    1.47   0
   4   5   0   86.12    2.01   0
   4   6  -1    4.21    1.00   0
   5   7  -7   56.06    1.71   0
   5   7  -3  163.55    3.42   0
   6   6  -2  100.84    2.50   0
   1   5  -2 1078.42    6.85   0
   3   7  -5   30.53    1.67   0
   4   6  -9    3.03    0.63   0
   4   7  -7  154.06    2.93   0
   2   6  -3   -0.09    0.85   0
   4   7  -6  177.21    3.42   0
   4   7  -4  252.22    4.25   0
   5   7  -6    1.03    0.75   0
   5   7  -5   14.42    1.34   0
   7   5  -6  127.06    2.37   0
   7   5  -4   26.10    1.49   0
   3   6  -2   45.01    1.74   0
   4   7  -5   92.39    2.62   0
   6   6  -3   78.49    2.34   0
   7   5  -5  204.01    3.21   0
   6   6  -7   71.95    1.86   0
   2   5  -9  195.34    3.10   0
   4   6  -2  102.51    2.57   0
   5   5  -1  232.09    3.47   0
   5   6  -8  144.86    2.53   0
   6   5  -2    0.36    1.01   0
   2   6  -5   34.10    1.76   0
   4   6  -8   37.27    1.59   0
   6   6  -6  220.82    3.58   0
   6   6  -4  120.46    2.80   0
   1   5  -7  156.33    3.30   0
   3   6  -3  319.89    4.52   0
   6   5  -8   84.45    1.81   0
   0   4  -7  661.61    6.12   0
   1   5  -4  370.29    4.56   0
   2   4 -10  343.87    3.67   0
   3   6  -7  183.78    3.66   0
   5   5  -9  380.62    3.66   0
   7   4  -5    3.04    1.10   0
   0   4  -4  477.30    4.66   0
   1   4  -9  244.42    3.57   0
   1   5  -6  819.14    7.30   0
   2   5  -2  794.08    6.03   0
   4   6  -3  319.04    4.60   0
   5   6  -7   10.52    1.05   0
   1   5  -5  133.15    2.93   0
   3   6  -6   29.53    1.81   0
   4   6  -7   38.83    1.84   0
   5   6  -4  188.84    3.78   0
   6   5  -3   31.82    1.67   0
   0   4  -6    7.84    1.07   0
   0   4  -5  278.03    3.86   0
   2   5  -8   19.46    1.51   0
   4   5  -9    1.11    0.62   0
   5   6  -6   32.63    1.69   0
   5   6  -5  115.00    3.03   0
   4   4 -10   12.14    0.85   0
   4   6  -6  192.47    3.80   0
   5   4  -1  586.67    5.16   0
   6   5  -7    3.45    0.82   0
   1   3 -10  113.58    2.29   0
   2   5  -3  931.07    6.96   0
   3   4 -10  124.97    2.34   0
   3   5  -2   15.14    1.05   0
   6   5  -4   40.13    1.82   0
   5   5  -8  143.10    2.83   0
   1   4  -8  283.85    4.39   0
   2   5  -4  334.51    4.51   0
   3   5  -8  653.03    6.68   0
   4   5  -8   11.83    1.26   0
   5   5  -3  101.79    2.75   0
   2   4  -9    4.22    1.08   0
   0   3  -8  149.93    3.11   0
   3   5  -3  338.38    4.38   0
   5   5  -7   60.23    2.18   0
   2   2 -11   14.84    0.98   0
   3   5  -7  229.79    4.27   0
   4   5  -3  700.47    6.52   0
   1   4  -7  467.86    5.71   0
   3   4  -9  244.02    4.00   0
   4   4  -9  392.77    4.71   0
   4   5  -7   49.72    2.08   0
   5   5  -6   18.39    1.48   0
   5   5  -5  336.50    5.09   0
   6   4  -4  115.10    2.84   0
   1   4  -4  472.92    4.85   0
   3   5  -6  122.48    3.19   0
   3   5  -5   61.07    2.32   0
   4   3 -10   60.45    1.66   0
   6   4  -6   75.55    2.31   0
   0   3  -7    3.11    1.18   0
   1   4  -5    3.63    1.02   0
   3   3 -10   41.61    1.67   0
   4   5  -6   16.94    1.38   0
   5   4  -8   91.77    2.53   0
   1   1 -11   73.85    1.77   0
   5   3  -9   44.82    1.63   0
   4   4  -2  213.05    3.26   0
   6   7   6  173.58    2.84   0
   6   9   5    0.78    0.48   0
   8   6   4   11.94    0.84   0
   2   2   5 1838.19    7.77   0
   5   4   6  661.13    5.81   0
   7   5   5   28.27    1.17   0
   7   8   5   98.73    1.92   0
   8   8   4   30.28    0.95   0
   2   6   5  430.67    4.42   0
   3   4   6   40.16    1.54   0
   5   7   6   33.52    1.49   0
   8   7   4    1.08    0.55   0
   4   1   4  285.90    3.15   0
   4   2   5  632.24    5.11   0
   4   4   6    1.62    0.74   0
   4   9   4   73.58    1.82   0
   5   5   6   73.65    2.19   0
   5  10   3   28.42    1.06   0
   1   5   4  641.94    4.64   0
   2   7   4  324.82    3.72   0
   3   2   5  169.68    2.55   0
   3   7   5    8.59    1.11   0
   4   5   6    2.22    0.74   0
   4   8   5   14.17    1.10   0
   7   4   4   10.73    0.97   0
   7   7   5   53.95    1.54   0
   7   9   4   30.05    1.09   0
   8   5   3   31.27    1.26   0
   2   3   5 2891.77   10.15   0
   3   8   4  136.44    2.58   0
   6   4   5    0.10    0.84   0
   6  10   3   65.02    1.43   0
   2   4   5   15.25    1.01   0
   5   3   5  869.13    6.24   0
   5   9   4   98.87    2.16   0
   5   2   4  455.83    4.25   0
   6   3   4    3.43    0.88   0
   6   9   4   22.67    1.10   0
   3   3   5   88.60    1.92   0
   4   3   5   77.33    1.94   0
   6   5   5   36.71    1.52   0
   6   7   5   87.47    2.20   0
   7   8   4   30.90    1.29   0
   8   6   3    2.73    0.74   0
   8   8   3    4.04    0.57   0
   5   4   5   12.53    1.16   0
   5  10   2   11.30    0.85   0
   6   6   5  327.49    4.18   0
   7   5   4    9.72    0.94   0
   7  10   2  120.47    1.77   0
   2   6   4   72.30    1.84   0
   3   4   5   15.89    1.02   0
   4   9   3   10.04    1.01   0
   8   9   2   27.79    0.90   0
   4   4   5   55.16    1.81   0
   4   8   4   54.27    1.83   0
   5   5   5    4.51    1.02   0
   5   6   5   89.42    2.41   0
   6  10   2    0.13    0.53   0
   7   7   4  417.22    4.35   0
   7   9   3  118.85    2.09   0
   8   5   2   40.99    1.46   0
   2   7   3  487.04    4.46   0
   3   7   4  194.26    3.22   0
   4   2   4  411.49    3.90   0
   6   8   4   -0.53    0.81   0
   7   4   3    3.61    0.86   0
   3   8   3  671.57    5.54   0
   5   8   4   28.12    1.52   0
   2   5   4   25.18    1.14   0
   6   9   3   22.04    1.21   0
   7  10   1    2.15    0.52   0
   8   8   2    1.00    0.58   0
   5  10   1    5.19    0.76   0
   8   9   1   17.89    0.82   0
   6   7   4   68.08    2.07   0
   7   8   3  130.38    2.48   0
   8   6   2    9.59    0.84   0
   4   7   4  234.52    3.69   0
   4   9   2    4.56    0.95   0
   5   2   3   92.74    1.97   0
   6   3   3  238.18    3.22   0
   6   6   4  172.90    3.19   0
   6  10   1   16.53    0.92   0
   7   5   3   10.36    1.05   0
   7   9   2   34.14    1.30   0
   3   3   4  230.98    2.89   0
   4   3   4  522.71    4.61   0
   4   8   3  506.57    5.28   0
   7  10   0    0.59    0.45   0
   8   5   1  173.02    2.68   0
   2   6   3  114.23    2.21   0
   3   4   4    0.16    0.50   0
   4   6   4  366.33    4.51   0
   5   5   4   16.23    1.27   0
   5   6   4  133.03    2.83   0
   6   8   3  122.53    2.69   0
   8   8   1  148.71    2.37   0
   8   9   0   97.90    1.64   0
   2   7   2  131.88    2.41   0
   3   8   2 1324.61    7.85   0
   5   9   2   52.24    1.81   0
   6   9   2   35.47    1.44   0
   7   4   2   33.72    1.48   0
   4   5   4    2.18    0.72   0
   6   4   3    2.61    0.87   0
   6  10   0   18.65    0.96   0
   8   6   1   51.59    1.64   0
   7   8   2  217.46    3.31   0
   7   9   1   17.59    1.07   0
   8   9  -1   14.60    0.74   0
   2   5   3   80.89    1.84   0
   6   7   3  107.32    2.62   0
   5  10  -1    3.98    0.70   0
   6   5   3   14.16    1.12   0
   7   5   2   62.65    1.94   0
   8   5   0  119.12    2.34   0
   8   8   0   48.88    1.48   0
   5   7   3   72.36    2.23   0
   6   3   2   93.67    2.14   0
   6  10  -1  250.31    2.84   0
   7   6   2   21.35    1.37   0
   7   7   2  439.74    4.89   0
   4   8   2   49.42    1.92   0
   6   8   2  656.63    6.23   0
   6   9   1  180.86    3.11   0
   5   9   1    8.50    1.00   0
   6  10  -2  130.34    1.99   0
   7   9   0   43.59    1.49   0
   8   6   0  123.98    2.48   0
   3   8   1   67.50    2.00   0
   4   3   3  111.69    2.11   0
   4   6   3   23.00    1.39   0
   5   6   3   15.38    1.14   0
   7   8   1  252.53    3.67   0
   8   8  -1   89.85    1.92   0
   2   6   2   17.55    1.04   0
   3   7   2  285.53    3.88   0
   5   5   3    0.16    0.72   0
   8   5  -1  247.62    3.34   0
   2   7   1  297.18    3.58   0
   3   4   3   20.07    1.00   0
   4   4   3   21.41    1.17   0
   4   5   3    0.24    0.66   0
   4   9   0   28.58    1.43   0
   6   7   2  165.58    3.32   0
   7   5   1   14.98    1.27   0
   7   7   1  174.59    3.24   0
   7   9  -1   99.90    2.10   0
   8   8  -2    3.58    0.66   0
   6   6   2   13.78    1.20   0
   6   9   0   31.82    1.43   0
   7   6   1   20.60    1.43   0
   8   6  -1  124.84    2.50   0
   4   7   2  476.70    5.34   0
   5   7   2   64.37    2.14   0
   5   9   0   99.82    2.41   0
   6   8   1  163.44    3.27   0
   7   8   0  493.78    5.18   0
   8   5  -2  134.40    2.52   0
   8   8  -3   14.35    0.80   0
   4   8   1  393.61    4.85   0
   6   3   1   19.88    1.26   0
   7   9  -2  150.82    2.45   0
   4   9  -1  214.48    3.32   0
   5   8   1  540.03    5.87   0
   7   4   0  686.39    6.05   0
   3   8   0  294.64    3.96   0
   5   6   2   49.02    1.84   0
   6   9  -1  291.00    3.94   0
   7   9  -3   84.08    1.74   0
   8   5  -3   46.51    1.56   0
   8   6  -2  122.62    2.48   0
   4   6   2    9.17    1.09   0
   5   4   2   46.61    1.62   0
   6   7   1  294.57    4.50   0
   7   7   0   49.36    1.89   0
   8   7  -4    6.53    0.75   0
   3   7   1  762.90    6.37   0
   5   9  -1  217.15    3.48   0
   6   8   0  350.80    4.85   0
   7   5   0    8.26    1.19   0
   7   8  -1  212.53    3.43   0
   8   6  -3   58.84    1.77   0
   2   7   0  270.26    3.54   0
   7   6   0  228.54    3.83   0
   8   6  -4  125.70    2.22   0
   2   6   1  168.28    2.72   0
   3   5   2  486.66    4.61   0
   5   7   1  187.18    3.65   0
   6   5   1  353.79    4.63   0
   6   6   1  111.05    2.79   0
   6   9  -2  233.87    3.46   0
   4   4   2  595.86    5.10   0
   4   8   0   29.30    1.58   0
   5   8   0  296.52    4.52   0
   7   8  -2  255.23    3.69   0
   5   9  -2  141.96    2.82   0
   6   9  -3   47.02    1.61   0
   7   4  -1  279.76    4.13   0
   7   7  -1   68.00    2.24   0
   3   8  -1    2.46    1.04   0
   4   9  -3   68.15    1.94   0
   6   3   0  128.56    2.67   0
   6   7   0  140.81    3.30   0
   6   8  -1    6.15    1.18   0
   4   9  -4   21.05    1.20   0
   5   6   1    1.29    0.93   0
   5   9  -3  212.85    3.32   0
   7   5  -1   45.30    2.00   0
   7   6  -1    6.80    1.10   0
   7   8  -5  101.00    1.87   0
   3   6   1  571.80    5.45   0
   7   8  -4  127.79    2.33   0
   4   6   1   22.88    1.44   0
   6   6   0  196.99    3.83   0
   3   7   0  375.34    4.65   0
   4   8  -1   38.01    1.79   0
   5   4   1 1550.79    8.84   0
   5   5   1  136.67    2.91   0
   5   8  -1  356.33    5.05   0
   6   4   0   98.10    2.47   0
   7   4  -2  263.68    4.19   0
   6   5   0  758.49    7.01   0
   6   8  -2    0.78    0.85   0
   7   6  -2   21.50    1.64   0
   7   5  -2  247.71    4.32   0
   7   7  -6    3.09    0.65   0
   6   8  -6    1.74    0.66   0
   6   8  -3   58.60    2.09   0
   7   7  -5   54.22    1.76   0
   4   4   1  252.10    3.47   0
   6   3  -1    3.02    0.94   0
   7   4  -3   56.26    2.15   0
   7   6  -3   43.86    2.02   0
   2  -2   5  414.10    3.99   0
   5  -1   1    2.08    0.69   0
   5  -1   5  201.49    3.36   0
   7   1   5   19.45    1.09   0
   8   3   1   67.33    1.56   0
   5   0   7   73.63    1.96   0
   6   0   5   40.28    1.64   0
   3  -2   2  380.32    3.61   0
   3  -2   4    2.90    0.68   0
   4  -1   6   27.12    1.37   0
   5  -1   4  347.30    4.40   0
   5   1   8  179.21    2.72   0
   6   1   7  374.38    3.94   0
   7   1   2    2.15    0.78   0
   7   1   4   92.74    2.22   0
   3  -2   3  378.86    3.84   0
   4  -1   0  221.47    2.64   0
   5  -1   3  412.15    4.65   0
   7   2   0   41.08    1.38   0
   8   3   5   28.84    1.07   0
   6   0   3   22.68    1.38   0
   6   0   4    1.22    0.79   0
   8   3   2  107.43    2.06   0
   7   2   6   13.51    0.94   0
   8   4   6    8.72    0.68   0
   3  -1   6   41.04    1.55   0
   4   0   7   32.20    1.53   0
   5   0   6    1.82    0.80   0
   5   3   9    3.83    0.67   0
   7   3   7    2.56    0.63   0
   8   3   3    0.49    0.57   0
   4   1   8   63.12    1.83   0
   5   0   0    8.10    0.77   0
   6   1   0  165.25    2.63   0
   6   1   6  429.30    4.76   0
   8   4   1   42.87    1.45   0
   4  -1   2 1259.18    7.17   0
   4  -1   4  444.17    4.77   0
   7   2   1    4.48    0.88   0
   7   2   5    6.73    0.88   0
   2   0   7    0.93    0.67   0
   3   0   7    1.01    0.74   0
   3   1   8  195.00    3.00   0
   4  -1   3  193.85    3.04   0
   5   0   5   20.37    1.27   0
   6   2   7  149.15    2.68   0
   8   4   5  590.46    4.62   0
   8   5   6  139.85    2.04   0
   5   4   9    1.20    0.60   0
   7   2   2   12.91    1.18   0
   7   2   4  310.62    4.14   0
   2  -1   5 1045.58    6.24   0
   4   0   6    1.70    0.75   0
   5   0   4  362.01    4.62   0
   6   1   1   62.94    1.84   0
   7   3   6   35.57    1.46   0
   8   4   2   -0.43    0.73   0
   8   4   4    5.86    0.84   0
   5   0   2  144.10    2.74   0
   6   1   4   16.10    1.26   0
   7   3   0   42.04    1.50   0
   7   4   7   27.69    1.10   0
   8   4   3   30.59    1.35   0
   5   0   3 1014.33    7.37   0
   5   5   9   25.97    1.03   0
   6   1   3   74.74    2.27   0
   8   6   6   11.28    0.72   0
   3  -1   3 1851.42    8.32   0
   6   2   6   12.32    1.22   0
   8   5   1  159.86    2.54   0
   8   5   5   31.66    1.25   0
   4   1   7  160.37    3.01   0
   4   2   8  113.26    2.39   0
   7   3   5   51.98    1.89   0
   4   0   5  258.47    3.81   0
   7   3   1   19.21    1.31   0
   7   5   7    0.29    0.48   0
   8   5   4    4.00    0.80   0
   3   2   8   96.58    2.26   0
   6   2   0  120.07    2.37   0
   6   2   5   57.02    2.11   0
   7   3   4  393.09    4.90   0
   7   4   6   44.94    1.63   0
   8   5   2   40.31    1.52   0
   8   5   3   32.19    1.42   0
   8   6   5    0.89    0.60   0
   3   1   7  370.66    4.32   0
   4   0   4   20.65    1.23   0
   5   1   0  362.52    3.74   0
   5   1   5  179.50    3.41   0
   6   5   8   59.85    1.48   0
   7   3   2  202.69    3.50   0
   7   3   3  438.29    5.21   0
   2   1   7  165.84    2.76   0
   7   6   7   65.76    1.54   0
   8   6   1   49.77    1.52   0
   4   0   2   60.30    1.64   0
   4   0   3 1701.40    8.90   0
   6   2   1   26.55    1.44   0
   6   2   4  436.75    5.42   0
   6   6   8  126.82    2.03   0
   7   4   0  704.46    5.65   0
   8   7   5  145.40    2.22   0
   4   3   8   10.99    1.13   0
   5   1   1   49.19    1.64   0
   5   1   4   74.98    2.23   0
   6   3   6   77.05    2.32   0
   6   4   7   63.30    1.97   0
   7   4   5  515.43    5.59   0
   7   7   7   39.85    1.12   0
   8   6   4   12.85    0.95   0
   4   2   7    2.30    1.02   0
   5   1   3    3.90    0.97   0
   5   2   6  143.34    3.11   0
   6   2   3  213.20    3.74   0
   7   5   6  113.57    2.48   0
   8   6   2    7.50    1.00   0
   8   6   3    1.98    0.82   0
   5   1   2   56.30    1.80   0
   3   0   4  582.21    5.03   0
   7   4   4   11.60    1.29   0
   8   7   4    0.88    0.66   0
   3   1   6  289.36    3.91   0
   3   3   8  205.28    3.26   0
   4   1   5   69.35    2.11   0
   6   3   5  724.00    7.11   0
   7   4   1   18.93    1.30   0
   8   7   2   10.73    0.99   0
   8   7   3   80.06    2.00   0
   5   5   8   33.94    1.35   0
   6   5   7  316.83    4.06   0
   7   4   2   32.21    1.76   0
   7   4   3    3.99    1.02   0
   7   6   6  116.61    2.46   0
   8   8   2    0.56    0.66   0
   8   8   3    4.42    0.74   0
   4   4   8   28.74    1.46   0
   5   2   5  740.76    7.01   0
   7   5   5   30.94    1.57   0
   6   3   0  129.46    2.61   0
   6   4   6  873.90    7.54   0
   7   5   0    7.51    1.08   0
   2   1   6  216.05    3.11   0
   4   1   4  294.91    4.02   0
   5   6   8   45.91    1.54   0
   6   3   4    3.62    0.95   0
   7   7   6  113.46    2.26   0
   7   8   6   23.53    0.99   0
   4   3   7  171.10    3.32   0
   5   2   4  477.23    5.61   0
   5   3   6    8.43    1.16   0
   5   7   8   27.00    1.11   0
   6   6   7   15.49    1.11   0
   7   5   4   10.48    1.31   0
   3   4   8   75.27    2.14   0
   5   2   0   76.34    1.90   0
   6   3   1   20.40    1.34   0
   6   3   3  241.34    4.17   0
   7   6   5   45.67    1.88   0
   4   1   3  195.36    3.14   0
   4   5   8   99.51    2.38   0
   6   7   7   26.50    1.23   0
   7   5   1   16.86    1.42   0
   7   5   3   10.03    1.37   0
   5   2   1  125.18    2.58   0
   5   2   3   95.06    2.50   0
   6   5   6  231.28    3.98   0
   7   5   2   62.35    2.24   0
   5   2   2   36.86    1.60   0
   7   7   5   53.04    1.92   0
   7   9   5    8.08    0.70   0
   4   2   5  649.07    6.32   0
   4   6   8   16.72    1.22   0
   4   7   8   41.95    1.48   0
   5   3   5  897.95    8.02   0
   7   6   0  255.66    3.78   0
   7   6   4  367.96    5.12   0
   7   8   5   96.53    2.24   0
   3   2   6  215.66    3.50   0
   3   3   7   61.92    2.11   0
   6   4   4   33.67    1.83   0
   4   4   7  290.12    4.33   0
   6   4   0   96.51    2.53   0
   6   6   6   85.72    2.51   0
   7   6   3  358.38    5.22   0
   6   9   6    6.34    0.72   0
   7   6   1   23.00    1.54   0
   7   6   2   20.42    1.67   0
   7   7   4  443.00    5.52   0
   5   3   4 1137.05    8.96   0
   6   4   3    1.85    0.97   0
   7   7   0   47.98    1.89   0
   7   9   4   30.58    1.30   0
   4   2   4  424.94    4.99   0
   5   8   7  111.48    2.32   0
   6   4   1  915.11    7.71   0
   6   8   6    9.68    1.00   0
   7   8   4   33.91    1.58   0
   2   2   6 2462.31   10.80   0
   7   7   3   47.14    2.05   0
   7   8   0  482.43    4.87   0
   6   5   4   42.52    2.16   0
   7   7   1  161.49    3.37   0
   7   7   2  429.88    5.66   0
   7   9   3  121.70    2.60   0
   3   4   7 1746.50   10.23   0
   4   5   7   51.62    1.99   0
   5   3   0  252.70    3.60   0
   5   3   3  763.46    7.15   0
   5   4   5   13.23    1.38   0
   6   6   5  338.66    5.19   0
   7   8   3  126.42    2.98   0
   7   9   1   16.55    1.22   0
   4   2   3   34.18    1.49   0
   5   3   2   76.74    2.36   0
   7   8   1  250.08    3.98   0
   7   8   2  212.08    3.88   0
   7   9   2   34.40    1.58   0
   3   3   6  223.82    3.74   0
   4   3   5   73.95    2.33   0
   5   3   1   40.46    1.67   0
   6   5   3   14.69    1.65   0
   4   6   7   48.34    2.00   0
   6   5   0  790.56    7.16   0
   6   7   5   91.11    2.73   0
   6   9   5    0.93    0.68   0
   2   4   7    1.39    1.12   0
   4   8   7    1.07    0.92   0
   5   4   4   46.89    2.12   0
   5   6   6    0.36    0.80   0
   6   6   4  180.08    4.09   0
   6   8   5    0.49    0.78   0
   4   7   7  142.79    3.02   0
   6  10   4   19.18    1.02   0
   3   5   7  712.27    6.76   0
   5   5   5    5.29    1.18   0
   5   7   6   30.86    1.77   0
   6   6  -1  321.44    4.48   0
   4   3   4  534.90    5.85   0
   5   8   6  196.29    3.52   0
   6   6   3   59.92    2.64   0
   6   7   4   76.88    2.81   0
   5   4   3  204.77    4.00   0
   5  10   5   30.92    1.23   0
  -2   2   6    9.38    1.17   0
   0   7   8   31.02    1.31   0
   4   7   8   41.40    1.61   0
   0   1   6  279.24    3.96   0
   1   2   7  159.70    3.39   0
   1   8   8   63.37    1.64   0
   2   4   8   86.57    2.70   0
   3   2   5  165.93    3.04   0
   3   5   8  621.36    6.61   0
   0   6   8  133.66    2.92   0
   0   5   8  129.50    3.08   0
   0   8   7    3.85    0.80   0
   1   4   8  694.85    7.31   0
   2   2   6 2419.39   11.80   0
   2   8   8    4.01    0.70   0
   3   6   8  101.17    2.79   0
   4   4   6    1.98    1.12   0
   5   6   6    1.26    1.05   0
  -2   3   6    6.02    1.14   0
   1   7   8   17.43    1.29   0
   2   3   7 1111.78    8.74   0
   2   5   8  171.30    3.73   0
   3   4   7 1691.44   10.82   0
   3   7   8  111.85    2.70   0
   4   9   7    7.56    0.80   0
   5   5   5    3.83    1.23   0
  -1   6   7  518.68    5.17   0
   1   5   8  211.82    4.04   0
   3   3   6  211.05    3.69   0
  -1   4   7   26.05    1.67   0
   1   6   8   22.96    1.49   0
   2   6   8   40.79    1.87   0
   2   7   8   37.71    1.68   0
   4   3   4  546.47    5.20   0
  -1   5   7   52.25    1.99   0
   4   8   7    0.91    0.83   0
   4  10   6   70.37    1.58   0
   5   7   6   32.51    1.56   0
   1   2   6   36.81    1.58   0
   2   9   7    2.41    0.63   0
   3   9   7   36.29    1.37   0
   4   7   7  137.96    3.00   0
   2   4   7    1.40    0.99   0
   3   5   7  665.05    6.85   0
   0   7   7   98.81    2.45   0
   4   4   5   54.33    2.05   0
   4   5   6    1.49    0.94   0
  -1   7   6  265.65    3.55   0
   1   4   7   14.97    1.49   0
   3  10   6   93.28    1.84   0
   5   5   4   16.39    1.47   0
   5   6   5   87.08    2.54   0
   0   6   7  187.07    3.72   0
   2   3   6  747.89    6.69   0
   3   4   6   38.59    1.81   0
   3   6   7   39.55    1.90   0
   3   8   7  177.82    3.33   0
   2   5   7    5.32    1.02   0
   2   8   7    4.77    0.90   0
   3   7   7   30.60    1.68   0
   4   9   6   47.36    1.71   0
   1   5   7    2.34    1.17   0
   1   7   7  284.88    4.49   0
   5   7   5  195.20    3.62   0
   5   9   5   11.64    1.03   0
   0   8   6   23.32    1.36   0
   1   6   7  108.99    3.04   0
   5   8   5   32.82    1.67   0
  -1   4   6   46.40    1.92   0
  -1   6   6  255.50    3.99   0
   0   9   5   21.55    1.10   0
   4   8   6    1.32    0.83   0
   5  10   4    1.25    0.73   0
  -1   5   6   10.77    1.38   0
   3   5   6   78.05    2.46   0
   3   9   6    7.72    1.04   0
   4   4   4   41.89    1.76   0
   4   5   5   34.48    1.76   0
   4  10   5  244.95    3.22   0
   2   4   6   55.09    2.03   0
   5   6   4  131.07    3.00   0
   2  10   5   60.53    1.68   0
   0   7   6   15.64    1.48   0
   3   4   5   16.79    1.30   0
   3   6   6  258.40    4.47   0
   3   8   6   34.73    1.84   0
   3  10   5    2.60    0.68   0
   1   4   6    5.60    1.02   0
   1   8   6    4.47    0.96   0
   3   7   6  314.10    5.03   0
   5   7   4   69.54    2.40   0
   5   9   4   99.75    2.50   0
  -1   3   5  339.77    4.27   0
  -1   7   5  182.10    3.33   0
   2   5   6   17.77    1.37   0
   2   8   6   76.38    2.46   0
   4   6   5  368.01    4.99   0
   4   9   5  123.33    2.81   0
   5  10   3   27.79    1.33   0
  -1   8   4  270.74    3.60   0
   1   3   5   85.82    2.24   0
   1   5   6   -0.49    0.83   0
   1   9   5   53.02    1.82   0
   2   6   6  414.17    5.74   0
   2   7   6  135.34    3.38   0
   4   8   5   13.87    1.34   0
   4  10   4  458.33    4.81   0
   0   8   5  271.70    4.10   0
   1   6   6  158.05    3.61   0
   3  11   3   24.76    1.06   0
   4   5   4    1.41    1.03   0
   5   6   3   15.61    1.48   0
  -1   4   5   36.30    1.77   0
  -1   6   5  252.75    4.24   0
   0   9   4   77.21    2.04   0
   3   9   5   53.07    2.02   0
   2   4   5   12.58    1.04   0
   3  10   4   13.99    1.11   0
   5   9   3   36.37    1.77   0
   3   6   5  298.77    4.66   0
   3   8   5   10.91    1.32   0
   5   7   3   70.78    2.34   0
  -1   9   2   20.00    1.20   0
   0   7   5  105.98    2.96   0
   1   4   5    7.46    0.97   0
   3   7   5    9.88    1.22   0
   4   6   4  326.69    4.60   0
   5   8   3   73.16    2.39   0
   1  10   3   21.68    1.20   0
   2   5   5   12.91    1.21   0
   2   8   5   32.53    1.81   0
   4  10   3  118.14    2.68   0
   1   9   4   43.56    1.90   0
   3  11   2    3.76    0.62   0
   1   5   5   14.63    1.30   0
   1   7   5   50.21    2.22   0
   2   7   5  173.92    3.85   0
   3   9   4   12.22    1.40   0
  -1   8   3   67.29    2.10   0
   0   8   4   83.07    2.53   0
   1   6   5    2.91    1.04   0
   5   9   2   47.79    1.99   0
   0   9   3    4.81    0.91   0
   2   9   4   28.04    1.64   0
   2  10   3    9.29    0.97   0
   3   5   4   10.94    1.06   0
   3  10   3   57.53    1.98   0
   5  10   1    4.54    1.01   0
  -2   6   3  321.63    4.31   0
  -1   6   4   24.86    1.73   0
   0  10   1  117.07    2.09   0
   2  11   1   43.11    1.33   0
   5   7   2   64.27    2.25   0
   5   8   2  217.64    3.97   0
  -1   4   4 1127.31    7.82   0
   2   4   4  340.13    4.07   0
   3   8   4  134.08    3.39   0
   3  11   1    0.63    0.61   0
  -1   5   4  140.18    3.10   0
   1   8   4  189.56    3.93   0
   1  10   2   63.68    1.88   0
   3   6   4   32.20    1.64   0
   3   7   4  183.17    3.87   0
   4   6   3   21.55    1.49   0
   4  11   0   34.95    1.27   0
   5  10   0   83.74    2.07   0
  -2   5   3  261.93    3.91   0
   1   9   3    8.69    1.26   0
   5   9   1    9.50    1.29   0
  -1   7   3  843.58    7.52   0
   2   5   4   28.88    1.45   0
   2   7   4  321.36    5.09   0
   2  11   0   12.04    0.79   0
   3   9   3   95.81    2.83   0
   3  10   2   10.95    1.22   0
   0   9   2   85.47    2.37   0
   0  10   0   16.24    0.97   0
   1   7   4    7.28    1.16   0
   2  10   2    5.21    0.90   0
   3  11   0   10.43    0.81   0
   4   5   2    1.12    0.89   0
   5   7   1  192.69    3.61   0
   5  10  -1    3.76    0.89   0
   1   5   4  647.52    6.21   0
   1   6   4   36.82    1.89   0
   5   8   1  567.34    6.13   0
  -1   9   0  108.15    2.17   0
   1  10   1    8.32    0.88   0
   3   8   3  636.11    7.09   0
   5   9   0  101.46    2.63   0
  -2   6   2   77.35    2.30   0
  -1   6   3  188.88    3.66   0
   1   8   3  402.19    5.67   0
   4   6   2    9.40    1.15   0
   3   6   3   61.06    2.01   0
   3   7   3  138.41    3.22   0
   0  -5   0   52.87    1.58   0
   1  -6   1  235.80    3.84   0
   1  -5   0    5.20    0.87   0
   3  -6   6   66.16    1.76   0
   6  -2   3  189.21    3.11   0
   0  -7   4    3.67    1.05   0
   1  -7   5   93.43    2.37   0
   2  -6   2  454.26    5.61   0
   3  -6   4   14.62    1.14   0
   3  -6   5  307.14    4.07   0
   5  -4   6   50.09    1.41   0
  -1  -6   2  530.74    5.03   0
   0  -7   5    6.50    1.09   0
   4  -5   4   -0.00    0.86   0
   4  -5   6   58.21    1.68   0
   5  -3   2   15.82    1.34   0
   5  -2   1    5.83    1.04   0
   4  -5   5   34.48    1.47   0
   6  -2   4   57.05    1.82   0
   1  -6   8   17.91    1.05   0
   4  -2   0  198.76    3.11   0
   1  -6   2  142.21    3.06   0
   2  -6   3  211.74    3.89   0
   2  -5   1  831.91    7.08   0
   2  -4   0   17.42    1.08   0
   3  -5   2  191.38    3.68   0
   4  -4   2  291.01    4.41   0
   6  -2   5   39.17    1.50   0
   6  -2   6   21.59    1.09   0
   3  -5   8   63.64    1.51   0
  -1  -6   3  805.37    6.32   0
   2  -6   4  122.40    2.99   0
   2  -6   6  158.33    3.09   0
   3  -4   1  472.14    5.34   0
   4  -3   1  165.24    3.16   0
   5  -3   3   12.39    1.19   0
   6  -1   3  133.17    2.73   0
   2  -6   5  175.49    3.44   0
   4  -4   8  272.56    3.02   0
   5  -1   1    0.95    0.90   0
   1  -6   3   77.34    2.35   0
   4  -4   3  112.01    2.90   0
   5  -2   2   34.48    1.70   0
   0  -6   3  188.91    3.36   0
   1  -6   7    2.60    0.78   0
   2  -5   2  544.05    5.93   0
   5  -3   7  116.07    2.22   0
   0  -6   7  287.83    3.90   0
   1  -6   4   39.84    1.82   0
   3  -5   4  119.49    3.01   0
  -1  -6   5  354.90    4.46   0
   1  -5   9   26.00    1.17   0
   3  -5   5  450.40    5.60   0
   3  -5   6  345.71    4.63   0
   4  -4   4    1.14    0.88   0
   4  -4   7  157.39    2.79   0
   5  -3   6   96.68    2.30   0
   6  -1   4    5.93    1.11   0
   0  -6   4    4.69    0.97   0
   2  -4   1  616.10    5.60   0
   3  -4   2  435.90    5.29   0
   6  -1   7   95.88    1.98   0
   0  -6   5    2.27    0.90   0
   0  -6   6  153.77    3.09   0
   1  -5   2  515.92    5.34   0
   4  -4   6   31.44    1.53   0
   4  -3   9  244.68    2.79   0
   4  -2   1  593.36    5.44   0
   6  -1   5  107.58    2.52   0
   0  -5   2 1006.74    6.80   0
   2  -5   3  129.41    3.06   0
   3  -3   1    9.33    0.95   0
   6  -1   6   57.25    1.83   0
   5  -1   2  603.78    5.68   0
   2  -5   4   45.54    2.08   0
   5  -2   8   16.28    1.00   0
  -1  -5   3 1471.82    7.87   0
   2  -5   7  173.12    3.37   0
   3  -4   3   94.46    2.67   0
   4  -3   3  385.19    5.14   0
   1  -5   8   -0.04    0.74   0
   2  -5   5    0.75    0.86   0
   2  -5   6   49.90    2.08   0
   3  -4   8   74.03    2.06   0
   5  -2   4  228.02    3.97   0
   6   0   4    1.18    1.01   0
   6   0   8  507.62    4.12   0
   0  -5   3  297.69    3.95   0
   0  -5   8  659.53    5.96   0
   4  -3   8  187.01    3.09   0
   4  -1   1  170.34    2.76   0
   3  -4   4  807.07    7.73   0
   4  -2   2  521.31    5.41   0
   5  -2   7  145.61    2.87   0
   1  -5   4  207.59    3.75   0
   1  -5   7   29.43    1.78   0
   3  -4   7  110.01    2.81   0
   5  -1   9  134.05    2.22   0
   6   0   5   39.60    1.81   0
   6   0   7   17.78    1.24   0
   3  -4   5  359.72    5.30   0
   3  -4   6  275.64    4.60   0
   4  -3   5    1.97    1.15   0
   4  -3   7  168.41    3.35   0
   5  -1   3  419.30    5.04   0
   5   0   2  147.06    2.76   0
  -1  -5   5  136.35    2.83   0
   0  -5   4   19.90    1.29   0
   0  -5   7  476.62    5.55   0
   1  -4   2  118.22    2.39   0
   4  -3   6  263.50    4.47   0
  -1  -5   6  816.65    6.76   0
   3  -3   9  165.48    2.95   0
   0  -5   5   29.44    1.57   0
   0  -5   6  226.11    3.90   0
   1  -4   9  379.15    4.56   0
   2  -4   8  204.21    3.72   0
   4  -2   9    0.42    0.61   0
   0  -4   9  110.43    2.57   0
   3  -3   3  108.07    2.70   0
   5  -1   4  349.85    4.92   0
   5  -1   8   93.44    2.33   0
   6   1   8   44.04    1.52   0
   2  -4   4   31.39    1.65   0
   1  -4   3  466.62    4.94   0
   2  -4   7    9.51    1.26   0
   2  -3   2   90.60    2.11   0
   3  -2  10   15.17    1.02   0
   4  -1   2 1225.88    7.66   0
   6   1   5   81.90    2.42   0
   2  -4   6  121.50    3.24   0
   3  -3   8  175.77    3.54   0
   4  -2   8  132.09    2.99   0
   5  -1   7    5.54    1.09   0
   6   1   7  383.82    4.58   0
   1  -3  10  446.79    4.58   0
   1  -2  11    0.34    0.66   0
   3  -3   4  315.53    4.76   0
   3  -2   2  381.27    4.26   0
   5   0   3 1011.37    7.47   0
   5   0   9   71.58    1.90   0
   6   1   6  431.69    5.13   0
   0  -3  10   25.93    1.38   0
   0  -4   8    1.60    1.12   0
   1  -4   4   52.21    1.86   0
   2  -3   9    7.52    1.02   0
   3  -3   5  363.25    5.36   0
   3  -3   6   11.97    1.30   0
   4  -2   5   95.92    2.84   0
   4  -2   6  313.59    5.09   0
   4  -2   7  254.23    4.45   0
   6   2   8   88.51    2.17   0
   1  -4   5  485.39    5.75   0
   2  -3   3    0.42    0.61   0
   4  -1   9   18.85    1.34   0
  -1  -4   7  471.39    5.33   0
   0  -4   4  457.06    4.79   0
   3  -2   9    9.34    1.07   0
   4  -1   3  196.83    3.38   0
   5   0   4  364.49    4.88   0
   0  -4   7  640.07    6.67   0
   2  -3   8   43.85    2.05   0
   2  -2  10    2.51    0.76   0
   3  -2   3  381.27    4.57   0
   6   2   6   11.92    1.35   0
   6   2   7  147.93    3.04   0
  -1  -4   5    3.82    0.89   0
  -1  -4   6  298.82    4.16   0
   0  -4   5  274.12    4.04   0
   1  -3   9  677.82    6.75   0
   2  -3   4   59.49    2.10   0
   4   0  10   40.11    1.45   0
   5   0   5   20.12    1.64   0
   5   1   3    3.05    1.04   0
   3  -1  10  114.92    2.57   0
   3   0  11  107.49    2.05   0
   4  -1   8  157.49    3.55   0
   5   0   6    1.77    1.22   0
   6   3   8  107.24    2.36   0
   0  -3   9   21.40    1.57   0
   2  -3   7  277.51    4.84   0
   3  -2   8   79.38    2.64   0
   2  -3   6    1.35    0.94   0
   3  -2   4    2.30    0.80   0
   1  -2  10    1.38    0.81   0
   1  -1  11  112.19    2.30   0
   3  -2   7   11.30    1.35   0
   4  -1   7    0.38    0.90   0
   6   3   7   10.33    1.33   0
   0  -1  11    7.96    0.98   0
   2  -2   9   32.64    1.79   0
   3  -2   5  302.63    4.74   0
   4  -1   6   28.48    1.75   0
   4   2  11   14.19    0.77   0
   6   3   6   77.19    2.37   0
   4   0   9  183.05    3.54   0
   5   1   4   84.69    2.41   0
   5   3  10   99.55    1.93   0
  -1  -3   8    3.43    1.21   0
   0  -3   8  153.98    3.51   0
   1  -3   4  346.83    4.25   0
   3  -1   9  111.64    2.94   0
   4   0   3 1685.31    9.11   0
   4   1  10   85.09    2.15   0
   5   1   5  173.52    3.62   0
   1  -3   5  567.19    5.91   0
   1  -3   6  310.45    4.75   0
   2  -1  10  106.77    2.66   0
   2   0  11  102.65    2.21   0
   3   1  11    0.30    0.53   0
   5  -4  -4  120.49    2.30   0
   5  -2  -5  115.59    2.52   0
   5   0  -5   84.58    2.12   0
   8   0  -2   62.17    1.35   0
   1  -4  -4 1108.45    6.55   0
   2  -5  -4  521.14    4.94   0
   3  -6  -3   46.46    1.49   0
   4  -3  -5  202.55    3.31   0
   4   0  -5    0.70    0.62   0
   5  -1  -5    1.06    0.69   0
   7  -3  -2   52.56    1.18   0
   7   2  -3   78.59    1.86   0
   8   1  -2   30.81    1.08   0
   2  -6  -3  317.78    3.67   0
   3  -3  -5    1.87    0.67   0
   4  -6  -2   12.03    0.87   0
   3  -2  -5   86.72    2.09   0
   4  -1  -5   29.43    1.32   0
   6  -2  -4  144.77    2.58   0
   7  -1  -3   29.58    1.18   0
   4  -4  -4  244.98    3.54   0
   5  -3  -4  203.00    3.23   0
   6  -4  -2   65.06    1.49   0
   6  -1  -4  367.50    4.22   0
   7   1  -3  222.23    3.06   0
   1  -5  -3   19.94    1.10   0
   4  -5  -3   65.62    1.85   0
   4   1  -4  506.04    4.36   0
   5  -5  -2    9.80    0.77   0
   5   1  -4   37.10    1.44   0
   6  -3  -3  184.50    2.72   0
   8   2  -1   74.04    1.57   0
   3  -4  -4   14.75    1.14   0
   7  -3  -1    8.20    0.57   0
   3  -6  -2   68.37    1.78   0
   4  -6  -1   23.55    1.07   0
   5  -4  -3   41.30    1.46   0
   6   2  -3   18.78    1.06   0
   8   0  -1    8.41    0.69   0
   8   1  -1   94.35    1.75   0
   2  -6  -2   81.42    1.93   0
   2  -2  -4  497.81    4.13   0
   5  -2  -4   55.83    1.80   0
   5   0  -4  225.49    3.27   0
   2  -5  -3  266.30    3.40   0
   3  -5  -3  105.06    2.29   0
   5  -1  -4   21.27    1.17   0
   7   2  -2  137.40    2.39   0
   3  -3  -4  387.71    4.19   0
   4   0  -4    6.99    0.73   0
   5   2  -3    1.07    0.58   0
   6  -4  -1   68.31    1.56   0
   3  -1  -4    0.68    0.45   0
   4  -2  -4  448.78    4.62   0
   4  -1  -4   44.75    1.54   0
   6   1  -3  108.01    2.30   0
   7  -3   0   58.25    1.30   0
   7  -1  -2   10.21    0.81   0
   4  -5  -2   64.81    1.85   0
   4  -4  -3  392.87    4.45   0
   5  -3  -3  233.97    3.50   0
   6  -3  -2  123.17    2.30   0
   6  -1  -3  145.15    2.73   0
   7   1  -2  289.30    3.53   0
   8   2   0   36.02    1.26   0
   4  -6   0   18.78    0.99   0
   6   0  -3 1178.73    7.55   0
   7  -2  -1   94.53    1.89   0
   8   0   0   13.42    0.80   0
   5  -4  -2  432.23    4.45   0
   8   1   0   64.89    1.53   0
   1  -5  -2  110.31    2.01   0
   2  -4  -3  542.23    4.59   0
   5   1  -3  160.61    2.57   0
   7  -3   1   34.64    1.03   0
   2  -6  -1   51.87    1.58   0
   3  -5  -2   15.91    1.14   0
   4   1  -3  225.53    2.75   0
   5  -5   0  180.06    2.59   0
   5  -2  -3   99.13    2.35   0
   6  -4   0   86.02    1.73   0
   6   2  -2   51.91    1.56   0
   4  -6   1  192.35    2.53   0
   4  -3  -3  161.31    2.90   0
   6  -2  -2   81.48    2.06   0
   2  -5  -2   44.89    1.46   0
   5  -1  -3  312.39    3.95   0
   6  -3  -1    7.77    0.87   0
   7  -3   2   26.00    0.89   0
   7  -1  -1   49.91    1.53   0
   7   2  -1   40.75    1.45   0
   8   0   1  426.42    3.60   0
   3  -3  -3  706.54    5.45   0
   7  -2   0   86.69    1.85   0
   8   2   1   40.30    1.31   0
   3  -6   0  117.81    2.28   0
   4  -6   2   83.92    1.72   0
   4  -4  -2   35.53    1.47   0
   4  -2  -3   62.61    1.77   0
   4   0  -3   96.52    1.91   0
   5  -4  -1   10.05    1.01   0
   5  -3  -2   83.92    2.16   0
   6  -4   1  311.73    3.24   0
   6  -1  -2    4.23    0.79   0
   6   1  -2  885.34    6.34   0
   7   1  -1  311.02    3.74   0
   8   1   1   21.47    1.04   0
   3  -2  -3   87.14    1.86   0
   6   0  -2    2.75    0.84   0
   3  -1  -3   74.69    1.60   0
   8   0   2   54.02    1.37   0
   2  -6   0   92.70    2.04   0
   6  -4   2   81.58    1.68   0
   2  -4  -2  629.64    4.85   0
   3  -5  -1    5.46    0.92   0
   5  -2  -2    0.80    0.66   0
   6  -3   0  102.67    2.23   0
   6  -2  -1   71.85    2.00   0
   7  -2   1   67.68    1.66   0
   7  -1   0   39.47    1.44   0
   8   0   3  100.36    1.74   0
   8   1   2  171.41    2.48   0
   8   2   2  131.04    2.19   0
   3  -6   1   83.82    1.99   0
   4  -3  -2   37.68    1.58   0
   5   1  -2  406.61    3.97   0
   5  -5   3   58.19    1.45   0
   5  -4   0  295.51    3.88   0
   6   2  -1  231.53    3.13   0
   7   2   0   41.35    1.47   0
   4  -4  -1   50.62    1.82   0
   5  -3  -1  620.95    5.84   0
   5  -1  -2   78.41    2.08   0
   5   0  -2 1312.19    7.64   0
   6  -1  -1   19.32    1.26   0
   7  -2   2    0.92    0.61   0
   7   1   0   50.19    1.70   0
   8   1   3   33.07    1.16   0
   8   2   3  219.21    2.78   0
   3  -3  -2  875.21    6.04   0
   6  -3   1   52.16    1.67   0
   6   0  -1   77.58    2.15   0
   6   1  -1   50.41    1.68   0
   7  -1   1  436.55    4.52   0
   8   1   4   16.66    0.87   0
   2  -6   1   50.64    1.64   0
   3  -6   2   34.29    1.41   0
   6  -2   0  107.55    2.48   0
   7  -2   3  124.87    2.14   0
   8   2   4   18.12    0.97   0
   3  -5   0  343.19    4.17   0
   4  -5   1  135.15    2.65   0
   4  -1  -2   60.97    1.65   0
   5  -4   1  280.08    3.85   0
   7  -2   4  175.70    2.35   0
   3  -2  -2  194.57    2.68   0
   5  -2  -1   34.29    1.49   0
   5   2  -1  145.88    2.29   0
   7   0   1   54.17    1.83   0
   3  -6   3    1.46    0.93   0
   4  -3  -1    8.21    0.99   0
   5  -3   0   14.59    1.25   0
   7  -1   2  190.68    3.08   0
   7   2   1    5.24    0.95   0
   2  -4  -1  236.35    3.05   0
   4  -4   0    5.60    0.87   0
   6  -1   0   30.49    1.45   0
   7   1   1   10.02    0.98   0
   4  -5   2   50.03    1.77   0
   5  -1  -1    3.59    0.78   0
   6   2   0  118.01    2.39   0
   2  -6   2  462.58    4.49   0
   5  -4   2   59.21    1.87   0
   5   1  -1  220.89    3.02   0
   6  -2   1  182.61    3.27   0
   6   0   0   17.93    1.18   0
   7  -1   3  111.08    2.35   0
   7   0   2  399.77    4.66   0
   4  -2  -1   84.87    2.13   0
   6  -3   4    0.74    0.56   0
   6  -3   5  123.76    2.13   0
   4  -5   3   89.47    2.18   0
   5  -4   3  492.02    5.01   0
   5  -3   1   39.63    1.78   0
   7  -1   4   78.03    1.92   0
   7  -1   5  220.98    2.90   0
   7   1   2    1.48    0.91   0
   7   2   2   13.64    1.17   0
   3  -4   0   43.17    1.64   0
   5  -4   6   51.16    1.34   0
   6  -2   2  166.03    3.22   0
   6  -1   1  549.18    5.79   0
   6   3   1   20.23    1.21   0
   4  -5   4    0.52    0.72   0
   4  -5   5   35.90    1.35   0
   4  -3   0  145.29    2.91   0
   4  -1  -1    5.32    0.71   0
   7   0   3  152.08    2.97   0
   4   0  -1   44.37    1.35   0
   7   3   3  448.04    4.57   0
   3  -5   2  193.65    3.35   0
   3  -2  -1   24.27    1.06   0
   5  -1   0    2.38    0.73   0
   5   2   0   74.58    1.78   0
   2  -4   0   18.25    1.11   0
   5  -3   2   15.05    1.24   0
   6  -2   3  195.52    3.47   0
   6   2   1   27.26    1.41   0
   7   0   4   71.01    2.02   0
   7   1   3   40.93    1.72   0
   7   2   3  161.16    3.04   0
   5  -2   1    5.76    1.02   0
   6  -2   7   46.62    1.26   0
   6  -1   2  231.69    3.93   0
   7   0   5    5.19    0.84   0
   7   0   6   25.08    1.09   0
   1   1   7  234.14    3.56   0
   2   1   7  163.09    3.13   0
   4   1   5   70.42    2.15   0
   4   2   7    1.99    0.78   0
   4   3   8   11.64    1.10   0
   4   5   9   53.87    1.75   0
   5   3   7   37.58    1.72   0
   2   0   5    5.95    0.76   0
   2   6   9    0.99    0.76   0
   3   7   9   15.50    0.91   0
   4   7   9   32.65    1.13   0
   6   3   4    2.74    1.05   0
   2   5   9  197.58    3.09   0
   4   6   9  361.99    3.93   0
   6   5   7  302.62    4.01   0
   7   5   4    9.79    1.19   0
   3   1   6  273.96    3.99   0
   3   6   9    9.49    0.96   0
   5   5   8   34.59    1.50   0
   6   3   3  257.41    3.74   0
   7   7   6  118.75    2.17   0
   7   8   6   23.31    0.97   0
   0   2   7  519.35    4.79   0
   3   3   8  197.16    3.67   0
   5   2   4  459.93    5.10   0
   1   3   8  130.63    2.73   0
   4   4   8   27.46    1.55   0
   5   3   6    7.83    1.24   0
   7   6   5   46.50    1.74   0
   4   2   6   22.73    1.38   0
   5   2   3   98.40    2.35   0
   5   6   8   43.76    1.59   0
   5   8   8   85.31    1.71   0
   6   6   7   15.64    1.06   0
   2   1   6  210.41    3.33   0
   4   3   7  165.05    3.36   0
   5   2   2   36.86    1.49   0
   5   7   8   28.37    1.26   0
   6   4   5    0.96    0.92   0
   1   1   6  248.81    3.43   0
   1   2   7  158.84    3.03   0
   3   1   5  139.99    2.72   0
   6   5   6  234.21    3.91   0
   6   7   7   26.92    1.20   0
   6   8   7   22.78    1.01   0
   1   4   8  667.17    5.92   0
   3   4   8   75.25    2.39   0
   4   5   8  102.50    2.62   0
   7   6   4  366.08    4.49   0
   1   5   8  220.93    3.39   0
   7   8   5   98.64    2.06   0
   2   4   8   91.25    2.52   0
   3   8   8  146.34    2.30   0
   4   2   5  617.39    6.01   0
   6   4   4   33.14    1.66   0
   2   7   8   36.33    1.47   0
   3   2   6  218.72    3.63   0
   3   3   7   58.79    2.15   0
   4   6   8   18.16    1.24   0
   4   7   8   43.01    1.63   0
   7   6   3  364.76    4.47   0
   4   4   7  280.70    4.37   0
   5   9   7   57.19    1.44   0
   6   6   6   85.12    2.36   0
   7   7   4  439.53    4.84   0
   2   5   8  166.27    3.22   0
   3   7   8  114.92    2.49   0
   6   4   3    2.42    0.91   0
   6   9   6    5.74    0.70   0
   7   9   4   31.31    1.20   0
   1   3   7  483.02    5.23   0
   5   3   4 1106.75    8.16   0
   5   6   7  111.57    2.63   0
   6   4   2  155.95    3.04   0
   6   7   6  166.08    3.09   0
   7   8   4   34.49    1.49   0
   2   2   6 2490.85   11.50   0
   5   7   7  167.33    3.10   0
   5   8   7  113.19    2.35   0
   6   8   6    8.91    0.86   0
   3   9   7   36.60    1.23   0
   7   7   3   47.70    1.87   0
   1   2   6   36.57    1.49   0
   3   2   5  162.92    2.99   0
   3   4   7 1745.66   10.78   0
   5   4   5   11.65    1.32   0
   6   5   4   40.65    1.98   0
   7   9   3  116.61    2.25   0
   5   3   3  748.53    6.39   0
   7   8   3  133.65    2.71   0
   1   4   7   14.29    1.32   0
   3   3   6  212.69    3.66   0
   4   3   5   75.77    2.27   0
   2   8   7    4.96    0.93   0
   4   4   6    1.14    0.76   0
   4   8   7    0.26    0.67   0
   5   3   2   74.59    2.10   0
   3   5   7  727.58    7.15   0
   4   7   7  141.89    3.09   0
   5   6   6    1.42    0.87   0
   5   9   6   13.91    1.06   0
   6   5   3   15.42    1.49   0
   6   7   5   83.50    2.43   0
   6   9   5    0.37    0.56   0
   7   8   2  208.82    3.35   0
   0   3   6  346.90    4.02   0
   1   5   7    2.94    1.10   0
   1   6   7  111.41    2.66   0
   3   8   7  176.98    3.08   0
   6   8   5    0.23    0.70   0
   2   2   5 1873.00    9.32   0
   2   3   6  781.73    6.68   0
   2   5   7    6.44    1.24   0
   5   5   5    3.27    1.16   0
   5   7   6   31.06    1.59   0
   5   8   6  199.49    3.49   0
   6   6   4  175.41    3.63   0
   6  10   4   18.06    0.96   0
   2   7   7    4.80    1.06   0
   3   6   7   42.61    1.93   0
   6   5   2  176.22    3.46   0
   1   3   6  102.94    2.44   0
   2   6   7  282.87    4.36   0
   2   9   6    8.09    1.04   0
   4   3   4  522.17    5.40   0
   4   5   6    2.36    0.87   0
   5  10   5   32.12    1.22   0
   4   9   6   48.38    1.73   0
   0   4   6   11.59    1.23   0
   1   8   6    4.07    1.14   0
   6   6   3   61.11    2.36   0
   6   9   4   22.82    1.26   0
   3   9   6    7.61    1.00   0
   4   6   6  309.89    4.74   0
   5   4   3  201.79    3.58   0
   6   8   4    0.55    0.93   0
   4   7   6   45.68    2.09   0
   4   8   6    0.62    0.82   0
   4  10   5  240.26    3.24   0
   5   9   5   11.02    1.12   0
   1   4   6    6.15    1.15   0
   3   5   6   75.94    2.41   0
   5   5   4   15.47    1.31   0
   3  10   5    2.62    0.68   0
   5   8   5   33.82    1.71   0
   6   6   2   15.71    1.59   0
   6   7   3  112.34    3.11   0
   2   3   5 2914.60   12.12   0
   2   8   6   78.06    2.36   0
   4   5   5   35.19    1.72   0
   5   4   2   47.58    1.91   0
   5  10   4    0.89    0.67   0
   1   7   6   12.54    1.35   0
   3   6   6  253.62    4.42   0
   4   4   4   39.63    1.76   0
   6  10   2   -0.09    0.72   0
   1   5   6    0.84    0.94   0
   3   3   4  226.95    3.42   0
   5   6   4  132.90    3.30   0
   6   6   1  110.52    2.95   0
   1   6   6  154.39    3.28   0
   2   6   6  407.73    5.53   0
   2   7   6  134.19    3.20   0
   4   9   5  125.89    2.93   0
   5   5   3   -0.29    1.10   0
   4   6   5  370.44    5.21   0
   4  11   3  251.24    2.98   0
   5   4   1 1604.18    9.13   0
   5   9   4   99.58    2.66   0
   5  11   2   28.83    1.12   0
   6   7   2  180.35    3.80   0
   6  10   1   16.38    1.17   0
   2   9   5   16.62    1.31   0
   4   7   5  141.08    3.45   0
   4   8   5   14.82    1.37   0
   4  10   4  451.61    4.94   0
   5   8   4   28.33    1.80   0
   6   8   2  636.18    6.97   0
   6   9   2   38.74    1.83   0
   2  10   4   14.27    1.06   0
   3   9   5   53.44    2.00   0
   5  10   3   27.38    1.44   0
   6  10   0   18.76    1.21   0
   2   4   5   14.83    1.18   0
   3   5   5   32.47    1.66   0
   4   5   4    1.97    0.96   0
   6   7   1  297.94    4.84   0
   1   8   5   31.31    1.73   0
   4   4   3   20.01    1.31   0
   5   5   2  620.09    6.45   0
   5  11   1    5.83    0.72   0
   6   9   1  183.21    3.64   0
   0   4   5    5.29    1.00   0
   3   8   5   11.74    1.36   0
   2   8   5   30.32    1.89   0
   3   4   4    0.04    0.64   0
   3   6   5  296.57    4.75   0
   3   7   5   10.35    1.50   0
   4   9   4   74.68    2.53   0
   4  11   2  200.23    2.89   0
   5   9   3   34.13    1.78   0
   6   9   0   34.11    1.87   0
   0   5   5   41.16    1.88   0
   2   5   5   13.12    1.35   0
   4   6   4  344.28    5.07   0
   5   7   3   71.61    2.59   0
   5  10   2   11.72    1.17   0
   6   8   0  342.05    5.09   0
   4   5  -4  609.78    5.92   0
   4   5  -3  716.82    6.08   0
   5   5  -5  346.25    4.75   0
   5   5  -1  226.90    3.22   0
   6   5  -5   99.91    2.51   0
   7   3  -7   92.73    1.79   0
   7   4  -6   93.19    2.08   0
   5   4  -7    4.88    0.91   0
   5   5  -4  619.35    6.19   0
   6   5  -4   43.28    1.77   0
   6   5  -2    1.30    0.80   0
   1   2  -6    5.66    0.85   0
   2   3  -6  332.37    4.10   0
   5   5  -3   98.79    2.44   0
   6   5  -3   30.10    1.51   0
   8   3  -4   73.07    1.78   0
   8   3  -2   41.12    1.47   0
   3   1  -9   54.70    1.75   0
   5   1  -9    6.94    0.75   0
   7   4  -5    3.50    0.82   0
   7   4  -1  271.12    3.59   0
   8   2  -5   40.82    1.20   0
   8   3  -3   64.94    1.77   0
   3   3  -7  562.70    5.77   0
   6   2  -8   52.45    1.43   0
   6   4  -6   76.83    2.21   0
   7   2  -7  103.26    1.84   0
   3   2  -8  351.29    4.45   0
   4   1  -9    1.65    0.78   0
   5   4  -6   22.34    1.44   0
   7   3  -6   37.02    1.44   0
   2   3  -5   14.74    0.99   0
   3   4  -3  157.66    2.61   0
   5   0  -9  115.14    1.86   0
   5   4   0  400.77    3.95   0
   6   3  -7  155.65    2.84   0
   7   4  -4  172.28    3.23   0
   7   4  -2  248.85    3.65   0
   8   2  -4    5.25    0.78   0
   2   2  -7  360.50    4.32   0
   4   3  -7  525.81    5.85   0
   4   4  -5   97.05    2.59   0
   7   1  -7   33.96    1.06   0
   2   1  -8    9.30    1.11   0
   4   2  -8    1.96    0.99   0
   5   2  -8  118.65    2.52   0
   5   3  -7   75.66    2.28   0
   6   1  -8    5.26    0.68   0
   6   4  -5  419.42    5.18   0
   8   2  -3   16.24    1.12   0
   5   4  -5   33.88    1.63   0
   6   4  -1  121.52    2.54   0
   3   0  -9   51.37    1.71   0
   4   0  -9  143.27    2.44   0
   4   4  -4  711.64    6.28   0
   5   4  -1  574.67    5.02   0
   6   4  -4  120.09    2.87   0
   7   3  -5   46.37    1.72   0
   8   1  -3  462.75    3.97   0
   4   4  -3   69.89    1.92   0
   4   4  -2  211.47    3.01   0
   5   4  -4    5.70    1.03   0
   6   0  -8  210.88    2.52   0
   6   3  -6  367.24    4.73   0
   6   4  -2   71.14    2.11   0
   7   2  -6  162.90    2.68   0
   6   2  -7   69.72    1.95   0
   7   3  -1   52.19    1.73   0
   4   3  -6  510.55    5.72   0
   5   4  -3  799.92    6.61   0
   7   3  -4   28.42    1.48   0
   2   2  -6  218.64    3.27   0
   3   1  -8   73.36    2.14   0
   3   3  -5  258.55    3.68   0
   4  -1  -9   43.05    1.36   0
   5   3  -6    8.19    1.07   0
   7   1  -6   65.58    1.70   0
   7   3  -3   51.90    1.89   0
   7   3  -2  145.01    2.81   0
   3  -1  -9    0.93    0.81   0
   4   1  -8    7.95    1.13   0
   5   2  -7  174.86    3.36   0
   6   3  -5   20.35    1.48   0
   7   2  -5  108.86    2.47   0
   4   2  -7    4.37    0.98   0
   6   1  -7  274.12    3.66   0
   7   0  -6   30.26    1.11   0
   2   0  -8  144.24    2.76   0
   2   1  -7  201.46    3.25   0
   3   3  -4    3.87    0.66   0
   3  -2  -9   40.20    1.36   0
   5   3  -5  179.05    3.43   0
   6   2  -6  232.87    3.79   0
   2   2  -5  204.65    2.95   0
   5   3   0  253.50    3.12   0
   6   3  -1    3.35    0.95   0
   7   2  -4  120.23    2.68   0
   7   2  -1   37.65    1.56   0
   6   3  -3  127.74    2.98   0
   7   1  -5   28.14    1.30   0
   7   2  -3   75.56    2.23   0
   3   0  -8  180.99    3.26   0
   4   0  -8   13.65    1.21   0
   5   2  -6  164.76    3.38   0
   5   3  -4    3.12    0.80   0
   6  -2  -7   64.46    1.35   0
   6   3  -2   10.73    1.08   0
   3   1  -7  244.44    3.86   0
   4   2  -6  218.69    3.75   0
   5   1  -7  175.75    3.27   0
   6  -1  -7   27.84    1.10   0
   6   2  -5  157.63    3.38   0
   4   3  -3   71.51    1.87   0
   5   3  -3    9.55    0.96   0
   6   1  -6   68.52    2.10   0
   7  -1  -5    0.29    0.48   0
   7   1  -4  135.14    2.86   0
   4   3  -2  338.17    3.64   0
   2  -1  -8  128.58    2.65   0
   2   1  -6    0.54    0.81   0
   6   2   0  114.51    2.37   0
   7  -2  -4   39.56    1.21   0
   7   1  -3  221.75    3.73   0
   7   1  -1  315.95    4.10   0
   4  -1  -8  153.48    2.82   0
   5   0  -7  161.77    3.12   0
   5   2  -5   68.16    2.19   0
   6   2  -4  383.78    5.17   0
   7   1  -2  280.69    4.12   0
   4   2  -5  872.47    7.15   0
   6  -3  -6   47.29    1.19   0
   6   0  -6   45.12    1.69   0
   5   1  -6  270.89    4.25   0
   6   1  -5  161.86    3.33   0
   6   2  -1  213.72    3.37   0
   4  -3  -8   55.34    1.56   0
   6  -1  -6   27.15    1.30   0
   6   2  -2   51.31    1.96   0
   7  -2  -3    6.05    0.78   0
   7   0  -1   75.07    2.20   0
   3   2  -4  807.25    5.91   0
   4   0  -7  274.82    4.22   0
   5   2  -4    3.09    0.83   0
   6  -2  -6   30.92    1.19   0
   7  -2  -2    6.04    0.84   0
   7  -1  -3   30.83    1.47   0
   7   0  -2  216.30    3.67   0
   2  -2  -8  291.88    3.92   0
   4   2  -4  562.81    5.46   0
   5  -3  -7   79.31    1.79   0
   7  -1  -1   52.94    1.79   0
   3  -2  -8  138.26    2.76   0
   5  -2  -7  187.29    3.03   0
   5   2   0   76.95    1.84   0
   6   0  -5   33.28    1.69   0
   6   1  -4   88.83    2.58   0
   7  -1  -2    9.41    1.05   0
   5   0  -6    1.63    1.00   0
   5   1  -5  217.51    3.96   0
   5   2  -3    0.50    0.71   0
   3  -4  -8   26.67    1.23   0
   3  -3  -8   80.78    2.10   0
   5   2  -1  153.17    2.75   0
   6   1   0  169.08    2.95   0
   4  -1  -7  253.32    4.06   0
   4   2  -3  902.34    6.46   0
   6  -3  -5   45.61    1.41   0
   6  -1  -5   51.38    1.88   0
   2  -4  -8   57.44    2.06   0
   4  -5  -7   32.01    1.12   0
   5   0  -6    1.07    0.98   0
   5   1  -5  215.76    3.57   0
   1  -7  -7    1.83    0.68   0
   2  -1  -7  250.22    4.11   0
   2   0  -6 1125.67    7.85   0
   3  -6  -7   93.93    1.87   0
   4  -1  -7  248.33    4.05   0
   1  -2  -7  525.70    5.74   0
   3  -1  -7  230.21    4.06   0
  -1  -4  -6    6.00    1.04   0
   0  -6  -7  183.65    3.35   0
   0  -4  -7  111.01    2.79   0
   0  -2  -6  429.23    4.64   0
   3   1  -5  435.72    4.64   0
   4   1  -5  101.76    2.50   0
   6  -3  -5   45.99    1.31   0
   6  -1  -5   50.03    1.70   0
   0  -5  -7  101.49    2.71   0
   1  -1  -6  250.02    3.60   0
   3   0  -6  366.53    4.73   0
   4  -4  -7   15.53    1.03   0
   4  -2  -7    3.55    0.89   0
   5  -4  -6  148.10    2.34   0
   5  -1  -6    8.87    1.17   0
  -1  -5  -6    0.27    0.99   0
   2  -2  -7   76.66    2.45   0
   1  -6  -7  510.80    5.29   0
   1  -3  -7  365.70    4.89   0
   2  -6  -7    0.12    0.60   0
   3  -5  -7   37.99    1.55   0
   6   0  -4   12.78    1.17   0
   3  -4  -7   26.25    1.49   0
   3  -3  -7  130.44    2.97   0
   5  -5  -5   20.60    0.88   0
   5   0  -5   85.34    2.31   0
   5   1  -4   35.19    1.52   0
   0  -7  -6   15.93    1.26   0
   2  -5  -7    0.26    0.72   0
   2  -1  -6  425.97    4.90   0
   2   0  -5   90.18    2.05   0
   4  -1  -6   32.62    1.63   0
   1  -2  -6  561.99    5.43   0
   2  -4  -7    0.38    0.81   0
   3  -1  -6   20.02    1.41   0
   4  -5  -6   94.94    2.06   0
   1  -7  -6  264.63    3.60   0
   3  -6  -6  233.61    3.26   0
   4   1  -4  493.23    4.75   0
   6  -1  -4  365.64    4.27   0
   0  -8  -5  276.61    3.42   0
   0  -4  -6   10.58    1.15   0
   4  -2  -6  125.82    2.93   0
   4   0  -5    0.84    0.77   0
   6  -3  -4  141.68    2.34   0
   0  -6  -6  204.83    3.54   0
   1  -8  -5  209.78    2.87   0
   3  -7  -5   75.31    1.69   0
   4  -6  -5   49.78    1.38   0
   4  -4  -6    4.38    0.83   0
   5  -4  -5   39.20    1.43   0
   5  -1  -5    0.74    0.82   0
   6  -2  -4  149.84    2.69   0
   0  -5  -6   61.96    2.07   0
   2  -2  -6   10.65    1.04   0
   4  -3  -6    2.24    0.84   0
  -1  -6  -5    2.53    1.01   0
  -1  -5  -5   14.41    1.19   0
   1  -3  -6  665.04    6.14   0
   3  -5  -6  196.62    3.45   0
   3  -2  -6  293.17    4.36   0
   5  -3  -5  284.47    3.97   0
   5   1  -3  162.18    2.81   0
   6  -4  -3   45.35    1.28   0
   5   0  -4  214.31    3.44   0
   1  -4  -6   46.70    1.89   0
   2  -3  -6    5.31    1.03   0
   5  -5  -4   23.73    1.04   0
   2  -5  -6    6.09    0.98   0
   4  -5  -5  131.52    2.66   0
   0  -7  -5  101.25    2.51   0
   2  -8  -4  299.30    3.28   0
   2  -4  -6   43.00    1.83   0
   3  -1  -5    5.74    0.86   0
   6  -3  -3  187.39    2.87   0
   6  -1  -3  140.94    2.77   0
   1  -2  -5  599.71    5.08   0
   3  -6  -5   94.51    2.34   0
   4  -7  -3   17.25    0.81   0
   4   0  -4    6.86    0.90   0
   1  -7  -5  183.37    3.21   0
   4  -6  -4  128.03    2.37   0
   4  -4  -5   83.42    2.42   0
   4  -2  -5  111.08    2.72   0
   5  -4  -4  122.76    2.55   0
   5  -1  -4   20.37    1.32   0
   6  -2  -3    9.63    1.00   0
   0  -8  -4   76.56    2.06   0
   1  -8  -4  281.75    3.59   0
   3  -7  -4  538.07    4.71   0
   4  -3  -5  199.86    3.66   0
   6  -4  -2   64.17    1.58   0
  -1  -7  -4    7.39    1.14   0
   0  -6  -5   73.80    2.19   0
   5  -6  -2   28.22    0.97   0
   5  -2  -4   56.21    2.07   0
   0  -5  -5   43.91    1.71   0
   1  -3  -5  333.22    4.09   0
   2  -6  -5    9.42    1.18   0
   3  -5  -5   32.09    1.66   0
   3  -2  -5   85.62    2.32   0
   5   0  -3   45.14    1.67   0
  -1  -6  -4   35.53    1.58   0
  -1  -5  -4  645.34    5.23   0
   3  -8  -2   23.44    0.97   0
   3  -4  -5   77.12    2.36   0
   6  -3  -2  121.79    2.45   0
   6  -1  -2    3.48    0.97   0
   1  -9  -2   19.80    1.00   0
   1  -4  -5   36.83    1.56   0
   4  -7  -2    7.31    0.66   0
   4  -5  -4   87.70    2.31   0
   2  -7  -4    1.72    0.75   0
   2  -4  -5   96.63    2.51   0
   6  -4  -1   69.60    1.70   0
   6  -2  -2   79.03    2.10   0
   0  -7  -4  365.86    4.56   0
   3  -6  -4   45.31    1.77   0
   4  -2  -4  469.80    5.32   0
   4   0  -3   95.80    2.10   0
   5  -6  -1  130.50    2.03   0
   5  -4  -3   42.70    1.65   0
   5  -1  -3  316.91    4.23   0
   1  -7  -4  179.03    3.30   0
   4  -4  -4  245.86    4.04   0
   0  -8  -3  707.55    5.94   0
   4  -3  -4  124.85    2.92   0
   5  -5  -2    9.12    0.84   0
   5  -2  -3   97.45    2.58   0
   3  -8  -1  212.97    2.66   0
   5   0  -2 1321.53    7.81   0
   0  -4  -4   25.78    1.17   0
   2  -6  -4   49.24    1.90   0
   2  -2  -4  502.49    4.72   0
   3  -5  -4  100.57    2.69   0
   3  -2  -4  219.19    3.38   0
   4  -7  -1    1.13    0.51   0
   6  -4   0   86.62    1.90   0
   6  -3  -1    7.72    0.90   0
   6  -1  -1   19.39    1.34   0
  -1  -7  -3  102.20    2.42   0
   0  -5  -4   63.98    1.92   0
   1  -9  -1   21.35    1.07   0
   5  -6   0   56.87    1.40   0
   6  -2  -1   66.65    2.06   0
   1  -3  -4   28.30    1.22   0
   3  -4  -4   14.48    1.18   0
   3  -3  -4  376.64    4.70   0
   4  -1  -3  695.09    5.79   0
   2  -7  -3  274.18    4.05   0
   2  -5  -4  503.93    5.67   0
   4  -6  -2   11.53    0.96   0
   5  -4  -2  434.57    4.98   0
;
_shelx_hkl_checksum              46394
_olex2_submission_special_instructions 'No special instructions were received'
loop_
_space_group_symop_operation_xyz
'x, y, z'
'-x, -y, -z'
loop_
_atom_site_label
_atom_site_type_symbol
_atom_site_fract_x
_atom_site_fract_y
_atom_site_fract_z
_atom_site_U_iso_or_equiv
_atom_site_adp_type
_atom_site_occupancy
_atom_site_site_symmetry_order
_atom_site_calc_flag
_atom_site_refinement_flags_posn
_atom_site_refinement_flags_adp
_atom_site_refinement_flags_occupancy
_atom_site_disorder_assembly
_atom_site_disorder_group
Cu1 Cu 0.000000 0.500000 1.000000 0.00952(11) Uani 1 2 d S T P . .
O1 O -0.08093(15) 0.60490(12) 0.81618(11) 0.0128(2) Uani 1 1 d . . . . .
O2 O -0.06746(17) 0.84330(13) 0.83059(11) 0.0169(2) Uani 1 1 d . . . . .
O3 O 0.99458(15) 0.26515(12) 0.91114(11) 0.0133(2) Uani 1 1 d . . . . .
H3 H 1.000555 0.212832 0.985365 0.020 Uiso 1 1 d R . . . .
O4 O -0.27617(19) 1.22658(14) 0.44064(13) 0.0249(3) Uani 1 1 d . . . . .
O5 O -0.37491(19) 1.16561(16) 0.25709(13) 0.0274(3) Uani 1 1 d . . . . .
N1 N 0.28197(18) 0.41383(15) 0.93814(12) 0.0106(3) Uani 1 1 d . . . . .
N2 N -0.30930(19) 1.13317(17) 0.37305(14) 0.0182(3) Uani 1 1 d . . . . .
C1 C -0.1000(2) 0.74252(18) 0.76878(15) 0.0123(3) Uani 1 1 d . . . . .
C2 C -0.1701(2) 0.78450(18) 0.62372(15) 0.0123(3) Uani 1 1 d . . . . .
C3 C -0.2038(2) 0.93560(18) 0.56604(16) 0.0131(3) Uani 1 1 d . . . . .
H3A H -0.181338 1.011338 0.616344 0.016 Uiso 1 1 calc R . . . .
C4 C -0.2707(2) 0.97262(18) 0.43372(16) 0.0143(3) Uani 1 1 d . . . . .
C5 C -0.3048(2) 0.8665(2) 0.35616(16) 0.0172(3) Uani 1 1 d . . . . .
H5 H -0.350970 0.895817 0.265535 0.021 Uiso 1 1 calc R . . . .
C6 C -0.2695(2) 0.7159(2) 0.41429(17) 0.0190(3) Uani 1 1 d . . . . .
H6 H -0.290947 0.640295 0.363075 0.023 Uiso 1 1 calc R . . . .
C7 C -0.2030(2) 0.67544(19) 0.54728(16) 0.0153(3) Uani 1 1 d . . . . .
H7 H -0.179720 0.572273 0.586505 0.018 Uiso 1 1 calc R . . . .
C9 C 0.4038(2) 0.26210(18) 0.96996(15) 0.0127(3) Uani 1 1 d . . . . .
H9 H 0.355265 0.195799 1.022334 0.015 Uiso 1 1 calc R . . . .
C10 C 0.5972(2) 0.19819(18) 0.92971(16) 0.0130(3) Uani 1 1 d . . . . .
H10 H 0.678495 0.090080 0.953969 0.016 Uiso 1 1 calc R . . . .
C11 C 0.6717(2) 0.29328(18) 0.85354(15) 0.0117(3) Uani 1 1 d . . . . .
C12 C 0.5452(2) 0.45030(18) 0.82037(15) 0.0124(3) Uani 1 1 d . . . . .
H12 H 0.590179 0.519012 0.768040 0.015 Uiso 1 1 calc R . . . .
C13 C 0.3538(2) 0.50576(18) 0.86397(15) 0.0117(3) Uani 1 1 d . . . . .
H13 H 0.269407 0.613315 0.840618 0.014 Uiso 1 1 calc R . . . .
C14 C 0.8839(2) 0.23020(18) 0.81349(15) 0.0135(3) Uani 1 1 d . . . . .
H14A H 0.935368 0.113074 0.805469 0.016 Uiso 1 1 calc R . . . .
H14B H 0.897982 0.278538 0.723006 0.016 Uiso 1 1 calc R . . . .
loop_
_atom_site_aniso_label
_atom_site_aniso_U_11
_atom_site_aniso_U_22
_atom_site_aniso_U_33
_atom_site_aniso_U_23
_atom_site_aniso_U_13
_atom_site_aniso_U_12
Cu1 0.00712(17) 0.01024(17) 0.01030(17) 0.00174(11) -0.00107(11) -0.00288(12)
O1 0.0120(5) 0.0128(5) 0.0128(5) 0.0020(4) -0.0016(4) -0.0044(4)
O2 0.0214(6) 0.0139(5) 0.0153(6) 0.0011(4) -0.0058(4) -0.0068(5)
O3 0.0123(5) 0.0147(5) 0.0145(5) 0.0013(4) -0.0031(4) -0.0071(4)
O4 0.0288(7) 0.0194(6) 0.0283(7) 0.0057(5) -0.0054(5) -0.0121(5)
O5 0.0311(7) 0.0304(7) 0.0188(6) 0.0135(5) -0.0092(5) -0.0118(6)
N1 0.0100(6) 0.0119(6) 0.0105(6) -0.0010(5) -0.0015(5) -0.0049(5)
N2 0.0139(7) 0.0196(7) 0.0190(7) 0.0071(6) -0.0007(5) -0.0058(5)
C1 0.0081(7) 0.0132(7) 0.0132(7) 0.0006(6) -0.0001(5) -0.0020(6)
C2 0.0078(7) 0.0150(7) 0.0123(7) 0.0002(6) 0.0002(5) -0.0030(6)
C3 0.0096(7) 0.0145(7) 0.0146(7) -0.0001(6) -0.0007(5) -0.0044(6)
C4 0.0095(7) 0.0160(8) 0.0152(8) 0.0038(6) 0.0002(6) -0.0036(6)
C5 0.0141(8) 0.0248(9) 0.0116(7) 0.0009(6) -0.0009(6) -0.0071(6)
C6 0.0202(8) 0.0222(8) 0.0163(8) -0.0042(6) -0.0006(6) -0.0100(7)
C7 0.0148(7) 0.0150(7) 0.0155(8) 0.0000(6) 0.0005(6) -0.0056(6)
C9 0.0126(7) 0.0121(7) 0.0143(7) 0.0004(6) -0.0015(6) -0.0060(6)
C10 0.0115(7) 0.0111(7) 0.0156(7) -0.0008(6) -0.0022(6) -0.0035(6)
C11 0.0103(7) 0.0156(7) 0.0104(7) -0.0037(6) -0.0010(5) -0.0062(6)
C12 0.0129(7) 0.0148(7) 0.0118(7) 0.0000(6) -0.0010(5) -0.0078(6)
C13 0.0123(7) 0.0113(7) 0.0119(7) 0.0002(6) -0.0028(5) -0.0049(6)
C14 0.0106(7) 0.0159(7) 0.0143(7) -0.0028(6) -0.0004(6) -0.0054(6)
loop_
_atom_type_symbol
_atom_type_description
_atom_type_scat_dispersion_real
_atom_type_scat_dispersion_imag
_atom_type_scat_source
C C 0.0181 0.0091 'International Tables Vol C Tables 4.2.6.8 and 6.1.1.4'
H H 0.0000 0.0000 'International Tables Vol C Tables 4.2.6.8 and 6.1.1.4'
Cu Cu -1.9646 0.5888 'International Tables Vol C Tables 4.2.6.8 and 6.1.1.4'
N N 0.0311 0.0180 'International Tables Vol C Tables 4.2.6.8 and 6.1.1.4'
O O 0.0492 0.0322 'International Tables Vol C Tables 4.2.6.8 and 6.1.1.4'
loop_
_geom_angle_atom_site_label_1
_geom_angle_atom_site_label_2
_geom_angle_atom_site_label_3
_geom_angle
_geom_angle_site_symmetry_1
_geom_angle_site_symmetry_3
O1 Cu1 O1 180.0 . 2_567
O1 Cu1 O3 87.00(4) 2_567 2_667
O1 Cu1 O3 93.00(4) . 2_667
O1 Cu1 O3 93.00(4) 2_567 1_455
O1 Cu1 O3 87.00(4) . 1_455
O1 Cu1 N1 89.77(5) . 2_567
O1 Cu1 N1 90.23(5) 2_567 2_567
O1 Cu1 N1 89.77(5) 2_567 .
O1 Cu1 N1 90.23(5) . .
O3 Cu1 O3 180.0 1_455 2_667
N1 Cu1 O3 86.26(4) . 1_455
N1 Cu1 O3 86.26(4) 2_567 2_667
N1 Cu1 O3 93.74(4) 2_567 1_455
N1 Cu1 O3 93.74(4) . 2_667
N1 Cu1 N1 180.0 2_567 .
C1 O1 Cu1 130.03(10) . .
C14 O3 Cu1 136.58(9) . 1_655
C9 N1 Cu1 120.87(10) . .
C9 N1 C13 117.62(13) . .
C13 N1 Cu1 121.51(10) . .
O4 N2 O5 123.84(14) . .
O4 N2 C4 118.63(13) . .
O5 N2 C4 117.52(14) . .
O1 C1 C2 115.42(13) . .
O2 C1 O1 126.35(14) . .
O2 C1 C2 118.23(13) . .
C3 C2 C1 119.21(14) . .
C3 C2 C7 119.60(14) . .
C7 C2 C1 121.19(14) . .
C4 C3 C2 118.34(14) . .
C3 C4 N2 118.50(14) . .
C5 C4 N2 118.46(14) . .
C5 C4 C3 123.04(15) . .
C4 C5 C6 118.17(15) . .
C5 C6 C7 120.10(15) . .
C6 C7 C2 120.74(15) . .
N1 C9 C10 122.83(14) . .
C9 C10 C11 119.58(14) . .
C10 C11 C12 117.54(14) . .
C10 C11 C14 121.09(14) . .
C12 C11 C14 121.32(14) . .
C13 C12 C11 119.65(14) . .
N1 C13 C12 122.79(14) . .
O3 C14 C11 111.79(12) . .
loop_
_geom_bond_atom_site_label_1
_geom_bond_atom_site_label_2
_geom_bond_distance
_geom_bond_site_symmetry_2
Cu1 O1 1.9862(10) .
Cu1 O1 1.9862(10) 2_567
Cu1 O3 2.3930(10) 2_667
Cu1 O3 2.3930(10) 1_455
Cu1 N1 2.0282(12) 2_567
Cu1 N1 2.0282(12) .
O1 C1 1.2737(19) .
O2 C1 1.2465(19) .
O3 C14 1.4295(18) .
O4 N2 1.2243(19) .
O5 N2 1.2287(19) .
N1 C9 1.344(2) .
N1 C13 1.3463(19) .
N2 C4 1.474(2) .
C1 C2 1.509(2) .
C2 C3 1.393(2) .
C2 C7 1.393(2) .
C3 C4 1.383(2) .
C4 C5 1.381(2) .
C5 C6 1.388(2) .
C6 C7 1.390(2) .
C9 C10 1.385(2) .
C10 C11 1.391(2) .
C11 C12 1.392(2) .
C11 C14 1.510(2) .
C12 C13 1.382(2) .
