#------------------------------------------------------------------------------
#$Date: 2021-08-26 11:13:45 +0300 (Thu, 26 Aug 2021) $
#$Revision: 268246 $
#$URL: file:///home/coder/svn-repositories/cod/cif/1/56/44/1564417.cif $
#------------------------------------------------------------------------------
#
# This file is available in the Crystallography Open Database (COD),
# http://www.crystallography.net/
#
# All data on this site have been placed in the public domain by the
# contributors.
#
data_1564417
loop_
_publ_author_name
'Pucho\<nov\'a, Miroslava'
'Maroszov\'a, Jaroslava'
'Vaskov\'a, Zuzana'
'Maz\'ur, Milan'
'Valigura, Du\<san'
'Koman, Marian'
'Moncol, Jan'
_publ_section_title
;
 One dimensional carboxylatocopper(II) coordination polymers with
 4-pyridylmethanol
;
_journal_name_full               'Inorganica Chimica Acta'
_journal_page_first              119763
_journal_paper_doi               10.1016/j.ica.2020.119763
_journal_volume                  510
_journal_year                    2020
_chemical_formula_moiety         'C26 H22 Cu N4 O10'
_chemical_formula_sum            'C26 H22 Cu N4 O10'
_chemical_formula_weight         614.01
_space_group_crystal_system      triclinic
_space_group_IT_number           2
_space_group_name_Hall           '-P 1'
_space_group_name_H-M_alt        'P -1'
_atom_sites_solution_hydrogens   mixed
_atom_sites_solution_primary     dual
_cell_angle_alpha                80.910(5)
_cell_angle_beta                 75.420(4)
_cell_angle_gamma                82.980(4)
_cell_formula_units_Z            1
_cell_length_a                   7.0351(4)
_cell_length_b                   7.5386(4)
_cell_length_c                   12.1405(7)
_cell_measurement_reflns_used    17817
_cell_measurement_temperature    100
_cell_measurement_theta_max      71.97
_cell_measurement_theta_min      3.80
_cell_volume                     613.01(6)
_computing_cell_refinement
;
X-Area Recipe 1.33.0.0 (STOE, 2015)
;
_computing_data_collection
;
X-Area Pilatus3_SV 1.31.150.0 (STOE, 2018)
;
_computing_data_reduction
;
X-Area Integrate 1.73.1.0 (STOE, 2018)
X-Area LANA 1.73.2.0 (STOE, 2018)
;
_computing_molecular_graphics    'Olex2 (Dolomanov et al., 2009)'
_computing_publication_material
;
STOE & Cie GmbH, X-Area, software package for collecting single-crystal or
multi-domain crystal data on STOE area-detector diffractometers, for image
processing, for the correction and scaling of reflection intensities and
for outlier rejection, version 1.84, Darmstadt 2018
;
_computing_structure_refinement  'ShelXL (Sheldrick, 2015)'
_computing_structure_solution    'ShelXT (Sheldrick, 2015)'
_diffrn_ambient_temperature      100
_diffrn_detector                 'Pilatus3R 300K'
_diffrn_detector_area_resol_mean 5.81
_diffrn_detector_type            'DECTRIS PILATUS3R 300K'
_diffrn_measured_fraction_theta_full 0.970
_diffrn_measured_fraction_theta_max 0.947
_diffrn_measurement_device       'Eulerian 4-circle diffractometer'
_diffrn_measurement_device_type  'Stoe StadiVari'
_diffrn_measurement_method       '\w scans'
_diffrn_radiation_collimation    '0.6 mm diameter'
_diffrn_radiation_monochromator  'Graded multilayer mirror'
_diffrn_radiation_polarisn_norm  270
_diffrn_radiation_type           CuK\a
_diffrn_radiation_wavelength     1.54186
_diffrn_reflns_av_R_equivalents  0.0208
_diffrn_reflns_av_unetI/netI     0.0178
_diffrn_reflns_Laue_measured_fraction_full 0.970
_diffrn_reflns_Laue_measured_fraction_max 0.947
_diffrn_reflns_limit_h_max       8
_diffrn_reflns_limit_h_min       -7
_diffrn_reflns_limit_k_max       9
_diffrn_reflns_limit_k_min       -5
_diffrn_reflns_limit_l_max       14
_diffrn_reflns_limit_l_min       -14
_diffrn_reflns_number            9992
_diffrn_reflns_point_group_measured_fraction_full 0.970
_diffrn_reflns_point_group_measured_fraction_max 0.947
_diffrn_reflns_theta_full        67.686
_diffrn_reflns_theta_max         71.514
_diffrn_reflns_theta_min         3.796
_diffrn_source                   'Genix3D Cu HF'
_diffrn_source_current           0.600
_diffrn_source_power             0.030
_diffrn_source_voltage           50
_exptl_absorpt_coefficient_mu    1.885
_exptl_absorpt_correction_T_max  0.610
_exptl_absorpt_correction_T_min  0.180
_exptl_absorpt_correction_type   multi-scan
_exptl_absorpt_process_details
;
STOE LANA, J. Koziskova, F. Hahn, J. Richter, J. Kozisek,
Acta Chimica Slovaca, vol. 9, no. 2, 2016, pp. 136 - 140.
;
_exptl_crystal_colour            blue
_exptl_crystal_colour_primary    blue
_exptl_crystal_density_diffrn    1.663
_exptl_crystal_description       needle
_exptl_crystal_F_000             315
_exptl_crystal_size_max          0.45
_exptl_crystal_size_mid          0.15
_exptl_crystal_size_min          0.1
_refine_diff_density_max         0.942
_refine_diff_density_min         -0.604
_refine_diff_density_rms         0.102
_refine_ls_extinction_coef       .
_refine_ls_extinction_method     none
_refine_ls_goodness_of_fit_ref   1.187
_refine_ls_hydrogen_treatment    constr
_refine_ls_matrix_type           full
_refine_ls_number_parameters     187
_refine_ls_number_reflns         2264
_refine_ls_number_restraints     0
_refine_ls_restrained_S_all      1.187
_refine_ls_R_factor_all          0.0547
_refine_ls_R_factor_gt           0.0514
_refine_ls_shift/su_max          0.000
_refine_ls_shift/su_mean         0.000
_refine_ls_structure_factor_coef Fsqd
_refine_ls_weighting_details
'w=1/[\s^2^(Fo^2^)+3.9249P] where P=(Fo^2^+2Fc^2^)/3'
_refine_ls_weighting_scheme      calc
_refine_ls_wR_factor_gt          0.1363
_refine_ls_wR_factor_ref         0.1376
_reflns_Friedel_coverage         0.000
_reflns_Friedel_fraction_full    .
_reflns_Friedel_fraction_max     .
_reflns_number_gt                2085
_reflns_number_total             2264
_reflns_threshold_expression     'I > 2\s(I)'
_cod_data_source_file            7.cif
_cod_data_source_block           7
_cod_original_cell_volume        613.02(6)
_cod_database_code               1564417
_shelx_space_group_comment
;
The symmetry employed for this shelxl refinement is uniquely defined
by the following loop, which should always be used as a source of
symmetry information in preference to the above space-group names.
They are only intended as comments.
;
_shelx_estimated_absorpt_t_max   0.834
_shelx_estimated_absorpt_t_min   0.484
_olex2_refinement_description
;
1. Fixed Uiso
 At 1.2 times of:
  All C(H) groups, All C(H,H) groups
 At 1.5 times of:
  All O(H) groups
2.a Riding coordinates:
 O3(H3)
2.b Secondary CH2 refined with riding coordinates:
 C14(H14A,H14B)
2.c Aromatic/amide H refined with riding coordinates:
 C3(H3A), C4(H4), C6(H6), C7(H7), C9(H9), C10(H10), C12(H12), C13(H13)
;
_shelx_res_file
;
TITL jm1121_a.res in P-1
    jam4.res
    created by SHELXL-2018/3 at 09:35:05 on 27-Jul-2019
REM Old TITL JAM4ML.
REM SHELXT solution in P-1: R1 0.100, Rweak 0.017, Alpha 0.063
REM <I/s> 0.000 for 0 systematic absences, Orientation as input
REM Formula found by SHELXT: C28 N4 O8 Cu
CELL 1.54186 7.0351 7.5386 12.1405 80.91 75.42 82.98
ZERR 1 0.0004 0.0004 0.0007 0.005 0.004 0.004
LATT 1
SFAC C H Cu N O
UNIT 26 22 1 4 10
L.S. 12
PLAN  5
SIZE 0.1 0.15 0.45
TEMP -173.15
list 4
fmap 2 53
acta
OMIT 4 2 4
OMIT 2 1 5
OMIT -2 -1 2
OMIT 1 3 5
REM <olex2.extras>
REM <HklSrc "%.\\jm1121.hkl">
REM </olex2.extras>
WGHT    0.000000    3.924900
FVAR       0.90362
CU1   3    1.000000    0.500000    0.000000    10.50000    0.01433    0.01373 =
         0.01375   -0.00050   -0.00062   -0.00118
O1    5    0.794930    0.445129    0.144828    11.00000    0.01724    0.02088 =
         0.01398   -0.00043   -0.00059   -0.00094
O2    5    0.928552    0.518566    0.280074    11.00000    0.02189    0.02507 =
         0.02052   -0.00107   -0.00098   -0.00858
O3    5    0.772946    1.429361   -0.099032    11.00000    0.01917    0.01633 =
         0.01987    0.00009   -0.00216   -0.00501
AFIX   3
H3    2    0.855966    1.418781   -0.161382    11.00000   -1.50000
AFIX   0
O4    5    0.015778    0.138493    0.578804    11.00000    0.02611    0.06017 =
         0.02474    0.00506   -0.00400   -0.01827
O5    5    0.222953    0.056679    0.686609    11.00000    0.03235    0.02876 =
         0.01510    0.00235   -0.00115   -0.00438
N1    4    0.875996    0.755890   -0.021217    11.00000    0.01249    0.01620 =
         0.02035   -0.00049   -0.00432   -0.00266
N2    4    0.180301    0.132602    0.597320    11.00000    0.02161    0.02766 =
         0.01660   -0.00081    0.00083   -0.00481
C1    1    0.800294    0.452876    0.247721    11.00000    0.01691    0.01598 =
         0.01812    0.00000   -0.00001    0.00192
C2    1    0.633223    0.370525    0.339519    11.00000    0.01920    0.01742 =
         0.01798   -0.00162    0.00069   -0.00149
C3    1    0.457174    0.346057    0.314242    11.00000    0.02384    0.02181 =
         0.01394    0.00193   -0.00297   -0.00034
AFIX  43
H3A   2    0.440869    0.379883    0.238188    11.00000   -1.20000
AFIX   0
C4    1    0.304415    0.272434    0.399312    11.00000    0.01901    0.02832 =
         0.02048   -0.00104   -0.00381   -0.00399
AFIX  43
H4    2    0.181646    0.260029    0.383301    11.00000   -1.20000
AFIX   0
C5    1    0.336525    0.217747    0.508031    11.00000    0.01824    0.02031 =
         0.01584    0.00089    0.00118   -0.00396
C6    1    0.513458    0.237247    0.534645    11.00000    0.02391    0.02018 =
         0.01642   -0.00043   -0.00238   -0.00118
AFIX  43
H6    2    0.533012    0.196437    0.609444    11.00000   -1.20000
AFIX   0
C7    1    0.660037    0.317328    0.449777    11.00000    0.01843    0.02033 =
         0.01890   -0.00288   -0.00212   -0.00245
AFIX  43
H7    2    0.779927    0.336095    0.467006    11.00000   -1.20000
AFIX   0
C9    1    0.816690    0.854520    0.065691    11.00000    0.01446    0.01686 =
         0.01864   -0.00239   -0.00144   -0.00437
AFIX  43
H9    2    0.831526    0.800212    0.139515    11.00000   -1.20000
AFIX   0
C10   1    0.735223    1.030558    0.054309    11.00000    0.01400    0.01980 =
         0.01724   -0.00564   -0.00011   -0.00430
AFIX  43
H10   2    0.696709    1.095264    0.118621    11.00000   -1.20000
AFIX   0
C11   1    0.710446    1.111654   -0.052875    11.00000    0.01178    0.01617 =
         0.02229   -0.00054   -0.00089   -0.00492
C12   1    0.769983    1.009341   -0.143176    11.00000    0.01721    0.02370 =
         0.01480    0.00251   -0.00272   -0.00286
AFIX  43
H12   2    0.755426    1.059861   -0.217707    11.00000   -1.20000
AFIX   0
C13   1    0.849776    0.835329   -0.124454    11.00000    0.01772    0.02126 =
         0.01574    0.00100   -0.00110   -0.00243
AFIX  43
H13   2    0.888468    0.767432   -0.187273    11.00000   -1.20000
AFIX   0
C14   1    0.625914    1.305128   -0.071374    11.00000    0.01562    0.01268 =
         0.03080    0.00292   -0.00171   -0.00328
AFIX  23
H14A  2    0.556903    1.319816   -0.134378    11.00000   -1.20000
H14B  2    0.527618    1.333161   -0.000804    11.00000   -1.20000
AFIX   0
HKLF 4
REM  jm1121_a.res in P-1
REM wR2 = 0.1376, GooF = S = 1.187, Restrained GooF = 1.187 for all data
REM R1 = 0.0514 for 2085 Fo > 4sig(Fo) and 0.0547 for all 2264 data
REM 187 parameters refined using 0 restraints
END
WGHT      0.0000      3.9224
REM Highest difference peak  0.942,  deepest hole -0.604,  1-sigma level  0.102
Q1    1   0.8108  0.9160 -0.0054  11.00000  0.05    0.94
Q2    1   0.6179  1.3354  0.0034  11.00000  0.05    0.72
Q3    1   0.9317  0.4981  0.1051  11.00000  0.05    0.49
Q4    1   0.9299  1.4853 -0.1155  11.00000  0.05    0.47
Q5    1   0.9622  0.6797 -0.0364  11.00000  0.05    0.44
;
_shelx_res_checksum              95995
_shelx_hkl_file
;
   4  -5   2   31.20    6.91   0
   6   1   0    9.37    5.75   0
   3  -4  -1    7.51    4.07   0
   1  -4   0  441.79    7.79   0
   2  -4  -1  137.96    5.88   0
   2  -3  -2  439.39    9.13   0
   3  -5   1   34.18    5.98   0
   3   2  -1  359.82    6.16   0
   1  -2  -2  490.97    7.31   0
   3   1  -2 1589.04   14.77   0
   5  -1  -2  435.91   12.67   0
   4  -5   1   23.12    6.25   0
   6  -3   0  148.18    8.66   0
   6  -1  -1  147.99    8.52   0
   3  -2  -3  770.01   13.41   0
   5  -2  -2  179.50    8.75   0
   5   0  -2   16.65    4.43   0
   2  -2  -3 1085.66   13.68   0
   2  -1  -3  948.45   11.65   0
   2   1  -2  323.45    5.35   0
   3  -5   0   67.19    6.54   0
   3   0  -3  297.82    7.62   0
   4  -2  -3  120.82    6.66   0
   4  -1  -3   17.97    3.75   0
   1   0  -2 1853.24   11.20   0
   5  -3  -2  436.13   13.26   0
   2  -4  -2  894.12   13.60   0
   6   1  -1    4.12    5.43   0
   0  -3   0  932.59    6.83   0
   1  -4  -1 1018.21   11.88   0
   2  -5   0  737.93   12.92   0
   2   0  -3  756.88    9.71   0
   5   1  -2    0.96    4.35   0
   6  -3  -1   67.90    6.54   0
   5  -1  -3   30.24    5.53   0
   3  -5  -1   15.74    5.23   0
   5  -2  -3   37.00    5.42   0
   6  -2  -2    0.28    4.39   0
   6   0  -2  856.88   17.01   0
   3  -1  -4  302.02    8.49   0
   5  -4  -2   78.82    7.22   0
   5   0  -3  110.56    6.87   0
   2  -5  -1    1.66    4.03   0
   2  -2  -4   74.27    4.38   0
   4  -2  -4   92.75    6.31   0
   4  -1  -4    9.89    3.71   0
   4   1  -3   16.72    3.83   0
   1  -4  -2 1097.21   13.17   0
   1  -3  -3   71.40    4.04   0
   2  -1  -4 2665.50   21.03   0
   3  -3  -4  543.12   12.54   0
   4  -4  -3   13.33    4.45   0
   3  -5  -2  150.36    8.15   0
   4  -3  -4   27.03    5.59   0
   3   2  -2    5.19    2.07   0
   4  -5  -2   93.71    7.70   0
   4   0  -4   22.09    4.61   0
   0  -3  -1   84.14    2.79   0
   5  -2  -4   22.61    5.90   0
   6  -1  -3  235.92   10.01   0
   2  -5  -2   62.08    5.06   0
   2   1  -3 5610.54   24.08   0
   3  -4  -4  472.48   12.42   0
   5  -4  -3    3.07    4.34   0
   5   1  -3  646.00   13.81   0
   6   0  -3   34.23    6.96   0
   0  -2  -2 6000.04   20.99   0
   1  -2  -4  530.75    9.12   0
   3  -5  -3  180.43    8.74   0
   3  -1  -5   70.93    5.49   0
   4  -4  -4   69.16    6.35   0
   5  -3  -4   19.89    4.97   0
   1  -4  -3 1600.17   16.89   0
   1  -3  -4  113.52    5.19   0
   2  -2  -5  357.44    9.25   0
   3  -3  -5   10.38    3.99   0
   4  -2  -5   48.00    5.67   0
   4  -1  -5    1.95    4.65   0
   1  -1  -4 2725.70   18.99   0
   4  -5  -3  482.45   13.54   0
   4  -3  -5  442.33   13.44   0
   2  -5  -3   37.58    5.40   0
   2  -1  -5    2.59    2.54   0
   0  -3  -2  844.15    9.01   0
   0  -1  -2  419.53    5.07   0
   3   1  -4   14.56    2.86   0
   4   1  -4   20.41    3.78   0
   3  -4  -5  434.67   12.26   0
   4   0  -5   60.84    6.12   0
   5  -2  -5   31.66    5.76   0
   3  -5  -4   33.21    5.22   0
   4  -4  -5   10.40    5.41   0
   5  -1  -5   17.54    5.08   0
   0  -2  -3 1292.87   11.38   0
   1  -5  -2    0.20    3.48   0
   1  -2  -5  141.94    5.73   0
   3  -2  -6  222.47    8.96   0
   1  -3  -5   22.74    3.75   0
   2  -5  -4  121.15    7.48   0
   2   0  -5  236.21    6.82   0
   3  -3  -6 1050.48   19.21   0
   4  -2  -6  145.55    8.79   0
   5   1  -4  235.04    9.59   0
   0  -3  -3  163.05    4.79   0
   1   0  -4  181.29    4.90   0
   2  -2  -6   16.81    3.50   0
   2   1  -4   46.96    3.20   0
   3  -1  -6  196.11    8.09   0
   3   2  -3  178.64    5.24   0
   5   0  -5   28.47    6.16   0
   1  -1  -5  168.27    5.57   0
   2  -3  -6  106.82    6.42   0
   0  -4  -1  617.66    7.28   0
   0  -1  -3   64.25    2.79   0
   2  -1  -6 1486.87   18.73   0
   3  -4  -6  421.86   12.75   0
   3  -5  -5   -2.57    4.08   0
   0  -4  -2  795.21    9.42   0
   2  -5  -5   23.99    5.39   0
   2  -4  -6  497.21   12.69   0
   3   0  -6  119.03    6.66   0
   3   1  -5   25.80    3.89   0
   4  -4  -6   15.15    4.80   0
   4   1  -5   67.35    6.06   0
   5  -1  -6   14.21    5.50   0
   3   0   1  136.83    4.60   0
   5   0   4   78.07    5.63   0
   3  -3   4  810.27   13.98   0
   4  -3   8   47.63    6.18   0
   4   0   2   88.07    4.75   0
   6   0   7  297.91   11.35   0
   3  -2   2 1724.38   17.67   0
   4  -3   6    7.70    4.47   0
   4   2   2  599.69   10.12   0
   5  -1   4   52.58    5.61   0
   6   2   6  169.43    8.77   0
   2  -2   1  901.41   10.50   0
   3  -1   1    4.58    2.07   0
   4  -2   3  181.12    7.67   0
   6  -1   8  192.07    9.46   0
   6   0   6   62.78    6.24   0
   1  -1   0    0.77    1.03   0
   5   0   3   32.46    4.84   0
   5   3   4   75.08    5.88   0
   6  -1   7  116.61    8.33   0
   3  -3   3  491.03   10.60   0
   5  -2   5  470.50   13.26   0
   6   1   5    1.13    5.10   0
   5   2   3    7.41    3.93   0
   6  -1   6  303.07   11.38   0
   5  -2   4  218.92    9.64   0
   5  -1   3   21.24    4.10   0
   3  -2   1 1141.24   14.28   0
   4  -2   2  262.29    8.73   0
   4   0   1  160.03    6.00   0
   2  -4   4  484.66   10.49   0
   4   1   1  155.15    5.64   0
   6  -1   5   86.93    6.84   0
   6   1   4  106.98    7.56   0
   3   0   0    2.49    1.85   0
   4  -1   1 1386.30   17.48   0
   5  -3   6  567.63   14.89   0
   5   0   2   44.04    5.06   0
   6   0   4   96.76    6.71   0
   5   1   2  117.70    6.05   0
   3  -1   0   95.21    4.27   0
   6  -2   6    5.55    4.64   0
   6   2   4  183.61    8.82   0
   1  -2   0 9936.52   27.72   0
   2  -2   0   46.28    2.84   0
   3  -4   4   -3.98    4.00   0
   6  -1   4    0.45    4.12   0
   1  -3   1 3094.25   16.90   0
   2  -4   3  240.07    7.41   0
   4  -4   6  172.56    9.51   0
   4   2   1 3348.15   22.53   0
   6  -2   5   32.60    6.22   0
   4  -2   1   98.66    5.57   0
   5   2   2    0.73    2.99   0
   6   0   3   28.61    5.62   0
   6   1   3   23.66    5.44   0
   4  -4   5  536.84   13.72   0
   4  -3   2  360.97   10.64   0
   3  -4   3   24.40    4.08   0
   3  -3   1   19.77    3.26   0
   3  -2   0   -0.46    2.16   0
   5  -2   2   35.04    4.72   0
   6  -1   3   48.16    6.43   0
   4  -4   4   52.23    6.52   0
   4   0   0  708.84   11.95   0
   5   0   1  202.37    7.84   0
   6  -2   4   81.20    6.97   0
   4  -1   0   43.76    3.99   0
   5  -3   3    5.36    4.30   0
   5  -1   1 1179.05   18.76   0
   5   1   1   97.25    6.07   0
   6   2   3   37.65    5.98   0
   2  -4   2  270.46    7.48   0
   2   2   0  916.53    6.43   0
   4   1   0    2.15    2.37   0
   3  -4   2   95.50    5.62   0
   3   0  -1   16.78    2.85   0
   4  -4   3  370.29   11.32   0
   4  -3   1    0.76    3.25   0
   4  -2   0  339.76    9.73   0
   6  -2   3    9.23    4.54   0
   3  -1  -1  153.94    5.40   0
   5  -4   5    4.16    7.07   0
   5  -2   1   20.31    4.06   0
   6  -1   2   30.84    5.25   0
   7   0   4    8.99    5.18   0
   1  -1  -1  672.38    6.87   0
   2  -2  -1   20.44    2.74   0
   3  -3   0  161.46    6.22   0
   5  -3   2   78.56    6.54   0
   5   2   1  507.61   10.87   0
   6  -3   4    6.30    4.93   0
   1  -3   0 6965.82   26.04   0
   1   0  -1  444.87    4.85   0
   3  -2  -1  259.03    7.30   0
   4  -4   2  388.70   11.70   0
   5  -4   4  247.05   10.40   0
   5  -1   0  349.60   10.89   0
   2  -4   1  966.77   13.06   0
   3  -4   1  360.80    9.81   0
   3   1  -1  240.47    5.79   0
   4  -1  -1  144.97    6.65   0
   6  -2   2  100.93    7.31   0
   6   2   2    3.37    5.23   0
   4  -3   0  273.69    9.68   0
   4   0  -1  155.59    6.15   0
   4   2   0 3178.68   21.86   0
   5   1   0   73.47    5.54   0
   6  -3   3   24.28    6.10   0
   7   0   3  407.05   12.74   0
   1  -2  -1  996.07    9.45   0
   5  -4   3   46.06    6.28   0
   5  -3   1  434.94   12.81   0
   5  -2   0  130.75    7.64   0
   6  -1   1  373.53   12.04   0
   4  -2  -1  509.82   11.84   0
   6   1   1  174.30    8.72   0
   4  -4   1   95.06    6.66   0
   3  -3  -1   33.90    3.76   0
   5  -4   2    7.91    5.69   0
   6  -3   2  188.31    9.97   0
   6  -2   1   95.92    7.17   0
   2  -1  -2   21.85    2.40   0
   3  -4   0   14.19    4.19   0
   3  -1  -2  251.94    7.11   0
   5  -1  -1  759.31   15.71   0
   1  -2   8  297.30    9.18   0
   3   3   5  230.26    6.60   0
   3   4   6    0.75    3.48   0
   3   1  11  208.76    9.55   0
   2  -1  10  190.29    9.18   0
   2   0  12   32.47    5.76   0
   3   0   8    0.45    2.97   0
   3   0   9   13.86    4.93   0
   3   1   5  544.67    9.74   0
   1  -2   9  319.51   10.17   0
   1  -1   2  189.43    3.75   0
   3   0   6    2.05    2.43   0
   3   0  10   18.04    4.68   0
   3   1  12   42.66    6.89   0
   1  -2   4 1027.67   11.06   0
   1   0   1 4185.00   13.66   0
   2  -1  11    0.52    4.51   0
   3   0  11  174.24    9.34   0
   3   0   5  435.01    9.11   0
   3   1   4 1013.17   12.45   0
   3   3   4 2618.71   19.19   0
   4   2   8  846.50   16.27   0
   4   2   9   52.30    5.68   0
   4   3   9  755.99   16.16   0
   4   3  10    6.42    5.39   0
   4   2  10   18.64    4.75   0
   4   3   8  307.07   10.07   0
   0  -2   2  146.08    2.82   0
   3  -1   8   70.28    6.04   0
   4   1   9   48.97    6.14   0
   4   2  11    3.44    5.38   0
   4   3  11  913.24   18.49   0
   3  -1   7   53.48    4.71   0
   3  -1   9    3.63    3.99   0
   4   1   8  944.82   17.20   0
   4   1  10   39.39    5.45   0
   4   3   7  241.20    8.57   0
   4   4   9  249.33   10.19   0
   4   4  10   88.71    8.34   0
   2  -2   9  286.48   10.46   0
   4   1   7  116.61    6.43   0
   1  -2   3  216.01    4.86   0
   2  -1   3  567.22    8.30   0
   3  -1   6  164.91    6.64   0
   3   0   4  299.73    7.19   0
   4   1  11  234.96   10.31   0
   4   4   8  288.41   10.03   0
   2  -2  10  375.98   11.90   0
   3   2   3 1442.67   13.47   0
   4   0   8   14.47    4.21   0
   4   0   9   87.46    6.91   0
   4   1   6  258.17    8.42   0
   4   3   6    4.65    3.20   0
   3  -1   5  493.92   10.12   0
   3   1   3  988.82   11.53   0
   4   0   7  432.73   11.60   0
   4   0  10   53.92    6.09   0
   4   2   5  320.88    8.53   0
   1  -3   6    6.58    3.34   0
   4   0   6  155.16    6.88   0
   3   0   3  433.09    8.05   0
   4   3   5  376.03    9.14   0
   3  -2   9   76.50    6.89   0
   3  -1   4 1150.17   14.29   0
   4  -1   8   63.31    5.79   0
   4  -1   9   71.71    6.43   0
   1  -1   1 4436.16   15.93   0
   2  -1   2    4.12    1.61   0
   5   1   9  780.35   16.84   0
   5   1  10  193.95    9.69   0
   5   3   9  453.10   12.76   0
   4   2   4  465.12    9.64   0
   5   1   8   23.83    4.81   0
   5   3   8  414.47   12.11   0
   2   1   1 3206.32   14.84   0
   4  -1   6   10.65    3.43   0
   4   1   4 1373.43   16.39   0
   5   2   7  418.16   11.66   0
   2  -2   3   29.36    2.71   0
   5   1   7   25.93    4.70   0
   3  -1   3  427.46    8.44   0
   3   1   2  102.65    3.85   0
   5   0   9  141.97    8.10   0
   5   0  10   47.94    6.41   0
   5   3   7  250.39    9.54   0
   2   2   1   78.31    2.33   0
   3   2   2  183.54    4.76   0
   4   0   4   39.03    3.71   0
   5   0   8  407.00   12.34   0
   4   3   4    3.38    3.02   0
   5   0   7  124.64    7.80   0
   5   1   6   33.96    4.49   0
   3   0   2  751.55   10.07   0
   4  -2   9  130.85    8.08   0
   5   3   6   18.10    5.12   0
   4  -2  10   -1.76    5.96   0
   4   1   3  288.87    7.53   0
   5   0   6   69.39    5.67   0
   3  -3   8   70.22    7.07   0
   4  -2   6  829.82   16.08   0
   4   2   3  845.35   12.16   0
   5  -1   9   -2.24    4.52   0
   4   0   3    9.39    2.82   0
   5   2   5  321.69    9.50   0
   1  -3   3  441.55    7.16   0
   2  -2   2  281.13    6.14   0
   3  -3   6  588.00   13.22   0
   3  -1   2  373.84    7.80   0
   5  -1   7   36.88    5.36   0
   3  -2   3  333.31    8.22   0
   5   0   5  165.27    7.69   0
   6   1   9  248.49   10.95   0
   5  -1   6  280.80   10.33   0
  -2   2  10  376.08   12.54   0
   1   3   6  112.50    5.33   0
  -3   0   9   46.53    7.86   0
  -1   3  10  100.54    7.94   0
   0   3   9  282.51   10.57   0
   1   2   6  807.69   12.33   0
   1   4   5  173.56    6.30   0
  -1   2  10   71.80    7.33   0
  -1   5   9   16.14    5.74   0
   0   0   7 1061.74   15.14   0
   0   2   9   12.74    3.94   0
   1   4   4 1275.05   13.63   0
  -2   1  10  271.44   11.11   0
  -1  -1   7  246.91    8.33   0
  -1   4  10  290.92   11.39   0
   0   5   8  332.95   11.25   0
   1   1   5  183.87    5.87   0
   1   2   2   34.13    1.87   0
   1   3   7   81.75    5.24   0
  -2  -1   8   93.73    7.43   0
   1   1   3   10.24    1.87   0
   1   2   7   35.75    3.82   0
  -1   0   9   39.59    5.87   0
   1   1   6   99.48    4.80   0
   1   4   3  249.44    5.54   0
   1   4   7  211.79    7.98   0
  -1   1  10  125.47    8.01   0
   0   3  10   81.92    7.48   0
   1   3   8   32.22    4.41   0
  -1  -2   3  117.10    3.22   0
   0   0   8   57.31    4.82   0
   0   2  10   86.77    7.51   0
   0   5   9   60.91    7.36   0
   1   2   8  999.33   16.43   0
  -1  -2   4 1284.32   11.59   0
   0   4  10  199.59    9.54   0
   1   4   8   -0.09    3.97   0
  -2   0  10  473.12   14.40   0
  -1  -1   8  445.76   11.55   0
  -1   2  11   58.28    6.38   0
   0  -1   6  254.39    7.10   0
   1   3   9  344.98   11.16   0
   1   5   6  181.96    7.84   0
  -1  -2   5    1.68    2.45   0
   0   1  10  467.01   13.28   0
   1   1   2 3308.06   13.90   0
   1   1   8 1079.09   16.79   0
   1   2   9   27.97    4.36   0
   1   5   7  300.59   10.30   0
  -2  -1   9   25.56    6.64   0
  -1   0  10  232.69   10.34   0
   0   3  11   -0.50    4.35   0
   1   0   5 1387.63   13.86   0
  -1   1  11 1154.63   21.24   0
   0  -1   7  209.16    7.07   0
   0   2  11    6.42    5.59   0
   1   5   8   34.65    6.23   0
   1   1   9 1078.41   18.44   0
   1   3  10   98.23    7.27   0
  -1  -2   6   10.35    3.38   0
   1   0   7 2512.72   22.87   0
   1   2  10  103.26    7.05   0
   1   0   3    9.48    1.67   0
   0  -1   8  467.90   11.15   0
   0   0  10   67.97    7.05   0
   0   1  11  720.68   16.79   0
   2   2   7   21.24    3.39   0
  -1  -2   7  242.33    8.11   0
   1   1  10  340.77   11.51   0
   1   3  11   21.82    5.26   0
   2   2   5  827.09   11.33   0
   2   3   5  671.66   10.54   0
   2   3   8    2.47    3.36   0
   1   2  11   79.23    6.85   0
   2   4   6   27.38    4.05   0
   2   4   7    1.42    3.23   0
   1   0   9   48.23    5.16   0
   2   3   9   10.15    4.34   0
   2   4   8   -1.64    3.38   0
  -1  -1  10  582.86   14.94   0
   0  -1   9   26.90    4.81   0
   2   2   9  160.06    7.69   0
   0   0  11   46.76    6.70   0
   1   1  11   33.03    6.33   0
   2   3   4  483.38    8.11   0
   2   4   5  130.45    5.38   0
   1  -1   5  243.81    6.29   0
   1   2  12   25.38    5.41   0
   2   1   9   70.40    5.53   0
   2   2  10  475.29   13.26   0
   2   4  10   37.90    6.35   0
   0  -2   5   64.52    3.80   0
   0  -2   6   49.04    4.65   0
   0  -1  10   10.02    4.77   0
   1  -1   4   69.14    3.20   0
   2   1   4 2443.55   17.20   0
   2   5   8   41.32    5.80   0
   0  -2   4  208.57    4.85   0
   0  -2   7   92.19    5.60   0
   2   0   7  101.04    5.52   0
   2   1  10   13.28    4.11   0
   2   2  11  959.81   19.01   0
   2   5   9    0.94    5.55   0
   1   1  12   55.98    6.18   0
   2   0   6  421.92    8.94   0
   2   0   8  490.02   11.47   0
   2   4   4  308.69    6.70   0
   1  -1   9  358.93   10.66   0
   2   0   5 1732.04   16.16   0
   0  -2   8   17.09    4.77   0
   2   3  12   25.72    6.24   0
   2   1  11   34.92    5.41   0
   2   2  12  545.73   14.95   0
   0  -1  11  360.60   12.89   0
   1  -1   3  212.76    4.44   0
   3   2   8   58.69    5.41   0
   3   3   7  454.62   10.80   0
   1  -1  10    7.13    3.95   0
   2   0   4 2778.65   18.40   0
   2   0  10   32.02    4.98   0
   3   2   9  379.81   11.17   0
   1   0  12   -0.74    4.90   0
   3   4   8  236.70    9.05   0
   2   1  12   14.90    5.07   0
   3   2  10  327.49   11.07   0
   3   3   6  118.42    5.40   0
  -5  -1   3  616.02   14.42   0
  -5   4   3    0.30    4.46   0
  -2   5   2   61.70    5.27   0
  -2  -1   3 5604.84   25.85   0
  -2   0   4  863.40   12.11   0
  -1   0   3 1552.31   12.47   0
  -4   4   4   75.62    6.69   0
   0   2   2 6030.95   21.68   0
  -5   0   4  128.02    8.03   0
  -4   2   5   40.68    5.73   0
  -3   1   5   59.58    5.13   0
  -2   2   5  371.82    9.77   0
  -1   4   3 1559.43   17.18   0
  -4   1   5    3.99    4.00   0
  -4   3   5  441.76   13.76   0
  -1   1   4 2738.87   19.65   0
  -1   3   4  106.49    4.99   0
  -2   1   5   -2.62    2.48   0
  -2   3   5  228.67    8.45   0
  -2   5   3   35.51    4.69   0
  -1  -1   2  687.11    6.48   0
   0   1   2  422.68    5.23   0
  -5   2   5   35.81    5.87   0
  -3   0   5  357.22    9.96   0
  -3   4   5  423.94   12.45   0
  -5   1   5   16.56    5.58   0
  -4   0   5   61.20    5.78   0
  -3   5   4   31.54    5.30   0
  -5   3   5  376.19   12.76   0
  -4   4   5   12.88    4.77   0
  -3   2   6  205.69    8.85   0
  -1   4   4    5.67    3.06   0
  -4   2   6  142.02    8.96   0
  -3   3   6 1077.62   19.79   0
  -2   5   4  126.84    7.73   0
  -1   2   5  127.44    5.41   0
  -1   3   5   18.65    3.80   0
  -3   1   6  193.41    8.41   0
  -2  -2   2  481.03    6.04   0
  -2   2   6   14.60    3.51   0
  -1   0   4  186.94    5.13   0
   0   3   3  170.32    5.01   0
  -5   0   5   26.80    6.09   0
  -4   3   6  105.69    7.74   0
  -2  -1   4   41.50    3.08   0
  -2   3   6  101.72    6.47   0
  -1   1   5  169.40    5.77   0
  -2   1   6 1507.48   19.51   0
  -1   5   3   68.86    5.48   0
   0   4   1  601.75    7.29   0
  -3   5   5   -3.32    4.22   0
  -4   4   6   14.89    5.01   0
  -2   4   6  518.93   13.55   0
  -2   5   5   21.22    5.55   0
  -5   1   6    9.52    6.66   0
  -4  -1   5   69.51    6.81   0
  -4   0   6  352.18   12.13   0
  -3  -1   5   18.71    4.38   0
  -3   0   6  116.28    6.82   0
   0   2   4    4.41    1.90   0
  -3   3   7   96.79    7.33   0
  -1  -1   3 1547.11   11.54   0
  -1   2   6   99.74    5.40   0
  -1   3   6   53.23    4.70   0
  -1   5   4   79.12    6.05   0
  -2   2   7   37.32    5.36   0
   0   4   3   56.08    3.75   0
  -3   1   7   21.43    4.66   0
  -1   0   5  551.70    9.43   0
  -1   1   6  415.04    9.69   0
  -4   1   7   13.54    6.13   0
  -3   5   6    1.19    4.47   0
  -5   0   6    9.79    7.43   0
  -2  -1   5  239.01    6.83   0
  -2   1   7  230.94    8.81   0
  -2   4   7    6.19    5.18   0
  -2   5   6    4.23    4.44   0
   0   0   2 3345.48   13.15   0
   0   2   5   14.24    3.12   0
   0   3   5   93.65    5.26   0
   0   4   4 1260.78   14.93   0
  -2  -2   3  908.11    9.45   0
  -1   3   7  485.11   12.14   0
  -3   2   8   -1.65    5.09   0
  -3   3   8    3.85    5.48   0
  -4   0   7  105.27    8.36   0
  -3  -1   6  341.20   10.54   0
  -2   2   8   20.17    5.50   0
  -2   3   8    3.98    4.25   0
  -1  -1   4 2362.27   16.34   0
   0   0   3  923.87    8.53   0
   0   1   5  308.65    6.90   0
   0   4   5    4.38    2.89   0
  -1   1   7  200.18    7.54   0
   0   3   6  126.47    5.81   0
  -3   4   8    0.82    4.68   0
  -2   4   8   26.39    6.00   0
   0   2   6  187.41    6.45   0
  -2   1   8    3.10    3.84   0
  -2  -1   6  384.52    9.35   0
  -1   2   8   95.14    6.62   0
  -1   3   8   80.49    6.35   0
   0   0   4   -0.36    1.47   0
   0   4   6  440.39   10.62   0
   0   1   6  215.22    6.52   0
  -1  -1   5  481.96    8.59   0
  -1   4   8  244.55    9.88   0
  -1   5   7  511.66   13.35   0
   0   3   7  627.30   12.88   0
  -3   2   9  114.06    7.83   0
  -2  -2   4 1175.29   12.13   0
  -2   2   9  143.16    8.64   0
  -2   3   9   18.97    5.03   0
   0   2   7 1329.65   17.69   0
   0   5   5  804.65   13.82   0
  -2   5   8   50.33    6.17   0
  -1   1   8    1.82    3.26   0
   0   0   5   93.89    4.16   0
  -3  -1   7  196.66    9.09   0
  -2   0   8   16.72    4.58   0
  -2   4   9   23.67    5.27   0
  -1   3   9   78.13    6.45   0
   0   1   7  498.32   10.53   0
   0   5   6  445.65   11.46   0
  -1   2   9   81.38    6.46   0
   0   3   8  206.97    8.35   0
  -6   2  -4   70.77    6.21   0
  -4   4  -4   51.78    6.15   0
  -6  -2  -3   42.44    6.07   0
  -5   1  -1 1084.04   17.89   0
  -5   3  -3    9.48    4.21   0
  -4   1   0   44.85    3.92   0
  -4  -1   0    2.87    3.11   0
  -2   0   1 1387.51   11.57   0
  -3   4  -2   95.79    6.10   0
  -6  -1  -2  190.84    9.21   0
  -6   2  -3    9.29    4.48   0
  -4   2   0  320.97    9.71   0
  -4   3  -1    3.70    3.38   0
  -3  -2   0  127.89    4.12   0
  -7  -1  -4  108.46    9.44   0
  -7   0  -4   11.12    5.45   0
  -6   1  -2   31.56    5.47   0
  -5   2  -1   12.73    3.95   0
  -5   4  -5    0.88    6.81   0
  -3   0   1   19.54    2.68   0
  -2   2   1   21.74    2.96   0
  -1   1   1  650.89    6.97   0
  -1   4  -2   26.65    3.77   0
  -6   3  -4    7.21    4.99   0
  -5  -2  -1  505.63   11.60   0
  -5   4  -4  245.62   11.11   0
  -5   1   0  347.17   11.37   0
  -3   2   1  263.16    7.67   0
  -1   3   0 6907.53   27.10   0
  -6   2  -2   99.05    7.66   0
  -4   1   1  149.16    7.11   0
  -3  -1   1  221.85    6.10   0
  -3   4  -1  356.32   10.18   0
  -2  -1   1 1532.01   11.55   0
  -7   0  -3  419.07   13.48   0
  -6  -2  -2    3.84    5.79   0
  -6   0  -1  172.08    9.02   0
  -6   3  -3   24.99    6.40   0
  -5   4  -3   47.10    7.11   0
  -4  -2   0 3197.95   23.70   0
  -4   3   0  274.32   10.02   0
  -5  -1   0   71.77    5.51   0
  -5   2   0  143.41    8.29   0
  -5   3  -1  432.43   13.24   0
  -6  -1  -1  174.21    9.39   0
  -4   2   1  498.22   12.25   0
  -4   4  -1   91.39    6.91   0
  -3   3   1   34.91    4.50   0
  -2   3   1  394.65    8.50   0
  -6   2  -1   93.10    7.47   0
  -6   3  -2  188.67   10.30   0
  -5   4  -2    6.50    5.93   0
  -4  -1   1  196.46    6.93   0
  -1   4  -1  401.69    7.72   0
  -3   1   2  245.33    7.43   0
  -3   4   0   16.26    3.83   0
  -2   1   2   22.89    2.57   0
  -5   1   1  774.95   16.45   0
  -4   3   1   31.68    4.74   0
  -3   2   2  331.44    8.98   0
  -2   2   2  319.52    7.57   0
  -5  -2   0 1472.16   19.16   0
  -5   2   1  191.06    9.07   0
  -2   0   2  352.91    6.63   0
  -1   3   1  238.49    5.71   0
  -6   3  -1  135.15    8.62   0
  -5   4  -1  153.78    8.80   0
  -6   2   0  133.42    8.51   0
  -5  -1   1  526.93   12.81   0
  -4   2   2  292.59    9.81   0
  -6  -1   0    4.37    5.26   0
  -4   5  -2   27.07    6.24   0
  -3   3   2  170.10    7.07   0
  -3   4   1   10.20    4.28   0
  -5   3   1  141.92    8.82   0
  -3   5  -1   24.33    5.87   0
  -2   3   2  434.56    9.34   0
  -2   4   1  124.51    5.88   0
  -3  -2   1  352.17    6.62   0
  -3  -1   2 1668.89   16.18   0
  -1   2   2  505.01    7.58   0
  -6   3   0  173.46    9.21   0
  -5   1   2  431.91   12.51   0
  -6   0   1  339.33   11.97   0
  -5   0   2   13.21    4.98   0
  -5   2   2  174.56    8.87   0
  -4  -1   2  358.55    9.42   0
  -6   2   1  216.29    9.99   0
  -2   1   3  964.63   12.08   0
  -4   1   3   10.85    3.72   0
  -3   5   0   79.01    6.86   0
  -2  -1   2  333.47    5.87   0
  -2   2   3 1101.64   14.03   0
  -4   2   3  121.00    6.84   0
  -1   0   2 1898.32   11.76   0
  -5   3   2  403.06   12.72   0
  -5   4   1  236.80   10.20   0
  -4   5   0  142.98    8.07   0
  -2   4   2  937.24   14.34   0
  -2   5   0  688.17   12.98   0
  -6  -1   1    1.20    5.21   0
  -6   3   1   57.82    6.33   0
  -5  -1   2    0.61    4.75   0
  -4   4   2   -1.40    4.03   0
  -2   0   3  788.32   10.47   0
  -2   3   3  452.76    9.98   0
  -1   4   1  962.69   11.82   0
   0   3   0  915.15    6.94   0
  -4   3   3  474.45   12.96   0
  -6   2   2   -0.72    5.33   0
  -5   1   3   31.76    5.26   0
  -5   2   3   36.01    5.51   0
  -3   5   1   19.06    4.64   0
  -6   0   2  873.52   17.92   0
  -2  -2   1  229.82    3.66   0
  -1   2   3  432.05    7.74   0
  -5   0   3  110.02    7.63   0
  -5   4   2   71.68    7.17   0
  -3   1   4  308.09    8.94   0
  -3   2   4   88.27    5.57   0
  -2   5   1    1.34    4.10   0
  -5   3   3   32.84    5.55   0
  -4   2   4   95.54    6.85   0
  -3  -1   3  260.39    7.20   0
  -2   2   4   82.97    4.99   0
  -4  -1   3   14.77    3.64   0
  -4   4   3   13.37    4.29   0
  -3   3   4  540.97   12.81   0
  -2   1   4 2608.77   21.36   0
   4  -3  -1   34.49    4.25   0
   7   0   1  220.12    9.92   0
   2   1  -2  332.47    6.26   0
   4  -2  -2  298.03    9.23   0
   6   2   0  891.20   17.77   0
   6   3   1  508.81   13.54   0
   5   2  -1   25.29    4.40   0
   5   3   0  297.39    9.80   0
   6  -3   1  125.68    8.65   0
   6   0  -1  330.82   11.93   0
   5   0  -2   16.22    4.46   0
   6  -1  -1  151.47    8.98   0
   1  -1  -2  305.47    5.07   0
   3  -1  -3  867.95   13.61   0
   4  -4   0    2.67    4.60   0
   6   1  -1   -1.81    4.14   0
   1   0  -2 1881.36   12.10   0
   5  -3  -1  127.63    8.19   0
   5   1  -2    1.09    3.94   0
   3   2  -2    3.67    2.28   0
   4  -1  -3   16.28    3.79   0
   4   0  -3  156.03    7.16   0
   4   2  -2  427.23   10.56   0
   5  -2  -2  176.08    8.62   0
   2   0  -3  753.82   10.52   0
   3  -2  -3  761.58   13.11   0
   6  -3   0  161.34   10.15   0
   2  -3  -2  436.80    8.12   0
   3   1  -3  259.99    7.62   0
   3   3  -1  146.48    5.10   0
   4  -2  -3  122.21    6.74   0
   4   1  -3   12.48    3.63   0
   6   2  -1   23.07    5.35   0
   6   3   0  428.81   12.92   0
   2  -2  -3 1088.78   13.26   0
   3  -4  -1    8.56    3.80   0
   5  -1  -3   24.45    5.81   0
   5   0  -3  117.04    8.02   0
   5   2  -2  898.16   17.05   0
   6  -1  -2   76.22    7.00   0
   1  -3  -1  223.93    4.27   0
   2   2  -2  438.33    7.22   0
   4  -4  -1   80.80    6.72   0
   2   1  -3 5726.48   28.38   0
   5  -3  -2  432.37   13.14   0
   3  -3  -3  780.01   13.39   0
   3  -1  -4  322.35    9.15   0
   5   1  -3  594.24   14.76   0
   4  -1  -4    4.72    3.66   0
   4   0  -4   23.10    4.93   0
   4  -3  -3  465.45   12.00   0
   4   2  -3  115.71    6.81   0
   1  -1  -3  606.00    8.18   0
   2  -1  -4 2622.65   21.75   0
   3  -2  -4   82.60    5.38   0
   4  -2  -4   85.14    6.84   0
   4   3  -2  143.64    6.91   0
   6   2  -2   41.35    6.97   0
   2   0  -4  850.71   12.37   0
   3  -4  -2  405.79   10.00   0
   4   1  -4   27.17    5.11   0
   6  -1  -3  246.89   10.87   0
   6   0  -3   43.35    6.17   0
   6   3  -1   50.76    8.08   0
   3   3  -2  195.55    6.24   0
   4  -4  -2   -3.38    5.18   0
   5   0  -4  123.59    8.03   0
   5  -3  -3   34.69    6.18   0
   5   3  -2  102.00    7.57   0
   5  -2  -4   26.07    6.29   0
   5   1  -4  222.18   10.33   0
   1  -3  -2  668.06    8.13   0
   3  -1  -5   68.20    5.70   0
   2   1  -4   44.05    3.51   0
   3   0  -5  357.64   10.12   0
   4  -1  -5   -1.79    3.78   0
   4   0  -5   57.19    6.34   0
   3  -2  -5  409.02   11.56   0
   1   1  -3 1553.59   12.87   0
   2  -3  -4  805.21   12.85   0
   2  -1  -5    1.14    3.21   0
   4  -4  -3   19.75    5.94   0
   4  -2  -5   46.12    5.53   0
   6   0  -4   48.63    6.66   0
   6   2  -3   25.38    6.23   0
   1  -1  -4 2684.08   19.27   0
   4   1  -5   62.53    6.62   0
   4   3  -3  204.62    8.52   0
   5  -1  -5   19.89    5.52   0
   5   0  -5   30.96    6.45   0
   2  -2  -5  370.34    9.69   0
   2   0  -5  241.30    7.59   0
   3   1  -5   22.39    3.94   0
   5  -3  -4   13.94    5.67   0
   5   2  -4  102.49    7.51   0
   1  -2  -4  530.52    9.10   0
   1   0  -4  181.26    5.37   0
   5  -2  -5   29.28    6.53   0
   1  -3  -3   71.73    3.67   0
   3  -3  -5    8.81    5.14   0
   3   3  -3   50.38    4.57   0
   4  -3  -5  433.74   12.79   0
   2   1  -5  244.83    7.56   0
   2   2  -4 1126.84   14.12   0
   3   0  -6  108.74    6.59   0
   4   0  -6  349.59   12.19   0
   2  -3  -5  225.73    8.05   0
   3  -4  -4  494.21   12.29   0
   3  -2  -6  228.79    9.35   0
   4  -4  -4   73.37    7.51   0
   4  -2  -6  155.46    9.19   0
   1   1  -4 2404.29   18.20   0
   2  -1  -6 1488.71   19.77   0
   4   2  -5    2.57    4.25   0
   2  -2  -6   14.42    4.42   0
   2   0  -6  209.45    7.84   0
   3   2  -5   12.70    3.73   0
   4   1  -6   41.09    6.48   0
   5  -1  -6   16.45    5.34   0
   5   0  -6    4.47    5.03   0
   0  -1  -2  424.14    4.96   0
   1  -3  -4  112.36    4.88   0
   1  -2  -5  125.71    5.52   0
   1   0  -5  532.14    9.73   0
   3   1  -6  325.31   10.56   0
   4   3  -4  213.81    8.91   0
   5   2  -5   23.85    6.65   0
   3  -3  -6 1051.99   18.63   0
   4  -3  -6  108.45    7.65   0
   6   2   6  148.85    8.37   0
   4   4   3   16.65    4.10   0
   6   1   6   33.30    5.18   0
   4   3   2   27.21    3.98   0
   5   2   3    7.99    4.14   0
   6   0   7  230.35   10.03   0
   4  -2   4  495.82   11.17   0
   6   4   7   68.49    7.31   0
   2   2   0  967.30    9.36   0
   3   3   1  354.15    7.29   0
   6   1   5    2.77    4.87   0
   6   2   5  701.32   16.21   0
   3  -1   1    7.53    2.59   0
   5   0   3   36.89    4.52   0
   5   3   3   20.72    4.92   0
   5   4   4  655.97   14.15   0
   4  -1   2   37.90    3.85   0
   5  -2   7  614.46   14.84   0
   6   3   5  502.11   14.14   0
   6   4   6   89.09    8.61   0
   3  -2   2 1707.74   16.41   0
   6   0   5  335.39   12.22   0
   6   2   4  184.67    9.55   0
   4  -2   3  189.71    7.23   0
   4   0   1  151.90    6.18   0
   5   1   2  110.03    6.45   0
   6   1   4  108.50    7.52   0
   3  -3   4  775.55   12.23   0
   3   0   0    0.23    1.90   0
   5  -2   5  499.01   13.53   0
   5  -1   3   25.61    4.41   0
   1  -2   1  668.85    5.73   0
   1  -1   0    1.76    0.89   0
   2  -2   1  907.31    9.48   0
   2  -1   0    3.00    1.54   0
   4   4   2    9.68    4.06   0
   5   0   2   44.67    4.75   0
   6   0   4   89.82    7.80   0
   6   3   4  237.77   10.09   0
   2  -3   3    1.47    2.29   0
   4   3   1   22.20    3.98   0
   5   4   3   30.93    5.91   0
   4  -1   1 1363.17   17.46   0
   6   1   3   23.74    5.14   0
   6   2   3   47.02    5.64   0
   2   3   0  494.20    6.58   0
   3  -2   1 1162.80   13.67   0
   4   1   0    2.22    2.65   0
   5  -1   2  498.73   12.55   0
   5   1   1   98.90    6.17   0
   6   0   3   38.78    5.69   0
   7   2   5   18.89    6.22   0
   4   0   0  716.07   12.66   0
   5   2   1  485.11   12.09   0
   6   3   3  438.64   12.91   0
   6   4   4  275.09   10.70   0
   2   1  -1 1483.57   12.12   0
   3   3   0  271.34    6.64   0
   5  -2   3    9.46    5.08   0
   5   0   1  205.68    8.29   0
   6  -2   6    4.12    6.07   0
   6   2   2    5.41    4.29   0
   3   0  -1   18.63    2.58   0
   5   3   1   91.73    6.47   0
   5   4   2   36.22    5.41   0
   6  -1   3   55.51    6.08   0
   6   0   2  110.88    7.37   0
   2  -3   2  221.02    5.07   0
   5  -1   1 1117.97   18.19   0
   6  -2   5   39.00    6.36   0
   2   2  -1  231.87    4.83   0
   3  -3   2    3.48    2.94   0
   4  -3   3  246.92    8.08   0
   4   3   0   59.50    4.80   0
   5  -2   2   34.74    5.55   0
   6   4   3    1.62    6.24   0
   7   0   4    8.13    5.72   0
   1   0  -1  436.55    5.03   0
   1   1  -1  351.02    4.27   0
   2  -1  -1   13.20    2.16   0
   5   1   0   71.32    5.54   0
   3  -1  -1  145.38    5.37   0
   4   1  -1  195.98    7.01   0
   6  -2   4   74.84    6.91   0
   7   1   3  156.56    8.68   0
   6  -1   2   37.65    5.48   0
   6   0   1  166.84    8.56   0
   7   0   3  414.36   13.39   0
   4  -3   2  376.79    9.58   0
   5  -1   0  338.51   10.78   0
   5  -3   3    6.46    5.48   0
   5   3   0  304.71   10.01   0
   1  -2   0 9915.46   23.53   0
   1  -1  -1  692.31    6.64   0
   3   0  -2 1024.20   13.46   0
   2   0  -2  355.19    6.61   0
   3   3  -1  146.21    5.09   0
   5   0  -1  257.56    9.48   0
   6   1   0    6.44    4.50   0
   7   0   2  457.37   13.68   0
   2   1  -2  332.19    6.16   0
   4  -3   1    2.83    3.81   0
   6   0   0  347.83   11.81   0
   4   1  -2  361.93   10.00   0
   4   3  -1  487.77   10.73   0
   5  -3   2   86.64    7.40   0
   5   2  -1   28.38    4.61   0
   6   2   0  877.45   17.79   0
   3   2  -2    3.81    2.34   0
   4  -2  -1  498.38   11.44   0
   7   1   1   28.07    5.84   0
   3   1  10    4.57    5.60   0
   3   5   6   18.84    5.46   0
   2   0  11  219.93   10.02   0
   3   1   5  487.77   10.02   0
   3   2   4  342.79    8.41   0
   3   3   4 2665.52   22.97   0
   2   0   3  633.18    8.41   0
   2  -1   6  154.67    5.63   0
   2  -1   8  343.15    9.40   0
   3   2  12  382.26   12.99   0
   3   0   8   -1.05    3.85   0
   3   4   4  127.97    5.86   0
   3   6   8  234.49   11.34   0
   4   3   8  308.30   10.85   0
   4   3   9  755.73   17.01   0
   1   0   1 4146.58   13.83   0
   3   0   6    1.08    2.50   0
   3   0   9   17.32    4.34   0
   3   1   4 1035.16   13.19   0
   4   2   8  854.22   17.00   0
   4   2   9   53.09    6.49   0
   4   3   7  249.41    9.43   0
   4   4   8  265.11   10.28   0
   4   4   9  230.88   10.08   0
   4   4  10   92.77    7.97   0
   3   0  10   16.44    5.52   0
   3   2   3 1395.78   14.78   0
   4   2  10   16.83    4.84   0
   4   3   6    5.54    3.33   0
   3   0   5  414.23    8.78   0
   4   2   6  119.15    6.55   0
   4   5   9   42.25    6.57   0
   4   2  11    2.42    4.51   0
   4   5   8  304.91   10.98   0
   3   5   4   61.16    5.33   0
   4   1   7  119.60    6.46   0
   4   1   9   52.04    5.58   0
   4   5   7   64.00    6.75   0
   2   0   2   14.51    2.03   0
   3   1   3 1005.48   12.06   0
   4   3   5  380.53   10.03   0
   3   0   4  306.36    7.22   0
   4   1   6  250.00    8.23   0
   4   2   5  303.31    8.76   0
   1  -2   5  303.03    5.30   0
   4   4   5  104.26    5.93   0
   4   1  11  240.52    9.99   0
   4   5   6   18.21    4.61   0
   3  -1   7   47.12    4.53   0
   3  -1   8   76.99    5.68   0
   4   1   5  358.19    9.31   0
   3  -1   6  167.87    6.22   0
   3   2   2  176.80    5.15   0
   3   3   2   92.46    4.20   0
   4   0   8   15.84    4.61   0
   4   2   4  509.49   10.64   0
   5   3   9  419.73   12.98   0
   3  -1   9    4.21    4.60   0
   4   0   9   90.49    6.38   0
   5   3  10  322.94   11.25   0
   5   4   9   12.20    4.39   0
   4   4   4   67.30    5.20   0
   4   5   5   63.60    6.03   0
   5   2   8  390.05   12.07   0
   5   3   7  226.93    9.56   0
   3  -1   5  490.61    9.29   0
   3   0   3  409.93    7.64   0
   3   1   2  208.77    5.52   0
   4   0   6  152.94    6.57   0
   5   2  10    4.32    4.26   0
   1  -2   4 1069.98    8.40   0
   2   4   1   95.70    3.47   0
   5   2   7  371.54   11.20   0
   3   4   2   25.48    3.23   0
   5   3   6   21.30    4.42   0
   4   0   5   85.58    4.99   0
   4   0  11   62.68    7.42   0
   4   2   3  837.16   12.80   0
   4   3   3   70.25    4.77   0
   5   1   8   25.68    5.24   0
   5   2   6  142.09    7.06   0
   5   1   7   26.37    4.87   0
   5   1  10  181.84    8.78   0
   5   4   6  204.79    8.79   0
   5   5   7    0.28    5.39   0
   4   5   4    4.34    4.32   0
   5   1   6   26.60    4.62   0
   5   2   5  343.22   10.27   0
   5   3   5  144.13    7.00   0
   4   0   4   41.67    3.76   0
   4   4   3   15.07    3.73   0
   2  -1   2    2.76    1.36   0
   4  -1   7  351.61    9.96   0
   4  -1   8   67.06    6.02   0
   4  -1   9   66.06    6.54   0
   5   5   6    8.30    5.27   0
   4  -1   6    7.99    3.19   0
   5   1   5   17.49    3.57   0
   3  -1   3  431.32    7.92   0
   3   1   1  864.73   10.35   0
   4   2   2  569.56   10.37   0
   5   0  10   46.36    7.14   0
   5   2   4  114.39    6.13   0
   6   3   8    8.75    4.42   0
   4   0   3    5.75    3.30   0
   4   3   2   22.98    3.17   0
   5   0   6   66.70    5.89   0
   6   2   9   40.04    5.43   0
   1  -1   1 4401.93   13.81   0
   3  -2   7   20.85    4.19   0
   6   3   7   24.86    4.83   0
   1   0   0 1011.13    6.38   0
   3  -2   6  151.92    6.16   0
   4   1   2   67.15    4.13   0
   5   1   4   14.63    3.41   0
   5   4   4  659.86   13.77   0
   6   2   7   35.23    5.22   0
   6   4   7   62.27    6.96   0
   5   0   5  196.05    8.08   0
   6   3   6   31.79    5.91   0
   6   1   8   18.39    4.92   0
  -2   1   9  249.15    9.94   0
  -1   5   9   19.77    5.13   0
   0   5   8  330.54   11.29   0
   1   2   6  807.85   12.20   0
   0   3   9  283.27   10.54   0
   1   3   7   68.12    5.27   0
   1   5   4  363.28    9.60   0
   1   5   5  217.39    8.34   0
   0   4   9   81.10    6.53   0
   0   6   7  137.78    8.13   0
   1   4   7  213.34    8.32   0
   1   5   3 1277.35   15.83   0
  -2   2  10  384.12   13.27   0
  -1   1   9    2.15    4.76   0
  -1   3  10   98.41    7.18   0
   1   1   4  111.49    4.31   0
   0   5   9   62.28    7.18   0
   1   2   7   35.21    3.75   0
  -1   2  10   70.42    7.13   0
   1   3   8   23.69    4.04   0
   1   4   8    3.65    3.61   0
   1   5   7  296.08   10.47   0
   0   4  10  193.98    9.80   0
   1   1   2 3279.22   14.69   0
   0   0   7 1062.64   13.59   0
   1   2   8  995.91   16.13   0
   1   5   8   30.09    5.39   0
   0   5  10   86.29    7.52   0
   1   4   9  160.44    8.44   0
   1   6   5  559.91   13.23   0
   1   6   6  106.57    7.73   0
   0   1   9  908.31   15.75   0
   0   2  10   86.36    7.25   0
   1   1   7  679.20   11.60   0
   1   6   4  244.75    9.19   0
   1   6   7  131.81    8.45   0
   1   5   9  210.20   10.22   0
   2   3   5  733.58   11.98   0
   1   6   8   17.05    5.35   0
   2   3   4  462.62    8.96   0
   2   3   6   73.44    4.69   0
   0   0   8   56.11    4.52   0
   0   3  11   -0.23    5.20   0
   1   3   0  698.70    6.11   0
   1   4  10   17.45    4.86   0
   2   3   7  338.00    9.50   0
   2   4   4  307.34    7.80   0
   2   4   7   -0.29    3.25   0
   1   5  10  444.33   13.57   0
   2   2   5  805.75   11.36   0
   2   2   6    9.48    2.57   0
   2   3   8    2.15    2.99   0
   2   4   8    0.70    3.54   0
   2   5   5   -1.26    2.93   0
   0   1  10  469.20   12.04   0
   1   1   1  226.25    3.29   0
   2   2   4 1202.75   12.67   0
   2   2   7   16.68    3.04   0
   2   4   3  759.00   10.87   0
   0  -1   4  767.04    6.98   0
   0   2  11    2.25    4.56   0
   2   4   9   24.11    5.28   0
   2   5   4  961.80   14.23   0
   0  -1   5  518.01    6.74   0
   1   1   9 1038.39   15.90   0
   1   4  11  208.69    9.50   0
   2   3   9   11.07    3.76   0
   2   2   3  378.88    6.60   0
   2   5   9   -0.25    3.84   0
   0   0   9   40.15    4.70   0
   1   0   7 2638.34   20.41   0
   2   6   6  232.54    9.30   0
   2   6   7  127.75    7.78   0
   2   4  10   32.14    4.99   0
   2   6   8    3.43    5.13   0
   2   1   5  838.39   10.70   0
   2   1   6  233.59    6.36   0
   2   2   9  168.86    7.33   0
   2   3   2    3.08    1.74   0
   2   3  10   43.87    5.08   0
   2   5  10  253.05   10.36   0
   1   1  10  345.36   10.25   0
   1   2  11   79.82    6.17   0
   2   1   7  190.66    6.32   0
   1   0   8  481.23    9.81   0
   2   1   4 2419.93   16.44   0
   2   6   9   15.54    4.88   0
   2   1   8   60.74    4.37   0
   2   4  11  227.80    9.44   0
   2   2   2  227.92    4.68   0
   2   2  10  467.95   12.00   0
   2   3  11   42.26    5.78   0
   3   4   7   34.59    4.23   0
   0  -1   7  211.08    5.60   0
   1   0   2  926.37    6.89   0
   3   3   6  118.82    5.60   0
   3   3   7  454.85   10.66   0
   3   4   8  229.80    8.68   0
   3   3   5  227.37    6.99   0
   3   4   9   47.15    5.26   0
   3   5   7  298.01    9.70   0
   3   3   9  112.90    6.59   0
   3   5   6   26.59    4.12   0
   1   1  11   42.84    5.77   0
   1   2  12   25.40    5.45   0
   2   2  11  974.57   17.66   0
   3   2   6   47.22    3.81   0
   3   2   7  260.64    8.02   0
   3   5   9    0.74    3.85   0
   3   2   8   58.47    4.70   0
   3   4  10  142.16    7.79   0
   3   5   5  298.84    9.06   0
   2   1  10   17.66    4.72   0
   3   2   5  158.38    5.58   0
   3   3  10   90.35    6.51   0
   3   4   4  145.50    5.63   0
   3   5  10    3.35    4.25   0
   2   0   6  441.82    8.31   0
   3   2   9  405.37   11.14   0
   3   6   7  270.13   10.17   0
   2   0   5 1718.56   14.92   0
   3   4  11   63.20    6.31   0
   3   2   4  322.85    7.46   0
  -5   4   3   -0.14    5.81   0
  -3   4   4  515.54   13.94   0
  -2   5   3   42.76    5.90   0
  -1   5   2    0.01    3.38   0
  -4   4   4   75.33    6.53   0
  -4   5   3  494.38   14.33   0
  -2   6   1   34.85    5.78   0
  -1   2   4  521.30    9.30   0
  -1   3   4  107.69    5.13   0
  -5   2   4   20.65    5.72   0
  -5   3   4   17.24    5.72   0
  -3   2   5  397.98   10.67   0
  -3   3   5    8.95    4.06   0
  -3   5   4   31.65    5.00   0
  -2   2   5  357.08    8.88   0
  -2   3   5  225.32    8.11   0
  -1   4   4    2.32    2.99   0
   0   1   2  424.21    5.27   0
  -4   2   5   50.43    6.28   0
  -4   3   5  454.97   13.25   0
  -2   5   4  116.83    7.00   0
  -1   6   0  306.77    9.93   0
  -4   5   4  135.63    8.49   0
  -3   1   5   69.20    5.24   0
  -2   4   5  275.29    9.59   0
  -1   1   4 2694.87   17.97   0
  -1   6   1  130.98    7.07   0
   0   4   3   57.00    4.18   0
   0   5   1   21.38    3.48   0
  -4   4   5    9.00    4.75   0
  -2   1   5    2.19    2.89   0
  -1   3   5   21.64    3.13   0
  -4   1   5    4.46    4.73   0
  -1   5   4   74.24    5.47   0
  -1   6   2  263.80    9.69   0
  -3   5   5    1.51    3.81   0
  -2   5   5   16.76    5.11   0
  -1   2   5  128.21    5.15   0
  -1   4   5   49.63    4.44   0
   0   5   2  392.85    9.06   0
  -3   6   4  143.22    8.42   0
   0   3   4   45.75    3.37   0
  -3   2   6  229.11    8.60   0
  -1   6   3  145.71    7.85   0
   0   4   4 1264.46   15.83   0
  -2   4   6  515.15   13.15   0
   0   1   3   63.26    2.54   0
   0   2   4    3.65    1.71   0
   0   5   3 1209.75   16.19   0
  -4   3   6  103.96    7.22   0
  -1   5   5  216.79    8.50   0
  -4   2   6  158.04    8.04   0
  -4   4   6   12.39    5.87   0
  -2  -1   3 5765.47   18.44   0
  -1   1   5  165.96    5.31   0
  -1   3   6   47.56    4.19   0
  -3   0   5  368.35    8.42   0
  -3   5   6    0.22    4.75   0
  -2   5   6    2.64    3.92   0
  -1   6   4  325.78   10.59   0
  -2   6   5   80.72    6.45   0
   0   3   5   86.42    4.52   0
   0   4   5    6.70    3.56   0
  -2   1   6 1549.43   17.58   0
  -1   0   4  190.97    4.45   0
  -1   2   6  102.39    5.09   0
  -3   3   7   94.51    7.33   0
  -2   0   5  226.20    5.99   0
  -2   3   7  466.62   11.83   0
  -2   4   7    3.89    4.78   0
  -1   5   6  127.79    7.33   0
   0   6   2   32.14    5.10   0
  -3   4   7   71.97    6.61   0
   0   2   5   16.69    2.46   0
  -3   2   7   85.43    6.87   0
  -2   2   7   36.06    5.15   0
   0   1   4  587.34    7.77   0
   0   5   5  759.50   14.40   0
   0   6   3    0.28    4.42   0
   1   3   2  230.40    4.91   0
  -2   5   7   74.09    6.83   0
  -1   4   7  488.11   12.45   0
   1   4   2  637.57    9.16   0
   0   3   6  122.42    5.63   0
   0   6   4   57.37    6.05   0
   1   4   3  255.37    6.59   0
  -1   6   6   10.60    5.02   0
  -1   2   7  156.95    6.83   0
  -1   5   7  505.97   13.43   0
   0   5   6  446.37   11.67   0
  -1   7   4   58.50    6.99   0
   0   2   6  188.36    6.11   0
   0   6   5    5.49    4.69   0
   1   3   4   20.41    2.56   0
   1   4   0  231.99    4.51   0
  -2   4   8   31.46    4.98   0
   1   2   3  878.74    9.14   0
   1   5   2    6.28    3.36   0
  -3   1   7   17.04    5.07   0
  -3   3   8    7.18    4.95   0
  -1   0   5  546.92    7.96   0
   0   4   7  298.85    9.42   0
   1   5   3 1233.77   15.00   0
  -2   5   8   53.43    5.88   0
  -1   3   8   84.73    6.19   0
  -1   4   8  248.83    9.53   0
  -1   6   7  146.35    8.23   0
   0   3   7  608.45   12.20   0
   1   4   5  165.90    6.17   0
   1   5   4  363.21    9.20   0
  -2   0   6  202.74    6.21   0
  -2   2   8   24.81    5.04   0
   0   5   7   32.59    4.58   0
   0   6   6   28.80    5.41   0
   1   2   4 2244.87   15.86   0
  -3   2   8    0.94    5.08   0
  -1   5   8  178.27    8.63   0
   1   5   5  204.03    7.61   0
  -1   1   7  204.56    6.72   0
   0   0   3  943.34    7.40   0
   0   4   8  654.47   13.88   0
   1   2   5  588.30    8.83   0
   0   5   8  326.16   10.18   0
  -5   2  -2   26.61    4.32   0
  -5   3  -3    5.73    4.99   0
  -3   4  -2  104.17    6.01   0
   0   2   0  383.82    4.85   0
  -3   5  -5  249.42   10.61   0
  -1   3   0 6993.17   29.79   0
  -6   0  -3   29.64    5.81   0
  -6   1  -3   47.54    6.33   0
  -5   4  -5    3.99    4.53   0
  -3  -1   0  581.75    7.06   0
  -2   4  -1  955.91   14.52   0
  -2   5  -4   35.23    5.36   0
  -4   3  -1    6.63    3.36   0
  -3   5  -4   46.12    6.66   0
  -1   4  -1  465.00    9.36   0
  -3   3   0  173.82    6.83   0
  -2   1   1   14.03    1.97   0
  -2   5  -3   11.28    5.27   0
  -1   5  -4    5.35    5.01   0
  -5   1  -1 1089.53   17.07   0
  -5   3  -2   50.20    6.82   0
  -4   4  -2  369.66   11.91   0
  -6   2  -3    9.63    4.86   0
  -4   2   0  333.08    9.55   0
  -4   5  -5  224.57   10.46   0
  -3   5  -3   23.43    6.04   0
  -2   2   1   23.51    2.62   0
  -1   1   1  667.48    6.93   0
  -6   3  -4    5.17    4.69   0
  -1   5  -3   38.30    4.57   0
  -5   4  -3   44.57    5.98   0
  -3   1   1  142.82    5.24   0
  -6   1  -2   41.57    6.54   0
  -2   4   0  478.92   10.59   0
   0   3   0  925.65    9.55   0
  -4   3   0  268.71    9.54   0
  -4   4  -1   88.79    6.61   0
  -4   5  -3   62.37    7.26   0
  -2   3   1  401.09    8.89   0
   0   4  -1  197.19    5.81   0
  -6   2  -2  103.21    8.04   0
  -5   3  -1  435.34   13.04   0
  -3   0   1   18.54    2.59   0
  -1   3   1  255.26    6.59   0
  -5   4  -2    7.80    4.78   0
  -3   3   1   37.41    4.08   0
  -2   5  -1  868.40   15.93   0
  -4  -1   0    0.10    2.42   0
  -4   5  -2   32.24    5.86   0
  -3   5  -1   24.51    4.88   0
  -4   4   0    8.13    4.83   0
  -2   4   1  129.46    6.08   0
  -5   3   0  121.09    8.06   0
  -4   3   1   30.45    4.62   0
  -3   4   1   10.11    4.24   0
  -2   2   2  326.60    7.42   0
  -6   2  -1   92.50    7.20   0
  -4   0   1  160.74    5.95   0
  -4   5  -1   23.60    5.17   0
  -1   4   1  965.43   13.52   0
   0   2   1 7633.75   23.39   0
  -3   5   0   73.23    6.24   0
  -2   1   2   22.37    2.42   0
  -2   3   2  442.40    9.58   0
  -3   3   2  175.87    7.14   0
  -6   3  -1  132.20    8.33   0
  -4   4   1   77.43    6.97   0
  -2   6  -2  108.55    8.20   0
  -1   3   2  680.41   10.29   0
  -5   2   1  212.65    9.27   0
  -5   1   1  750.28   14.40   0
  -4   5   0  142.84    8.18   0
  -2   4   2  897.39   14.67   0
  -4   3   2  765.55   15.71   0
  -3   4   2  402.70   11.06   0
  -3   5   1   11.56    4.33   0
  -2   6  -1  388.92   12.17   0
  -6   2   0  136.17    7.94   0
  -4   1   2  630.36   11.81   0
  -1   4   2 1105.42   14.69   0
  -1   5   1  367.81    9.41   0
   0   4   1  615.36    9.35   0
  -6   3   0  174.06    8.94   0
  -3  -1   1  207.49    4.28   0
  -3   0   2 1043.41   11.64   0
  -2   2   3 1147.40   13.72   0
  -2   3   3  466.17   10.08   0
  -5   4   1  246.78    9.96   0
  -4   4   2    0.69    4.04   0
  -4   5   1   53.30    6.06   0
  -3   2   3  778.39   13.04   0
  -3   6   0   61.61    6.66   0
  -2   0   2  344.13    5.62   0
  -1   6  -1   76.10    6.47   0
  -5   0   1  250.74    7.95   0
   0   5   0  321.18    7.76   0
  -5   2   2  186.99    8.59   0
  -3   5   2  142.74    7.61   0
   0   3   2  846.88    9.81   0
  -3   1   3  875.23   12.61   0
  -3   4   3  344.64   10.35   0
  -1   2   3  423.00    7.34   0
  -4   2   3  126.37    6.52   0
  -4   3   3  482.21   12.33   0
  -2   6   1   34.31    5.71   0
  -6   2   1  205.70    9.16   0
  -5   1   2  434.54   11.03   0
  -4   5   2   89.20    7.16   0
  -1   4   3 1611.72   17.91   0
   0   4   2  817.00   11.04   0
  -5   4   2   73.21    6.79   0
   0   5   1   18.35    3.31   0
  -4   1   3   18.29    4.05   0
  -4   4   3   18.38    4.61   0
  -2   5   3   33.85    4.30   0
  -3   5   3  184.64    8.41   0
  -2   3   4  789.51   13.07   0
   3   0   0    3.01    1.47   0
   1   0   2  892.13    4.49   0
   3   0  -1   21.16    1.63   0
   2  -2   6    5.63    1.54   0
   2  -1   5   29.43    1.77   0
   2   0   3  652.69    5.73   0
   4   0   1  147.91    4.50   0
   4   0   2   79.93    3.69   0
   2   0   4 2727.53   12.62   0
   1   0   3    8.00    1.06   0
   4   0  -2  151.22    4.92   0
   1  -1   5  220.34    2.74   0
   5   0   1  214.26    6.88   0
   5   0   2   49.78    3.98   0
   3   1   1  777.96    8.85   0
   4   0  -3  153.32    5.22   0
   3   0  -4  690.92    7.65   0
   3   1   0  562.89    7.68   0
   3   1   2  174.82    4.57   0
   2   1   0 5378.92   17.96   0
   2   1   1 3336.15   14.43   0
   2   0   5 1713.18   10.88   0
   4   1   0    0.96    2.42   0
   4   1   2   68.52    3.75   0
   5   0   5  165.72    6.82   0
   4  -1   7  332.48    8.46   0
   4   1   3  298.98    7.11   0
   2   1   2 4261.73   16.64   0
   3   0   6    0.63    1.91   0
   4   1  -1  193.93    5.75   0
   5   0   6   62.07    5.35   0
   5   1   2  107.81    5.45   0
   5   1   3   48.32    4.27   0
   1   0   4  147.08    2.44   0
   2   1   3 1182.49    9.17   0
   5   1   0   66.24    4.84   0
   5   1   4   12.17    3.76   0
   4   1   5  359.03    8.02   0
   5   1   5   22.06    3.86   0
   2   1   4 2457.58   13.74   0
   3   1  -3  260.41    5.09   0
   5   1  -2   -0.08    3.34   0
   5   1   6   28.42    4.44   0
   0   0   3  932.15    6.31   0
   1  -2   8  289.64    8.00   0
   1   0   6   98.01    3.61   0
   4   1   7  124.12    5.80   0
   3   1   7  244.10    6.99   0
   1   1   2 3310.83   12.05   0
   1   1   3    9.80    1.86   0
   2   1   6  241.30    5.89   0
   5   1   7   21.25    4.29   0
   0  -1   6  259.26    5.33   0
   3   0   9   12.33    4.29   0
  -1  -2   4 1264.28    6.97   0
   0   0   4    0.79    1.10   0
   1   1   4  120.28    3.76   0
   0  -2   7   92.36    4.39   0
   3   1   8    0.53    2.78   0
   1   1   1  219.43    2.64   0
   4   2   4  448.82    8.74   0
   1   1   5  184.31    5.19   0
   3   2   3 1440.83   12.37   0
   3   2   5  158.71    5.50   0
   4   2   3  821.54   10.46   0
   1   0   8  471.05    9.96   0
   1   1   6   95.71    4.42   0
   2   1   8   61.17    4.41   0
   3   1   9   -6.35    3.39   0
   5   2   6  147.08    7.68   0
   0  -1   7  215.77    5.85   0
   1  -1   9  345.67    9.83   0
   2   2   4 1188.95   11.55   0
   3   2   7  275.53    8.14   0
   0   0   6   37.16    2.87   0
   2   2   3  379.95    6.09   0
   2   2   5  815.33   10.57   0
   4   2   8  844.70   16.10   0
   1   1   7  655.35   10.81   0
   2   2   6    9.61    2.74   0
   2   1   9   66.35    5.80   0
   3   2   8   59.88    4.97   0
  -1  -2   5    0.69    1.29   0
  -1  -1   3 1579.54    6.77   0
   1   0   9   52.22    5.44   0
   2   2   7   23.12    3.02   0
   0  -1   8  466.49    9.42   0
  -1  -1   4 2379.16   10.58   0
   2   2   8  171.34    7.01   0
   3   2   1  623.44    5.94   0
   0   1   4  598.64    7.17   0
   1   2   4 2239.20   15.52   0
   1   2   5  606.88    9.17   0
   4   3   6    7.14    4.32   0
   0   1   3   63.81    2.36   0
   0   1   5  310.67    5.95   0
   4   3   7  230.00    9.15   0
   1   2   6  787.60   11.37   0
   2   2   9  157.99    7.61   0
   3   3   7  472.30   11.74   0
   4   3   8  315.37   11.62   0
  -1  -1   5  495.88    5.90   0
   0   0   8   52.43    4.31   0
   1   2   3  859.90    8.71   0
   4   3   4    6.97    3.38   0
   5   3   6   16.49    5.42   0
   3   3   4 2692.50   20.66   0
   3   3   8   67.76    6.36   0
  -1  -2   1  172.36    2.59   0
   0  -1  -1  649.73    5.10   0
   1   1   0  586.63    3.17   0
   0   1   2  425.17    4.69   0
   0   1   7  505.23    9.56   0
   2   2   1   79.91    2.27   0
   2   3   6   77.89    5.03   0
   2   3   5  659.51   11.08   0
   2   3   7  321.00    9.43   0
   2   3   4  473.81    8.79   0
   3   3   3   22.32    2.71   0
  -1  -1   6  650.86    7.86   0
   2   3   8    2.04    3.59   0
   0   1   8  916.67   14.22   0
   0   2   9    8.95    4.61   0
   2   2   4 1219.85   10.28   0
  -3  -1   2 1595.25   10.72   0
  -1   1   2  300.37    4.88   0
  -1   2   7  148.43    7.46   0
  -3   0   5  343.95    9.00   0
  -2   1   8    3.19    4.72   0
  -1   2   8   88.40    7.35   0
  -1   2   5  135.30    5.66   0
   3   2   5  168.92    4.50   0
  -3   0   4  701.48   10.94   0
  -3   0   7  153.49    9.62   0
  -2   1   3  983.54   11.20   0
   0   2   3 1315.13   11.76   0
   1   2   3  864.99    8.63   0
   2   3   8    2.76    5.27   0
   2   3   9    6.02    6.43   0
  -3   0   3  295.98    6.55   0
   0   3   7  616.66   14.01   0
   0   1   1  662.86    5.23   0
   2   3   6   77.83    4.98   0
   1   3   5  296.90    7.90   0
   3   3   8   69.92    6.48   0
  -3   1   6  182.35    8.79   0
  -3   1   7   18.19    6.96   0
  -2   2   5  376.86    9.64   0
  -1   2   3  443.55    7.71   0
  -3   1   5   60.18    4.90   0
  -2   1   2   19.86    2.59   0
  -1   3   7  481.22   13.37   0
  -1   3   8   72.10    7.71   0
   2   0   1    4.07    0.91   0
  -1   3   6   49.72    5.36   0
   3   3   7  500.48   10.49   0
  -2   2   4   71.01    4.86   0
  -1   1   1  676.27    6.41   0
  -3   0   2 1039.84    9.95   0
  -1   3   5   24.04    3.66   0
   0   2   2 5911.73   22.16   0
   0   3   4   47.08    3.72   0
   1   3   4   20.46    3.18   0
   1   1   1  219.10    2.32   0
   1   4   8    1.10    4.89   0
   3   2   4  331.57    4.28   0
   3   3   6  135.26    5.44   0
  -3   1   3  867.57   11.60   0
  -2  -2   0  926.76    6.38   0
  -2   2   3 1118.87   13.13   0
  -1   2   2  484.50    7.18   0
   1   4   7  227.47    9.60   0
  -2   3   7  473.60   13.65   0
  -1   0   0 1029.98    4.32   0
  -1   3   4  112.30    5.20   0
   1   2   2   31.38    1.88   0
   2   4   8    2.10    5.62   0
  -3  -1   1  212.95    2.63   0
  -3   2   6  210.03    9.07   0
  -2   3   6  105.72    6.98   0
  -3   2   5  405.64   10.81   0
   0   4   6  440.21   12.02   0
   2   4   7   -0.36    4.54   0
  -2   3   5  226.83    8.30   0
   0   3   3  166.23    5.16   0
   2   3   4  509.46    7.76   0
  -2   1   1   15.33    1.96   0
  -3   2   4   78.56    5.02   0
   1   3   3  779.57    9.67   0
  -2   3   4  798.06   13.56   0
  -1   4   6  517.58   13.45   0
   0   4   5    3.31    3.19   0
   2   4   6   25.67    4.24   0
  -3   1   2  260.18    5.85   0
  -1   4   5   70.76    6.13   0
  -3   0   1   18.31    1.87   0
  -3   2   3  788.10   12.39   0
  -2   3   3  474.59    9.95   0
  -2   4   6  493.72   14.53   0
  -1   2   1 1011.66    9.78   0
  -3   3   5   -6.67    4.75   0
   0  -1   0  591.81    4.78   0
   0   2   1 7569.83   23.72   0
  -1   3   2  672.82   10.21   0
   2   2   6   10.51    2.94   0
  -1   2   5  134.39    6.08   0
   0   2   4    4.01    2.79   0
   0   2  10   77.88    7.97   0
   2   2  10  463.94   14.36   0
   1   2   4 2259.33   15.96   0
  -3   1   5   64.78    5.92   0
  -3   1   6  194.42    8.71   0
  -1   2   4  549.09    9.82   0
  -3   1   7   14.57    5.60   0
  -2   1   2   20.46    2.45   0
  -3   1   4  307.64    8.69   0
  -2   2   5  376.78    9.92   0
   0   2   3 1328.92   12.23   0
   3   2   8   57.49    5.42   0
  -1   2   3  441.86    7.97   0
   3   2   7  274.08    7.25   0
  -2   2   4   63.19    5.17   0
  -1   1   1  651.73    6.40   0
   1   3   9  351.56   12.61   0
  -3   0   1   17.66    2.16   0
  -1   3   6   45.93    5.03   0
   2   3   8    0.99    3.85   0
   2   3   9   10.12    5.17   0
  -2   2   3 1144.02   13.77   0
   0   3   5   90.99    5.37   0
   2   2   4 1226.75   10.48   0
   3   2   6   48.51    3.49   0
  -3   2   6  207.46    9.32   0
  -2   0   0 1175.61    6.38   0
  -1   3   5   22.66    4.59   0
   2   3   7  314.64    8.78   0
  -3   2   5  412.56   11.46   0
   1   3   5  316.67    7.86   0
  -3   1   2  255.02    5.98   0
  -2   3   7  472.37   14.27   0
  -4   1   5   -0.09    5.49   0
  -2   3   8    9.80    5.81   0
   0   2   2 5913.52   22.84   0
   0   3   4   48.41    4.50   0
   2   3   6   77.19    4.86   0
  -3   2   4   78.31    5.24   0
  -2   3   5  217.83    8.45   0
  -4   1   4    3.23    4.87   0
   1   4   8   -0.40    5.74   0
   0   4   7  321.30   11.39   0
  -1   4   7  464.83   14.41   0
  -4   1   3   13.15    4.35   0
  -1   3   3   73.61    4.27   0
   0   4   6  446.11   12.06   0
   2   4   8   -2.57    4.95   0
  -3   3   5   -5.71    4.67   0
  -2   3   3  473.93   10.13   0
   1   2   2   34.44    2.01   0
  -4   2   5   41.55    6.26   0
  -2   4   7    0.19    5.28   0
  -1   4   5   21.55    4.49   0
  -3   2   2  320.85    7.56   0
  -2   4   6  502.66   14.03   0
  -1   2   1  997.69    9.68   0
   2   2   3  376.47    5.00   0
   2   4   7   -0.96    3.28   0
  -4   2   4   97.27    6.88   0
  -3   3   4  486.68   12.01   0
   1   3   3  771.62    9.83   0
  -2   2   1   24.18    2.40   0
  -2   4   5  258.36   10.15   0
  -4   1   2  617.67    9.74   0
  -1   3   2  668.73   10.03   0
  -1   4   4    9.58    3.66   0
   0   4   4 1273.68   16.69   0
  -1   1   0    2.30    1.07   0
   0   2   1 7679.79   24.15   0
   2   4   6   30.05    3.83   0
  -3   3   3  710.52   13.35   0
  -2   3   2  439.01    8.82   0
   0   3   2  863.29   10.53   0
   1   1   1  224.81    2.56   0
   1   5   8   36.04    6.84   0
  -3   0   0    1.28    0.99   0
  -2   4   4  415.58   11.15   0
  -1   5   7  502.32   15.45   0
   0   5   6  480.82   13.68   0
  -1   4   3 1593.36   18.59   0
  -1   5   6  124.80    8.13   0
  -3   2   1  267.25    6.35   0
  -3   4   5  424.08   12.79   0
   2   4   5  125.73    5.59   0
  -2   4   3  813.91   14.40   0
  -1   5   5  226.12    9.59   0
   0   5   5  810.65   15.92   0
  -3   4   4  480.71   12.70   0
  -1   3   1  221.23    5.64   0
  -2   3   1  399.09    8.07   0
   1   3   2  199.54    4.85   0
   2   5   7  188.16    8.84   0
  -4   1   1  140.04    4.51   0
  -3   1   0  100.01    3.15   0
  -2   5   5   19.38    5.04   0
  -1   4   2 1127.62   14.86   0
  -1   5   4   75.26    6.32   0
   1   4   3  245.78    6.86   0
   1   5   5  214.56    7.99   0
  -2   2   0   45.43    2.57   0
  -1   2   0 9999.99   28.75   0
   0   5   4   70.14    5.29   0
   2   3   3 1483.73   11.91   0
   3   3   5  253.21    5.20   0
  -4   3   3  490.44   11.68   0
  -3   4   3  354.73   10.43   0
  -2   4   2  893.84   13.95   0
   0   1   0  572.57    4.55   0
  -2   5   4  116.26    7.40   0
   0   4   2  808.54   11.80   0
   2   4   4  310.56    7.29   0
   2   5   6  266.28    9.13   0
   1   2   1  453.16    5.26   0
  -3   3   1   35.19    3.28   0
  -1   5   3   73.16    5.26   0
  -4   3   2  785.65   13.54   0
  -2   5   3   39.69    4.83   0
  -1   4   1  985.02   13.16   0
   0   2   0  401.37    5.37   0
   0   6   5    2.18    4.89   0
   1   6   6  107.40    7.93   0
  -2   3   0  406.30    7.61   0
  -1   3   0 6901.35   28.66   0
   1   4   2  667.00   10.09   0
   2   2   2  221.57    3.26   0
  -4   4   3   18.67    6.21   0
  -1   5   2    3.25    2.76   0
   0   4   1  597.82    9.76   0
  -3   5   3  184.15    8.35   0
   0   6   4   58.49    6.22   0
   1   3   1   91.70    3.26   0
   2   4   3  748.50   10.11   0
  -3   3   0  168.70    5.66   0
  -3   4   1    6.42    3.33   0
   0   5   2  386.55    9.46   0
   2   5   4 1000.69   14.15   0
  -2   2  -1  918.33    9.06   0
   2   6   6  237.67    9.94   0
  -4   4   2    2.74    4.32   0
  -3   5   2  147.37    7.67   0
  -1   6   3  138.34    7.48   0
   1   6   4  229.82    8.96   0
   2   3   2    6.06    1.61   0
   3   3   4 2695.01   13.01   0
  -2   4   0  487.56    9.54   0
  -1   2  -1  675.97    7.26   0
  -1   4   0  407.87    8.34   0
  -1   5   1  353.90    9.12   0
   0   6   3    1.10    3.53   0
  -4   2   0  338.23    6.70   0
  -2   5   1    4.43    3.08   0
  -1   1  -1 4310.37   13.58   0
  -3   1  -1    7.07    1.42   0
  -3   2  -1 1143.00   10.70   0
   1   4   1  827.39   10.55   0
  -3   4   0   21.28    3.56   0
  -2   3  -1  619.81    8.95   0
   0   5   1   21.14    3.09   0
   2   6   5  241.18    8.87   0
  -4   4   1   77.11    5.94   0
  -1   3  -1 3185.55   19.00   0
  -1   6   2  255.76    9.17   0
   0   4   0  385.17    7.65   0
   2   5   3  569.99   10.27   0
  -4   3   0  270.39    7.29   0
  -3   5   1   13.09    3.98   0
   0   6   2   34.59    4.81   0
   1   6   3  289.94    9.11   0
   2   4   2  253.73    5.75   0
  -2   5   0  729.98   13.06   0
  -1   5   0  528.53   10.82   0
   1   2   0    0.05    0.90   0
   1   3   0  683.86    7.81   0
   2   6   4  715.98   13.25   0
  -1   4  -1  429.52    8.32   0
  -1   6   1  125.97    6.49   0
   0   2  -1  184.23    3.60   0
   0   3  -1  731.31    8.55   0
   0   5   0  316.29    8.17   0
  -4   4   0    4.54    4.00   0
  -3   4  -1  363.35    8.53   0
  -3   5   0   66.93    4.90   0
   0   6   1   53.36    5.04   0
   2   5   2   40.65    3.59   0
  -2   0  -1    4.43    0.45   0
  -2   2  -2  269.63    4.83   0
  -2   3  -2  209.79    5.33   0
   0   4  -1  191.27    5.34   0
   2   3   1    2.86    1.34   0
  -4   3  -1    2.65    2.77   0
  -2   5  -1  886.94   13.88   0
   2   6   3  479.44   10.45   0
  -1   3  -2  421.33    6.86   0
  -1   5  -1  262.42    7.50   0
  -1   6   0  321.70    9.28   0
  -3   2  -2 1745.26   12.38   0
  -3   3  -2    2.44    2.13   0
  -2   6   0  162.50    7.01   0
  -1   2  -2   92.52    2.80   0
   0   1  -1  254.14    2.98   0
   2   4   1   89.16    3.39   0
  -3   5  -1   28.04    4.18   0
   1   6   1    2.12    2.93   0
   3   3   3   17.71    1.41   0
   3   4   3   30.62    2.37   0
  -4   4  -1   96.57    5.46   0
  -1   4  -2   58.96    3.43   0
   0   5  -1  318.19    7.95   0
   0   6   0  160.63    6.60   0
   2   5   1  773.26   10.75   0
   0   3  -2  112.05    3.61   0
   1   1   0  568.71    3.48   0
   1   3  -1   80.17    2.85   0
  -2   5  -2  166.93    6.11   0
  -1   6  -1   71.05    4.90   0
   1   4  -1  673.31    9.01   0
  -3   1  -2  385.60    4.22   0
  -1   1  -2  189.50    2.86   0
  -3   5  -2  112.14    5.71   0
   0   2  -2  154.72    3.22   0
   1   6   0   28.72    3.63   0
   0   6  -1  120.94    5.69   0
   1   2  -1  170.26    3.04   0
  -4   4  -2  390.47    8.67   0
  -3   3  -3  504.67    7.88   0
  -2   4  -3  233.89    6.19   0
  -1   3  -3  445.51    6.91   0
   2   4   0    5.50    1.54   0
  -1   4  -3  448.50    8.09   0
   2   3   0  512.18    5.80   0
  -3   2  -3  330.75    5.33   0
  -3   4  -3   22.13    2.87   0
  -1   6  -2    8.27    3.29   0
   3   4   2   28.84    2.12   0
  -2   5  -3   18.92    3.33   0
  -1   2  -3  211.26    3.96   0
   2   5   0   26.83    2.62   0
  -1   5  -3   35.83    3.53   0
  -1   0  -1 4169.29    6.11   0
   1   6  -1    2.89    2.61   0
  -3   5  -3   21.14    3.37   0
   0   3  -3  364.07    5.86   0
   1   3  -2  105.23    3.11   0
  -4   3  -3  257.96    5.75   0
  -2   3  -4   46.28    2.63   0
  -2   4  -4  484.25    8.54   0
   3   3   2   88.72    1.89   0
   2   4  -1  549.94    7.29   0
  -1   3  -4    6.82    1.56   0
  -1   4  -4  521.53    8.58   0
   0   1  -2   26.82    1.15   0
   0   2  -3   65.01    2.30   0
   2   2   0  947.04    5.57   0
  -2   5  -4   36.78    3.32   0
   2   5  -1  217.90    5.54   0
  -1   5  -4    9.85    2.41   0
   1   2  -2  241.04    3.52   0
   1   6  -2   74.34    4.24   0
   2   3  -1  939.72    7.69   0
  -5   0  -6   70.63    7.08   0
  -5   1  -5  175.33    9.35   0
  -3   2  -3  323.40    8.80   0
  -2   2  -2  282.43    6.88   0
  -5   3  -1  436.44   14.85   0
  -4   1  -5  340.92   10.71   0
  -5  -2  -7  408.35   13.92   0
  -4   0  -6  171.10    8.11   0
  -3  -2  -6   42.64    4.39   0
  -5  -3  -7  245.30   11.84   0
  -4   2  -4  512.69   13.00   0
  -2  -2  -5  823.83   10.28   0
  -4   3  -2  379.80   11.65   0
  -5   3  -2   43.83    8.15   0
  -4  -2  -7   35.71    5.72   0
  -3  -3  -6  124.85    5.67   0
  -3   1  -5  502.68   11.27   0
  -2   3   0  408.04    7.41   0
  -1   0  -3    8.88    1.89   0
  -5   1  -6  283.76   11.99   0
  -2   1  -4   15.14    2.92   0
  -5   0  -7  135.09    9.56   0
  -4  -3  -7  248.34    9.67   0
  -3   3  -2    3.75    3.76   0
  -5   2  -5  501.49   15.30   0
  -4   1  -6   13.22    4.09   0
  -2   0  -5 1707.43   16.81   0
  -5   3  -3    6.81    7.38   0
  -4   2  -5   65.72    6.83   0
  -4   3  -3  253.65   10.31   0
  -2  -3  -5  699.37    8.27   0
  -1   2  -1  667.56    7.73   0
  -2   3  -1  631.24    9.69   0
  -5  -1  -8   22.66    6.50   0
  -5   1  -7   37.46    6.30   0
  -3  -1  -7  238.91    8.25   0
  -3   1  -6  167.61    7.33   0
  -3   3  -3  485.72   11.34   0
  -5   2  -6  125.32    9.36   0
  -5   3  -4   29.21    7.14   0
  -4   3  -4  447.84   13.40   0
  -3   2  -5  773.21   14.77   0
  -1   1  -3  205.25    4.97   0
  -4   1  -7  386.43   12.52   0
  -4   2  -6  875.35   18.27   0
  -2   2  -4  282.62    7.79   0
  -2   3  -2  202.97    6.54   0
  -1   0  -4  155.17    4.41   0
  -2  -2  -6   13.77    2.91   0
  -2   0  -6  438.59    9.71   0
  -4   0  -8   15.82    5.15   0
  -1  -2  -4 2235.19   11.65   0
  -3   1  -7   43.69    5.02   0
  -3   2  -6  149.31    7.53   0
  -3   4  -1  361.73    9.78   0
  -4   1  -8   69.25    7.70   0
  -4   2  -7    6.63    4.99   0
  -3  -1  -8    2.92    4.59   0
  -2   1  -6  149.74    6.35   0
  -1   1  -4   68.99    3.62   0
  -3   0  -8   -1.96    3.42   0
  -3   4  -2   92.63    6.50   0
  -1   2  -3  208.19    5.57   0
  -4  -2  -9   52.50    7.85   0
  -2  -1  -7  192.88    6.93   0
  -1   0  -5 1402.36   13.88   0
  -2   0  -7   96.48    5.49   0
  -3   2  -7   19.50    4.80   0
  -2  -3  -6   77.06    3.70   0
  -1   3   0 6912.25   23.33   0
  -3   1  -8   72.84    6.54   0
  -3   4  -3   22.55    4.73   0
  -2  -2  -7   20.47    3.48   0
  -1   3   1  247.77    3.63   0
  -4   2  -8   41.34    6.45   0
  -3   3  -6  615.06   15.34   0
  -2   2  -6    9.36    3.36   0
  -1   1  -5  231.78    6.50   0
  -1   3  -1 3087.04   18.14   0
  -4   1  -9   81.28    7.74   0
  -3   4  -4   -4.12    5.28   0
  -2   4   0  475.31    8.12   0
   0   0  -1 1200.87    5.50   0
  -2   3  -5  524.82   12.10   0
  -2   4  -2  280.43    8.04   0
  -1  -2  -5  627.73    7.20   0
  -3   2  -8  153.33    8.89   0
  -2  -1  -8   62.14    5.25   0
   0   1  -1  244.24    3.52   0
  -3   1  -9    3.21    4.92   0
  -2   2  -7  771.52   15.56   0
  -2   4  -3  235.48    8.19   0
  -1   2  -5  312.38    8.17   0
   0   0  -2 3371.09   12.73   0
  -1   1  -6    1.95    2.45   0
   0   1   0  572.75    3.75   0
  -2   1  -8  340.93   10.82   0
   0   1  -2   28.16    1.92   0
  -2  -2  -8  177.65    6.81   0
  -1   3  -4    7.78    2.87   0
   0   0  -3  895.55    8.09   0
  -3   0 -10   12.06    5.38   0
  -3   4  -6   62.14    7.81   0
  -1   0  -7 2545.95   22.82   0
   0   1  -3 1101.82   10.37   0
  -3   3  -8   73.05    7.54   0
  -2   2  -8  749.31   16.57   0
  -2   0  -9   22.07    4.82   0
  -2   3  -7  478.78   13.48   0
  -1  -1  -7  669.22   11.00   0
  -1   1  -7   26.63    3.88   0
  -2  -1  -9   72.78    5.62   0
  -2   1  -9  154.05    8.86   0
  -1  -2  -6  826.08    9.38   0
  -1   3  -5  280.16    8.66   0
   0   0  -4    0.64    1.88   0
   0   1  -4  769.38    9.91   0
   0   2  -3   63.58    3.56   0
  -1   4  -2   13.41    4.19   0
  -1   3  -6   12.45    3.85   0
   0   2  -4  210.00    6.07   0
  -1   1  -8  637.92   13.78   0
   0   0  -5   90.02    3.89   0
   0   1  -5  507.92    9.12   0
  -2   0 -10   25.18    6.18   0
  -1  -1  -8 1078.82   15.05   0
   0  -1  -2  435.67    3.32   0
  -2  -1 -10   20.26    6.07   0
  -2   4  -7    5.94    5.55   0
  -1  -2  -7   37.84    3.32   0
  -1   2  -8  297.19   10.52   0
  -1   3  -7  214.75    9.64   0
  -1   4  -5  189.86    8.29   0
   0   0  -6   37.84    3.67   0
   0   1  -6  255.71    7.40   0
   0   3  -3  355.70    7.78   0
   0   3  -4  711.81   12.11   0
   0   3  -1  760.53    8.73   0
  -1   0  -9   58.07    5.53   0
  -1   1  -9  366.16   11.69   0
   0  -1  -5  314.44    5.88   0
  -2   5  -5   80.08    8.98   0
   0   1  -7  219.26    7.99   0
   0   3  -5  542.68   11.60   0
  -1  -1  -9 1071.25   16.68   0
  -1   2  -9  336.31   11.96   0
  -1  -2  -8 1007.77   13.19   0
   0   2  -7   95.19    6.65   0
   0   3  -6   20.81    4.17   0
  -1   0 -10  150.05    8.48   0
  -1   5  -4    6.49    5.21   0
  -1   5  -3   43.96    5.59   0
   0   4  -4  657.32   12.98   0
   0   4  -2    1.04    2.77   0
  -1   5  -5   -1.11    5.77   0
   0  -1  -7  508.43    9.38   0
   0   2  -8   21.00    4.63   0
   1   2  -4 1235.93   14.71   0
   1   2  -3  120.90    4.76   0
   1   1  -5  494.95    9.65   0
   1   1  -3 1533.41   13.06   0
   0   3  -8  987.76   19.47   0
   1   2  -5    0.40    2.49   0
   1   2  -2  241.42    5.38   0
   0  -1  -8  900.97   13.78   0
   0   0  -9   37.90    5.11   0
   1   1  -6  641.80   11.95   0
   1   2  -6    9.32    3.16   0
   1   3  -4  558.16   11.09   0
   1   3  -3 2010.58   18.67   0
   1   0  -5  546.27    9.19   0
   1   3  -5  312.06    9.31   0
   0   1 -10    9.78    5.36   0
   0   5  -4  552.30   13.19   0
   0   5  -3  196.59    8.19   0
   1   0  -3 1528.06   11.64   0
   1   2  -7  232.62    8.91   0
   1   3  -6    9.38    3.69   0
   0  -1  -9  899.83   15.42   0
   0  -2  -6  187.72    4.65   0
   0   0 -10   68.86    6.73   0
   0   4   0  381.48    5.79   0
   0   5  -2   27.18    4.28   0
   1   3  -7 1433.08   22.41   0
   1   4  -3 1416.21   17.52   0
   1   0  -2 1829.35   11.07   0
   1   4  -6  678.77   15.83   0
   1   4  -2  135.71    5.74   0
   1   0  -8  237.26    9.00   0
   1   3  -8  267.89   11.02   0
   0  -2  -4    3.34    1.00   0
   1   1  -9 1146.04   20.52   0
   1   4  -7   -1.17    5.70   0
   1  -1  -6  410.74    8.22   0
   1  -1  -5  171.62    5.03   0
   1   2  -9   27.35    5.72   0
   0   3   1   85.15    1.71   0
   1  -1  -7  210.61    6.98   0
   1  -1  -4 2673.40   15.69   0
   1   4  -1  657.17    9.76   0
   2   2  -5  281.64    8.75   0
   2   2  -4 1140.79   15.48   0
   1   2   0    1.29    1.17   0
   1   5  -5  126.62    8.21   0
   1   5  -4 1196.54   19.45   0
   2   2  -3  891.61   12.57   0
   1   3   0  693.82    7.82   0
   2   1  -5  255.99    7.81   0
   2   1  -4   48.21    3.77   0
   2   3  -5   19.97    4.12   0
   1  -1  -8    2.21    4.23   0
   2   2  -7    7.97    5.43   0
   2   3  -6  109.59    7.32   0
   2   1  -7  215.01    9.19   0
   2   1  -3 5858.41   29.19   0
   2   2  -2  480.07    8.75   0
   2   3  -7   98.63    7.51   0
   2   3  -2  975.15   13.31   0
   2   2  -8  153.78    9.39   0
   1  -1  -9    5.60    4.84   0
   1   0  -1  444.62    4.81   0
   2   0  -4  831.52   11.41   0
   1   1   0  555.53    5.32   0
   2   0  -7  727.98   14.05   0
   2   4  -2   97.23    5.40   0
   2   2  -1  231.20    5.65   0
   2   3  -1  943.37   12.01   0
   2   0  -8   18.79    5.88   0
   2   5  -4  116.57    8.18   0
   2   4  -1  588.18   10.73   0
   2   5  -3  112.47    7.21   0
   3   2  -5   12.41    5.05   0
   2   1  -1 1480.49   12.48   0
   3   2  -6  490.60   13.70   0
   3   2  -4  387.21   10.60   0
   3   3  -5    2.45    4.47   0
   3   3  -4  141.53    7.72   0
  -5   0   0  513.88   13.71   0
  -5   1   1  761.43   17.69   0
  -3   4   5  439.74   14.92   0
  -5   2   2  161.79   10.29   0
  -3   1  -1    4.28    3.21   0
  -3   4   4  508.56   15.52   0
  -4   3   2  788.91   18.09   0
  -2   1  -1  294.01    6.29   0
  -3   3   1   36.57    5.12   0
  -2   3   1  406.33    9.30   0
  -2   4   3  880.43   15.89   0
  -5   1   0  353.80   11.83   0
  -4   1  -1 1447.32   18.99   0
  -4   2   0  316.15   10.06   0
   0   2   1 7827.03   20.81   0
  -5  -1  -1   91.12    6.39   0
  -5   2   1  208.72   10.44   0
  -1   4   3 1605.53   17.75   0
  -5   0  -1  216.40    9.13   0
  -1   0  -1 4142.22   13.44   0
  -1   2   0 9727.37   31.01   0
   0   4   4 1322.79   13.10   0
  -4   3   1   36.93    5.10   0
   0   3   2  858.94    8.56   0
  -3  -1  -2  105.23    3.66   0
  -3   0  -2  832.04   10.80   0
  -4  -1  -2   69.33    4.35   0
  -3   2  -1 1136.76   15.28   0
  -5   2   0  131.06    8.37   0
  -3   3   0  166.71    7.13   0
  -4   3   0  264.35   10.27   0
  -3   1  -2  388.69    8.45   0
  -4   1  -2   39.33    4.18   0
  -1   1  -1 4270.47   17.23   0
  -1   4   2 1105.34   13.95   0
  -5   0  -2   53.39    5.66   0
  -4  -2  -2  575.93    8.25   0
  -2   0  -2   14.32    1.80   0
  -2   5   4  122.16    8.84   0
  -6   0  -1  163.45    9.37   0
  -5   2  -1   20.57    5.87   0
  -2   4   1  130.49    6.50   0
  -3  -2  -2  177.99    3.44   0
  -6   1  -1  387.20   13.85   0
  -5   3   0  109.28    8.16   0
  -4   4   1   72.77    7.07   0
  -2   1  -2    1.65    1.84   0
   0   4   3   56.13    3.30   0
  -4   3  -1    0.96    4.45   0
  -3   2  -2 1766.25   19.00   0
  -3   5   3  188.15   10.42   0
  -2   5   3   35.27    6.23   0
  -1   3   0 6996.75   29.79   0
  -4   0  -3   12.58    3.42   0
  -3   4   0   14.41    4.71   0
   0   1   0  580.15    4.13   0
  -6   0  -2  106.66    8.70   0
  -5   2  -2   35.79    6.04   0
  -4   4   0    2.61    5.53   0
  -2   3  -1  627.45   10.90   0
  -4  -1  -3  288.92    6.91   0
  -4   1  -3  588.72   11.90   0
  -3   5   2  150.29    9.28   0
  -1   4   1 1035.12   13.17   0
  -6   1  -2   37.88    7.14   0
  -5   0  -3   26.86    4.31   0
  -2   5   2   61.33    6.32   0
  -1   5   3   67.31    5.96   0
  -3   1  -3  438.42    8.85   0
  -5  -1  -3   47.28    5.00   0
  -4   3  -2  373.30   11.19   0
  -4   2  -3  194.96    8.12   0
  -3  -1  -3 1000.99    9.79   0
  -3   3  -2   -1.39    2.70   0
  -3   5   1   15.92    6.41   0
  -4   4  -1   94.19    7.32   0
  -3   4  -1  361.32   10.69   0
  -5   2  -3   13.88    5.39   0
  -5   3  -2   49.49    6.12   0
   0   4   2  807.36    9.16   0
  -6   0  -3   23.31    6.04   0
  -2   5   1    4.12    3.94   0
   0   2   0  416.81    4.95   0
  -2   3  -2  213.73    6.76   0
  -1   5   2    2.77    3.66   0
  -4   0  -4   44.34    4.23   0
  -2   1  -3  550.68    8.30   0
  -4   1  -4  401.50   10.00   0
  -3   5   0   63.02    6.39   0
  -2   0  -3  561.15    7.23   0
  -1   1  -2  189.35    4.14   0
  -5   1  -4   63.23    5.77   0
  -4   4  -2  362.99   12.16   0
  -5   3  -3    4.56    4.60   0
  -3   3  -3  501.20   11.59   0
  -3   4  -2   97.16    6.46   0
  -2   2  -3   28.62    3.01   0
  -5   2  -4  214.63    9.92   0
  -4   2  -4  521.48   12.39   0
  -3   1  -4 1149.54   14.38   0
  -2   5   0  700.95   14.47   0
  -1   2  -2   89.75    3.48   0
  -5  -1  -4   11.45    3.95   0
  -4  -1  -4 1419.80   14.16   0
  -1   0  -2  898.63    6.77   0
  -6   0  -4   85.66    7.37   0
  -3   2  -4 1086.52   15.74   0
  -3   5  -1   29.27    6.13   0
  -1   5   1  358.67    9.14   0
   0   3   0  911.39    8.82   0
  -4   3  -4  449.06   12.87   0
  -4   4  -3  372.82   12.25   0
   0   4   1  608.84    8.17   0
  -5   3  -4   31.03    5.59   0
  -1   4  -1  436.87    8.97   0
  -3   4  -3   23.12    4.28   0
  -1   3  -2  412.24    7.96   0
  -5   0  -5  196.02    7.89   0
  -4   0  -5   89.60    5.25   0
  -3   3  -4  772.29   14.76   0
  -4   2  -5   64.61    5.70   0
  -3  -1  -4 1025.75   10.18   0
  -3   5  -2  108.89    8.16   0
  -2  -1  -3 1168.98    8.27   0
  -2   1  -4   15.96    2.74   0
  -2   2  -4  273.29    7.46   0
  -1   5   0  512.46   10.88   0
  -3   1  -5  515.09   10.44   0
  -4   4  -4   62.54    6.46   0
  -3   2  -5  785.02   14.16   0
  -2   4  -3  235.06    8.23   0
   0   2  -1  179.43    3.71   0
  -4   3  -5  153.10    8.22   0
  -3  -2  -3 1395.88    7.64   0
  -2   0  -4 2651.38   16.60   0
  -1   1  -3  208.32    4.64   0
  -2   5  -2  170.91    8.02   0
  -4  -1  -5  344.92    7.52   0
  -3   5  -3   26.35    6.32   0
  -1   3  -3  449.03    8.84   0
  -5   0  -6   65.54    6.22   0
  -5   2  -6  127.29    8.17   0
  -4   2  -6  845.64   16.79   0
  -1   5  -1  268.44    8.20   0
  -4   0  -6  157.53    6.41   0
  -4   3  -6    4.61    5.35   0
  -2   1  -5   36.95    3.27   0
  -2   2  -5 1005.91   14.38   0
  -2   4  -4  473.66   11.90   0
  -3   1  -6  178.46    6.83   0
  -3   2  -6  155.89    7.18   0
  -2   5  -3   10.51    4.49   0
  -2   3  -5  528.40   11.85   0
  -1   2  -4 1058.98   12.72   0
  -3   0  -6    1.09    2.92   0
  -3   3  -6  602.15   14.47   0
  -1   1  -4   66.83    3.52   0
  -4   1  -7  369.55   11.43   0
  -4   2  -7    8.66    5.51   0
  -2   0  -5 1668.68   14.62   0
  -1   3  -4    3.80    2.59   0
  -4  -1  -6  268.25    7.19   0
  -2  -1  -4 2534.38   13.84   0
  -2   4  -5  134.89    7.51   0
  -2   5  -4   37.27    6.33   0
   0   5   0  299.75    7.28   0
  -4   0  -7  451.91   11.12   0
  -3   4  -6   57.29    7.27   0
  -2   2  -6    6.67    2.88   0
  -3   2  -7   23.80    5.28   0
  -2   1  -6  147.72    6.14   0
  -3   1  -7   45.48    4.60   0
  -2   3  -6  162.76    7.54   0
  -1   5  -3   39.26    5.03   0
   0   4  -2    0.59    2.78   0
  -3   3  -7  262.03   10.63   0
  -1   2  -5  306.10    7.78   0
  -1   0  -4  155.41    4.06   0
  -1   3  -5  287.52    8.81   0
   0   2  -3   64.59    3.37   0
  -1  -1  -2 3309.36    9.05   0
  -1   1  -5  236.77    6.39   0
   0   3  -3  369.57    7.66   0
  -4   1  -8   70.59    6.39   0
  -3  -1  -6  257.95    6.45   0
  -3   0  -7  144.48    6.13   0
  -2   4  -6  121.03    7.82   0
  -2   5  -5   81.57    7.22   0
  -3  -2  -4  333.89    4.13   0
  -2   2  -7  732.87   14.57   0
   0   4  -3  370.96    8.95   0
  -4   0  -8   26.70    5.25   0
  -3   2  -8  146.56    8.30   0
  -2  -1  -5  824.24    9.28   0
  -2   3  -7  468.27   13.28   0
   0   1  -3 1098.20   10.05   0
  -2   1  -7   -5.85    2.93   0
  -3   3  -8   76.22    7.29   0
  -1   2  -6  116.28    5.68   0
  -1   3  -6   11.56    4.28   0
   0   3  -4  679.28   11.49   0
  -2   4  -7    6.89    4.95   0
  -1   0  -5 1412.96   13.19   0
  -1   1  -6    0.34    2.86   0
  -4   1  -9   79.44    8.33   0
  -1   5  -5   -0.16    5.85   0
  -3  -1  -7  252.27    7.21   0
  -3   0  -8    0.18    3.20   0
   0   0  -1 1178.12    5.45   0
   0   4  -4  672.45   12.70   0
   0   1  -4  753.51    9.60   0
   1   3   0  688.56    6.53   0
  -3   2  -9   69.93    7.01   0
  -2   3  -8  407.95   13.10   0
   1   3   1   97.54    1.91   0
  -4   0  -9   98.27    8.07   0
  -3   1  -9    2.08    5.57   0
  -2  -1  -6  241.61    6.10   0
  -1   2  -7  789.69   14.81   0
  -1   3  -7  209.93    9.43   0
   0   2  -5   68.93    4.32   0
   0   0  -2 3325.20   12.74   0
   1   3  -1  109.92    3.48   0
  -3  -2  -5  164.60    3.80   0
  -1   0  -6  103.38    4.66   0
  -1   1  -7   22.52    4.14   0
   1   4   0  228.25    4.62   0
   1   4   1  892.46    6.44   0
   0   1  -5  496.71    8.98   0
   1   3  -2  107.50    4.21   0
  -3   0  -9   18.77    4.84   0
  -2   0  -8  484.91   11.15   0
  -2   2  -9  287.36   11.33   0
   0   0  -3  919.42    8.34   0
  -3  -1  -8   -1.97    3.71   0
   0   3  -6   23.59    4.19   0
   1   4  -2  134.61    5.21   0
  -2   1  -9  147.00    8.01   0
   1   2  -2  238.45    4.96   0
   0   4  -6  385.88   11.86   0
   0   5  -5   33.60    5.93   0
  -1   0  -7 2631.61   22.96   0
  -1   1  -8  644.40   13.76   0
   0   0  -4    2.13    1.72   0
   1   4  -3 1396.61   16.45   0
   1   2  -3  114.82    4.27   0
   0   3  -7  205.93    9.47   0
  -2   0  -9   25.89    4.74   0
   0   2  -7   84.80    6.03   0
  -2   2  -1  904.73    6.22   0
  -3  -1 -10   -0.21    5.35   0
  -3   0  -9   16.78    4.70   0
  -2  -1  -9   67.50    5.91   0
  -2   0  -8  488.30   11.56   0
  -1  -3  -8   29.13    3.99   0
   0   0  -3  904.67    8.12   0
  -2  -3 -10   38.67    6.09   0
  -1   0  -7 2594.96   23.10   0
  -1   1  -5  218.59    5.94   0
  -1  -1  -8 1089.12   16.31   0
   0  -3  -6  116.60    4.98   0
   0   0  -4    2.21    1.64   0
  -3   2  -6  168.07    6.64   0
  -4   1  -9   79.39    7.15   0
  -3   0 -10   17.94    5.81   0
  -2   0  -9   22.19    4.33   0
   0  -1  -6  214.97    6.24   0
  -2  -1 -10   13.14    4.79   0
  -2   2  -5 1003.31   13.01   0
  -1  -3  -9  354.73   10.90   0
  -1  -2  -9   25.52    5.11   0
  -1   1  -6   -0.24    2.35   0
  -4   2  -7    7.60    5.02   0
  -2   1  -8  329.11   10.32   0
  -3   2  -7   19.91    4.78   0
  -1   0  -8  471.65   11.28   0
  -1  -1  -9 1052.20   17.55   0
   0  -3  -7  640.44   10.78   0
  -4   2  -8   43.57    7.33   0
  -2   0 -10   35.31    6.19   0
   0   0  -6   36.82    3.25   0
  -3   2  -8  156.04    8.48   0
  -2   1  -9  145.55    7.82   0
  -1  -2 -10  100.61    7.59   0
  -1   2  -4 1042.02   11.68   0
   0   1  -3 1103.87    9.80   0
  -1  -3 -10   96.35    8.25   0
  -1   0  -9   57.07    5.49   0
   0   1  -4  735.43    9.26   0
  -1   2  -5  302.35    7.26   0
   0  -2  -8  394.04    9.68   0
   0   1  -2   28.09    1.73   0
  -1   1  -8  634.48   13.28   0
   0  -3  -8  203.04    7.53   0
  -3   2  -9   69.84    7.24   0
  -2   1 -10  194.25    9.89   0
  -1   2  -6  116.14    5.43   0
  -1   0 -10  155.58    8.81   0
   0   1  -6  255.72    7.16   0
  -1   1  -9  348.14   11.35   0
   0  -2  -9   11.46    4.82   0
   0   0  -8   59.83    4.84   0
  -3   3  -6  598.62   12.69   0
  -1   2  -7  806.18   14.24   0
   0  -1  -9  890.73   16.35   0
  -2   3  -4   45.53    3.55   0
   0   1  -1  253.10    3.23   0
  -3   3  -7  268.25   10.44   0
   1  -2  -5  142.37    4.27   0
   1  -2  -4  540.39    6.45   0
  -1   1 -10    6.73    5.17   0
  -1   2  -8  306.94   10.06   0
   0   0  -9   42.48    5.11   0
   1  -1  -6  401.40    8.33   0
  -2   3  -3    3.13    1.93   0
   0   1  -8  438.22   11.32   0
   0   2  -5   62.10    4.42   0
   0   2  -4  206.45    5.64   0
   1   0  -5  532.08    8.84   0
  -2   3  -7  466.87   11.81   0
   0  -2 -10   81.56    7.00   0
   1   0  -3 1476.25   11.08   0
   1  -2  -3  440.84    4.56   0
   1  -1  -7  205.41    7.07   0
   1   0  -6   41.47    5.12   0
  -2   3  -8  410.72   12.52   0
  -1   3  -6    7.12    3.64   0
  -1   3  -4    3.91    2.63   0
   0   0 -10   76.33    6.86   0
   0   1  -9   32.44    4.98   0
   0   2  -7   90.00    6.19   0
   1   0  -7  467.54   10.71   0
   1   1  -5  484.88    9.25   0
   0   2  -2  152.56    3.79   0
   1  -1  -8    2.69    3.11   0
   1   0  -2 1902.28   10.74   0
   1   1  -4 2396.08   17.73   0
  -1   3  -3  451.89    7.35   0
   0   2  -8   15.36    4.72   0
   1   1  -6  600.59   11.40   0
   1   1  -3 1537.34   12.66   0
  -2   3  -2  218.78    3.79   0
  -1   3  -8  639.32   15.10   0
   0   1 -10   11.40    4.82   0
   1   1  -7  245.61    8.59   0
   1  -1  -9    3.70    5.15   0
   1   0  -9   37.76    6.03   0
   1   1  -8  430.63   11.92   0
  -1   3  -2  427.19    6.10   0
   1   1  -2  703.61    7.62   0
   1   2  -5    4.36    2.44   0
   1   2  -4 1268.55   14.39   0
   0   3  -7  199.14    8.36   0
   1   2  -3  117.28    4.31   0
   1   2  -8  101.06    7.46   0
  -1   4  -5  191.21    7.98   0
   2  -1  -5   -2.33    2.44   0
   2   0  -7  707.76   13.86   0
   1   0  -1  432.56    4.35   0
   1   2  -2  245.98    5.30   0
   1   3  -6   11.18    4.34   0
   1   3  -5  303.85    9.18   0
   2  -1  -7  226.08    7.97   0
   2   1  -6  394.35   10.08   0
   2   1  -5  245.56    7.40   0
  -1   4  -4  529.61   10.31   0
   1   3  -4  577.70   11.09   0
   2   0  -8   18.41    5.38   0
   2   1  -7  230.99    8.78   0
   2   1  -4   49.82    3.65   0
   1   1  -1  351.39    4.81   0
   1   3  -7 1368.57   21.37   0
   2  -1  -8   -1.42    4.82   0
   2  -1  -4 2609.85   17.12   0
   0   4  -5  440.82   11.22   0
   2   0  -3  732.26    9.14   0
   1   3  -8  271.08   10.87   0
   1   3  -3 1977.11   18.09   0
   2   1  -3 5747.50   27.98   0
   2   2  -6  705.26   14.29   0
   2   2  -5  288.19    8.63   0
   0   4  -4  658.62   12.14   0
   2  -2  -6   17.48    3.77   0
   2   0  -9  738.16   16.53   0
   2   2  -7    6.07    5.10   0
   2   2  -4 1143.53   15.24   0
  -1   4  -3  459.03    8.19   0
   0   1   0  575.57    3.56   0
   2  -1  -3  961.23    9.28   0
   2   2  -8  140.79    8.94   0
   2   2  -3  901.75   12.52   0
   1   0   1 4180.12    9.78   0
   4  -3   3  261.18    6.81   0
   4  -1  -5    0.02    2.91   0
   5  -2   0  129.02    5.99   0
   3  -3   4  789.15    8.96   0
   3   0   1  141.75    3.60   0
   4  -2   3  185.74    5.27   0
   5  -2   1   14.62    3.02   0
   4   0  -2  152.03    4.92   0
   5  -3   2   54.09    4.57   0
   5  -1  -2  421.86    9.92   0
   5  -1  -1  761.52   12.66   0
   2  -2   4  273.69    3.84   0
   4   0   0  719.25    9.66   0
   2   0   2   14.39    1.28   0
   5  -1   1 1121.76   14.90   0
   3   0   2  797.37    7.99   0
   4  -3   4  432.69    8.50   0
   4   0   1  159.88    4.73   0
   5  -3   3    5.26    3.54   0
   4  -2   4  498.44    8.57   0
   5  -1   2  504.05   10.15   0
   1  -1   3  208.32    2.15   0
   2   1  -1 1498.03    9.37   0
   4   0  -5   62.90    4.51   0
   5  -2   3    6.56    2.97   0
   3   1  -1  225.70    5.02   0
   4   0   2   84.08    3.66   0
   5   0   0  522.79   10.23   0
   3  -1   4 1121.75    9.62   0
   5   0   1  206.46    6.77   0
   2   1   0 5433.36   17.54   0
   4  -1   4  398.18    7.44   0
   1   1  -3 1511.13    6.68   0
   3   1   1  947.96    9.52   0
   4   0   3    8.72    2.04   0
   5   0   2   50.98    3.75   0
   2  -1   4   13.63    1.28   0
   4   1  -3   13.63    2.85   0
   6  -1   2   31.66    4.27   0
   1   0   2  922.07    5.04   0
   3  -2   5  760.68    8.55   0
   4  -2   5   69.25    4.13   0
   5  -1   4   58.47    4.62   0
   3   1  -5   24.46    3.05   0
   4   1  -4   20.41    3.57   0
   5   0   3   35.04    3.46   0
   3   1   2  231.54    4.84   0
   5   1   0   70.09    4.60   0
   4   1   2   65.90    3.53   0
   5   1  -2   -0.40    2.95   0
   5   1   1   94.32    5.25   0
   6   0   2  102.25    6.21   0
   3  -1   5  507.64    7.09   0
   4   1   3  288.69    6.75   0
   5  -1   5  173.74    7.17   0
   6   0   3   20.87    4.28   0
   2   1   2 4279.08   16.82   0
   1   1   0  565.89    4.54   0
   5   1   3   44.41    3.90   0
   6   1   0    0.29    3.60   0
   3   2  -2    2.27    2.31   0
   3   2   0   99.86    4.47   0
   4   0   5   85.10    4.30   0
   6   1   2  186.30    8.48   0
   4   2   1 3281.31   24.24   0
   5   0   5  184.11    7.24   0
   4   1   4 1377.06   14.65   0
   3   2  -3  172.84    5.17   0
   3   2   1  577.33    8.58   0
   4   2  -3  114.52    5.79   0
   5   1   4   12.23    3.01   0
   5   2   1  475.33   11.48   0
   6   1   3   18.57    4.18   0
   3   0   5  421.07    6.89   0
   4   2   2  564.26   10.28   0
   3   1   4 1017.33   10.85   0
   4  -1   6   10.13    3.21   0
   5  -1   6  279.14    9.08   0
   5   2   2    8.14    3.31   0
   2   1   3 1174.30    9.51   0
   2   2  -2  441.26    6.14   0
   3   2   2  171.99    5.29   0
   2   2   0  921.53    8.97   0
   4   2   3  742.99   12.01   0
   5   2   3   11.89    3.17   0
   2   2  -3  918.26    8.60   0
   5   0   6   63.02    5.12   0
   6   2   2    2.42    4.10   0
   4   0   6  163.57    5.70   0
   1   0   3    9.62    1.09   0
   2   2   1   79.61    3.00   0
   3   2   3 1374.78   13.77   0
   6   2   3   39.37    5.32   0
   4   2   4  430.63    9.35   0
   2   2   2  223.00    5.02   0
   2   1   4 2467.62   14.86   0
   3   0   6    0.46    2.19   0
   4   1   6  265.10    7.72   0
   5   2   5  317.88    9.68   0
   5   3   2  194.11    8.86   0
   1   1   2 3317.16   13.16   0
   2   0   5 1743.93   11.68   0
   2   2  -4 1191.93    9.22   0
   4   3   2   27.16    3.65   0
   5   3  -1  112.87    7.11   0
   3   3  -1  145.34    5.47   0
   4   2   5  329.69    8.57   0
   4   3  -2  135.87    6.39   0
   5   0   7  130.81    7.55   0
   5   3   3   21.00    4.94   0
   6   2   5  678.83   15.74   0
   3   3   1  352.12    7.91   0
   4   3   3   71.35    5.14   0
   5   3  -2   94.90    8.15   0
   5   3   4   70.99    5.89   0
   0   0 -10   76.23    7.71   0
   2  -2  -5  364.42    9.68   0
   1   0  -8  245.45    9.16   0
   2  -3  -6   99.98    7.04   0
   2  -3  -5  225.91    8.24   0
   2  -2  -3 1142.33   13.83   0
   2  -1  -5   -0.50    2.56   0
   2  -1  -4 2590.21   21.50   0
   2  -3  -7  515.02   13.89   0
   2  -1  -3  975.97   12.11   0
   1  -4  -1 1030.32    9.58   0
   1   0  -1  440.04    4.99   0
   2  -4  -6  510.30   13.53   0
   2  -4  -5  261.82    9.43   0
   2  -2  -8   21.78    5.75   0
   2  -2  -2  324.34    6.94   0
   1   0  -9   30.23    5.47   0
   2  -4  -7    3.22    4.91   0
   2  -4  -4  406.21   10.35   0
   2  -3  -8    6.74    4.75   0
   1   1  -7  237.44    8.11   0
   1   1  -3 1563.95   11.65   0
   2   0  -5  240.66    7.46   0
   2  -3  -2  442.62    8.26   0
   2  -1  -8    1.01    4.29   0
   2   0  -6  200.58    7.58   0
   2   0  -4  853.23   11.92   0
   2  -4  -3  849.87   13.19   0
   1  -1   0    1.85    1.00   0
   2   0  -3  760.02   10.22   0
   1   1  -8  445.69   11.16   0
   0   2  -5   64.38    2.81   0
   1  -3   0 6972.46   18.16   0
   2   0  -8   13.54    5.30   0
   1   1  -2  687.60    6.69   0
   2  -4  -2  963.97   12.55   0
   2  -1  -1   11.61    2.03   0
   2   0  -2  352.45    6.39   0
   3  -2  -5  395.11   10.90   0
   2  -3  -1  405.07    7.01   0
   3  -2  -6  215.95    9.11   0
   3  -2  -4   87.17    5.38   0
   3  -3  -4  521.52   12.40   0
   3  -1  -6  203.51    8.75   0
   3  -1  -5   64.77    4.90   0
   3  -1  -4  329.23    9.05   0
   2   1  -6  390.07    9.62   0
   2   1  -4   43.61    3.51   0
   3  -2  -3  778.30   12.85   0
   3  -1  -7   20.72    4.76   0
   3  -1  -3  879.12   13.25   0
   2   1  -7  212.97    8.23   0
   3  -4  -5  420.26   12.63   0
   3  -3  -3  721.96   13.08   0
   2   1  -3 5655.76   26.45   0
   3   0  -5  360.98   10.02   0
   2   0  -1 1299.79   10.77   0
   3  -4  -4  467.22   12.26   0
   3   0  -6  108.52    6.34   0
   3   0  -4  718.13   12.53   0
   1   2  -6   11.33    2.93   0
   1   2  -5    2.20    2.15   0
   2   1  -8   84.75    6.93   0
   3   0  -3  292.63    7.60   0
   1   2  -7  237.07    7.23   0
   1   2  -4 1273.83   11.14   0
   2  -2   0   42.75    2.41   0
   2  -4  -1  136.69    4.63   0
   1   0   0 1030.75    6.25   0
   2  -1   0    0.78    1.24   0
   3   0  -2 1029.01   12.93   0
   1   1  -1  345.71    4.14   0
   4  -2  -5   49.45    6.30   0
   3  -1  -1  148.74    4.98   0
   3   1  -6  326.17   10.29   0
   3   1  -4   11.17    3.60   0
   4  -2  -4   93.27    6.47   0
   4  -1  -5   -2.40    4.51   0
   2  -3   0  409.71    6.05   0
   4  -1  -6  106.45    7.48   0
   4  -1  -4    1.80    3.82   0
   0   2  -3   64.65    1.52   0
   2   2  -5  278.91    7.45   0
   3  -4  -2  417.64    9.75   0
   3  -3  -1   32.40    3.55   0
   3   1  -7  208.28    8.98   0
   4  -3  -4   26.15    4.98   0
   4  -1  -3   10.41    3.34   0
   2   0   0 1181.21    9.70   0
   2   2  -7    4.26    4.41   0
   2   2  -4 1189.21   13.22   0
   3   0  -1   15.35    2.35   0
   4   0  -5   50.65    5.51   0
   2   1  -1 1461.97   11.37   0
   4   0  -6  350.34   11.61   0
   3   1  -2 1629.79   16.11   0
   4  -1  -2  660.55   12.71   0
   4   0  -3  148.86    6.80   0
   2   2  -3  917.59   10.91   0
   3  -2   0   -2.43    2.17   0
   3  -1   0   94.14    3.85   0
   4  -3  -2  801.05   14.80   0
   4   0  -2  153.11    6.44   0
   3   2  -5    9.89    4.25   0
   4  -1  -1  138.80    6.45   0
   4   1  -4   20.54    4.89   0
   3   0   0    0.60    2.12   0
   3   2  -6  477.72   12.25   0
   3   2  -4  380.96    9.59   0
   4   1  -6   41.49    6.05   0
   3  -3   0  168.51    5.39   0
   4   1  -3   13.26    3.51   0
   4   0  -1  158.15    6.23   0
   2  -1   1  276.07    4.58   0
   4   1  -2  367.30    9.81   0
   5  -1  -3   36.21    6.15   0
   2  -2   1  898.34    7.79   0
   5  -2  -3   32.43    5.99   0
   5   0  -4  117.42    8.42   0
   2   1   0 5427.39   20.69   0
   5  -2  -2  167.21    9.07   0
   5   0  -3  110.14    7.43   0
   3   1   0  566.98    8.83   0
   4   0   0  735.99   12.10   0
   5   0  -2   10.99    4.21   0
   0   3  -7  207.37    8.75   0
   1  -1  -8   -0.53    3.95   0
   1   2  -9   26.88    5.53   0
   4   0  -9   29.99    4.77   0
   1   1  -9 1101.33   19.62   0
   2  -2  -7   35.02    5.42   0
   3  -2  -7   90.02    7.35   0
   5  -1  -7   63.84    6.08   0
   0   0  -7 1040.97   15.99   0
   4   1  -9  520.92   12.84   0
   4   2  -9   49.56    4.78   0
   4   4  -8    5.25    3.15   0
   5   3  -8   -0.46    2.84   0
   3   0  -9   44.53    5.80   0
   4  -2  -6  154.80    8.58   0
   0   2  -7   87.77    5.94   0
   2  -1  -8    0.76    4.28   0
   2   2  -9   16.08    4.94   0
   3   4  -8  135.23    6.69   0
   5   1  -8    2.13    3.77   0
   1  -1  -7  206.24    8.04   0
   1   0  -8  233.97    9.20   0
   2  -2  -6   11.14    4.26   0
   3   1  -9  435.54   12.78   0
   3   2  -9   88.96    6.65   0
   5   2  -8   47.90    4.30   0
   3  -2  -6  213.25    9.30   0
   6   0  -6   42.96    4.86   0
   4   0  -8   92.23    6.80   0
   2   3  -8   24.03    5.69   0
   4  -2  -5   42.86    6.16   0
   4   3  -8   10.51    4.27   0
   5  -1  -6   13.58    5.00   0
   2  -2  -5  367.79    9.93   0
   2  -1  -7  239.87    8.90   0
   2   0  -8   11.56    4.20   0
   3   0  -8   11.06    5.47   0
   1   0  -7  473.49   11.58   0
   1   3  -7 1397.47   19.99   0
   2   4  -7  304.29   10.05   0
   3  -1  -7   18.81    4.39   0
   4   1  -8  601.31   14.34   0
   4   2  -8    2.65    4.61   0
   2   1  -8   87.90    6.63   0
   2   2  -8  145.61    8.45   0
   3  -2  -5  418.01   11.22   0
   3   2  -8  133.44    8.32   0
   3   5  -6   11.00    4.39   0
   4   4  -7    4.54    3.64   0
   4   5  -6  115.20    6.00   0
   5   1  -7    4.60    4.38   0
   6   3  -6   51.85    3.90   0
   1   1  -7  254.54    8.95   0
   1   2  -7  225.42    8.93   0
   3   4  -7  191.74    8.29   0
   4  -2  -4   88.64    6.88   0
   6   2  -6  113.83    5.93   0
   7   1  -4   15.91    3.62   0
   4  -1  -6  106.95    7.05   0
   4   0  -7  102.34    7.09   0
   5  -1  -5   16.92    5.22   0
   5   2  -7   35.81    4.37   0
   6   0  -5  124.45    6.59   0
   2  -1  -6 1533.96   19.37   0
   2   0  -7  731.64   14.85   0
   1   0  -6   53.57    5.67   0
   2   3  -7   98.81    7.31   0
   3   0  -7  157.20    7.84   0
   4   1  -7  108.53    7.60   0
   4   3  -7  119.47    7.02   0
   5   5  -5   40.59    4.20   0
   6   4  -5   48.53    3.81   0
   7   3  -4   50.04    3.50   0
   1   3  -6    6.60    3.94   0
   2   1  -7  211.76    8.74   0
   4   2  -7  142.57    8.17   0
   2   2  -7   11.72    4.18   0
   3   1  -7  204.56    8.79   0
   1   1  -6  608.06   11.58   0
   3   2  -7  258.07    9.95   0
   4  -1  -5   -1.04    3.81   0
   5   1  -6  119.20    7.09   0
   5   3  -6  193.40    8.21   0
   1   2  -6    9.43    3.36   0
   3   4  -6   32.07    5.37   0
   4   0  -6  337.23   10.81   0
   5  -1  -4  186.25    8.21   0
   5   2  -6  359.53   11.04   0
   6   0  -4   42.86    4.88   0
   6   3  -5   55.69    4.39   0
   7   1  -3   49.08    4.74   0
   3  -1  -5   66.55    5.07   0
   3   5  -5    8.72    4.45   0
   7   4  -3  144.19    5.06   0
   5   6  -3   83.82    4.87   0
   2   3  -6  107.67    6.86   0
   4   1  -6   40.62    5.39   0
   4   3  -6   22.63    4.65   0
   5   4  -5   61.14    5.00   0
   6   4  -4  141.11    6.24   0
   1   3  -5  294.33    8.31   0
   2   2  -6  660.88   13.22   0
   3   1  -6  328.62   10.40   0
   3   3  -6    4.26    4.10   0
   4  -1  -4    3.79    4.67   0
   4   2  -6   14.77    4.13   0
   2   4  -5  145.52    7.23   0
   4   0  -5   50.20    5.74   0
   5  -1  -3   26.02    4.52   0
   5   1  -5   83.30    6.08   0
   6   0  -3   32.70    5.20   0
   2   0  -5  242.11    7.31   0
   3  -1  -4  321.59    8.62   0
   5   3  -5  431.27   11.91   0
   6   3  -4   28.10    4.33   0
   7   1  -2   -2.03    3.04   0
   5   0  -4  119.35    7.50   0
   5   2  -5   15.19    3.86   0
   6   2  -4  122.70    6.63   0
   3   0  -5  342.66    9.20   0
   3   4  -5    6.80    3.92   0
   4   5  -4  164.14    7.40   0
   7   4  -2   33.28    3.22   0
   3   5  -4   44.09    5.32   0
   7   5  -1    4.58    2.15   0
   2   3  -5   14.21    4.20   0
   4   1  -5   68.67    5.63   0
   5   6  -2   80.70    5.10   0
   6   6  -1   31.27    3.49   0
   7   3  -2  304.75    8.47   0
   2   1  -5  262.95    7.90   0
   4  -1  -3   13.42    3.64   0
   4   2  -5    7.10    4.67   0
   4   3  -5  106.47    6.62   0
   5  -1  -2  433.32   10.69   0
   5   4  -4    1.58    3.54   0
   6   0  -2  829.03   15.21   0
   6   4  -3  168.84    6.87   0
   8   2   1    4.13    2.92   0
   2   2  -5  275.18    8.17   0
   3   1  -5   25.20    3.67   0
   3   3  -5    3.61    3.61   0
   7   1  -1    4.06    3.85   0
   3   2  -5   18.81    4.59   0
   6   5  -2   46.16    3.90   0
   8   3   1    2.79    2.62   0
   2   4  -4  188.28    7.44   0
   5   0  -3  103.46    6.42   0
   5   2  -4   97.91    6.37   0
   5   3  -4  206.40    8.58   0
   6   2  -3   23.53    4.27   0
   6   3  -3  113.10    6.31   0
   3   0  -4  700.05   11.89   0
   7   4  -1   53.27    3.92   0
   3   4  -4   33.61    5.06   0
   7   5   0    3.88    2.27   0
   8   2   2   42.26    3.86   0
   4  -1  -2  679.09   12.08   0
   4   1  -4   23.71    4.18   0
   4   5  -3  195.28    7.78   0
   5  -1  -1  755.20   13.51   0
   7   3  -1   47.39    4.26   0
   8   4   2  165.54    5.15   0
   3   5  -3   25.44    4.17   0
   5   4  -3  109.39    6.90   0
   5   7   1   11.95    3.73   0
   6   0  -1  353.62   10.02   0
   6   4  -2   43.01    5.02   0
   6   6   0   27.44    3.59   0
   7   1   0   20.68    4.48   0
   5   1  -3  621.29   13.55   0
   5   6  -1   22.80    3.62   0
   8   3   2   26.18    3.10   0
   3   1  -4   16.81    3.32   0
   6   5  -1   33.91    4.32   0
   3   2  -4  407.40   10.28   0
   5   0  -2   12.54    3.79   0
   6   2  -2   33.49    4.63   0
   6   3  -2   63.79    5.29   0
   7   4   0    0.47    2.98   0
   8   2   3   26.98    3.61   0
   7   5   1   83.37    4.73   0
   8   4   3  116.90    4.58   0
   2   4  -3  258.30    7.93   0
   4   4  -3  147.29    7.21   0
   4   6  -1    7.55    3.94   0
   7   3   0  175.42    7.33   0
   6   0   0  360.51    9.94   0
   6   1  -1    2.49    4.38   0
   7   1   1   26.87    4.27   0
   8   2   4    6.87    3.16   0
   4   1  -3   15.79    3.31   0
   4   5  -2  124.36    6.68   0
   6   4  -1   -1.31    3.67   0
   7   6   3   26.52    2.78   0
   3   5  -2  559.13   11.92   0
   4   3  -3  194.37    8.27   0
   5   1  -2   -0.09    4.02   0
   5   4  -2   15.46    4.16   0
   5   6   0  171.86    7.09   0
   5   7   2   55.96    4.51   0
   4   0  -2  150.38    6.38   0
   4   2  -3  117.20    6.31   0
   6   2  -1   19.49    4.75   0
   6   5   0   15.62    3.55   0
   7   4   1    6.16    3.39   0
   8   2   5    1.91    2.88   0
   3   1  -3  253.52    7.29   0
   5   3  -2  100.27    6.63   0
   6   3  -1   44.82    4.87   0
   7   5   2   19.35    3.38   0
   8   3   4    0.27    2.32   0
   3   3  -3   53.89    4.64   0
   5   2  -2  919.79   16.47   0
   7   1   2  256.21    8.61   0
   7   3   1  164.59    7.05   0
   7   6   4   11.20    2.49   0
   3   2  -3  171.15    6.43   0
   6   0   1  172.11    7.32   0
   4   4  -2   77.40    5.55   0
   6   1   0    5.04    3.84   0
   8   3   5  149.32    5.52   0
   3   6   0  298.29    9.00   0
   5   7   3  121.79    5.59   0
   6   4   0   24.66    4.14   0
   2   4  -2   93.69    5.33   0
   4   1  -2  363.46    9.28   0
   4   5  -1   50.42    5.14   0
   5   4  -1   14.47    4.20   0
   6   5   1  122.61    6.76   0
   7   2   2  133.41    7.11   0
   7   5   3   77.82    4.98   0
   7   6   5   12.33    2.42   0
   3   4  -2   33.05    4.14   0
   6   2   0  865.51   16.09   0
   6   3   0  425.36   11.70   0
   7   1   3  149.57    6.64   0
   7   3   2  159.89    7.44   0
   3   5  -1  922.12   15.06   0
   4   0  -1  166.02    6.45   0
   4   2  -2  434.68   10.63   0
   5   0   0  510.52   11.16   0
   5   5   0    4.78    3.81   0
   6   0   2  117.34    6.77   0
   5   2  -1   25.24    4.15   0
   5   3  -1  118.04    6.64   0
   6   1   1  168.07    7.67   0
   7   6   6    1.81    2.01   0
   3   3  -2  191.87    7.04   0
   4   6   1  558.98   12.49   0
   5   7   4  119.03    5.70   0
   6   4   1   19.89    4.19   0
   7   2   3  111.72    6.72   0
   7   4   3   29.15    4.01   0
   7   5   4   39.66    3.92   0
   4   4  -1   77.38    5.70   0
   5   6   2 1015.46   16.43   0
   6   5   2   15.84    3.87   0
   7   3   3   72.05    5.88   0
   4   5   0  752.60   14.95   0
   5   4   0  206.19    8.55   0
   6   2   1  347.25   10.78   0
   6   3   1  511.95   13.17   0
   3   6   1    8.41    4.42   0
   5   5   1  247.61    9.63   0
   6   0   3   36.22    5.20   0
   4   3  -1  485.31   11.83   0
   5   0   1  200.72    7.55   0
   5   7   5   80.54    5.18   0
   6   6   4   25.46    3.63   0
   7   4   4   53.73    5.15   0
   3   4  -1  371.18    9.73   0
   4   2  -1 1582.57   19.50   0
   4   7   4  337.91    9.58   0
   5   3   0  293.09    9.81   0
   6   1   2  189.79    8.08   0
   2   5   0   24.85    4.61   0
   3   5   0 1008.06   16.08   0
   6   4   2  370.38   11.20   0
   7   3   4   76.71    5.65   0
   4   6   2   42.45    5.50   0
   5   6   3   20.39    5.03   0
   7   5   6   86.22    4.84   0
   5   7   6   71.26    4.79   0
   6   2   2    7.29    4.25   0
   6   6   5  119.40    5.86   0
   7   4   5   48.52    4.71   0
   4   4   0  771.49   15.00   0
   5   4   1 1122.58   19.10   0
   7   2   5   20.50    4.24   0
   4   5   1   46.61    5.45   0
   5   1   1  102.76    6.21   0
   6   1   3   21.61    5.10   0
   7   3   5  112.23    6.66   0
   3   6   2    5.73    4.69   0
   5   0   2   48.75    5.43   0
   5   7   7    9.54    3.35   0
   6   4   3    4.65    4.69   0
   6   6   6    5.01    3.42   0
   7   4   6    5.10    3.82   0
   7   5   9   -0.06    2.43   0
   4   1   0   -0.32    3.12   0
   5   3   1   90.65    6.29   0
   7   2   6  119.81    6.52   0
   4   3   0   62.16    5.13   0
   4   2   0 3253.24   28.03   0
   4   6   3   92.63    6.97   0
   6   6   7    1.67    3.22   0
   7   2   7  190.87    7.99   0
   7   4   7   18.35    3.63   0
   3   5   1  933.66   16.02   0
   4   7   6  154.68    7.22   0
   7   2   8   -0.30    3.78   0
   7   2   9   11.77    4.38   0
   5   5   3   48.80    5.52   0
   6   1   4  107.24    7.05   0
   6   5   5   48.81    5.36   0
   6   6   8   19.76    3.33   0
   7   4   8    0.41    2.75   0
   7   4   9  292.55    8.20   0
   4   4   1  101.18    6.53   0
  -2   1 -12   36.25    5.19   0
   0  -2 -13   70.76    5.37   0
  -2   0 -12   32.35    5.42   0
  -2   3  -6  176.83    8.40   0
  -1   4  -9  122.45    7.72   0
  -2   3  -8  399.01   12.20   0
  -1  -1 -13    1.76    3.75   0
  -1   1 -13    2.17    3.37   0
   0   2 -13   17.23    3.49   0
   1   4 -11   51.10    4.26   0
  -1  -2 -12   22.19    5.47   0
  -1   0 -13    0.75    3.66   0
  -2  -2  -9  171.54    8.20   0
  -2  -2  -8  183.97    8.40   0
  -2   1 -11    2.62    4.09   0
  -1   4  -8  162.35    8.47   0
  -2   0 -11  223.89    9.87   0
  -1   4  -7  260.01   10.21   0
   0   4 -10   -0.46    4.13   0
   1   2 -13   40.13    3.37   0
  -2   2  -9  259.14   10.48   0
  -1   4  -6  482.91   12.66   0
  -2   1 -10  187.04    9.33   0
   0  -1 -13   48.76    4.86   0
   0   1 -13   28.64    3.94   0
  -2   0 -10   39.01    5.85   0
  -2   2  -8  738.88   15.82   0
  -2   2  -7  753.72   15.31   0
  -1  -2 -11   82.03    7.12   0
  -1   1 -12   11.70    4.37   0
   0   0 -13  149.24    7.13   0
  -1   0 -12   -1.54    4.31   0
  -1   2 -11  206.45    9.24   0
   0  -2 -12   13.66    4.95   0
   1  -1 -13  148.85    6.24   0
  -2   1  -9  153.01    8.19   0
   0   3 -11  211.55    8.23   0
   0   4  -9   21.62    5.23   0
   1   1 -13  123.13    5.50   0
  -2   0  -9   18.24    4.82   0
   1   0 -13    0.81    2.73   0
   1   4 -10    3.37    3.85   0
  -1  -2 -10  101.95    7.71   0
   1  -2 -12  182.98    7.52   0
  -2   0  -7   98.97    5.86   0
  -1   1 -11  123.61    7.87   0
  -1   2 -10  220.17   10.30   0
  -1   0 -11   -0.70    4.26   0
  -1   3  -8  613.90   14.69   0
   0  -1 -12  287.57   10.20   0
   0   1 -12   19.81    4.37   0
   1   3 -11  162.68    7.19   0
   2   4 -10  260.48    7.53   0
   0   0 -12  110.35    7.57   0
   2   2 -12    9.78    2.77   0
  -1  -2  -9   28.79    5.11   0
  -1   3  -6   10.34    4.82   0
   0  -2 -11    5.64    4.34   0
   0   2 -11  200.63    9.37   0
  -1   2  -9  316.82   11.17   0
   0   4  -7  241.64    9.80   0
   1   4  -9    2.21    4.34   0
   2   3 -11    9.04    3.06   0
  -1  -2  -8  952.14   16.29   0
  -1   0 -10  148.07    8.67   0
   1  -1 -12    4.70    3.90   0
   1   1 -12   13.79    3.78   0
   2  -1 -12    5.39    3.23   0
   2   1 -12   14.67    3.91   0
  -1   2  -8  288.57   10.22   0
   0   4  -5  445.82   11.56   0
   0  -2 -10   88.25    7.32   0
   0   0 -11   47.31    6.49   0
   1   2 -11  238.99    9.47   0
   1   3 -10  268.65    9.83   0
   2   0 -12  278.00    8.52   0
   2   4  -9   71.59    5.76   0
  -1   0  -9   48.88    5.80   0
  -1   2  -7  782.68   15.18   0
   0   2 -10   20.68    5.06   0
   1   4  -8  124.79    7.65   0
   2  -2 -11   18.66    4.68   0
   3   4  -9  117.40    5.82   0
  -1   1  -8  629.97   13.94   0
   2   2 -11  159.89    7.11   0
   0   1 -10   13.21    5.38   0
   1   1 -11   37.56    5.20   0
   2   3 -10  171.40    7.41   0
   3   3 -10  141.27    6.24   0
  -1   1  -7   21.73    4.53   0
   0  -2  -9   13.02    5.37   0
   0   2  -9  118.56    8.04   0
   0   0 -10   68.39    6.25   0
   1   4  -7    0.63    5.06   0
   3  -1 -11   37.94    4.25   0
  -1   0  -7 2611.33   24.81   0
   1  -2 -10   65.31    6.05   0
   1   2 -10   18.28    4.86   0
   2  -1 -11    8.38    4.34   0
   2   1 -11    7.97    3.73   0
   2   4  -8  368.03   10.98   0
   3   1 -11    6.78    3.31   0
   3   0 -11   71.94    5.10   0
   4   2 -10   24.97    3.55   0
   4   4  -8    7.63    3.62   0
   0  -2  -8  400.55   11.20   0
   0   1  -9   30.90    5.38   0
   0   3  -6   14.73    4.93   0
   3  -2 -10   64.76    5.59   0
   3   4  -8  145.13    7.18   0
   0   2  -8   20.16    4.68   0
   2  -2 -10  361.06   10.78   0
   2   2 -10   30.91    5.46   0
   4   3  -9   66.38    4.71   0
   0   0  -9   43.40    5.55   0
   2   3  -9   63.47    5.76   0
   3   2 -10   92.27    6.28   0
   4  -1 -10   29.71    4.10   0
   0   3  -5  551.42   11.61   0
   1   0 -10  222.21    9.65   0
   1   2  -9   18.97    5.65   0
   3   3  -9  216.84    8.46   0
   5   2  -9  108.40    4.69   0
   1  -2  -9   89.78    6.45   0
   1   4  -5   78.82    6.47   0
   2   4  -7  299.82   10.09   0
   4   1 -10  625.14   11.83   0
   0   1  -8  447.06   12.03   0
   0   2  -7   88.21    6.13   0
   2   1 -10   30.32    5.54   0
   4   0 -10   33.23    3.87   0
   5  -1  -9   64.13    4.34   0
   0   0  -8   61.37    5.85   0
   3  -1 -10   98.50    6.73   0
   3   1 -10  345.24   10.54   0
   4  -2  -9  249.46    8.13   0
   1   4  -4  519.26   12.00   0
   3   0 -10  155.74    8.07   0
   3   4  -7  184.08    8.36   0
   4   4  -7    4.67    4.02   0
   5   1  -9   -0.18    2.70   0
   0   2  -6   50.35    5.43   0
   1   1  -9 1140.80   20.17   0
   2   2  -9   23.32    5.01   0
   2   3  -8   21.72    4.75   0
   0   1  -7  218.05    8.08   0
   1   0  -9   32.63    5.18   0
   1   2  -8  102.13    7.03   0
   2  -2  -9  135.65    7.53   0
   2   4  -6   60.58    6.46   0
   0  -1  -7  507.37   11.19   0
   1  -2  -8   97.74    6.84   0
   3  -2  -9  104.47    6.37   0
   3   2  -9   83.76    6.33   0
   3   3  -8  102.56    7.20   0
   4   3  -8   12.91    3.62   0
   0   0  -7 1039.91   15.97   0
   5   4  -6   69.42    5.16   0
   1   3  -6    8.91    3.98   0
   2   1  -9   25.51    5.03   0
   4  -1  -9  301.82    9.66   0
   1   1  -8  432.64   12.83   0
   4   1  -9  500.58   12.21   0
   5   2  -8   49.83    4.24   0
   1   2  -7  226.56    9.16   0
   2   2  -8  146.26    8.52   0
   3  -1  -9  241.92   10.04   0
   3   4  -6   25.13    4.77   0
   4   0  -9   29.45    4.52   0
   5   3  -7  114.38    6.05   0
   6   2  -7   86.87    4.36   0
   1   0  -8  238.31    9.27   0
   3   0  -9   50.31    6.28   0
   4   4  -6  174.26    7.67   0
   2  -2  -8   26.54    4.84   0
   4  -2  -8   66.44    5.89   0
   5  -1  -8   71.24    5.38   0
   3   2  -8  124.21    7.63   0
   3   3  -7   33.43    6.05   0
   4   2  -8    2.13    3.79   0
   4   3  -7  105.85    7.15   0
   5   1  -8    3.90    3.11   0
   3  -2  -8   -0.80    4.80   0
   5   0  -8   46.17    4.50   0
   6   1  -7   22.22    3.29   0
   1   1  -7  239.99    8.87   0
   2   1  -8   86.62    6.48   0
   2   4  -4  190.63    7.92   0
   5   4  -5   67.72    5.76   0
   6   0  -7    0.11    2.49   0
   1  -1  -7  208.98    8.21   0
   1   2  -6   12.98    3.42   0
   3   4  -5    8.97    4.43   0
   5  -2  -7   49.27    5.36   0
   6   4  -4  138.18    6.14   0
   1   0  -7  458.08   11.42   0
   2   0  -8   17.78    4.47   0
   2   2  -7    3.86    3.75   0
   4  -1  -8  116.79    7.26   0
   4   1  -8  604.76   14.51   0
   4   4  -5   31.55    5.52   0
   5   2  -7   35.87    5.09   0
   4   0  -8   86.88    7.19   0
   5   3  -6  192.84    8.33   0
   2  -2  -7   40.52    5.62   0
   3   0  -8    5.58    4.43   0
   6   2  -6  114.74    5.80   0
   3   2  -7  258.25   10.04   0
   4   2  -7  152.36    8.22   0
   1   1  -6  650.97   12.75   0
   2   1  -7  221.97    9.39   0
   4  -2  -7  205.26    8.90   0
   4   3  -6   20.69    4.87   0
   5  -1  -7   67.01    6.10   0
   5   1  -7    9.53    3.88   0
   7   0  -5  121.64    5.25   0
   7   1  -5    9.75    2.68   0
   3  -2  -7   83.01    6.85   0
   5   4  -4    2.35    4.52   0
   6  -1  -6  188.19    7.30   0
   2   0  -7  726.01   15.37   0
   2   2  -6  664.81   14.09   0
   5   0  -7  122.97    7.11   0
   6   1  -6  222.71    8.04   0
   3   1  -7  195.67    9.20   0
   4   1  -7  111.10    7.95   0
   4   4  -4   77.10    6.16   0
   6   0  -6   34.67    4.09   0
   6   4  -3  170.01    7.38   0
   5  -2  -6  167.02    7.90   0
   6  -2  -5  266.08    8.36   0
   3   0  -7  171.35    8.87   0
   4   0  -7   99.34    7.25   0
   5   3  -5  411.90   11.88   0
   2  -2  -6   16.90    4.19   0
   2   3  -4   79.66    6.01   0
   3   4  -3  253.71    9.37   0
   4   2  -6   21.61    5.77   0
   2   1  -6  385.33   10.78   0
   7  -1  -4  135.77    5.62   0
   7   4  -1   52.75    4.63   0
   4  -2  -6  150.48    8.23   0
   5   1  -6  123.16    7.52   0
   5   4  -3  100.63    7.17   0
   2  -1  -6 1536.13   20.20   0
   2   2  -5  284.02    8.94   0
   3  -2  -6  232.02    9.42   0
   4   4  -3  157.92    8.41   0
   7   0  -4   88.60    5.35   0
   2   0  -6  198.53    7.96   0
   5   0  -6    8.46    4.38   0
   6  -1  -5   66.13    5.63   0
   6   1  -5  335.51   10.48   0
   6   4  -2   37.47    5.37   0
   8   1  -2   94.57    4.45   0
   3   1  -6  329.26   10.74   0
   4   1  -6   37.01    5.45   0
   5   2  -5   21.31    5.75   0
   3   4  -2   35.29    5.53   0
   7   2  -3   59.34    5.10   0
   3   0  -6  114.91    7.07   0
   3   2  -5    9.16    3.77   0
   4   0  -6  339.04   11.65   0
   5  -2  -5   32.56    5.03   0
   6  -2  -4    2.52    4.41   0
   6   2  -4  119.11    7.59   0
   8   2  -1  111.09    5.03   0
   2   1  -5  242.10    8.24   0
   4   2  -5    5.41    4.55   0
   7   4   0    0.70    3.84   0
   5   4  -2   20.23    5.05   0
   7  -1  -3   77.36    5.55   0
   4   4  -2   79.84    6.25   0
   7   1  -3   51.04    4.72   0
   4  -2  -5   50.06    6.39   0
   5   0  -5   34.15    6.18   0
   6   1  -4  191.23    9.18   0
   6   4  -1   -1.90    3.73   0
   7  -2  -2  368.91    9.39   0
   7   0  -3   29.72    4.60   0
   3   1  -5   20.01    4.18   0
   4   1  -5   67.88    6.54   0
   8   0  -1  159.05    5.80   0
   8   3   1    3.99    3.06   0
   3   3  -3   58.13    5.25   0
   5   2  -4  108.23    7.62   0
   6   0  -4   52.52    5.78   0
   7   2  -2  125.52    7.10   0
   3   2  -4  382.47   10.63   0
   4   3  -3  198.45    9.34   0
   7   4   1    5.64    4.26   0
   8   2   0   35.92    3.72   0
   3   0  -5  351.24   10.43   0
   4   0  -5   58.42    6.03   0
   4   2  -4  112.84    7.41   0
   5  -2  -4   30.03    5.90   0
   5   4  -1   21.37    5.91   0
   6  -2  -3  924.66   16.83   0
   6   2  -3   25.41    5.04   0
   4   4  -1   81.75    6.95   0
   8  -1   0    8.32    2.77   0
   5   1  -4  215.99    9.93   0
   6   4   0   28.14    4.97   0
  -7   2  -3   22.69    4.37   0
  -6   2   0  129.99    6.82   0
  -6   4   0   28.17    4.23   0
  -6   5  -1  158.81    5.87   0
  -5   3   2  393.88   10.93   0
  -5   6   0   70.36    4.55   0
  -4   4   3   19.73    4.76   0
  -3   7   1   65.06    4.86   0
  -1   6   3  143.07    6.81   0
  -7   3  -3   63.19    4.31   0
  -4   3   3  466.31   11.67   0
  -2   3   4  822.35   13.40   0
  -2   4   4  419.89   10.62   0
  -2   6   3  625.95   12.71   0
  -1   4   4    2.42    2.76   0
  -6   3   0  150.30    6.99   0
  -5   5   1   31.29    4.14   0
   0   5   3 1264.21   15.63   0
  -6   1  -1  404.30   10.07   0
  -3   5   3  187.47    8.28   0
  -2   7   1  200.86    7.58   0
  -4   5   2   87.31    5.95   0
  -4   6   1   43.74    4.58   0
  -3   2   3  775.32   13.02   0
  -7   2  -4   16.79    3.85   0
  -7   3  -4    4.76    3.17   0
  -6   4  -1   19.73    4.11   0
  -6   5  -2  157.01    5.71   0
  -5   6  -1   12.33    2.99   0
  -3   7   0   68.04    5.04   0
  -5   2   1  200.13    7.98   0
  -5   4   1  238.91    8.85   0
  -3   4   3  359.54   10.25   0
  -7   3  -5   83.18    4.44   0
  -6   2  -1   80.03    5.94   0
  -5   3   1  131.94    6.98   0
  -5   5   0  175.24    7.58   0
  -3   3   3  745.41   13.73   0
  -2   6   2   43.46    5.29   0
  -6   3  -1  125.90    6.55   0
  -6   5  -3   22.90    3.44   0
  -4   3   2  775.22   14.90   0
  -4   4   2    3.54    3.46   0
  -1   6   2  261.85    8.23   0
  -5   6  -2   47.16    3.83   0
  -2   7   0  371.77    9.48   0
  -6   4  -2   -0.31    3.64   0
  -4   5   1   49.68    5.66   0
  -4   7  -4    5.95    2.48   0
  -3   5   2  150.46    7.33   0
  -3   6   1   39.04    4.90   0
  -3   7  -1  235.99    7.47   0
  -2   3   3  471.87    9.94   0
  -2   4   3  822.21   13.97   0
  -6   5  -4   -2.88    2.66   0
  -4   1   1  133.31    5.96   0
  -5   4   0  102.27    6.51   0
  -5   5  -1   26.57    4.58   0
  -5   6  -3  348.09    8.35   0
  -6   2  -2   94.67    6.34   0
  -6   3  -2  167.84    7.83   0
  -6   5  -5  268.21    6.83   0
  -5   2   0  138.16    6.94   0
  -3   7  -2  119.35    5.98   0
  -2   7  -1  263.01    8.53   0
  -6   4  -3    4.77    3.73   0
  -6   5  -6   19.35    2.47   0
  -5   3   0  111.95    6.75   0
  -5   6  -4    3.62    2.87   0
  -4   4   1   69.25    6.04   0
  -3   4   2  393.54   10.71   0
  -3   3   2  158.16    6.76   0
  -1   5   2    4.38    3.85   0
  -1   6   1  121.61    6.26   0
  -5   6  -6   43.17    3.06   0
  -5   6  -5  128.14    4.93   0
  -4   3   1   29.60    4.46   0
  -4   5   0  136.73    7.28   0
  -3   6   0   57.85    5.53   0
  -3   7  -3    8.51    3.60   0
  -5   1  -1 1133.24   16.61   0
  -5   4  -1  152.56    8.05   0
  -5   5  -2  202.61    7.90   0
  -3   5   1   14.81    4.05   0
  -2   7  -2  178.86    7.40   0
  -6   3  -3   20.58    4.35   0
  -6   4  -4   10.99    3.36   0
  -4   6  -2  253.68    8.64   0
  -3   7  -5    9.93    3.11   0
  -3   7  -4   14.68    3.58   0
  -2   4   2  916.05   14.50   0
  -6   2  -3    7.97    3.75   0
  -5   2  -1   20.23    4.87   0
  -5   3  -1  426.74   11.68   0
  -4   1   0   47.89    4.63   0
  -2   7  -3   16.94    4.33   0
  -6   4  -5   70.60    4.74   0
  -5   5  -3   50.27    4.79   0
  -4   4   0    4.79    3.87   0
  -4   5  -1   23.69    5.14   0
  -4   6  -3   89.17    6.20   0
  -3   4   1    5.57    4.33   0
  -3   6  -1  223.27    8.82   0
  -1   6   0  312.60    9.48   0
  -6   1  -4    1.50    4.42   0
  -6   3  -4    7.66    4.58   0
  -5   4  -2    6.95    4.83   0
  -2   7  -4   34.77    4.65   0
  -6   4  -6   87.21    4.94   0
  -4   3   0  260.72    9.24   0
  -3   5   0   67.83    5.67   0
  -1   5   1  351.84    9.33   0
  -6   2  -4   76.46    5.67   0
  -5   5  -4  414.03   10.74   0
  -4   6  -4   94.80    6.09   0
  -3   3   1   33.94    3.87   0
  -5   1  -2  492.69   11.53   0
  -2   6  -1  386.82   11.15   0
  -6   3  -5   76.24    5.63   0
  -5   3  -2   62.27    5.58   0
  -5   5  -5   11.21    3.90   0
  -4   5  -2   30.34    5.42   0
  -6   1  -5   86.05    6.38   0
  -5   2  -2   30.84    4.64   0
  -5   4  -3   46.25    5.10   0
  -4   4  -1   92.64    6.23   0
  -4   6  -7   15.64    2.84   0
  -4   6  -6   49.69    4.18   0
  -1   6  -1   78.12    6.04   0
  -6   2  -5   39.44    5.32   0
  -6   3  -6  253.92    8.73   0
  -5   5  -8    6.37    2.39   0
  -5   5  -7   24.05    3.62   0
  -5   5  -6  132.01    6.14   0
  -3   6  -3   29.43    4.87   0
  -6   3  -9   76.06    4.39   0
  -6   3  -7   -1.13    3.59   0
  -4   3  -1   -0.55    4.18   0
  -6   2  -6    5.57    4.28   0
  -6   3  -8  503.83   10.27   0
  -5   3  -3    9.46    4.06   0
  -5   4  -4  268.60    9.69   0
  -1   5   0  498.69   11.04   0
  -6   1  -6  307.09    9.59   0
  -5   1  -3   20.72    4.84   0
  -4   4  -2  372.94   11.60   0
  -3   3   0  171.36    6.86   0
  -6   2 -10   17.48    3.82   0
  -5   2  -3   11.24    4.89   0
  -3   6  -8   42.36    3.92   0
  -1   6  -2    2.73    3.95   0
  -6   2  -7  116.78    6.69   0
  -5   4  -5    2.99    3.88   0
  -3   5  -2  106.15    6.75   0
  -2   6  -3   73.53    6.58   0
  -6   1  -7  107.63    6.60   0
  -6   2  -8   -1.23    3.86   0
  -5   4 -10   14.11    2.52   0
  -3   4  -1  349.43   10.31   0
  -5   3  -4   24.46    4.87   0
  -5   4  -6  404.76   11.22   0
  -4   5  -5  228.94    9.35   0
  -6   1  -9  361.35    9.61   0
  -6   1  -8  186.85    7.68   0
  -5   4  -9   16.33    3.36   0
  -4   3  -2  371.35   10.71   0
  -4   4  -3  355.55   11.56   0
  -4   5  -9   57.41    4.24   0
  -2   6  -4   44.52    5.91   0
  -1   6  -3   95.38    7.09   0
  -5   4  -8   27.58    3.87   0
  -5   4  -7   62.58    5.22   0
  -4   5  -6  102.62    6.88   0
  -3   5  -3   18.45    5.35   0
  -1   5  -1  250.90    8.54   0
  -5   1  -4   60.57    5.91   0
  -5   2  -4  204.59    8.57   0
  -5   3  -5   74.34    6.98   0
  -4   5  -8   13.60    3.31   0
  -4   5  -7   97.02    6.09   0
  -2   6  -5   60.86    6.22   0
  -3   3  -1   26.24    3.86   0
  -2   6  -7   95.97    6.07   0
  -2   6  -6   54.54    5.71   0
  -1   6  -4   94.54    7.08   0
  -4   4  -4   54.90    6.01   0
  -3   4  -2  101.44    6.80   0
  -5   3  -6  581.11   14.21   0
  -3   5  -4   39.82    5.43   0
  -2   4  -1 1010.11   15.73   0
  -5   2  -5  497.00   13.09   0
  -4   3  -3  262.85    9.43   0
  -4   4 -11   28.17    3.17   0
  -3   5 -10   11.18    2.57   0
  -1   6  -7   42.56    5.34   0
  -5   2 -12   64.49    4.02   0
  -5   3  -7   89.41    6.98   0
  -5   1  -5  174.33    7.81   0
  -5   3  -9    7.77    4.12   0
  -5   3  -8    0.35    4.75   0
  -3   5  -5  244.50    9.54   0
  -1   5  -2  238.01    8.42   0
  -3   5  -9  229.60    7.62   0
  -5   2  -6  123.40    7.67   0
  -4   3  -4  455.56   12.48   0
  -4   4 -10   17.85    3.39   0
  -3   4  -3   22.43    4.63   0
  -3   5  -8   39.57    5.17   0
  -3   5  -6  190.09    8.68   0
  -4   1  -3  589.17   11.61   0
  -3   5  -7  166.98    7.99   0
  -5   0  -6   65.37    6.18   0
  -5   1  -6  281.15   10.02   0
  -4   4  -9   20.66    3.82   0
  -2   4  -2  271.92    8.71   0
  -5   1 -12   13.38    3.46   0
  -4   3 -12  199.89    6.12   0
  -1   5  -3   38.37    5.65   0
  -5   2 -10    3.18    4.02   0
  -4   3  -5  158.98    8.37   0
  -3   4  -4   -1.29    3.82   0
  -5   0 -12  294.03    8.10   0
  -1   5 -10    9.67    3.47   0
  -5   0  -7  123.85    7.40   0
  -5   1  -7   39.10    5.23   0
  -3   3  -3  491.99   11.86   0
  -3   4 -11   10.75    3.04   0
   0   5  -3  197.79    8.11   0
  -5   1 -11   25.28    4.02   0
  -4   3 -11  131.87    6.28   0
  -4   3  -6    7.42    5.23   0
  -3   4  -5   36.24    5.59   0
  -1   5  -4    5.34    5.10   0
  -5   1 -10    5.54    4.32   0
  -5   1  -8 1442.48   20.78   0
  -4   1  -4  400.84   10.13   0
  -2   4  -3  223.74    8.20   0
  -5   0 -11   17.88    4.67   0
  -5   0  -8  418.58   11.60   0
  -5   1  -9    3.10    3.97   0
  -4   3 -10   84.56    6.29   0
  -4   3  -7  125.27    7.98   0
   0   5  -9   -1.07    4.67   0
  -4   2  -5   70.08    5.52   0
  -4   3  -9   19.60    5.20   0
  -4   3  -8   54.70    6.49   0
  -3   4  -6   60.66    6.60   0
  -1   5  -5    2.69    5.06   0
   0   5  -4  559.92   13.31   0
  -5   0 -10   41.37    5.12   0
  -5   0  -9  138.95    7.32   0
  -4   2 -12  257.72    8.03   0
  -3   4  -9    8.29    4.12   0
  -3   4  -8  192.71    9.33   0
  -3   4  -7    9.79    4.99   0
  -1   5  -8  246.77    9.63   0
  -3   3 -12   36.63    3.95   0
  -3   3  -4  790.60   15.18   0
  -2   4 -11  138.91    6.38   0
  -2   4  -4  492.28   12.52   0
  -1   5  -7   -6.01    4.97   0
  -1   5  -6   83.65    6.93   0
  -4   1 -13  108.41    5.38   0
  -4   2  -6  877.21   16.92   0
  -2   3 -13    2.85    2.11   0
   0   5  -5   30.30    5.99   0
  -4   1  -5  351.02   10.03   0
  -4   2 -11   74.16    5.64   0
  -1   4  -3  447.17   10.67   0
  -4   2  -7    4.34    3.86   0
  -3   2 -13    4.17    2.96   0
  -3   3 -11    9.47    4.25   0
  -3   3  -5  857.70   16.42   0
  -2   4 -10   43.95    4.88   0
  -2   4  -5  130.44    7.34   0
  -1   4 -11   20.35    4.24   0
  -4   0 -13   68.04    4.95   0
  -4   2 -10    1.11    3.91   0
  -4   2  -9  128.12    8.21   0
  -4   2  -8   41.64    6.16   0
  -3   1 -14   17.86    3.04   0
  -2   3  -3    0.45    2.84   0
   0   4 -11  212.67    7.13   0
  -4   1  -6   11.66    4.70   0
  -3   3  -6  607.15   14.53   0
  -2   4  -6  120.77    7.30   0
  -4  -1 -13    8.65    3.96   0
  -3   3 -10  151.84    7.93   0
  -2   3 -12   45.43    4.50   0
  -2   4  -8   44.63    5.72   0
  -2   4  -7    3.27    4.04   0
  -3   3  -9   55.91    6.43   0
  -3   3  -7  261.27   10.42   0
  -3   3  -8   81.39    6.71   0
   1   4 -10    1.27    3.94   0
  -4   0 -12  289.00    9.42   0
  -3   2 -12    8.20    3.49   0
  -2   3  -4   47.72    4.58   0
  -4   1  -8   65.73    6.57   0
  -3   0 -14   52.99    4.22   0
  -3   2  -5  762.35   14.25   0
  -1   4  -5  195.68    8.85   0
   0   4 -10    1.56    3.87   0
  -4  -1 -12   33.89    4.98   0
  -2   2 -13   -1.10    2.36   0
  -2   3 -11    0.61    3.54   0
  -1   3 -12   15.50    3.15   0
  -4   0 -11   58.64    6.15   0
  -4   0  -7  448.65   11.44   0
  -3   2 -11  218.42    9.07   0
  -2   1 -14   27.53    3.33   0
  -3  -1 -14   17.58    3.58   0
  -3   2  -6  167.56    8.00   0
  -2   3  -5  499.87   12.05   0
   0   3 -12  122.33    5.55   0
   0   4  -9   20.11    5.30   0
   1   4  -9    2.71    4.62   0
  -4   0 -10   60.64    6.45   0
  -4   0  -8   22.57    4.83   0
  -3   2 -10   22.96    5.71   0
  -2   3 -10   -3.96    4.04   0
  -4   0  -9   93.62    6.67   0
  -3   2  -7   18.42    4.57   0
  -2   3  -6  171.84    8.39   0
  -4  -1 -10   40.77    6.02   0
  -4  -1  -8 1009.22   16.86   0
  -3   1 -12  191.64    8.27   0
  -3   2  -8  144.07    7.88   0
  -2   2 -12   20.43    4.34   0
  -2   3  -9  532.49   14.30   0
  -1   3 -11    5.35    4.38   0
   0   4  -8  208.59    9.33   0
  -2   3  -8  408.56   12.48   0
  -2   3  -7  449.47   12.64   0
   3  -2  -2  320.93    8.54   0
   3  -1  -3  879.61   13.78   0
   4   2  -3  118.55    6.95   0
   5  -2  -1  195.30    8.79   0
   6  -1  -1  150.90    7.90   0
   7  -2   4   17.39    4.42   0
   7  -2   6   41.23    4.86   0
   7   0   0    7.63    4.61   0
   5  -3   2   48.43    6.57   0
   5  -1  -2  432.63   12.26   0
   7  -2   5    0.52    3.92   0
   7  -1   1    5.95    3.93   0
   8   0   3   91.59    5.49   0
   8   1   2  220.60    7.41   0
   4   0  -3  155.96    7.31   0
   6  -2   1   79.70    6.98   0
   6   3  -1   39.26    5.39   0
   7   2   0   30.71    4.98   0
   4  -3   1    0.74    3.52   0
   4   1  -3   12.84    3.96   0
   5  -3   3    6.34    5.24   0
   7   1   0   19.49    4.21   0
   8   3   3   23.27    3.60   0
   4  -2  -1  506.58   11.64   0
   4  -1  -2  690.45   13.60   0
   5  -2   0  140.74    7.52   0
   5   0  -2    8.51    3.72   0
   5   2  -2  920.99   16.33   0
   6  -1   0  200.39    9.32   0
   7  -1   2   56.54    5.45   0
   8   1   3   21.91    3.87   0
   4  -3   2  361.55   10.49   0
   6   2  -1   18.22    4.38   0
   7   0   1  229.38    9.05   0
   8   0   5   37.82    4.09   0
   5   1  -2    1.82    3.91   0
   7   3   1  165.69    7.39   0
   8   0   7    6.64    2.90   0
   7  -1   3    5.99    3.94   0
   7   4   2  242.46    7.75   0
   8   0   6  123.57    5.31   0
   8   1   4   68.08    4.61   0
   8   3   4   -1.84    2.86   0
   4  -2   0  348.58    9.62   0
   4   0  -2  156.02    6.66   0
   5  -2   1   12.54    4.23   0
   6  -1   1  393.20   11.93   0
   6   0   0  360.13   11.70   0
   7  -1   4  164.87    7.95   0
   7  -1   8   25.39    4.03   0
   7   0   2  423.81   12.14   0
   6  -2   4   76.43    6.59   0
   8   2   4    7.58    2.91   0
   4  -1  -1  140.73    6.75   0
   4   1  -2  360.12    9.70   0
   4   2  -2  417.73   10.08   0
   5   0  -1  268.81    9.39   0
   5   3  -1  112.24    6.43   0
   6  -2   5   33.03    5.32   0
   6  -2   6    5.90    4.43   0
   5  -1   0  350.85   10.61   0
   6   1   0    6.82    4.75   0
   7  -1   6  348.96    9.94   0
   7  -1   7  118.73    5.96   0
   6   2   0  872.45   16.29   0
   6   4   1   19.41    4.60   0
   7   1   2  262.92    9.57   0
   7   3   2  159.40    7.46   0
   8   1   6   20.48    3.12   0
   8   1   7   31.17    3.54   0
   8   1   8    3.78    2.68   0
   8   2   5    0.20    2.92   0
   8   3   5  153.13    5.88   0
   5   2  -1   20.09    4.32   0
   6  -1   2   35.32    4.88   0
   7   2   2  142.64    7.55   0
   6   0   1  160.73    7.98   0
   7   4   3   24.25    4.37   0
   5  -2   3    4.95    4.65   0
   8   2   6   17.29    2.92   0
   8   3   6  106.93    4.82   0
   4   0  -1  162.96    6.67   0
   5  -1   1 1175.87   18.49   0
   6  -1   3   42.35    5.86   0
   7   0   4   10.68    4.24   0
   8   2   7    0.82    2.57   0
   8   2   8   -0.06    2.32   0
   5   0   0  511.16   12.23   0
   7   5   5  189.96    6.44   0
   8   3   7   84.56    4.28   0
   8   3   8   47.84    3.51   0
   4  -2   2  263.22    8.30   0
   6   1   1  173.93    8.17   0
   6   3   1  457.77   11.64   0
   7   0   5  571.98   13.44   0
   7   0   9   33.57    3.98   0
   5  -2   5  436.86   11.71   0
   6   0   2  108.24    6.62   0
   5   1   0   71.23    5.81   0
   5   3   0  291.35    9.18   0
   7   0   6   18.99    4.00   0
   7   0   8   42.84    4.55   0
   7   1   4  107.90    6.94   0
   7   4   4   51.27    4.94   0
   4   2  -1 1613.44   18.40   0
   5  -1   2  505.71   12.35   0
   6   4   2  387.11   10.53   0
   4  -2   3  179.44    7.37   0
   5   2   0 1495.09   19.73   0
   6  -1   8  182.67    7.68   0
   5   0   1  212.97    8.07   0
   6  -1   6  291.39    9.76   0
   6  -1   7  115.06    6.92   0
   6   0   3   26.23    5.05   0
   6   1   2  191.73    8.81   0
   7   2   4   95.12    6.25   0
   7   3   4   71.77    5.93   0
   4  -1   1 1403.49   17.23   0
   4   0   0  720.50   12.46   0
   7   1   5  130.98    7.00   0
   7   1  10  145.20    5.69   0
   4  -2   4  507.19   11.46   0
   6   2   2    7.10    4.65   0
   6   3   2 1273.58   19.10   0
   7   4   5   46.23    4.28   0
   7   1   6   48.34    4.75   0
   4  -2   5   63.55    5.75   0
   6   0   4   89.82    6.42   0
   7   1   7    3.11    3.90   0
   7   2   5   18.02    4.02   0
   7   2  11   95.11    4.32   0
   7   3   5   93.57    6.30   0
   5   1   1   89.34    5.65   0
   6   4   3    2.09    4.19   0
   6   5   4   58.94    5.32   0
   7   1   8    0.86    2.88   0
   7   5   8   39.32    3.54   0
   4   1   0    0.10    2.63   0
   5   0   2   50.45    4.62   0
   5   3   1   85.89    6.31   0
   4  -1   2   34.88    3.73   0
   4   3   0   61.73    4.81   0
   6   0   5  319.96   10.45   0
   7   2  10   11.08    2.97   0
   7   3   6   58.25    5.36   0
   7   3  11   37.22    3.19   0
   4   2   0 3319.25   25.70   0
   5  -1   9   -1.06    4.19   0
   7   2   7  178.38    7.44   0
   7   4   7   15.92    3.49   0
   4   0   1  154.51    5.96   0
   6   0   6   35.89    5.09   0
   6   0   9  154.25    7.18   0
   6   1   4  111.17    7.15   0
   6   6   7    5.04    3.65   0
   7   2   8    1.82    2.97   0
   5  -1   8 1474.04   19.78   0
   6   0   8  289.41    9.77   0
   7   3   7   52.98    4.64   0
   7   3  10   18.67    2.92   0
   7   4   8    0.98    2.42   0
   7   4   9  292.72    7.72   0
   5  -1   6  273.57    9.36   0
   5  -1   7   36.22    5.34   0
   5   0   3   30.30    4.20   0
   5   4   2   29.33    4.46   0
   6   4   4  269.95    9.44   0
   6   5   5   47.40    4.89   0
   7   3   8    5.05    2.86   0
   7   3   9   50.07    4.00   0
   5   5   3   39.44    5.20   0
   6   1  11   -1.07    3.23   0
   6   6   8   16.12    3.19   0
   6   1   5    2.70    3.34   0
   6   2   4  166.34    7.91   0
   6   3   4  274.70    9.92   0
   5   0  11   14.89    4.34   0
   5   2   2    4.42    3.02   0
   5   3   2  182.65    7.56   0
   6   2  12    5.24    2.78   0
   4   1   1  155.16    6.03   0
   5   0   4   82.11    5.57   0
   6   1   6   37.36    5.52   0
   4  -1   4  393.96    9.61   0
   4   0   2   86.41    4.82   0
   6   1  10    6.21    3.26   0
   6   2   5  711.80   15.29   0
   6   5   6  106.27    5.79   0
   5   1   3   52.00    4.72   0
   6   1   7    6.35    3.91   0
   4   2   1 3240.85   25.14   0
   5   0   5  185.91    8.03   0
   5   4   3   25.77    4.95   0
   6   1   8   17.98    4.38   0
   6   3   5  510.45   12.79   0
   6   3  12   13.95    2.82   0
   4  -1   5  344.19    9.66   0
   5   0  10   40.88    4.50   0
   6   2   6  160.40    8.47   0
   6   4  12  162.72    5.33   0
   6   5   7    6.55    3.17   0
   6   5  11   19.28    2.78   0
   5   1  12   46.44    4.46   0
   5   2   3   10.82    3.47   0
   5   5   4   14.01    3.98   0
   6   4   6   81.35    5.97   0
   4  -1   6    9.98    4.22   0
   5   0   9  142.99    7.43   0
   5   1   4   11.38    3.97   0
   5   2  13   80.69    4.49   0
   6   2  10   10.86    3.92   0
   6   3   6   60.57    5.34   0
   6   5  10   25.48    3.34   0
   4  -1   7  377.94   10.32   0
   4   0   3    9.70    2.97   0
   5   0   8  427.08   11.66   0
   5   6   6    1.63    4.05   0
   6   2   8  269.59    9.91   0
   6   2   9   37.67    5.10   0
   6   3  11   64.54    4.75   0
   6   5   9   12.16    2.87   0
   6   3   7   30.37    5.09   0
   6   4  11  316.34    8.00   0
   4   4   2    8.39    3.25   0
   6   3  10   28.35    4.37   0
   6   4   8   48.70    5.26   0
   6   4  10   78.92    5.21   0
   5   1   5   21.28    4.07   0
   5   1  11   78.52    5.69   0
   5   2   4  114.74    6.35   0
   5   4   4  623.01   13.34   0
   5   6   7    4.44    3.77   0
   6   3   8    7.89    3.60   0
   6   3   9   27.57    4.16   0
   6   4   9  119.59    6.29   0
   4   0  11   51.39    5.08   0
   4   5   3   10.91    4.52   0
   5   3   4   78.23    6.03   0
   4   0   4   43.60    4.09   0
   4   3   2   24.88    3.75   0
   5   4  13   14.66    2.65   0
   5   1   6   29.44    4.26   0
   5   1  10  183.51    8.24   0
   5   2  12    2.42    3.02   0
   5   6   8   46.25    4.68   0
   5   6  10   -0.93    2.79   0
   4   1   3  292.01    7.97   0
   5   2   5  288.38    9.63   0
   4   7   9   10.64    3.16   0
   5   1   8   23.66    4.89   0
   5   5   6   13.42    4.00   0
   5   5  12    1.07    2.11   0
   4   0  10   60.39    5.27   0
   4   6   5   28.09    4.85   0
   5   3   5  140.20    7.18   0
   4   1  12   27.65    4.39   0
   4   4   3   18.68    4.35   0
   5   2   6  142.36    7.02   0
   5   3  12  218.07    7.31   0
   5   4  12    4.10    3.12   0
   4   0   6  155.44    6.86   0
   4   0   9   85.25    6.50   0
   4   2   3  700.86   12.24   0
   4   2  13   12.27    3.54   0
   5   4   6  220.44    9.22   0
   5   5  11   -0.90    2.45   0
   3  -1   7   47.65    5.12   0
   4   0   7  434.45   11.05   0
   4   0   8   14.57    4.78   0
   4   1   4 1377.14   17.11   0
   4   3   3   77.99    5.34   0
   4   5   4    1.31    3.55   0
   5   2  10   10.43    3.88   0
   4   6  12   20.63    2.79   0
   5   2   8  411.25   11.73   0
   5   3  11   -0.17    3.16   0
   5   4  11    7.91    3.59   0
   5   5   8   73.10    5.66   0
   5   5   9   25.36    4.59   0
   4   5  13   32.74    3.12   0
   4   6   6   37.48    5.07   0
   5   3   7  248.50    9.76   0
   5   4   7  178.13    8.03   0
   4   1  11  246.05    8.94   0
   5   3  10  325.44   10.34   0
   5   4   8  232.02    9.48   0
   5   4  10    7.91    3.95   0
   5   3   8  417.25   11.99   0
   5   3   9  419.11   11.86   0
   5   4   9    6.55    3.80   0
   3   3  14   59.36    3.91   0
   4   2   4  500.47   10.74   0
   4   2  12   28.80    4.62   0
   4   4   4   71.72    5.30   0
   4   4  13   19.75    2.99   0
   4   6   7  383.76   10.57   0
   4   1  10   38.12    5.55   0
   4   3   4    2.41    3.86   0
   3   7  10   -1.78    2.74   0
   4   1   6  262.68    8.44   0
   4   5  12  166.56    6.48   0
   4   6   8  219.03    8.40   0
   3   0  10   15.40    4.92   0
   3   7   8  301.30    8.40   0
   3   7   9   10.15    3.56   0
   4   1   9   50.26    5.99   0
   3   1  12   49.77    5.46   0
   3   2  13   59.33    4.89   0
   4   1   7  123.46    6.45   0
   4   2   5  357.35    9.58   0
   4   3  12  345.99    9.87   0
   4   5   6   25.92    5.20   0
   4   4  12   -0.86    2.90   0
   3   6  12   52.55    3.87   0
   3   0   9   12.09    4.18   0
   3   5  13    2.36    2.22   0
   4   2   6  110.16    5.95   0
   4   2  10   17.88    5.11   0
   2   3  14   90.02    4.55   0
   3   0   8    0.45    4.16   0
   3   4   3   25.05    4.31   0
   4   3  11  936.83   16.95   0
   4   4   6  249.26    9.12   0
   4   4  11   32.50    4.40   0
   4   5  10   56.72    5.19   0
   3   4  13   50.63    4.46   0
   3   5   4   57.56    5.59   0
   4   2   7   31.68    4.52   0
   4   3   6    4.09    3.18   0
   4   5   9   37.67    5.04   0
   3   6   6   98.51    6.84   0
   3   6  11  414.67    9.86   0
   4   3  10    2.79    3.97   0
   4   4  10   88.14    6.29   0
   3   2  12  381.78   10.66   0
   4   3   7  238.24    9.07   0
   4   3   9  737.08   16.00   0
   4   4   8  284.66   10.50   0
   2   7  10   55.32    4.09   0
  -2   7   6   87.27    3.41   0
  -1   8   6   -0.81    1.28   0
   2   4   7    1.74    1.91   0
   2   7   7  137.17    4.58   0
   2   8   6   71.14    3.07   0
  -1   6   7  135.02    5.11   0
   3   5   6   22.38    2.87   0
   3   6   6   96.10    4.11   0
  -3   5   5    0.98    2.05   0
  -3   7   4   48.54    2.55   0
   1   7   7   -0.39    2.34   0
   2   5   7  175.45    5.22   0
  -2   6   6  232.93    6.04   0
  -1   3   6   50.46    3.25   0
   0   4   7  323.77    7.15   0
   0   8   6   74.38    3.06   0
   1   4   7  207.30    5.56   0
   1   9   4  143.14    3.46   0
  -3   3   4  524.28    8.21   0
  -2   5   6    3.36    2.32   0
  -2   8   4  176.15    4.15   0
   0   9   4  119.01    3.08   0
  -1   8   5  238.59    5.18   0
   0   6   7  141.07    5.14   0
   1   3   6  115.69    3.87   0
   1   6   7  131.85    5.17   0
   2   8   5   92.74    3.63   0
  -2   3   5  218.83    5.49   0
   0   3   6  124.95    4.18   0
   2   7   6  164.62    5.15   0
   2   4   6   27.10    2.58   0
  -3   4   4  511.48    8.74   0
  -1   4   6  523.82    8.96   0
   1   9   3   49.15    2.39   0
   3   5   5  303.10    6.48   0
   3   6   5   63.65    3.76   0
  -3   5   4   33.10    3.48   0
  -1   6   6   12.14    2.60   0
   0   7   6  394.31    7.85   0
   0   8   5  126.91    4.12   0
   0   9   3  178.97    3.96   0
  -2   6   5   85.10    4.20   0
  -2   8   3    4.29    1.84   0
  -1   5   6  129.61    5.13   0
  -1   9   2    7.72    1.35   0
   2   5   6  269.03    6.34   0
  -2   5   5   20.45    3.51   0
  -1   8   4    1.46    2.05   0
   0   4   6  436.63    8.06   0
   1   4   6   68.02    3.49   0
   2   8   4   53.90    3.21   0
  -2   7   4    6.89    2.76   0
  -1   3   5   18.95    2.15   0
  -1   7   5  189.74    5.76   0
   0   6   6   25.82    3.38   0
  -3   3   3  758.66    9.79   0
   0   5   6  477.38    9.07   0
   0   9   2   34.51    2.29   0
   1   5   6  171.16    5.47   0
   1   6   6  112.55    4.90   0
   1   9   2  211.79    4.39   0
   2   7   5   76.82    3.97   0
  -3   7   2  123.24    4.44   0
  -1   9   1    0.60    1.17   0
   0   8   4  112.10    4.26   0
   2   4   5  129.62    4.43   0
   3   6   4   57.17    3.91   0
  -2   8   2   31.12    2.55   0
  -1   4   5   43.85    3.71   0
  -1   6   5  307.72    7.73   0
   0   7   5   64.50    4.14   0
   1   7   5   44.54    3.79   0
   1   9   1    5.31    1.80   0
  -4   5   1   48.05    3.65   0
  -3   4   3  344.39    7.42   0
  -2   6   4    8.64    3.03   0
   0   9   1   38.07    2.46   0
   2   6   5  241.19    6.56   0
   2   8   3  177.37    5.05   0
  -4   6   0   -0.55    2.48   0
  -1   5   5  207.32    6.42   0
   2   5   5    0.37    2.38   0
  -2   5   4  120.50    5.24   0
   0   6   5    2.59    3.65   0
   2   7   4    1.40    3.09   0
  -3   7   1   61.04    3.82   0
  -2   8   1   31.34    2.89   0
   0   4   5    5.94    2.41   0
   0   9   0    0.29    1.70   0
   1   4   5  162.91    4.97   0
   1   6   5  553.13   10.22   0
  -3   6   2  298.44    7.48   0
   0   5   5  761.37   11.63   0
   1   5   5  193.24    5.92   0
   2   8   2   21.40    3.10   0
  -3   3   2  158.23    5.17   0
  -1   8   2   77.48    4.22   0
   0   7   4  251.58    7.31   0
   1   7   4  208.55    6.99   0
  -1   6   4  313.48    8.22   0
  -4   5   0  146.36    5.49   0
  -3   5   2  155.30    6.21   0
   2   6   4  700.64   11.10   0
  -3   4   2  412.94    8.58   0
  -3   7   0   67.88    4.18   0
  -2   8   0  214.66    5.56   0
  -1   4   4    4.13    2.30   0
  -1   5   4   77.36    5.09   0
   2   7   3   34.63    4.09   0
   2   8   1    5.68    2.96   0
  -4   4   0    3.59    3.16   0
   0   6   4   57.09    4.90   0
   0   8   2  142.02    5.37   0
   2   5   4  949.66   12.00   0
  -3   6   1   38.36    4.45   0
  -2   5   3   34.88    3.94   0
  -1   8   1   75.57    4.14   0
   1   6   4  240.58    7.30   0
   0   7   3  457.88   10.00   0
   1   7   3  318.86    8.74   0
   0   4   4 1273.07   13.94   0
   0   5   4   70.87    4.44   0
   2   8   0  107.93    4.50   0
  -3   7  -1  215.58    6.34   0
  -2   6   2   42.34    5.14   0
  -1   6   3  142.78    6.31   0
  -2   8  -2   22.83    2.96   0
  -1   7   2  178.95    6.94   0
  -1   8   0  102.42    4.74   0
   2   6   3  482.17    9.85   0
   2   7   2   17.87    3.53   0
   2   8  -1   55.86    3.84   0
  -3   5   1   12.62    3.55   0
   2   8  -2   45.14    3.39   0
  -3   6   0   58.30    5.23   0
  -2   8  -4   -0.67    1.95   0
  -2   8  -3    3.76    2.06   0
  -1   5   3   74.29    4.85   0
   0   6   3    1.38    3.82   0
  -4   4  -1   85.78    5.25   0
  -3   4   1    5.96    3.02   0
  -3   7  -2  115.26    4.95   0
  -2   5   2   58.07    5.13   0
   0   7   2   45.32    4.68   0
   1   6   3  279.18    8.23   0
   1   7   2   34.43    4.55   0
   2   5   3  571.48   10.11   0
  -2   7   0  372.00    9.38   0
  -3   7  -3    7.92    3.13   0
  -1   7   1  105.38    5.94   0
   2   7   1   86.72    5.21   0
  -4   5  -2   25.20    3.83   0
  -2   6   1   35.60    4.46   0
  -1   6   2  267.77    8.66   0
  -1   8  -2   46.52    3.98   0
   0   5   3 1208.23   15.45   0
   0   8  -1   -1.55    3.56   0
   2   6   2  373.00    9.49   0
  -3   6  -1  230.79    8.15   0
  -3   7  -4   17.77    2.81   0
  -1   8  -5   46.31    3.22   0
   0   7   1    5.40    3.91   0
   1   8  -4   86.77    4.17   0
   1   8  -2  132.57    5.69   0
  -3   7  -5    9.49    2.48   0
  -1   8  -4  102.14    4.46   0
   0   6   2   30.44    4.13   0
   1   8  -3   -0.61    2.49   0
   2   7   0  470.91   10.67   0
  -1   5   2    6.82    3.41   0
  -1   7   0   94.70    6.01   0
   0   8  -5  161.83    5.06   0
   0   8  -3  158.57    6.11   0
   1   6   2  208.33    7.53   0
  -4   5  -3   65.34    5.20   0
  -2   6   0  168.33    7.75   0
   0   8  -4   29.96    3.18   0
   2   5   2   36.09    4.25   0
  -3   6  -2  363.30   10.07   0
  -2   7  -2  186.70    7.34   0
  -1   4   2 1094.80   14.08   0
  -1   6   1  125.93    6.59   0
   0   7   0   63.45    5.55   0
   2   6   1   62.50    5.07   0
   2   7  -1  272.45    8.69   0
  -3   5  -1   30.87    4.51   0
   0   5   2  392.82    9.37   0
  -4   5  -4  270.35    8.35   0
  -2   7  -3   22.45    4.17   0
   0   6   1   53.67    5.42   0
  -3   6  -3   29.84    5.21   0
   2   7  -2  154.96    7.09   0
  -4   4  -3  370.56    9.65   0
  -2   6  -1  384.74   10.96   0
  -2   7  -7   31.83    2.95   0
  -2   7  -4   32.01    4.16   0
   0   7  -1   43.34    5.27   0
   2   7  -5   27.53    3.61   0
  -4   5  -5  219.22    7.79   0
  -2   5   0  709.40   13.52   0
  -2   7  -6   14.56    3.37   0
  -2   7  -5  109.92    5.78   0
   2   6   0  519.22   11.93   0
   2   7  -4    2.84    3.65   0
   2   7  -3   67.52    5.08   0
  -3   4  -1  348.54    9.19   0
  -3   6  -4  153.29    7.44   0
   2   5   1  798.03   13.13   0
  -4   5  -8    7.97    3.64   0
  -4   5  -6   99.14    5.91   0
  -3   5  -2  106.43    6.47   0
  -1   7  -3   71.07    6.10   0
   0   7  -2    7.07    5.01   0
  -3   6  -8   42.17    3.55   0
  -3   6  -5  114.01    6.56   0
  -2   6  -2  122.56    7.62   0
   0   5   1   21.80    4.14   0
   0   6   0  145.90    7.08   0
  -1   4   1  980.06   13.81   0
  -1   7  -7  151.04    5.66   0
  -1   7  -4  222.85    8.66   0
  -4   4  -4   59.14    5.72   0
  -3   6  -7  104.29    5.13   0
  -3   6  -6   11.37    3.45   0
  -1   6  -1   68.85    5.95   0
  -1   7  -6   25.98    3.93   0
  -1   7  -5  148.13    7.01   0
   0   7  -7   16.53    3.19   0
   1   7  -6   84.84    4.88   0
   2   6  -1  296.85    9.87   0
  -2   5  -1  847.14   15.24   0
  -1   5   0  515.91   11.88   0
  -3   5  -3   22.03    4.76   0
  -2   6  -3   66.37    6.03   0
   0   7  -6  451.13   10.36   0
   0   7  -5    5.98    4.23   0
  -3   4  -2  101.06    6.43   0
   2   5   0   25.40    4.70   0
  -4   4  -5  542.19   12.10   0
  -1   6  -2    4.04    3.87   0
  -2   6  -4   41.67    5.35   0
   0   5   0  283.44    8.78   0
  -3   5 -10    9.02    2.94   0
  -3   5  -4   46.65    5.44   0
   2   6  -7   14.54    3.72   0
  -2   5  -2  182.44    8.00   0
  -2   6  -8  209.75    7.43   0
  -1   4   0  436.16    9.85   0
   0   6  -2   25.65    5.49   0
  -4   4  -6  180.47    7.59   0
  -2   6  -6   61.04    5.99   0
  -1   5  -1  265.86    8.97   0
  -1   6  -3   91.44    6.70   0
  -4   4  -9   17.06    4.02   0
  -3   4  -3   18.84    5.20   0
  -3   5  -5  243.81    9.23   0
  -1   6  -9    4.15    2.55   0
   0   6  -9   10.66    2.90   0
   2   5  -1  223.36    8.34   0
   2   6  -4    0.06    4.58   0
  -4   4  -8   84.70    5.85   0
  -4   4  -7    1.29    3.83   0
  -3   5  -9  244.10    7.66   0
   1   6  -8  115.76    5.63   0
  -2   5  -3   18.68    5.11   0
  -1   6  -4   88.77    6.72   0
   0   6  -3  401.09   12.01   0
  -3   5  -8   37.94    4.58   0
  -3   5  -7  162.10    7.48   0
  -1   6  -8  125.46    6.30   0
  -1   6  -5  225.82    9.80   0
   0   5  -1  267.36    8.66   0
  -1   5  -2  229.09    8.71   0
   0   6  -8    6.43    3.18   0
   0   6  -4  358.39   12.10   0
   2   5  -9  106.62    5.14   0
  -3   4  -4   -0.06    3.92   0
  -2   5 -10    7.60    3.12   0
  -2   5  -4   32.11    4.82   0
   0   6  -5  136.26    8.06   0
   2   5  -2   26.18    4.56   0
  -4   3  -6    2.73    4.49   0
  -3   4 -11   10.11    3.07   0
  -3   3  -3  479.22   10.48   0
   0   5  -2   24.99    4.21   0
  -1   5  -3   37.88    4.95   0
   2   5  -3  103.66    7.09   0
  -3   4  -5   42.76    5.50   0
  -1   0 -12    1.57    3.69   0
  -1   1 -11  127.67    8.38   0
   0   2 -11  201.02    8.86   0
   1   3 -10  279.30    9.42   0
  -2  -1 -10   15.33    4.52   0
  -1  -2 -12   31.10    5.77   0
   0  -2 -13   68.56    5.44   0
   0   1 -12   18.39    4.82   0
  -1  -1 -12   58.25    5.73   0
   0  -1 -13   45.14    4.82   0
   1   0 -13    1.92    3.40   0
   2   0 -13   15.23    2.85   0
   2   3 -10  168.78    7.37   0
  -2  -2  -7   23.07    4.03   0
  -2  -1  -9   66.83    6.10   0
  -1  -3 -11   17.43    4.95   0
   0  -4 -11   37.94    5.18   0
   0   3  -8  988.03   17.61   0
   2  -2 -13   11.46    3.11   0
  -2  -1  -8   65.22    5.50   0
  -2  -1  -7  187.49    7.66   0
  -1   1 -10    8.14    5.19   0
   0  -3 -12    7.55    4.54   0
   1  -2 -13  126.06    5.86   0
   2  -1 -13  128.25    5.50   0
  -1   0 -11   -4.90    3.87   0
   1  -1 -13  144.90    6.35   0
   1   1 -12   12.92    4.19   0
   1   2 -11  232.16    8.81   0
  -1  -2 -11   89.74    7.11   0
   0   2 -10   15.32    4.89   0
   0   3  -7  213.51    9.02   0
  -1  -1 -11   38.17    5.53   0
   1  -4 -11   79.84    5.97   0
   2   2 -11  167.78    7.18   0
  -1   1  -9  351.75   11.44   0
   0  -2 -12   17.90    4.80   0
   0  -1 -12  322.90   11.40   0
   0   1 -11  360.12   11.74   0
   0   3  -6   20.41    5.19   0
   1  -3 -12  241.98    8.60   0
   2  -4 -11  168.62    6.71   0
  -1   0 -10  147.12    8.45   0
   2  -3 -12    0.39    2.81   0
  -1  -2 -10   96.10    7.02   0
   0  -3 -11    1.62    5.05   0
   0   2  -9  122.01    8.19   0
   1   0 -12  225.56    9.17   0
   3  -2 -12    0.54    2.71   0
   3   0 -12    1.96    2.56   0
  -1  -1 -10  339.38   11.82   0
  -1   1  -8  644.74   14.13   0
   2   3  -9   61.92    6.28   0
   3   3  -9  200.38    8.25   0
  -1  -3  -8   28.20    5.64   0
   0   0 -11   39.36    5.64   0
   1  -1 -12    1.14    4.27   0
   1   2 -10   18.68    4.63   0
   2   0 -12  274.11    8.70   0
   3  -1 -12    2.58    2.86   0
  -1   1  -7   23.90    4.20   0
   0   1 -10   13.38    4.84   0
   1   1 -11   40.72    5.28   0
   2  -2 -12   57.69    4.99   0
  -1  -1  -9 1056.11   19.10   0
   0  -2 -11    4.54    4.16   0
   0  -1 -11  725.80   16.91   0
   0   2  -8   15.47    5.36   0
   2  -1 -12    5.02    3.26   0
  -1   0  -8  502.57   12.83   0
   0  -3 -10   87.40    7.50   0
   1  -3 -11   13.00    5.10   0
   2   1 -11    7.85    4.35   0
   2   2 -10   28.65    5.33   0
   4   0 -11   13.16    2.94   0
   0  -4  -8  624.15   14.53   0
   3  -3 -11   20.01    3.42   0
   3   2 -10   97.92    5.83   0
  -1  -1  -8 1080.80   17.90   0
   0   0 -10   68.26    6.94   0
   2  -4 -10    4.83    4.38   0
   2  -3 -11  616.92   12.95   0
   4  -1 -11    2.58    2.76   0
  -1   0  -7 2565.60   25.10   0
   0   1  -9   35.28    5.32   0
   0   2  -7   94.59    6.37   0
   1   2  -9   32.04    5.32   0
   2   3  -8   19.00    5.37   0
   0  -2 -10   87.59    6.90   0
   0  -1 -10  456.90   13.76   0
   1  -2 -11   55.83    6.11   0
   1  -1 -11 1117.22   20.54   0
  -1  -1  -7  685.06   13.14   0
   0  -3  -9  276.27   10.35   0
   1  -4  -9  330.28   11.00   0
   1   3  -6    5.31    5.05   0
   2   0 -11  559.99   13.63   0
   3   0 -11   69.76    5.22   0
   3   3  -8  103.61    7.06   0
   4  -3 -10   72.15    4.65   0
   2  -2 -11   13.02    4.97   0
   3  -2 -11   45.36    4.31   0
   0   0  -9   41.77    5.25   0
   0   1  -8  449.84   12.12   0
   1  -3 -10   93.51    6.98   0
   2  -1 -11    9.71    3.97   0
   2   2  -9   20.76    5.54   0
   3  -1 -11   37.73    4.52   0
   4   2  -9   52.44    5.15   0
   1   2  -8  101.81    7.39   0
   0  -3  -8  212.57    9.39   0
   0  -2  -9   11.55    4.55   0
   0  -1  -9  889.97   17.71   0
   1   0 -10  219.32    9.98   0
   2   3  -7   92.95    7.28   0
   3   1 -10  357.41   10.74   0
   3   2  -9   81.28    6.65   0
   5   1  -9   -0.59    2.91   0
   1  -4  -8  240.32   10.05   0
   1  -2 -10   75.53    6.83   0
   2  -3 -10   11.91    4.39   0
   3  -3 -10  338.59    9.63   0
   0   1  -7  223.85    8.30   0
   1  -1 -10  111.66    7.82   0
   4  -2 -10  126.55    5.90   0
   4   0 -10   36.11    4.10   0
   0   0  -8   59.97    5.55   0
   1  -3  -9   76.34    7.19   0
   2   0 -10  472.84   13.80   0
   0  -3  -7  619.98   13.30   0
   1   2  -7  246.94    9.47   0
   2  -2 -10  392.14   12.88   0
   3   0 -10  150.53    8.24   0
   3   3  -7   28.13    5.57   0
   4  -1 -10   30.05    3.89   0
   5  -2  -9  141.71    5.64   0
   0  -1  -8  901.65   16.54   0
   2  -1 -10  258.84   10.34   0
   2   2  -8  151.84    8.55   0
   3  -2 -10   67.50    5.76   0
   4  -4  -8   36.80    4.71   0
   5   0  -9   87.99    5.14   0
   1  -4  -7  472.31   12.81   0
   1   0  -9   37.64    5.69   0
   2  -4  -8   29.41    5.67   0
   2   1  -9   27.97    5.26   0
   2   3  -6  106.72    7.28   0
   3  -1 -10   97.36    6.65   0
   4  -3  -9  206.95    7.51   0
   4   1  -9  506.79   12.44   0
   5  -1  -9   60.55    4.62   0
   1  -2  -9   79.17    6.46   0
   1  -1  -9    6.80    5.13   0
   1   1  -8  447.85   12.48   0
   4   2  -8    6.24    4.53   0
   2  -3  -9   20.12    5.13   0
   3  -4  -8   -0.41    4.37   0
   3   1  -9  451.01   12.78   0
   3   2  -8  125.61    7.48   0
   5  -3  -8   83.43    5.13   0
   1  -3  -8   82.02    6.45   0
   1   2  -6   13.22    4.56   0
   3  -3  -9  170.34    7.99   0
   2   0  -9  760.10   17.06   0
   4   0  -9   33.76    5.36   0
   2   2  -7    9.22    4.96   0
   2   3  -5   19.50    5.26   0
   3   3  -6    1.43    5.24   0
   4  -2  -9  271.94    9.26   0
   1   1  -7  267.72    9.70   0
   2  -1  -9  242.08   10.34   0
   2   1  -8   82.06    7.00   0
   3   0  -9   45.31    5.43   0
   4  -1  -9  304.08   10.23   0
   4   3  -6   23.89    5.43   0
   5   2  -7   34.31    4.70   0
   1  -2  -8   88.86    6.53   0
   1  -1  -8    1.44    4.69   0
   2  -4  -7    0.99    4.40   0
   3  -2  -9  122.17    7.65   0
   3  -1  -9  243.08   10.52   0
   4  -4  -7   30.73    5.09   0
   6  -2  -7    8.75    2.96   0
   6   2  -6  112.57    5.50   0
   2  -3  -8    5.46    5.53   0
   4  -3  -8   23.34    4.94   0
   5  -4  -6    1.77    4.53   0
   5  -2  -8  355.13    9.58   0
   3  -4  -7   65.75    6.18   0
   3   1  -8  313.68   11.31   0
   3   2  -7  264.67   10.43   0
   4   2  -7  157.25    8.43   0
   6   0  -7    1.20    3.06   0
   3  -3  -8    5.34    4.29   0
   5  -1  -8   68.84    5.22   0
   6  -1  -7   21.78    3.64   0
   1   0  -7  457.99   11.70   0
   2   0  -8   15.86    4.47   0
   5  -3  -7   21.36    4.44   0
   5   3  -5  419.01   11.33   0
   1   1  -6  609.93   12.36   0
   2   2  -6  676.58   13.84   0
   3   3  -5   -0.21    4.78   0
   4   0  -8   86.87    7.41   0
   7   1  -5    7.46    2.76   0
   1  -1  -7  206.81    8.39   0
   2  -1  -8    1.88    4.04   0
   3   0  -8    3.40    4.50   0
   4  -2  -8   66.50    6.14   0
   5   1  -7    4.44    3.78   0
   6   3  -4   21.80    4.85   0
   1  -3  -6   45.68    4.97   0
   3  -2  -8    3.55    4.54   0
   4  -1  -8  119.88    7.37   0
   4   3  -5  106.50    7.52   0
   5   2  -6  370.01   11.30   0
   2  -3  -7  487.57   12.84   0
   3  -1  -8   41.44    5.75   0
   4  -4  -6   18.45    5.00   0
   3  -4  -6  393.88   11.49   0
   4  -3  -7   49.91    5.55   0
   5  -2  -7   52.88    5.21   0
   6  -2  -6   69.50    5.06   0
   6   2  -5  131.96    6.98   0
   7  -1  -5   76.78    4.28   0
   7   0  -5  123.48    5.23   0
   4   2  -6   20.05    5.70   0
   5  -4  -5   39.42    5.12   0
   5   0  -7  118.71    7.17   0
   2   0  -7  728.26   15.53   0
   5  -1  -7   71.83    6.09   0
   6  -3  -5   19.67    3.89   0
   6   0  -6   38.13    4.82   0
   2  -2  -7   36.53    5.18   0
   2  -1  -7  227.26    9.76   0
   2   2  -5  281.65    8.71   0
   3   3  -4  148.29    7.64   0
   5  -3  -6   58.46    5.32   0
   6  -1  -6  190.36    7.52   0
   3   0  -7  157.50    8.76   0
   4  -2  -7  205.57    9.39   0
   4   0  -7  110.05    7.73   0
   5   3  -4  214.27    9.05   0
   2  -3  -6  110.89    7.27   0
   3  -2  -7   84.15    6.91   0
   4  -1  -7   15.91    5.48   0
   5   1  -6  130.33    7.70   0
   7  -2  -4  217.42    6.67   0
   3  -1  -7   24.07    5.09   0
   4  -4  -5    8.50    4.82   0
   5   2  -5   21.71    5.49   0
   6   3  -3  121.30    7.13   0
   7   2  -3   54.02    4.84   0
   3  -4  -5  420.59   11.53   0
   4  -3  -6  113.46    7.79   0
   6   1  -5  329.53   10.25   0
   3   2  -5   15.02    4.04   0
   4   1  -6   38.45    5.45   0
   5  -2  -6  172.17    8.44   0
   6  -2  -5  266.96    9.19   0
   6   2  -4  113.92    7.09   0
   2   0  -6  193.03    7.92   0
   4   2  -5    7.84    4.53   0
   5   0  -6   10.12    4.50   0
   5  -3  -5  377.71   11.61   0
   5  -1  -6   12.73    4.44   0
   6  -3  -4    5.83    3.96   0
   6   0  -5  139.02    7.74   0
   4  -2  -6  144.99    8.86   0
   6  -1  -5   70.43    5.70   0
   2  -3  -5  216.02    8.10   0
   3  -2  -6  220.36    9.43   0
   3   0  -6  123.17    7.31   0
   4   0  -6  337.83   11.88   0
   5   3  -3  302.85   10.48   0
   6  -4  -2  128.61    6.90   0
   7  -3  -2   65.07    4.59   0
   3  -4  -4  491.29   12.38   0
   3  -1  -6  190.05    9.10   0
   4  -4  -4   78.90    6.63   0
   4  -1  -6  118.17    7.60   0
   5   1  -5   79.84    6.86   0
   7  -2  -3   26.45    3.55   0
   7   1  -3   43.04    4.83   0
   4  -3  -5  441.56   12.85   0
   4   3  -3  198.90    8.65   0
   5   2  -4  111.33    7.85   0
   6   3  -2   67.40    6.22   0
   3   1  -5   21.01    4.85   0
   5  -4  -3    0.83    4.76   0
   5  -2  -5   34.74    5.83   0
   6   1  -4  186.51    8.55   0
   7   2  -2  115.04    6.15   0
   2   0  -5  228.86    7.87   0
   3   2  -4  393.75   10.33   0
   4   1  -5   66.82    6.09   0
   5   0  -5   32.43    6.18   0
   6  -2  -4    1.10    3.70   0
   6   2  -3   23.88    5.54   0
   7  -1  -3   73.71    5.15   0
   7   0  -3   24.52    3.91   0
   8  -1  -1   59.72    3.88   0
   4   2  -4  116.79    6.92   0
   5  -1  -5   15.75    4.73   0
   6  -3  -3  123.72    7.02   0
   2  -1  -5    1.43    2.97   0
   5  -3  -4   20.26    4.88   0
   6  -1  -4  107.95    7.42   0
   6   0  -4   44.91    5.84   0
   4  -2  -5   44.89    5.78   0
   4   0  -5   64.26    6.60   0
   6  -4  -1  144.12    6.97   0
   7  -3  -1    2.72    3.10   0
   3  -4  -3  355.14   10.69   0
   3  -2  -5  410.18   11.65   0
   3   0  -5  352.05   10.45   0
   4  -4  -3   16.01    5.34   0
   5   3  -2  101.72    7.42   0
   7  -2  -2  360.12    9.62   0
   3  -1  -5   72.60    5.73   0
   5   1  -4  215.74    9.69   0
   7   1  -2   -1.60    3.32   0
   4  -3  -4   20.21    4.87   0
   4   3  -2  145.62    7.63   0
   5  -4  -2   85.77    6.65   0
   5   2  -3  188.10    9.37   0
   6   1  -3  239.56   10.25   0
   6   3  -1   37.51    5.77   0
   7   2  -1   20.48    4.70   0
   8  -1   0    9.99    3.05   0
   3  -3  -4  496.78   12.14   0
   6  -2  -3  932.55   17.62   0
   7  -1  -2   17.86    3.91   0
   7   0  -2   72.75    6.14   0
   8   0   0   28.34    3.86   0
   3   1  -4   15.51    3.56   0
   4   1  -4   24.94    4.70   0
   5  -1  -4  189.41    9.77   0
   5   0  -4  128.90    7.89   0
   6  -3  -2    6.62    3.96   0
   6   2  -2   29.53    5.94   0
   4   2  -3  118.02    6.91   0
   5  -3  -3   32.92    5.39   0
   6  -4   0   22.34    4.82   0
   6  -1  -3  240.69   10.22   0
   6   0  -3   49.04    5.79   0
   7  -3   0   34.78    4.25   0
   7  -2  -1   23.10    3.89   0
  -4   2  -3  190.40    7.60   0
  -4   3  -3  243.98    9.05   0
  -4   5  -7   88.64    5.98   0
  -3   3  -1   24.09    3.87   0
  -3   6  -5  114.14    6.55   0
  -4   4  -4   52.69    5.96   0
  -3   6  -7  109.35    5.83   0
  -4   2 -12  261.90    7.38   0
  -4   4 -10   18.92    3.87   0
  -1   7  -4  209.93    7.75   0
  -4   1  -4  387.47    9.97   0
  -2   5  -1  841.68   14.92   0
  -4   3  -4  442.03   11.80   0
  -3   4  -2   91.63    6.02   0
  -1   7  -6   27.14    4.09   0
  -4   0  -6  177.97    7.50   0
  -4   2  -4  515.12   11.99   0
  -4   4  -6  177.60    8.92   0
  -3   5 -10   10.83    3.03   0
  -4   0 -10   59.28    6.55   0
  -4   4  -7    5.12    4.98   0
  -2   6  -9   95.60    4.63   0
  -4   1 -11  376.17   10.09   0
  -4   2 -11   68.77    5.54   0
  -4   3  -5  150.82    7.86   0
  -3   3  -2   -1.10    2.80   0
  -3   5  -4   37.99    5.24   0
  -4   3 -10   77.57    5.58   0
  -2   6  -4   40.78    5.97   0
  -4   0  -9   92.81    6.53   0
  -4   0  -8   21.46    5.19   0
  -4   3  -6    4.58    5.11   0
  -2   5 -11    1.51    2.25   0
  -2   6  -8  206.43    7.28   0
  -4   1 -10  212.76    8.77   0
  -4   1  -6    7.23    4.08   0
  -4   3  -9   16.89    4.74   0
  -3   4 -11   13.85    3.13   0
  -3   5  -8   46.59    5.43   0
  -2   4  -1 1017.24   15.00   0
  -2   6  -5   57.24    6.29   0
  -1   6  -2    5.83    4.53   0
   0   7  -6  398.27    9.27   0
  -4   2 -10   -1.69    4.03   0
  -4   2  -6  842.36   15.89   0
  -4   3  -8   51.30    5.87   0
  -4   3  -7  138.44    7.95   0
  -3   3 -12   36.24    3.76   0
  -3   5  -7  157.91    7.86   0
  -3   5  -6  190.40    8.65   0
  -4   1  -9   66.70    6.55   0
  -4   1  -7  339.99   10.27   0
  -4   1  -8   67.74    6.00   0
  -4   2  -7   10.69    4.31   0
  -3   3  -3  484.65   11.13   0
  -3   4  -4   -4.95    3.94   0
  -2   4 -12    9.61    2.63   0
  -3   4 -10  226.38    8.04   0
  -1   5  -1  268.95    8.83   0
  -3   2 -12   13.15    3.74   0
  -2   5 -10    4.24    2.78   0
  -2   5  -3   12.26    4.55   0
  -1   6  -3   91.10    6.47   0
  -3   3 -11   10.20    4.50   0
  -3   4  -5   34.01    5.55   0
  -3   3  -4  810.09   15.17   0
  -3   4  -9    8.89    4.14   0
  -2   2 -13   -2.05    3.10   0
  -2   4  -2  256.95    8.22   0
  -1   5 -11   66.20    3.69   0
  -3   4  -8  212.19    9.08   0
  -3   4  -7    3.92    5.68   0
  -3   4  -6   52.48    6.44   0
  -3   2  -4 1086.00   15.79   0
  -2   1 -13   17.88    3.93   0
  -3   2 -11  211.46    8.31   0
  -2   4 -11  142.99    6.13   0
  -2   5  -5   85.94    7.44   0
  -1   6  -6  143.12    7.87   0
  -1   6  -5  222.43    9.04   0
   0   6  -9   12.52    3.00   0
  -3   1 -11  347.50   10.45   0
  -3   3  -5  871.25   15.99   0
  -2   5  -8  472.09   12.13   0
  -1   4 -12  146.12    5.10   0
  -1   5  -2  228.75    8.60   0
  -3   0 -10   15.91    5.32   0
  -3   3  -9   66.84    6.27   0
  -2   5  -7   74.35    6.34   0
  -2   5  -6  120.97    7.39   0
  -3   2  -5  752.70   13.78   0
  -3   3  -7  256.94   10.78   0
  -3   3  -6  602.06   13.81   0
  -1   5 -10    6.65    3.14   0
  -2   4 -10   49.64    5.15   0
   0   6  -8   13.72    4.00   0
   0   6  -3  404.33   11.44   0
  -3   0  -9   16.59    5.22   0
  -3   0  -7  141.62    6.87   0
  -3   1 -10  223.50    8.90   0
  -3   2  -6  154.15    7.58   0
  -3   0  -8   -1.04    3.80   0
  -2   2 -12   11.62    3.90   0
  -2   4  -4  479.68   11.93   0
  -1   2 -13  209.71    6.68   0
  -1   5  -3   31.73    5.04   0
   0   4 -12   43.93    3.19   0
  -3   1  -9    4.51    4.34   0
  -3   2  -8  131.94    7.38   0
  -3   2  -7   19.15    4.46   0
  -2   3 -11    3.46    3.72   0
  -2   4  -9  137.69    7.68   0
  -1   5  -9   13.30    3.95   0
   0   6  -7  131.76    6.71   0
  -3   1  -8   75.46    5.96   0
  -3   1  -7   41.77    4.82   0
  -2   1 -12   41.80    5.28   0
  -2   4  -5  130.98    7.40   0
  -1   4 -11   19.86    3.53   0
   0   6  -6  208.18    8.91   0
   1   6  -8  114.50    5.81   0
  -2   4  -8   41.44    5.68   0
  -1   1 -13    2.10    3.68   0
  -1   3 -12   19.32    3.85   0
  -1   5  -4    9.76    5.27   0
   0   5 -10   62.24    4.25   0
  -2   3 -10   -1.96    4.87   0
  -2   4  -7    0.93    4.00   0
  -1   5  -7   -2.39    4.56   0
  -2   3  -4   44.58    4.31   0
  -1   4 -10   22.55    4.82   0
  -1   5  -6   89.04    6.89   0
   0   2 -13   13.52    3.22   0
   1   5 -10   45.29    3.91   0
   1   6  -7   36.03    4.65   0
   1   6  -3   27.54    5.78   0
  -2   3  -9  560.36   14.57   0
   0   5  -9   -3.01    3.90   0
   0   5  -2   29.87    5.20   0
  -2   3  -5  532.69   12.40   0
   0   4 -11  210.81    7.05   0
   1   6  -6   57.55    5.57   0
   1   6  -4   36.58    5.80   0
   2   6  -7   17.79    4.25   0
  -2   3  -8  392.29   12.02   0
  -1   2 -12   81.23    5.78   0
  -1   3 -11    7.37    4.51   0
  -1   4  -3  456.07   11.05   0
   0   3 -12  130.41    5.84   0
   1   6  -5   95.62    6.55   0
  -2   3  -7  454.29   12.48   0
  -2   3  -6  171.43    7.88   0
  -1   4  -9  128.64    7.72   0
   0   1 -13   33.26    4.17   0
   0   5  -8  272.20    9.82   0
   1   4 -11   48.05    4.04   0
   2   6  -6  124.59    6.98   0
  -2   0 -10   37.87    5.23   0
  -2   2  -9  265.35   10.21   0
  -1   0 -12    0.13    4.56   0
  -1   1 -12   13.33    4.15   0
   1   5  -9   31.52    4.56   0
   2   4 -11  134.94    4.95   0
  -2   2  -5 1019.94   15.24   0
  -1   4  -8  163.68    8.71   0
  -1   4  -4  495.82   12.00   0
   0   4 -10   -0.44    3.81   0
   1   3 -12  169.44    5.84   0
   2   6  -5   65.95    6.47   0
   2   6  -4    2.37    4.83   0
  -2   2  -8  730.02   15.31   0
  -2   2  -6   10.05    4.31   0
  -1   3 -10    1.06    4.15   0
  -1   4  -7  285.51   10.80   0
  -1   4  -5  199.34    9.04   0
   0   5  -4  544.53   13.30   0
  -2   0  -9   23.37    5.33   0
  -2   1  -9  141.97    7.66   0
  -2   2  -7  742.27   14.68   0
  -1   4  -6  486.19   13.27   0
   0   5  -5   33.22    5.53   0
   0   3 -11  215.81    8.29   0
   1   5  -8   32.33    5.45   0
  -2   0  -8  502.15   11.77   0
  -1   3  -9   59.74    7.00   0
   0   4  -9   14.23    4.50   0
   1   4 -10    1.71    3.27   0
   1   5  -2  239.13    9.08   0
  -1   0 -11   -0.75    5.11   0
  -1   2 -10  222.52   10.12   0
   0   1 -12   17.88    4.78   0
   3   4 -10  540.04    9.51   0
   3   5  -8   31.34    4.08   0
  -1   3  -8  624.76   14.99   0
   2   4 -10  279.88    8.42   0
   0   0 -12  117.90    6.97   0
   0   4  -8  220.18    9.59   0
   1   3 -11  164.06    7.01   0
   2   2 -12   11.01    2.97   0
  -1   3  -7  202.98    8.87   0
  -1   3  -5  287.09    9.37   0
  -1   1 -10   10.19    5.49   0
  -1   2  -9  319.64   11.07   0
  -1   3  -6    9.99    4.00   0
   0   4  -7  245.40   10.44   0
   0   4  -3  372.27    9.88   0
   1   4  -9    1.80    3.93   0
   1   5  -5  119.94    7.69   0
   1   5  -4 1131.17   18.88   0
   2   3 -11    5.93    3.05   0
   1   1 -12   13.94    4.13   0
  -1   0 -10  156.04    8.38   0
   0   4  -6  384.20   11.85   0
   3   5  -7   83.33    6.20   0
  -1   2  -8  293.78   10.37   0
   0   3  -9  150.79    8.38   0
   2   1 -12   19.13    3.78   0
   2   4  -9   67.99    6.01   0
   1   0 -12  224.53    7.90   0
   1   3 -10  274.96    9.76   0
   4   5  -6  105.04    6.36   0
   0   2 -10   17.46    4.57   0
   1   2 -11  234.49    8.91   0
  -1   2  -6  118.59    6.56   0
   0   0 -11   46.46    6.43   0
   0   3  -8  964.70   18.92   0
   2   0 -12  282.46    8.30   0
   2   5  -5   80.20    6.50   0
   3   2 -11   61.82    4.45   0
   3   5  -6   12.12    5.14   0
  -1   0  -9   54.09    5.62   0
   2   3 -10  177.22    7.59   0
   2   5  -4  113.31    7.39   0
   2   5  -3   95.76    6.82   0
   3   3 -10  130.80    6.04   0
   1   4  -7    3.42    4.47   0
   5   4  -7    0.88    2.95   0
   0   3  -7  198.94    8.84   0
   1   3  -9  126.71    7.67   0
   3   5  -5   15.77    5.60   0
   4   5  -5   49.95    5.81   0
  -1   0  -8  501.14   11.99   0
   0   2  -9  130.43    7.78   0
   3   4  -8  142.85    7.27   0
   0   3  -6   14.60    4.41   0
   1   2 -10   14.53    4.68   0
   1   4  -3 1382.18   18.96   0
   3   5  -3   27.63    6.30   0
   4   2 -10   23.59    3.56   0
   4   5  -4  160.75    8.56   0
   0  -1 -10  470.49   12.57   0
   0   0 -10   68.71    6.24   0
   1  -1 -11 1121.33   17.97   0
   1   0 -11  274.92    9.84   0
   1   4  -4  512.35   12.52   0
   2   3  -9   65.46    5.94   0
   0   2  -8   20.36    4.85   0
   1   3  -8  277.40   10.70   0
   3   3  -9  204.21    8.66   0
   5   3  -8    1.99    2.66   0
   2   2 -10   27.73    4.80   0
   3   2 -10   98.27    6.46   0
   3   4  -7  195.88    8.96   0
   5   2  -9  102.07    4.71   0
   5   4  -6   61.17    5.19   0
   2   0 -11  579.22   13.12   0
   2   4  -6   60.06    7.07   0
   3   0 -11   69.42    5.41   0
   0   2  -7   86.30    6.49   0
   1   2  -9   22.32    4.78   0
   1   3  -7 1470.06   22.82   0
   2  -1 -11    6.17    4.52   0
   2   3  -8   24.18    5.63   0
   0   0  -9   41.18    5.49   0
   4   1 -10  604.08   11.64   0
   4   3  -8   10.46    4.39   0
   4   4  -6  156.35    8.51   0
   0  -1  -9  901.40   16.39   0
   0   2  -6   50.03    5.48   0
   3   3  -8  111.44    7.79   0
   6   3  -6   53.13    4.26   0
   1   3  -6    6.38    4.09   0
   2   1 -10   32.69    5.26   0
   2   4  -4  187.68    8.55   0
   3   1 -10  348.08   10.95   0
   4   2  -9   53.55    4.69   0
   5   4  -5   58.04    5.86   0
   1  -1 -10  137.79    8.34   0
   1   2  -8  100.78    6.97   0
   2   4  -3  253.91    9.49   0
   2   4  -2   86.26    6.44   0
   5   1  -9    1.60    2.82   0
   5   3  -7  115.33    5.92   0
   2   3  -7   88.93    6.81   0
   3   2  -9   81.99    6.32   0
   3   4  -5   11.63    5.19   0
  -6   4  -5   66.92    4.84   0
  -6   2  -4   79.25    6.04   0
  -6   4  -6   83.26    5.10   0
  -5   0  -3   33.64    4.97   0
  -4   4   0    6.71    3.89   0
  -3   7  -4   16.01    3.51   0
  -6   1  -5   89.65    6.52   0
  -6   4  -7   52.56    3.79   0
  -5   1  -2  496.75   11.54   0
  -5   4  -2    6.99    4.04   0
  -4   2   0  320.01    9.15   0
  -3   4   1    7.94    3.58   0
  -4   6  -3   87.77    5.66   0
  -2   6   0  159.95    7.65   0
  -6   2  -5   37.16    5.41   0
  -5   3  -2   96.62    7.02   0
  -3   3   1   31.06    3.87   0
  -2   5   1   -1.21    3.67   0
  -6   1  -6  322.50    9.74   0
  -2   7  -3   20.51    4.35   0
  -6   2 -10   13.99    3.17   0
  -6   3  -9   68.92    4.02   0
  -5   4  -3   48.15    5.21   0
  -5   5  -5   14.19    3.89   0
  -4   6  -4   94.01    5.52   0
  -6   2  -6    8.40    4.40   0
  -6   3  -8  514.47   10.26   0
  -4   4  -1   98.52    6.55   0
  -4   5  -2   29.65    4.91   0
  -6   1  -7  115.22    6.61   0
  -5   0  -4   75.54    5.80   0
  -5   1  -3   19.17    4.15   0
  -5   5  -6  130.18    5.80   0
  -4   6  -5  262.96    8.00   0
  -6   2  -9  125.97    5.77   0
  -6   2  -7  120.83    6.21   0
  -5   3  -3    9.06    4.87   0
  -4   6  -7   19.24    2.89   0
  -4   6  -6   48.35    3.90   0
  -2   4   1  131.17    5.87   0
  -2   6  -1  378.01   10.74   0
  -2   7  -6   16.05    3.33   0
  -2   7  -5  104.29    5.43   0
  -6   2  -8   -0.85    3.12   0
  -5   4  -4  258.23    9.34   0
  -4   2  -1  103.85    5.57   0
  -4   3  -1    0.14    3.41   0
  -3   4   0   19.11    3.95   0
  -4   5  -3   72.12    6.61   0
  -3   5  -1   25.86    4.72   0
  -2   5   0  716.58   13.76   0
  -5   4 -10   14.37    2.67   0
  -3   3   0  162.50    6.49   0
  -5   3  -4   26.99    5.63   0
  -5   4  -5   -0.05    3.75   0
  -5   0  -5  179.87    7.63   0
  -5   4  -9   22.53    3.54   0
  -5   4  -6  390.79   10.90   0
  -4   1  -2   37.15    3.91   0
  -4   5  -4  269.29    9.75   0
  -2   6  -2  107.43    6.53   0
  -5   3 -11   78.12    4.10   0
  -5   4  -7   53.11    4.91   0
  -4   3  -2  375.04   10.47   0
  -4   2  -2  255.98    8.28   0
  -4   4  -3  378.29   11.64   0
  -1   5   0  514.28   10.99   0
  -5   0  -6   61.56    5.83   0
  -5   1  -5  178.86    8.11   0
  -2   5  -1  858.79   15.31   0
  -3   6  -7  102.20    5.34   0
  -2   6  -3   72.60    6.37   0
  -5   3  -6  568.74   13.49   0
  -4   5  -8   11.99    3.42   0
  -4   5  -7   92.31    5.89   0
  -3   3  -1   21.23    3.65   0
  -1   6  -2    5.69    4.81   0
  -5   2 -11  110.99    5.47   0
  -4   3  -3  254.81    9.45   0
  -4   4  -4   60.12    6.04   0
  -3   5  -3   26.83    4.69   0
  -5   0  -7  131.92    7.21   0
  -5   1  -6  275.64    9.71   0
  -5   3  -8   -3.38    4.63   0
  -4   1  -3  574.53   11.48   0
  -2   6  -9   91.55    4.54   0
  -5   1 -11   27.01    4.30   0
  -4   2  -3  181.02    7.28   0
  -3   4  -2  100.88    6.30   0
  -2   6  -4   45.59    5.27   0
  -5   0  -8  438.69   11.20   0
  -5   2 -10    4.56    3.88   0
  -4   4  -5  529.47   13.71   0
  -5   1  -7   43.18    5.84   0
  -3   5  -4   42.91    5.53   0
  -2   6  -8  210.80    7.22   0
  -2   6  -5   66.74    5.76   0
  -1   5  -1  259.35    8.70   0
  -1   6  -3   86.31    6.73   0
  -5   1 -10   -2.37    4.00   0
  -5   2  -9  118.06    6.67   0
  -5   2  -8  135.02    7.28   0
  -4   3  -4  430.66   11.66   0
  -4   4 -10   18.88    3.28   0
  -3   5 -10   11.79    2.63   0
  -2   6  -7   98.19    6.09   0
  -5   1  -9   -0.03    4.54   0
  -4   4  -6  177.44    8.41   0
  -3   3  -2    3.80    3.15   0
  -3   5  -5  250.95   10.04   0
  -1   6  -9    4.70    2.94   0
  -4   4  -9   17.03    3.74   0
  -4   4  -7    1.06    3.82   0
  -3   4  -3   26.79    4.77   0
  -4   1  -4  388.39    9.77   0
  -4   2  -4  491.05   11.62   0
  -4   4  -8   92.50    6.15   0
  -3   5  -9  232.45    7.63   0
  -3   5  -6  192.52    8.88   0
  -1   6  -4   90.63    7.01   0
  -4   3  -5  155.66    7.80   0
  -3   5  -8   43.81    4.85   0
  -3   5  -7  165.72    7.87   0
  -1   6  -8  121.04    6.04   0
  -4   3 -11  132.55    5.82   0
  -1   6  -5  220.97    9.04   0
  -4   2 -12  266.44    7.70   0
  -4   3  -6    7.69    5.23   0
  -3   4  -4   -7.35    4.69   0
  -1   5  -2  228.30    8.62   0
  -1   6  -7   39.94    5.17   0
  -1   6  -6  125.45    7.31   0
  -4   2  -5   64.52    5.49   0
  -4   3 -10   84.07    6.14   0
  -3   3  -3  482.34   11.49   0
  -3   4 -11   13.11    3.33   0
  -2   4  -2  271.20    8.67   0
   0   6  -8    7.68    3.80   0
  -4   1  -5  345.44   10.10   0
  -4   3  -7  141.55    8.38   0
  -2   5 -10    6.75    2.79   0
  -4   3  -8   51.25    5.71   0
   0   6  -5  131.74    7.63   0
  -4   1 -12  162.63    6.91   0
  -4   2 -11   72.18    5.92   0
  -4   2  -6  844.87   16.28   0
  -3   4  -5   38.37    5.38   0
  -2   4 -12    9.12    2.70   0
  -2   5  -5   84.94    7.31   0
   0   6  -7  124.37    6.89   0
   0   6  -6  164.79    8.13   0
  -4   0  -6  166.27    7.38   0
  -3   4 -10  234.40    8.19   0
  -2   5  -9   89.60    5.69   0
  -4   1  -6    8.33    4.57   0
  -3   3 -12   38.73    3.65   0
  -3   4  -9    5.94    4.47   0
  -3   4  -6   56.67    5.94   0
  -2   4  -3  225.54    8.60   0
  -2   5  -8  462.71   12.38   0
  -2   5  -6  125.12    7.67   0
  -1   5  -3   39.97    5.21   0
  -4   2  -7   10.16    4.14   0
  -3   4  -8  198.08    9.30   0
  -3   4  -7    9.37    4.45   0
  -2   5  -7   78.66    6.43   0
   0   5  -2   26.92    4.76   0
  -4   1 -11  381.74   10.82   0
  -2   3 -13    2.41    2.13   0
  -4   0 -11   48.45    5.54   0
  -4   0  -7  437.26   10.98   0
  -4   1  -7  388.50   11.31   0
  -4   1 -10  212.99    9.17   0
  -3   3 -11   10.01    3.88   0
  -3   3  -5  835.33   16.04   0
  -2   4 -11  144.71    6.31   0
  -1   4 -12  144.53    5.36   0
  -1   5  -4    6.84    4.33   0
  -4   0  -8   21.00    5.38   0
  -4   1  -9   71.07    6.83   0
  -4   1  -8   69.33    6.07   0
  -3   2  -4 1076.29   15.90   0
  -1   4  -2   11.56    4.77   0
   0   5 -10   56.34    4.44   0
  -4   0  -9   91.35    6.51   0
  -3   1 -13  148.15    6.45   0
  -1   5  -5   -1.50    5.13   0
  -3   3  -6  582.81   13.97   0
  -2   4 -10   44.45    5.41   0
   0   5  -3  200.55    8.20   0
  -3   0 -13   10.00    4.04   0
  -3   3  -9   78.47    7.20   0
  -3   3  -7  247.33   10.74   0
  -2   1 -14   29.19    3.48   0
  -2   3  -3    3.04    3.17   0
  -1   3 -13   40.73    3.42   0
  -3   3  -8   74.61    6.52   0
  -2   3 -12   42.07    4.06   0
  -2   4  -9  135.41    7.69   0
  -2   4  -6  120.06    7.34   0
  -1   4 -11   21.15    4.00   0
   0   5  -9   -2.18    3.32   0
  -3   2 -11  222.61    8.91   0
  -2   0 -14   27.52    4.12   0
  -2   4  -8   51.51    6.06   0
  -2   4  -7    4.97    4.11   0
  -1   4  -3  456.67   10.79   0
   1   5  -9   34.70    4.75   0
   0   5  -8  269.05   10.14   0
  -3   2 -10   19.16    5.64   0
  -2   3 -11   -1.20    4.15   0
   0   5  -5   27.13    5.92   0
  -3   0 -12  443.03   11.55   0
  -3   2  -7   24.31    5.31   0
  -1   4 -10   21.21    4.98   0
   0   4 -11  222.31    7.59   0
   0   5  -7  342.80   11.24   0
   0   5  -6  428.19   12.79   0
  -3   1 -11  333.99   11.19   0
  -3   2  -9   75.43    6.44   0
  -1   3 -12   22.74    3.84   0
   1   5  -8   32.55    5.57   0
  -2   3 -10    4.19    4.74   0
  -2   2 -12   15.83    4.02   0
  -2   3  -5  511.95   12.14   0
  -1   4  -9  119.13    7.71   0
   1   5  -7   81.89    7.15   0
  -3  -1 -11  218.96    9.18   0
  -3   1 -10  221.23    9.54   0
  -2   3  -9  541.28   14.68   0
  -1   2 -13  198.82    6.86   0
  -1   4  -5  182.03    8.79   0
   1   5  -6  828.93   16.94   0
   1   5  -5  116.52    8.06   0
  -2   3  -6  166.98    7.98   0
  -1   4  -8  151.73    8.47   0
  -1   4  -6  498.34   13.73   0
   0   4 -10   -1.71    4.03   0
  -2   0 -13    4.65    4.16   0
  -2   3  -8  400.37   12.48   0
  -2   3  -7  471.64   13.03   0
  -1   0 -14   68.44    4.68   0
   0   3 -12  126.35    5.74   0
   0   4  -3  357.62    9.98   0
  -3  -1 -10   -1.01    5.06   0
  -3   0 -10   11.76    5.52   0
  -2  -1 -13   48.81    5.28   0
  -2   2 -11   42.25    5.50   0
  -1   3 -11    9.25    3.79   0
   2   4 -10  248.92    7.71   0
  -3   0  -7  144.26    6.85   0
  -1  -1 -14   22.05    3.84   0
   0   2 -13   12.34    3.26   0
   1   4 -10    1.32    3.46   0
  -3  -1  -9   -5.78    5.00   0
  -3  -1  -8    2.79    4.91   0
  -3   0  -9   20.27    4.86   0
  -3   0  -8    0.27    3.84   0
   0   4  -9   11.52    4.59   0
   1   2 -13   38.36    3.53   0
  -2   2 -10  385.05   12.23   0
  -2   2  -5 1003.74   15.47   0
  -1   2 -12   81.97    5.77   0
  -1   3 -10   -1.14    4.68   0
   0   4  -4  679.90   13.98   0
   0   0 -14   25.92    3.46   0
   0   4  -8  214.73   10.25   0
  -2   2  -9  269.24   10.55   0
  -2   2  -6    7.35    4.33   0
   1   4  -9    4.61    5.14   0
  -2   0 -12   33.85    5.07   0
  -2   2  -7  770.34   15.61   0
   0   4  -5  452.27   12.02   0
   2   4  -9   68.00    5.92   0
  -2  -1 -12   18.78    5.00   0
  -1   3  -5  280.53    9.15   0
   0  -1 -14   76.97    4.45   0
  -1   0 -13   -3.32    3.99   0
  -1   2 -11  206.82    8.99   0
  -1   3  -8  614.29   15.09   0
   0   2 -12  306.72    9.58   0
   1   3 -11  159.48    7.00   0
  -2   1 -10  194.30    9.07   0
  -1   3  -7  196.09    8.71   0
  -1   3  -6   10.98    3.98   0
   0   1 -13   34.78    3.84   0
   0   3 -10  305.30   11.10   0
   1   4  -8  120.73    7.86   0
  -2   0 -11  232.53   10.00   0
  -1  -2 -13   71.93    5.49   0
  -1   1 -12    8.47    4.06   0
   2   2 -12   11.28    3.11   0
   2   4  -8  343.76   11.21   0
   1   2 -12   40.87    4.12   0
  -3   2  -4 1060.04   15.35   0
  -2   5  -9   99.54    5.83   0
  -1   4 -12  141.87    5.25   0
  -3   0  -9   18.45    4.61   0
  -3   0  -7  144.41    7.04   0
  -2   5  -4   37.55    5.90   0
  -3   0  -8   -0.06    3.82   0
  -3   2 -10   16.74    5.01   0
  -3   3  -9   76.84    6.59   0
  -2   5  -8  477.06   12.20   0
  -1   1 -13    1.04    3.66   0
  -1   2 -13  202.18    6.42   0
  -3   2  -5  744.14   13.62   0
  -3   3  -8   75.57    6.69   0
  -2  -1 -10   16.02    5.37   0
  -2   5  -5   85.70    7.11   0
  -1   6  -7   45.10    5.42   0
  -1   6  -4   92.95    6.78   0
   0   6  -9   13.88    3.06   0
  -3   1  -9    2.78    4.23   0
  -3   1  -6  171.96    7.05   0
  -3   2  -9   65.61    6.17   0
  -2   4 -10   48.11    5.05   0
  -2   5  -6  124.69    8.02   0
  -1   5 -10   10.83    3.67   0
  -1   6  -6  137.23    7.44   0
  -1   6  -5  202.79    8.49   0
  -3   1  -8   72.84    6.02   0
  -3   2  -8  133.35    8.38   0
  -3   2  -6  142.58    7.08   0
  -2   3 -11   -0.56    3.78   0
  -2   4  -3  238.78    8.47   0
   0   4 -12   47.16    3.24   0
  -3   2  -7   22.85    4.85   0
   0   1 -13   32.96    4.03   0
   0   2 -13   10.68    3.03   0
  -2   4  -9  142.30    8.24   0
  -1   3 -12   19.64    3.66   0
  -1   4 -11   22.91    4.12   0
  -2  -1  -8   62.29    5.66   0
  -2   1 -11   -0.50    5.37   0
  -2   2 -11   47.27    5.65   0
  -1   0 -12   -1.62    4.43   0
  -2   3 -10   -1.40    4.98   0
  -1   5  -9   13.24    3.90   0
  -2   0 -10   32.56    5.90   0
  -2   4  -8   51.64    5.80   0
  -2   4  -7   10.02    5.47   0
  -1   1 -12   10.03    3.91   0
   0   5 -10   58.44    4.07   0
  -2   2 -10  372.47   12.05   0
  -2   4  -6  130.29    7.30   0
  -1   5  -3   37.12    5.47   0
   0   6  -7  129.59    6.85   0
  -2   0  -9   18.67    5.40   0
  -2   3  -9  543.18   13.83   0
  -1   3 -11   13.79    4.92   0
  -1   4 -10   22.53    4.38   0
   0   4 -11  214.86    7.14   0
   0   0 -12  107.88    6.48   0
   0   6  -6  218.05    8.72   0
  -2   2  -9  277.21   10.51   0
  -2   3  -8  401.25   11.85   0
  -1   0 -11   -2.86    5.00   0
  -1   5  -4   10.45    4.50   0
   0   6  -4  347.22   10.53   0
   1   3 -12  167.93    5.84   0
   1   5 -10   49.17    3.60   0
  -2   0  -8  492.22   11.28   0
  -2   3  -7  465.78   12.62   0
  -2   3  -5  505.28   11.41   0
  -1   5  -5   -4.91    4.19   0
  -2   0  -7  100.86    5.60   0
  -2   3  -6  163.97    7.62   0
  -1   1 -11  128.82    7.88   0
  -1   2 -11  206.78    8.76   0
   0   1 -12   18.71    4.67   0
   1   4 -11   46.31    4.06   0
   2   6  -8   20.58    3.33   0
  -2   1  -8  339.97   10.39   0
  -2   2  -8  713.44   14.88   0
   2   4 -11  140.46    4.87   0
  -2   2  -5  986.19   14.60   0
   1   6  -7   37.93    4.33   0
   2   2 -12   11.06    3.15   0
  -2   1  -7   -8.35    3.31   0
  -2   2  -6    6.31    3.40   0
  -1  -1  -9 1014.32   15.80   0
  -1   4  -8  154.91    8.45   0
   0   3 -11  215.89    8.16   0
   0   4 -10   -1.24    3.21   0
   0   5  -8  265.19    9.69   0
   1   2 -12   44.01    3.92   0
  -1   0 -10  138.30    7.74   0
   1   1 -12   14.55    4.27   0
  -1   2 -10  208.58    9.24   0
  -1   3  -9   52.59    6.45   0
  -1   4  -7  278.36   10.66   0
   1   5  -9   35.06    4.01   0
   1   6  -6   62.76    5.89   0
  -1   1 -10    8.50    4.79   0
   0   0 -11   41.50    5.49   0
   2   6  -7   16.65    4.04   0
  -1   4  -6  479.59   12.63   0
  -1   4  -4  506.43   11.46   0
   0   2 -11  191.86    8.42   0
   0   5  -7  347.22   11.04   0
   0   5  -2   23.16    5.08   0
   1   3 -11  159.09    7.04   0
   1   6  -5   94.64    6.72   0
   3   5  -9  101.05    4.38   0
   3   6  -7  116.96    5.12   0
   0   1 -11  364.19   10.77   0
   0   4  -9   14.69    4.35   0
   1   4 -10   -1.37    2.78   0
   1   6  -4   32.73    5.46   0
   1   6  -3   34.44    5.70   0
  -1   0  -9   58.31    5.24   0
  -1   3  -8  604.31   14.20   0
   0   3 -10  306.23   10.22   0
   2   3 -11    7.47    2.84   0
   3   4 -10  615.81    9.84   0
   0   5  -5   34.33    5.91   0
   1   5  -8   36.97    4.76   0
  -1   3  -7  205.87    9.02   0
   2   6  -6  134.51    6.62   0
   0   4  -8  205.53    9.11   0
   1   0 -11  280.70    9.39   0
   3   2 -11   56.82    4.11   0
  -1   0  -8  475.13   11.00   0
  -1   2  -8  316.55   10.29   0
   0   0 -10   65.12    6.26   0
   0   2 -10   18.59    4.85   0
   1   1 -11   36.81    5.36   0
   3   6  -6  161.80    6.76   0
  -1   3  -5  262.94    8.27   0
   0   1 -10   19.03    5.63   0
   0   3  -9  149.12    7.83   0
   1   4  -9    0.49    3.43   0
   1   5  -7   99.08    6.77   0
   2   0 -11  554.15   11.50   0
   2   5  -8   94.60    5.65   0
   2   6  -5   60.52    5.95   0
   3   1 -11   11.08    3.54   0
  -1   2  -7  802.82   14.95   0
   4   4  -9   23.17    2.91   0
   2   1 -11    6.63    3.55   0
   2   6  -4    3.28    4.70   0
  -1   1  -7   19.30    3.56   0
  -1   2  -6  114.54    6.13   0
   2   3 -10  180.39    7.74   0
   2   6  -3   40.81    5.90   0
   4   6  -5  293.21    7.99   0
   0   2  -9  122.57    7.55   0
   0   3  -8  968.55   18.26   0
   0   4  -6  387.34   11.34   0
   3   3 -10  138.02    5.88   0
   3   4  -9  120.20    5.90   0
   3   6  -5   35.46    4.64   0
   1   2 -10   20.29    4.87   0
   4   2 -10   22.66    3.40   0
   0   0  -9   40.78    5.07   0
   1   0 -10  237.24    9.44   0
   1   3  -9  135.05    8.01   0
   1   5  -5  122.86    7.94   0
   1   1 -10  582.08   13.90   0
   3   6  -4  420.36   11.26   0
   4   1 -10  624.01   10.57   0
   4   5  -7   97.40    4.95   0
   0   3  -7  210.96    8.90   0
   1   5  -4 1149.78   18.47   0
   1   5  -2  245.52    8.96   0
   2   2 -10   29.55    5.20   0
   3   5  -7   79.03    5.37   0
   4   6  -4   46.82    5.15   0
   1   4  -7    0.44    4.92   0
   1   5  -3  408.37   11.06   0
   2   4  -8  362.35   11.24   0
   2   0 -10  466.67   12.02   0
   4   3  -9   71.81    4.53   0
   4   4  -8    7.03    3.22   0
   0   0  -8   57.73    5.66   0
   1  -1  -9    8.29    4.63   0
   1   2  -9   24.89    5.21   0
   2   1 -10   23.56    4.93   0
   2   3  -9   59.23    5.65   0
   3   0 -10  141.45    7.05   0
   3   1 -10  367.05   10.17   0
   1   3  -8  270.03    9.99   0
   3   3  -9  207.74    8.03   0
   3   4  -8  146.56    7.02   0
   4   6  -3  280.69    9.36   0
   1   4  -6  684.91   15.09   0
   2   5  -5   74.93    7.12   0
   0   3  -5  536.69   11.66   0
   1   0  -9   43.22    6.03   0
   5   3  -8   -1.14    2.31   0
   5   4  -7    1.48    2.48   0
   2   4  -7  292.47   10.31   0
   4   6  -2    1.51    5.14   0
   0   1  -7  222.69    8.33   0
   2   2  -9   16.47    4.62   0
   2   5  -4  116.31    7.75   0
   0   2  -6   55.52    5.28   0
   1   2  -8   93.26    6.60   0
   1   3  -7 1329.88   20.81   0
   3   2  -9   93.42    6.85   0
   4   4  -7    3.56    3.38   0
   1  -1  -8    3.19    4.59   0
   2   0  -9  779.84   15.86   0
   3   3  -8   91.03    6.45   0
   4   0  -9   36.80    5.10   0
   4   3  -8   13.31    3.69   0
   2   4  -6   60.23    5.97   0
   2   5  -2   31.61    5.53   0
   5   2  -8   50.87    4.51   0
   1   0  -8  249.08    9.34   0
   1   3  -6    4.76    3.88   0
   1   4  -3 1445.30   18.85   0
   3   0  -9   51.11    5.90   0
   6   2  -7   82.15    4.47   0
   1   2  -7  245.81    9.55   0
   2   2  -8  148.10    8.44   0
   3   5  -4   51.52    6.20   0
   5   4  -6   63.76    4.80   0
   5   5  -4  159.80    7.25   0
   6   4  -5   52.88    4.13   0
   6   5  -3   41.10    4.25   0
   2   3  -7   87.77    6.53   0
   3   4  -6   27.26    5.75   0
   5   1  -8   -0.35    3.65   0
   5   3  -7  116.96    6.10   0
   2   4  -5  120.62    7.07   0
   4   2  -8    3.73    4.60   0
   4   4  -6  160.78    8.34   0
   4   5  -4  169.37    8.17   0
   5   0  -8   50.28    5.04   0
   6   3  -6   48.22    3.78   0
   1   3  -5  310.24    9.79   0
   3   2  -8  126.47    7.60   0
   3   5  -3   24.77    5.67   0
   6   1  -7   17.78    3.05   0
   2  -1  -8    6.60    5.18   0
   3   3  -7   31.70    4.77   0
   4   3  -7  116.47    7.05   0
   4  -1  -8  118.76    7.24   0
   5   5  -3   63.81    5.94   0
   6   5  -2   40.18    4.65   0
   1   0  -7  442.90   11.24   0
   1   2  -6   12.43    3.49   0
   2   0  -8   15.89    4.69   0
   4   5  -3  204.51    9.53   0
   5   4  -5   65.64    6.00   0
   1   3  -4  550.55   11.65   0
   2   2  -7    8.34    4.03   0
   3  -1  -8   43.46    6.13   0
   3   4  -5   10.05    4.58   0
   4   0  -8   80.55    6.65   0
   5   2  -7   36.00    4.56   0
   6   4  -4  141.35    6.60   0
   3   0  -8    5.93    5.12   0
   3   5  -1  853.38   16.13   0
   4   4  -5   35.59    5.29   0
   5   3  -6  200.30    8.58   0
   7   3  -4   48.52    3.73   0
   2   4  -3  245.84    8.85   0
   3   2  -7  254.93   10.07   0
   3   3  -6    3.05    3.83   0
   4   5  -2  125.76    8.21   0
   5   5  -2   30.04    4.89   0
   6   3  -5   58.29    4.75   0
   6   5  -1   29.15    4.90   0
   1   1  -6  670.79   12.88   0
   1   2  -5    0.05    2.98   0
   2   3  -5   21.19    4.93   0
   3   4  -4   28.23    5.57   0
   4   3  -6   22.41    4.87   0
   5  -1  -7   67.51    5.82   0
   7   4  -2   32.81    3.75   0
   5   4  -4    2.19    4.70   0
   6  -1  -6  183.91    6.91   0
   2  -1  -7  236.45    9.19   0
   2   2  -6  671.34   14.47   0
   2   4  -2   85.07    5.89   0
   4   4  -4   75.51    7.24   0
   4   5  -1   52.68    6.75   0
   5   0  -7  117.75    6.68   0
   6   5   0   11.07    4.78   0
   2   0  -7  705.13   14.60   0
   4   1  -7  118.60    8.35   0
   5   5  -1   -0.35    4.16   0
   6   4  -3  160.85    7.33   0
   3   1  -7  203.55    9.07   0
   5   2  -6  350.75   11.35   0
   6   0  -6   37.46    4.23   0
  -1   0  -9   54.01    6.05   0
  -1   1  -7   26.24    4.75   0
   0   1 -10   16.25    5.90   0
   1  -1 -12    8.46    3.89   0
   1   1 -11   35.90    5.21   0
   2  -2 -12   49.05    4.85   0
  -1  -2  -9   26.71    4.74   0
   0  -2 -11   -0.17    3.96   0
   1  -4 -10  300.74   10.33   0
   2  -1 -12    6.81    3.84   0
   3  -4 -10   66.49    5.36   0
  -1  -1  -9 1024.79   18.71   0
   0   2  -8   21.91    4.48   0
   1  -3 -11   14.15    5.22   0
  -1   0  -8  493.10   12.45   0
   0  -4  -8  678.15   15.12   0
   2   1 -11    3.38    3.70   0
   3  -3 -11   22.17    3.42   0
   3   2 -10  102.92    6.31   0
   1   3  -7 1453.00   20.57   0
   2  -4 -10    3.51    4.46   0
   2  -3 -11  632.06   13.20   0
   4  -1 -11    2.28    2.65   0
  -1  -1  -8 1102.74   18.01   0
  -1   0  -7 2502.01   24.85   0
   0   0 -10   71.58    6.78   0
   0   1  -9   29.97    4.97   0
   1   0 -11  272.39   10.71   0
   1   2  -9   21.81    5.72   0
   2   3  -8   26.82    5.59   0
  -1  -2  -7   33.48    4.51   0
   0  -2 -10   80.53    6.80   0
   1  -2 -11   61.47    6.21   0
  -1  -1  -7  640.91   12.81   0
   0  -3  -9  276.36   10.44   0
   0  -1 -10  455.31   13.59   0
   1  -4  -9  332.90   11.24   0
   1   1 -10  574.59   14.54   0
   2   0 -11  557.99   13.87   0
   4  -3 -10   82.96    4.88   0
   1   3  -6    7.45    5.07   0
   2  -2 -11   24.66    5.28   0
   3  -2 -11   51.19    4.52   0
   3   3  -8  101.53    6.98   0
   0   1  -8  459.63   12.46   0
   1  -3 -10  101.64    7.11   0
   2  -1 -11    7.07    4.55   0
   3  -1 -11   39.47    4.40   0
   0   0  -9   40.22    5.19   0
   2   1 -10   28.17    5.77   0
   2   2  -9   18.62    5.43   0
   4   2  -9   52.08    4.70   0
   0  -3  -8  211.55    9.48   0
   0  -2  -9   15.21    4.70   0
   0  -1  -9  916.43   18.21   0
   1   0 -10  214.21   10.03   0
   3  -4  -9   37.69    5.04   0
   5   1  -9    0.00    3.03   0
   1  -4  -8  250.09   10.31   0
   1  -2 -10   77.78    6.88   0
   2  -3 -10   14.54    4.85   0
   2   3  -7   87.54    7.13   0
   3  -3 -10  382.08   10.24   0
   1  -1 -10  124.31    7.81   0
   1   1  -9 1122.37   19.83   0
   4  -2 -10  128.65    5.92   0
   4   0 -10   38.71    4.57   0
   0   0  -8   58.04    5.47   0
   1  -3  -9   77.08    7.26   0
   0  -3  -7  606.51   13.13   0
   0  -2  -8  391.89   11.57   0
   2   0 -10  465.12   13.45   0
   4  -4  -8   44.90    4.92   0
   5  -2  -9  140.84    5.62   0
   0  -1  -8  900.37   16.65   0
   1  -4  -7  462.06   12.79   0
   1   2  -7  245.77    9.48   0
   2  -1 -10  267.58   10.88   0
   3   0 -10  144.40    7.74   0
   3   3  -7   27.82    5.58   0
   4   3  -7  114.96    7.14   0
   1   0  -9   35.91    5.68   0
   2  -4  -8   32.47    5.91   0
   2   1  -9   23.19    5.68   0
   2   2  -8  157.73    8.08   0
   3  -1 -10   93.46    6.96   0
   4  -3  -9  201.21    7.39   0
   5   0  -9   89.51    4.95   0
   1  -2  -9   88.67    6.73   0
   1   1  -8  442.47   12.89   0
   2   3  -6  107.07    7.22   0
   4   1  -9  509.31   12.35   0
   5  -1  -9   63.95    4.47   0
   0   0  -7 1054.49   16.49   0
   1  -1  -9    4.07    4.14   0
   2  -3  -9   22.12    5.03   0
   3  -4  -8    0.31    3.82   0
   3   1  -9  424.06   12.84   0
   4   2  -8    1.33    4.40   0
   5  -3  -8   90.27    5.05   0
   1  -3  -8   83.58    6.59   0
   3  -3  -9  175.57    8.14   0
   3   2  -8  127.16    7.54   0
   5   3  -6  182.16    8.20   0
   0  -1  -7  498.46   11.51   0
   1   2  -6   10.21    4.48   0
   2   0  -9  768.60   17.25   0
   4  -2  -9  260.93    9.16   0
   1   0  -8  252.69    9.78   0
   2  -4  -7    4.40    5.43   0
   2  -1  -9  242.12   10.32   0
   2   2  -7   10.97    5.10   0
   3   0  -9   41.19    6.36   0
   3   3  -6    4.91    5.26   0
   4  -1  -9  302.65   10.53   0
   1  -2  -8   95.01    6.71   0
   1   1  -7  264.38    9.29   0
   2   1  -8   77.58    6.35   0
   2   3  -5   19.93    5.38   0
   3  -2  -9  114.15    7.50   0
   4   3  -6   28.01    5.53   0
   6  -2  -7    7.50    2.94   0
   1  -3  -7  487.44   12.64   0
   1  -1  -8    1.46    4.00   0
   2  -3  -8    5.91    4.62   0
   3  -4  -7   61.40    6.18   0
   3  -1  -9  225.07    9.85   0
   4  -3  -8   25.53    5.03   0
   5  -4  -6    1.95    3.94   0
   5  -2  -8  357.59    9.56   0
   6   2  -6  111.60    5.48   0
   4   1  -8  595.62   14.39   0
   5   0  -8   44.94    4.77   0
   6  -3  -6    0.38    3.05   0
   3  -3  -8    3.79    4.20   0
   3   1  -8  326.14   11.31   0
   3   2  -7  249.09    9.74   0
   4   2  -7  142.14    8.16   0
   5  -1  -8   69.79    5.29   0
   6  -1  -7   20.95    3.66   0
   6   0  -7    2.41    2.90   0
   2   0  -8   17.85    5.37   0
   5  -3  -7   21.54    3.97   0
   1   0  -7  469.56   11.80   0
   2  -4  -6  513.09   13.05   0
   2  -2  -8   20.14    4.86   0
   1  -3  -6   51.85    5.72   0
   2  -1  -8    4.86    4.10   0
   2   2  -6  698.91   14.05   0
   3   3  -5    2.52    4.95   0
   4  -2  -8   64.21    6.06   0
   4   0  -8   94.16    7.04   0
   5   3  -5  410.41   11.38   0
   1  -1  -7  205.33    8.19   0
   2  -3  -7  500.73   13.33   0
   2   1  -7  221.34    9.00   0
   3  -2  -8    2.52    4.60   0
   3   0  -8    6.38    4.63   0
   4  -4  -6   14.16    4.93   0
   5   1  -7    6.53    3.89   0
   6   3  -4   21.62    4.70   0
   7   2  -4  145.49    5.80   0
   3  -4  -6  401.77   11.70   0
   4   3  -5   98.04    7.33   0
   5   2  -6  372.11   11.33   0
   4  -3  -7   46.36    5.42   0
   5  -4  -5   35.44    5.00   0
   5  -2  -7   55.42    5.80   0
   6  -2  -6   58.38    4.83   0
   7  -1  -5   71.76    4.43   0
   7   0  -5  121.31    5.35   0
   3  -3  -7   88.42    6.78   0
   3   1  -7  198.45    9.02   0
   3   2  -6  491.13   12.97   0
   4   1  -7  108.86    7.54   0
   5   0  -7  123.18    7.71   0
   6   2  -5  122.49    6.84   0
   2  -2  -7   39.58    6.11   0
   4   2  -6   24.75    5.85   0
   5  -1  -7   72.81    5.96   0
   6  -3  -5   15.04    3.82   0
   6  -1  -6  195.78    7.94   0
   6   0  -6   33.83    4.49   0
   1  -1  -6  392.85   10.04   0
   2  -1  -7  229.98    9.43   0
   2   2  -5  288.10    8.80   0
   4  -2  -7  203.27    9.35   0
   2  -3  -6  108.18    6.77   0
   2   1  -6  384.35   10.74   0
   3  -2  -7   79.59    6.65   0
   3   0  -7  168.87    8.51   0
   4  -4  -5    9.95    4.96   0
   4   0  -7  107.43    7.73   0
   5   3  -4  214.32    9.02   0
   7  -2  -4  217.89    6.76   0
   3  -4  -5  426.39   11.96   0
   3  -1  -7   19.89    4.65   0
   4  -1  -7    1.39    4.25   0
   5   1  -6  119.02    7.47   0
   4  -3  -6   99.14    6.98   0
   4   3  -4  222.44    9.35   0
   5  -4  -4   35.31    5.39   0
   5   2  -5   18.28    5.40   0
   6   3  -3  106.95    6.84   0
   3   1  -6  335.20   11.18   0
   5  -2  -6  163.46    8.30   0
   6  -2  -5  270.65    9.27   0
   7   2  -3   55.03    4.64   0
   2   0  -6  196.89    7.93   0
   3   2  -5   14.83    4.35   0
   4   1  -6   44.83    5.92   0
   5   0  -6    9.59    4.55   0
   7  -1  -4  136.57    6.03   0
   7   0  -4   89.43    5.28   0
   4   2  -5    7.41    4.56   0
   5  -3  -5  379.57   11.66   0
   5  -1  -6   10.07    4.35   0
   6  -3  -4    6.03    3.43   0
   2  -3  -5  222.19    8.58   0
   2  -1  -6 1550.20   20.90   0
   4  -2  -6  150.07    8.78   0
   6  -4  -2  112.65    6.32   0
   6  -1  -5   69.94    5.68   0
   6   0  -5  130.87    7.29   0
   7  -3  -2   69.05    4.61   0
   3  -4  -4  465.68   12.25   0
   3  -2  -6  213.85    9.35   0
   3   0  -6  122.69    7.78   0
   7  -2  -3   30.06    3.98   0
   4  -1  -6   96.99    7.41   0
   7   3  -1   54.10    5.29   0
   3  -1  -6  193.04    8.82   0
   5  -4  -3   -1.22    4.82   0
   5   1  -5   78.02    6.87   0
   5   3  -3  297.02   10.10   0
   7   1  -3   45.91    4.93   0
   3  -3  -5   -3.43    4.09   0
   5  -2  -5   30.58    5.93   0
   5   2  -4  103.50    7.79   0
   3   1  -5   22.42    4.42   0
   6  -2  -4    1.07    3.71   0
   6   1  -4  185.41    8.60   0
   6   3  -2   66.19    6.42   0
   8  -1  -1   59.16    3.92   0
   2   0  -5  253.97    8.28   0
   3   2  -4  395.44   10.39   0
   5  -3  -4   16.74    5.51   0
   5  -1  -5   19.33    5.52   0
   5   0  -5   28.81    5.15   0
   6  -3  -3  123.44    6.84   0
   2  -1  -5    2.53    3.08   0
   4   2  -4   95.66    6.68   0
   6  -4  -1  134.97    6.96   0
   6  -1  -4  112.43    7.51   0
   6   0  -4   45.57    6.14   0
   6   2  -3   20.66    4.89   0
   7  -3  -1    0.07    3.52   0
   3  -2  -5  420.93   12.15   0
   4  -4  -3   20.13    5.50   0
   4  -2  -5   49.91    5.93   0
   7  -2  -2  378.78   10.04   0
   3   0  -5  349.73   10.47   0
   4   0  -5   55.23    5.86   0
   4  -3  -4   24.66    5.76   0
   4  -1  -5    1.43    4.38   0
   5  -4  -2   79.72    6.61   0
   5   1  -4  231.11   10.31   0
   7   3   0  166.78    7.49   0
   3  -3  -4  487.82   11.98   0
   7   1  -2    1.46    3.50   0
   8  -1   0   10.68    3.12   0
   8   1   0   44.14    4.25   0
   5   2  -3  195.72    9.59   0
   6  -4   0   25.77    5.67   0
   6  -3  -2    7.44    4.74   0
   6  -2  -3  934.36   17.73   0
   6   1  -3  224.37   10.14   0
   7  -1  -2   19.44    4.67   0
   7   2  -1   23.57    4.87   0
   8   2   1    4.32    3.42   0
   4   1  -4   25.47    5.39   0
   4   3  -2  140.81    7.65   0
   5   0  -4  130.62    8.76   0
   6   3  -1   47.95    6.05   0
   7  -3   0   32.55    4.52   0
   7   0  -2   70.14    5.65   0
   5  -1  -4  188.79    9.18   0
   6   2  -2   36.57    6.11   0
   4  -4  -2    0.54    4.43   0
   4  -2  -4   98.55    7.48   0
   4   2  -3  115.20    7.29   0
   6  -1  -3  251.05   10.13   0
   6   0  -3   20.23    4.83   0
   7  -2  -1   20.36    3.86   0
   5  -4  -1  247.90    9.50   0
   3   0  -4  722.39   13.95   0
   4  -3  -3  467.18   12.77   0
   4   0  -4   22.45    4.89   0
   7   3   1  168.38    7.70   0
   8  -1   1   36.30    4.07   0
   8   1   1    4.57    3.33   0
   6  -4   1   18.80    5.09   0
   7  -3   1  134.75    6.58   0
   7   1  -1    3.14    3.82   0
   3  -3  -3  699.84   13.48   0
   5  -2  -3   38.21    5.63   0
   6  -3  -1   63.64    5.92   0
   6  -2  -2    6.17    4.37   0
   7  -1  -1   32.19    4.79   0
   7   0  -1   71.32    6.37   0
   7   2   0   30.35    5.39   0
   8   0   1   54.85    4.38   0
   5   2  -2  911.02   17.73   0
   6   1  -2   45.35    5.92   0
   5  -1  -3   31.59    5.18   0
   5   0  -3  103.55    7.20   0
   6   3   0  419.98   11.79   0
   7  -2   0    6.69    3.54   0
   5  -3   2   49.09    6.47   0
   5  -1  -2  424.35   12.15   0
   7  -2   5    2.71    3.98   0
   7  -1   1    5.32    3.83   0
   8   0   3   87.47    5.30   0
   8   1   2  210.62    7.15   0
   4   0  -3  153.03    7.17   0
   6  -2   1   78.89    6.90   0
   4  -3   1    6.01    3.92   0
   4   1  -3   11.66    3.90   0
   5  -3   3    5.97    5.11   0
   7   1   0   14.89    3.94   0
   7   2   0   27.61    4.34   0
   4  -2  -1  508.07   11.84   0
   6   0  -1  332.87   11.07   0
   7  -1   2   52.01    5.75   0
   8   0   4   26.93    3.86   0
   8   3   3   22.21    3.48   0
   4  -1  -2  693.00   13.62   0
   5  -2   0  141.59    7.35   0
   5   0  -2    9.40    3.71   0
   6  -1   0  202.15    9.31   0
   5   2  -2  915.85   15.98   0
   6   2  -1   24.85    5.17   0
   7   0   1  230.56    9.04   0
   5   1  -2   -0.24    3.82   0
   7   3   1  171.50    7.42   0
   8   0   5   38.40    3.78   0
   8   0   7    3.88    2.73   0
   8   2   3   28.69    3.52   0
   7  -1   3    9.02    4.00   0
   7   4   2  238.75    7.70   0
   8   0   6  128.49    5.45   0
   7   1   1   26.58    4.27   0
   8   1   4   69.51    4.66   0
   4  -2   0  320.03    9.27   0
   5  -2   1   21.79    4.53   0
   6  -1   1  385.53   11.82   0
   6   0   0  352.17   11.61   0
   7  -1   4  166.07    7.98   0
   7   0   2  443.02   12.33   0
   8   3   4    0.37    2.50   0
   6   3   0  440.74   11.62   0
   8   2   4   10.28    2.86   0
   5   0  -1  258.58    9.23   0
   5   3  -1  115.05    6.98   0
   6  -2   5   34.99    5.43   0
   6  -2   6    4.97    4.44   0
   8   1   5   76.93    4.86   0
   4   1  -2  365.02    9.58   0
   5  -1   0  331.75   10.26   0
   6   1   0    3.10    4.40   0
   7  -1   7  124.44    6.04   0
   6  -1   2   36.44    5.79   0
   6   2   0  891.13   16.49   0
   6   4   1   17.58    4.56   0
   7   0   3  404.47   11.95   0
   7   3   2  166.14    7.52   0
   8   1   6   19.28    3.10   0
   8   1   7   34.38    3.64   0
   8   1   8    5.21    2.72   0
   8   3   5  147.63    5.77   0
   5   2  -1   30.17    5.21   0
   7   2   2  133.39    7.41   0
   6   0   1  171.87    8.24   0
   7   4   3   27.84    4.42   0
   5  -2   3    6.95    4.09   0
   8   2   6   16.73    3.03   0
   8   3   6  107.09    4.90   0
   4   0  -1  150.34    6.42   0
   7   0   4   12.99    4.21   0
   8   2   7    3.17    2.68   0
   8   2   8    1.67    2.41   0
   4  -1   0   44.24    4.28   0
   5  -2   4  210.00    8.92   0
   5   0   0  494.01   12.07   0
   7   1   3  151.42    7.55   0
   7   5   5  193.50    6.49   0
   8   3   7   79.40    4.17   0
   8   3   8   50.47    3.60   0
   4  -2   2  267.41    8.36   0
   6   1   1  173.55    8.05   0
   6   3   1  475.30   11.88   0
   7   0   5  577.10   13.54   0
   7   0   9   27.70    3.89   0
   5  -2   5  447.40   11.86   0
   7   2   3  112.26    6.63   0
   5  -2   6  121.42    7.07   0
   5   3   0  304.10    9.68   0
   7   0   6   17.84    3.96   0
   7   0   8   42.14    4.57   0
   7   1   4  103.33    6.85   0
   7   4   4   50.88    4.91   0
   4   2  -1 1625.68   18.52   0
   5  -1   2  501.22   12.35   0
   5   1   0   73.02    5.42   0
   6   4   2  372.73   10.45   0
   4  -2   3  190.65    7.29   0
   5   2   0 1476.28   19.65   0
   6  -1   8  183.71    7.75   0
   7   5   6   80.74    4.66   0
   5   0   1  201.09    7.90   0
   6  -1   7  116.47    6.99   0
   6   0   3   38.44    5.61   0
   6   1   2  183.29    8.54   0
   7   2   4   95.37    6.23   0
   4  -1   1 1405.05   17.31   0
   4   0   0  724.85   12.50   0
   7   1   5  134.42    7.05   0
   7   1  10  158.12    5.88   0
   4  -2   4  510.42   11.52   0
   6   2   2    2.25    4.33   0
   6   3   2 1283.98   19.22   0
   7   4   5   48.67    4.37   0
   5  -1   3   23.57    4.12   0
   7   1   6   53.15    5.12   0
   7   5   7   35.35    3.72   0
   4  -2   5   68.07    5.87   0
   6   0   4   84.16    6.28   0
   7   1   7    6.26    3.96   0
   7   2  11   89.37    4.35   0
   7   3   5   92.87    6.35   0
   5   1   1   96.52    5.82   0
   6   4   3   -0.38    4.18   0
   6   5   4   58.30    5.28   0
   7   1   8    1.74    2.93   0
   7   5   8   41.19    3.56   0
   4   1   0    1.32    3.15   0
   5   0   2   44.88    4.49   0
   5   3   1   85.18    6.32   0
   6   0  10  184.29    7.21   0
   7   2   6  114.00    6.74   0
   4   3   0   58.51    5.19   0
   6   0   5  325.28   10.64   0
   7   2  10    9.94    2.94   0
   7   3   6   59.93    5.45   0
   7   3  11   41.99    3.28   0
   4   2   0 3280.23   25.64   0
   5  -1   9    0.35    4.26   0
   6   2   3   43.88    4.97   0
   7   2   7  179.50    7.48   0
   4   0   1  153.22    5.99   0
   5  -1   5  169.97    7.80   0
   6   0   6   43.29    5.28   0
   6   1   4  113.66    7.24   0
   6   6   7    2.01    3.69   0
   7   2   8    0.15    2.88   0
   7   2   9   13.75    3.10   0
   7   4  10  124.49    4.97   0
   5  -1   8 1466.45   19.76   0
   6   0   8  281.90    9.71   0
   7   3  10   20.92    2.97   0
   7   4   8   -0.15    2.37   0
   7   4   9  283.46    7.64   0
   5  -1   6  277.98    9.47   0
   5  -1   7   37.22    5.35   0
   5   0   3   33.66    4.29   0
   5   1   2  114.00    6.04   0
   5   4   2   29.36    4.47   0
   6   4   4  269.76    9.48   0
   6   5   5   48.18    4.91   0
   7   3   8    6.98    2.92   0
   7   3   9   48.12    3.98   0
   6   1  11    3.13    3.32   0
   6   6   8   22.22    3.29   0
   6   1   5    3.04    3.29   0
   6   2   4  175.07    8.10   0
   6   3   4  281.78   10.02   0
   5   0  11   12.38    4.33   0
   5   2   2    3.99    3.02   0
   5   3   2  187.89    7.63   0
   6   2  12    5.15    2.79   0
   4   1   1  154.19    5.92   0
   5   0   4   81.12    5.59   0
   6   1   6   31.00    5.15   0
   4  -1   4  394.42    9.62   0
   6   1  10    5.51    3.31   0
   6   2   5  735.91   15.58   0
   5   1   3   51.20    4.71   0
   6   1   7    3.75    3.72   0
   4   2   1 3223.25   25.14   0
   4   3   1   21.96    3.64   0
   5   0   5  188.56    8.10   0
   5   4   3   30.29    5.06   0
   6   3   5  499.48   12.61   0
   6   3  12   14.16    2.85   0
   5   0  10   42.58    4.58   0
   6   2   6  155.14    8.38   0
   6   4  12  165.77    5.38   0
   6   5   7    9.56    3.31   0
   6   5  11   21.04    2.82   0
   5   1  12   42.63    4.40   0
   5   2   3    6.43    3.35   0
   5   5   4   16.97    4.11   0
   6   4   6   81.19    5.94   0
   4  -1   6   10.43    4.24   0
   4  -1   8   68.72    5.98   0
   5   0   9  138.74    7.37   0
   5   1   4    9.71    3.93   0
   5   2  13   80.65    4.50   0
   5   6   6    0.66    4.06   0
   6   2   7   33.85    5.27   0
   6   2  10   14.54    4.07   0
   6   5  10   23.87    3.34   0
   4  -1   7  351.11   10.07   0
   4   0   3    9.72    2.92   0
   4   1   2   72.39    4.78   0
   5   0   7  119.25    6.85   0
   6   2   8  272.58    9.99   0
   6   2   9   42.15    5.17   0
   6   3  11   63.09    4.75   0
   6   5   9   14.78    2.99   0
   6   4   7   65.03    5.41   0
   6   4  11  311.11    7.99   0
   4   4   2    9.97    3.58   0
   6   3  10   28.42    4.37   0
   6   4   8   51.51    5.29   0
   6   4  10   78.47    5.25   0
   5   1   5   17.34    3.96   0
   5   1  11   80.64    5.76   0
   5   2   4  104.63    6.15   0
   5   4   4  656.61   13.72   0
   5   5   5  128.87    7.12   0
   5   6   7    4.79    3.77   0
   6   3   8    5.82    3.53   0
   6   3   9   34.16    4.40   0
   6   4   9  113.05    6.24   0
   4   0  11   49.37    5.08   0
   4   5   3   10.29    4.55   0
   5   3   4   72.59    5.97   0
   4   0   4   40.72    4.04   0
   4   3   2   28.49    3.84   0
   5   4  13   16.01    2.72   0
   5   1   6   33.74    4.58   0
   5   1  10  192.52    8.39   0
   5   2  12   -0.53    2.93   0
   5   6   8   48.63    4.76   0
   5   6  10    1.96    2.85   0
   5   6   9   19.48    3.26   0
   5   1   7   26.05    4.23   0
   5   1   8   18.32    5.04   0
   5   5   6   11.92    4.00   0
   5   5  12    1.06    2.15   0
   4   0  10   54.01    5.23   0
   5   3   5  141.46    7.18   0
   4   1  12   31.39    4.54   0
   4   4   3   15.66    4.33   0
   5   2   6  149.85    7.23   0
   5   3  12  220.46    7.37   0
   5   4  12    5.34    3.24   0
   4   0   6  166.49    7.06   0
   4   0   9   99.51    6.89   0
   4   2   3  712.89   12.47   0
   4   2  13   14.35    3.65   0
   5   5  11   -1.80    2.44   0
   3  -1   7   48.06    5.19   0
   4   0   7  445.90   11.31   0
   4   0   8   21.53    5.08   0
   4   1   4 1385.35   17.35   0
   4   5   4    3.98    3.71   0
   5   2  10    8.05    3.88   0
   5   3   6   19.33    4.13   0
   4   6  12   22.99    2.87   0
   5   2   8  385.95   11.56   0
   5   2   9   76.06    6.13   0
   5   3  11   -0.23    3.19   0
   5   4  11    9.29    3.66   0
   5   5   9   29.50    4.80   0
   5   5  10   12.28    3.52   0
   4   5  13   34.79    3.21   0
   4   6   6   34.13    5.11   0
   5   3   7  238.81    9.62   0
   5   4   7  170.90    8.05   0
   4   1  11  239.84    9.00   0
   5   3   8  412.07   12.08   0
   5   3   9  423.89   12.19   0
   5   4   9   13.32    4.15   0
   3   3  14   57.16    3.96   0
   4   4   4   71.60    5.38   0
   4   5   5   61.10    6.15   0
   4   6   7  383.68   10.76   0
   4   6  11    1.02    2.48   0
   2   0  -6  200.70    8.01   0
   5  -2  -4   17.28    5.98   0
   6   2  -5  123.87    6.61   0
   8   0  -1  163.42    5.91   0
   3   2  -6  491.01   12.99   0
   5  -1  -5   20.79    5.40   0
   6  -1  -4  115.01    7.13   0
   6   1  -5  337.40   10.58   0
   4  -3  -2  781.70   15.67   0
   4   0  -6  327.62   11.44   0
   2  -1  -5    1.85    3.03   0
   3   0  -6  123.27    7.39   0
   3   1  -6  343.87   11.16   0
   4   1  -6   41.41    5.79   0
   5   4  -4    0.89    4.55   0
   7  -1  -2   19.37    3.93   0
   7   0  -3   29.40    4.03   0
   7   4  -2   30.28    3.67   0
   4  -2  -4   87.63    7.09   0
   6  -2  -2    2.43    4.24   0
   6   3  -4   22.00    4.61   0
   3   3  -5    3.95    4.86   0
   4  -1  -5    0.47    4.02   0
   4   3  -5  100.43    7.29   0
   5   0  -5   27.36    5.74   0
   8   1  -1   60.15    4.24   0
   3  -1  -5   65.04    5.32   0
   5  -2  -3   32.68    5.27   0
   5   2  -5   15.04    5.42   0
   6   4  -3  160.69    7.11   0
   7   2  -3   56.22    4.71   0
   8   0   0   29.98    3.65   0
   8   2  -1  108.27    4.90   0
   2   0  -5  255.67    8.24   0
   6   1  -4  179.65    8.30   0
   7  -1  -1   34.42    5.16   0
   4   0  -5   54.30    5.37   0
   6  -2  -1  213.80    8.69   0
   7   0  -2   75.53    5.96   0
   3   0  -5  345.71   10.12   0
   3   2  -5   13.37    4.63   0
   4  -2  -3  116.50    6.64   0
   3  -2  -3  782.89   13.38   0
   4   1  -5   68.83    6.22   0
   5  -2  -2  164.18    8.51   0
   8   0   1   64.78    4.44   0
   8   1   0   43.09    4.02   0
   8   3   0    0.89    2.17   0
   3   1  -5   25.39    4.11   0
   4  -1  -4   12.88    4.04   0
   5   0  -4  133.56    8.25   0
   6   0  -3   46.44    6.12   0
   7   1  -2   -1.23    3.76   0
   7   4  -1   52.46    4.45   0
   3  -1  -4  306.98    8.81   0
   6  -2   0  135.45    7.54   0
   6   5  -1   30.33    4.58   0
   7  -1   0  110.87    6.82   0
   7   2  -2  126.03    6.44   0
   8   2   0   35.10    3.55   0
   5  -1  -3   30.04    4.79   0
   5   2  -4   95.91    7.40   0
   3   3  -4  133.68    6.66   0
   4   3  -4  215.15    8.70   0
   6   1  -3  235.22    9.51   0
   6   2  -3   22.98    5.20   0
   6   4  -2   42.84    5.10   0
   7   0  -1   76.40    5.68   0
   8   0   2  168.91    6.43   0
   4  -2  -2  289.49    9.09   0
   5  -2  -1  210.01    8.91   0
   8   1   1    4.60    3.13   0
   4   4  -3  150.01    7.85   0
   7  -1   1    9.09    4.50   0
   8   3   1    0.42    2.64   0
   3   0  -4  698.47   12.98   0
   4  -1  -3   17.55    4.35   0
   7   3  -1   56.16    4.72   0
   7   5   1   83.70    4.81   0
   8   0   3   95.09    5.18   0
   8   2   1    2.74    3.07   0
   8   4   2  161.91    5.53   0
   3   2  -4  408.07   10.50   0
   4   1  -4   28.75    4.63   0
   5   0  -3  118.79    7.66   0
   5   3  -3  309.28   10.82   0
   6  -1  -1  143.81    7.70   0
   6   0  -2  836.83   16.83   0
   7   1  -1    2.71    3.56   0
   3   1  -4   15.03    3.46   0
   6   3  -2   64.53    6.19   0
   7   2  -1   24.04    4.14   0
   4  -2  -1  505.26   11.47   0
   5  -2   0  137.65    7.61   0
   5   5  -1    1.05    4.17   0
   7  -1   2   47.28    5.35   0
   8   0   4   26.45    4.01   0
   8   1   2  222.58    7.48   0
   5   2  -3  200.95    8.81   0
   5   4  -2   21.54    5.09   0
   6   1  -2   49.01    5.49   0
   6   5   0   12.32    4.21   0
   8   0   5   29.51    3.82   0
   6   2  -2   31.38    5.04   0
   6   4  -1    0.78    4.34   0
   8   3   2   23.73    3.09   0
   4   0  -3  149.20    6.91   0
   4   3  -3  193.91    8.18   0
   6  -1   0  205.01    8.76   0
   7  -1   3    6.65    4.44   0
   7   1   0   20.15    4.90   0
   8   2   2   48.39    4.14   0
   8   4   3  119.05    4.76   0
   3   3  -3   61.37    5.44   0
   6   0  -1  346.46   11.13   0
   7   3   0  177.10    7.53   0
   7   5   2   11.19    3.54   0
   5  -2   1   17.06    5.13   0
   5   0  -2    9.02    3.89   0
   7   2   0   32.76    4.40   0
   4   1  -3   13.09    3.78   0
   4   2  -3  107.31    6.42   0
   6   1  -1    1.73    4.56   0
   6   3  -1   47.40    5.20   0
   8   1   4   70.65    5.10   0
   3   1  -3  264.81    7.90   0
   3   2  -3  176.00    6.78   0
   5   1  -2    2.39    3.38   0
   6  -1   1  373.72   11.05   0
   6   2  -1   21.90    5.38   0
   8   4   4   36.15    3.16   0
   5   5   0    4.50    4.44   0
   6   5   1  124.56    6.73   0
   7   0   2  432.68   11.63   0
   5   4  -1   19.25    4.17   0
   6   4   0   26.30    4.74   0
   6   6   3   65.35    5.33   0
   7   3   1  168.90    7.60   0
   8   1   5   76.58    5.00   0
   4   0  -2  156.89    6.79   0
   7   2   1   20.15    4.21   0
   7   5   3   78.63    4.75   0
   8   2   4    8.00    2.83   0
   8   3   4   -1.65    2.30   0
   8   4   5   17.39    3.00   0
   4   3  -2  129.70    6.85   0
   5  -1   0  345.21   10.25   0
   5   0  -1  260.31    9.22   0
   7   4   2  233.90    8.14   0
   8   1   6   24.21    3.30   0
   6  -1   2   42.50    5.25   0
   7   0   3  399.22   11.49   0
   6   1   0    8.08    3.89   0
   6   3   0  432.45   12.28   0
   7   1   2  255.01    9.45   0
   8   2   5    2.24    2.65   0
   8   4   6   44.53    3.64   0
   3   3  -2  196.95    7.08   0
   5   1  -1  512.82   12.98   0
   7   3   2  157.97    7.88   0
   5   2  -1   30.03    5.21   0
   6   5   2   14.35    4.44   0
   7   2   2  135.44    7.25   0
   7   5   4   40.94    4.46   0
   8   2   6   16.87    3.38   0
   8   4   7   64.91    3.98   0
   5  -1   1 1141.62   17.74   0
   6  -1   3   46.43    5.99   0
   6   6   4   24.91    4.19   0
   7   0   4   11.99    4.19   0
   7   4   3   23.05    4.46   0
   8   2   8   -1.25    2.56   0
   8   3   6  109.45    5.30   0
   3   4  -1  372.33    9.75   0
   4   0  -1  163.45    6.80   0
   5   4   0  210.09    8.71   0
   7   1   3  161.78    8.25   0
   4  -1   0   47.66    4.33   0
   5   0   0  522.73   12.42   0
   7   0   5  558.41   12.70   0
   8   3   8   48.20    3.50   0
   6   1   1  178.99    8.30   0
   6   3   1  517.60   13.70   0
   4   3  -1  458.69   11.28   0
   5   6   3   17.09    4.45   0
   6  -1   4   -1.25    3.91   0
   7   0   6   20.79    4.51   0
   7   2   3  110.26    6.83   0
   7   3   3   74.28    5.70   0
   4   1  -1  202.95    7.60   0
   7   0   7    4.77    4.11   0
   7   1   4  113.56    7.33   0
   4   2  -1 1623.06   20.01   0
   5   1   0   71.27    5.69   0
   6  -1   5   85.25    6.68   0
   6   5   3  205.99    8.29   0
   6   6   5  119.87    6.02   0
   5   2   0 1491.22   21.14   0
   4   4   0  737.94   14.14   0
   4   5   1   41.90    5.62   0
   5   0   1  209.64    8.56   0
   6   1   2  195.54    9.06   0
   7   2   4   91.86    6.46   0
   7   3   4   68.96    5.61   0
   5   4   1 1195.32   19.15   0
   5   5   2   33.20    4.96   0
   4   0   0  743.01   12.85   0
   6   2   2    5.99    4.69   0
   6   3   2 1305.76   20.91   0
   6   6   6    5.15    3.52   0
   5   6   4  409.37   10.65   0
   5  -1   3   26.71    4.61   0
   6   4   3    2.72    4.08   0
   7   2   5   18.98    4.35   0
   7   3   5  113.46    6.60   0
   7   5   8   41.82    3.52   0
   7   5   9    0.75    2.32   0
   3   4   0  832.70   13.75   0
   5   3   1   92.80    6.23   0
   6   0   4   89.91    6.62   0
   7   1   7    2.74    4.05   0
   7   1   9   22.21    4.01   0
   4   1   0    1.27    2.61   0
   5   2   1  484.08   12.32   0
   6   1   3   20.94    4.50   0
   6   6   7    3.67    3.40   0
   7   1   8   -1.56    3.62   0
   4   2   0 3165.00   27.22   0
   7   2   6  115.91    6.78   0
   7   3   6   63.40    5.29   0
   5  -1   4   54.35    6.02   0
   5   5   3   43.07    5.18   0
   6   2   3   46.82    5.47   0
   6   6   8   21.62    3.56   0
   4   4   1  104.56    6.32   0
   4   5   2   20.57    5.04   0
   6   0   5  329.77   10.58   0
   6   4   4  273.74   10.46   0
   7   2   7  187.68    7.89   0
   7   2  10    8.20    3.17   0
   7   4   8    1.27    3.17   0
   7   4  10  122.58    5.21   0
   6   1   4  102.83    7.52   0
   7   2   8    1.68    3.74   0
   7   3   7   52.47    4.99   0
   5   1   2  110.84    6.44   0
   6   0   6   58.95    6.14   0
   7   3  10   20.59    3.34   0
   5  -1   5  166.49    8.14   0
   5   0   3   31.92    5.14   0
   5   3   2  188.02    8.22   0
   5   2   2    5.43    3.30   0
   4   1   1  159.29    6.73   0
   5   5   4   18.47    5.28   0
   5   6   6    2.36    4.13   0
   6   1   5    2.47    4.87   0
   6   4   5   92.11    6.44   0
   6   5   7    5.44    4.09   0
   3   4   1  131.74    6.64   0
   4   2   1 3252.24   27.32   0
   5  -1   6  290.43    9.98   0
   4   4   2   11.48    4.51   0
   4   5   3   11.96    4.88   0
   5   1   3   43.37    5.26   0
   6   2   5  688.01   15.69   0
   6   3   5  496.90   13.47   0
   6   5  11   21.31    3.06   0
   5   0   4   79.06    5.80   0
   5   6   7    6.07    3.60   0
   6   4   6   86.85    6.51   0
   6   5   8   44.31    4.51   0
   4   2  12   23.56    4.21   0
   6   2   8  275.43    9.36   0
   6   4  11  294.76    7.51   0
   6   5  11   18.46    2.67   0
   6   6   5   97.70    4.93   0
   4   0   8   19.29    3.87   0
   5   3  12  219.70    6.73   0
   6   2   6  166.59    8.03   0
   6   2   7   36.28    4.35   0
   6   3   4  224.15    8.46   0
   6   3  10   24.72    3.59   0
   6   5   4   61.19    4.87   0
   3   0   9   15.05    4.42   0
   5   1   4   10.84    3.72   0
   5   2   2    4.34    3.11   0
   6   4   4  267.57    8.53   0
   4   0   4   40.21    3.58   0
   4   4  13   16.97    3.15   0
   4   0   5   90.27    4.75   0
   4   1  10   38.74    4.75   0
   5   1   5   17.89    3.45   0
   6   4  10   76.28    4.51   0
   6   6   6    4.85    2.83   0
   6   6   9   66.34    3.64   0
   5   1   6   31.72    3.85   0
   5   1   7   23.75    3.73   0
   5   4  12    6.09    2.22   0
   6   3   6   49.33    4.68   0
   6   3   8    6.10    3.17   0
   6   5   5   45.49    4.34   0
   6   5  10   21.36    2.72   0
   6   3   7   25.99    4.03   0
   6   4   5   95.41    5.68   0
   6   6   7    1.52    2.23   0
   3   0   8    1.69    3.49   0
   6   5   9   13.14    2.96   0
   4   2  11    4.37    3.51   0
   5   4   2   25.61    4.15   0
   6   4   6   87.30    5.30   0
   6   4   7   66.27    5.10   0
   6   4   8   50.36    4.27   0
   6   5   6  105.94    5.26   0
   4   3  12  331.76    8.03   0
   5   2   9   82.08    5.37   0
   6   5   7    6.37    2.71   0
   3   1  10   -2.42    3.64   0
   5   2   4   97.88    5.14   0
   5   6  11   22.60    2.49   0
   3   0   7  148.94    5.65   0
   5   2   8  416.42   10.44   0
   5   3  10  324.54    9.19   0
   5   4  11   11.15    2.59   0
   5   2   5  355.31    9.11   0
   5   2   7  437.89   10.70   0
   5   3   3   16.54    3.17   0
   5   2   6  142.28    6.19   0
   5   7   9   56.19    3.12   0
   4   1   4 1387.50   14.98   0
   4   1   7  115.15    5.59   0
   4   2  10   19.40    3.94   0
   4   4  12   -1.48    2.05   0
   5   4   3   20.84    3.79   0
   5   7   6   69.42    3.87   0
   3   2  11  293.76    8.08   0
   3   3  12  107.91    5.18   0
   4   1   5  341.54    8.06   0
   5   3   9  441.17   10.59   0
   5   4  10    9.33    3.19   0
   5   6  10    0.87    2.06   0
   5   7   7    9.63    2.43   0
   4   1   6  258.92    7.20   0
   4   3   1   21.86    3.03   0
   4   3  11  890.35   13.56   0
   3   1   9   -7.21    2.75   0
   5   5  10    7.97    2.57   0
   5   3   6   17.35    3.19   0
   5   4   4  632.38   11.57   0
   5   4   9    7.38    3.34   0
   5   5   4   16.70    3.54   0
   5   6   5  161.55    6.13   0
   5   6   9   22.75    3.03   0
   3   4  12   63.53    4.13   0
   5   4   8  219.20    7.75   0
   5   6   6    2.46    2.91   0
   5   6   8   51.15    3.71   0
   3   1   8    1.28    2.97   0
   4   6  11    2.80    1.72   0
   5   4   6  204.60    7.60   0
   5   5   5  124.88    5.80   0
   4   3   2   25.09    3.17   0
   4   5  11   59.33    4.04   0
   5   5   6   14.51    3.70   0
   5   5   7    1.48    2.85   0
   5   5   8   77.87    4.78   0
   3   3  11  117.84    5.62   0
   3   5  12    5.02    1.98   0
   4   2   4  415.83    8.47   0
   3   1   7  248.14    6.74   0
   4   2   7   30.50    3.46   0
   2   4  12   53.30    3.79   0
   3   7  11    0.29    1.38   0
   4   3   9  721.93   12.78   0
   4   4  10   83.47    5.23   0
   4   5   2   14.70    3.39   0
   2   6  12   86.86    3.63   0
   4   4   2   10.36    2.73   0
   4   6  10   67.82    3.89   0
   4   7   9   12.10    2.14   0
   3   2   9  391.47    9.21   0
   3   8   9   41.57    2.58   0
   4   3   3   75.54    4.00   0
   4   5  10   61.50    4.25   0
   2   5  12   77.65    3.86   0
   3   4  11   75.04    4.88   0
   4   7   8  110.66    4.58   0
   2   3  11   36.68    3.92   0
   3   6  11  426.31    8.19   0
   4   4   9  243.02    7.87   0
   1   5  12   54.45    3.44   0
   2   1   8   67.92    3.95   0
   3   3  10   87.33    4.99   0
   4   3   4    4.02    2.36   0
   4   3   7  238.09    7.34   0
   4   4   3   15.76    3.28   0
   4   6   9   82.00    4.62   0
   2   7  11  213.46    5.05   0
   3   7  10   -1.74    1.60   0
   3   8   8   55.76    3.02   0
   4   3   5  377.80    8.48   0
   4   3   6    3.73    2.53   0
   4   5   3   13.26    2.96   0
   4   5   9   33.98    3.71   0
   3   8   5    0.94    2.49   0
   4   6   8  243.64    7.44   0
   3   8   6   -0.81    2.38   0
   3   8   7   93.79    3.89   0
   4   5   8  311.19    9.01   0
   4   6   5   32.20    4.59   0
   4   4   5  110.86    5.49   0
   4   4   7  320.97    8.71   0
   4   5   4    4.35    2.79   0
   4   6   7  398.63    9.52   0
   2   4  11  212.07    7.02   0
   2   8   9   36.11    2.62   0
   3   6  10    3.95    2.46   0
   4   4   6  253.17    7.65   0
   4   5   7   69.56    4.68   0
   2   2   9  157.17    5.87   0
   3   5  10    1.72    2.72   0
   3   7   9   12.27    2.41   0
   4   5   6   24.56    3.46   0
   2   3  10   45.07    4.50   0
   3   2   6   45.86    3.30   0
   3   7   3    4.64    3.02   0
   3   6   9  323.25    8.83   0
   3   7   8  360.37    8.49   0
   1   4  11  170.93    6.08   0
   1   6  11   25.53    3.03   0
   3   5   9    3.66    3.58   0
   3   6   2    8.03    3.42   0
   3   7   4   24.57    3.66   0
   0   6  11   47.62    3.19   0
   1   8   9   13.29    1.84   0
   2   2   8  172.89    5.98   0
   2   4  10   38.38    4.51   0
   3   3   7  463.64    9.85   0
   3   7   5   67.13    4.56   0
   0   5  11    3.23    3.10   0
   1   7  10  146.85    4.96   0
   2   6  10  112.91    5.25   0
   2   8   7  129.72    4.82   0
   3   6   8  231.46    7.83   0
   1   3  10   89.91    5.10   0
   2   3   9    7.19    3.15   0
   2   5  10  250.61    7.91   0
   2   7   9   -0.06    2.09   0
   3   3   6  136.36    5.44   0
   3   4   2   25.19    3.03   0
   3   5   2  108.76    5.10   0
   3   5   8  250.19    8.28   0
   3   6   3   27.87    4.05   0
   2   8   5   85.49    4.33   0
   3   3   4 2667.56   20.45   0
   3   3   5  249.89    6.83   0
   3   6   7  280.22    8.71   0
   2   2   7   18.37    3.10   0
   3   4   7   44.59    4.21   0
   3   6   6   97.74    5.93   0
   3   4   3   27.11    3.10   0
   3   5   3   22.98    3.90   0
   3   5   7  301.35    9.04   0
   1   4  10   14.80    3.92   0
   1   6  10   53.43    4.38   0
   2   6   9   19.93    3.67   0
   2   7   8    7.19    2.81   0
   3   4   4  146.74    5.98   0
   3   4   6    0.28    2.72   0
   3   5   6   24.86    4.10   0
   2   5   9   -2.62    2.70   0
   2   7   2   18.50    3.86   0
   3   4   5   59.33    4.30   0
   0   8   8   11.61    2.27   0
   1   5  10  455.92   10.39   0
   1   7   9    9.84    2.60   0
   1   8   7    0.44    2.42   0
   2   7   7  144.75    6.65   0
   0   6  10   23.91    3.52   0
   1   2   8 1002.52   13.54   0
   1   3   9  342.66    8.91   0
   2   6   8    6.65    3.03   0
   2   7   3   33.05    4.55   0
   2   7   6  161.24    7.15   0
   0   4  10  192.45    7.14   0
   0   7   9  242.14    6.83   0
   1   8   3  241.09    7.15   0
   2   4   8    1.43    2.82   0
   2   7   4    0.30    3.82   0
  -1   4  10  289.56    8.00   0
   1   6   9    3.24    3.60   0
   1   7   8    0.31    3.05   0
   1   8   4  156.25    6.23   0
   2   5   8   39.29    4.56   0
  -1   5  10   21.15    3.98   0
   0   8   7   37.54    3.43   0
   2   6   7  129.79    6.69   0
   1   4   9  158.03    7.03   0
   1   5   9  215.91    8.39   0
  -1   8   7  215.34    5.79   0
   2   3   6   78.95    4.49   0
   2   4   7   -0.77    2.73   0
   2   5   7  176.22    7.39   0
   2   6   2  370.97    9.75   0
   0   3   9  269.04    8.55   0
   1   7   7    0.54    3.60   0
   2   5   1  790.89   12.53   0
  -2   6   9  177.28    5.68   0
   0   6   9  217.65    7.70   0
   0   7   8    6.28    3.28   0
   0   8   6   76.55    4.45   0
   1   3   8   28.87    3.92   0
   1   6   8   20.90    4.53   0
   2   6   3  469.43   10.98   0
   2   6   5  226.87    8.43   0
   0   2   8  397.86    9.22   0
   1   7   1  229.92    7.97   0
   2   4   6   25.66    3.64   0
   2   5   6  285.12    9.06   0
  -1   6   9  112.25    5.80   0
   0   8   2  139.76    6.13   0
   1   7   6   43.66    5.14   0
  -2   8   6  135.62    4.52   0
  -1   3   9   76.99    5.85   0
  -1   7   8  134.24    5.41   0
  -1   8   6    1.48    2.29   0
   0   4   9   75.40    5.38   0
   0   8   3  160.01    6.63   0
   0   8   4  112.19    5.88   0
   1   5   8   27.27    4.37   0
   2   4   5  135.98    6.20   0
   2   5   2   34.12    3.91   0
   2   5   5    3.84    3.29   0
   2   5   3  567.18   11.51   0
   2   5   4  972.17   15.32   0
   0   2   8  408.24    8.59   0
   2   3   9    5.87    2.76   0
   2   8   9   35.83    2.36   0
   1   8   9    9.63    1.64   0
   2   5  10  258.54    7.48   0
   3   2   6   50.38    3.43   0
   3   3   8   69.66    4.43   0
   3   4   9   46.74    4.14   0
   3   8   8   57.79    3.08   0
   3   7   9   11.87    2.26   0
   3   5   9    5.79    3.13   0
   4   3   4    3.65    2.50   0
   2   2   7   19.11    2.37   0
   2   4   9   23.51    3.68   0
   0   4   9   74.69    4.61   0
   2   3   8    2.27    2.65   0
   2   7   9    0.31    2.29   0
   3   3   7  490.74    8.99   0
   3   4   8  230.73    6.96   0
   2   8   8   54.35    2.81   0
   3   7   8  342.43    7.55   0
   1   7   9   11.84    2.04   0
   2   5   9   -0.53    2.44   0
   2   6   9   16.79    3.17   0
   4   4   5  114.22    4.83   0
   4   5   6   27.82    3.70   0
   4   7   5  290.84    6.71   0
   0   5   9   68.31    4.41   0
   1   8   8    8.07    1.86   0
   3   5   8  242.90    7.16   0
   3   6   8  219.99    6.90   0
   4   6   6   40.87    3.50   0
   1   5   9  215.32    6.81   0
   1   6   9    4.78    2.78   0
   3   3   6  116.27    4.52   0
   4   4   4   77.44    4.10   0
   4   5   5   69.07    4.43   0
   4   6   5   32.26    3.72   0
   2   4   8    2.20    2.23   0
   3   7   7  158.71    5.48   0
   4   4   3   18.37    3.02   0
   2   3   7  320.56    6.88   0
   2   7   8    5.36    2.14   0
   2   8   7  130.89    4.16   0
  -1   5   8  172.89    5.71   0
   3   5   7  300.75    7.79   0
   3   8   5    1.49    2.14   0
   4   5   4    6.23    2.33   0
   4   6   3   84.57    4.54   0
   4   6   4  182.17    5.56   0
   0   4   8  647.05   10.55   0
   1   4   8   -0.27    2.31   0
   1   7   8    1.65    2.49   0
   2   5   8   40.03    3.59   0
   2   6   8    5.03    2.47   0
   2   9   4   11.39    1.57   0
   3   6   7  276.03    7.24   0
   4   5   3   11.02    2.90   0
   1   8   7    2.08    1.54   0
   3   4   6    2.28    2.49   0
   3   8   4   12.28    2.39   0
   1   3   7   73.99    3.70   0
   1   9   5    9.77    1.54   0
   3   7   6  185.50    5.77   0
   0   3   7  624.48    9.55   0
   1   6   8   12.86    2.63   0
   2   4   7   -1.75    2.55   0
   2   7   7  143.12    5.34   0
   2   8   6   76.61    3.52   0
   3   8   2   11.16    2.28   0
  -1   7   7   37.47    2.97   0
   3   5   6   29.54    3.56   0
  -2   7   6   95.60    3.68   0
  -1   8   6    1.83    1.52   0
   1   9   4  137.91    3.79   0
   2   6   7  139.66    5.44   0
  -1   4   7  478.62    8.66   0
   0   7   7  121.17    4.86   0
   1   7   7    0.38    2.30   0
   1   8   6  156.50    4.70   0
   0   9   4  134.31    3.62   0
   1   4   7  217.55    6.12   0
  -1   5   7  530.26    9.54   0
   0   4   7  299.88    7.16   0
   1   9   3   47.07    2.55   0
   2   7   6  168.40    5.79   0
   1   3   6  119.73    4.15   0
   1   6   7  136.79    5.59   0
   2   4   6   23.34    2.76   0
  -2   4   6  480.06    8.60   0
  -2   6   6  232.81    6.13   0
   0   6   7  137.46    5.50   0
   2   8   4   58.55    3.73   0
   3   7   3    2.96    2.87   0
  -1   3   6   51.37    3.26   0
   0   9   3  172.39    4.31   0
   1   8   5  112.22    4.60   0
   2   5   6  259.50    7.00   0
   2   6   6  236.64    6.91   0
  -3   7   4   51.03    2.96   0
  -2   5   6    2.28    2.85   0
  -2   8   4  172.31    4.30   0
  -1   7   6  105.82    4.44   0
   0   3   6  120.12    4.35   0
   1   7   6   37.74    3.55   0
   1   9   1    5.23    1.78   0
   2   7   5   83.12    4.88   0
   3   7   1   16.59    2.90   0
   3   7   2    7.45    2.44   0
   0   7   6  382.12    8.33   0
   0   8   5  127.87    4.46   0
   3   4   3   32.13    3.04   0
  -2   7   5   37.99    3.21   0
   1   4   6   67.11    3.79   0
   3   6   3   28.69    3.64   0
   0   9   2   37.39    2.43   0
   1   6   6  116.19    5.75   0
   2   8   2   25.15    3.14   0
   3   5   3   21.29    3.39   0
  -1   4   6  508.47    9.15   0
  -1   6   6   12.17    2.99   0
   1   8   4  161.30    5.46   0
   2   6   5  245.53    7.26   0
  -1   5   6  131.53    5.79   0
   0   6   6   29.57    3.79   0
   0   9   1   31.93    2.50   0
   2   5   5    1.94    2.54   0
   2   7   4    5.04    2.89   0
   2   8   0   97.41    4.20   0
   3   6   2    3.56    2.65   0
  -1   8   4    3.32    1.96   0
  -1   9   1    0.93    1.45   0
   0   5   6  473.24    9.61   0
   0   8   4  111.47    4.75   0
   1   7   5   46.31    3.96   0
  -1   7   5  192.80    6.16   0
  -3   6   4  139.86    5.22   0
  -2   6   5   82.35    4.48   0
   1   8   3  251.53    6.86   0
  -3   7   3   68.58    3.73   0
   1   6   5  574.25   11.24   0
   2   6   4  721.75   12.07   0
   3   5   1  932.38   11.86   0
  -3   8   1   -0.99    1.79   0
  -2   4   5  270.41    7.17   0
  -2   5   5   19.56    3.69   0
   1   4   5  167.05    5.36   0
   2   5   4  946.65   12.92   0
  -1   8   3   99.40    4.35   0
   1   5   5  192.84    6.30   0
   1   7   4  201.88    7.03   0
   1   8   2  160.57    5.85   0
   2   7   2   21.06    3.99   0
  -3   5   4   31.57    3.88   0
   0   6   5    3.17    2.98   0
  -2   8   2   31.50    2.70   0
   0   4   5    8.37    2.82   0
  -1   4   5   23.24    3.25   0
  -1   5   5  220.49    7.40   0
   0   5   5  776.93   12.33   0
   0   7   4  253.55    7.72   0
   1   8  -2  111.15    4.70   0
   2   7   1   89.34    5.04   0
   0   8   2  146.35    5.84   0
   1   7   3  335.33    9.09   0
   1   8  -1  178.35    5.90   0
   1   8   0   48.15    4.19   0
   2   7  -1  277.86    7.55   0
   2   7   0  461.82    9.76   0
  -2   6   4   11.03    3.93   0
  -3   7   2  126.37    5.18   0
   1   4   4 1286.40   14.14   0
   2   6   2  385.63    9.46   0
  -3   6   3  231.86    7.01   0
  -2   8   1   29.98    2.92   0
   0   8   1   42.24    4.46   0
  -4   7   0    2.66    2.40   0
  -3   8  -1  280.46    5.97   0
  -1   6   4  316.43    8.84   0
  -1   7   3   62.38    5.09   0
   0   6   4   56.85    4.70   0
   0   7   3  462.47   10.73   0
   1   7   2   35.27    4.20   0
  -2   5   4  113.16    5.74   0
  -1   8   1   76.34    4.41   0
   1   6   3  287.73    8.75   0
   2   5   2   33.79    3.67   0
   2   6   1   59.33    5.16   0
  -3   8  -2    6.85    2.03   0
  -2   8   0  226.92    6.57   0
   0   5   4   66.76    4.88   0
   0   8   0   66.57    4.67   0
   0   8  -1   -2.11    3.12   0
   1   7   1  248.69    8.81   0
   2   6   0  500.07   10.85   0
  -4   6   1   32.13    3.88   0
  -3   7   1   62.15    4.56   0
  -2   7   2    5.26    3.14   0
  -1   8   0  111.11    5.39   0
   0   7   2   47.13    5.15   0
  -4   7  -1   15.40    2.87   0
  -2   8  -1   40.52    3.68   0
   2   5   1  795.76   12.70   0
   2   6  -2   48.22    4.92   0
   2   6  -1  292.76    8.63   0
  -1   8  -1   51.73    4.15   0
   0   6   3    1.62    2.99   0
  -3   6   2  292.73    8.47   0
  -2   8  -4   -1.82    2.08   0
  -2   8  -2   25.80    3.23   0
  -1   6   3  139.43    6.56   0
  -1   8  -3   53.65    4.00   0
  -1   8  -2   47.09    4.17   0
   0   7   1    7.09    4.54   0
   1   7  -3   98.92    5.62   0
   1   7  -2    2.65    3.83   0
   1   7  -1   55.26    5.02   0
  -4   7  -2   17.32    2.91   0
  -2   7   1  198.49    7.56   0
  -1   7   1   97.17    6.36   0
   0   5   3 1255.54   16.78   0
   1   5   2    3.50    3.29   0
  -4   6   0   -1.61    3.55   0
  -1   5   3   77.30    5.52   0
   0   6   2   27.55    4.02   0
  -4   5   1   43.57    4.83   0
  -2   4   3  854.36   13.50   0
  -2   6   2   41.68    5.02   0
   0   7   0   51.84    5.24   0
   2   5  -2   23.19    4.70   0
  -3   5   2  154.54    6.89   0
  -1   6   2  256.16    8.78   0
   0   1  -9   31.33    5.11   0
   0   4  -7  241.16    9.45   0
   1   5  -7  100.79    6.73   0
   2   4  -9   65.69    5.51   0
   3   5  -8   32.51    3.73   0
   3   1 -10  366.11    9.62   0
   3   4  -9  123.27    5.65   0
   2   1 -10   25.74    5.16   0
   0   0  -8   58.66    4.76   0
   0   4  -6  393.60   11.52   0
   1   4  -8  122.80    7.09   0
   2   6  -5   60.77    5.38   0
   0   2  -8   16.90    5.09   0
   1   0  -9   36.52    5.35   0
   2   5  -7  275.89    9.27   0
   0   4  -5  448.13   11.44   0
   1   2  -9   25.84    4.84   0
   2   3  -9   62.21    5.59   0
   2   6  -4    8.48    4.75   0
   4   5  -7   92.69    4.80   0
   1   1  -9 1094.82   18.02   0
   3   3  -9  190.63    7.52   0
   3   5  -7   79.62    5.29   0
   3   6  -5   32.57    4.23   0
   4   4  -8    7.04    3.35   0
   4   6  -5  334.51    8.47   0
   1   3  -8  268.08    9.79   0
   1   4  -7    0.93    4.07   0
   4   1  -9  499.34   10.59   0
   4   2  -9   51.72    4.64   0
   0   3  -6   24.67    4.20   0
   0   4  -3  375.51    9.48   0
   2   6  -3   48.72    6.02   0
   3   0  -9   51.19    5.32   0
   3   4  -8  130.06    6.51   0
   5   5  -6   95.00    4.57   0
   2   5  -6  347.44   10.68   0
   2   6  -2   28.56    5.57   0
   5   6  -4   57.20    4.11   0
   2   1  -9   27.04    4.82   0
   5   4  -7    1.72    2.26   0
   1   0  -8  237.38    8.21   0
   1   2  -8   99.01    6.46   0
   1   5  -3  430.78   11.39   0
   3   1  -9  435.50   11.21   0
   0   2  -6   53.20    5.65   0
   0   3  -5  553.31   11.54   0
   1   1  -8  456.07   12.04   0
   2   3  -8   28.03    4.94   0
   3   5  -6   14.89    4.00   0
   4   5  -6  104.21    6.04   0
   5   1  -8    2.97    3.59   0
   1   3  -7 1356.48   20.42   0
   1   5  -2  261.60    8.61   0
   4   3  -8   14.48    3.54   0
   3   3  -8   92.81    6.31   0
   3   6  -3  177.60    7.87   0
   1   4  -5   72.35    6.10   0
   3   4  -7  187.76    8.12   0
   2   2  -8  145.74    7.83   0
   4   0  -8   88.74    6.64   0
   1   2  -7  226.76    8.54   0
   2   0  -8   18.83    4.76   0
   2   4  -6   63.01    6.37   0
   3   5  -5    9.57    4.90   0
   3   6  -2  139.24    7.84   0
   5   3  -7  114.98    5.93   0
   6   5  -4    3.01    2.19   0
   1   0  -7  458.90   10.67   0
   2   1  -8   79.13    6.22   0
   2   3  -7  100.07    7.22   0
   4   1  -8  633.36   13.45   0
   5   4  -6   68.16    5.05   0
   6   3  -6   54.54    4.01   0
   3   0  -8    8.19    5.05   0
   3   6  -1   79.20    6.76   0
   6   6  -1   24.28    3.59   0
   3   1  -8  316.74   10.40   0
   4   6  -2    1.60    4.72   0
   5   6  -2   82.04    5.36   0
   6   4  -5   48.44    3.82   0
   2   5  -3  102.11    6.67   0
   4   4  -6  166.74    8.13   0
   5   0  -7  114.86    6.93   0
   1   4  -3 1389.75   18.23   0
   1   2  -6   12.46    3.35   0
   1   3  -5  295.02    9.14   0
   2   2  -7   13.59    4.14   0
   2   4  -5  127.87    7.11   0
   5   1  -7    5.80    4.28   0
   5   5  -4  148.17    6.75   0
   6   2  -6  121.70    5.88   0
   6   6   0   22.47    3.95   0
   2   3  -6   99.54    6.88   0
   2   5  -2   23.33    5.31   0
   5   6  -1   24.80    4.78   0
   2   0  -7  752.76   14.48   0
   2   1  -7  221.04    9.16   0
   6   1  -6  222.36    7.51   0
   7   3  -4   50.92    3.76   0
   7   4  -3  137.51    5.12   0
   2   5  -1  237.15    8.87   0
   3   2  -7  265.37    9.90   0
   4   6   0   65.66    6.36   0
   5   4  -5   63.37    5.29   0
   6   6   1   31.71    4.63   0
   7   5  -1    4.69    2.80   0
   1   3  -4  559.92   11.65   0
   2   4  -4  193.01    8.51   0
   3   4  -5   10.50    4.14   0
   4   0  -7  100.82    7.20   0
   5   6   0  136.45    7.30   0
   1   2  -5    1.23    3.51   0
   3   0  -7  161.60    8.24   0
   3   1  -7  199.45    9.19   0
   3   3  -6    8.48    4.24   0
   4   1  -7  118.32    7.32   0
   5   5  -3   54.23    5.76   0
   5   6   1   68.81    7.04   0
   2   3  -5   19.75    3.89   0
   5   2  -6  366.94   11.43   0
   3   5  -2  568.96   13.74   0
   7   5   0   -0.80    2.94   0
   3   4  -4   41.79    5.86   0
   5   4  -4   -0.23    4.49   0
   6   2  -5  124.25    6.85   0
   7   4  -2   33.37    3.97   0
   3   2  -6  486.20   13.04   0
   4   2  -6   20.37    5.55   0
   5   0  -6   10.44    4.89   0
   5   1  -6  126.56    7.34   0
   5   3  -5  419.59   12.27   0
   7   1  -4   13.17    3.31   0
   7   3  -3  103.82    5.55   0
   3   3  -5   -0.13    4.44   0
   4   4  -4   72.47    6.30   0
   4   5  -2  121.42    7.75   0
   6   4  -3  160.04    7.42   0
   3   5  -1  876.25   16.54   0
   4   3  -5  102.00    7.01   0
   6   1  -5  336.22   10.21   0
   6   3  -4   25.68    4.37   0
   2   2  -5  288.12    9.50   0
   2   3  -4   80.04    5.43   0
   2   4  -2   93.14    6.15   0
   4   1  -6   43.25    6.62   0
   3   0  -6  116.29    6.92   0
   3   4  -3  249.68    9.51   0
   3   5   0  974.55   17.23   0
   4   5  -1   57.52    6.86   0
   5   2  -5   21.82    5.62   0
   5   4  -3  104.76    7.85   0
   5   5  -1   -3.66    5.05   0
   7   4  -1   53.87    4.98   0
   6   5   0   10.86    4.67   0
   7   2  -3   60.32    5.15   0
   3   2  -5   15.43    5.02   0
   4   4  -3  153.99    8.43   0
   5  -1  -5   19.27    5.38   0
   5   3  -4  200.89    9.41   0
   6   4  -2   39.46    5.67   0
   8   2  -1  107.27    5.00   0
   3   3  -4  133.29    7.39   0
   4   2  -5    9.13    4.51   0
   7   3  -2  310.24    9.22   0
   8   3   0    0.25    2.40   0
   2   3  -3   59.12    4.58   0
   4   3  -4  215.73    9.43   0
   4   5   0  771.72   16.72   0
   6  -1  -4  114.39    7.09   0
   6   3  -3  104.62    6.95   0
   7   0  -3   27.20    4.51   0
   7   1  -3   42.16    4.98   0
   2   2  -4 1182.60   16.92   0
   5   0  -5   29.98    5.25   0
   5   5   0    1.05    4.48   0
   6   5   1  117.55    7.43   0
   8   1  -1   57.86    4.29   0
   7   4   0   -1.02    3.32   0
   5  -1  -5   17.05    5.57   0
   2  -1  -5    0.64    3.68   0
   5   2  -5   25.28    5.41   0
   6  -2  -3  918.92   16.95   0
   6  -1  -4  112.92    7.24   0
   7   2  -3   55.21    5.12   0
   8   0  -1  153.67    6.06   0
   3  -3  -3  708.01   14.01   0
   4  -3  -3  476.12   12.26   0
   7   0  -3   33.94    4.36   0
   8   2  -1  114.14    5.21   0
   2   1  -5  263.11    8.57   0
   3   2  -5   13.14    5.12   0
   5  -3  -2  423.41   12.04   0
   5   0  -5   27.85    5.20   0
   5   1  -5   79.76    6.86   0
   5   4  -3   94.53    6.52   0
   6   2  -4  122.55    7.28   0
   7   1  -3   50.61    4.68   0
   3  -1  -5   66.01    5.96   0
   4  -1  -5    6.55    4.07   0
   6   0  -4   44.66    5.54   0
   8   1  -1   62.54    4.23   0
   3   3  -4  140.60    7.44   0
   4   4  -3  147.90    7.92   0
   6   1  -4  194.28    8.81   0
   6   4  -2   42.97    5.32   0
   3  -2  -4   76.23    5.32   0
   4   0  -5   54.76    6.25   0
   4   1  -5   61.30    6.50   0
   4   3  -4  214.40    9.24   0
   8  -1   1   21.11    3.72   0
   3   0  -5  364.89   10.59   0
   4  -3  -2  795.63   14.92   0
   5  -1  -4  179.01    9.30   0
   6  -2  -2    3.02    4.75   0
   7  -2   0    5.32    4.25   0
   5  -2  -3   33.20    5.26   0
   6  -1  -3  241.03    9.65   0
   8   0   0   26.99    3.50   0
   7   0  -2   71.18    5.55   0
   7   2  -2  121.01    6.38   0
   8   2   0   39.01    3.84   0
   6   2  -3   27.72    5.42   0
   7   1  -2    1.53    3.15   0
   8  -1   2   45.81    4.18   0
   8   1   0   40.59    4.11   0
   4  -1  -4    9.43    3.99   0
   5   1  -4  231.75    9.85   0
   5   4  -2   20.23    5.27   0
   6   0  -3   30.08    5.18   0
   7   4   0   -1.38    3.59   0
   3  -1  -4  302.23    8.87   0
   4  -2  -3  116.70    6.56   0
   4   2  -4  126.21    7.32   0
   5   3  -3  297.04   10.42   0
   7  -2   1   41.47    5.10   0
   8   3   1    1.84    2.57   0
   6  -2  -1  211.30    9.04   0
   6   4  -1    3.42    4.34   0
   3   3  -3   55.99    5.36   0
   4   0  -4   25.65    4.61   0
   4   1  -4   25.21    4.76   0
   4   4  -2   72.63    6.31   0
   5  -2  -2  185.72    8.69   0
   5  -1  -3   28.03    5.67   0
   8  -1   3  130.50    5.50   0
   3   0  -4  692.94   13.14   0
   3   1  -4   14.83    3.27   0
   4   3  -3  193.52    8.27   0
   7   0  -1   78.15    5.83   0
   5   2  -3  206.87    9.54   0
   7  -2   2  242.45    8.28   0
   7  -1   0  126.84    7.19   0
   7   2  -1   22.31    4.14   0
   8   1   1    3.35    3.35   0
   8   2   1    3.89    2.60   0
   7   1  -1    2.78    3.44   0
   5   0  -3  118.48    7.23   0
   6   0  -2  855.40   17.30   0
   6   2  -2   36.36    5.24   0
   7   5   3   58.29    5.21   0
   8   3   2   23.79    3.27   0
   4  -2  -2  299.48    9.47   0
   4  -1  -3   12.31    3.68   0
   6   1  -2   42.78    5.39   0
   7   3   0  177.09    7.51   0
   5   3  -2  106.57    7.08   0
   5   4  -1   16.09    5.21   0
   7  -2   3    5.25    4.60   0
   5  -1  -2  427.87   12.46   0
   6   4   0   28.96    5.14   0
   7   0   0    4.46    3.81   0
   8   2   2   41.44    4.26   0
   8   4   4   37.67    3.43   0
   4   1  -3   15.82    4.58   0
   7   2   0   32.12    5.20   0
   4   3  -2  138.34    7.54   0
   8   3   3   23.13    3.63   0
   3   1  -3  253.93    7.90   0
   3   3  -2  189.07    7.29   0
   5   2  -2  932.31   17.81   0
   6  -2   1   94.17    7.08   0
   6   5   2   11.18    4.49   0
   7   5   4   39.24    4.90   0
   5   0  -2   14.18    4.06   0
   6   0  -1  338.80   11.26   0
   6   2  -1   25.15    4.67   0
   7   3   1  163.29    7.55   0
   7   4   2  237.99    8.13   0
   8   4   5   19.55    3.13   0
   5   1  -2    0.83    3.70   0
   6   1  -1    5.89    3.83   0
   8   0   4   26.12    4.16   0
   8   1   3   21.70    3.47   0
   8   2   3   25.95    3.95   0
   4  -2  -1  496.98   11.18   0
   5  -2   0  127.13    7.62   0
   7   0   1  227.55    9.12   0
   5   3  -1  121.51    7.42   0
   5   4   0  210.53    9.02   0
   6   4   1   23.66    5.24   0
   7   2   1   26.57    5.13   0
   4   2  -2  450.74   11.47   0
   6  -2   2  107.42    7.27   0
   7   1   1   27.33    4.67   0
   7   5   5  207.54    7.29   0
   8   0   5   29.77    3.92   0
   4   0  -2  147.78    6.86   0
   7   4   3   28.90    4.65   0
   8   1   4   68.51    4.75   0
   8   2   4    9.07    3.33   0
   4   1  -2  353.89   10.02   0
   6   0   0  352.93   11.63   0
   6   5   3  198.10    8.15   0
   7  -1   3    9.69    3.95   0
   4   3  -1  471.97   11.82   0
   5   0  -1  257.58    9.96   0
   5   2  -1   19.15    4.60   0
   5   5   2   36.84    5.59   0
   6   2   0  859.47   17.57   0
   7   0   2  423.38   12.01   0
   8   0   7    4.76    2.87   0
   8   3   5  153.16    5.99   0
   4   4   0  717.26   13.76   0
   6  -1   1  391.91   11.87   0
   6   1   0    3.29    4.13   0
   4  -2   0  329.64    9.52   0
   5  -2   1   23.03    5.27   0
   5   1  -1  509.96   13.06   0
   6  -2   3    9.81    4.87   0
   7   2   2  141.99    7.60   0
   7   5   6   83.84    5.15   0
   8   2   5    2.59    2.67   0
   6   3   1  487.53   13.28   0
   7  -1   4  148.15    7.13   0
   8   3   6  112.74    5.23   0
   5   4   1 1175.57   18.95   0
   7   3   3   74.53    6.42   0
   7   4   4   54.22    5.01   0
   8   1   6   23.34    3.40   0
   6   0   1  156.67    8.76   0
   7   5   7   33.62    3.94   0
   8   2   6   14.58    3.01   0
   4   2  -1 1679.01   20.71   0
   6  -2   4   81.66    6.50   0
   6  -1   2   43.16    6.18   0
   6   2   1  365.49   12.17   0
   7  -1   5  223.36    8.62   0
   8   1   7   34.75    3.49   0
   8   3   8   50.57    3.72   0
   4   0  -1  152.60    6.58   0
   6   1   1  166.20    8.48   0
   7   1   3  152.32    8.40   0
   7   2   3  107.31    6.88   0
   8   2   7    2.07    3.00   0
   4   1  -1  205.39    7.64   0
   5  -2   2   31.47    5.56   0
   5   0   0  499.70   12.56   0
   5   2   0 1474.45   21.36   0
   7  -1   6  341.70    9.77   0
   8   2   8   -0.33    2.52   0
   5   1   0   69.59    5.68   0
   6   3   2 1276.40   20.85   0
   7   0   4   10.11    4.63   0
   4   3   0   64.91    5.22   0
   4   4  -1   78.08    5.70   0
   5   0   4   81.21    5.08   0
   5   7   3  122.34    5.36   0
   6   1   6   30.53    4.83   0
   6   1   7    3.62    3.82   0
   6   4   2  374.46   10.51   0
   7   4   6    3.95    2.74   0
   7   5   7   36.56    3.36   0
   7   5   8   39.53    3.26   0
   4   1   0   -1.39    2.12   0
   5   0   5  169.63    6.96   0
   6   2   3   41.87    4.74   0
   7   4   7   13.35    2.83   0
   5   1   2  115.00    5.98   0
   6   6   4   20.97    3.57   0
   6   7   7   21.27    2.70   0
   4   7   2    2.69    3.55   0
   5   2   1  490.62   11.13   0
   5   5   1  229.59    8.06   0
   5   6   2 1008.32   15.07   0
   6   2   4  174.53    7.44   0
   6   3   3  417.07   11.06   0
   6   4   3    2.52    3.73   0
   4   5   0  779.98   13.60   0
   5   3   1   89.50    5.87   0
   5   4   1 1180.59   17.57   0
   5   7   4  111.03    5.26   0
   6   6   5  109.33    5.19   0
   4   2   0 3290.30   24.80   0
   6   5   4   61.77    4.86   0
   4   1   1  153.58    5.52   0
   5   2   2    4.08    3.01   0
   6   2   6  151.24    7.76   0
   3   4  -1  387.43    8.79   0
   4   3   0   65.47    4.50   0
   4   4   0  797.00   13.39   0
   6   2   7   28.80    4.03   0
   6   6   6    6.42    2.77   0
   5   1   4   12.99    3.77   0
   5   6   3   17.75    3.70   0
   5   7   5   76.24    4.52   0
   6   3   5  485.59   11.95   0
   6   3  10   23.26    3.71   0
   6   5   5   41.10    4.56   0
   4   7   3  209.39    6.97   0
   5   3   2  186.62    7.24   0
   5   4   2   22.81    4.80   0
   6   6   7    2.29    2.30   0
   6   6   8   22.81    2.93   0
   6   6   9   69.11    3.68   0
   6   3   6   29.74    4.91   0
   5   1   5   15.25    3.55   0
   5   2   3    8.42    2.93   0
   6   4  10   76.10    4.58   0
   6   5   6  107.06    5.71   0
   3   5   0  986.65   14.35   0
   4   2   1 3153.06   24.08   0
   5   1   8   21.94    4.30   0
   6   3   8    5.20    3.36   0
   6   4   6   86.78    5.63   0
   5   1   6   24.30    3.88   0
   5   5   3   45.13    4.49   0
   6   4   7   63.48    5.33   0
   6   5   8   40.93    4.22   0
   6   5   9   12.38    2.83   0
   3   6   1   10.91    4.03   0
   5   3   3   21.91    3.54   0
   5   7   7    9.96    2.68   0
   6   4   8   48.90    4.42   0
   4   3   1   22.32    3.11   0
   4   7   4  356.78    9.09   0
   5   2   4  107.23    5.60   0
   5   4   3   25.15    3.90   0
   5   7   8   82.15    4.25   0
   5   7   9   55.80    3.35   0
   5   6   5  166.83    7.39   0
   3   4   0  826.07   12.58   0
   5   2  10    6.35    3.63   0
   5   4  12    4.95    2.78   0
   5   5   4   17.02    3.91   0
   5   5  12    2.07    2.08   0
   4   2   2  599.88   10.95   0
   4   5   2   17.35    4.48   0
   5   3   4   66.40    5.50   0
   5   6  11   22.57    2.44   0
   3   8   6    1.58    3.25   0
   4   6   3   93.53    5.95   0
   5   3  11   -0.53    3.38   0
   5   6   6    1.29    3.54   0
   4   7   5  299.35    8.48   0
   5   2   9   78.66    5.79   0
   4   3   2   25.30    3.76   0
   5   2   7  424.40   10.96   0
   5   2   8  401.24   10.64   0
   5   5   5  140.23    7.18   0
   5   6  10   -0.19    2.23   0
   3   5   1  905.34   14.18   0
   4   1   4 1414.20   16.10   0
   5   3   5  139.54    6.82   0
   5   4   5  313.08   10.51   0
   5   6   8   52.62    4.62   0
   3   6   2    3.33    3.47   0
   5   3  10  317.09    9.29   0
   5   4  11    7.07    2.84   0
   4   2   3  726.51   12.14   0
   4   5   3   11.41    4.23   0
   5   3   6   20.93    3.91   0
   4   1   5  344.66    8.73   0
   4   6  12   20.59    2.67   0
   4   7  10    4.33    2.05   0
   5   4   6  185.45    8.08   0
   5   5   7    0.82    3.86   0
   5   5  10   10.89    3.19   0
   3   4   1  136.51    5.84   0
   4   7   7  120.41    5.75   0
   5   5   8   74.38    5.90   0
   2   8   6   71.82    5.11   0
   4   3   3   71.54    4.88   0
   4   4   3   18.60    3.68   0
   4   7   8  108.36    5.30   0
   4   7   9   12.04    2.65   0
   5   4   9    8.81    4.38   0
   4   1   8  926.87   14.80   0
   4   6   5   37.78    5.19   0
   5   4   8  224.59    8.61   0
   4   1   7  109.39    6.20   0
   4   2   4  515.72   10.58   0
   3   5   2  111.28    5.99   0
   3   6   3   29.36    4.29   0
   3   7   5   64.72    5.63   0
   2   8   8   56.88    3.93   0
   4   4  12    0.46    3.30   0
   4   6   6   38.43    4.65   0
   3   7  11    1.99    1.98   0
   4   3   4    1.62    2.97   0
   2   5   1  813.24   13.53   0
   2   6   2  373.15   10.27   0
   3   7   6  177.73    7.89   0
   4   2  10   20.18    4.80   0
   4   5   5   66.12    5.86   0
   3   5  13    0.60    2.47   0
   4   5  11   63.13    5.05   0
   4   6   8  232.89    8.76   0
   4   6   9   83.48    5.72   0
   2   7   4    2.62    4.19   0
   3   6   4   58.09    5.53   0
   3   7  10   -1.89    2.36   0
   4   2   6   99.68    5.85   0
   4   2   9   57.31    5.76   0
   3   6  12   56.24    3.79   0
   4   3   5  373.04   10.19   0
   4   4   5  116.19    6.60   0
   4   4  11   31.21    4.46   0
   4   5   6   19.08    4.26   0
  -4   1  -7  380.53   10.82   0
  -1   5 -10   12.11    3.50   0
   0   5  -2   24.29    4.37   0
  -4   1 -10  206.29    8.66   0
  -3   3 -11    7.56    4.34   0
  -4   1  -9   75.34    6.81   0
  -4   1  -8   70.95    6.45   0
  -3   2  -4 1079.42   16.01   0
  -3   3  -5  855.58   16.08   0
  -2   4 -11  148.16    6.31   0
  -3   1 -13  140.78    6.09   0
  -2   4  -4  487.83   12.47   0
  -1   5  -9   10.69    4.49   0
  -3   2 -12   11.68    4.13   0
  -3   3 -10  160.36    8.47   0
   1   5  -2  234.12    8.85   0
  -2   4 -10   52.04    5.57   0
  -1   5  -8  243.58   10.01   0
  -1   5  -5    0.46    4.10   0
   0   5  -3  202.75    8.64   0
  -3   3  -9   57.93    6.06   0
  -3   3  -7  242.67   10.28   0
  -2   3  -3   -0.34    3.04   0
  -2   4  -5  123.16    7.46   0
  -1   3 -13   40.08    3.45   0
  -1   5  -6   89.20    7.10   0
   2   5  -9  139.00    5.91   0
  -3   3  -8   72.83    6.55   0
  -2   4  -9  148.24    8.44   0
  -2   4  -6  120.99    7.47   0
  -1   4 -11   18.82    4.07   0
  -1   4  -3  459.35   11.41   0
  -2   4  -8   51.73    6.00   0
  -2   4  -7    6.31    4.43   0
   0   5  -4  569.77   13.87   0
   1   5  -9   30.20    4.72   0
  -3   1 -12  201.37    8.08   0
   1   5  -3  404.52   11.13   0
  -2   3 -11    0.63    4.38   0
  -2   3  -4   46.74    4.66   0
   0   5  -5   33.13    5.57   0
   2   5  -8   84.94    6.07   0
   0   5  -6  420.63   13.25   0
  -3   0 -12  436.08   11.28   0
  -1   3 -12   19.03    3.88   0
  -1   4  -4  528.28   12.59   0
   1   5  -8   35.28    5.34   0
   1   5  -4 1174.81   19.48   0
  -1   1 -14   38.11    3.65   0
  -2   1 -13   23.62    4.24   0
  -2   2 -12   13.07    3.95   0
  -1   4  -9  127.00    7.94   0
   2   5  -7  252.88    9.33   0
  -2   3  -9  555.44   14.88   0
  -1   2 -13  202.74    6.76   0
   1   5  -6  768.49   16.61   0
  -3   0 -11  179.51    8.50   0
  -3   1  -7   49.12    5.71   0
  -2   3  -6  174.46    8.22   0
  -1   4  -8  160.96    8.99   0
  -1   4  -7  268.51   11.10   0
  -1   4  -6  498.26   13.61   0
   0   4 -10    0.19    3.58   0
  -3   1  -9    3.81    5.12   0
  -3   1  -8   76.23    6.61   0
  -2   3  -7  468.83   13.00   0
   0   3 -12  125.99    5.91   0
   0   4  -3  369.43    9.96   0
   2   4 -10  263.35    7.97   0
  -2   2 -11   37.10    6.20   0
  -1   0 -14   66.00    4.49   0
   1   3 -12  160.81    5.93   0
  -3   0 -10   19.38    5.51   0
  -2   0 -13    1.24    3.52   0
   0   2 -13   15.29    3.30   0
   0   4  -9   16.79    5.46   0
  -3   0  -7  148.66    7.25   0
  -2  -1 -13   49.10    5.82   0
  -2   1 -12   44.66    5.84   0
   0   4  -4  666.80   14.04   0
   1   2 -13   40.61    3.55   0
  -3   0  -9   16.32    5.44   0
  -3   0  -8    1.10    4.73   0
  -1  -1 -14   19.84    3.71   0
  -1   2 -12   84.58    6.19   0
  -1   3 -10    0.37    4.74   0
  -1   3  -4    7.60    3.16   0
   2   4  -9   64.07    5.77   0
  -2   2  -9  267.41   10.67   0
   0   3 -11  224.28    8.60   0
   0   4  -7  236.39    9.97   0
   0   4  -6  386.16   12.31   0
   3   4  -8  133.39    6.99   0
  -2   2  -6    6.13    3.70   0
  -1   3  -9   57.49    6.10   0
   0   0 -14   26.02    3.09   0
   1   4  -3 1422.43   18.73   0
  -2   0 -12   32.97    5.38   0
  -2   2  -8  754.37   15.92   0
  -2   2  -7  751.86   15.05   0
  -1   3  -5  271.86    8.95   0
  -1   2 -11  199.98    9.29   0
  -1   3  -8  603.79   14.87   0
  -1   3  -6   12.67    4.67   0
   0   2 -12  319.37    9.75   0
  -1   3  -7  212.33    9.13   0
   0   1 -13   33.38    4.24   0
   0   3 -10  301.00   10.63   0
   1   4  -4  500.64   12.42   0
   2   4  -8  349.34   11.09   0
   3   3 -10  136.03    6.02   0
  -2  -1 -12   14.10    4.92   0
  -1   0 -13   -1.29    3.25   0
   2   2 -12    7.59    2.55   0
  -1   1 -12   11.93    4.02   0
   1   1 -13  121.05    5.57   0
   1   2 -12   39.15    4.22   0
   1   4  -6  665.70   15.41   0
   1   4  -5   72.43    6.14   0
   2   4  -7  304.84   11.30   0
  -2   0 -11  228.23    9.70   0
  -1   2 -10  213.39    9.55   0
   0   3  -9  148.74    8.70   0
  -1  -1 -13   -0.14    4.01   0
  -1  -2 -13   67.54    5.47   0
   0   2 -11  195.04    8.57   0
   2   4  -5  116.87    7.99   0
  -2  -1 -11   32.99    5.93   0
  -1   2  -9  324.65   11.22   0
   0   3  -8  939.29   18.62   0
   4   3  -8   10.32    4.44   0
  -2   0 -10   31.25    4.89   0
  -1   1 -11  120.95    7.41   0
   0   1 -12   20.38    4.87   0
   1   3  -9  129.41    8.18   0
   3   3  -9  192.94    7.80   0
  -1   0 -12   -0.86    4.23   0
  -1   2  -8  319.18   10.82   0
   0   3  -7  210.06    9.21   0
   0   3  -5  580.55   12.59   0
   2   0 -13   16.66    2.81   0
  -1   8   6    0.32    2.48   0
   1   3   7   74.43    4.67   0
   2   4   5  126.82    5.70   0
   0   3   8  218.71    7.61   0
   0   6   8    3.28    3.90   0
   1   6   7  131.06    6.83   0
  -3   5   8   44.27    4.11   0
   0   2   7 1316.82   15.39   0
   0   7   7  123.01    6.05   0
   0   8   4  115.50    5.60   0
   2   5   2   36.69    4.37   0
   2   5   4  988.78   14.85   0
  -3   4   8    1.55    4.19   0
   1   4   7  222.75    7.78   0
   1   5   7  275.75    9.30   0
  -4   5   7    1.57    2.72   0
  -2   7   7  102.66    4.79   0
  -1   6   8  105.22    5.75   0
  -1   8   5  237.57    7.01   0
   0   4   8  663.67   13.18   0
   0   5   8  344.53    9.99   0
   1   7   4  193.08    7.96   0
  -2   3   8    5.79    4.26   0
  -1   3   8   74.00    5.25   0
   1   6   6  112.33    6.49   0
   1   7   2   31.07    4.55   0
   0   7   6  393.57   10.30   0
  -2   5   8   44.76    4.46   0
  -1   4   8  260.99    8.82   0
  -1   5   8  184.27    7.68   0
   0   6   7  138.95    6.74   0
  -1   2   7  159.84    6.32   0
   1   4   6   69.99    5.10   0
   1   5   6  182.92    7.45   0
   1   6   5  566.55   12.81   0
  -4   6   6  145.48    5.04   0
  -2   8   4  169.49    5.57   0
  -3   8   3   11.01    2.29   0
  -2   7   6   97.88    5.20   0
  -1   6   7  142.06    7.26   0
  -1   7   6  104.43    5.63   0
  -1   8   3  105.95    5.28   0
   0   4   7  328.44    9.58   0
   0   5   7   29.12    4.17   0
   0   7   5   63.10    5.21   0
  -2   6   7  100.03    5.54   0
  -1   8   2   75.86    5.07   0
  -2   8   3    1.92    2.87   0
   0   6   6   30.64    4.44   0
   1   5   5  216.86    7.84   0
  -3   3   7   95.66    6.16   0
  -3   5   7  101.13    5.50   0
  -1   3   7  483.33   10.87   0
   1   4   5  161.55    6.19   0
   1   6   1    2.78    4.02   0
  -5   5   5  105.90    4.60   0
  -4   7   4  112.40    4.38   0
  -3   7   5   45.13    3.51   0
  -2   8   2   32.57    3.92   0
  -1   5   7  518.35   12.47   0
  -1   7   5  197.56    7.77   0
   1   6   2  209.83    7.66   0
  -3   8   1    1.15    2.35   0
  -2   3   7  511.63   11.57   0
   0   3   6  121.01    5.70   0
   0   5   6  410.45   11.07   0
   0   7   3  463.30   11.44   0
   1   5   4  366.41    9.61   0
  -3   6   6   93.16    5.08   0
  -2   7   5   37.54    3.84   0
  -1   6   6    9.60    3.76   0
   0   6   5    5.43    3.86   0
   0   7   1    5.14    4.24   0
   0   7   2   39.01    5.15   0
  -2   4   7    0.93    3.61   0
  -2   6   6  238.13    8.60   0
   0   4   6  441.90   10.47   0
   1   4   4 1298.55   15.81   0
  -1   7   4   57.86    5.24   0
   1   5   3 1236.32   16.57   0
  -5   4   5   31.36    4.41   0
  -4   4   6   14.35    4.22   0
  -4   7   3   71.72    3.96   0
  -2   7   4    5.20    3.88   0
  -1   5   6  138.82    7.66   0
   0   5   5  802.42   14.99   0
   0   6   4   52.95    5.27   0
   1   5   2    5.15    2.98   0
  -2   2   6   14.98    4.34   0
  -1   7   3   61.25    5.49   0
   1   5   1    3.66    3.20   0
  -3   6   5  231.53    8.36   0
  -2   5   6    1.38    4.46   0
  -1   3   6   46.24    4.25   0
  -1   4   6  532.27   12.21   0
  -2   6   5   90.96    6.37   0
   0   4   5    4.11    2.87   0
  -5   5   4   22.88    3.79   0
  -4   5   5  108.64    6.37   0
  -4   7   2  171.44    6.18   0
  -3   3   6 1066.23   16.90   0
  -3   7   3   70.35    4.86   0
  -2   7   3  168.70    7.67   0
  -4   6   4  149.51    6.28   0
  -2   3   6  108.50    6.53   0
  -1   7   1  100.20    6.42   0
   0   6   2   33.46    5.33   0
  -6   4   3    6.48    3.26   0
  -1   5   5  203.43    8.54   0
  -1   6   4  315.92   10.36   0
  -6   5   2   81.09    4.46   0
   0   6   0  158.85    7.69   0
   0   6   1   49.22    5.23   0
  -4   7   1    0.92    2.41   0
  -3   5   5   -4.08    4.43   0
  -3   6   4  145.79    7.27   0
  -2   6   4    5.88    4.51   0
   0   4   4 1247.25   16.66   0
  -5   6   2   76.88    4.74   0
  -4   4   5    6.74    3.87   0
  -2   5   5   18.71    4.21   0
  -1   4   5   79.40    5.86   0
  -1   6   3  139.04    8.13   0
   0   5   3 1261.64   18.05   0
  -5   4   4   35.36    4.81   0
  -4   3   5  431.55   11.58   0
  -4   6   3   59.56    5.38   0
  -4   7  -3   22.33    3.40   0
  -4   7   0    1.89    3.08   0
  -3   7   1   61.06    5.66   0
  -3   7  -3    6.35    3.82   0
  -1   5   4   72.67    6.18   0
  -4   7  -2   18.80    3.69   0
  -5   3   4   14.59    4.73   0
  -2   6   3  642.28   14.90   0
  -1   6   2  256.61    9.73   0
  -5   6   1   81.55    5.01   0
  -3   3   5   11.83    5.20   0
  -2   3   5  228.00    8.04   0
  -4   6   2  262.18    9.45   0
  -3   5   4   27.50    4.92   0
  -2   5   4  115.44    6.99   0
   0   5   1   21.30    4.69   0
  -2   3  10   12.40    3.61   0
   0   5  11    3.72    2.50   0
   0   7  10   76.43    3.73   0
   1   2   9   26.27    3.64   0
   1   3  10   89.13    5.70   0
   2   2   7   20.49    2.87   0
   2   7   8    2.68    2.70   0
   3   4   6    1.88    2.77   0
   0   1   8  901.59   13.32   0
   3   5   5  306.76    8.25   0
   1   4  10   18.15    4.09   0
   1   6  10   57.26    4.25   0
   1   8   7   -1.03    2.46   0
   2   3   8    3.06    3.26   0
   2   5   9    2.75    3.29   0
  -2   4  10    4.89    3.20   0
  -1   1   8   -1.68    3.64   0
  -1   3  10   98.06    5.97   0
   0   2   9   14.91    4.02   0
   1   5  10  440.77   10.68   0
   1   7   9    9.10    2.62   0
   2   7   7  138.54    6.12   0
  -2   5  10   89.07    4.56   0
  -1   2   9   82.76    5.72   0
  -1   6  10  102.21    4.48   0
   0   6  10   21.93    3.20   0
   1   2   8  954.44   13.96   0
   1   3   9  353.74    9.80   0
   2   7   6  160.55    6.59   0
   1   8   6  168.82    5.83   0
   2   4   8    4.67    2.97   0
  -3   4   9   37.83    3.85   0
  -3   5   9   14.49    2.79   0
  -1   4  10  301.03    8.79   0
  -1   5  10   18.30    3.74   0
  -1   7   9   16.38    2.60   0
   1   6   9    6.75    3.68   0
   2   5   8   35.65    4.25   0
   1   4   9  161.97    7.46   0
   1   7   8    0.29    2.60   0
   2   6   7  148.99    7.10   0
  -2   3   9   20.08    4.33   0
   1   2   7   36.42    3.31   0
   2   3   6   75.10    4.24   0
   2   4   7   -1.43    2.47   0
   2   5   7  186.10    7.55   0
  -2   6   9  181.39    5.70   0
  -1   8   7  216.59    5.34   0
   0   2   8  403.03    9.45   0
   0   6   9  233.44    8.04   0
  -1   1   7  197.13    6.82   0
  -1   3   9   71.12    5.25   0
   1   6   8   18.20    4.22   0
  -1   6   9  119.31    5.43   0
   0   4   9   78.05    5.23   0
   0   7   8    7.85    2.77   0
   0   8   6   81.77    4.50   0
  -3   6   8    5.55    2.42   0
  -2   2   8   23.23    3.97   0
  -2   4   9   23.34    3.71   0
  -1   2   8   89.90    5.33   0
  -1   7   8  129.91    5.22   0
   1   4   8    3.03    2.65   0
   1   5   8   31.84    4.87   0
   2   5   6  274.93    8.40   0
   2   6   5  216.62    7.56   0
  -3   7   7   47.63    2.78   0
  -1   5   9   23.29    4.34   0
   2   6   4  686.30   12.44   0
  -3   3   8    6.77    3.70   0
  -1   8   6    0.07    2.29   0
   0   8   5  127.69    5.53   0
   1   3   7   68.94    4.76   0
   1   7   6   40.94    4.46   0
   0   3   8  219.90    7.59   0
   2   4   5  129.50    5.36   0
   2   5   5    2.75    3.07   0
  -3   5   8   44.27    4.01   0
   0   6   8    6.43    3.23   0
   0   7   7  116.10    5.75   0
  -4   5   7   -0.52    2.60   0
  -3   4   8    1.25    2.85   0
  -2   6   8   32.14    3.47   0
   1   4   7  227.91    7.96   0
   1   7   5   45.55    4.41   0
   2   5   4  951.49   13.69   0
  -2   3   8    6.24    4.08   0
  -1   3   8   78.73    5.41   0
  -1   6   8  110.01    5.82   0
   0   4   8  678.99   13.27   0
   0   5   8  320.70    9.52   0
   1   5   7  312.26    9.36   0
   2   5   3  570.28   10.53   0
  -4   4   7   27.39    3.81   0
  -2   8   5   22.83    2.67   0
   0   8   3  158.32    6.00   0
   1   7   4  202.49    7.63   0
  -2   5   8   48.36    4.97   0
   1   3   6  116.43    5.03   0
   1   7   3  316.90    8.91   0
  -3   6   7   16.00    3.00   0
  -3   7   6   67.96    3.56   0
  -2   4   8   32.23    4.28   0
  -1   2   7  148.91    6.13   0
  -1   4   8  221.64    8.13   0
  -1   5   8  178.56    7.49   0
   0   6   7  143.03    6.91   0
  -4   6   6  142.81    4.84   0
  -2   2   7   34.41    4.20   0
  -1   8   4    3.34    2.89   0
   0   3   7  609.72   11.50   0
   1   4   6   63.17    4.45   0
   1   6   5  582.42   12.55   0
  -2   7   6   89.12    4.90   0
  -2   8   4  165.11    5.45   0
  -1   6   7  142.90    6.81   0
  -1   7   6  109.23    5.61   0
   0   4   7  305.97    9.05   0
   0   5   7   26.58    3.94   0
  -5   5   5  116.43    4.64   0
  -3   3   7   95.48    5.78   0
  -1   8   3  103.27    5.31   0
  -3   4   7   73.59    5.68   0
   0   6   6   24.55    4.77   0
   1   6   4  245.77    8.47   0
  -4   5   6  424.17    9.38   0
  -4   7   4  109.37    4.26   0
  -2   3   7  524.16   11.94   0
  -1   8   2   75.71    4.84   0
  -4   3   6  108.50    6.05   0
  -3   7   5   48.31    3.56   0
  -2   5   7   69.76    5.43   0
  -1   4   7  460.38   11.03   0
  -5   4   5   36.01    4.16   0
  -4   4   6   10.18    3.87   0
  -3   6   6   98.11    5.25   0
  -1   2   6  102.08    5.35   0
  -1   7   5  188.85    7.46   0
   0   3   6  123.79    5.36   0
   1   6   3  293.39    8.97   0
  -4   6   5  115.01    4.93   0
  -3   2   6  229.56    8.15   0
  -2   8   2   29.82    3.73   0
  -1   6   6   11.01    3.68   0
  -3   8   1    3.02    2.34   0
  -2   6   6  225.34    8.09   0
   0   6   5    1.42    3.17   0
   1   5   4  366.73    9.41   0
  -2   2   6   12.65    3.52   0
  -2   8   1   27.67    3.68   0
  -4   4   4   69.71    4.25   0
  -4   5   4  127.76    4.96   0
  -3   2   4   82.18    4.08   0
   0   5   7   31.46    3.32   0
   2   7   5   72.49    4.17   0
  -1   3   6   49.31    3.62   0
  -1   8   5  229.71    5.38   0
   1   7   6   37.21    3.71   0
  -2   4   6  480.37    9.54   0
  -2   8   4  171.09    4.62   0
  -1   7   6  103.91    4.51   0
   0   3   6  113.60    4.40   0
   0   8   5  132.48    4.56   0
  -3   4   5  436.94    8.88   0
  -3   5   5    0.74    3.06   0
  -3   7   4   51.81    3.26   0
  -2   5   6   -1.47    2.48   0
   0   7   6  379.20    8.13   0
   1   4   6   72.85    4.13   0
  -4   7   2  181.67    4.37   0
  -2   7   5   37.27    3.16   0
   2   4   5  132.21    4.44   0
  -4   3   3  481.67    8.67   0
  -4   6   3   59.19    3.34   0
  -3   8   2   35.32    2.31   0
  -1   6   6   11.98    3.43   0
   1   8   4  163.51    5.19   0
   2   6   5  247.62    6.76   0
  -1   4   6  512.49    9.65   0
   2   5   5    0.78    2.63   0
   2   7   4    1.56    2.79   0
  -1   5   6  134.72    5.68   0
  -1   8   4    1.61    1.86   0
   0   6   6   28.23    3.56   0
   1   7   5   40.29    3.65   0
  -4   4   3   18.78    3.39   0
  -4   5   3  499.31    9.08   0
  -3   3   4  491.54    8.81   0
  -2   8   3    6.94    2.08   0
  -1   7   5  193.09    6.11   0
   0   5   6  421.06    8.86   0
  -2   6   5   83.98    4.72   0
   0   7   5   65.87    4.51   0
  -4   7   1    1.26    1.68   0
  -3   7   3   70.32    3.63   0
  -3   8   1    2.98    1.71   0
  -2   4   5  268.27    7.24   0
  -1   3   5   21.48    2.45   0
   1   8   3  252.81    6.38   0
  -3   4   4  489.40    9.65   0
  -2   5   5   14.26    3.09   0
  -2   7   4    5.78    2.65   0
   2   6   4  732.48   11.01   0
   2   7   3   30.24    3.54   0
  -4   6   2  268.62    6.49   0
  -1   6   5  320.47    8.62   0
  -1   8   3  107.11    4.56   0
   0   6   5   -1.18    3.30   0
   1   7   4  193.62    6.41   0
  -1   4   5   27.23    3.20   0
  -1   7   4   59.35    4.53   0
   0   4   5    6.46    2.67   0
   1   8   2  160.67    5.51   0
  -4   7   0    2.50    2.09   0
  -3   8   0   16.09    1.99   0
   0   5   5  790.11   12.23   0
   0   7   4  241.61    7.47   0
  -4   5   2   88.12    4.67   0
  -3   6   3  225.67    7.00   0
   2   7   2   18.65    3.44   0
  -4   4   2    5.94    3.33   0
  -3   3   3  732.74   10.96   0
  -1   8   2   79.51    4.39   0
   2   6   3  483.72    9.37   0
  -4   6   1   51.98    4.10   0
  -3   8  -1  308.33    5.89   0
  -2   4   4  408.64    9.07   0
  -2   5   4  124.38    6.19   0
  -2   8   1   25.95    2.71   0
   1   6   4  234.39    7.30   0
   1   8   1   57.41    4.04   0
  -1   6   4  310.03    8.88   0
   1   7   3  331.69    8.36   0
  -5   5  -1   24.38    3.94   0
  -4   7  -1   15.18    2.42   0
  -3   4   3  350.47    8.51   0
  -1   7   3   70.00    5.16   0
   0   6   4   57.08    4.94   0
  -3   7   1   63.34    4.14   0
  -3   8  -2    5.30    1.74   0
   1   8   0   44.26    3.96   0
   2   5   3  568.16    9.56   0
  -3   6   2  294.16    8.40   0
  -2   7   2    6.84    3.65   0
  -2   8   0  220.75    6.00   0
  -1   5   4   71.46    4.79   0
  -1   8   1   77.63    4.38   0
  -4   5   1   51.65    4.75   0
  -4   7  -2   23.40    2.88   0
   0   5   4   67.57    4.48   0
   1   8  -1  150.83    5.43   0
  -4   3   1   30.23    4.04   0
   1   7   2   32.46    4.51   0
   2   6   2  387.17    8.80   0
  -4   4   1   76.08    5.17   0
  -2   8  -1   37.29    3.43   0
   1   6   3  288.13    8.12   0
  -5   5  -2  191.67    6.36   0
  -2   5   3   34.79    4.08   0
  -1   6   3  144.02    6.49   0
  -1   7   2  175.35    6.98   0
  -1   8   0  107.15    5.04   0
   0   8   0   65.62    4.51   0
  -3   3   2  169.91    6.15   0
  -2   4   3  819.35   12.72   0
   0   6   3   -0.62    2.90   0
   0   7   2   47.07    4.63   0
  -3   4   2  404.56    9.68   0
  -3   6   1   33.52    4.72   0
  -2   7   1  209.46    7.39   0
   0   8  -1   -2.92    3.15   0
   2   5   2   36.02    4.07   0
  -4   6  -1   89.64    5.43   0
  -2   6   2   36.12    4.48   0
  -1   8  -1   51.09    3.98   0
   1   7   1  236.18    8.17   0
   2   6   1   61.91    5.16   0
  -4   5   0  141.71    6.42   0
  -3   7  -1  245.37    7.67   0
  -2   8  -4   -1.36    2.08   0
  -2   8  -3    0.08    2.17   0
  -1   5   3   78.50    5.01   0
   0   8  -2  100.90    5.11   0
  -5   5  -3   46.21    4.33   0
  -1   7   1  106.54    6.45   0
  -1   8  -2   49.43    4.10   0
   0   5   3 1241.66   15.92   0
   0   8  -4   36.26    3.35   0
   0   8  -3  144.33    5.51   0
   1   6   2  206.58    7.33   0
  -5   4  -2   11.02    3.99   0
  -2   7   0  367.74   10.06   0
   0   7   1    4.09    3.57   0
  -4   4   0    5.25    3.96   0
  -2   5   2   55.45    5.40   0
  -1   6   2  254.01    8.40   0
  -1   8  -3   55.19    3.82   0
   1   7   0   20.12    4.49   0
  -4   3   0  275.44    8.01   0
  -4   6  -2  254.28    7.88   0
  -3   6   0   53.01    5.15   0
  -3   7  -2  120.59    5.72   0
  -2   6   1   35.75    4.52   0
   2   6   0  516.25   10.90   0
  -2   4   2  883.80   13.41   0
  -1   7   0   83.67    5.61   0
   1   5   2    4.92    3.01   0
   3   2  13   54.06    4.64   0
   4   1   7  114.31    6.06   0
   4   1   8  968.83   16.48   0
   4   5  12  148.38    5.73   0
   4   6   8  230.80    8.01   0
   4   6  10   63.30    4.35   0
   3   7  10   -0.52    2.63   0
   4   2   5  339.59    8.92   0
   4   2  11    4.93    3.69   0
   4   3  12  346.81    9.61   0
   4   6   9   83.55    5.31   0
   3   0   9   18.47    4.60   0
   3   7   8  301.21    8.10   0
   3   7   9   11.56    3.35   0
   4   4  12    0.64    2.67   0
   4   5   6   20.57    4.75   0
   2   3  14   64.79    4.04   0
   4   2  10   21.41    4.60   0
   4   5  11   63.45    4.70   0
   3   0   7  139.03    6.37   0
   3   0   8    2.77    3.32   0
   3   5  13    1.73    2.08   0
   3   6  12   52.55    3.68   0
   4   2   6  115.76    5.97   0
   4   3  11  919.24   16.39   0
   3   1  11  206.38    8.32   0
   4   2   7   38.09    4.83   0
   4   2   9   51.15    5.06   0
   4   4  11   28.14    4.10   0
   4   5  10   61.65    5.54   0
   3   4  13   58.47    4.24   0
   4   2   8  861.26   15.84   0
   4   3   6    4.18    3.13   0
   4   4  10   92.59    6.26   0
   2   1  12   16.50    3.72   0
   2   2  13    4.84    3.30   0
   3   1  10   -4.18    4.52   0
   3   6  11  424.61    9.67   0
   4   3   7  249.49    8.79   0
   4   3   8  314.88   10.43   0
   4   3   9  745.86   15.33   0
   4   4   7  293.29    9.66   0
   4   4   9  241.87    9.57   0
   2   0  10   30.35    4.52   0
   3   5   4   58.17    5.39   0
   4   4   8  269.47    9.67   0
   3   3  12  136.64    7.29   0
   2   5  13   49.38    3.85   0
   2   7  10   59.50    4.34   0
   3   2  11  373.34   11.04   0
   3   4  12   76.63    5.80   0
   2   6  12   99.67    4.77   0
   1   2  13   74.08    5.36   0
   2   0   9   21.06    4.81   0
   2   4  13    6.60    3.13   0
   3   1   6  202.02    7.01   0
   3   1   8    0.76    2.86   0
   3   5  11  419.47   11.21   0
   3   6   8  226.03    8.69   0
   3   6   9  321.59    9.61   0
   1   1  12   59.34    5.42   0
   2   1  11   33.16    4.65   0
   2   7   9    0.22    3.39   0
   3   2  10  342.48   11.08   0
   3   3  11  137.78    7.83   0
   2   2  12  499.85   12.10   0
   2   7   8    6.91    4.07   0
   3   4  11   77.94    5.96   0
   2   0   8  470.99   10.69   0
   3   5  10   -1.31    4.17   0
   1   5  13   30.38    3.11   0
   2   6  11   60.73    4.84   0
   3   2   9  393.74   11.26   0
   3   5   6   20.02    4.98   0
   1   3  13   69.60    4.80   0
   1   6  12   33.53    3.38   0
   2   5  12   76.93    5.01   0
   3   3  10   90.11    6.62   0
   3   4   5   63.92    5.62   0
   3   4  10  147.97    7.81   0
   3   5   9    4.09    3.94   0
   0   5  13   40.40    3.29   0
   1   4  13    3.24    2.48   0
   1   7  10  140.15    5.71   0
   2   1  10   17.27    4.38   0
   2   3  12   27.52    4.52   0
   2   4  12   80.39    6.12   0
   3   2   6   43.87    4.04   0
   3   2   7  256.46    8.47   0
   3   3   9  117.73    7.07   0
   0   3  13   22.37    3.78   0
   0   6  12    1.06    2.22   0
   2   6  10  103.99    6.14   0
   3   3   6  122.70    6.09   0
   3   3   8   72.46    6.28   0
   1   1  11   37.47    5.70   0
   1   2  12   28.17    4.46   0
   2   5  11  229.34    9.10   0
   3   3   7  471.47   11.70   0
   3   4   7   37.54    4.96   0
   3   4   8  223.52    9.04   0
   1   7   9   12.76    3.59   0
   2   1   9   72.27    5.71   0
   0   7  10   70.65    4.34   0
   1   0   9   50.79    5.23   0
   1   5  12   85.39    5.30   0
   1   6  11   24.29    3.95   0
   2   3  11   41.98    5.39   0
   1   7   8   -0.61    3.98   0
   2   2  10  485.79   12.85   0
   2   6   7  136.06    7.81   0
   2   6   8    8.52    4.12   0
   1   4  12    0.67    3.25   0
   1   7   7   -1.55    3.88   0
   2   5   4  943.39   15.58   0
   0   5  12   -2.54    2.83   0
   2   3  10   51.43    5.61   0
   2   4  10   39.13    5.39   0
  -1   2  12  190.44    7.81   0
  -1   5  12    3.50    2.58   0
   0   1  11  698.77   14.30   0
   0   6  11   48.75    4.01   0
   0   7   9  259.33    7.91   0
   1   2  11   82.50    6.49   0
   1   6  10   56.49    5.13   0
   2   5   9    0.34    4.04   0
   2   5   5    0.71    4.43   0
  -2   3  12   -0.19    3.22   0
  -2   4  12   38.07    3.31   0
  -1   6  11   -0.30    2.04   0
   0   4  12   10.52    3.48   0
   2   3   9   12.77    5.07   0
   2   5   8   35.36    5.14   0
  -1   1  11 1079.71   17.41   0
   0   7   8    6.92    4.15   0
   1   3  11   25.80    5.08   0
   1   4  11  208.55    8.98   0
  -1   3  12  235.73    8.01   0
  -1   4  12   44.13    4.03   0
   0   0   9   46.30    5.95   0
   2   2   7   16.25    4.19   0
   0   6  10   19.43    4.43   0
   0   7   7  117.16    6.98   0
   1   1   9 1050.66   17.58   0
   2   3   8    1.35    3.29   0
   2   4   8   -0.40    3.73   0
   0   2  11    9.51    5.33   0
   0   5  11    3.06    3.27   0
   0   7   6  369.59   10.81   0
   2   4   5  129.80    6.55   0
   2   4   7   -0.18    3.72   0
   2   3   7  335.19   10.16   0
   4   4   6  260.31    7.68   0
   4   5   7   65.50    5.04   0
   1   7  11   84.60    3.48   0
   2   8   9   40.59    2.75   0
   3   3   9  121.58    6.10   0
   3   4  10  147.34    6.46   0
   4   5   6   22.72    3.45   0
   0   3  11    2.42    3.25   0
   1   2  10   98.91    5.42   0
   1   3  11   23.74    3.69   0
   2   1   7  186.70    5.78   0
   2   4  11  236.04    7.73   0
   2   6  11   55.02    3.80   0
   3   5  10    1.62    3.17   0
   2   2   9  169.49    6.39   0
   3   2   6   51.26    3.46   0
  -1   4  11   72.04    4.30   0
   0   2  10   79.40    4.94   0
   1   1   8 1081.88   13.81   0
   2   3  10   43.79    4.24   0
   2   5  11  216.78    7.04   0
   2   7  10   58.67    3.35   0
   3   3   8   69.84    4.48   0
   3   4   9   51.36    4.49   0
   3   7   8  360.43    7.98   0
  -1   5  11    0.40    2.33   0
   1   6  11   25.56    3.06   0
   0   4  11   49.54    4.34   0
   1   8   9   11.42    1.88   0
   3   5   9    2.29    2.88   0
   1   5  11  133.37    5.41   0
   2   2   8  178.02    6.11   0
   2   4  10   36.98    4.07   0
   3   3   7  481.71    9.74   0
   3   7   6  177.66    6.19   0
   0   5  11    0.24    2.30   0
   1   2   9   21.86    3.35   0
   1   7  10  143.55    4.90   0
   2   6  10  111.49    5.12   0
   3   4   8  234.43    7.59   0
   2   5  10  238.17    7.74   0
   2   7   9   -0.94    2.03   0
   3   5   8  249.65    8.14   0
  -1   3  10   94.20    5.10   0
   0   7  10   64.31    3.25   0
  -1   2   9   74.56    5.14   0
   0   2   9   11.23    3.68   0
   0   3  10   81.86    4.98   0
   2   2   7   17.76    2.52   0
   3   3   5  239.37    6.35   0
   3   4   7   43.88    3.97   0
   3   6   7  282.66    8.10   0
   1   4  10   17.07    3.24   0
   1   8   8    4.42    2.14   0
   2   4   9   23.43    4.00   0
   2   8   5   84.52    4.26   0
   1   6  10   52.52    3.89   0
   2   3   8    1.24    3.06   0
   2   6   9   16.71    3.46   0
   3   6   4   57.70    4.53   0
   3   6   6   96.15    5.17   0
  -1   4  10  292.54    8.12   0
   1   5  10  438.25    9.99   0
   2   5   9   -0.60    2.47   0
   3   6   5   63.23    4.45   0
   0   6  10   19.66    2.81   0
   1   7   9   11.62    2.50   0
   3   4   4  121.05    5.32   0
   3   4   5   69.48    4.31   0
   3   5   6   21.79    3.52   0
  -1   5  10   20.03    3.00   0
   0   8   8   11.08    1.94   0
   3   5   5  312.68    8.33   0
  -1   7   9   18.81    2.39   0
   2   4   8    1.07    3.17   0
   2   6   8    4.10    3.48   0
   0   7   9  258.97    6.57   0
   2   3   7  330.20    8.11   0
  -2   6   9  187.36    5.45   0
   0   2   8  409.66    9.23   0
   0   3   9  272.29    8.20   0
   1   4   9  153.77    6.65   0
   1   6   9    4.31    2.71   0
   2   5   8   39.61    4.08   0
  -1   3   9   78.63    5.16   0
   1   2   7   39.95    3.29   0
   1   5   9  204.75    7.58   0
   1   7   8    0.05    2.43   0
   1   8   6  166.48    5.70   0
  -3   6   8    5.33    2.34   0
  -2   4   9   24.72    3.95   0
  -1   2   8   87.22    5.33   0
   1   3   8   27.64    3.44   0
  -2   5   9   10.00    3.20   0
  -2   7   8   40.67    2.90   0
   0   6   9  236.62    7.79   0
   0   8   7   38.71    2.96   0
   2   3   6   81.44    4.29   0
   2   4   7   -1.96    2.42   0
   2   7   5   82.46    5.24   0
  -1   6   9  110.95    4.96   0
  -1   8   7  218.93    5.28   0
   1   8   5   99.49    4.97   0
   2   5   7  182.54    7.07   0
   2   7   3   27.35    3.99   0
   2   7   4    3.57    3.38   0
  -1   4   9  324.21    9.01   0
   0   5   9   61.75    4.57   0
   0   7   8    8.29    2.61   0
   1   6   8   17.78    3.99   0
  -3   4   8    1.38    3.70   0
  -1   7   8  128.26    5.06   0
   1   4   8   -0.36    2.67   0
   1   7   7   -2.70    2.71   0
   1   8   4  162.58    5.94   0
  -3   5   8   46.24    3.96   0
   0   8   6   79.30    4.29   0
   2   4   6   24.31    3.13   0
  -2   8   6  134.92    4.11   0
   0   2   7 1340.68   15.15   0
   1   3   7   81.31    4.52   0
   2   5   6  263.58    8.13   0
  -2   3   8    7.00    4.04   0
  -1   8   6    0.89    2.23   0
   2   6   5  233.14    7.90   0
   0   6   8    2.81    3.09   0
   1   6   7  131.43    6.71   0
   1   7   6   42.56    4.32   0
   2   4   5  132.51    5.77   0
   0   4   8  649.59   12.61   0
   0   7   7  121.36    5.74   0
  -2   2   7   35.07    4.62   0
  -2   4   8   28.63    4.38   0
  -1   2   7  149.25    6.22   0
   0   5   8  337.91    9.60   0
   1   5   7  269.52    8.68   0
   2   6   3  478.76   10.15   0
  -4   6   6  145.57    4.66   0
  -3   6   7   17.60    3.10   0
  -1   4   8  238.76    8.49   0
  -1   7   7   38.59    3.50   0
   2   4   4  297.20    7.56   0
  -3   7   6   67.52    3.56   0
  -2   8   5   21.17    2.35   0
  -1   5   8  177.73    7.24   0
  -1   8   5  235.27    6.69   0
   2   5   4  966.92   13.91   0
  -3   3   7   98.72    5.77   0
   0   3   7  625.20   11.34   0
   0   6   7  142.06    7.01   0
   1   6   6  112.23    6.05   0
   2   5   3  563.50   10.58   0
   0   7   6  384.10    9.76   0
   1   7   4  199.59    7.38   0
   0   1   8  899.04   14.34   0
   1   2   8  975.26   15.23   0
  -3   6   9   28.61    2.74   0
  -2   3  10   12.68    4.33   0
   0   2   9   13.93    4.36   0
   0   4  10  196.32    8.35   0
   0   5  10   86.93    5.72   0
   1   4   9  162.28    7.83   0
   1   5   9  201.36    8.34   0
   1   7   6   41.56    4.69   0
   2   5   6  285.96    8.96   0
  -3   2   9  104.15    6.07   0
  -2   5  10   91.87    4.77   0
  -1   3  10   96.84    6.15   0
  -1   8   6   -0.47    2.54   0
   1   6   8   15.38    4.53   0
   2   4   6   26.59    4.29   0
   2   5   5    1.18    3.87   0
  -1   5  10   20.29    3.55   0
   0   6   9  224.07    8.21   0
  -1   4  10  289.29    9.24   0
   2   4   5  136.28    6.03   0
  -2   7   8   38.66    3.17   0
  -1   1   8    0.29    2.98   0
  -1   2   9   85.66    6.03   0
   1   2   7   35.89    3.66   0
   1   3   8   26.04    3.93   0
  -2   1   8    5.22    4.55   0
  -2   2   9  143.44    7.06   0
  -2   6   9  176.77    5.93   0
  -1   6   9  121.29    6.08   0
   0   3   9  274.78    9.21   0
   0   7   7  120.17    6.17   0
   1   4   8    3.66    4.13   0
   1   5   8   32.76    4.64   0
   1   6   7  131.06    7.08   0
  -3   3   9  167.67    7.18   0
  -3   5   9   17.44    2.69   0
   0   2   8  404.61   10.09   0
   0   4   9   78.97    5.57   0
  -3   7   7   51.16    3.05   0
  -1   3   9   72.03    6.05   0
   0   6   8    5.02    3.40   0
   1   3   7   71.58    5.08   0
  -5   4   7   10.33    2.72   0
  -3   6   8    7.28    2.67   0
  -2   5   9    9.41    3.69   0
  -1   5   9   19.59    3.90   0
   0   7   6  388.41   10.08   0
  -4   4   8   53.94    4.31   0
   1   4   7  217.27    7.86   0
  -4   6   7    4.27    1.90   0
  -3   2   8    3.20    4.51   0
  -2   4   9   21.82    4.16   0
  -2   7   7  100.13    4.64   0
  -1   1   7  209.19    7.45   0
   0   3   8  213.06    8.13   0
   1   6   5  546.24   12.06   0
  -2   6   8   38.17    4.19   0
  -1   6   8  106.13    6.02   0
   0   5   8  330.93   10.31   0
  -3   1   7   23.41    5.08   0
  -2   2   8   27.15    5.23   0
   0   2   7 1334.67   16.85   0
   0   4   8  686.64   14.23   0
   0   7   5   68.45    5.56   0
   1   3   6  111.98    5.25   0
   1   5   6  192.81    7.75   0
   1   6   4  237.28    8.45   0
  -3   5   8   46.49    4.67   0
  -2   1   7  234.57    8.52   0
  -1   7   6  109.81    5.91   0
  -4   2   7  208.44    8.09   0
  -3   3   8    5.10    3.87   0
  -3   4   8    5.26    4.17   0
  -1   3   8   78.02    5.58   0
  -4   5   7    2.90    2.85   0
  -3   6   7   15.94    2.96   0
  -2   5   8   52.87    4.99   0
  -2   7   6   97.44    5.16   0
  -1   4   8  224.14    8.70   0
  -1   6   7  145.58    7.63   0
   0   3   7  625.86   12.62   0
   0   5   7   32.77    4.53   0
   0   6   6   33.38    5.40   0
   1   5   5  201.62    7.66   0
  -2   4   8   29.18    5.26   0
   0   4   7  319.98   10.12   0
  -4   6   6  144.74    5.37   0
  -2   6   7  116.03    6.22   0
   1   4   5  158.90    6.32   0
  -5   4   6    1.99    3.24   0
  -4   3   7   48.67    4.77   0
  -5   3   6   63.27    5.20   0
  -4   7   4  111.43    4.57   0
  -3   2   7   82.46    6.76   0
  -3   7   5   50.74    3.83   0
  -3   5   7  112.21    6.42   0
  -2   2   7   35.57    4.74   0
  -1   5   7  515.87   13.21   0
   0   5   6  424.58   11.47   0
   0   6   5    2.35    3.79   0
  -2   5   7   77.38    6.46   0
  -1   3   7  485.12   11.78   0
  -1   6   6    7.31    4.12   0
  -1   7   4   53.76    5.66   0
   0   3   6  117.79    6.13   0
  -5   6   4   13.37    2.64   0
  -3   1   6  193.18    8.24   0
  -3   6   6   96.25    5.55   0
  -2   1   6 1530.87   18.69   0
   0   4   6  423.15   10.71   0
  -6   4   4  229.92    6.59   0
  -4   5   6  424.33   10.68   0
  -3   4   7   66.80    5.71   0
  -2   3   7  490.16   12.34   0
   0   6   4   61.56    6.01   0
  -4   2   6  145.01    7.92   0
  -4   6   5  125.21    5.65   0
  -3   7   4   46.40    4.00   0
  -2   4   7    1.88    3.92   0
  -2   7   4    8.94    4.18   0
  -4   7   3   75.18    4.14   0
  -1   2   6  106.60    5.57   0
  -6   3   4    4.33    3.57   0
  -5   2   5   28.52    4.99   0
  -5   4   5   34.44    4.68   0
  -4   3   6  110.93    6.82   0
  -3   5   6    5.19    3.62   0
  -1   7   2  168.25    7.72   0
   0   6   3    1.88    3.81   0
  -4   1   5    3.34    4.90   0
  -3   2   6  219.15    9.04   0
  -3   6   5  235.84    8.61   0
  -2   2   6   18.93    4.65   0
  -2   5   6   -0.55    3.33   0
  -2   6   5   86.05    6.47   0
  -2   7   3  163.09    7.74   0
  -1   3   6   47.14    4.47   0
  -1   4   6  525.89   12.54   0
   0   4   5    2.91    2.84   0
  -5   6   3   15.76    2.71   0
   0   6   2   27.34    5.23   0
  -5   5   4   24.61    3.90   0
  -4   5   5  124.68    6.95   0
  -4   6   4  155.68    6.57   0
  -3   4   6  410.19   11.90   0
  -1   6   4  313.22   10.59   0
   0   5   4   61.70    5.12   0
  -2   4   6  483.73   12.54   0
  -1   5   5  215.60    8.82   0
  -6   4   3    8.90    3.37   0
  -3   1   5   68.57    5.73   0
  -3   7   2  130.79    6.50   0
  -4   3   3  474.99    9.39   0
   0   8   3  162.24    5.39   0
   1   5   5  203.49    6.14   0
  -4   5   3  493.24   10.12   0
  -3   3   4  504.72    9.74   0
  -3   8   1    1.05    1.54   0
  -2   4   5  264.04    7.70   0
  -2   5   5   22.38    3.70   0
  -4   4   3   21.08    3.94   0
  -4   7   1   -0.83    2.06   0
  -2   8   2   33.34    3.12   0
  -3   5   4   33.80    3.86   0
  -1   7   4   60.62    4.74   0
   0   4   5    4.69    2.14   0
   0   7   4  248.97    7.45   0
  -1   4   5   47.44    3.90   0
  -1   5   5  203.44    7.07   0
   0   5   5  765.83   12.21   0
  -3   8   0   14.07    2.06   0
   1   6   4  245.44    7.29   0
  -3   7   2  122.48    5.22   0
  -2   6   4    8.52    3.34   0
  -2   7   3  176.12    6.67   0
  -5   6  -1   12.43    2.73   0
  -4   7   0    2.32    1.85   0
  -2   3   4  794.87   11.79   0
  -2   8   1   28.43    3.18   0
   1   5   4  379.40    8.45   0
  -5   5   0  158.14    5.96   0
  -4   3   2  790.44   12.47   0
  -3   8  -1  295.51    6.14   0
  -2   5   4  122.97    6.36   0
  -2   4   4  415.45    9.53   0
   0   7   3  475.60   10.21   0
   0   8   1   45.72    4.18   0
  -4   4   2   -1.75    3.03   0
  -4   6   1   41.00    3.97   0
  -3   3   3  739.34   11.86   0
  -5   3   0  116.80    5.77   0
  -5   4   0  102.72    5.50   0
  -5   6  -2   48.62    3.53   0
  -4   7  -1   17.84    2.82   0
  -3   7   1   65.52    4.70   0
  -2   8   0  219.73    6.14   0
  -1   5   4   80.69    5.53   0
   0   5   4   67.46    4.92   0
   1   6   3  287.07    8.20   0
  -2   6   3  628.67   12.61   0
  -2   7   2    8.74    3.15   0
  -1   4   4    0.24    2.50   0
   0   4   4 1214.57   13.85   0
   0   8   0   71.03    4.65   0
  -3   6   2  297.40    8.80   0
  -5   5  -1   30.54    4.11   0
  -2   8  -1   37.12    3.44   0
  -5   6  -3  338.07    7.10   0
  -4   6   0    0.07    3.55   0
  -4   7  -2   21.19    2.71   0
  -1   7   2  175.46    6.99   0
   0   7   2   44.26    4.49   0
   0   8  -1   -1.63    3.10   0
   1   5   3 1278.74   14.97   0
  -3   7   0   72.98    4.66   0
  -2   5   3   41.54    4.33   0
  -4   3   1   30.93    4.32   0
  -4   4   1   72.77    5.66   0
  -3   5   2  148.83    6.96   0
  -2   4   3  864.05   13.61   0
   0   8  -2   98.01    4.87   0
  -5   4  -1  161.88    6.81   0
  -5   6  -4    2.16    2.23   0
  -2   8  -3    0.24    2.22   0
  -5   3  -1  428.59    9.76   0
  -5   5  -2  211.61    7.13   0
  -5   6  -5  120.72    4.32   0
  -4   7  -4    3.84    2.16   0
  -3   4   2  392.54    9.99   0
  -3   6   1   32.94    4.42   0
  -1   5   3   74.19    4.92   0
  -1   8  -2   48.15    4.22   0
  -4   6  -1   88.07    5.62   0
  -1   7   1  103.34    5.94   0
  -1   8  -4   72.85    3.98   0
  -1   8  -3   52.49    3.87   0
   0   7   1    7.54    3.75   0
   1   7   0   24.69    4.38   0
  -1   4   3 1624.26   17.41   0
  -2   7   0  373.27    9.99   0
  -1   6   2  269.30    8.70   0
  -2   5   2   57.27    5.00   0
  -5   4  -2    8.89    4.28   0
  -5   5  -3   49.51    4.57   0
  -3   5   1   19.22    4.27   0
   0   7   0   64.66    5.81   0
   1   5   2    5.10    2.99   0
   1   7  -1   55.91    5.07   0
  -4   4   0    3.22    3.62   0
  -4   6  -2  242.02    7.93   0
  -1   7   0   92.98    5.91   0
  -4   3   0  270.04    8.36   0
  -2   4   2  939.55   14.24   0
  -2   7  -1  252.09    8.57   0
  -5   3  -2   75.96    5.71   0
  -3   4   1   13.45    4.08   0
  -3   7  -3    4.00    2.68   0
  -1   5   2    6.87    3.26   0
   1   7  -2    2.74    3.81   0
  -5   5  -4  391.32    9.20   0
  -4   6  -3   82.39    5.81   0
  -3   3   1   28.75    4.00   0
  -1   6   1  121.74    6.46   0
   0   6   1   55.73    5.51   0
   0   7  -1   41.69    5.43   0
  -3   6  -1  220.85    8.60   0
  -3   7  -6   36.58    3.28   0
  -3   7  -4   19.14    3.04   0
  -2   7  -2  174.12    7.81   0
  -1   7  -1  335.42    9.97   0
  -5   4  -3   44.96    5.37   0
  -5   5  -5   10.36    3.55   0
  -3   5   0   76.44    6.47   0
  -3   7  -5   11.41    2.58   0
  -2   5   1    2.86    3.54   0
  -2   6   0  159.90    7.60   0
   1   6   0   24.31    5.00   0
  -4   6  -4   97.38    5.87   0
  -5   5  -6  137.09    5.84   0
  -4   4  -1   94.36    6.14   0
  -2   7  -3   22.54    4.61   0
  -1   7  -2   83.77    6.51   0
   1   5   1    2.97    3.11   0
  -5   5  -7   27.17    3.61   0
  -4   6  -5  269.27    8.23   0
  -3   6  -2  371.41   11.17   0
  -2   7  -7   34.67    3.31   0
  -1   6   0  321.39   10.29   0
  -5   3  -3    9.03    4.73   0
  -4   2  -1  102.80    5.86   0
  -4   3  -1    3.05    4.15   0
  -4   6  -7   17.38    2.86   0
  -4   6  -6   52.99    4.47   0
  -2   7  -4   38.70    4.39   0
  -1   5   1  357.00    9.56   0
   0   6   0  148.85    7.05   0
   0   7  -3  148.71    7.39   0
  -3   4   0   15.98    3.63   0
  -2   6  -1  379.33   11.33   0
  -2   7  -6   14.89    3.09   0
  -2   7  -5  108.73    6.02   0
  -3   5  -1   29.40    4.59   0
   0   7  -4  630.12   12.88   0
   1   6  -1    2.81    3.79   0
  -6   3  -4    5.76    4.46   0
  -5   0  -2   48.97    4.93   0
  -5   5  -4  399.29   10.54   0
  -4   6  -7   15.17    3.00   0
  -4   6  -5  261.55    8.14   0
  -3   3   1   34.15    4.00   0
  -6   4  -8  175.52    5.85   0
  -4   2   0  340.75    9.66   0
  -4   6  -6   51.25    4.35   0
  -2   4   1  129.02    6.06   0
  -5   5  -5    7.70    4.03   0
  -4   5  -2   29.67    4.98   0
  -2   5   0  709.31   13.71   0
  -5   3  -2   68.27    5.88   0
  -5   4  -3   43.92    5.90   0
  -4   4  -1   88.90    6.35   0
  -3   6  -3   30.73    4.68   0
  -2   6  -2  125.10    7.23   0
  -6   0  -5  327.85   10.36   0
  -5   5  -8    5.17    2.41   0
  -5   5  -7   24.28    3.72   0
  -3   4   0   15.95    3.98   0
  -5   2  -2   32.77    4.67   0
  -6   3 -10   -0.56    2.35   0
  -6   1  -5   83.45    6.86   0
  -5   0  -3   37.86    5.41   0
  -5   4  -4  261.07   10.17   0
  -4   3  -1    4.16    3.66   0
  -6   3  -9   80.26    4.77   0
  -6   3  -7   -2.19    3.19   0
  -5   3  -3    6.16    4.11   0
  -4   4  -2  377.98   11.96   0
  -3   6  -5  112.01    6.72   0
  -2   6  -3   68.27    6.23   0
  -6   0  -6   46.03    5.85   0
  -6   3  -8  498.11   10.88   0
  -4   2  -1   98.96    5.75   0
  -3   6  -7  112.06    5.76   0
  -3   6  -6   12.57    4.38   0
  -2   5  -1  861.92   15.41   0
  -5   4  -5    5.99    4.61   0
  -2   4   0  467.07   10.58   0
  -6   1  -6  288.68    9.93   0
  -5   1  -3   20.59    4.51   0
  -5   4 -10   12.94    2.83   0
  -3   4  -1  357.64   10.40   0
  -2   6  -4   42.22    5.72   0
  -6   0  -7  267.21    9.53   0
  -6   1 -11    5.23    3.23   0
  -5   3  -4   24.58    5.00   0
  -5   4  -6  412.13   11.60   0
  -4   3  -2  384.87   11.37   0
  -6   1  -7  125.17    7.01   0
  -5   4  -8   29.95    4.37   0
  -5   4  -7   52.04    4.95   0
  -4   5  -6  109.86    6.66   0
  -2   6  -5   54.38    5.90   0
  -6   0 -10  189.69    7.32   0
  -6   0  -8  283.64    9.18   0
  -6   1  -8  193.85    8.40   0
  -4   5  -8   10.40    3.09   0
  -2   5  -2  176.75    8.27   0
  -2   6  -6   49.59    5.62   0
  -6   0  -9  151.99    7.03   0
  -6   1 -10    2.82    3.23   0
  -6   1  -9  362.45   10.12   0
  -5   2  -4  220.32    9.01   0
  -5   3  -5   68.24    6.53   0
  -3   3  -1   21.62    3.53   0
  -5   1  -4   54.71    5.49   0
  -3   4  -2   91.39    6.60   0
  -5   3 -11   78.07    4.51   0
  -4   4  -4   59.26    6.01   0
  -3   5 -10   13.37    3.03   0
  -2   4  -1  964.51   15.02   0
  -4   4 -11   31.29    3.23   0
  -5   2  -5  462.10   12.68   0
  -5   0  -5  170.59    7.62   0
  -5   3 -10   78.77    5.12   0
  -5   3  -7   84.53    6.44   0
  -4   4  -5  532.77   13.89   0
  -2   5  -3   13.99    4.41   0
  -5   1  -5  183.46    8.36   0
  -5   3  -9    9.67    3.76   0
  -3   5  -9  238.72    7.81   0
  -5   2  -6  122.60    8.11   0
  -4   2  -3  191.09    7.77   0
  -4   4 -10   20.12    3.35   0
  -4   4  -6  186.48    9.29   0
  -3   3  -2    2.44    3.49   0
  -3   4  -3   26.60    4.56   0
  -4   3  -4  429.06   11.94   0
  -5   0  -6   62.92    6.31   0
  -5   2 -11  112.67    5.93   0
  -4   4  -9   18.45    3.91   0
  -4   4  -8   88.37    6.79   0
  -4   4  -7    1.71    3.72   0
  -2   4  -2  272.80    8.83   0
  -2   5 -10    6.99    3.36   0
  -2   5  -4   35.84    5.70   0
  -5  -1  -7   21.38    5.46   0
  -5   1 -12   12.61    3.47   0
  -5   1  -6  275.92   10.07   0
  -5   2  -7  615.51   14.65   0
  -4   3 -12  203.10    6.24   0
  -1   5  -3   33.87    5.35   0
  -5   2 -10    7.92    3.66   0
  -5   2  -8  134.48    8.04   0
  -3   4  -4   -3.52    3.98   0
  -5   0 -12  340.03    8.87   0
  -5   2  -9  123.65    7.28   0
  -4   2  -4  520.05   12.68   0
  -4   3  -5  165.07    8.02   0
  -2   5  -5   78.11    6.88   0
  -5  -1  -8   28.11    5.41   0
  -5   0  -7  135.24    7.86   0
  -4   2 -13   39.71    3.22   0
  -3   4 -11   14.27    2.79   0
  -2   5  -9   97.50    5.80   0
  -4   3 -11  131.99    6.16   0
  -3   3  -3  497.36   11.70   0
  -2   5  -6  115.79    7.75   0
  -5  -1 -10  186.16    8.08   0
  -5  -1  -9  779.01   15.08   0
  -4   3  -6    4.87    4.18   0
  -3   4  -5   41.08    5.40   0
  -2   5  -7   71.25    6.03   0
  -1   5  -4   11.18    5.16   0
  -5   0  -8  402.20   11.59   0
  -4   3 -10   78.06    6.10   0
  -3   4 -10  229.56    8.51   0
  -5   0 -10   38.38    5.15   0
  -5   0  -9  136.47    7.45   0
  -4   3  -9   20.70    5.16   0
  -4   3  -7  136.53    7.99   0
  -3   4  -6   60.21    6.59   0
  -1   5  -9   13.78    4.57   0
  -4   2 -12  261.08    8.37   0
  -4   3  -8   47.43    5.63   0
  -3   4  -9    9.16    4.83   0
  -1   5  -5   -0.41    4.90   0
  -3   3  -4  786.52   15.24   0
  -3   4  -8  202.01    9.15   0
  -3   3 -12   38.37    3.81   0
  -1   5  -8  252.41    9.23   0
   4   2  -1 1677.15   14.80   0
   6   6   3   62.22    3.66   0
   6   7   6    9.85    1.87   0
   5   4  10    4.98    2.73   0
   6   4   3   -0.02    3.07   0
   5   2   2    3.11    2.75   0
   4   3  10    3.67    3.13   0
   5   5   0    3.61    2.85   0
   6   4   7   67.77    4.48   0
   4   1   6  265.90    6.92   0
   5   2   3    6.58    3.07   0
   5   2   6  138.68    6.08   0
   5   5  10    8.02    2.84   0
   5   6  10    0.53    1.97   0
   6   4   5   87.04    5.10   0
   6   5   7    8.01    2.94   0
   6   6   7    3.35    2.04   0
   5   2   4  103.54    5.33   0
   5   2   5  341.01    8.92   0
   6   6   6    5.69    2.18   0
   4   1   3  284.69    6.93   0
   5   3   8  401.68   10.00   0
   5   7   2   49.39    3.50   0
   4   1   4 1428.48   14.87   0
   5   4   9    6.07    3.39   0
   5   6   1   74.75    4.55   0
   5   3   2  189.50    6.74   0
   5   3   7  245.46    8.21   0
   5   5   1  235.66    7.53   0
   4   7  10    3.56    1.74   0
   5   3   3   25.03    3.36   0
   5   3   6   21.01    4.07   0
   5   7   8   69.32    3.63   0
   4   2   7   31.09    3.90   0
   4   8   2   81.27    3.80   0
   5   3   4   73.65    4.85   0
   5   3   5  147.60    6.56   0
   5   7   7   11.17    2.51   0
   4   5  10   58.20    4.36   0
   4   6  10   63.12    3.99   0
   5   6   8   49.16    3.88   0
   4   2   2  564.43    9.72   0
   4   8   8   39.45    2.70   0
   5   7   5   77.59    4.13   0
   5   7   6   73.96    4.02   0
   4   6   0   58.96    4.46   0
   5   4   4  627.67   12.48   0
   5   4   6  187.89    7.36   0
   5   5   3   44.79    4.72   0
   5   6   7    2.84    2.98   0
   4   2   3  642.22   10.82   0
   4   3   8  307.90    8.42   0
   4   4   9  227.61    7.67   0
   4   7   1  314.11    7.63   0
   4   8   3  155.22    4.96   0
   5   5   7    1.29    2.85   0
   5   5   6    9.40    3.57   0
   5   6   5  159.65    6.69   0
   5   6   6    1.15    2.69   0
   3   7  10   -0.79    1.96   0
   4   5   0  798.03   12.44   0
   4   8   7    3.49    1.72   0
   3   3   9  104.79    5.33   0
   4   8   6   84.95    3.94   0
   3   8   1   72.63    4.02   0
   4   5   9   32.76    3.76   0
   4   8   5   33.42    2.67   0
   4   3   2   27.28    3.20   0
   4   7   2    7.69    3.29   0
   3   2   7  267.99    6.81   0
   3   5  10    2.70    2.95   0
   3   6  10    4.37    2.58   0
   4   3   6    2.11    2.79   0
   4   4   1  105.66    5.17   0
   4   3   3   67.86    4.08   0
   4   5   1   51.11    4.37   0
   3   6  -1   64.72    4.42   0
   3   8   8   55.67    3.10   0
   4   3   4    5.84    2.40   0
   4   3   5  385.48    8.57   0
   4   5   8  312.15    8.81   0
   4   6   8  219.75    7.01   0
   4   7   7  116.07    4.96   0
   2   7  10   56.03    3.19   0
   3   7   0  247.30    6.82   0
   4   4   7  297.35    8.24   0
   3   2   6   46.88    3.30   0
   3   3   8   68.31    4.47   0
   3   4   9   48.45    4.23   0
   3   8   2   19.62    2.85   0
   4   4   2   11.75    2.65   0
   4   6   2   41.73    4.00   0
   4   7   4  340.89    8.34   0
   4   7   5  310.91    8.18   0
   4   7   6  158.54    5.81   0
   3   5  -1  935.51   12.34   0
   4   4   6  242.83    7.59   0
   3   8   7   95.44    3.96   0
   4   4   3   20.18    2.92   0
   4   4   5  116.88    5.50   0
   4   6   3   87.60    5.03   0
   2   9   5   23.48    2.15   0
   3   5   9    5.25    3.09   0
   3   6   9  317.79    7.97   0
   3   8   3   77.12    4.16   0
   4   4   4   70.40    4.19   0
   4   5   3   12.75    3.28   0
   4   5   6   21.66    3.85   0
   4   6   4  186.79    6.97   0
   4   6   6   38.18    3.71   0
   3   8   6   -0.85    1.85   0
   4   5   4    5.33    3.09   0
   4   5   5   68.26    4.74   0
   4   6   5   32.22    4.00   0
   3   3   7  498.51    9.28   0
   3   7   1   13.41    2.81   0
   3   7   8  333.91    7.65   0
   3   8   4   14.68    2.50   0
   2   8   8   54.87    3.06   0
   3   4   8  227.14    7.15   0
   2   7   9   -2.20    1.81   0
   2   8   1    5.32    2.58   0
   3   4   0  823.97   10.83   0
   3   5   0  980.38   12.78   0
   3   6   8  228.90    7.31   0
   3   7   2    5.53    3.12   0
   3   7   7  157.36    5.98   0
  -4   3   3  459.93   10.80   0
  -4   4   3   13.98    4.52   0
  -4   6   2  268.35    8.13   0
  -3   6   3  230.63    8.31   0
   0   5   4   66.06    4.63   0
   0   7   2   43.94    4.61   0
  -5   6   0   68.28    3.95   0
  -4   7   0    3.24    2.67   0
  -5   5   1   32.43    3.85   0
  -2   3   4  824.52   12.92   0
  -2   5   4  114.10    6.11   0
  -2   8  -1   36.90    3.53   0
  -1   5   4   77.41    5.49   0
   0   6   3   -1.21    3.69   0
  -6   5  -2  141.79    5.14   0
  -5   2   1  216.11    7.65   0
  -3   2   3  778.45   12.30   0
  -2   4   4  423.00   10.15   0
  -2   7   2    8.39    3.30   0
  -1   7   2  174.07    7.12   0
  -3   7   1   66.22    4.52   0
  -2   6   3  629.62   12.92   0
  -2   8  -2   23.56    3.20   0
  -1   4   4    2.57    2.68   0
  -5   3   1  137.08    6.76   0
  -5   4   1  250.88    8.26   0
  -5   6  -1   13.23    3.08   0
  -4   2   2  288.49    8.36   0
  -4   7  -1   14.30    2.93   0
  -3   5   3  182.64    7.52   0
   0   7   1    1.17    3.84   0
  -6   5  -3   14.60    2.85   0
  -5   5   0  177.95    7.18   0
  -3   3   3  748.41   12.93   0
  -3   4   3  343.97    9.69   0
  -4   4   2    2.04    3.17   0
  -3   7   0   71.08    5.17   0
  -1   7   1  103.46    6.17   0
   0   5   3 1246.17   15.82   0
  -6   4  -2    0.36    3.31   0
  -5   6  -2   53.28    4.05   0
  -4   7  -2   20.15    2.81   0
   0   6   2   30.81    4.64   0
  -6   5  -4    0.22    2.52   0
  -2   6   2   41.48    5.23   0
  -1   5   3   79.28    5.09   0
   0   7   0   48.51    5.03   0
  -6   3  -2  176.85    6.98   0
  -5   2   0  141.46    6.78   0
  -4   5   1   53.87    5.23   0
  -4   6   0    1.50    2.98   0
  -4   7  -3   22.68    3.15   0
  -2   3   3  461.18    9.65   0
  -2   4   3  861.97   14.25   0
  -6   5  -5  263.66    6.25   0
  -3   5   2  156.28    7.31   0
  -3   6   1   35.31    4.50   0
  -3   7  -1  235.05    7.89   0
  -5   5  -1   26.55    3.99   0
  -5   6  -3  349.15    8.03   0
  -4   7  -5    2.39    2.03   0
  -4   7  -4    4.63    2.09   0
  -1   4   3 1618.84   17.61   0
  -1   7   0   85.44    6.01   0
  -6   4  -3    1.57    3.11   0
   0   7  -1   23.15    4.63   0
  -5   6  -4    1.67    2.63   0
  -4   2   1  496.78   10.49   0
  -4   6  -1   89.19    6.00   0
  -3   3   2  176.56    6.75   0
  -3   7  -2  118.46    5.89   0
  -2   5   2   58.41    5.14   0
  -2   6   1   34.49    5.13   0
   0   6   1   49.58    4.75   0
  -6   3  -3   24.32    4.40   0
  -5   6  -6   43.54    3.03   0
  -5   6  -5  124.15    4.73   0
  -4   5   0  147.75    7.50   0
  -3   6   0   56.09    5.85   0
  -1   7  -1  327.44    9.81   0
  -6   4  -4   13.49    3.54   0
  -3   5   1   17.82    4.12   0
  -3   7  -3    6.26    3.34   0
  -1   6   1  120.51    6.40   0
  -5   2  -1   16.71    4.09   0
  -2   4   2  930.60   14.69   0
  -6   4  -5   72.71    5.01   0
  -1   7  -2   77.86    5.83   0
  -6   3  -4    5.30    4.03   0
  -4   4   0    6.65    3.67   0
  -4   5  -1   19.07    5.22   0
  -3   4   1    7.88    4.32   0
  -3   6  -1  218.34    8.80   0
  -2   6   0  161.50    7.46   0
   0   6   0  151.32    6.95   0
  -6   4  -6   85.08    5.04   0
  -2   5   1    3.62    3.57   0
  -1   6   0  308.74    9.87   0
  -1   7  -3   68.36    5.83   0
  -6   4  -7   51.91    4.14   0
  -4   2   0  323.69    8.84   0
  -3   3   1   33.92    4.28   0
  -3   5   0   66.53    5.45   0
  -2   7  -6   18.87    3.47   0
  -2   7  -4   30.02    4.55   0
   0   5   1   26.26    3.87   0
  -5   5  -4  417.96   10.47   0
  -4   6  -4   89.24    5.79   0
  -2   7  -5  103.66    5.74   0
  -1   7  -5  127.52    6.22   0
  -1   7  -4  218.15    8.10   0
  -6   3  -5   79.29    5.67   0
  -5   3  -2   89.37    6.68   0
  -4   6  -8   81.04    3.77   0
  -3   6  -2  372.84   11.45   0
  -5   5  -5    9.73    3.91   0
  -4   5  -2   23.73    4.64   0
  -4   6  -5  266.31    8.50   0
  -2   6  -1  388.48   11.21   0
   0   6  -1  122.73    6.95   0
  -4   6  -7   17.11    2.80   0
  -4   6  -6   50.50    4.13   0
  -2   4   1  123.36    5.92   0
  -6   2  -5   34.62    4.92   0
  -5   5  -8    8.96    2.41   0
  -5   5  -6  139.16    6.10   0
  -2   5   0  740.97   14.62   0
  -1   6  -1   68.68    5.72   0
  -3   5  -1   29.13    4.47   0
  -6   3  -7   -1.80    3.58   0
  -4   5  -3   64.33    6.24   0
  -2   6  -2  119.05    6.93   0
   0   5   0  290.87    8.58   0
  -6   3  -8  515.34    9.95   0
   0   6  -2   34.20    5.52   0
  -6   2  -6    6.11    4.12   0
  -4   2  -1  100.79    5.68   0
  -4   4  -2  374.14   11.40   0
  -3   3   0  168.61    6.65   0
  -1   6  -2    0.34    4.79   0
  -3   6  -8   43.10    3.64   0
  -5   2  -3    9.76    4.04   0
  -5   4  -5    1.80    3.79   0
  -3   5  -2  103.70    6.55   0
  -3   6  -7  107.81    5.76   0
  -3   6  -6   13.18    4.20   0
  -2   5  -1  882.92   15.98   0
  -2   6  -3   68.32    6.05   0
  -2   4   0  480.59   10.72   0
  -7   2  -4   19.93    4.08   0
  -7   3  -5   83.46    4.79   0
  -6   5  -6   10.97    2.39   0
  -4   4   1   74.76    5.87   0
  -4   5   0  151.65    7.77   0
  -4   6  -2  235.96    8.61   0
  -2   4   2  934.94   15.16   0
  -5   1   0  342.37    9.98   0
  -3   3   2  171.35    6.99   0
  -3   6  -1  226.26    9.02   0
  -1   5   1  354.81    9.65   0
  -1   6  -1   75.50    6.49   0
  -6   4  -3    1.70    3.81   0
  -5   5  -2  203.32    8.20   0
  -2   5   1    4.63    3.48   0
  -7   3  -6  179.90    5.96   0
  -5   2   0  136.43    7.58   0
  -4   3   1   34.63    4.71   0
  -4   6  -3   80.35    6.04   0
  -2   6  -1  395.06   11.49   0
  -7   2  -5   -2.23    3.63   0
  -7   3  -7   53.36    3.81   0
  -5   4  -1  155.67    7.82   0
  -4   2   1  503.26   11.65   0
  -6   1  -2   39.87    5.67   0
  -6   2  -2  100.80    6.96   0
  -5   5  -3   52.05    5.55   0
  -4   5  -1   20.37    4.61   0
  -4   6  -7   16.29    3.40   0
  -4   6  -4   99.88    5.96   0
  -3   4   1    9.31    3.81   0
  -3   5   0   73.20    6.16   0
  -1   6  -2   -0.25    5.23   0
  -6   4  -4   11.21    4.18   0
  -4   4   0    3.68    3.82   0
  -2   6  -2  124.22    7.40   0
  -7   2  -6   43.88    4.66   0
  -5   5  -4  382.67   11.07   0
  -2   4   1  137.14    6.45   0
  -6   4  -5   63.65    5.05   0
  -5   4  -2    5.77    4.25   0
  -4   5  -2   28.87    5.65   0
  -3   3   1   32.20    4.03   0
  -7   1  -6  340.08    9.30   0
  -7   2  -7   32.15    4.12   0
  -5   5  -5   12.39    4.13   0
  -3   5  -1   26.84    5.53   0
  -3   6  -4  161.96    8.23   0
  -2   6  -3   67.99    6.14   0
  -7   2  -8    0.34    2.98   0
  -6   4  -8  172.60    6.02   0
  -6   4  -6   81.58    5.19   0
  -5   1  -1 1149.44   17.72   0
  -5   2  -1   14.05    5.09   0
  -5   5  -8    5.44    2.38   0
  -4   3   0  273.28    9.60   0
  -3   6  -6    9.54    4.52   0
  -6   2  -3    8.79    4.30   0
  -6   4  -7   53.12    4.42   0
  -5   5  -7   24.01    3.40   0
  -4   4  -1   92.91    6.65   0
  -3   4   0   13.44    3.80   0
  -2   6  -4   36.12    5.32   0
  -7   1  -7  115.32    6.50   0
  -6   1  -3   50.05    5.59   0
  -5   4  -3   50.67    6.47   0
  -4   2   0  314.45    9.56   0
  -4   5  -3   65.31    6.28   0
  -1   5  -1  257.82    9.11   0
  -5   3  -2   96.06    7.50   0
  -7   1  -8   26.03    4.76   0
  -3   5  -2  105.99    6.96   0
  -2   4   0  485.97   11.22   0
  -6   3  -5   75.17    6.05   0
  -4   5  -4  265.50   10.70   0
  -6   2  -4   78.11    6.28   0
  -5   4  -4  268.12   10.20   0
  -4   4  -2  385.43   12.28   0
  -4   5  -9   59.05    4.27   0
  -5   2  -2   33.18    5.63   0
  -4   3  -1    4.92    3.82   0
  -4   5  -5  230.01    9.81   0
  -3   4  -1  358.41   10.80   0
  -1   5  -2  236.79    9.01   0
  -6   1  -4    0.62    5.01   0
  -6   3 -10   -0.13    2.12   0
  -6   3  -6  243.03    8.92   0
  -5   4 -10   15.05    2.85   0
  -3   5  -3   25.86    4.83   0
  -6   3  -7    0.01    3.86   0
  -5   1  -2  491.65   11.88   0
  -5   3  -3   11.10    4.34   0
  -5   4  -5   -1.34    3.74   0
  -4   5  -7   82.57    6.43   0
  -4   5  -6  104.25    6.81   0
  -6   2  -5   33.92    5.80   0
  -6   3  -9   81.61    4.70   0
  -5   4  -9   18.68    3.80   0
  -5   4  -6  394.09   11.61   0
  -4   4  -3  349.46   11.45   0
  -3   5  -9  233.37    7.89   0
  -3   5  -4   46.44    5.79   0
  -2   4  -1  995.22   15.83   0
  -2   5  -3   15.75    5.23   0
  -5   4  -8   31.54    4.55   0
  -5   4  -7   62.95    5.35   0
  -1   5  -3   37.75    5.23   0
  -5   3  -4   21.24    4.76   0
  -4   3  -2  362.35   11.00   0
  -3   4  -2   90.81    6.35   0
  -6   2 -11    0.46    2.51   0
  -6   2  -6    8.32    4.67   0
  -3   3  -1   25.76    3.96   0
  -2   5  -4   43.86    6.36   0
  -1   5  -4    6.51    5.44   0
  -6   2 -10   15.51    3.12   0
  -5   0  -3   32.35    5.35   0
  -5   1  -3   21.01    4.50   0
  -5   3 -11   78.30    4.69   0
  -4   4 -10   20.50    3.78   0
  -2   4  -2  256.62    8.85   0
  -2   5  -5   75.90    6.53   0
  -1   5  -7   -2.68    4.97   0
  -1   5  -5   -0.79    5.31   0
  -6   1  -6  310.58   10.63   0
  -6   2  -9  130.50    6.34   0
  -4   2  -2  260.12    9.00   0
  -4   3  -3  257.12   10.02   0
  -4   4  -5  545.81   14.37   0
  -3   4 -11   12.42    3.18   0
  -5   3 -10   76.00    5.26   0
  -4   4  -6  172.91    8.81   0
  -5   3  -7   90.43    7.32   0
  -4   4  -8   90.67    6.46   0
  -4   4  -7    0.32    4.06   0
  -3   3  -2    0.98    3.25   0
  -3   4  -4   -4.11    4.88   0
  -5   3  -8   -7.68    3.76   0
  -4   3 -12  195.71    6.12   0
  -6   0 -12    9.35    3.06   0
  -6   1  -8  191.55    8.74   0
  -5   1  -4   62.56    6.29   0
  -5   2  -5  509.18   14.01   0
  -4   3  -4  442.97   12.55   0
  -3   4 -10  222.45    8.41   0
  -6   0  -7  261.94   10.10   0
  -6   1 -10    1.07    3.31   0
  -5   2 -12   52.89    3.92   0
  -3   4  -5   37.39    6.33   0
  -4   2  -3  184.72    7.73   0
  -3   3  -1   21.84    3.59   0
  -1   6   0  329.71    9.81   0
  -1   7  -2   70.99    5.73   0
  -4   2  -4  508.41   11.15   0
  -3   6  -6   14.22    4.17   0
   0   7  -1   21.64    4.70   0
  -4   1  -5  336.39    9.02   0
  -4   3  -4  437.16   11.04   0
  -4   4  -9   15.90    3.46   0
  -4   4  -5  540.57   12.83   0
  -2   6  -2  126.23    7.84   0
  -4   3 -10   76.48    5.15   0
  -4   4  -6  173.56    8.32   0
  -3   5  -3   18.57    5.57   0
  -1   7  -3   74.55    6.04   0
  -4   4  -7    4.02    4.18   0
  -3   4  -2   94.11    5.97   0
  -4   2 -10    0.93    4.53   0
  -4   2  -5   64.37    5.70   0
  -2   5  -1  846.13   14.89   0
  -4   1  -6   12.46    3.83   0
  -4   3  -9   24.81    4.68   0
  -3   3  -2   -0.12    2.79   0
  -3   4 -11   12.90    3.09   0
  -3   5  -4   35.68    5.97   0
  -2   6  -9   92.53    4.39   0
  -2   6  -3   73.94    6.28   0
  -1   6  -1   72.19    6.41   0
   0   7  -2    0.20    4.24   0
  -3   5  -9  244.68    7.36   0
   0   5   1   16.90    4.20   0
   0   6   0  143.42    7.09   0
  -4   1  -8   69.07    6.04   0
  -4   1  -7  346.17    9.26   0
  -4   2  -9  128.89    6.93   0
  -4   3  -8   53.72    5.43   0
  -4   3  -7  129.34    7.42   0
  -3   5  -5  263.06   10.11   0
  -4   2  -7    9.31    5.02   0
  -3   5  -8   44.79    4.78   0
  -2   6  -8  212.09    6.97   0
  -2   6  -4   44.79    5.50   0
   0   7  -3  142.80    7.27   0
  -3   5  -6  195.98    8.45   0
  -2   4  -1  989.11   14.76   0
  -2   5  -2  162.49    7.68   0
  -2   6  -5   57.14    6.41   0
   0   7  -7   13.84    3.24   0
  -3   3  -3  498.91   11.24   0
  -2   6  -7  104.20    5.91   0
  -2   6  -6   60.10    5.58   0
  -1   6  -2    0.31    5.24   0
  -3   4  -4   -2.00    4.05   0
   0   7  -6  518.48   10.67   0
   0   7  -5    3.67    4.09   0
   0   7  -4  598.01   12.33   0
  -2   5 -10   10.80    3.24   0
   1   7  -3  103.71    6.54   0
  -3   4  -5   35.92    6.56   0
  -2   5  -3   13.84    4.49   0
   0   6  -1  105.84    6.54   0
  -1   5 -11   60.66    3.60   0
   1   7  -6   80.05    4.80   0
   1   7  -4   27.96    4.94   0
  -3   4  -6   50.64    6.42   0
  -2   4  -2  265.74    8.37   0
   1   7  -5  109.12    6.33   0
  -3   4  -7   11.62    5.18   0
  -2   5  -9   95.09    5.75   0
  -1   6  -8  141.43    6.41   0
  -1   6  -4   92.76    7.48   0
   0   5   0  317.69    9.01   0
  -3   3 -10  157.41    7.31   0
  -3   3  -5  858.04   15.48   0
  -2   3 -12   45.57    4.23   0
  -2   5  -8  476.02   12.35   0
  -2   5  -5   86.00    6.51   0
  -1   6  -7   43.14    4.99   0
  -1   6  -6  140.55    7.99   0
  -1   6  -5  214.57    9.17   0
   0   6  -9   15.22    2.92   0
   0   6  -2   26.54    4.90   0
  -3   3  -9   68.72    6.58   0
  -2   5  -7   73.24    6.78   0
  -2   5  -6  123.00    8.09   0
   1   6  -1    2.59    4.77   0
  -3   3  -6  580.90   13.29   0
  -2   4  -3  227.04    8.18   0
  -1   5 -10   13.11    3.71   0
   1   6  -9    4.14    2.72   0
  -3   2 -10   18.61    5.43   0
  -3   2  -5  769.19   13.35   0
   0   6  -3  403.49   12.01   0
  -3   1 -10  214.39    8.56   0
  -2   4 -10   51.61    4.92   0
   0   6  -8   11.81    3.38   0
  -3   2  -9   71.54    6.67   0
  -3   2  -6  161.30    7.52   0
  -1   5  -3   33.86    5.61   0
   0   5  -1  217.60    8.41   0
  -2   2 -12   20.64    4.56   0
  -2   3 -11    2.89    4.06   0
  -1   5  -9   15.98    4.39   0
  -3   1  -9    2.05    4.90   0
  -3   2  -8  141.04    7.37   0
  -3   2  -7   17.89    4.41   0
  -2   3  -3   -0.38    2.91   0
  -1   4 -11   17.34    3.72   0
   0   6  -6  214.60    8.95   0
   1   6  -8  125.55    6.16   0
   2   6  -8   18.29    3.33   0
  -3   1  -8   74.95    6.27   0
  -3   1  -7   47.28    4.83   0
  -2   4  -8   45.05    6.55   0
  -2   4  -5  129.70    7.21   0
  -1   5  -4    4.86    5.33   0
   0   5 -10   56.76    4.52   0
  -2   4  -7    4.13    5.08   0
  -2   4  -6  132.46    7.64   0
  -1   3 -12   18.90    3.84   0
  -1   4  -2   36.20    5.54   0
  -1   5  -8  265.30    9.92   0
  -1   5  -7   -7.56    4.98   0
  -1   5  -5   -0.07    4.26   0
   1   6  -3   28.81    5.24   0
   2   6  -2   26.17    5.86   0
  -2   3  -4   43.08    4.92   0
   1   5 -10   46.91    4.07   0
  -1   4 -10   20.88    5.03   0
   1   6  -5   87.00    7.46   0
   1   6  -4   29.57    5.32   0
   3   6  -6  113.73    6.14   0
   0   5  -9    3.15    3.39   0
  -2   3  -5  530.24   12.24   0
  -1   4  -3  460.66   11.12   0
   0   2 -13   13.79    3.10   0
   1   5  -1  545.15   12.27   0
   2   6  -6  131.92    7.50   0
   2   6  -4    3.08    5.26   0
  -2   1 -11   -3.23    4.75   0
  -2   2 -10  381.31   11.90   0
  -2   3  -6  176.60    8.05   0
  -1   2 -12   89.37    6.19   0
  -1   4  -9  122.59    7.67   0
   0   5  -8  266.16   10.04   0
  -1   4  -4  517.79   12.56   0
   4   8   3  133.93    4.82   0
   5   4   1 1162.54   17.05   0
   6   5   9   16.24    2.89   0
   6   6   6    6.57    2.80   0
   6   6   8   17.65    2.93   0
   5   2   3    4.29    3.44   0
   5   6   2  970.94   14.66   0
   6   4   5   90.73    5.61   0
   6   6   7    4.39    2.25   0
   4   1   2   68.94    3.95   0
   6   4   6   82.55    5.38   0
   6   5   8   37.72    3.88   0
   6   5   6  103.65    5.51   0
   6   5   7    8.19    2.89   0
   5   2   4  116.90    5.68   0
   5   5   2   32.65    4.64   0
   5   5  11   -0.88    2.38   0
   4   2   1 3221.69   23.39   0
   4   4   0  856.30   13.28   0
   4   7   2    5.23    3.24   0
   4   8   4   47.40    3.47   0
   5   2   6  140.74    6.20   0
   5   3   3   16.82    3.71   0
   5   6   3   19.97    3.74   0
   3   5  -1  923.93   13.34   0
   4   6   1  588.34   11.45   0
   5   7   9   51.59    3.19   0
   5   4  10    6.27    3.10   0
   4   1   6  260.83    7.15   0
   5   3   4   68.30    4.75   0
   5   4   3   27.23    3.70   0
   5   5   3   39.78    4.11   0
   5   6   4  432.17   10.36   0
   5   7   8   80.01    4.09   0
   4   2   2  535.26    9.96   0
   4   3   1   19.37    3.30   0
   4   8   5   38.91    3.08   0
   5   3   8  412.77   10.20   0
   5   5  10   11.52    3.09   0
   5   7   7    8.95    2.25   0
   3   6   0  305.41    8.40   0
   3   7   1    9.71    3.30   0
   4   5   1   47.27    4.73   0
   3   8   3   73.80    4.27   0
   4   7   3  238.64    7.50   0
   4   8   8   46.55    2.96   0
   5   3   6   20.81    3.54   0
   5   3   7  237.72    8.04   0
   5   4   9    9.17    3.66   0
   5   6   5  163.04    6.79   0
   5   6   9   19.73    3.12   0
   4   8   7    4.93    1.89   0
   4   2   3  608.09   10.95   0
   5   4   5  291.48    9.55   0
   5   5   5  121.28    6.70   0
   5   6   6    0.77    2.64   0
   5   6   7    8.28    3.28   0
   5   6   8   53.23    4.04   0
   5   4   6  213.59    8.20   0
   5   4   7  175.63    7.40   0
   4   3   2   23.75    3.09   0
   4   3  10    4.95    3.54   0
   4   6  11    1.15    2.33   0
   5   5   7   -1.31    3.49   0
   4   2   4  425.23    9.39   0
   4   2   8  838.86   13.22   0
   3   8   4   12.21    2.82   0
   4   4   2   12.54    3.08   0
   4   2   7   37.43    4.34   0
   4   7   5  307.78    8.94   0
   3   5  12    5.22    3.15   0
   3   6   1    8.89    3.34   0
   3   8   9   39.95    2.94   0
   4   2   6  119.88    5.56   0
   4   3   3   71.75    4.38   0
   3   8   5    0.17    2.84   0
   4   3   9  759.86   13.46   0
   4   7   6  158.32    6.48   0
   4   7   8  108.41    5.06   0
   4   4   3   14.12    3.34   0
   4   5   3   11.32    3.29   0
   4   6   4  180.92    7.60   0
   4   7   7  122.81    5.65   0
   2   8   3  180.56    6.32   0
   3   8   6    2.76    2.41   0
   3   8   7   94.75    4.61   0
   4   3   4    2.68    2.42   0
   4   5  10   57.95    4.92   0
   3   7   3    4.93    3.14   0
   4   3   5  370.08    9.35   0
   4   4   4   77.79    5.45   0
   4   4   9  253.05    8.76   0
   4   5   4    3.75    3.13   0
   3   6   2    6.61    3.51   0
   3   7  10   -0.59    2.34   0
   4   3   7  228.58    7.94   0
   4   6   6   41.67    4.61   0
   4   5   5   65.94    5.64   0
   4   6   7  389.57   10.57   0
   2   8   4   58.23    4.34   0
   4   4   5  105.75    5.90   0
   4   5   8  308.71   10.04   0
   2   8   9   40.62    2.99   0
   3   5  11  372.93    9.23   0
   4   4   6  261.51    8.70   0
   4   4   7  307.37    9.46   0
   4   5   6   25.54    4.27   0
   4   5   7   69.82    5.59   0
   2   7   2   19.02    3.89   0
   3   7   5   64.26    5.60   0
   3   7   9    9.93    2.80   0
   2   8   5   88.34    4.89   0
   2   8   8   55.67    3.89   0
   1   8   3  245.60    7.45   0
   2   6   1   70.14    5.53   0
   2   8   7  126.00    5.45   0
   3   2   8   59.79    5.10   0
   3   4   2   26.98    3.53   0
   3   6  10    9.57    3.07   0
   3   7   6  180.32    7.47   0
   3   7   7  155.52    7.13   0
   3   7   8  320.07    8.99   0
   3   2   7  270.15    7.95   0
   3   4  10  151.93    7.17   0
   3   6   4   60.45    5.67   0
   1   8   9   10.31    2.17   0
   2   7   3   31.15    4.28   0
   3   3   9  104.28    6.22   0
   3   5   3   18.73    3.62   0
   3   5  10   -0.62    3.21   0
   3   6   9  321.80    9.78   0
   0   1  -9   27.11    5.78   0
   0   4  -5  443.90   11.99   0
   1   0 -10  224.99    9.05   0
   1   5  -1  548.98   12.34   0
   0   4  -4  648.20   13.48   0
   1   3  -9  131.95    7.44   0
   3   6  -4  419.52   11.97   0
   4   5  -7   96.07    5.34   0
   0   3  -7  200.35    8.78   0
   1   5  -2  257.22    9.37   0
   3   5  -7   79.63    5.64   0
   1   4  -7   -1.12    4.47   0
   1   5  -3  422.61   11.67   0
   2   2 -10   28.64    4.68   0
   3   2 -10   98.52    5.95   0
   4   6  -4   48.23    4.83   0
   5   5  -6   93.71    4.67   0
   5   6  -3   78.30    5.21   0
   2   4  -8  361.62   11.09   0
   2   5  -6  364.86   11.60   0
   3   6  -3  177.57    8.27   0
   3   6  -1   51.83    6.45   0
   4   3  -9   66.20    4.64   0
   0   3  -6   21.20    4.84   0
   2   0 -10  472.43   11.65   0
   2   1 -10   29.83    5.19   0
   2   3  -9   69.65    5.92   0
   3   6  -2  126.05    7.35   0
   4   4  -8    6.63    2.84   0
   0   0  -8   64.58    5.83   0
   0   1  -8  453.72   11.50   0
   1   3  -8  270.49   10.14   0
   3   1 -10  368.87   10.00   0
   3   3  -9  215.85    8.49   0
   4   6  -3  292.14    9.68   0
   5   6  -2   76.98    5.62   0
   1   4  -6  699.81   15.60   0
   2   5  -5   81.49    6.53   0
   3   5  -6   14.95    4.32   0
   0   3  -5  561.30   12.12   0
   4   6  -2   -1.97    5.02   0
   4   6  -1    2.40    4.77   0
   5   3  -8   -0.40    2.66   0
   5   4  -7    0.83    2.42   0
   1   0  -9   41.61    5.90   0
   1   1  -9 1127.05   18.71   0
   6   5  -4    2.07    2.56   0
   1   4  -5   68.32    6.48   0
   5   5  -5   39.57    4.03   0
   0   1  -7  208.26    7.66   0
   0   2  -6   55.50    5.78   0
   1   3  -7 1343.49   20.98   0
   2   3  -8   22.36    5.57   0
   3   5  -5   15.64    5.57   0
   4   4  -7    5.70    3.61   0
   4   5  -5   53.22    5.79   0
   1   4  -4  512.24   12.35   0
   2   5  -2   26.81    4.97   0
   4   3  -8   12.66    3.69   0
   2   1  -9   28.46    5.75   0
   2   4  -6   59.35    6.12   0
   3   3  -8   92.69    6.70   0
   6   5  -3   41.00    4.22   0
   1   3  -6    6.60    4.47   0
   4   0  -9   27.29    4.85   0
   5   4  -6   68.21    5.32   0
   1   1  -8  458.02   12.16   0
   2   0  -9  750.56   15.00   0
   6   2  -7   87.16    4.61   0
   6   4  -5   50.08    3.98   0
   1   0  -8  249.36    9.32   0
   1   2  -7  234.85    9.02   0
   2   3  -7   93.24    6.88   0
   3   4  -6   34.31    5.27   0
   5   3  -7  113.01    6.27   0
   2   4  -5  138.08    7.87   0
   3   0  -9   47.19    5.93   0
   3   5  -3   25.37    5.37   0
   4   4  -6  165.58    8.09   0
   6   3  -6   51.51    4.30   0
   1   3  -5  296.74    9.54   0
   4   2  -8    3.12    4.55   0
   5   1  -8    1.48    3.61   0
   6   5  -2   53.21    5.07   0
   3   2  -8  120.17    7.59   0
   3   3  -7   28.37    5.12   0
   3   5  -2  579.58   14.21   0
   4   3  -7  113.08    7.50   0
   4   5  -3  199.56    9.77   0
   5   5  -3   58.33    5.54   0
   3   5  -1  889.57   16.99   0
   6   1  -7   19.31    3.55   0
   1   1  -7  244.20    8.80   0
   1   2  -6   11.61    4.29   0
   1   3  -4  571.63   12.23   0
   2   1  -8   89.81    6.83   0
   3   4  -5    5.28    4.53   0
   6   4  -4  140.21    6.61   0
   6   5  -1   29.21    4.91   0
   4   4  -5   35.59    6.13   0
   4   5  -2  116.42    8.26   0
   5   5  -2   34.37    5.92   0
   7   3  -4   52.41    4.03   0
   2   2  -7   12.59    4.15   0
   2   0  -8   12.14    4.66   0
   3   1  -8  317.47   11.02   0
   6   5   0    9.52    4.81   0
   2   4  -2   86.95    6.18   0
   3   3  -6    3.44    3.82   0
   4  -1  -8  112.02    7.01   0
   4   5  -1   44.14    5.93   0
   5   5  -1    4.16    5.10   0
   6   2  -6  117.77    5.92   0
   6   3  -5   54.30    4.66   0
   1   2  -5    1.26    3.65   0
   2   3  -5   21.48    4.42   0
   3   2  -7  247.22   10.05   0
   4   0  -8   82.54    6.36   0
   4   2  -7  149.58    8.73   0
   4   3  -6   21.94    4.61   0
   5   4  -4    3.59    4.88   0
   3  -1  -8   45.91    6.33   0
   3   0  -8    8.84    4.55   0
   4   4  -4   80.76    7.56   0
   5   5   0    4.01    5.31   0
   6   4  -3  168.27    7.52   0
   7   1  -5    7.09    2.71   0
   7   4  -1   53.39    4.81   0
   2   2  -6  695.04   14.72   0
   3   4  -3  237.05   10.06   0
   7   3  -3  101.94    5.63   0
   5   3  -5  415.27   12.48   0
   2   3  -4   75.55    5.68   0
   3   3  -5   -1.38    3.95   0
   5  -1  -7   70.34    6.17   0
   5   4  -3   96.29    7.22   0
   7   2  -4  149.61    6.16   0
   4   3  -5  101.84    7.16   0
   6   3  -4   25.25    4.47   0
   7   4   0   -2.63    3.87   0
   3   2  -6  485.90   13.40   0
   3   4  -2   35.78    5.25   0
   4   2  -6   20.82    5.95   0
   6  -1  -6  186.18    7.23   0
   6   0  -6   39.21    4.95   0
   6   2  -5  118.40    6.75   0
   2   2  -5  292.19    9.31   0
   2   3  -3   54.64    4.64   0
  -5   6  -4    0.27    2.54   0
  -3   3   2  174.68    6.46   0
  -3   4   2  415.48   10.10   0
  -4   6  -1   90.60    5.66   0
  -3   7  -1  251.27    7.73   0
  -1   4   3 1596.36   17.32   0
  -1   6   2  263.55    8.72   0
   0   6   2   31.67    4.15   0
   1   7  -1   59.83    5.02   0
  -5   5  -2  194.24    6.97   0
  -2   7   0  381.94   10.12   0
   1   6   1    4.18    3.67   0
  -4   5   0  143.18    6.60   0
   0   7   0   61.95    5.58   0
   1   7  -4   29.55    4.33   0
   1   7  -3   95.89    5.84   0
   1   7  -2    1.14    3.32   0
  -3   7  -2  115.03    5.74   0
  -2   5   2   62.41    5.11   0
  -1   7   0   94.93    6.23   0
  -3   6   0   54.86    5.13   0
  -2   6   1   34.56    4.89   0
  -2   7  -1  249.22    8.93   0
  -1   5   2    1.85    3.27   0
   0   5   2  398.65    9.73   0
  -5   5  -3   51.83    4.75   0
  -3   7  -3    8.96    3.34   0
  -1   6   1  124.10    6.54   0
  -1   7  -1  336.01   10.76   0
  -5   4  -2    7.42    4.97   0
  -4   4   0    7.79    3.64   0
   0   7  -6  473.06    9.20   0
   1   5   1    5.15    3.08   0
  -4   5  -1   18.77    4.95   0
  -3   4   1   10.15    4.23   0
  -3   7  -6   36.27    3.13   0
  -3   7  -5    9.01    3.08   0
  -3   7  -4   15.25    3.14   0
  -2   7  -2  185.24    7.79   0
  -3   6  -1  237.45    8.97   0
  -2   6   0  168.32    7.78   0
  -1   4   2 1061.86   14.59   0
  -1   7  -7  144.87    5.36   0
  -1   7  -2   79.50    6.57   0
   0   7  -5    5.77    3.91   0
   0   7  -3  147.49    7.62   0
  -5   5  -4  386.39    9.57   0
  -3   3   1   33.47    4.45   0
  -2   5   1   -0.45    3.57   0
  -2   7  -7   34.14    3.19   0
  -2   7  -3   21.03    4.67   0
   0   7  -4  604.28   12.65   0
  -1   6   0  315.34    9.99   0
  -1   7  -3   73.11    6.51   0
  -4   6  -4   89.36    5.49   0
  -2   7  -6   18.03    3.05   0
  -2   7  -5   98.80    6.01   0
  -2   7  -4   32.23    4.54   0
  -1   5   1  360.21    9.77   0
  -1   7  -6   30.85    3.90   0
   0   5   1   24.03    3.79   0
  -3   6  -2  356.15   11.18   0
  -1   7  -4  215.58    8.44   0
   1   5   0  201.35    7.68   0
   1   6  -2   76.79    6.22   0
  -5   5  -5    6.86    3.38   0
  -4   4  -1   95.11    6.69   0
  -4   5  -2   30.07    4.90   0
  -2   6  -1  378.18   11.25   0
  -4   6  -7   15.32    2.91   0
  -4   6  -6   53.04    4.21   0
   0   6  -1  114.34    6.91   0
   1   6  -3   31.35    5.62   0
  -5   5  -6  128.22    5.73   0
  -3   4   0   17.41    4.65   0
  -1   6  -1   70.03    5.78   0
   0   6  -8    7.89    4.01   0
   1   6  -4   33.35    5.39   0
  -3   5  -1   28.23    4.59   0
  -3   6  -3   26.08    4.84   0
  -2   6  -2  114.38    7.01   0
   0   5   0  299.71    8.85   0
   1   5  -1  568.85   12.15   0
  -4   3  -1    2.42    4.29   0
  -3   6  -4  164.67    8.38   0
  -1   5   0  498.77   11.54   0
  -5   3  -3    5.17    4.80   0
  -5   4  -4  258.08    8.77   0
  -1   6  -2    1.84    4.14   0
  -3   3   0  176.99    6.76   0
  -3   6  -5  112.44    7.09   0
  -2   6  -3   64.20    5.88   0
  -3   5  -2  111.93    7.16   0
  -3   6  -7  102.93    5.68   0
  -3   6  -6   10.49    3.65   0
  -2   4   0  479.31   10.80   0
  -2   6  -8  203.35    7.60   0
  -1   6  -8  133.20    6.02   0
  -1   6  -3   82.36    7.01   0
   0   5  -1  265.57    9.17   0
   0   6  -6  172.91    8.08   0
   0   6  -5  141.57    8.08   0
   0   6  -4  361.21   11.48   0
   1   5  -2  278.28    9.38   0
  -5   4  -5    0.60    4.04   0
  -2   6  -4   43.85    5.59   0
  -1   5  -1  257.20    9.03   0
  -4   5  -5  225.95    9.48   0
  -2   6  -7   96.57    6.70   0
  -1   6  -4  100.28    7.20   0
  -4   5  -9   60.43    4.14   0
  -3   5  -3   16.79    5.38   0
  -2   6  -6   51.31    5.58   0
  -1   4   0  415.20    9.62   0
  -1   6  -5  205.50    9.52   0
   1   5  -3  432.48   11.54   0
  -5   3  -4   22.65    5.37   0
  -4   4  -3  361.43   11.49   0
  -4   5  -8    8.42    3.64   0
  -4   5  -6  109.23    6.72   0
  -2   5  -2  170.62    8.05   0
  -5   4  -9   15.44    3.25   0
  -5   4  -7   57.04    5.35   0
  -4   3  -2  378.34   10.38   0
  -4   5  -7   81.54    5.98   0
  -5   4  -8   30.80    4.02   0
  -3   5 -10   14.82    2.83   0
  -1   5 -10    9.84    3.65   0
   0   5  -9    0.76    3.83   0
   1   5  -6  772.12   15.18   0
   1   5  -4 1166.66   18.24   0
  -3   3  -1   23.05    4.39   0
  -3   5  -4   41.77    5.33   0
  -2   4  -1  994.69   15.78   0
  -2   5 -10   11.05    3.34   0
  -2   5  -3   12.80    4.08   0
  -5   3  -5   63.64    6.63   0
  -4   4 -11   31.96    3.35   0
  -4   4  -4   57.48    5.99   0
  -3   5  -9  237.52    8.13   0
  -3   5  -5  261.87   10.81   0
  -1   4  -1  425.80    9.94   0
  -1   5  -3   39.66    5.32   0
  -5   3 -11   76.49    4.45   0
  -3   5  -8   43.83    5.10   0
  -3   5  -7  161.53    8.56   0
  -2   4 -12    7.89    2.82   0
  -2   5  -4   39.42    5.93   0
  -1   5  -9   13.75    4.37   0
  -4   3  -3  254.51    9.14   0
  -2   5  -9   94.95    6.13   0
   1   4  11  170.00    6.31   0
   3   6   2    4.25    3.38   0
   3   6   9  314.83    8.63   0
   3   7   4   20.93    3.62   0
   1   6  11   25.53    2.86   0
   3   5   9    0.13    2.94   0
   3   7   7  158.12    6.21   0
   0   6  11   47.02    3.28   0
   1   5  11  130.03    5.46   0
   2   2   8  172.94    6.06   0
   2   4  10   35.25    4.48   0
   3   7   5   68.36    4.71   0
   2   6  10  105.29    5.18   0
   2   8   7  138.13    4.97   0
   0   5  11    2.74    2.84   0
   1   2   9   24.57    3.96   0
   1   3  10   93.31    5.59   0
   1   7  10  143.25    4.85   0
   2   3   9    9.63    3.75   0
   2   5  10  246.04    7.96   0
   2   7   9   -0.26    2.15   0
   2   8   4   51.12    4.08   0
   3   3   6  133.88    5.53   0
   3   4   2   25.77    3.07   0
   3   5   2  111.07    5.23   0
   3   5   8  254.88    8.44   0
   3   6   3   29.72    4.22   0
   2   8   5   90.80    4.51   0
   3   3   4 2670.62   20.68   0
   3   3   5  233.68    6.71   0
   3   6   7  283.55    8.86   0
   3   6   4   64.35    5.26   0
   1   8   8    4.51    2.15   0
   2   2   7   16.26    2.78   0
   3   4   3   24.97    3.12   0
   3   5   3   25.81    4.08   0
   3   6   6   94.56    5.72   0
   2   6   9   13.19    3.48   0
   2   7   8    5.35    3.06   0
   3   4   6    1.26    2.85   0
   3   5   6   24.13    4.22   0
   1   4  10   21.54    3.68   0
   1   6  10   51.12    4.04   0
   2   5   9   -0.62    3.77   0
   2   7   2   14.77    3.88   0
   3   4   4  155.31    6.07   0
   3   4   5   67.57    4.55   0
   3   5   5  311.08    8.90   0
   1   5  10  442.31   10.59   0
   1   7   9   11.46    2.78   0
   1   8   7    0.64    2.44   0
   0   8   8   11.79    2.12   0
   2   7   7  147.38    6.53   0
  -1   6  10   98.47    4.49   0
   0   6  10   24.25    3.23   0
   1   2   8  946.25   13.23   0
   2   6   8    3.72    3.26   0
   0   4  10  199.67    7.32   0
   1   8   3  234.57    7.22   0
   1   8   6  163.36    5.99   0
   2   4   8    2.10    2.91   0
   2   7   6  162.07    7.02   0
  -1   4  10  290.73    8.43   0
   0   5  10   81.88    5.32   0
   0   7   9  247.85    6.86   0
   2   3   7  349.43    8.74   0
   2   7   4    5.13    3.40   0
   0   8   7   36.67    3.47   0
   1   6   9    6.63    3.22   0
   1   7   8   -2.08    2.80   0
   2   6   7  133.80    7.20   0
   1   4   9  148.36    6.95   0
   1   5   9  206.55    8.08   0
   2   4   7    1.92    3.08   0
  -1   8   7  213.51    5.74   0
   0   3   9  279.39    8.77   0
   2   5   1  775.49   12.52   0
   2   6   6  241.12    8.72   0
   0   6   9  230.04    8.23   0
   0   8   6   76.67    4.48   0
   1   7   7    3.19    3.20   0
   2   6   3  487.24   11.48   0
   2   6   5  216.46    8.31   0
   0   7   8    6.79    2.91   0
   1   6   8   16.92    3.95   0
   1   7   1  218.35    7.87   0
   2   4   6   25.60    3.64   0
   2   5   6  281.62    9.08   0
   0   8   2  133.16    6.08   0
  -2   8   6  145.15    4.76   0
  -1   3   9   80.42    5.94   0
  -1   7   8  133.60    5.57   0
  -1   8   6   -0.47    2.61   0
   0   4   9   76.89    5.42   0
   2   5   2   39.07    4.01   0
   0   8   3  158.13    6.37   0
   0   8   4  104.91    5.50   0
   1   7   2   32.13    5.03   0
   2   4   5  129.91    5.87   0
   2   5   3  556.70   11.42   0
   2   5   4  976.19   15.35   0
   0   7   7  115.85    6.42   0
   1   6   7  128.55    6.82   0
   1   7   3  326.27   10.09   0
  -3   6   8    5.32    2.70   0
  -2   4   9   25.12    4.36   0
  -1   4   9  320.42    9.50   0
  -1   5   9   18.97    3.81   0
   0   6   8    3.28    4.07   0
  -1   8   5  237.55    7.22   0
  -2   8   5   23.78    2.86   0
  -1   8   1   71.47    4.83   0
   0   3   8  214.81    7.73   0
   1   4   7  218.16    8.22   0
   1   5   7  313.37   10.13   0
   1   6   6  112.77    6.82   0
  -2   7   7   97.51    4.95   0
  -1   7   7   36.45    3.93   0
  -1   8   4    3.51    2.92   0
  -1   6   8  108.31    6.06   0
  -1   8   3  100.01    5.32   0
  -2   8   4  166.53    5.89   0
   1   3   6  112.31    5.36   0
   1   6   1   -0.14    3.59   0
   1   6   5  571.63   13.39   0
  -3   5   8   47.51    4.46   0
  -3   8   3   11.34    2.61   0
   1   5   6  185.66    7.83   0
   1   6   4  244.03    9.23   0
  -3   7   6   70.06    3.86   0
  -3   8   2   15.86    2.90   0
   1   4   6   68.75    4.97   0
   1   6   2  203.90    8.00   0
  -1   3   8   79.59    5.55   0
   0   7   1    3.52    4.04   0
   0   7   4  250.98    9.17   0
  -3   4   8    1.38    3.99   0
  -2   5   8   47.03    4.79   0
  -2   7   6   87.28    5.09   0
  -1   4   8  263.74    9.26   0
   0   3   7  627.50   12.39   0
   0   5   7   29.50    4.51   0
   0   6   6   29.40    5.23   0
   0   7   2   42.60    5.47   0
  -4   5   7    1.47    3.15   0
  -2   3   8    3.68    4.39   0
  -1   6   7  136.53    7.05   0
  -1   7   5  184.51    8.00   0
   1   4   5  168.85    6.62   0
   1   5   4  352.37    9.94   0
;
_shelx_hkl_checksum              99744
_olex2_submission_special_instructions 'No special instructions were received'
loop_
_space_group_symop_operation_xyz
'x, y, z'
'-x, -y, -z'
loop_
_atom_site_label
_atom_site_type_symbol
_atom_site_fract_x
_atom_site_fract_y
_atom_site_fract_z
_atom_site_U_iso_or_equiv
_atom_site_adp_type
_atom_site_occupancy
_atom_site_site_symmetry_order
_atom_site_calc_flag
_atom_site_refinement_flags_posn
_atom_site_refinement_flags_adp
_atom_site_refinement_flags_occupancy
_atom_site_disorder_assembly
_atom_site_disorder_group
Cu1 Cu 1.000000 0.500000 0.000000 0.0146(2) Uani 1 2 d S T P . .
O1 O 0.7949(4) 0.4451(4) 0.1448(2) 0.0182(6) Uani 1 1 d . . . . .
O2 O 0.9286(5) 0.5186(4) 0.2801(3) 0.0229(7) Uani 1 1 d . . . . .
O3 O 0.7729(4) 1.4294(4) -0.0990(3) 0.0189(6) Uani 1 1 d . . . . .
H3 H 0.855966 1.418781 -0.161382 0.028 Uiso 1 1 d R . . . .
O4 O 0.0158(5) 0.1385(6) 0.5788(3) 0.0373(9) Uani 1 1 d . . . . .
O5 O 0.2230(5) 0.0567(4) 0.6866(3) 0.0267(7) Uani 1 1 d . . . . .
N1 N 0.8760(5) 0.7559(5) -0.0212(3) 0.0164(7) Uani 1 1 d . . . . .
N2 N 0.1803(6) 0.1326(5) 0.5973(3) 0.0229(8) Uani 1 1 d . . . . .
C1 C 0.8003(6) 0.4529(6) 0.2477(4) 0.0183(9) Uani 1 1 d . . . . .
C2 C 0.6332(6) 0.3705(6) 0.3395(4) 0.0192(9) Uani 1 1 d . . . . .
C3 C 0.4572(7) 0.3461(6) 0.3142(4) 0.0208(9) Uani 1 1 d . . . . .
H3A H 0.440869 0.379883 0.238188 0.025 Uiso 1 1 calc R . . . .
C4 C 0.3044(7) 0.2724(6) 0.3993(4) 0.0228(10) Uani 1 1 d . . . . .
H4 H 0.181646 0.260029 0.383301 0.027 Uiso 1 1 calc R . . . .
C5 C 0.3365(6) 0.2177(6) 0.5080(4) 0.0192(9) Uani 1 1 d . . . . .
C6 C 0.5135(7) 0.2372(6) 0.5346(4) 0.0209(9) Uani 1 1 d . . . . .
H6 H 0.533012 0.196437 0.609444 0.025 Uiso 1 1 calc R . . . .
C7 C 0.6600(6) 0.3173(6) 0.4498(4) 0.0195(9) Uani 1 1 d . . . . .
H7 H 0.779927 0.336095 0.467006 0.023 Uiso 1 1 calc R . . . .
C9 C 0.8167(6) 0.8545(6) 0.0657(4) 0.0168(9) Uani 1 1 d . . . . .
H9 H 0.831526 0.800212 0.139515 0.020 Uiso 1 1 calc R . . . .
C10 C 0.7352(6) 1.0306(6) 0.0543(4) 0.0171(9) Uani 1 1 d . . . . .
H10 H 0.696709 1.095264 0.118621 0.020 Uiso 1 1 calc R . . . .
C11 C 0.7104(6) 1.1117(6) -0.0529(4) 0.0172(9) Uani 1 1 d . . . . .
C12 C 0.7700(6) 1.0093(6) -0.1432(4) 0.0192(9) Uani 1 1 d . . . . .
H12 H 0.755426 1.059861 -0.217707 0.023 Uiso 1 1 calc R . . . .
C13 C 0.8498(6) 0.8353(6) -0.1245(4) 0.0191(9) Uani 1 1 d . . . . .
H13 H 0.888468 0.767432 -0.187273 0.023 Uiso 1 1 calc R . . . .
C14 C 0.6259(6) 1.3051(6) -0.0714(4) 0.0209(9) Uani 1 1 d . . . . .
H14A H 0.556903 1.319816 -0.134378 0.025 Uiso 1 1 calc R . . . .
H14B H 0.527618 1.333161 -0.000804 0.025 Uiso 1 1 calc R . . . .
loop_
_atom_site_aniso_label
_atom_site_aniso_U_11
_atom_site_aniso_U_22
_atom_site_aniso_U_33
_atom_site_aniso_U_23
_atom_site_aniso_U_13
_atom_site_aniso_U_12
Cu1 0.0143(4) 0.0137(4) 0.0138(4) -0.0005(3) -0.0006(3) -0.0012(3)
O1 0.0172(15) 0.0209(15) 0.0140(15) -0.0004(12) -0.0006(12) -0.0009(12)
O2 0.0219(16) 0.0251(17) 0.0205(16) -0.0011(13) -0.0010(13) -0.0086(13)
O3 0.0192(16) 0.0163(15) 0.0199(15) 0.0001(12) -0.0022(12) -0.0050(12)
O4 0.0261(19) 0.060(3) 0.0247(18) 0.0051(17) -0.0040(15) -0.0183(17)
O5 0.0324(18) 0.0288(18) 0.0151(16) 0.0024(13) -0.0012(13) -0.0044(15)
N1 0.0125(17) 0.0162(18) 0.0204(18) -0.0005(14) -0.0043(14) -0.0027(14)
N2 0.022(2) 0.028(2) 0.0166(19) -0.0008(16) 0.0008(15) -0.0048(16)
C1 0.017(2) 0.016(2) 0.018(2) 0.0000(16) 0.0000(17) 0.0019(17)
C2 0.019(2) 0.017(2) 0.018(2) -0.0016(17) 0.0007(17) -0.0015(17)
C3 0.024(2) 0.022(2) 0.014(2) 0.0019(17) -0.0030(17) -0.0003(18)
C4 0.019(2) 0.028(2) 0.020(2) -0.0010(18) -0.0038(18) -0.0040(19)
C5 0.018(2) 0.020(2) 0.016(2) 0.0009(17) 0.0012(17) -0.0040(17)
C6 0.024(2) 0.020(2) 0.016(2) -0.0004(17) -0.0024(18) -0.0012(18)
C7 0.018(2) 0.020(2) 0.019(2) -0.0029(17) -0.0021(17) -0.0024(17)
C9 0.014(2) 0.017(2) 0.019(2) -0.0024(16) -0.0014(16) -0.0044(16)
C10 0.014(2) 0.020(2) 0.017(2) -0.0056(17) -0.0001(16) -0.0043(16)
C11 0.0118(19) 0.016(2) 0.022(2) -0.0005(17) -0.0009(16) -0.0049(16)
C12 0.017(2) 0.024(2) 0.015(2) 0.0025(17) -0.0027(16) -0.0029(18)
C13 0.018(2) 0.021(2) 0.016(2) 0.0010(17) -0.0011(17) -0.0024(17)
C14 0.016(2) 0.013(2) 0.031(2) 0.0029(17) -0.0017(18) -0.0033(17)
loop_
_atom_type_symbol
_atom_type_description
_atom_type_scat_dispersion_real
_atom_type_scat_dispersion_imag
_atom_type_scat_source
C C 0.0181 0.0091 'International Tables Vol C Tables 4.2.6.8 and 6.1.1.4'
H H 0.0000 0.0000 'International Tables Vol C Tables 4.2.6.8 and 6.1.1.4'
Cu Cu -1.9646 0.5888 'International Tables Vol C Tables 4.2.6.8 and 6.1.1.4'
N N 0.0311 0.0180 'International Tables Vol C Tables 4.2.6.8 and 6.1.1.4'
O O 0.0492 0.0322 'International Tables Vol C Tables 4.2.6.8 and 6.1.1.4'
loop_
_geom_angle_atom_site_label_1
_geom_angle_atom_site_label_2
_geom_angle_atom_site_label_3
_geom_angle
_geom_angle_site_symmetry_1
_geom_angle_site_symmetry_3
O1 Cu1 O1 180.00(14) 2_765 .
O1 Cu1 O3 92.97(11) . 2_775
O1 Cu1 O3 87.03(11) 2_765 2_775
O1 Cu1 O3 87.03(11) . 1_545
O1 Cu1 O3 92.97(11) 2_765 1_545
O1 Cu1 N1 89.60(13) 2_765 .
O1 Cu1 N1 90.40(13) . .
O1 Cu1 N1 89.60(13) . 2_765
O1 Cu1 N1 90.40(13) 2_765 2_765
O3 Cu1 O3 180.00(16) 1_545 2_775
N1 Cu1 O3 94.52(12) 2_765 1_545
N1 Cu1 O3 94.52(12) . 2_775
N1 Cu1 O3 85.48(12) . 1_545
N1 Cu1 O3 85.48(12) 2_765 2_775
N1 Cu1 N1 180.0 . 2_765
C1 O1 Cu1 129.2(3) . .
C14 O3 Cu1 133.4(3) . 1_565
C9 N1 Cu1 122.0(3) . .
C9 N1 C13 116.8(4) . .
C13 N1 Cu1 121.2(3) . .
O4 N2 O5 123.7(4) . .
O4 N2 C5 118.6(4) . .
O5 N2 C5 117.7(4) . .
O1 C1 C2 115.4(4) . .
O2 C1 O1 126.8(4) . .
O2 C1 C2 117.7(4) . .
C3 C2 C1 121.1(4) . .
C3 C2 C7 120.1(4) . .
C7 C2 C1 118.8(4) . .
C2 C3 C4 120.6(4) . .
C5 C4 C3 118.1(4) . .
C4 C5 N2 118.8(4) . .
C4 C5 C6 122.3(4) . .
C6 C5 N2 118.9(4) . .
C7 C6 C5 118.5(4) . .
C6 C7 C2 120.4(4) . .
N1 C9 C10 123.8(4) . .
C9 C10 C11 118.9(4) . .
C10 C11 C14 121.4(4) . .
C12 C11 C10 117.5(4) . .
C12 C11 C14 121.0(4) . .
C13 C12 C11 119.8(4) . .
N1 C13 C12 123.2(4) . .
O3 C14 C11 112.5(3) . .
loop_
_geom_bond_atom_site_label_1
_geom_bond_atom_site_label_2
_geom_bond_distance
_geom_bond_site_symmetry_2
Cu1 O1 1.996(3) 2_765
Cu1 O1 1.996(3) .
Cu1 O3 2.379(3) 2_775
Cu1 O3 2.379(3) 1_545
Cu1 N1 2.023(3) .
Cu1 N1 2.023(3) 2_765
O1 C1 1.270(5) .
O2 C1 1.250(5) .
O3 C14 1.422(5) .
O4 N2 1.228(5) .
O5 N2 1.232(5) .
N1 C9 1.338(5) .
N1 C13 1.348(5) .
N2 C5 1.466(5) .
C1 C2 1.520(6) .
C2 C3 1.388(6) .
C2 C7 1.388(6) .
C3 C4 1.391(6) .
C4 C5 1.385(6) .
C5 C6 1.392(6) .
C6 C7 1.382(6) .
C9 C10 1.380(6) .
C10 C11 1.391(6) .
C11 C12 1.389(6) .
C11 C14 1.511(6) .
C12 C13 1.370(6) .
