#------------------------------------------------------------------------------
#$Date: 2021-07-15 10:49:38 +0300 (Thu, 15 Jul 2021) $
#$Revision: 267548 $
#$URL: file:///home/coder/svn-repositories/cod/cif/1/56/41/1564156.cif $
#------------------------------------------------------------------------------
#
# This file is available in the Crystallography Open Database (COD),
# http://www.crystallography.net/
#
# All data on this site have been placed in the public domain by the
# contributors.
#
data_1564156
loop_
_publ_author_name
'Pandey, Souvik'
'Pradeep, Prajisha'
'Venugopal M, Anjali'
'Aswanth, A.A.'
'Andrews, Alex P.'
'Venugopal, Ajay'
_publ_section_title
;
 Incorporation of nitrate ions into halobismuthates
;
_journal_name_full               'Inorganica Chimica Acta'
_journal_page_first              119754
_journal_paper_doi               10.1016/j.ica.2020.119754
_journal_volume                  511
_journal_year                    2020
_chemical_absolute_configuration rm
_chemical_formula_moiety         'Bi2 Cl8 N2 O6, 2(C6 H10 N2), 2(H2 O)'
_chemical_formula_sum            'C12 H24 Bi2 Cl8 N6 O8'
_chemical_formula_weight         1081.93
_space_group_crystal_system      triclinic
_space_group_IT_number           2
_space_group_name_Hall           '-P 1'
_space_group_name_H-M_alt        'P -1'
_atom_sites_solution_hydrogens   mixed
_audit_creation_method           SHELXL-2014
_cell_angle_alpha                103.7960(10)
_cell_angle_beta                 107.5400(10)
_cell_angle_gamma                97.2160(10)
_cell_formula_units_Z            1
_cell_length_a                   7.43460(10)
_cell_length_b                   10.4198(2)
_cell_length_c                   10.6765(2)
_cell_measurement_reflns_used    8309
_cell_measurement_temperature    296(2)
_cell_measurement_theta_max      28.33
_cell_measurement_theta_min      2.94
_cell_volume                     748.25(2)
_computing_cell_refinement       'Bruker SAINT'
_computing_data_collection       'Bruker APEX2'
_computing_data_reduction        'Bruker SAINT'
_computing_molecular_graphics    'Bruker SHELXTL'
_computing_publication_material  'Bruker SHELXTL'
_computing_structure_refinement  'SHELXL-2014 (Sheldrick, 2014)'
_computing_structure_solution    'SHELXL-2014 (Sheldrick, 2014)'
_diffrn_ambient_temperature      296(2)
_diffrn_detector_area_resol_mean 0
_diffrn_measured_fraction_theta_full 0.993
_diffrn_measured_fraction_theta_max 0.993
_diffrn_measurement_device_type  'Bruker APEX-II CCD'
_diffrn_measurement_method       '\f and \w scans'
_diffrn_radiation_type           MoK\a
_diffrn_radiation_wavelength     0.71073
_diffrn_reflns_av_R_equivalents  0.0229
_diffrn_reflns_av_unetI/netI     0.0204
_diffrn_reflns_Laue_measured_fraction_full 0.993
_diffrn_reflns_Laue_measured_fraction_max 0.993
_diffrn_reflns_limit_h_max       9
_diffrn_reflns_limit_h_min       -9
_diffrn_reflns_limit_k_max       12
_diffrn_reflns_limit_k_min       -12
_diffrn_reflns_limit_l_max       13
_diffrn_reflns_limit_l_min       -13
_diffrn_reflns_number            11955
_diffrn_reflns_point_group_measured_fraction_full 0.993
_diffrn_reflns_point_group_measured_fraction_max 0.993
_diffrn_reflns_theta_full        25.242
_diffrn_reflns_theta_max         25.997
_diffrn_reflns_theta_min         2.966
_diffrn_source                   'sealed tube'
_exptl_absorpt_coefficient_mu    12.503
_exptl_absorpt_correction_T_max  0.368
_exptl_absorpt_correction_T_min  0.256
_exptl_absorpt_correction_type   multi-scan
_exptl_absorpt_process_details   SADABS
_exptl_crystal_colour            colourless
_exptl_crystal_density_diffrn    2.401
_exptl_crystal_density_meas      2.400
_exptl_crystal_density_method    none
_exptl_crystal_description       plate
_exptl_crystal_F_000             504
_exptl_crystal_size_max          0.150
_exptl_crystal_size_mid          0.150
_exptl_crystal_size_min          0.100
_refine_diff_density_max         0.470
_refine_diff_density_min         -0.517
_refine_diff_density_rms         0.079
_refine_ls_extinction_coef       .
_refine_ls_extinction_method     none
_refine_ls_goodness_of_fit_ref   1.033
_refine_ls_hydrogen_treatment    mixed
_refine_ls_matrix_type           full
_refine_ls_number_parameters     171
_refine_ls_number_reflns         2913
_refine_ls_number_restraints     3
_refine_ls_restrained_S_all      1.033
_refine_ls_R_factor_all          0.0173
_refine_ls_R_factor_gt           0.0153
_refine_ls_shift/su_max          0.001
_refine_ls_shift/su_mean         0.000
_refine_ls_structure_factor_coef Fsqd
_refine_ls_weighting_details
'w=1/[\s^2^(Fo^2^)+(0.0164P)^2^+0.2717P] where P=(Fo^2^+2Fc^2^)/3'
_refine_ls_weighting_scheme      calc
_refine_ls_wR_factor_gt          0.0331
_refine_ls_wR_factor_ref         0.0336
_reflns_Friedel_coverage         0.000
_reflns_Friedel_fraction_full    .
_reflns_Friedel_fraction_max     .
_reflns_number_gt                2736
_reflns_number_total             2913
_reflns_threshold_expression     'I > 2\s(I)'
_cod_data_source_file            ICA-2020-511-119754.cif
_cod_data_source_block           3
_cod_database_code               1564156
_shelx_space_group_comment
;
The symmetry employed for this shelxl refinement is uniquely defined
by the following loop, which should always be used as a source of
symmetry information in preference to the above space-group names.
They are only intended as comments.
;
_shelx_estimated_absorpt_t_min   0.256
_shelx_estimated_absorpt_t_max   0.368
_shelxl_version_number           2014-3
_shelx_res_file
;
TITL P-1new in P-1
CELL  0.71073   7.4346  10.4198  10.6765  103.796  107.540   97.216
ZERR     1.00   0.0001   0.0002   0.0002    0.001    0.001    0.001
LATT   1
SFAC  C    H    N    O    CL   BI
UNIT  12 24 6 8 8 2
MERG   2
OMIT    -3.00  52.00
OMIT     0   0   1
DFIX 0.90 0.015 O1' H1A O1' H1B
DFIX 1.513 0.015 H1A H1B
EQIV $1 x, y+1, z+1
HTAB C1 Cl4_$1
HTAB C5 O3
EQIV $2 -x+1, -y+2, -z+1
HTAB N2 O2_$2
EQIV $3 -x+2, -y+2, -z+1
HTAB N2 Cl4_$3
HTAB N2 O1_$3
HTAB N2 O1'
EQIV $4 -x+1, -y+1, -z+1
HTAB N3 Cl2_$4
HTAB N3 Cl3_$4
EQIV $5 x+1, y+1, z+1
HTAB N3 Cl3_$5
HTAB N3 Cl1_$1
HTAB N3 Cl2_$1
HTAB O1' N1_$3
HTAB O1' O1_$3
HTAB O1' O3_$3
EQIV $6 x, y+1, z
HTAB O1' Cl2_$6
EQIV $7 x+1, y+1, z
HTAB O1' Cl3_$7
FMAP   2
PLAN  10
SIZE     0.100   0.150   0.150
ACTA
HTAB    2.00000
BOND   $H
CONF
L.S.  15
TEMP    23.00
WGHT    0.016400    0.271700
FVAR       0.15308
C1    1    0.823475    1.216138    0.742893    11.00000    0.03350    0.03069 =
         0.03315    0.00546    0.01598    0.00630
AFIX  43
H1    2    0.848366    1.292902    0.816321    11.00000   -1.20000
AFIX   0
C2    1    0.858493    1.224464    0.624383    11.00000    0.03154    0.03654 =
         0.03662    0.01389    0.01346    0.00758
C3    1    0.823381    1.112190    0.516393    11.00000    0.04464    0.04916 =
         0.03268    0.01483    0.01885    0.01522
AFIX  43
H3    2    0.848190    1.119664    0.437806    11.00000   -1.20000
AFIX   0
C4    1    0.750287    0.986944    0.525421    11.00000    0.05551    0.03857 =
         0.03307    0.00110    0.01223    0.01014
AFIX  43
H4    2    0.725328    0.910014    0.452159    11.00000   -1.20000
AFIX   0
C5    1    0.714349    0.975412    0.641705    11.00000    0.04412    0.02969 =
         0.03597    0.00762    0.00965    0.00585
AFIX  43
H5    2    0.666364    0.891450    0.648440    11.00000   -1.20000
AFIX   0
C6    1    0.751145    1.091180    0.747845    11.00000    0.02806    0.03475 =
         0.02900    0.01041    0.01114    0.00850
N1    3    0.513979    0.560080    0.368734    11.00000    0.05119    0.03133 =
         0.03258    0.00705    0.01718    0.00577
N2    3    0.936052    1.358330    0.619036    11.00000    0.05398    0.04444 =
         0.05305    0.02140    0.02972    0.00688
AFIX  33
H2A   2    0.950361    1.419998    0.697048    11.00000   -1.50000
H2B   2    1.050082    1.359188    0.607922    11.00000   -1.50000
H2C   2    0.854932    1.377302    0.548882    11.00000   -1.50000
AFIX   0
N3    3    0.713928    1.080675    0.873517    11.00000    0.03971    0.03808 =
         0.03652    0.01277    0.01618    0.00493
AFIX  33
H3A   2    0.667319    0.994593    0.863984    11.00000   -1.50000
H3B   2    0.823597    1.111181    0.944967    11.00000   -1.50000
H3C   2    0.628409    1.129913    0.887440    11.00000   -1.50000
AFIX   0
O1    4    0.644399    0.514532    0.331635    11.00000    0.04103    0.07224 =
         0.05066   -0.00467    0.01659    0.00919
O1'   4    1.034717    1.354896    0.388150    11.00000    0.05604    0.06678 =
         0.04226    0.00660    0.02085   -0.00739
O2    4    0.341880    0.511685    0.290014    11.00000    0.03974    0.05017 =
         0.04392    0.00462    0.01555    0.00732
O3    4    0.551963    0.646482    0.479203    11.00000    0.07637    0.04537 =
         0.04356   -0.00728    0.01797    0.01087
CL1   5    0.329287    0.199707   -0.166951    11.00000    0.05302    0.07259 =
         0.02887   -0.00125    0.00721    0.02734
CL2   5    0.618666    0.177300    0.165244    11.00000    0.03604    0.03985 =
         0.04908    0.02184    0.00926    0.00787
CL3   5    0.123053    0.199383    0.103274    11.00000    0.03350    0.04487 =
         0.04911    0.01414    0.01541    0.00195
CL4   5    0.761690    0.463183    0.047747    11.00000    0.03901    0.04894 =
         0.04769    0.02188    0.02220    0.01459
BI1   6    0.422178    0.348005    0.082258    11.00000    0.03271    0.03043 =
         0.02596    0.00920    0.01192    0.00681
H1B   2    1.163239    1.362471    0.418446    11.00000    0.18462
H1A   2    0.970343    1.292838    0.307902    11.00000    0.10679
HKLF    4  1.0  1.00  0.00  0.00  0.00  1.00  0.00  0.00  0.00  1.00

REM  P-1new in P-1
REM R1 =  0.0153 for    2736 Fo > 4sig(Fo)  and  0.0173 for all    2913 data
REM    171 parameters refined using      3 restraints

END

WGHT      0.0164      0.2717

REM Instructions for potential hydrogen bonds
HTAB C1 Cl4_$1
HTAB C5 O3
HTAB N2 O2_$2
HTAB N2 Cl4_$3
HTAB N2 O1_$3
HTAB N2 O1'
HTAB N3 Cl2_$4
HTAB N3 Cl3_$4
HTAB N3 Cl3_$5
HTAB N3 Cl1_$1
HTAB N3 Cl2_$1
HTAB O1' N1_$3
HTAB O1' O1_$3
HTAB O1' O3_$3
HTAB O1' Cl2_$6
HTAB O1' Cl3_$7

REM Highest difference peak  0.470,  deepest hole -0.517,  1-sigma level  0.079
Q1    1   0.8578  1.4205  0.6361  11.00000  0.05    0.47
Q2    1   0.9407  1.3398  0.5217  11.00000  0.05    0.47
Q3    1   0.6181  0.2349  0.2398  11.00000  0.05    0.39
Q4    1   0.6266  0.7563  0.7239  11.00000  0.05    0.36
Q5    1   0.7980  0.3805  0.1953  11.00000  0.05    0.34
Q6    1   1.0684  1.4015  0.7168  11.00000  0.05    0.34
Q7    1   0.4924  0.4350 -0.0864  11.00000  0.05    0.33
Q8    1   0.6592  0.8409  0.5612  11.00000  0.05    0.32
Q9    1   0.6344  0.7490  0.3792  11.00000  0.05    0.31
Q10   1   0.7870  0.0583  0.2115  11.00000  0.05    0.31
;
_shelx_res_checksum              99015
_shelx_hkl_file
;
  -2   0   0   12.86    0.60
  -2   0   0   12.46    0.54
  -2   0   0   11.34    0.56
  -2   0   0   13.29    0.60
   2   0   0   11.31    0.53
   2   0   0   12.07    0.56
   2   0   0   10.63    0.78
   2   0   0   11.71    0.49
  -3   0   0    1.48    0.34
  -3   0   0    2.13    0.34
  -3   0   0    1.92    0.32
   3   0   0    1.37    0.32
   3   0   0    2.30    0.44
   3   0   0    1.88    0.34
   3   0   0    2.11    0.33
  -4   0   0   65.68    1.87
  -4   0   0   64.18    2.07
   4   0   0   67.62    1.91
   4   0   0   63.83    1.99
   4   0   0   61.87    2.01
  -5   0   0   71.94    2.13
  -5   0   0   73.14    2.38
  -5   0   0   69.14    2.35
   5   0   0   68.15    2.39
   5   0   0   71.64    2.18
   5   0   0   69.80    2.29
  -6   0   0   86.53    2.82
   6   0   0   78.75    2.66
   6   0   0   81.36    2.51
  -7   0   0   39.88    1.88
   7   0   0   41.98    1.81
  -8   0   0    3.94    0.90
   8   0   0    2.67    0.78
   8  -1   0   19.97    1.31
  -8   1   0   20.63    1.40
   7  -1   0    9.92    0.95
  -7   1   0    9.85    0.98
   6  -1   0    2.41    0.73
   6  -1   0    1.12    0.55
   6  -1   0    0.99    0.81
  -6   1   0    1.06    0.59
   5  -1   0    0.77    0.47
   5  -1   0    0.43    0.56
   5  -1   0    0.65    0.67
  -5   1   0    1.18    0.74
  -5   1   0    1.00    0.48
  -5   1   0    0.12    0.44
   4  -1   0   52.07    1.70
   4  -1   0   53.36    1.78
   4  -1   0   55.09    1.61
  -4   1   0   53.51    1.58
  -4   1   0   51.43    1.74
  -4   1   0   51.68    1.73
  -4   1   0   52.21    1.74
   3  -1   0  304.93    7.39
   3  -1   0  302.88    8.00
   3  -1   0  310.76    8.01
   3  -1   0  301.78    7.35
  -3   1   0  298.92    8.02
  -3   1   0  298.76    7.39
  -3   1   0  315.96    8.01
  -3   1   0  304.41    7.34
   2  -1   0  698.50   17.10
   2  -1   0  690.49   17.05
   2  -1   0  716.56   18.44
   2  -1   0  702.55   18.73
  -2   1   0  679.17   17.11
  -2   1   0  710.74   17.04
  -2   1   0  716.72   18.94
  -2   1   0  718.99   18.51
   1  -1   0  389.20    9.35
   1  -1   0  391.41   10.11
   1  -1   0  383.70   10.07
  -1   1   0  366.94   10.06
  -1  -1   0   31.21    0.99
  -1  -1   0   31.73    0.90
  -1  -1   0   29.83    0.95
  -1  -1   0   30.16    0.95
  -1  -1   0   32.92    0.96
   1   1   0   31.41    0.96
   1   1   0   32.03    0.99
   1   1   0   30.58    0.97
  -2  -1   0    5.07    0.41
  -2  -1   0    5.18    0.42
  -2  -1   0    4.77    0.38
  -2  -1   0    5.53    0.45
   2   1   0    5.26    0.43
   2   1   0    5.32    0.51
   2   1   0    6.16    0.44
   2   1   0    5.44    0.49
  -3  -1   0  220.61    5.38
  -3  -1   0  211.37    5.89
  -3  -1   0  230.71    5.87
  -3  -1   0  206.49    5.41
   3   1   0  216.15    5.86
   3   1   0  218.16    5.44
   3   1   0  229.48    5.89
   3   1   0  218.46    5.88
  -4  -1   0   83.49    2.34
  -4  -1   0   86.84    2.63
   4   1   0   82.71    2.54
   4   1   0   83.51    2.47
  -5  -1   0  124.88    3.82
  -5  -1   0  131.88    3.50
   5   1   0  128.62    3.63
   5   1   0  124.39    3.75
  -6  -1   0   87.94    2.96
   6   1   0   88.46    2.89
  -7  -1   0    1.37    0.77
   7   1   0    1.63    0.70
  -8  -1   0    0.39    0.80
   8   1   0   -0.31    0.71
   8  -2   0   11.45    1.12
  -8   2   0   10.53    1.12
   7  -2   0    1.65    0.66
  -7   2   0    2.42    0.68
   6  -2   0    3.33    0.91
   6  -2   0    3.78    0.73
   6  -2   0    3.57    0.66
  -6   2   0    2.84    0.68
  -6   2   0    2.66    0.66
   5  -2   0  114.16    3.31
   5  -2   0  116.70    3.19
   5  -2   0  114.67    3.39
  -5   2   0  115.16    3.30
  -5   2   0  115.63    3.44
   4  -2   0  669.03   15.66
   4  -2   0  652.43   17.49
   4  -2   0  656.85   15.69
  -4   2   0  653.74   15.61
  -4   2   0  648.20   15.68
  -4   2   0  656.70   17.05
   3  -2   0  277.29    7.11
   3  -2   0  265.65    6.56
   3  -2   0  260.73    7.08
   3  -2   0  274.21    6.53
  -3   2   0  268.26    6.50
  -3   2   0  266.64    7.12
  -3   2   0  270.60    7.09
  -3   2   0  266.82    6.55
   2  -2   0   96.89    2.45
   2  -2   0   93.88    2.58
   2  -2   0   97.91    2.65
   2  -2   0   95.56    2.51
   2  -2   0  100.41    2.68
  -2   2   0  100.67    2.66
  -2   2   0   95.59    2.67
  -2   2   0   96.03    2.43
  -2   2   0   95.87    2.51
   1  -2   0   83.56    2.20
   1  -2   0   83.58    2.29
   1  -2   0   85.10    2.33
   1  -2   0   83.45    2.26
   1  -2   0   89.10    2.34
   1  -2   0   83.55    2.13
  -1   2   0   81.91    2.11
  -1   2   0   82.03    2.33
  -1   2   0   84.98    2.27
  -1   2   0   84.14    2.33
  -1   2   0   83.93    2.17
  -1   2   0   86.05    2.30
   0  -2   0   55.50    1.52
   0  -2   0   56.77    1.48
   0  -2   0   57.31    1.57
   0  -2   0   55.83    1.58
   0  -2   0   55.72    1.64
   0   2   0   56.64    1.53
   0   2   0   57.92    1.59
   0   2   0   56.95    1.66
   0   2   0   55.37    1.54
   0   2   0   56.78    1.46
  -1  -2   0  151.38    3.67
  -1  -2   0  151.61    3.98
  -1  -2   0  147.75    3.76
   1   2   0  153.19    4.04
   1   2   0  148.91    3.98
   1   2   0  147.76    3.66
   1   2   0  147.47    3.76
  -2  -2   0  710.73   18.99
  -2  -2   0  653.90   17.10
  -2  -2   0  712.96   17.23
  -2  -2   0  732.68   18.75
   2   2   0  678.71   18.54
   2   2   0  730.18   18.88
   2   2   0  707.08   17.02
   2   2   0  724.91   17.11
  -3  -2   0  341.76    8.47
  -3  -2   0  343.22    9.20
  -3  -2   0  361.03    8.42
   3   2   0  332.96    8.39
   3   2   0  345.75    9.15
   3   2   0  357.56    8.49
  -4  -2   0   42.71    1.70
  -4  -2   0   38.92    1.56
  -4  -2   0   41.01    1.42
   4   2   0   41.85    1.64
   4   2   0   39.64    1.51
   4   2   0   42.07    1.64
  -5  -2   0   20.77    1.28
  -5  -2   0   20.24    1.10
  -5  -2   0   21.37    1.15
   5   2   0   23.36    1.42
   5   2   0   22.82    1.38
   5   2   0   19.22    1.14
   5   2   0   20.95    1.18
  -6  -2   0    1.68    0.75
   6   2   0    1.07    0.57
  -7  -2   0   20.59    1.42
   7   2   0   20.25    1.30
  -8  -2   0   25.68    1.75
   8   2   0   23.46    1.49
   8  -3   0   16.49    1.29
  -8   3   0   17.61    1.35
   7  -3   0   73.27    2.49
  -7   3   0   69.12    2.52
  -7   3   0   68.41    2.52
   6  -3   0  112.62    3.19
   6  -3   0  107.05    3.34
   6  -3   0  114.31    3.38
  -6   3   0  106.98    3.42
   5  -3   0  103.39    2.88
   5  -3   0  103.54    3.02
   5  -3   0  102.60    3.06
  -5   3   0  105.19    3.00
  -5   3   0   95.29    3.07
   4  -3   0   24.15    1.04
   4  -3   0   25.70    1.15
   4  -3   0   24.10    1.00
  -4   3   0   25.49    1.12
  -4   3   0   25.20    1.07
   3  -3   0   20.08    0.87
   3  -3   0   20.75    0.84
   3  -3   0   20.38    0.85
   3  -3   0   19.61    0.91
   3  -3   0   22.29    1.02
  -3   3   0   20.16    0.79
  -3   3   0   20.15    0.83
  -3   3   0   19.59    0.83
  -3   3   0   20.32    0.96
   2  -3   0  132.79    3.41
   2  -3   0  136.06    3.68
   2  -3   0  135.49    3.35
   2  -3   0  128.69    3.52
   2  -3   0  133.86    3.60
   2  -3   0  136.20    3.66
  -2   3   0  137.44    3.63
  -2   3   0  132.16    3.31
  -2   3   0  131.20    3.66
  -2   3   0  133.38    3.39
  -2   3   0  134.27    3.53
   1  -3   0  256.59    6.83
   1  -3   0  253.18    6.55
   1  -3   0  255.08    6.31
   1  -3   0  259.04    6.81
   1  -3   0  264.47    6.84
   1  -3   0  257.59    6.28
  -1   3   0  265.45    6.85
  -1   3   0  260.52    6.26
  -1   3   0  269.01    6.84
  -1   3   0  259.08    6.86
  -1   3   0  276.11    6.60
  -1   3   0  258.16    6.29
   0  -3   0   70.54    1.85
   0  -3   0   66.53    1.99
   0  -3   0   66.54    1.88
   0  -3   0   70.54    1.95
   0  -3   0   66.91    2.04
   0   3   0   71.15    2.11
   0   3   0   69.22    1.94
   0   3   0   67.73    1.96
   0   3   0   68.98    1.93
   0   3   0   67.02    1.81
  -1  -3   0   87.48    2.62
  -1  -3   0   91.49    2.49
  -1  -3   0   91.95    2.50
  -1  -3   0   89.24    2.33
   1   3   0   85.01    2.50
   1   3   0   90.14    2.44
   1   3   0   88.73    2.48
   1   3   0   87.53    2.30
   1   3   0   90.88    2.63
  -2  -3   0  377.55    9.42
  -2  -3   0  372.46    9.40
  -2  -3   0  384.35    9.33
  -2  -3   0  395.99   10.24
  -2  -3   0  400.36   10.15
   2   3   0  388.20   10.17
   2   3   0  383.02    9.31
   2   3   0  405.90   10.24
   2   3   0  385.62    9.43
  -3  -3   0   74.06    2.39
  -3  -3   0   76.07    2.16
  -3  -3   0   72.78    2.36
   3   3   0   78.42    2.30
   3   3   0   74.46    2.32
   3   3   0   76.58    2.13
  -4  -3   0   24.83    1.21
  -4  -3   0   24.16    1.31
  -4  -3   0   25.03    1.46
   4   3   0   23.98    1.17
   4   3   0   25.05    1.13
   4   3   0   28.01    1.57
  -5  -3   0   31.01    1.62
  -5  -3   0   33.98    1.51
  -5  -3   0   31.54    1.89
   5   3   0   31.08    1.40
   5   3   0   31.12    1.41
  -6  -3   0   71.28    2.63
   6   3   0   64.16    2.40
  -7  -3   0   38.23    1.93
   7   3   0   35.03    1.78
   8  -4   0   51.46    2.10
  -8   4   0   51.13    2.19
  -8   4   0   48.50    2.18
   7  -4   0   76.64    2.62
   7  -4   0   79.50    2.69
  -7   4   0   76.26    2.74
   6  -4   0   94.72    2.96
   6  -4   0   94.63    3.00
   6  -4   0   92.87    2.96
   6  -4   0   96.72    2.85
  -6   4   0   93.99    3.06
   5  -4   0    0.85    0.58
   5  -4   0    1.80    0.50
   5  -4   0    1.11    0.80
   5  -4   0    1.67    0.67
  -5   4   0    1.37    0.48
   4  -4   0   68.06    2.10
   4  -4   0   67.94    2.13
   4  -4   0   67.46    1.98
   4  -4   0   66.48    2.15
  -4   4   0   66.99    2.08
  -4   4   0   67.47    2.14
   3  -4   0  122.50    3.27
   3  -4   0  119.82    3.41
   3  -4   0  122.36    3.18
   3  -4   0  124.73    3.54
   3  -4   0  122.04    3.38
  -3   4   0  123.36    3.50
  -3   4   0  122.33    3.25
  -3   4   0  127.13    3.45
   2  -4   0  643.57   16.10
   2  -4   0  620.80   15.41
   2  -4   0  607.63   15.01
   2  -4   0  613.76   15.01
   2  -4   0  619.11   16.30
   2  -4   0  621.89   16.38
  -2   4   0  618.72   14.78
  -2   4   0  616.38   15.44
  -2   4   0  620.90   16.12
  -2   4   0  634.47   16.36
   1  -4   0  287.72    6.92
   1  -4   0  290.24    7.46
   1  -4   0  292.35    7.48
   1  -4   0  281.66    6.92
   1  -4   0  273.45    7.15
  -1   4   0  291.53    7.52
  -1   4   0  283.14    7.52
  -1   4   0  283.61    7.49
  -1   4   0  280.26    6.86
  -1   4   0  285.21    7.22
  -1   4   0  278.02    6.86
   0  -4   0  140.16    3.72
   0  -4   0  150.86    3.89
   0  -4   0  142.57    3.73
   0  -4   0  141.60    3.97
   0  -4   0  146.65    3.62
   0   4   0  139.19    3.55
   0   4   0  148.28    4.03
   0   4   0  143.56    3.92
   0   4   0  142.94    3.77
   0   4   0  134.16    3.66
  -1  -4   0   29.64    1.02
  -1  -4   0   30.01    1.06
  -1  -4   0   27.68    1.33
  -1  -4   0   28.44    1.24
   1   4   0   29.03    1.07
   1   4   0   27.03    1.30
   1   4   0   27.09    1.05
   1   4   0   30.62    1.21
   1   4   0   27.75    1.00
  -2  -4   0    1.67    0.44
  -2  -4   0    1.28    0.49
  -2  -4   0    0.83    0.63
   2   4   0    0.57    0.41
   2   4   0    1.11    0.38
   2   4   0    1.29    0.44
   2   4   0    1.04    0.49
  -3  -4   0   45.88    1.73
  -3  -4   0   40.61    1.88
  -3  -4   0   41.82    1.52
   3   4   0   42.01    1.47
   3   4   0   40.04    1.52
  -4  -4   0  121.54    3.85
  -4  -4   0  126.47    3.49
  -4  -4   0  126.65    3.68
   4   4   0  131.60    3.48
   4   4   0  122.29    3.74
  -5  -4   0  118.77    3.67
  -5  -4   0  119.56    3.78
   5   4   0  116.41    3.67
  -6  -4   0   20.87    1.51
   6   4   0   18.25    1.28
  -7  -4   0    5.56    1.05
   7   4   0    5.92    0.92
   8  -5   0    8.93    1.03
  -8   5   0   10.63    1.13
   7  -5   0    5.10    0.76
   7  -5   0    5.84    0.91
  -7   5   0    4.92    0.76
   6  -5   0   17.89    1.19
   6  -5   0   17.25    1.05
   6  -5   0   18.46    1.28
   6  -5   0   16.39    1.21
  -6   5   0   14.16    1.00
   5  -5   0  109.28    3.33
   5  -5   0  112.12    3.33
   5  -5   0  117.32    3.32
   5  -5   0  111.47    3.60
   5  -5   0  112.68    3.15
  -5   5   0  111.90    3.43
   4  -5   0   87.26    2.64
   4  -5   0   88.40    2.48
   4  -5   0   83.57    2.59
   4  -5   0   85.05    2.56
   4  -5   0   85.99    2.75
  -4   5   0   82.36    2.64
   3  -5   0  143.48    3.94
   3  -5   0  140.74    3.81
   3  -5   0  143.53    4.01
   3  -5   0  139.46    3.88
   3  -5   0  139.49    3.70
  -3   5   0  150.23    4.02
  -3   5   0  143.91    3.94
  -3   5   0  138.96    4.06
   2  -5   0  151.03    4.19
   2  -5   0  148.56    4.18
   2  -5   0  158.49    4.26
   2  -5   0  153.65    4.03
   2  -5   0  153.86    4.09
   2  -5   0  153.74    3.94
  -2   5   0  155.38    4.24
  -2   5   0  151.28    4.32
  -2   5   0  156.86    3.94
  -2   5   0  158.99    4.27
  -2   5   0  148.94    4.15
   1  -5   0   65.41    2.02
   1  -5   0   68.66    2.00
   1  -5   0   67.42    2.00
   1  -5   0   64.04    1.94
   1  -5   0   66.45    1.97
  -1   5   0   61.98    2.04
  -1   5   0   70.80    2.12
  -1   5   0   64.44    1.85
  -1   5   0   64.53    2.02
  -1   5   0   64.98    2.02
   0  -5   0   15.27    1.14
   0  -5   0   14.72    0.86
   0  -5   0   15.00    0.74
   0  -5   0   14.27    0.88
   0   5   0   14.10    1.02
   0   5   0   15.20    0.76
   0   5   0   14.62    0.86
   0   5   0   13.84    0.75
  -1  -5   0  110.81    2.94
  -1  -5   0  110.59    3.31
  -1  -5   0  104.42    3.14
   1   5   0  107.68    3.15
   1   5   0  107.03    2.85
   1   5   0  113.30    3.36
   1   5   0  109.63    3.06
  -2  -5   0   83.43    2.74
  -2  -5   0   84.38    2.42
  -2  -5   0   85.10    2.68
   2   5   0   82.07    2.52
   2   5   0   86.45    2.35
   2   5   0   79.96    2.55
  -3  -5   0   93.99    2.99
  -3  -5   0   89.99    2.63
  -3  -5   0   93.59    3.04
  -3  -5   0   90.73    3.01
   3   5   0   90.11    2.76
   3   5   0   85.27    2.80
   3   5   0   91.28    2.60
  -4  -5   0  154.33    4.77
  -4  -5   0  163.74    4.57
  -4  -5   0  164.58    4.36
   4   5   0  150.67    4.65
   4   5   0  166.13    4.56
  -5  -5   0   27.13    1.55
   5   5   0   26.96    1.45
   5   5   0   26.21    1.43
  -6  -5   0    0.41    0.87
   6   5   0    0.52    0.63
  -7  -5   0    2.39    1.04
   7   5   0   -0.69    0.74
   8  -6   0    1.90    1.15
  -8   6   0    3.11    0.81
   7  -6   0    9.97    0.93
   7  -6   0   11.05    1.29
  -7   6   0    8.94    0.96
   6  -6   0   85.87    2.83
   6  -6   0   87.11    2.67
   6  -6   0   84.44    2.73
   6  -6   0   88.35    3.11
  -6   6   0   81.76    2.86
   5  -6   0  125.72    3.76
   5  -6   0  128.16    3.76
   5  -6   0  130.59    3.80
   5  -6   0  130.63    4.01
   5  -6   0  132.70    3.64
  -5   6   0  129.39    3.92
   4  -6   0  125.98    3.66
   4  -6   0  121.81    3.35
   4  -6   0  121.76    3.53
   4  -6   0  123.13    3.56
   4  -6   0  122.52    3.53
  -4   6   0  120.58    3.67
   3  -6   0   46.82    1.60
   3  -6   0   47.92    1.82
   3  -6   0   48.11    1.69
   3  -6   0   47.67    1.69
   3  -6   0   48.30    1.66
  -3   6   0   46.93    1.74
  -3   6   0   45.40    1.78
   2  -6   0    2.58    0.70
   2  -6   0    2.59    0.49
   2  -6   0    2.38    0.44
   2  -6   0    3.06    0.57
   2  -6   0    2.97    0.63
  -2   6   0    3.17    0.64
  -2   6   0    2.79    0.52
  -2   6   0    2.52    0.49
  -2   6   0    3.24    0.52
   1  -6   0   18.35    0.90
   1  -6   0   17.95    1.06
   1  -6   0   17.60    1.07
   1  -6   0   16.62    0.88
  -1   6   0   17.24    1.00
  -1   6   0   16.76    1.04
  -1   6   0   17.31    0.91
  -1   6   0   15.70    1.00
   0  -6   0  285.77    7.36
   0  -6   0  287.60    7.83
   0  -6   0  287.96    7.19
   0   6   0  303.01    8.00
   0   6   0  292.24    7.49
   0   6   0  286.36    7.81
  -1  -6   0  357.25    9.67
  -1  -6   0  361.88    8.79
  -1  -6   0  358.98    8.99
   1   6   0  357.98    9.57
   1   6   0  353.75    9.15
  -2  -6   0  106.75    3.52
  -2  -6   0  113.81    3.17
  -2  -6   0  114.56    3.47
   2   6   0  109.96    3.36
   2   6   0  114.98    3.31
  -3  -6   0    9.50    1.07
  -3  -6   0   10.34    1.33
  -3  -6   0    9.71    0.90
  -3  -6   0   10.16    1.19
   3   6   0    8.66    0.79
   3   6   0    8.80    0.90
  -4  -6   0    0.56    1.05
  -4  -6   0    0.59    0.80
   4   6   0    1.84    0.61
   4   6   0   -0.25    0.66
  -5  -6   0    5.95    1.03
   5   6   0    6.21    0.86
  -6  -6   0   10.67    1.32
   6   6   0   10.74    1.11
   8  -7   0   26.72    1.93
  -8   7   0   21.29    1.55
   7  -7   0   25.27    1.39
   7  -7   0   26.42    1.76
  -7   7   0   21.50    1.43
   6  -7   0    7.63    0.95
   6  -7   0    8.81    1.00
   6  -7   0    7.50    0.81
   6  -7   0    8.38    1.06
  -6   7   0    7.72    0.89
   5  -7   0   16.84    1.27
   5  -7   0   18.75    1.34
   5  -7   0   17.40    1.01
   5  -7   0   20.37    1.35
   5  -7   0   19.04    1.25
  -5   7   0   18.20    1.16
   4  -7   0   11.75    1.02
   4  -7   0   12.36    0.92
   4  -7   0   10.30    1.10
   4  -7   0   13.15    1.01
   4  -7   0   10.63    0.82
  -4   7   0    9.40    0.89
   3  -7   0   22.17    1.14
   3  -7   0   23.36    1.28
   3  -7   0   20.36    1.22
   3  -7   0   22.54    1.06
   3  -7   0   21.67    1.47
  -3   7   0   20.07    1.26
  -3   7   0   19.97    1.11
   2  -7   0   64.77    2.20
   2  -7   0   63.15    2.00
   2  -7   0   63.41    2.00
   2  -7   0   64.50    2.17
  -2   7   0   59.30    2.16
  -2   7   0   58.86    2.15
   1  -7   0  147.68    4.05
   1  -7   0  144.16    4.10
   1  -7   0  142.69    3.93
   1  -7   0  144.47    3.91
  -1   7   0  140.16    4.18
  -1   7   0  144.30    4.08
   0  -7   0  287.03    7.01
   0  -7   0  271.71    7.54
   0  -7   0  279.11    7.16
   0   7   0  273.88    7.28
   0   7   0  274.44    7.57
  -1  -7   0   34.30    1.45
  -1  -7   0   33.29    1.91
  -1  -7   0   33.21    1.61
   1   7   0   33.65    1.43
   1   7   0   34.41    1.48
  -2  -7   0   12.78    1.17
  -2  -7   0   14.28    1.08
  -2  -7   0   13.21    1.43
   2   7   0   12.45    0.91
   2   7   0   13.31    1.07
  -3  -7   0   11.07    1.15
  -3  -7   0   10.20    1.25
  -3  -7   0   11.62    1.27
  -3  -7   0   11.98    1.02
   3   7   0   10.08    0.98
   3   7   0    9.15    0.87
  -4  -7   0   41.96    2.03
   4   7   0   36.69    1.74
   4   7   0   40.98    1.86
  -5  -7   0   26.17    1.79
   5   7   0   23.34    1.41
  -6  -7   0   39.49    2.23
   6   7   0   36.40    1.89
   7  -8   0    5.27    1.07
  -7   8   0    5.61    0.93
   6  -8   0   -0.42    0.75
   6  -8   0   -0.05    0.56
   6  -8   0    0.14    0.77
  -6   8   0    0.10    0.61
   5  -8   0    2.44    0.83
   5  -8   0    3.01    0.73
   5  -8   0    1.78    0.57
   5  -8   0    2.76    0.98
   5  -8   0    1.40    0.77
  -5   8   0    1.16    0.62
   4  -8   0   77.32    2.48
   4  -8   0   75.63    2.40
   4  -8   0   72.58    2.45
   4  -8   0   73.93    2.48
   4  -8   0   77.71    2.66
  -4   8   0   76.38    2.66
  -4   8   0   74.23    2.65
   3  -8   0  192.43    5.38
   3  -8   0  193.74    5.20
   3  -8   0  195.74    5.29
   3  -8   0  191.86    5.24
  -3   8   0  193.18    5.65
  -3   8   0  202.44    5.47
   2  -8   0  148.37    4.12
   2  -8   0  145.86    4.10
   2  -8   0  143.95    4.10
   2  -8   0  144.12    3.98
  -2   8   0  143.92    4.21
  -2   8   0  137.39    4.30
   1  -8   0   19.36    1.45
   1  -8   0   19.01    1.12
   1  -8   0   18.31    1.26
  -1   8   0   20.22    1.36
  -1   8   0   17.49    1.10
   0  -8   0   -0.64    1.11
   0  -8   0    0.08    0.61
   0  -8   0    0.95    0.80
   0   8   0   -0.59    0.72
   0   8   0    0.58    0.50
  -1  -8   0    4.47    1.16
  -1  -8   0    3.03    0.86
  -1  -8   0    5.03    0.86
   1   8   0    3.43    0.85
   1   8   0    4.26    0.68
  -2  -8   0   50.90    1.87
  -2  -8   0   47.85    2.06
  -2  -8   0   47.41    2.30
   2   8   0   47.60    1.91
   2   8   0   48.44    1.94
  -3  -8   0  100.68    3.43
  -3  -8   0  103.28    3.53
   3   8   0  107.93    3.33
   3   8   0   97.29    3.32
  -4  -8   0   27.14    1.79
   4   8   0   26.86    1.51
  -5  -8   0   12.14    1.44
   5   8   0   10.68    1.11
  -7   9   0    6.51    1.00
  -6   9   0   19.62    1.37
   5  -9   0   53.27    2.08
   5  -9   0   55.05    2.04
  -5   9   0   48.73    2.10
   4  -9   0   46.80    2.12
   4  -9   0   47.52    1.99
   4  -9   0   49.45    1.81
   4  -9   0   45.51    1.71
  -4   9   0   49.12    2.07
  -4   9   0   45.94    1.99
   3  -9   0   13.50    1.21
   3  -9   0   13.10    0.94
   3  -9   0   15.89    1.12
   3  -9   0   13.67    1.24
  -3   9   0   11.70    1.04
  -3   9   0   13.71    1.15
   2  -9   0   23.75    1.55
   2  -9   0   23.77    1.16
   2  -9   0   21.35    1.47
   2  -9   0   21.55    1.22
  -2   9   0   20.65    1.28
  -2   9   0   21.76    1.44
   1  -9   0    2.18    1.09
   1  -9   0    4.46    0.68
   1  -9   0    4.18    0.94
  -1   9   0    2.70    0.64
  -1   9   0    4.84    0.91
   0  -9   0   57.36    2.08
   0  -9   0   55.98    2.10
   0  -9   0   55.75    2.42
   0   9   0   56.66    2.13
   0   9   0   57.22    2.16
  -1  -9   0   38.65    1.76
  -1  -9   0   41.93    1.82
  -1  -9   0   42.65    2.19
   1   9   0   41.15    1.83
   1   9   0   40.50    1.76
  -2  -9   0   74.26    2.76
  -2  -9   0   76.96    2.88
   2   9   0   74.12    2.63
   2   9   0   74.76    2.70
  -3  -9   0   47.47    2.22
   3   9   0   46.16    2.00
   4   9   0   11.44    1.18
  -6  10   0   49.97    2.24
   5 -10   0   17.06    1.43
  -5  10   0   16.12    1.33
   4 -10   0   -0.26    0.93
  -4  10   0    0.09    0.85
  -4  10   0    0.71    0.66
   3 -10   0    3.52    1.08
  -3  10   0    3.53    0.96
  -3  10   0    2.81    0.77
   2 -10   0   60.11    2.56
   2 -10   0   66.89    2.51
   2 -10   0   67.12    2.22
  -2  10   0   66.47    2.51
  -2  10   0   61.69    2.45
   1 -10   0   87.11    2.83
   1 -10   0   85.08    3.09
   1 -10   0   93.20    3.00
  -1  10   0   92.86    3.10
  -1  10   0   87.88    3.08
   0 -10   0   41.83    1.79
   0 -10   0   44.98    2.16
   0  10   0   44.09    1.98
   0  10   0   43.37    1.90
  -1 -10   0   21.86    1.73
  -1 -10   0   22.79    1.46
   1  10   0   24.45    1.38
   1  10   0   22.16    1.55
   2  10   0    6.42    0.89
   3  10   0   -0.40    0.63
  -5  11   0    2.05    0.83
   4 -11   0   32.44    1.98
  -4  11   0   29.89    1.73
   3 -11   0   23.64    1.75
  -3  11   0   24.15    1.55
  -3  11   0   24.54    1.75
   2 -11   0   36.34    2.14
  -2  11   0   34.84    1.89
  -2  11   0   32.22    1.71
   1 -11   0   26.97    1.95
  -1  11   0   28.09    1.56
  -1  11   0   29.69    1.77
   0 -11   0   27.65    1.99
   0  11   0   25.05    1.53
   1  11   0    1.07    0.72
   2  11   0    7.03    1.05
  -4  12   0   27.60    1.74
  -3  12   0   23.88    1.63
  -2  12   0    2.17    0.85
  -1  12   0   -0.18    0.69
   0  12   0    3.37    0.83
   1  12  -1   31.02    1.74
   0  12  -1   20.43    1.45
  -1  12  -1    9.99    1.18
  -2  12  -1    1.96    0.86
  -3  12  -1   15.24    1.36
  -4  12  -1   31.37    1.86
   3  11  -1   12.29    1.25
   2  11  -1   26.94    1.65
   1  11  -1    4.91    0.90
   0  11  -1    0.10    0.67
   0 -11   1    1.03    0.77
  -1  11  -1    4.68    0.89
   1 -11   1    3.17    0.80
   1 -11   1    2.73    1.28
  -2  11  -1   16.84    1.34
   2 -11   1   16.92    1.66
  -3  11  -1   30.96    1.69
   3 -11   1   31.69    2.03
  -4  11  -1   33.36    1.84
  -5  11  -1   30.98    1.81
   4  10  -1   15.97    1.37
   3  10  -1    8.37    1.02
  -3 -10   1    7.98    1.23
   2  10  -1    2.91    0.75
  -2 -10   1    3.67    1.02
   1  10  -1   12.26    1.21
   1  10  -1   10.43    1.05
  -1 -10   1   11.16    1.43
  -1 -10   1   12.21    1.16
   0  10  -1   38.17    1.81
   0  10  -1   38.21    1.84
   0 -10   1   41.08    2.23
   0 -10   1   41.09    1.87
  -1  10  -1   80.55    2.93
  -1  10  -1   91.14    3.02
   1 -10   1   79.02    2.82
   1 -10   1   87.46    3.02
  -2  10  -1   63.82    2.50
  -2  10  -1   63.18    2.47
   2 -10   1   65.17    2.30
   2 -10   1   64.55    2.51
   2 -10   1   66.38    2.33
  -3  10  -1   36.32    1.87
  -3  10  -1   37.86    1.84
   3 -10   1   39.45    2.01
   3 -10   1   40.47    1.68
  -4  10  -1    3.58    0.99
  -4  10  -1    3.60    0.78
   4 -10   1    3.39    0.72
   4 -10   1    2.77    1.08
  -5  10  -1   14.56    1.28
  -6  10  -1   26.50    1.66
   5   9  -1    4.78    0.99
  -5  -9   1    5.67    1.28
   4   9  -1    1.15    0.76
  -4  -9   1    0.42    0.96
   3   9  -1    4.45    0.80
  -3  -9   1    5.27    1.07
   2   9  -1   34.91    1.73
   2   9  -1   32.12    1.60
  -2  -9   1   32.29    1.79
  -2  -9   1   29.94    1.95
   1   9  -1   34.49    1.63
   1   9  -1   35.69    1.66
  -1  -9   1   36.23    2.10
  -1  -9   1   34.08    1.71
  -1  -9   1   32.79    1.71
   0   9  -1   69.37    2.46
   0   9  -1   70.57    2.50
   0  -9   1   66.81    2.61
   0  -9   1   67.61    2.40
   0  -9   1   69.39    2.52
  -1   9  -1   91.98    3.09
  -1   9  -1   87.33    3.05
   1  -9   1   93.89    2.91
   1  -9   1   89.47    2.98
   1  -9   1   94.86    3.03
   1  -9   1   96.60    3.19
  -2   9  -1    0.56    0.56
  -2   9  -1    1.17    0.85
   2  -9   1    1.79    0.94
   2  -9   1    1.59    0.99
   2  -9   1    0.31    0.59
   2  -9   1    1.02    0.75
  -3   9  -1    7.15    0.89
  -3   9  -1    6.46    0.99
   3  -9   1    5.68    0.74
   3  -9   1    8.34    0.93
   3  -9   1    8.52    1.07
   3  -9   1    6.90    1.07
  -4   9  -1    5.14    0.79
  -4   9  -1    4.97    0.97
   4  -9   1    6.40    0.76
   4  -9   1    6.15    0.91
   4  -9   1    5.69    0.67
   4  -9   1    4.70    1.00
  -5   9  -1   36.84    1.82
   5  -9   1   38.71    1.69
   5  -9   1   40.21    1.91
  -6   9  -1   37.52    1.83
  -7   9  -1   25.69    1.60
   5   8  -1    2.20    0.75
  -5  -8   1    1.49    1.06
   4   8  -1   19.48    1.27
  -4  -8   1   18.10    1.53
   3   8  -1  111.73    3.45
   3   8  -1  108.15    3.53
  -3  -8   1  105.27    3.70
  -3  -8   1  110.37    3.57
   2   8  -1  119.21    3.48
   2   8  -1  106.43    3.50
  -2  -8   1  109.39    3.57
  -2  -8   1  108.96    3.66
  -2  -8   1  113.58    3.31
   1   8  -1   53.49    2.09
   1   8  -1   48.62    1.94
  -1  -8   1   54.05    2.19
  -1  -8   1   50.99    1.95
  -1  -8   1   52.44    2.42
   0   8  -1   23.87    1.21
   0   8  -1   21.44    1.39
   0  -8   1   23.48    1.49
   0  -8   1   21.69    1.28
   0  -8   1   21.59    1.36
   0  -8   1   22.14    1.66
  -1   8  -1   26.15    1.52
  -1   8  -1   26.06    1.32
  -1   8  -1   27.72    1.25
   1  -8   1   27.27    1.63
   1  -8   1   26.51    1.47
   1  -8   1   28.38    1.38
   1  -8   1   28.14    1.62
  -2   8  -1   78.20    2.66
  -2   8  -1   76.68    2.69
   2  -8   1   78.98    2.63
   2  -8   1   77.26    2.54
   2  -8   1   80.40    2.69
   2  -8   1   77.49    2.54
  -3   8  -1  118.42    3.78
  -3   8  -1  119.22    3.72
   3  -8   1  124.88    3.62
   3  -8   1  120.31    3.62
   3  -8   1  118.40    3.59
   3  -8   1  121.64    3.57
  -4   8  -1   76.80    2.66
   4  -8   1   75.71    2.37
   4  -8   1   75.02    2.47
   4  -8   1   71.82    2.59
   4  -8   1   74.76    2.46
   4  -8   1   74.83    2.62
  -5   8  -1   16.72    1.15
   5  -8   1   20.20    1.27
   5  -8   1   17.95    1.18
   5  -8   1   17.97    1.27
   5  -8   1   17.78    1.33
  -6   8  -1   10.24    1.03
   6  -8   1   12.68    1.11
   6  -8   1   11.29    1.00
  -7   8  -1    0.99    0.74
   6   7  -1   19.57    1.46
  -6  -7   1   21.32    1.67
   5   7  -1   18.61    1.27
  -5  -7   1   20.88    1.53
   4   7  -1   46.54    2.01
   4   7  -1   46.45    1.92
  -4  -7   1   50.53    2.22
   3   7  -1   74.33    2.58
   3   7  -1   72.33    2.55
  -3  -7   1   78.57    2.52
  -3  -7   1   71.01    2.77
  -3  -7   1   76.25    2.76
   2   7  -1    1.58    0.52
   2   7  -1    3.90    0.71
   2   7  -1    3.42    0.78
  -2  -7   1    2.37    0.86
  -2  -7   1    2.27    0.79
  -2  -7   1    1.84    1.15
   1   7  -1    9.04    0.79
   1   7  -1    9.33    0.81
   1   7  -1    8.58    0.87
  -1  -7   1    8.69    1.25
  -1  -7   1    9.51    1.01
  -1  -7   1    9.26    0.92
   0   7  -1   31.20    1.38
   0   7  -1   34.09    1.53
   0  -7   1   35.15    1.57
   0  -7   1   33.60    1.56
   0  -7   1   35.19    1.44
   0  -7   1   35.46    1.84
  -1   7  -1  126.12    3.51
  -1   7  -1  117.15    3.60
  -1   7  -1  126.24    3.76
   1  -7   1  125.76    3.55
   1  -7   1  124.40    3.69
   1  -7   1  123.91    3.54
   1  -7   1  128.38    3.63
  -2   7  -1   77.99    2.55
  -2   7  -1   77.40    2.56
   2  -7   1   79.35    2.57
   2  -7   1   76.47    2.44
   2  -7   1   74.63    2.44
   2  -7   1   75.30    2.45
  -3   7  -1  144.07    4.21
  -3   7  -1  138.25    4.28
   3  -7   1  144.47    4.11
   3  -7   1  146.41    4.17
   3  -7   1  149.01    4.01
   3  -7   1  145.99    4.00
   3  -7   1  147.35    4.17
  -4   7  -1   25.38    1.34
   4  -7   1   24.22    1.30
   4  -7   1   25.45    1.55
   4  -7   1   24.39    1.34
   4  -7   1   24.79    1.45
   4  -7   1   23.39    1.22
  -5   7  -1    2.23    0.61
   5  -7   1    2.25    0.74
   5  -7   1    3.13    0.82
   5  -7   1    1.52    0.93
   5  -7   1    3.75    0.77
  -6   7  -1    1.07    0.61
   6  -7   1    0.91    0.63
   6  -7   1    1.39    0.86
   6  -7   1    0.83    0.79
  -7   7  -1   18.99    1.32
   7  -7   1   21.43    1.58
   7  -7   1   19.67    1.33
  -8   7  -1   37.10    1.91
   8  -7   1   38.05    2.23
   7   6  -1   37.82    2.00
  -7  -6   1   40.01    2.16
   6   6  -1   32.15    1.70
  -6  -6   1   40.15    2.07
   5   6  -1   40.95    1.82
  -5  -6   1   40.62    1.96
   4   6  -1   27.12    1.49
   4   6  -1   24.34    1.30
  -4  -6   1   24.10    1.80
  -4  -6   1   29.08    1.57
   3   6  -1    5.53    0.86
   3   6  -1    5.72    0.78
   3   6  -1    5.24    0.67
  -3  -6   1    4.76    0.82
  -3  -6   1    4.91    1.16
  -3  -6   1    5.62    0.89
   2   6  -1   74.43    2.44
   2   6  -1   74.18    2.24
   2   6  -1   74.90    2.41
  -2  -6   1   72.14    2.57
  -2  -6   1   75.63    2.31
  -2  -6   1   75.57    2.65
   1   6  -1  313.15    8.59
   1   6  -1  313.96    8.26
   1   6  -1  321.28    7.84
  -1  -6   1  325.62    8.12
  -1  -6   1  326.83    8.75
  -1  -6   1  317.83    7.90
   0   6  -1  244.65    6.35
   0   6  -1  242.86    6.60
   0   6  -1  239.82    6.01
   0  -6   1  234.62    6.63
   0  -6   1  238.34    6.27
   0  -6   1  245.99    6.08
   0  -6   1  242.28    6.24
  -1   6  -1   71.84    2.11
  -1   6  -1   70.44    2.07
  -1   6  -1   69.44    2.24
  -1   6  -1   71.59    2.30
   1  -6   1   70.17    2.27
   1  -6   1   68.20    2.20
   1  -6   1   71.91    2.18
   1  -6   1   70.41    2.21
  -2   6  -1   72.00    2.31
  -2   6  -1   71.53    2.35
  -2   6  -1   68.77    2.18
   2  -6   1   72.32    2.22
   2  -6   1   69.02    2.25
   2  -6   1   73.14    2.07
   2  -6   1   70.82    2.27
   2  -6   1   75.32    2.26
  -3   6  -1   10.81    0.90
  -3   6  -1    7.37    0.84
  -3   6  -1    8.29    0.76
   3  -6   1    8.96    0.64
   3  -6   1    8.49    0.78
   3  -6   1    9.11    0.86
   3  -6   1    8.75    0.89
   3  -6   1    8.13    0.71
  -4   6  -1   45.24    1.81
   4  -6   1   46.19    1.70
   4  -6   1   44.81    1.87
   4  -6   1   48.60    1.87
   4  -6   1   49.05    1.79
   4  -6   1   49.48    1.82
  -5   6  -1   53.62    2.11
   5  -6   1   56.37    2.04
   5  -6   1   57.70    2.28
   5  -6   1   56.64    2.16
   5  -6   1   63.47    2.10
   5  -6   1   58.31    2.25
  -6   6  -1   63.55    2.36
   6  -6   1   64.96    2.38
   6  -6   1   66.26    2.56
   6  -6   1   62.90    2.28
   6  -6   1   64.61    2.22
  -7   6  -1   23.28    1.39
   7  -6   1   21.52    1.53
   7  -6   1   22.59    1.37
  -8   6  -1    6.68    1.05
   8  -6   1    5.63    0.95
   7   5  -1   18.80    1.35
  -7  -5   1   16.28    1.54
   6   5  -1    1.40    0.69
  -6  -5   1    1.68    0.91
   5   5  -1    0.59    0.67
   5   5  -1    2.27    0.64
  -5  -5   1    2.80    0.84
   4   5  -1   83.96    2.55
   4   5  -1   82.12    2.69
   4   5  -1   77.57    2.67
  -4  -5   1   82.09    2.58
  -4  -5   1   83.37    2.87
  -4  -5   1   85.79    2.91
   3   5  -1   73.41    2.38
   3   5  -1   73.77    2.23
   3   5  -1   70.78    2.33
  -3  -5   1   74.43    2.53
  -3  -5   1   75.82    2.57
  -3  -5   1   71.14    2.22
  -3  -5   1   73.07    2.56
   2   5  -1   69.17    2.38
   2   5  -1   68.45    2.04
   2   5  -1   72.48    2.20
  -2  -5   1   70.45    2.31
  -2  -5   1   70.51    2.42
  -2  -5   1   71.19    2.14
   1   5  -1  263.77    6.83
   1   5  -1  263.67    7.25
   1   5  -1  282.71    7.41
   1   5  -1  262.10    6.62
   1   5  -1  281.57    6.98
  -1  -5   1  268.81    7.39
  -1  -5   1  264.80    6.83
  -1  -5   1  270.09    6.68
   0   5  -1  106.73    3.14
   0   5  -1  106.82    2.98
   0   5  -1  110.55    3.26
   0   5  -1  105.78    2.85
   0   5  -1  107.93    3.05
   0  -5   1  110.52    3.11
   0  -5   1  109.21    3.01
   0  -5   1  106.92    3.07
   0  -5   1  107.03    2.90
   0  -5   1  106.62    3.20
  -1   5  -1    4.92    0.60
  -1   5  -1    6.54    0.61
  -1   5  -1    4.29    0.52
  -1   5  -1    4.53    0.57
  -1   5  -1    5.16    0.40
  -1   5  -1    4.32    0.58
   1  -5   1    4.97    0.56
   1  -5   1    4.11    0.59
   1  -5   1    3.96    0.62
   1  -5   1    5.27    0.52
   1  -5   1    4.84    0.63
  -2   5  -1    3.02    0.45
  -2   5  -1    3.29    0.62
  -2   5  -1    3.54    0.49
  -2   5  -1    2.40    0.54
   2  -5   1    3.78    0.38
   2  -5   1    3.40    0.63
   2  -5   1    2.77    0.46
   2  -5   1    2.78    0.54
   2  -5   1    2.84    0.56
  -3   5  -1   62.21    2.10
  -3   5  -1   65.86    2.07
   3  -5   1   68.09    2.02
   3  -5   1   64.81    2.13
   3  -5   1   65.29    2.07
   3  -5   1   63.74    2.06
   3  -5   1   64.28    1.98
  -4   5  -1  116.77    3.55
  -4   5  -1  120.58    3.37
   4  -5   1  117.90    3.44
   4  -5   1  121.45    3.28
   4  -5   1  118.01    3.48
   4  -5   1  124.32    3.50
  -5   5  -1  176.71    5.12
  -5   5  -1  183.18    4.80
   5  -5   1  176.63    4.80
   5  -5   1  174.81    4.93
   5  -5   1  181.73    4.72
   5  -5   1  169.70    5.00
  -6   5  -1   56.34    2.15
   6  -5   1   59.05    2.12
   6  -5   1   60.79    2.05
   6  -5   1   54.32    2.10
  -7   5  -1    1.88    0.72
   7  -5   1    1.43    0.85
   7  -5   1    1.09    0.67
  -8   5  -1    2.34    0.81
  -8   5  -1    1.08    0.78
   8  -5   1    0.57    0.74
   7   4  -1    1.17    0.72
  -7  -4   1    0.10    0.83
   6   4  -1    9.45    0.98
  -6  -4   1    8.41    1.09
   5   4  -1  134.69    4.11
   5   4  -1  136.47    3.97
  -5  -4   1  138.83    3.92
  -5  -4   1  135.78    4.25
   4   4  -1  204.76    5.60
   4   4  -1  215.11    5.59
   4   4  -1  211.79    5.35
   4   4  -1  204.69    5.83
  -4  -4   1  213.99    5.39
  -4  -4   1  206.65    5.96
  -4  -4   1  203.76    5.52
   3   4  -1  128.74    3.58
   3   4  -1  127.24    3.67
   3   4  -1  127.49    3.55
   3   4  -1  126.26    3.37
  -3  -4   1  123.67    3.53
  -3  -4   1  125.78    3.76
  -3  -4   1  125.68    3.53
  -3  -4   1  127.82    3.38
   2   4  -1  171.50    4.39
   2   4  -1  173.74    4.62
   2   4  -1  175.84    4.82
   2   4  -1  171.27    4.57
  -2  -4   1  171.45    4.58
  -2  -4   1  179.60    4.43
  -2  -4   1  178.28    4.94
   1   4  -1    1.08    0.30
   1   4  -1    0.48    0.39
   1   4  -1    3.02    0.65
   1   4  -1    1.35    0.43
   1   4  -1    0.94    0.40
  -1  -4   1    1.02    0.38
  -1  -4   1    1.39    0.64
  -1  -4   1    0.87    0.46
  -1  -4   1    2.02    0.53
  -1  -4   1    0.62    0.30
   0   4  -1   20.52    0.99
   0   4  -1   17.25    0.89
   0   4  -1   19.47    0.88
   0   4  -1   18.64    1.04
   0   4  -1   18.26    0.83
   0  -4   1   18.77    0.85
   0  -4   1   18.03    0.98
   0  -4   1   18.68    0.88
   0  -4   1   19.60    1.02
   0  -4   1   20.51    0.82
  -1   4  -1  211.04    5.17
  -1   4  -1  217.65    5.64
  -1   4  -1  211.18    5.46
  -1   4  -1  205.97    5.42
  -1   4  -1  205.01    5.63
  -1   4  -1  205.72    5.17
   1  -4   1  214.17    5.62
   1  -4   1  199.83    5.39
   1  -4   1  201.24    5.19
   1  -4   1  209.26    5.20
   1  -4   1  215.07    5.62
  -2   4  -1  317.77    7.65
  -2   4  -1  304.27    8.30
  -2   4  -1  309.95    7.97
  -2   4  -1  313.10    7.58
  -2   4  -1  325.65    8.28
   2  -4   1  313.97    7.61
   2  -4   1  313.74    7.67
   2  -4   1  315.26    8.20
   2  -4   1  302.29    7.96
   2  -4   1  315.09    8.26
   2  -4   1  312.71    8.30
  -3   4  -1  150.70    3.88
  -3   4  -1  151.30    4.19
  -3   4  -1  146.59    3.79
   3  -4   1  146.26    4.12
   3  -4   1  151.06    3.90
   3  -4   1  149.51    3.83
   3  -4   1  145.90    4.02
  -4   4  -1   67.18    2.20
  -4   4  -1   66.50    2.14
   4  -4   1   67.13    2.15
   4  -4   1   66.57    2.15
   4  -4   1   65.35    2.13
   4  -4   1   70.05    2.07
  -5   4  -1   35.87    1.66
  -5   4  -1   30.89    1.40
   5  -4   1   29.80    1.54
   5  -4   1   34.39    1.41
   5  -4   1   28.85    1.50
   5  -4   1   30.07    1.34
  -6   4  -1   44.42    1.86
   6  -4   1   47.25    1.75
   6  -4   1   47.02    1.85
   6  -4   1   46.01    1.78
  -7   4  -1   30.66    1.59
   7  -4   1   29.88    1.52
  -8   4  -1    8.39    1.07
  -8   4  -1    7.95    1.06
   8  -4   1    9.61    1.06
   8   3  -1   19.57    1.42
  -8  -3   1   22.19    1.71
   7   3  -1   21.43    1.33
  -7  -3   1   22.31    1.50
   6   3  -1   28.44    1.41
  -6  -3   1   30.90    1.62
   5   3  -1  137.24    3.87
   5   3  -1  129.23    3.90
  -5  -3   1  128.55    3.58
  -5  -3   1  125.32    3.97
   4   3  -1   38.00    1.63
   4   3  -1   34.45    1.42
  -4  -3   1   34.48    1.49
  -4  -3   1   36.65    1.36
   3   3  -1    2.33    0.49
   3   3  -1    0.97    0.63
   3   3  -1    1.58    0.38
  -3  -3   1    2.44    0.50
  -3  -3   1    1.92    0.48
  -3  -3   1    2.03    0.51
   2   3  -1    1.43    0.36
   2   3  -1    0.78    0.53
   2   3  -1    1.50    0.33
   2   3  -1    1.10    0.37
   2   3  -1    0.11    0.21
  -2  -3   1    4.87    0.57
  -2  -3   1    1.09    0.38
  -2  -3   1    1.33    0.40
  -2  -3   1    1.25    0.32
   1   3  -1   29.85    1.06
   1   3  -1   28.73    1.18
   1   3  -1   30.89    1.14
   1   3  -1   29.25    1.02
  -1  -3   1   28.60    1.03
  -1  -3   1   30.68    1.02
  -1  -3   1   28.97    1.16
  -1  -3   1   29.64    1.05
  -1  -3   1   28.32    1.12
   0   3  -1   42.60    1.40
   0   3  -1   42.19    1.35
   0   3  -1   42.25    1.44
   0   3  -1   44.16    1.38
   0   3  -1   44.96    1.50
   0  -3   1   42.20    1.50
   0  -3   1   44.85    1.36
   0  -3   1   42.30    1.46
   0  -3   1   42.67    1.36
   0  -3   1   44.36    1.33
  -1   3  -1  873.53   21.27
  -1   3  -1  907.66   23.19
  -1   3  -1  880.62   21.37
  -1   3  -1  898.99   23.01
  -1   3  -1  873.95   22.12
   1  -3   1  839.95   22.27
   1  -3   1  862.95   21.51
   1  -3   1  889.13   23.44
   1  -3   1  889.23   23.30
   1  -3   1  862.67   21.17
   1  -3   1  865.87   22.75
  -2   3  -1  402.67   10.63
  -2   3  -1  417.49   10.61
  -2   3  -1  397.89    9.78
  -2   3  -1  403.20    9.74
   2  -3   1  414.95    9.81
   2  -3   1  421.80   10.64
   2  -3   1  393.87   10.18
   2  -3   1  412.53    9.76
   2  -3   1  405.21   10.80
  -3   3  -1   31.44    1.24
  -3   3  -1   30.26    1.13
  -3   3  -1   32.08    1.14
  -3   3  -1   30.35    1.03
   3  -3   1   31.39    1.25
   3  -3   1   30.29    1.11
   3  -3   1   29.26    1.07
   3  -3   1   28.27    1.17
  -4   3  -1   31.37    1.35
  -4   3  -1   29.53    1.20
  -4   3  -1   28.82    1.13
   4  -3   1   26.70    1.11
   4  -3   1   27.34    1.26
   4  -3   1   26.87    1.17
  -5   3  -1   42.57    1.83
  -5   3  -1   43.18    1.65
   5  -3   1   43.28    1.57
   5  -3   1   40.80    1.59
   5  -3   1   49.05    1.88
  -6   3  -1   42.88    1.76
   6  -3   1   41.54    1.74
   6  -3   1   47.26    1.70
  -7   3  -1   63.32    2.46
  -7   3  -1   64.61    2.48
   7  -3   1   66.50    2.41
  -8   3  -1   37.40    1.87
   8  -3   1   39.90    1.90
   8   2  -1   38.46    1.88
  -8  -2   1   37.22    1.95
   7   2  -1   47.85    1.97
  -7  -2   1   48.99    2.11
   6   2  -1   29.19    1.38
  -6  -2   1   30.10    1.55
   5   2  -1    1.19    0.54
   5   2  -1    0.56    0.76
   5   2  -1    0.32    0.82
   5   2  -1    0.36    0.46
  -5  -2   1   -0.60    0.52
  -5  -2   1   -0.05    0.83
  -5  -2   1    0.71    0.61
   4   2  -1    0.93    0.38
   4   2  -1   -0.06    0.65
   4   2  -1    0.47    0.44
   4   2  -1    1.20    0.67
  -4  -2   1    0.55    0.47
  -4  -2   1    1.00    0.46
  -4  -2   1   -0.47    0.50
   3   2  -1   68.46    1.94
   3   2  -1   72.60    2.08
  -3  -2   1   73.35    2.14
  -3  -2   1   69.98    2.17
  -3  -2   1   67.50    1.97
   2   2  -1  746.88   19.22
   2   2  -1  720.73   17.28
   2   2  -1  708.09   17.25
   2   2  -1  686.42   18.23
   2   2  -1  721.53   18.89
  -2  -2   1  708.79   17.43
  -2  -2   1  745.61   19.17
  -2  -2   1  698.03   19.02
   1   2  -1  394.20   10.52
   1   2  -1  412.48   10.62
   1   2  -1  407.44    9.67
   1   2  -1  379.97    9.95
  -1  -2   1  402.15   10.61
  -1  -2   1  395.60    9.63
  -1  -2   1  383.99   10.67
   0   2  -1  419.24   10.80
   0   2  -1  421.85   10.93
   0   2  -1  406.38   10.42
   0   2  -1  403.29    9.81
   0  -2   1  416.21   10.65
   0  -2   1  433.25   10.82
   0  -2   1  390.82   10.01
   0  -2   1  402.46   11.11
  -1   2  -1   90.39    2.58
  -1   2  -1   96.46    2.60
  -1   2  -1   93.83    2.40
   1  -2   1   94.57    2.58
   1  -2   1   93.28    2.38
   1  -2   1   92.80    2.52
   1  -2   1   96.00    2.59
  -2   2  -1  318.22    8.03
  -2   2  -1  306.15    8.04
  -2   2  -1  304.69    7.37
   2  -2   1  301.50    7.40
   2  -2   1  305.59    8.21
   2  -2   1  306.45    7.37
   2  -2   1  306.96    8.03
  -3   2  -1  124.22    3.38
  -3   2  -1  119.08    3.09
  -3   2  -1  116.58    3.38
   3  -2   1  118.41    3.38
   3  -2   1  119.91    3.19
   3  -2   1  126.91    3.40
   3  -2   1  121.59    3.13
  -4   2  -1   86.01    2.66
  -4   2  -1   87.97    2.57
  -4   2  -1   89.27    2.45
   4  -2   1   90.42    2.59
   4  -2   1   90.20    2.46
   4  -2   1   84.71    2.62
  -5   2  -1   83.06    2.64
  -5   2  -1   78.34    2.62
  -5   2  -1   84.68    2.44
  -5   2  -1   80.79    2.64
   5  -2   1   83.77    2.66
   5  -2   1   84.82    2.47
   5  -2   1   80.76    2.59
  -6   2  -1   21.79    1.29
  -6   2  -1   22.93    1.30
   6  -2   1   20.74    1.25
   6  -2   1   19.72    1.18
  -7   2  -1   21.15    1.32
   7  -2   1   22.67    1.35
  -8   2  -1    1.15    0.77
   8  -2   1    0.50    0.75
   8   1  -1    3.20    0.84
  -8  -1   1    4.05    0.91
   7   1  -1    1.03    0.61
  -7  -1   1   -0.16    0.67
   6   1  -1   13.47    1.17
   6   1  -1   13.01    1.00
   6   1  -1   14.58    1.05
  -6  -1   1   12.31    1.02
   5   1  -1   22.24    1.07
   5   1  -1   20.95    1.36
   5   1  -1   20.62    1.08
  -5  -1   1   22.43    1.46
  -5  -1   1   21.85    1.13
   4   1  -1   46.77    1.57
   4   1  -1   54.04    1.71
   4   1  -1   49.47    1.67
  -4  -1   1   50.09    1.72
  -4  -1   1   48.67    1.68
  -4  -1   1   49.18    1.56
   3   1  -1  386.28    9.46
   3   1  -1  384.51   10.26
   3   1  -1  406.23   10.28
   3   1  -1  393.02    9.43
   3   1  -1  403.08   10.28
  -3  -1   1  401.70   10.27
  -3  -1   1  391.90    9.42
  -3  -1   1  377.57   10.28
  -3  -1   1  392.12    9.48
   2   1  -1  503.32   13.62
   2   1  -1  509.65   12.45
   2   1  -1  507.51   13.46
   2   1  -1  503.83   12.20
  -2  -1   1  514.29   13.49
  -2  -1   1  509.89   12.48
  -2  -1   1  501.45   13.45
  -2  -1   1  488.88   12.08
   1   1  -1   76.74    1.99
   1   1  -1   80.97    2.15
   1   1  -1   80.13    2.06
   1   1  -1   80.09    1.98
   1   1  -1   82.06    2.16
  -1  -1   1   73.74    1.97
  -1   1  -1   85.84    2.15
  -1   1  -1   85.29    2.15
  -1   1  -1   88.57    2.34
  -1   1  -1   86.05    2.33
   1  -1   1   85.65    2.34
   1  -1   1   85.74    2.18
   1  -1   1   89.93    2.34
  -2   1  -1   11.23    0.55
  -2   1  -1   11.12    0.58
  -2   1  -1   10.94    0.50
  -2   1  -1   13.59    0.57
   2  -1   1   12.11    0.54
   2  -1   1   11.28    0.74
  -3   1  -1  560.63   14.01
  -3   1  -1  530.00   14.48
  -3   1  -1  538.92   13.02
   3  -1   1  531.43   14.22
   3  -1   1  538.40   12.91
  -4   1  -1  242.67    5.88
  -4   1  -1  245.42    6.47
  -4   1  -1  237.77    6.44
   4  -1   1  240.02    6.43
   4  -1   1  238.23    5.95
   4  -1   1  217.49    5.85
  -5   1  -1   10.37    0.78
  -5   1  -1   10.60    0.87
   5  -1   1   10.26    0.80
   5  -1   1    9.13    0.94
   5  -1   1   10.70    0.67
  -6   1  -1    2.30    0.70
   6  -1   1    1.89    0.62
  -7   1  -1    3.87    0.83
   7  -1   1    2.43    0.70
  -8   1  -1   21.99    1.57
   8  -1   1   22.12    1.52
   8   0  -1    0.66    0.72
  -8   0   1    0.04    0.69
   7   0  -1   30.89    1.49
  -7   0   1   29.54    1.57
   6   0  -1  175.38    5.16
   6   0  -1  186.92    4.83
   6   0  -1  184.07    4.90
  -6   0   1  179.24    5.25
   5   0  -1  174.50    4.53
   5   0  -1  166.35    4.79
   5   0  -1  177.73    4.47
  -5   0   1  170.54    4.55
  -5   0   1  168.68    4.86
   4   0  -1  181.88    4.94
   4   0  -1  183.78    4.56
   4   0  -1  186.53    4.63
  -4   0   1  178.75    4.52
  -4   0   1  179.66    4.62
  -4   0   1  173.75    4.96
   3   0  -1   51.78    1.56
   3   0  -1   53.29    1.51
   3   0  -1   55.05    1.62
   3   0  -1   53.63    1.63
  -3   0   1   52.84    1.50
  -3   0   1   56.28    1.63
  -3   0   1   51.54    1.62
  -3   0   1   52.46    1.65
  -3   0   1   50.37    1.58
   2   0  -1   37.07    1.14
   2   0  -1   37.28    1.10
   2   0  -1   37.39    1.15
   2   0  -1   38.00    1.14
  -2   0   1   37.50    1.16
  -2   0   1   39.89    1.16
  -2   0   1   37.82    1.10
  -2   0   1   37.60    1.15
  -2   0   1   34.76    1.18
   1   0  -1  110.46    2.85
   1   0  -1  108.92    2.82
   1   0  -1  110.06    2.59
  -1   0   1  110.44    2.62
  -1   0   1  111.96    2.70
  -1   0   1   98.85    2.81
   0   0  -1   -0.13    0.06
   0   0  -1   -0.23    0.03
   0   0   1   -0.17    0.03
   0   0   1   -0.28    0.07
   0   0   1   -0.18    0.02
  -1   0  -1  615.59   14.98
  -1   0  -1  605.57   14.87
  -1   0  -1  644.65   16.29
  -1   0  -1  618.35   16.26
   1   0   1  609.42   16.23
   1   0   1  613.08   14.88
   1   0   1  592.76   14.93
   1   0   1  634.71   16.36
  -2   0  -1    8.29    0.50
  -2   0  -1   10.01    0.75
  -2   0  -1    7.61    0.49
  -2   0  -1   10.58    0.50
   2   0   1    9.75    0.53
   2   0   1    7.90    0.53
   2   0   1   10.67    0.53
   2   0   1    8.42    0.64
  -3   0  -1   63.87    1.81
  -3   0  -1   63.66    1.89
  -3   0  -1   63.02    2.00
  -3   0  -1   65.08    1.96
   3   0   1   67.88    1.99
   3   0   1   65.07    1.94
   3   0   1   63.66    1.96
  -4   0  -1    0.27    0.43
  -4   0  -1    0.16    0.42
  -4   0  -1    0.25    0.49
   4   0   1    0.03    0.56
   4   0   1    0.24    0.31
   4   0   1    0.25    0.38
  -5   0  -1    6.77    0.79
  -5   0  -1    7.42    0.75
   5   0   1    7.74    0.91
   5   0   1    6.28    0.68
  -6   0  -1   30.23    1.49
   6   0   1   30.37    1.43
  -7   0  -1   41.63    1.96
   7   0   1   41.26    1.86
  -8   0  -1   19.19    1.57
   8   0   1   18.99    1.42
   8  -1  -1   13.06    1.14
  -8   1   1   14.10    1.23
   7  -1  -1   65.43    2.28
  -7   1   1   63.51    2.37
   6  -1  -1   74.51    2.29
   6  -1  -1   69.66    2.36
   6  -1  -1   68.81    2.39
  -6   1   1   69.75    2.44
  -6   1   1   68.44    2.41
   5  -1  -1   88.60    2.51
   5  -1  -1   91.89    2.68
   5  -1  -1   86.68    2.66
  -5   1   1   85.90    2.70
  -5   1   1   89.22    2.73
  -5   1   1   87.61    2.63
   4  -1  -1    4.99    0.59
   4  -1  -1    6.60    0.54
   4  -1  -1    5.53    0.51
  -4   1   1    6.46    0.53
  -4   1   1    6.74    0.55
  -4   1   1    6.20    0.63
   3  -1  -1   95.41    2.63
   3  -1  -1   94.32    2.44
   3  -1  -1   92.78    2.46
   3  -1  -1   92.23    2.62
  -3   1   1   97.18    2.64
  -3   1   1   96.00    2.65
  -3   1   1   93.20    2.40
  -3   1   1   92.20    2.46
   2  -1  -1   35.09    1.05
   2  -1  -1   34.40    1.00
   2  -1  -1   35.24    1.08
   2  -1  -1   33.95    1.04
  -2   1   1   36.69    1.06
  -2   1   1   34.59    1.07
  -2   1   1   34.22    0.98
  -2   1   1   34.86    1.05
   1  -1  -1  577.40   13.95
   1  -1  -1  587.63   15.58
   1  -1  -1  598.16   13.93
  -1   1   1  601.93   15.22
  -1   1   1  589.80   15.69
  -1   1   1  602.01   14.57
  -1   1   1  553.08   15.12
   0  -1  -1  252.90    6.13
   0  -1  -1  253.27    6.18
   0  -1  -1  259.77    6.59
   0   1   1  258.29    6.08
   0   1   1  256.36    6.66
   0   1   1  250.69    6.05
  -1  -1  -1   24.16    0.96
  -1  -1  -1   23.41    0.84
  -1  -1  -1   25.12    0.78
  -1  -1  -1   23.93    0.77
   1   1   1   24.48    0.79
   1   1   1   24.42    0.95
   1   1   1   24.21    0.75
   1   1   1   23.71    0.83
  -2  -1  -1   39.86    1.33
  -2  -1  -1   41.42    1.27
  -2  -1  -1   40.57    1.19
  -2  -1  -1   39.64    1.32
   2   1   1   40.49    1.28
   2   1   1   38.46    1.25
   2   1   1   38.78    1.16
   2   1   1   39.09    1.32
   2   1   1   40.94    1.32
  -3  -1  -1    1.91    0.41
  -3  -1  -1    1.76    0.40
  -3  -1  -1    2.38    0.59
   3   1   1    1.44    0.33
   3   1   1    0.81    0.55
   3   1   1    1.41    0.38
  -4  -1  -1   73.59    2.13
  -4  -1  -1   75.03    2.37
  -4  -1  -1   73.47    2.34
   4   1   1   68.72    2.25
   4   1   1   72.34    2.12
   4   1   1   68.67    2.33
  -5  -1  -1  139.31    3.92
  -5  -1  -1  139.89    3.76
  -5  -1  -1  138.51    4.16
   5   1   1  143.66    3.80
   5   1   1  135.17    4.09
  -6  -1  -1  176.75    5.24
   6   1   1  175.74    5.16
  -7  -1  -1   20.23    1.38
   7   1   1   18.97    1.25
  -8  -1  -1    1.04    0.91
   8   1   1    0.99    0.82
   9  -2  -1   26.81    1.62
  -9   2   1   27.28    1.72
   8  -2  -1   44.97    1.89
  -8   2   1   40.64    1.95
   7  -2  -1   21.21    1.22
   7  -2  -1   21.27    1.21
  -7   2   1   21.33    1.22
  -7   2   1   18.36    1.17
   6  -2  -1    1.16    0.68
   6  -2  -1    0.17    0.52
   6  -2  -1    1.95    0.83
  -6   2   1    0.76    0.54
  -6   2   1    1.37    0.57
   5  -2  -1   31.42    1.28
   5  -2  -1   30.25    1.41
   5  -2  -1   30.06    1.24
  -5   2   1   33.05    1.32
  -5   2   1   32.45    1.45
   4  -2  -1  470.13   11.29
   4  -2  -1  466.60   11.33
   4  -2  -1  469.06   12.25
  -4   2   1  459.92   12.29
  -4   2   1  463.98   11.31
  -4   2   1  494.29   12.28
   3  -2  -1  365.21    9.38
   3  -2  -1  374.19    9.77
   3  -2  -1  384.05    9.80
   3  -2  -1  367.97    9.04
   3  -2  -1  370.32    9.00
  -3   2   1  401.47    9.96
  -3   2   1  376.04    9.02
  -3   2   1  375.02   10.00
   2  -2  -1   63.00    1.70
   2  -2  -1   62.43    1.61
   2  -2  -1   60.98    1.94
   2  -2  -1   62.54    1.71
   2  -2  -1   63.44    1.76
   2  -2  -1   62.92    1.71
  -2   2   1   60.91    1.67
  -2   2   1   60.84    1.58
  -2   2   1   63.25    1.73
  -2   2   1   60.90    1.76
  -2   2   1   63.08    1.74
   1  -2  -1   14.28    0.49
   1  -2  -1   14.86    0.79
   1  -2  -1   14.38    0.45
   1  -2  -1   13.91    0.61
   1  -2  -1   14.13    0.45
  -1   2   1   15.24    0.49
  -1   2   1   14.05    0.59
  -1   2   1   14.02    0.79
  -1   2   1   12.90    0.46
  -1   2   1   14.20    0.51
  -1   2   1   14.62    0.42
   0  -2  -1    1.83    0.27
   0  -2  -1    1.41    0.17
   0  -2  -1    2.28    0.46
   0  -2  -1    1.00    0.25
   0   2   1    0.92    0.20
   0   2   1    2.86    0.36
   0   2   1    1.21    0.19
  -1  -2  -1   24.04    0.81
  -1  -2  -1   25.11    0.84
  -1  -2  -1   24.37    0.99
  -1  -2  -1   25.04    0.93
   1   2   1   25.34    0.94
   1   2   1   24.78    0.84
   1   2   1   23.82    0.78
   1   2   1   25.69    1.02
  -2  -2  -1  146.53    3.66
  -2  -2  -1  152.44    3.98
  -2  -2  -1  144.83    4.03
  -2  -2  -1  142.29    3.76
   2   2   1  145.66    3.64
   2   2   1  142.68    3.73
   2   2   1  151.19    4.03
   2   2   1  143.78    3.98
  -3  -2  -1  215.13    5.32
  -3  -2  -1  211.51    5.41
  -3  -2  -1  212.82    5.85
   3   2   1  211.79    5.79
   3   2   1  212.81    5.29
   3   2   1  218.12    5.43
  -4  -2  -1   58.89    2.07
  -4  -2  -1   60.28    1.87
  -4  -2  -1   58.68    2.18
   4   2   1   61.22    1.89
   4   2   1   57.56    1.98
  -5  -2  -1   80.20    2.76
  -5  -2  -1   78.78    2.42
  -5  -2  -1   78.44    2.71
   5   2   1   76.77    2.61
  -6  -2  -1   13.00    1.14
   6   2   1   12.11    0.99
  -7  -2  -1    2.14    0.89
   7   2   1    0.70    0.72
  -9   3   1   11.40    1.24
   8  -3  -1   -0.27    0.64
  -8   3   1    0.76    0.65
  -8   3   1   -0.71    0.62
   7  -3  -1   19.64    1.26
   7  -3  -1   19.29    1.15
  -7   3   1   19.99    1.17
  -7   3   1   18.02    1.14
   6  -3  -1   20.29    1.29
   6  -3  -1   19.09    1.12
   6  -3  -1   18.66    1.06
  -6   3   1   17.54    1.04
   5  -3  -1  129.19    3.56
   5  -3  -1  131.94    3.42
   5  -3  -1  126.35    3.51
   5  -3  -1  124.66    3.60
  -5   3   1  120.93    3.66
   4  -3  -1  159.29    4.13
   4  -3  -1  159.49    4.35
   4  -3  -1  161.03    4.06
   4  -3  -1  151.25    4.22
  -4   3   1  155.19    4.40
  -4   3   1  171.09    4.41
   3  -3  -1  132.88    3.61
   3  -3  -1  138.72    3.44
   3  -3  -1  139.00    3.75
   3  -3  -1  134.22    3.50
   3  -3  -1  135.87    3.94
   3  -3  -1  132.52    3.68
  -3   3   1  135.54    3.76
  -3   3   1  133.56    3.47
  -3   3   1  148.76    3.75
   2  -3  -1   52.65    1.45
   2  -3  -1   49.03    1.48
   2  -3  -1   52.50    1.50
   2  -3  -1   50.45    1.46
   2  -3  -1   50.73    1.39
   2  -3  -1   49.37    1.67
  -2   3   1   49.87    1.41
  -2   3   1   52.10    1.69
  -2   3   1   51.01    1.55
  -2   3   1   54.83    1.52
  -2   3   1   50.86    1.55
   1  -3  -1   88.09    2.22
   1  -3  -1   86.13    2.52
   1  -3  -1   85.67    2.24
   1  -3  -1   90.62    2.35
   1  -3  -1   89.04    2.33
  -1   3   1   86.35    2.16
  -1   3   1   86.19    2.54
  -1   3   1   91.19    2.41
  -1   3   1   87.95    2.33
  -1   3   1   86.98    2.15
  -1   3   1   86.57    2.41
   0  -3  -1   22.64    0.73
   0  -3  -1   20.84    0.82
   0  -3  -1   22.79    0.75
   0  -3  -1   22.70    0.95
   0   3   1   21.70    0.76
   0   3   1   22.66    0.80
   0   3   1   21.38    0.83
   0   3   1   21.70    0.69
   0   3   1   22.39    0.91
  -1  -3  -1  324.15    8.25
  -1  -3  -1  315.02    8.36
  -1  -3  -1  318.91    7.72
  -1  -3  -1  313.86    7.61
   1   3   1  328.34    8.38
   1   3   1  316.45    8.28
   1   3   1  315.44    7.57
   1   3   1  303.40    7.70
  -2  -3  -1  504.39   12.31
  -2  -3  -1  512.17   12.23
  -2  -3  -1  513.40   13.38
  -2  -3  -1  506.23   12.32
   2   3   1  508.58   12.19
   2   3   1  505.37   13.31
   2   3   1  531.21   13.39
  -3  -3  -1  164.16    4.74
  -3  -3  -1  165.87    4.45
  -3  -3  -1  171.52    4.30
   3   3   1  170.07    4.27
   3   3   1  166.39    4.67
  -4  -3  -1   13.54    1.00
  -4  -3  -1   10.90    1.07
  -4  -3  -1   14.60    0.94
   4   3   1   12.76    0.87
   4   3   1   13.03    0.87
  -5  -3  -1    0.51    0.66
  -5  -3  -1    0.51    0.91
   5   3   1   -0.65    0.51
  -6  -3  -1   34.42    1.73
   6   3   1   32.61    1.58
  -7  -3  -1   19.37    1.56
   7   3   1   19.47    1.40
   8  -4  -1   45.16    1.87
  -8   4   1   39.95    1.87
  -8   4   1   44.89    1.93
   7  -4  -1   76.59    2.57
   7  -4  -1   82.50    2.61
   7  -4  -1   75.73    2.47
  -7   4   1   72.60    2.65
   6  -4  -1   60.21    2.06
   6  -4  -1   61.35    2.05
   6  -4  -1   60.06    2.13
   6  -4  -1   62.08    2.16
  -6   4   1   61.32    2.16
   5  -4  -1   30.16    1.31
   5  -4  -1   30.67    1.21
   5  -4  -1   26.13    1.65
   5  -4  -1   29.95    1.22
   5  -4  -1   30.55    1.51
  -5   4   1   29.29    1.24
   4  -4  -1    0.51    0.46
   4  -4  -1    0.96    0.52
   4  -4  -1    0.21    0.63
   4  -4  -1    0.30    0.31
   4  -4  -1   -0.06    0.59
  -4   4   1    0.59    0.36
  -4   4   1   -0.02    0.31
   3  -4  -1    0.56    0.26
   3  -4  -1    1.19    0.38
   3  -4  -1    1.06    0.52
   3  -4  -1    0.51    0.30
   3  -4  -1    1.44    0.52
   3  -4  -1    0.81    0.43
  -3   4   1    0.44    0.32
  -3   4   1    0.79    0.30
  -3   4   1    0.69    0.44
   2  -4  -1  143.77    3.71
   2  -4  -1  142.80    3.60
   2  -4  -1  145.54    3.69
   2  -4  -1  146.21    4.02
   2  -4  -1  140.29    3.82
   2  -4  -1  146.53    3.88
  -2   4   1  146.90    3.90
  -2   4   1  143.41    3.97
  -2   4   1  142.80    3.81
  -2   4   1  144.47    4.03
   1  -4  -1  353.67    8.55
   1  -4  -1  369.25    9.21
   1  -4  -1  349.70    9.20
   1  -4  -1  354.59    8.56
  -1   4   1  347.36    9.42
  -1   4   1  356.30    9.30
  -1   4   1  352.18    8.89
  -1   4   1  366.74    9.31
   0  -4  -1  183.39    4.52
   0  -4  -1  177.00    4.91
   0  -4  -1  185.61    4.84
   0  -4  -1  179.47    4.65
   0   4   1  187.17    4.71
   0   4   1  183.76    4.44
   0   4   1  187.50    5.05
   0   4   1  182.12    4.91
  -1  -4  -1  288.69    7.24
  -1  -4  -1  267.61    6.70
  -1  -4  -1  275.48    6.86
  -1  -4  -1  268.96    7.38
   1   4   1  287.68    7.44
   1   4   1  272.27    6.64
   1   4   1  267.33    7.28
  -2  -4  -1   18.41    0.84
  -2  -4  -1   16.90    1.08
  -2  -4  -1   16.27    1.03
   2   4   1   17.24    0.86
   2   4   1   16.09    0.81
  -3  -4  -1    3.51    0.67
  -3  -4  -1    2.58    0.57
  -3  -4  -1    2.88    0.86
   3   4   1    3.08    0.53
   3   4   1    3.21    0.55
  -4  -4  -1   43.68    2.13
  -4  -4  -1   47.17    1.69
  -4  -4  -1   48.79    1.98
   4   4   1   44.34    1.77
  -5  -4  -1   42.64    2.07
  -5  -4  -1   40.38    1.88
   5   4   1   37.56    1.70
  -6  -4  -1   11.57    1.25
   6   4   1   12.03    1.07
  -7  -4  -1   17.85    1.53
   7   4   1   16.08    1.36
   8  -5  -1   14.47    1.62
  -8   5   1   16.73    1.27
   7  -5  -1   27.67    1.47
   7  -5  -1   26.04    1.33
   7  -5  -1   25.81    1.46
   7  -5  -1   27.19    1.97
  -7   5   1   22.99    1.36
   6  -5  -1    0.82    0.93
   6  -5  -1    2.60    0.85
   6  -5  -1    1.90    0.72
   6  -5  -1    1.18    0.51
   6  -5  -1    1.08    0.66
  -6   5   1    1.49    0.56
   5  -5  -1   13.28    1.00
   5  -5  -1   11.94    0.89
   5  -5  -1   12.12    1.14
   5  -5  -1   11.50    1.06
   5  -5  -1   14.02    0.84
  -5   5   1   12.11    0.88
   4  -5  -1    2.52    0.57
   4  -5  -1    2.45    0.42
   4  -5  -1    3.13    0.73
   4  -5  -1    2.72    0.74
   4  -5  -1    1.96    0.60
  -4   5   1    2.70    0.48
   3  -5  -1   70.09    2.29
   3  -5  -1   73.35    2.16
   3  -5  -1   71.63    2.21
   3  -5  -1   70.85    2.07
   3  -5  -1   69.97    2.10
   3  -5  -1   70.51    2.04
  -3   5   1   74.73    2.19
  -3   5   1   71.54    2.25
  -3   5   1   74.08    2.24
   2  -5  -1  461.92   12.16
   2  -5  -1  458.01   11.92
   2  -5  -1  478.57   11.97
   2  -5  -1  452.27   11.14
   2  -5  -1  451.73   11.55
   2  -5  -1  463.50   11.08
  -2   5   1  462.80   12.11
  -2   5   1  469.16   12.05
  -2   5   1  461.13   11.60
   1  -5  -1  351.73    8.56
   1  -5  -1  360.82    9.12
   1  -5  -1  344.80    8.50
   1  -5  -1  348.08    9.12
  -1   5   1  340.84    9.24
  -1   5   1  363.24    9.31
  -1   5   1  347.48    8.85
   0  -5  -1  137.79    3.55
   0  -5  -1  136.73    3.82
   0  -5  -1  139.85    3.74
   0  -5  -1  135.16    3.72
   0   5   1  136.27    3.69
   0   5   1  134.12    3.83
   0   5   1  144.32    4.02
  -1  -5  -1    3.86    0.82
  -1  -5  -1    5.48    0.59
  -1  -5  -1    6.16    0.69
   1   5   1    5.20    0.52
   1   5   1    6.56    0.69
   1   5   1    6.01    0.60
  -2  -5  -1   78.07    2.31
  -2  -5  -1   79.76    2.51
  -2  -5  -1   78.86    2.60
   2   5   1   76.77    2.40
   2   5   1   77.50    2.43
  -3  -5  -1   57.29    2.15
  -3  -5  -1   54.81    2.33
  -3  -5  -1   54.37    2.24
  -3  -5  -1   56.54    1.85
   3   5   1   51.29    1.93
  -4  -5  -1  141.85    4.34
  -4  -5  -1  144.41    3.91
  -4  -5  -1  141.33    4.11
   4   5   1  134.78    4.19
  -5  -5  -1   70.05    2.62
   5   5   1   61.57    2.37
  -6  -5  -1    3.47    1.03
   6   5   1    3.79    0.85
   8  -6  -1   -1.40    1.10
  -8   6   1    0.89    0.66
   7  -6  -1    1.00    0.57
   7  -6  -1    0.28    0.77
   7  -6  -1    1.40    1.01
  -7   6   1    0.34    0.54
   6  -6  -1   37.34    1.71
   6  -6  -1   36.86    1.60
   6  -6  -1   39.24    1.93
   6  -6  -1   34.89    1.57
   6  -6  -1   36.14    1.44
  -6   6   1   37.00    1.61
   5  -6  -1  109.97    3.34
   5  -6  -1  113.07    3.27
   5  -6  -1  113.94    3.23
   5  -6  -1  112.85    3.17
   5  -6  -1  113.24    3.62
  -5   6   1  103.98    3.38
   4  -6  -1  130.08    3.83
   4  -6  -1  128.26    3.57
   4  -6  -1  127.96    3.47
   4  -6  -1  129.25    3.55
   4  -6  -1  130.94    3.65
  -4   6   1  123.61    3.78
   3  -6  -1   92.04    2.64
   3  -6  -1   94.84    2.66
   3  -6  -1   95.03    2.93
   3  -6  -1   95.70    2.80
   3  -6  -1   92.68    2.66
  -3   6   1   94.22    2.85
  -3   6   1   98.08    2.83
  -3   6   1   94.23    2.91
   2  -6  -1   16.16    0.74
   2  -6  -1   15.77    0.78
   2  -6  -1   17.95    1.09
   2  -6  -1   17.80    1.02
   2  -6  -1   15.41    0.77
   2  -6  -1   16.59    1.13
  -2   6   1   16.96    0.97
  -2   6   1   16.47    1.01
  -2   6   1   16.16    0.90
   1  -6  -1    0.36    0.57
   1  -6  -1    0.71    0.31
   1  -6  -1    0.43    0.35
   1  -6  -1    0.17    0.67
  -1   6   1    0.25    0.52
  -1   6   1    0.58    0.52
  -1   6   1    0.55    0.36
   0  -6  -1   36.12    1.38
   0  -6  -1   38.70    1.70
   0  -6  -1   35.52    1.39
   0   6   1   37.46    1.39
   0   6   1   41.66    1.69
   0   6   1   37.46    1.41
  -1  -6  -1  127.30    3.39
  -1  -6  -1  120.78    3.71
  -1  -6  -1  124.38    3.64
   1   6   1  125.36    3.50
   1   6   1  124.55    3.63
  -2  -6  -1   49.58    2.00
  -2  -6  -1   50.27    1.76
  -2  -6  -1   50.19    2.03
   2   6   1   43.85    1.71
   2   6   1   48.48    1.81
  -3  -6  -1   86.97    3.08
  -3  -6  -1   87.37    3.00
  -3  -6  -1   90.05    3.04
  -3  -6  -1   88.89    2.68
   3   6   1   82.63    2.79
   3   6   1   86.60    2.79
  -4  -6  -1   17.39    1.36
  -4  -6  -1   16.64    1.47
   4   6   1   18.31    1.32
   4   6   1   16.24    1.14
  -5  -6  -1    0.96    0.89
   5   6   1    1.33    0.70
  -6  -6  -1    0.19    0.97
   6   6   1   -0.05    0.67
   8  -7  -1    3.23    1.16
  -8   7   1    1.90    0.79
   7  -7  -1   29.28    1.61
   7  -7  -1   27.73    1.83
  -7   7   1   24.46    1.46
   6  -7  -1   62.94    2.40
   6  -7  -1   62.10    2.06
   6  -7  -1   63.92    2.16
   6  -7  -1   63.75    2.51
  -6   7   1   58.73    2.26
   5  -7  -1   83.94    2.62
   5  -7  -1   85.62    2.58
   5  -7  -1   86.26    2.63
   5  -7  -1   88.87    2.83
   5  -7  -1   87.84    2.92
  -5   7   1   79.81    2.80
   4  -7  -1   58.77    2.18
   4  -7  -1   57.32    2.00
   4  -7  -1   59.38    1.86
   4  -7  -1   58.75    1.92
   4  -7  -1   57.95    2.22
  -4   7   1   56.91    2.08
  -4   7   1   59.24    2.17
   3  -7  -1    1.83    0.87
   3  -7  -1    2.87    0.73
   3  -7  -1    2.28    0.58
   3  -7  -1    2.91    0.69
  -3   7   1    2.95    0.77
  -3   7   1    1.10    0.52
   2  -7  -1   22.70    1.34
   2  -7  -1   25.18    0.97
   2  -7  -1   24.08    1.39
  -2   7   1   25.66    1.31
  -2   7   1   22.92    1.16
   1  -7  -1   42.79    1.67
   1  -7  -1   45.22    1.88
   1  -7  -1   43.55    1.49
  -1   7   1   42.09    1.63
  -1   7   1   46.65    1.70
   0  -7  -1  205.46    5.29
   0  -7  -1  202.96    5.60
   0  -7  -1  212.75    5.53
   0   7   1  204.06    5.49
   0   7   1  196.99    5.69
  -1  -7  -1  155.94    4.64
  -1  -7  -1  163.15    4.61
  -1  -7  -1  167.47    4.35
   1   7   1  161.80    4.50
   1   7   1  157.56    4.64
  -2  -7  -1   13.20    1.15
  -2  -7  -1   15.40    1.08
  -2  -7  -1   14.81    1.32
   2   7   1   14.41    1.00
   2   7   1   14.66    1.10
  -3  -7  -1    4.56    1.11
  -3  -7  -1    5.38    0.93
  -3  -7  -1    3.89    1.06
   3   7   1    3.92    0.70
   3   7   1    3.55    0.77
  -4  -7  -1    2.91    0.94
   4   7   1    3.26    0.72
  -5  -7  -1    8.42    1.23
   5   7   1    9.04    1.05
   7  -8  -1   29.39    1.92
  -7   8   1   24.89    1.51
   6  -8  -1    7.65    1.00
   6  -8  -1    6.67    0.98
  -6   8   1    6.30    0.87
   5  -8  -1    3.60    0.99
   5  -8  -1    3.56    0.81
   5  -8  -1    4.24    0.86
  -5   8   1    2.60    0.64
   4  -8  -1   35.41    1.76
   4  -8  -1   36.47    1.64
   4  -8  -1   37.84    1.61
   4  -8  -1   35.92    1.30
   4  -8  -1   32.39    1.36
  -4   8   1   35.71    1.71
  -4   8   1   35.90    1.61
   3  -8  -1  119.74    3.45
   3  -8  -1  118.87    3.56
   3  -8  -1  118.39    3.34
   3  -8  -1  119.93    3.25
  -3   8   1  118.56    3.72
  -3   8   1  119.70    3.64
   2  -8  -1   95.75    2.76
   2  -8  -1   98.30    3.03
   2  -8  -1   96.12    2.99
  -2   8   1   95.55    3.03
  -2   8   1   94.37    3.08
   1  -8  -1   63.02    2.04
   1  -8  -1   65.08    2.25
   1  -8  -1   68.22    2.50
  -1   8   1   62.16    2.23
  -1   8   1   65.14    2.28
   0  -8  -1    2.97    0.79
   0  -8  -1    2.80    1.15
   0  -8  -1    4.25    0.68
   0   8   1    1.96    0.78
   0   8   1    3.03    0.60
  -1  -8  -1    5.94    1.20
  -1  -8  -1    4.94    0.78
  -1  -8  -1    5.19    0.77
   1   8   1    5.76    0.73
   1   8   1    6.49    0.85
  -2  -8  -1    4.63    0.84
  -2  -8  -1    3.85    0.81
  -2  -8  -1    4.72    1.18
   2   8   1    3.98    0.70
   2   8   1    4.63    0.85
  -3  -8  -1   16.40    1.63
  -3  -8  -1   18.93    1.54
  -3  -8  -1   18.21    1.43
   3   8   1   19.89    1.43
   3   8   1   20.24    1.22
   4   8   1   18.20    1.31
   5   8   1   17.47    1.43
  -7   9   1    0.28    0.67
   6  -9  -1    4.84    1.03
   6  -9  -1    4.22    0.97
  -6   9   1    3.84    0.77
   5  -9  -1   25.19    1.58
   5  -9  -1   25.68    1.53
  -5   9   1   22.86    1.39
   4  -9  -1  103.54    3.23
   4  -9  -1  100.99    3.24
   4  -9  -1   93.87    3.08
  -4   9   1   93.66    3.30
  -4   9   1  107.25    3.31
   3  -9  -1   89.15    2.92
   3  -9  -1   89.44    2.87
  -3   9   1   83.96    2.99
  -3   9   1   88.39    2.96
   2  -9  -1   32.60    1.68
   2  -9  -1   31.98    1.23
   2  -9  -1   36.46    1.79
  -2   9   1   31.93    1.55
  -2   9   1   34.98    1.68
   1  -9  -1    3.81    1.13
   1  -9  -1    5.01    0.89
   1  -9  -1    4.42    0.57
  -1   9   1    4.02    0.70
  -1   9   1    3.94    0.84
   0  -9  -1    0.83    1.08
   0  -9  -1    1.16    0.56
   0  -9  -1   -0.02    0.74
   0   9   1    1.38    0.58
   0   9   1    0.26    0.72
  -1  -9  -1   14.04    1.48
  -1  -9  -1   16.43    1.21
  -1  -9  -1   13.71    1.05
   1   9   1   14.73    1.10
   1   9   1   17.40    1.29
  -2  -9  -1   64.36    2.70
   2   9   1   59.17    2.32
   2   9   1   59.69    2.33
   3   9   1   46.86    2.06
   4   9   1    9.67    1.11
   6 -10  -1   41.89    2.04
  -6  10   1   37.72    1.89
   5 -10  -1   32.79    1.80
  -5  10   1   29.83    1.60
   4 -10  -1    3.34    1.05
  -4  10   1    3.00    0.77
  -4  10   1    5.04    1.00
   3 -10  -1    9.92    1.25
   3 -10  -1   10.07    1.23
  -3  10   1    8.39    0.99
  -3  10   1    8.92    1.11
   2 -10  -1    1.21    0.94
   2 -10  -1   -0.01    1.04
  -2  10   1    0.19    0.81
  -2  10   1    0.71    0.63
   1 -10  -1   36.19    2.08
   1 -10  -1   39.18    1.81
  -1  10   1   34.49    1.68
  -1  10   1   34.41    1.77
   0 -10  -1   27.37    1.97
   0  10   1   25.26    1.45
   0  10   1   27.79    1.59
  -1 -10  -1   25.83    1.88
   1  10   1   27.02    1.62
   1  10   1   25.72    1.48
   2  10   1   18.21    1.26
   3  10   1    4.51    0.86
   5 -11  -1    2.79    1.17
  -5  11   1    3.93    0.89
   4 -11  -1    0.48    1.08
  -4  11   1    0.45    0.73
   3 -11  -1    4.75    1.21
  -3  11   1    5.80    0.92
  -3  11   1    4.99    1.07
   2 -11  -1   32.58    2.07
  -2  11   1   33.51    1.83
  -2  11   1   31.59    1.71
   1 -11  -1   48.74    2.50
  -1  11   1   49.81    2.16
  -1  11   1   50.60    2.25
   0 -11  -1   33.44    2.24
   0  11   1   32.01    1.71
   1  11   1    8.98    1.07
   2  11   1    1.46    0.79
  -4  12   1   11.95    1.29
   3 -12  -1   16.49    1.74
  -3  12   1   19.66    1.50
   2 -12  -1   11.36    1.61
  -2  12   1   11.44    1.23
  -1  12   1    5.82    1.00
   0  12   1    2.37    0.84
   2  12  -2   16.00    1.44
   1  12  -2   26.63    1.69
   0  12  -2   29.95    1.73
  -1  12  -2   22.47    1.58
  -2  12  -2   17.50    1.47
  -3  12  -2    0.60    0.79
  -4  12  -2   12.17    1.26
   3  11  -2   12.74    1.30
  -3 -11   2   13.07    1.50
   2  11  -2   37.54    1.91
  -2 -11   2   33.89    1.98
   1  11  -2   43.24    2.09
  -1 -11   2   47.93    2.18
   0  11  -2    6.96    1.02
   0 -11   2    9.06    1.11
  -1  11  -2    3.81    0.84
   1 -11   2    4.10    0.90
  -2  11  -2    2.11    0.76
   2 -11   2    2.93    0.84
  -3  11  -2   38.83    1.97
   3 -11   2   38.99    1.80
  -4  11  -2   40.59    1.98
  -5  11  -2   24.74    1.66
   4  10  -2   33.43    1.83
  -4 -10   2   39.73    2.22
   3  10  -2   29.46    1.65
  -3 -10   2   30.59    1.94
   2  10  -2   29.35    1.58
  -2 -10   2   27.65    1.80
   1  10  -2    1.50    0.69
   1  10  -2    1.95    0.89
  -1 -10   2    2.11    0.89
   0  10  -2   37.62    1.85
   0  10  -2   33.19    1.70
   0 -10   2   33.48    1.69
   0 -10   2   33.14    1.73
   0 -10   2   34.36    1.98
  -1  10  -2   52.76    2.21
  -1  10  -2   57.49    2.28
   1 -10   2   60.41    2.21
   1 -10   2   54.08    2.49
   1 -10   2   55.31    2.23
  -2  10  -2   60.36    2.48
  -2  10  -2   56.69    2.40
   2 -10   2   62.75    2.33
   2 -10   2   67.04    2.41
   2 -10   2   61.71    2.56
  -3  10  -2   20.76    1.58
  -3  10  -2   20.42    1.38
   3 -10   2   21.16    1.55
   3 -10   2   18.84    1.28
   3 -10   2   18.72    1.43
  -4  10  -2   24.20    1.49
   4 -10   2   22.25    1.55
   4 -10   2   23.90    1.46
  -5  10  -2    0.97    0.78
   5 -10   2    0.96    0.73
  -6  10  -2    3.41    0.92
   5   9  -2   22.85    1.59
  -5  -9   2   24.85    1.92
   4   9  -2    9.37    1.09
  -4  -9   2    9.17    1.27
   3   9  -2    5.05    0.84
  -3  -9   2    5.60    1.09
   2   9  -2    2.00    0.87
   2   9  -2    3.44    0.76
  -2  -9   2    1.84    0.91
  -2  -9   2    1.36    1.19
   1   9  -2   45.92    1.92
   1   9  -2   47.48    1.97
  -1  -9   2   47.56    2.34
  -1  -9   2   48.61    2.12
   0   9  -2  113.16    3.61
   0   9  -2  115.07    3.68
   0  -9   2  118.87    3.69
   0  -9   2  112.97    3.51
   0  -9   2  117.53    3.54
   0  -9   2  115.78    3.74
  -1   9  -2  134.40    4.14
  -1   9  -2  133.37    4.23
   1  -9   2  144.12    4.20
   1  -9   2  133.39    4.15
   1  -9   2  132.34    3.95
   1  -9   2  139.51    4.04
  -2   9  -2   32.23    1.76
  -2   9  -2   29.33    1.51
   2  -9   2   29.54    1.53
   2  -9   2   31.29    1.64
   2  -9   2   32.77    1.85
   2  -9   2   33.34    1.82
  -3   9  -2    4.08    0.93
  -3   9  -2    3.90    0.77
   3  -9   2    2.75    0.98
   3  -9   2    3.63    0.90
   3  -9   2    4.80    0.77
  -4   9  -2    0.29    0.57
   4  -9   2    0.11    0.62
   4  -9   2    0.29    0.83
   4  -9   2   -0.40    0.82
  -5   9  -2   19.07    1.29
   5  -9   2   18.39    1.26
   5  -9   2   17.78    1.42
  -6   9  -2   40.42    2.00
   6  -9   2   40.21    1.86
  -7   9  -2   26.81    1.75
   6   8  -2   14.83    1.38
  -6  -8   2   13.38    1.59
   5   8  -2    0.72    0.75
  -5  -8   2    1.02    0.93
   4   8  -2   10.94    1.04
  -4  -8   2    9.84    1.26
   3   8  -2   74.25    2.65
   3   8  -2   80.12    2.70
  -3  -8   2   71.98    2.83
   2   8  -2  115.41    3.82
   2   8  -2  126.12    3.81
  -2  -8   2  129.59    3.68
  -2  -8   2  125.60    4.08
  -2  -8   2  122.88    3.88
   1   8  -2   58.81    2.19
   1   8  -2   59.18    2.28
   1   8  -2   58.15    2.04
  -1  -8   2   64.80    2.52
  -1  -8   2   60.65    2.22
  -1  -8   2   58.65    2.24
  -1  -8   2   63.21    2.46
   0   8  -2   76.70    2.68
   0   8  -2   81.15    2.52
   0   8  -2   73.95    2.51
   0   8  -2   80.33    2.67
   0  -8   2   77.43    2.77
   0  -8   2   83.81    2.67
   0  -8   2   76.98    2.57
   0  -8   2   79.59    2.79
  -1   8  -2    5.65    0.87
  -1   8  -2    6.81    0.91
  -1   8  -2    6.53    0.77
  -1   8  -2    6.36    0.50
   1  -8   2    6.62    1.09
   1  -8   2    7.12    0.94
   1  -8   2    6.79    1.02
   1  -8   2    8.07    0.93
  -2   8  -2   28.96    1.43
  -2   8  -2   29.24    1.56
   2  -8   2   32.89    1.76
   2  -8   2   28.65    1.72
   2  -8   2   26.69    1.56
   2  -8   2   29.64    1.48
  -3   8  -2   25.53    1.42
  -3   8  -2   26.61    1.63
   3  -8   2   25.65    1.38
   3  -8   2   25.32    1.59
   3  -8   2   26.44    1.63
   3  -8   2   28.25    1.65
  -4   8  -2   57.77    2.23
   4  -8   2   57.93    2.26
   4  -8   2   60.55    1.86
   4  -8   2   62.35    2.24
   4  -8   2   55.82    2.10
  -5   8  -2   32.09    1.67
   5  -8   2   35.36    1.50
   5  -8   2   35.81    1.77
   5  -8   2   34.28    1.61
  -6   8  -2   30.01    1.69
   6  -8   2   33.15    1.62
   6  -8   2   30.17    1.76
  -7   8  -2   11.90    1.23
   7  -8   2   12.26    1.20
   6   7  -2    7.61    1.01
  -6  -7   2    8.27    1.32
   5   7  -2    7.91    0.98
  -5  -7   2    8.01    1.16
   4   7  -2   60.01    2.28
   4   7  -2   60.99    2.25
  -4  -7   2   61.66    2.52
   3   7  -2  123.82    3.71
   3   7  -2  125.21    3.83
  -3  -7   2  119.82    3.80
  -3  -7   2  121.97    3.55
  -3  -7   2  123.33    4.03
   2   7  -2   42.56    1.70
   2   7  -2   42.73    1.70
   2   7  -2   43.27    1.83
  -2  -7   2   40.79    2.03
  -2  -7   2   45.62    1.95
  -2  -7   2   41.88    1.80
   1   7  -2   28.49    1.40
   1   7  -2   27.28    1.30
   1   7  -2   28.34    1.38
  -1  -7   2   30.94    1.47
  -1  -7   2   30.94    1.63
  -1  -7   2   27.76    1.48
  -1  -7   2   27.72    1.72
   0   7  -2    8.03    0.69
   0   7  -2    8.00    0.77
   0   7  -2    8.63    0.91
   0   7  -2   10.36    0.88
   0  -7   2    7.64    0.88
   0  -7   2    7.40    0.86
   0  -7   2    8.54    0.93
   0  -7   2    9.18    1.09
  -1   7  -2   37.24    1.59
  -1   7  -2   37.88    1.19
  -1   7  -2   40.95    1.70
  -1   7  -2   39.24    1.60
   1  -7   2   37.81    1.65
   1  -7   2   38.81    1.67
   1  -7   2   40.80    1.72
   1  -7   2   40.15    1.69
  -2   7  -2  176.82    4.97
  -2   7  -2  176.56    4.73
  -2   7  -2  171.86    5.12
   2  -7   2  181.91    4.81
   2  -7   2  178.77    4.95
   2  -7   2  173.97    5.07
   2  -7   2  184.56    4.84
  -3   7  -2  197.78    5.82
  -3   7  -2  210.09    5.41
   3  -7   2  202.64    5.62
   3  -7   2  210.54    5.41
   3  -7   2  197.35    5.72
   3  -7   2  204.23    5.41
   3  -7   2  206.28    5.46
  -4   7  -2  113.41    3.75
   4  -7   2  126.69    3.50
   4  -7   2  123.88    3.71
   4  -7   2  120.64    3.70
   4  -7   2  120.66    3.68
   4  -7   2  122.79    3.55
  -5   7  -2   18.45    1.17
   5  -7   2   18.46    1.27
   5  -7   2   16.90    1.25
   5  -7   2   19.73    1.29
   5  -7   2   19.03    1.20
  -6   7  -2    2.14    0.71
   6  -7   2    2.22    0.73
   6  -7   2    2.69    0.92
   6  -7   2    3.87    0.91
  -7   7  -2   17.01    1.32
   7  -7   2   19.45    1.53
   7  -7   2   19.13    1.37
   7   6  -2   25.82    1.67
  -7  -6   2   30.27    1.97
   6   6  -2   70.60    2.67
  -6  -6   2   74.20    2.93
   5   6  -2   34.85    1.68
  -5  -6   2   40.44    1.95
   4   6  -2   72.87    2.43
   4   6  -2   66.76    2.42
  -4  -6   2   67.76    2.66
  -4  -6   2   72.53    2.82
   3   6  -2    1.23    0.52
   3   6  -2    1.59    0.70
   3   6  -2    2.00    0.69
  -3  -6   2    1.83    0.77
  -3  -6   2    1.20    1.05
  -3  -6   2    2.61    0.76
   2   6  -2   18.91    1.37
   2   6  -2   17.51    1.16
   2   6  -2   18.45    1.04
   2   6  -2   17.88    0.99
  -2  -6   2   17.02    1.30
  -2  -6   2   17.22    1.10
  -2  -6   2   16.45    1.26
   1   6  -2   92.86    2.84
   1   6  -2   92.40    2.84
   1   6  -2   94.49    2.64
   1   6  -2   86.93    2.76
  -1  -6   2   90.61    2.74
  -1  -6   2   96.45    2.70
  -1  -6   2   89.51    2.99
  -1  -6   2   90.55    2.91
   0   6  -2  156.12    4.40
   0   6  -2  153.77    4.54
   0   6  -2  165.62    4.20
   0   6  -2  156.16    4.29
   0  -6   2  160.93    4.38
   0  -6   2  161.41    4.35
   0  -6   2  159.43    4.65
   0  -6   2  163.59    4.25
  -1   6  -2   32.99    1.48
  -1   6  -2   34.29    1.40
  -1   6  -2   34.61    1.42
  -1   6  -2   35.55    1.47
   1  -6   2   35.03    1.45
   1  -6   2   37.41    1.50
   1  -6   2   35.49    1.51
   1  -6   2   37.15    1.53
  -2   6  -2  167.19    4.68
  -2   6  -2  174.22    4.50
  -2   6  -2  168.31    4.85
   2  -6   2  169.04    4.68
   2  -6   2  177.92    4.49
   2  -6   2  167.18    4.79
   2  -6   2  164.56    4.49
  -3   6  -2  149.47    4.02
  -3   6  -2  140.85    4.28
   3  -6   2  145.07    4.16
   3  -6   2  148.91    3.95
   3  -6   2  145.91    4.04
   3  -6   2  150.30    4.00
   3  -6   2  143.43    4.21
  -4   6  -2    1.23    0.57
  -4   6  -2   -0.40    0.81
   4  -6   2    1.57    0.75
   4  -6   2    0.98    0.59
   4  -6   2    1.82    0.86
   4  -6   2    2.29    0.65
   4  -6   2    1.25    0.76
  -5   6  -2   23.56    1.33
   5  -6   2   21.95    1.28
   5  -6   2   21.92    1.45
   5  -6   2   26.15    1.43
  -6   6  -2   36.52    1.72
   6  -6   2   37.66    1.83
   6  -6   2   36.38    1.68
  -7   6  -2   35.13    1.76
   7  -6   2   36.11    1.71
  -8   6  -2   13.27    1.35
   8  -6   2   14.82    1.32
   7   5  -2   46.15    2.09
  -7  -5   2   45.17    2.29
   6   5  -2   21.95    1.31
  -6  -5   2   22.20    1.58
   5   5  -2   12.02    1.01
   5   5  -2   12.04    1.01
  -5  -5   2   13.12    1.18
   4   5  -2   -0.01    0.93
   4   5  -2    0.49    0.51
   4   5  -2    1.24    0.53
   4   5  -2    2.25    0.70
  -4  -5   2    0.44    0.72
  -4  -5   2    0.91    0.72
  -4  -5   2    0.16    0.28
   3   5  -2   41.23    1.89
   3   5  -2   41.27    1.63
   3   5  -2   42.68    1.62
  -3  -5   2   40.52    1.77
  -3  -5   2   42.10    1.82
  -3  -5   2   42.02    1.56
  -3  -5   2   40.14    1.67
   2   5  -2   80.72    2.53
   2   5  -2   85.83    2.61
   2   5  -2   85.28    2.60
  -2  -5   2   82.85    2.74
  -2  -5   2   81.28    2.58
  -2  -5   2   84.22    2.41
   1   5  -2  267.53    6.76
   1   5  -2  257.09    6.58
   1   5  -2  265.20    7.18
   1   5  -2  265.04    6.90
  -1  -5   2  275.79    6.63
  -1  -5   2  263.03    6.74
  -1  -5   2  272.05    7.33
  -1  -5   2  263.22    6.88
   0   5  -2  243.80    6.50
   0   5  -2  233.27    5.97
   0   5  -2  229.12    6.14
   0   5  -2  238.01    5.86
   0  -5   2  234.09    6.14
   0  -5   2  235.99    5.89
   0  -5   2  236.44    6.01
   0  -5   2  229.43    6.46
  -1   5  -2  144.46    4.19
  -1   5  -2  148.36    4.06
  -1   5  -2  145.25    3.86
  -1   5  -2  146.90    3.88
  -1   5  -2  157.24    4.25
   1  -5   2  145.56    4.21
   1  -5   2  147.80    3.92
   1  -5   2  142.86    4.02
   1  -5   2  151.38    3.93
  -2   5  -2   27.47    1.26
  -2   5  -2   25.77    1.13
  -2   5  -2   27.89    1.16
  -2   5  -2   26.07    1.25
   2  -5   2   27.04    1.24
   2  -5   2   27.97    0.87
   2  -5   2   26.38    1.14
   2  -5   2   25.64    1.20
   2  -5   2   25.50    1.16
  -3   5  -2   47.30    1.56
  -3   5  -2   44.59    1.66
  -3   5  -2   46.39    1.74
   3  -5   2   47.11    1.59
   3  -5   2   46.20    1.66
   3  -5   2   45.20    1.76
   3  -5   2   42.13    1.70
  -4   5  -2  178.56    5.18
  -4   5  -2  179.33    4.80
   4  -5   2  182.60    5.00
   4  -5   2  184.28    4.90
   4  -5   2  187.71    4.77
   4  -5   2  179.88    5.12
  -5   5  -2  167.04    4.93
   5  -5   2  167.73    4.87
   5  -5   2  168.22    4.64
   5  -5   2  167.01    4.54
   5  -5   2  169.59    4.78
  -6   5  -2   68.84    2.55
   6  -5   2   73.29    2.56
   6  -5   2   68.13    2.47
  -7   5  -2   10.51    1.08
   7  -5   2    8.93    1.02
  -8   5  -2    7.53    1.09
  -8   5  -2    7.13    1.08
   8  -5   2    5.90    0.96
   8   4  -2   19.58    1.48
  -8  -4   2   18.92    1.62
   7   4  -2    4.61    0.88
  -7  -4   2    4.99    0.99
   6   4  -2    0.02    0.65
   6   4  -2    0.25    0.60
  -6  -4   2   -0.03    0.68
   5   4  -2   53.41    2.06
   5   4  -2   59.65    2.23
   5   4  -2   55.79    2.04
   5   4  -2   57.53    1.84
  -5  -4   2   54.58    2.17
  -5  -4   2   57.34    2.28
   4   4  -2  198.14    5.42
   4   4  -2  207.07    5.39
   4   4  -2  199.00    5.63
   4   4  -2  204.07    5.16
  -4  -4   2  210.54    5.22
  -4  -4   2  189.86    5.72
   3   4  -2   46.21    1.51
   3   4  -2   51.33    1.70
   3   4  -2   51.46    1.90
   3   4  -2   49.21    1.72
  -3  -4   2   49.80    1.85
  -3  -4   2   52.76    1.70
   2   4  -2  244.91    6.65
   2   4  -2  248.49    6.39
   2   4  -2  243.07    6.21
  -2  -4   2  248.09    6.39
  -2  -4   2  246.96    6.75
  -2  -4   2  248.58    6.12
   1   4  -2  182.18    4.89
   1   4  -2  176.89    4.53
   1   4  -2  168.45    4.59
   1   4  -2  169.85    4.77
  -1  -4   2  168.20    4.58
  -1  -4   2  181.21    4.91
  -1  -4   2  172.76    4.39
  -1  -4   2  167.04    4.45
  -1  -4   2  181.44    4.78
   0   4  -2   86.23    2.56
   0   4  -2   83.20    2.45
   0   4  -2   78.52    2.36
   0   4  -2   80.75    2.39
   0  -4   2   83.76    2.56
   0  -4   2   81.18    2.34
   0  -4   2   83.05    2.38
   0  -4   2   79.03    2.27
  -1   4  -2  129.07    3.54
  -1   4  -2  121.28    3.25
  -1   4  -2  121.18    3.49
  -1   4  -2  123.71    3.39
   1  -4   2  124.71    3.24
   1  -4   2  118.53    3.25
   1  -4   2  125.41    3.51
   1  -4   2  127.80    3.50
   1  -4   2  118.64    3.37
  -2   4  -2  279.42    7.14
  -2   4  -2  269.32    6.54
  -2   4  -2  257.61    7.14
   2  -4   2  258.53    6.59
   2  -4   2  270.54    6.56
   2  -4   2  260.54    6.85
   2  -4   2  268.52    7.12
  -3   4  -2   96.40    2.91
  -3   4  -2   98.15    2.76
  -3   4  -2   95.26    2.66
   3  -4   2   95.38    2.74
   3  -4   2  102.38    2.91
   3  -4   2   97.03    2.82
   3  -4   2   97.61    2.67
  -4   4  -2   73.04    2.41
  -4   4  -2   71.76    2.17
  -4   4  -2   75.16    2.31
   4  -4   2   73.13    2.22
   4  -4   2   72.91    2.36
   4  -4   2   75.37    2.37
   4  -4   2   75.81    2.36
  -5   4  -2   92.22    3.03
  -5   4  -2   96.40    2.94
   5  -4   2   98.83    3.06
   5  -4   2   94.25    2.81
   5  -4   2   97.68    3.02
  -6   4  -2   18.37    1.17
   6  -4   2   17.53    1.12
  -7   4  -2    0.75    0.69
  -7   4  -2    1.03    0.71
   7  -4   2    1.17    0.73
  -8   4  -2    3.07    0.87
   8  -4   2    1.78    0.85
   8   3  -2    1.01    0.72
  -8  -3   2    2.43    0.94
   7   3  -2    1.72    0.72
  -7  -3   2    2.90    0.82
   6   3  -2   20.03    1.20
   6   3  -2   16.96    1.16
  -6  -3   2   18.09    1.23
   5   3  -2  116.57    3.53
   5   3  -2  120.10    3.52
   5   3  -2  116.50    3.42
   5   3  -2  119.74    3.32
  -5  -3   2  112.69    3.44
  -5  -3   2  115.73    3.64
   4   3  -2  230.36    5.70
   4   3  -2  226.22    5.80
   4   3  -2  220.44    5.93
   4   3  -2  223.41    6.19
  -4  -3   2  231.12    6.30
  -4  -3   2  228.11    5.68
  -4  -3   2  219.71    5.82
   3   3  -2  139.22    3.80
   3   3  -2  134.18    3.60
   3   3  -2  133.98    3.48
   3   3  -2  130.18    3.62
  -3  -3   2  135.24    3.49
  -3  -3   2  129.04    3.82
  -3  -3   2  133.74    3.58
   2   3  -2   26.14    1.04
   2   3  -2   24.69    1.00
   2   3  -2   24.55    0.98
   2   3  -2   25.87    1.09
   2   3  -2   25.30    1.02
  -2  -3   2   22.51    0.89
  -2  -3   2   27.62    1.12
  -2  -3   2   27.75    1.00
  -2  -3   2   25.86    0.96
   1   3  -2  119.96    3.22
   1   3  -2  112.12    3.02
   1   3  -2  108.00    3.00
   1   3  -2  111.31    3.12
   1   3  -2  110.79    2.90
  -1  -3   2  107.98    2.88
   0   3  -2  372.10    9.01
   0   3  -2  359.69    9.07
   0   3  -2  391.54    9.88
   0   3  -2  374.23    9.74
   0   3  -2  366.64    9.40
   0   3  -2  370.47    9.80
   0  -3   2  367.66    9.87
   0  -3   2  401.51    9.82
   0  -3   2  374.83    9.01
  -1   3  -2 1000.00   24.75
  -1   3  -2  931.08   22.74
  -1   3  -2  895.41   22.70
  -1   3  -2  894.87   23.81
   1  -3   2  960.92   24.38
   1  -3   2  972.45   25.11
   1  -3   2  920.97   23.79
   1  -3   2  915.08   22.87
  -2   3  -2  541.68   14.60
  -2   3  -2  561.46   14.11
  -2   3  -2  541.09   13.14
   2  -3   2  533.97   14.75
   2  -3   2  538.19   12.99
   2  -3   2  557.63   14.12
   2  -3   2  530.58   13.75
  -3   3  -2   37.60    1.38
  -3   3  -2   37.96    1.29
   3  -3   2   39.26    1.39
   3  -3   2   37.93    1.39
   3  -3   2   38.00    1.21
  -4   3  -2   44.87    1.61
  -4   3  -2   43.86    1.53
   4  -3   2   44.55    1.47
   4  -3   2   42.57    1.59
   4  -3   2   44.28    1.74
  -5   3  -2    9.96    0.80
  -5   3  -2    9.55    0.98
  -5   3  -2    8.70    0.83
   5  -3   2   10.38    1.02
   5  -3   2   10.36    0.88
   5  -3   2    9.76    0.76
  -6   3  -2   29.29    1.44
  -6   3  -2   30.71    1.46
   6  -3   2   28.52    1.44
  -7   3  -2   18.72    1.30
   7  -3   2   20.67    1.28
  -8   3  -2   32.55    1.87
   8  -3   2   32.93    1.78
   8   2  -2   45.47    2.01
  -8  -2   2   41.85    2.06
   7   2  -2   21.52    1.31
  -7  -2   2   20.25    1.34
   6   2  -2   73.47    2.47
   6   2  -2   78.12    2.38
   6   2  -2   72.61    2.49
  -6  -2   2   70.97    2.57
   5   2  -2   40.03    1.68
   5   2  -2   37.83    1.60
   5   2  -2   42.08    1.59
   5   2  -2   41.87    1.73
   5   2  -2   41.38    1.58
  -5  -2   2   40.85    1.86
  -5  -2   2   40.18    1.67
   4   2  -2    3.71    0.59
   4   2  -2    4.37    0.71
   4   2  -2    4.15    0.69
   4   2  -2    4.12    0.56
   4   2  -2    5.62    0.58
  -4  -2   2    5.53    0.60
  -4  -2   2    6.50    0.75
  -4  -2   2    4.22    0.54
   3   2  -2   45.01    1.49
   3   2  -2   48.02    1.51
   3   2  -2   44.22    1.48
   3   2  -2   45.17    1.50
   3   2  -2   45.87    1.42
  -3  -2   2   45.63    1.39
  -3  -2   2   48.41    1.52
  -3  -2   2   45.62    1.53
  -3  -2   2   43.60    1.55
   2   2  -2  466.10   11.83
   2   2  -2  482.19   12.21
   2   2  -2  467.29   11.22
   2   2  -2  471.20   12.58
   2   2  -2  473.33   11.25
  -2  -2   2  477.61   12.66
  -2  -2   2  465.23   11.47
  -2  -2   2  463.22   11.40
  -2  -2   2  471.26   12.39
   1   2  -2  541.67   13.78
   1   2  -2  516.14   12.41
   1   2  -2  490.23   12.94
   1   2  -2  517.55   14.01
   1   2  -2  518.59   12.50
  -1  -2   2  517.57   13.60
  -1  -2   2  494.36   13.06
  -1  -2   2  509.22   12.35
  -1  -2   2  501.85   12.59
  -1  -2   2  528.51   13.51
   0   2  -2  352.68    9.22
   0   2  -2  339.85    8.27
   0   2  -2  334.15    8.45
   0   2  -2  360.29    8.97
   0   2  -2  346.34    9.05
   0   2  -2  328.73    8.79
   0  -2   2  341.26    8.19
   0  -2   2  343.29    9.19
   0  -2   2  346.59    9.01
   0  -2   2  336.68    8.26
  -1   2  -2  444.08   11.54
  -1   2  -2  433.15   11.58
  -1   2  -2  430.70   10.53
   1  -2   2  419.38   10.24
   1  -2   2  425.50   11.48
   1  -2   2  423.87   10.48
   1  -2   2  435.90   11.63
  -2   2  -2    5.01    0.41
  -2   2  -2    5.58    0.43
  -2   2  -2    4.36    0.41
  -2   2  -2    4.53    0.48
   2  -2   2    4.78    0.48
   2  -2   2    5.91    0.43
   2  -2   2    5.84    0.47
  -3   2  -2   46.95    1.46
  -3   2  -2   46.88    1.57
  -3   2  -2   45.47    1.56
   3  -2   2   47.09    1.56
   3  -2   2   47.71    1.60
  -4   2  -2   23.82    1.06
  -4   2  -2   22.64    1.09
  -4   2  -2   24.09    1.10
   4  -2   2   23.78    1.08
   4  -2   2   22.34    1.24
  -5   2  -2   18.17    1.17
  -5   2  -2   21.72    1.20
  -5   2  -2   22.28    1.20
   5  -2   2   20.12    1.10
   5  -2   2   19.99    1.39
  -6   2  -2   49.86    2.00
   6  -2   2   48.36    1.90
  -7   2  -2   70.90    2.71
   7  -2   2   70.91    2.62
  -8   2  -2   15.11    1.37
   8  -2   2   16.69    1.38
   8   1  -2   21.98    1.40
  -8  -1   2   22.33    1.45
   7   1  -2   31.32    1.54
  -7  -1   2   34.51    1.61
   6   1  -2    3.67    0.89
   6   1  -2    2.84    0.62
   6   1  -2    3.39    0.73
  -6  -1   2    2.77    0.70
   5   1  -2    3.43    0.53
   5   1  -2    4.65    0.68
   5   1  -2    3.40    0.76
  -5  -1   2    4.81    0.82
  -5  -1   2    3.58    0.58
   4   1  -2   35.12    1.43
   4   1  -2   36.96    1.28
   4   1  -2   35.53    1.28
  -4  -1   2   35.14    1.40
  -4  -1   2   35.26    1.31
   3   1  -2  651.79   16.48
   3   1  -2  623.67   16.36
   3   1  -2  628.37   15.05
   3   1  -2  600.78   15.78
   3   1  -2  638.55   15.26
  -3  -1   2  623.63   14.97
  -3  -1   2  621.39   14.90
  -3  -1   2  647.20   16.52
  -3  -1   2  608.88   16.98
   2   1  -2  814.08   19.82
   2   1  -2  775.45   20.53
   2   1  -2  837.96   21.23
   2   1  -2  817.92   19.69
   2   1  -2  807.64   21.51
  -2  -1   2  769.64   19.44
  -2  -1   2  828.01   21.22
  -2  -1   2  835.50   21.57
  -2  -1   2  803.33   19.65
  -2  -1   2  801.50   20.57
   1   1  -2  237.70    6.08
   1   1  -2  230.44    5.54
   1   1  -2  238.01    5.72
   1   1  -2  236.28    5.99
   1   1  -2  224.12    5.92
   1   1  -2  228.84    6.13
  -1  -1   2  230.43    5.52
  -1  -1   2  221.96    5.57
  -1  -1   2  235.53    5.77
  -1  -1   2  232.05    6.02
  -1  -1   2  225.67    5.58
  -1  -1   2  235.70    6.11
   0   1  -2  156.43    4.05
   0   1  -2  147.09    3.74
   0   1  -2  152.73    3.70
   0   1  -2  157.29    4.00
   0   1  -2  152.72    4.08
   0  -1   2  153.83    3.69
   0  -1   2  150.06    3.74
   0  -1   2  155.28    4.06
   0  -1   2  153.01    4.06
   0  -1   2  156.16    4.00
  -1   1  -2   17.47    0.77
  -1   1  -2   17.28    0.68
  -1   1  -2   18.72    0.71
  -1   1  -2   18.74    0.74
   1  -1   2   18.94    0.75
   1  -1   2   17.60    0.73
   1  -1   2   18.96    0.67
   1  -1   2   19.25    0.82
  -2   1  -2  139.77    3.64
  -2   1  -2  132.70    3.40
  -2   1  -2  132.54    3.35
  -2   1  -2  133.82    3.65
   2  -1   2  128.53    3.38
   2  -1   2  135.04    3.35
   2  -1   2  132.41    3.64
  -3   1  -2  178.65    4.55
  -3   1  -2  181.30    4.99
  -3   1  -2  184.31    4.64
  -3   1  -2  180.55    4.98
   3  -1   2  182.17    4.97
   3  -1   2  185.68    4.57
   3  -1   2  181.59    4.64
  -4   1  -2  438.34   11.44
  -4   1  -2  435.60   10.56
  -4   1  -2  423.29   10.45
   4  -1   2  424.27   11.40
   4  -1   2  433.65   10.46
   4  -1   2  435.54   10.54
  -5   1  -2   65.96    2.26
  -5   1  -2   66.28    2.09
  -5   1  -2   66.57    2.33
   5  -1   2   67.24    2.10
   5  -1   2   63.86    2.26
  -6   1  -2   16.62    1.17
   6  -1   2   17.85    1.11
  -7   1  -2    1.35    0.79
   7  -1   2    1.65    0.73
  -8   1  -2   12.55    1.34
   8  -1   2    9.43    1.15
   9   0  -2    7.21    1.03
  -9   0   2    8.26    1.13
   8   0  -2    2.77    0.77
  -8   0   2    3.01    0.85
   7   0  -2    4.25    0.80
   7   0  -2    5.12    0.74
  -7   0   2    5.64    0.82
   6   0  -2  164.17    4.71
   6   0  -2  170.86    4.57
   6   0  -2  167.83    4.43
  -6   0   2  158.49    4.78
   5   0  -2  133.85    3.55
   5   0  -2  133.52    3.80
   5   0  -2  137.09    3.66
  -5   0   2  130.07    3.61
  -5   0   2  129.59    3.84
   4   0  -2  186.03    5.05
   4   0  -2  186.99    4.72
   4   0  -2  183.05    4.66
  -4   0   2  184.34    4.68
  -4   0   2  176.08    5.06
  -4   0   2  200.78    5.09
   3   0  -2   88.28    2.34
   3   0  -2   90.27    2.48
   3   0  -2   89.88    2.49
   3   0  -2   88.80    2.31
   3   0  -2   86.42    2.38
  -3   0   2   91.39    2.50
  -3   0   2   88.63    2.28
  -3   0   2   87.78    2.49
  -3   0   2   87.04    2.32
  -3   0   2   88.27    2.50
   2   0  -2   15.61    0.55
   2   0  -2   15.16    0.62
   2   0  -2   14.81    0.60
   2   0  -2   16.02    0.54
   2   0  -2   15.89    0.69
  -2   0   2   15.88    0.56
  -2   0   2   16.35    0.58
  -2   0   2   15.00    0.64
  -2   0   2   15.26    0.61
   1   0  -2   15.80    0.78
   0   0  -2  122.73    3.06
   0   0  -2  126.05    3.02
   0   0   2  125.76    3.44
   0   0   2  124.02    3.28
   0   0   2  129.08    3.25
  -1   0  -2   59.27    1.62
  -1   0  -2   64.15    1.75
  -1   0  -2   61.07    1.75
  -1   0  -2   63.05    1.70
   1   0   2   66.04    1.76
   1   0   2   61.92    1.63
   1   0   2   62.20    1.75
   1   0   2   60.93    1.67
  -2   0  -2  216.58    5.57
  -2   0  -2  205.88    5.60
  -2   0  -2  209.02    5.19
  -2   0  -2  206.57    5.13
   2   0   2  217.52    5.60
   2   0   2  212.09    5.59
   2   0   2  203.17    5.16
   2   0   2  209.44    5.12
  -3   0  -2  375.75    9.99
  -3   0  -2  379.81    9.22
  -3   0  -2  381.86    9.16
   3   0   2  385.35    9.15
   3   0   2  372.77    9.97
   3   0   2  379.65    9.20
  -4   0  -2  156.40    4.51
  -4   0  -2  156.24    4.24
  -4   0  -2  159.04    4.10
   4   0   2  154.71    4.47
   4   0   2  163.41    4.10
  -5   0  -2    2.07    0.86
  -5   0  -2    1.66    0.63
  -5   0  -2    2.56    0.63
   5   0   2    2.26    0.60
   5   0   2    1.84    0.67
  -6   0  -2    2.22    0.72
   6   0   2    2.14    0.66
  -7   0  -2   28.69    1.72
   7   0   2   31.15    1.64
  -8   0  -2   17.20    1.51
   8   0   2   19.09    1.41
  -9   1   2    1.31    0.79
   8  -1  -2    4.33    0.80
  -8   1   2    4.08    0.84
   7  -1  -2   86.76    2.82
   7  -1  -2   90.57    2.71
  -7   1   2   80.34    2.87
   6  -1  -2  185.28    4.81
   6  -1  -2  182.54    5.16
   6  -1  -2  187.33    4.90
  -6   1   2  180.18    5.23
   5  -1  -2   95.98    2.73
   5  -1  -2   93.59    2.63
   5  -1  -2   95.11    2.79
  -5   1   2   92.63    2.84
  -5   1   2   92.63    2.83
   4  -1  -2   51.25    1.53
   4  -1  -2   52.94    1.60
   4  -1  -2   49.18    1.58
   4  -1  -2   50.69    1.63
  -4   1   2   53.91    1.63
  -4   1   2   50.33    1.57
  -4   1   2   49.07    1.63
   3  -1  -2   66.49    1.88
   3  -1  -2   64.67    1.76
   3  -1  -2   66.71    1.88
   3  -1  -2   65.87    1.80
  -3   1   2   65.55    1.90
  -3   1   2   65.05    1.77
  -3   1   2   68.05    1.90
   2  -1  -2   27.93    0.79
   2  -1  -2   27.76    1.15
   2  -1  -2   27.12    0.84
   2  -1  -2   29.04    0.78
  -2   1   2   29.76    0.84
  -2   1   2   26.89    0.73
  -2   1   2   26.92    0.83
  -2   1   2   27.10    0.75
   1  -1  -2  366.30   10.06
  -1   1   2  373.15    9.71
   0  -1  -2  746.97   18.04
   0  -1  -2  747.20   18.15
   0   1   2  780.74   19.64
   0   1   2  772.68   19.70
  -1  -1  -2  248.56    6.42
  -1  -1  -2  245.29    5.88
  -1  -1  -2  247.12    6.37
  -1  -1  -2  239.18    5.92
   1   1   2  246.73    6.40
   1   1   2  240.26    5.92
   1   1   2  255.63    6.43
   1   1   2  241.90    5.86
  -2  -1  -2  263.08    6.49
  -2  -1  -2  264.07    7.03
  -2  -1  -2  272.96    6.97
  -2  -1  -2  266.34    6.42
   2   1   2  276.30    7.03
   2   1   2  257.58    6.47
   2   1   2  265.10    6.99
   2   1   2  267.99    6.41
   2   1   2  254.35    6.46
  -3  -1  -2   41.24    1.55
  -3  -1  -2   40.03    1.46
  -3  -1  -2   42.30    1.36
   3   1   2   41.78    1.35
   3   1   2   41.16    1.42
  -4  -1  -2   34.05    1.47
  -4  -1  -2   33.57    1.68
  -4  -1  -2   33.43    1.34
   4   1   2   33.22    1.27
   4   1   2   32.77    1.32
  -5  -1  -2   83.74    2.58
  -5  -1  -2   83.19    2.84
  -5  -1  -2   88.48    2.85
   5   1   2   84.08    2.76
  -6  -1  -2   97.65    3.22
   6   1   2   93.90    3.14
  -7  -1  -2   22.14    1.50
   7   1   2   25.04    1.52
  -9   2   2   25.01    1.62
   8  -2  -2   52.64    2.01
  -8   2   2   47.54    2.04
   7  -2  -2   29.45    1.39
   7  -2  -2   32.15    1.39
  -7   2   2   27.69    1.39
  -7   2   2   29.25    1.46
   6  -2  -2   11.20    1.07
   6  -2  -2   11.09    0.84
   6  -2  -2   10.65    0.84
  -6   2   2   10.08    0.82
  -6   2   2    9.75    0.83
   5  -2  -2    3.96    0.72
   5  -2  -2    3.42    0.46
   5  -2  -2    2.98    0.57
  -5   2   2    3.62    0.49
   4  -2  -2  212.83    5.63
   4  -2  -2  211.76    5.23
   4  -2  -2  207.97    5.28
   4  -2  -2  206.39    5.42
   4  -2  -2  219.61    5.66
  -4   2   2  206.22    5.68
  -4   2   2  219.13    5.68
   3  -2  -2  183.57    4.49
   3  -2  -2  174.67    4.60
   3  -2  -2  181.38    4.44
   3  -2  -2  186.55    4.78
   3  -2  -2  186.35    4.82
   3  -2  -2  179.53    5.12
  -3   2   2  181.49    4.84
  -3   2   2  184.84    4.82
   2  -2  -2   52.45    1.35
   2  -2  -2   50.65    1.75
   2  -2  -2   54.45    1.43
  -2   2   2   51.61    1.50
  -2   2   2   54.38    1.47
  -2   2   2   54.61    1.46
  -2   2   2   52.56    1.81
   1  -2  -2  372.07    9.86
  -1   2   2  375.75    9.87
   0  -2  -2  289.02    7.08
   0  -2  -2  293.49    7.02
   0   2   2  282.53    7.81
   0   2   2  304.13    7.59
   0   2   2  290.75    7.63
  -1  -2  -2   67.03    1.98
  -1  -2  -2   66.52    1.78
  -1  -2  -2   69.19    1.89
  -1  -2  -2   68.89    1.89
   1   2   2   69.06    1.99
   1   2   2   67.64    1.74
   1   2   2   66.90    1.93
  -2  -2  -2   25.54    0.96
  -2  -2  -2   26.70    1.17
  -2  -2  -2   28.04    0.98
  -2  -2  -2   25.67    1.07
   2   2   2   26.04    0.97
   2   2   2   27.05    1.06
   2   2   2   26.37    0.96
  -3  -2  -2   87.83    2.61
  -3  -2  -2   88.40    2.67
  -3  -2  -2   85.60    2.40
   3   2   2   87.48    2.39
   3   2   2   86.71    2.62
  -4  -2  -2   66.48    2.36
  -4  -2  -2   64.32    2.26
  -4  -2  -2   63.20    2.01
   4   2   2   68.22    2.05
   4   2   2   63.77    2.19
  -5  -2  -2   91.93    2.93
  -5  -2  -2   91.91    3.04
   5   2   2   88.16    2.91
  -6  -2  -2   56.69    2.25
   6   2   2   53.23    2.13
  -7  -2  -2    3.38    0.97
   7   2   2    2.68    0.82
  -9   3   2   23.65    1.55
   8  -3  -2    7.52    0.87
  -8   3   2    8.54    0.99
  -8   3   2    9.37    1.02
   7  -3  -2    1.61    0.56
   7  -3  -2    2.56    0.68
   7  -3  -2    1.71    0.71
  -7   3   2    2.24    0.62
   6  -3  -2    6.30    0.77
   6  -3  -2    4.96    0.73
   6  -3  -2    6.00    0.65
   6  -3  -2    4.67    0.90
  -6   3   2    5.65    0.65
   5  -3  -2   85.34    2.44
   5  -3  -2   81.47    2.47
   5  -3  -2   82.95    2.32
   5  -3  -2   79.21    2.40
   5  -3  -2   82.87    2.95
  -5   3   2   79.53    2.50
   4  -3  -2  321.96    8.48
   4  -3  -2  330.49    9.20
   4  -3  -2  337.78    8.17
   4  -3  -2  343.39    8.80
   4  -3  -2  339.66    8.22
   4  -3  -2  349.01    8.87
  -4   3   2  331.80    8.89
  -4   3   2  348.70    8.88
   3  -3  -2  286.43    7.92
   3  -3  -2  292.89    7.07
   3  -3  -2  289.91    7.00
   3  -3  -2  298.93    7.56
   3  -3  -2  294.57    7.52
   3  -3  -2  280.89    7.22
  -3   3   2  301.79    7.61
  -3   3   2  286.52    7.64
   2  -3  -2  445.62   11.81
   2  -3  -2  449.45   10.84
   2  -3  -2  439.55   10.70
  -2   3   2  453.97   11.36
  -2   3   2  452.20   11.65
  -2   3   2  444.39   11.64
   1  -3  -2    9.09    0.42
   1  -3  -2    8.70    0.44
   1  -3  -2    9.87    0.74
  -1   3   2    7.98    0.39
  -1   3   2    8.83    0.44
  -1   3   2    8.80    0.44
   0  -3  -2   98.58    2.44
   0  -3  -2   95.04    2.59
   0  -3  -2   99.35    2.56
   0   3   2   99.07    2.77
   0   3   2   96.96    2.65
  -1  -3  -2  178.03    4.43
  -1  -3  -2  186.19    4.77
  -1  -3  -2  174.77    4.88
  -1  -3  -2  181.83    4.56
   1   3   2  186.78    4.92
   1   3   2  176.12    4.82
  -2  -3  -2  467.71   11.20
  -2  -3  -2  460.67   11.28
  -2  -3  -2  452.14   11.27
  -2  -3  -2  460.22   12.25
   2   3   2  472.01   12.20
   2   3   2  489.16   12.27
  -3  -3  -2   97.98    2.68
  -3  -3  -2   96.86    2.99
  -3  -3  -2   93.99    2.84
   3   3   2   96.65    2.91
  -4  -3  -2   26.79    1.25
  -4  -3  -2   27.47    1.38
  -4  -3  -2   28.93    1.60
   4   3   2   26.56    1.28
  -5  -3  -2    9.12    0.97
  -5  -3  -2   11.29    1.20
   5   3   2    8.81    0.88
  -6  -3  -2    1.16    0.83
   6   3   2    0.58    0.66
  -7  -3  -2    8.32    1.24
   7   3   2    9.69    1.14
   9  -4  -2   -1.05    1.19
  -9   4   2   -0.41    0.72
  -9   4   2    0.37    0.79
   8  -4  -2   29.32    2.25
  -8   4   2   29.64    1.53
  -8   4   2   30.34    1.52
   7  -4  -2   39.70    1.63
   7  -4  -2   39.65    1.55
   7  -4  -2   39.02    1.63
   7  -4  -2   35.23    2.24
  -7   4   2   37.06    1.63
   6  -4  -2   49.34    1.92
   6  -4  -2   46.72    1.64
   6  -4  -2   47.53    1.70
   6  -4  -2   47.13    1.72
   6  -4  -2   46.15    2.21
  -6   4   2   43.35    1.72
   5  -4  -2   77.36    2.89
   5  -4  -2   73.71    2.32
   5  -4  -2   78.80    2.28
   5  -4  -2   81.75    2.45
   5  -4  -2   79.47    2.31
  -5   4   2   79.03    2.45
   4  -4  -2  138.37    3.72
   4  -4  -2  138.68    3.72
   4  -4  -2  138.26    3.62
   4  -4  -2  140.08    3.81
   4  -4  -2  142.31    4.22
   4  -4  -2  145.86    3.89
  -4   4   2  148.61    3.94
  -4   4   2  141.56    3.97
   3  -4  -2   37.02    1.54
   3  -4  -2   37.14    1.14
   3  -4  -2   36.12    1.03
   3  -4  -2   38.92    1.11
   3  -4  -2   36.33    1.32
  -3   4   2   34.91    1.26
  -3   4   2   38.75    1.24
  -3   4   2   38.66    1.29
   2  -4  -2   32.47    1.16
   2  -4  -2   33.33    1.03
   2  -4  -2   33.34    1.41
  -2   4   2   32.30    1.14
  -2   4   2   35.48    1.16
  -2   4   2   36.07    1.09
   1  -4  -2  181.73    4.51
   1  -4  -2  189.96    4.56
  -1   4   2  181.16    4.90
  -1   4   2  184.54    4.69
  -1   4   2  187.33    4.94
   0  -4  -2  106.29    2.91
   0  -4  -2  103.76    2.86
   0  -4  -2  104.69    2.72
   0  -4  -2  109.22    2.83
   0   4   2  105.89    3.09
   0   4   2  109.02    2.96
  -1  -4  -2  267.09    6.60
  -1  -4  -2  260.48    7.22
  -1  -4  -2  272.36    6.75
  -1  -4  -2  276.40    7.09
   1   4   2  280.36    7.31
   1   4   2  269.67    7.18
  -2  -4  -2  161.22    4.24
  -2  -4  -2  155.26    4.20
  -2  -4  -2  153.21    4.45
  -2  -4  -2  160.76    4.05
   2   4   2  154.42    4.38
  -3  -4  -2    9.89    0.91
  -3  -4  -2    9.95    1.11
  -3  -4  -2   10.43    0.79
   3   4   2   10.30    0.82
  -4  -4  -2    0.99    0.89
  -4  -4  -2    0.98    0.71
  -4  -4  -2   -0.20    0.56
   4   4   2    0.13    0.50
  -5  -4  -2   23.08    1.48
   5   4   2   21.57    1.25
  -6  -4  -2    8.63    1.18
   6   4   2    9.99    1.07
   8  -5  -2   29.36    2.20
  -8   5   2   29.79    1.59
   7  -5  -2   61.04    2.13
   7  -5  -2   60.99    2.05
   7  -5  -2   61.98    2.74
  -7   5   2   57.60    2.20
   6  -5  -2   88.82    2.63
   6  -5  -2   88.85    3.22
   6  -5  -2   83.67    2.64
   6  -5  -2   88.79    2.60
   6  -5  -2   93.54    2.80
  -6   5   2   84.24    2.80
   5  -5  -2    3.17    0.44
   5  -5  -2    4.48    0.64
   5  -5  -2    3.20    0.95
   5  -5  -2    2.66    0.66
   5  -5  -2    3.29    0.85
  -5   5   2    2.61    0.51
   4  -5  -2    0.70    0.70
   4  -5  -2    0.62    0.51
   4  -5  -2    0.31    0.31
   4  -5  -2    0.46    0.26
   4  -5  -2    0.93    0.70
   4  -5  -2    0.56    0.42
  -4   5   2   -0.08    0.35
  -4   5   2    0.16    0.36
   3  -5  -2   54.53    1.47
   3  -5  -2   52.53    1.56
   3  -5  -2   51.45    1.76
   3  -5  -2   49.75    1.91
  -3   5   2   49.63    1.73
  -3   5   2   50.91    1.74
  -3   5   2   54.36    1.68
   2  -5  -2  446.39   11.68
   2  -5  -2  429.91   10.56
   2  -5  -2  441.85   10.51
  -2   5   2  459.23   11.44
  -2   5   2  425.18   11.46
  -2   5   2  431.15   10.98
   1  -5  -2  388.12    9.39
   1  -5  -2  390.93    9.91
   1  -5  -2  378.18    9.30
  -1   5   2  380.27    9.68
  -1   5   2  377.83   10.12
  -1   5   2  407.42   10.22
   0  -5  -2  118.68    3.28
   0  -5  -2  116.90    3.22
   0  -5  -2  118.36    3.09
   0  -5  -2  121.23    3.17
   0   5   2  116.82    3.20
   0   5   2  116.86    3.32
   0   5   2  121.17    3.53
  -1  -5  -2   12.53    0.86
  -1  -5  -2   13.91    1.05
  -1  -5  -2   11.74    0.82
   1   5   2   13.75    1.03
   1   5   2   12.51    0.74
  -2  -5  -2   20.71    1.20
  -2  -5  -2   19.52    1.46
  -2  -5  -2   23.16    1.12
   2   5   2   21.34    1.04
  -3  -5  -2   31.51    1.35
  -3  -5  -2   33.42    1.96
  -3  -5  -2   32.33    1.64
   3   5   2   31.51    1.40
  -4  -5  -2   51.11    2.13
  -4  -5  -2   55.11    2.18
   4   5   2   50.28    1.95
  -5  -5  -2   44.52    2.07
   5   5   2   43.97    1.88
  -6  -5  -2   19.27    1.57
   6   5   2   19.24    1.40
   8  -6  -2   10.17    1.43
  -8   6   2   10.52    1.08
   7  -6  -2   12.98    1.40
   7  -6  -2   12.59    1.04
  -7   6   2   11.81    0.97
   6  -6  -2    5.96    0.95
   6  -6  -2    6.05    1.05
   6  -6  -2    6.37    0.59
   6  -6  -2    5.72    0.79
  -6   6   2    5.30    0.71
   5  -6  -2   43.38    1.51
   5  -6  -2   46.24    2.06
   5  -6  -2   45.09    1.45
   5  -6  -2   47.31    1.87
   5  -6  -2   45.05    1.64
  -5   6   2   43.95    1.72
   4  -6  -2   83.83    2.78
   4  -6  -2   79.76    2.35
   4  -6  -2   85.07    2.33
   4  -6  -2   79.48    2.58
   4  -6  -2   81.80    2.25
   4  -6  -2   78.45    2.17
  -4   6   2   78.09    2.56
  -4   6   2   86.12    2.53
  -4   6   2   77.02    2.57
   3  -6  -2  159.00    4.38
   3  -6  -2  167.16    4.28
   3  -6  -2  166.86    4.81
   3  -6  -2  174.34    4.35
  -3   6   2  158.80    4.68
  -3   6   2  169.54    4.61
  -3   6   2  165.33    4.55
   2  -6  -2   83.38    2.40
   2  -6  -2   80.20    2.42
   2  -6  -2   87.12    2.22
  -2   6   2   81.14    2.54
  -2   6   2   82.51    2.48
  -2   6   2   87.95    2.59
   1  -6  -2   27.92    1.42
   1  -6  -2   27.06    0.84
   1  -6  -2   25.45    1.13
  -1   6   2   26.26    1.13
  -1   6   2   25.22    1.07
  -1   6   2   29.06    1.38
   0  -6  -2   -0.36    0.56
   0  -6  -2    0.00    0.33
   0  -6  -2    0.71    0.86
   0  -6  -2    0.58    0.28
   0   6   2    0.14    0.35
   0   6   2    0.83    0.54
   0   6   2   -0.17    0.60
  -1  -6  -2   44.14    1.65
  -1  -6  -2   42.95    1.94
  -1  -6  -2   44.79    1.58
   1   6   2   45.64    1.63
   1   6   2   42.62    1.58
  -2  -6  -2   16.16    1.25
  -2  -6  -2   19.50    1.40
  -2  -6  -2   18.91    1.17
   2   6   2   16.03    1.02
   2   6   2   20.46    1.22
  -3  -6  -2   67.85    2.46
  -3  -6  -2   67.67    2.19
  -3  -6  -2   70.28    2.55
  -3  -6  -2   67.98    2.63
   3   6   2   70.10    2.31
   3   6   2   63.27    2.32
  -4  -6  -2  140.59    4.29
  -4  -6  -2  147.38    4.45
   4   6   2  132.97    4.27
  -5  -6  -2   14.88    1.40
   5   6   2   14.88    1.15
   8  -7  -2    1.88    1.12
  -8   7   2   -0.09    0.61
   7  -7  -2    5.96    1.15
   7  -7  -2    6.01    0.96
  -7   7   2    5.67    0.85
   6  -7  -2   97.82    2.94
   6  -7  -2   98.17    3.10
   6  -7  -2   97.28    3.36
  -6   7   2   92.22    3.12
   5  -7  -2  129.23    3.60
   5  -7  -2  129.47    3.76
   5  -7  -2  135.57    4.08
  -5   7   2  125.37    3.91
   4  -7  -2  102.29    3.07
   4  -7  -2   98.97    2.88
   4  -7  -2  101.05    3.25
   4  -7  -2  104.62    2.77
  -4   7   2  100.39    3.11
  -4   7   2   94.61    3.13
   3  -7  -2    3.73    0.82
   3  -7  -2    2.57    0.85
   3  -7  -2    2.61    0.75
   3  -7  -2    3.32    0.28
  -3   7   2    3.71    0.60
  -3   7   2    3.99    0.76
  -3   7   2    3.38    0.61
   2  -7  -2    6.68    0.39
   2  -7  -2    5.46    0.90
   2  -7  -2    6.29    0.36
   2  -7  -2    6.64    0.87
  -2   7   2    6.95    0.78
  -2   7   2    5.00    0.76
  -2   7   2    6.47    0.66
   1  -7  -2   23.89    1.27
   1  -7  -2   23.18    0.80
   1  -7  -2   23.64    1.50
  -1   7   2   21.07    1.09
  -1   7   2   20.53    1.21
  -1   7   2   23.03    1.48
   0  -7  -2  103.64    2.91
   0  -7  -2  102.65    3.23
   0  -7  -2  104.99    2.96
   0   7   2  100.57    3.11
   0   7   2  103.29    3.05
  -1  -7  -2  124.16    3.67
  -1  -7  -2  126.13    3.82
  -1  -7  -2  126.89    3.52
   1   7   2  130.51    3.67
   1   7   2  125.30    3.76
  -2  -7  -2   85.49    2.64
  -2  -7  -2   82.69    2.80
  -2  -7  -2   87.03    2.93
   2   7   2   88.24    2.76
   2   7   2   87.39    2.82
  -3  -7  -2   18.62    1.52
  -3  -7  -2   21.10    1.43
  -3  -7  -2   20.51    1.52
   3   7   2   20.61    1.34
   3   7   2   16.89    1.10
   4   7   2    0.63    0.60
   5   7   2    1.45    0.75
   7  -8  -2   29.99    1.68
   7  -8  -2   33.22    2.03
  -7   8   2   31.52    1.63
   6  -8  -2   18.58    1.53
   6  -8  -2   17.33    1.30
   6  -8  -2   18.10    1.41
  -6   8   2   16.81    1.18
   5  -8  -2   13.11    1.22
   5  -8  -2   13.55    1.20
   5  -8  -2   15.22    1.10
  -5   8   2   15.61    1.13
   4  -8  -2   -0.65    0.67
   4  -8  -2    0.81    0.87
   4  -8  -2   -0.41    0.75
  -4   8   2    0.50    0.74
  -4   8   2   -0.24    0.50
   3  -8  -2   40.96    1.72
   3  -8  -2   42.91    1.83
  -3   8   2   42.13    1.73
  -3   8   2   43.92    1.80
   2  -8  -2   18.58    0.64
   2  -8  -2   20.11    1.40
   2  -8  -2   18.57    1.38
  -2   8   2   17.65    1.06
  -2   8   2   18.88    1.26
   1  -8  -2   74.47    2.59
   1  -8  -2   72.46    2.36
  -1   8   2   72.87    2.41
  -1   8   2   70.65    2.42
   0  -8  -2  112.26    3.19
   0  -8  -2  115.73    3.28
   0  -8  -2  120.00    3.61
   0   8   2  112.07    3.39
   0   8   2  111.41    3.47
  -1  -8  -2   36.74    1.47
  -1  -8  -2   38.22    1.63
  -1  -8  -2   37.57    1.98
   1   8   2   37.90    1.60
   1   8   2   39.21    1.62
  -2  -8  -2   16.18    1.16
  -2  -8  -2   14.84    1.38
   2   8   2   15.81    1.20
   2   8   2   16.76    1.12
  -3  -8  -2    0.96    1.11
  -3  -8  -2    0.73    1.15
   3   8   2    0.67    0.64
   4   8   2   10.75    1.07
   7  -9  -2    3.42    1.09
   7  -9  -2    2.38    1.01
  -7   9   2    3.00    0.80
   6  -9  -2    0.51    0.87
   6  -9  -2    0.00    0.86
  -6   9   2    0.32    0.64
   5  -9  -2    7.21    1.13
   5  -9  -2    6.56    1.02
   5  -9  -2    6.01    0.96
  -5   9   2    5.70    0.95
  -5   9   2    5.88    0.85
   4  -9  -2   48.92    2.02
   4  -9  -2   49.71    2.14
   4  -9  -2   50.35    2.11
  -4   9   2   48.33    2.05
  -4   9   2   46.51    1.99
   3  -9  -2   80.39    2.69
   3  -9  -2   79.76    2.72
  -3   9   2   79.55    2.79
  -3   9   2   83.04    2.76
   2  -9  -2   80.89    2.80
   2  -9  -2   77.98    2.66
  -2   9   2   83.80    2.79
  -2   9   2   81.99    2.74
   1  -9  -2   28.60    1.77
   1  -9  -2   28.05    1.54
  -1   9   2   28.80    1.50
  -1   9   2   23.95    1.32
   0  -9  -2    1.85    1.10
   0  -9  -2    0.15    0.72
   0   9   2    0.52    0.72
   0   9   2    1.06    0.57
  -1  -9  -2   -0.28    0.75
  -1  -9  -2    1.09    1.17
   1   9   2    0.25    0.55
   1   9   2    0.14    0.74
  -2  -9  -2   30.33    2.04
   2   9   2   27.93    1.52
   2   9   2   30.22    1.66
   3   9   2   36.03    1.78
   6 -10  -2    9.48    1.22
  -6  10   2   10.88    1.11
   5 -10  -2   19.71    1.45
   5 -10  -2   20.32    1.52
  -5  10   2   20.95    1.55
  -5  10   2   19.94    1.43
   4 -10  -2   29.35    1.85
   4 -10  -2   27.25    1.69
  -4  10   2   27.38    1.66
  -4  10   2   25.65    1.52
   3 -10  -2   30.19    1.76
   3 -10  -2   25.49    1.69
  -3  10   2   26.47    1.60
  -3  10   2   26.34    1.50
   2 -10  -2   23.28    1.61
   2 -10  -2   20.47    1.62
  -2  10   2   20.02    1.46
  -2  10   2   19.44    1.28
   1 -10  -2    1.97    1.19
   1 -10  -2    3.61    0.93
  -1  10   2    3.33    0.71
  -1  10   2    2.65    0.86
   0 -10  -2   18.25    1.68
   0  10   2   15.99    1.28
   0  10   2   17.78    1.22
  -1 -10  -2   28.78    2.04
   1  10   2   26.30    1.58
   1  10   2   23.72    1.45
   2  10   2   46.15    2.02
   5 -11  -2   12.15    1.42
  -5  11   2   11.68    1.22
   4 -11  -2    1.14    1.09
  -4  11   2    0.95    0.95
  -4  11   2    1.38    0.76
   3 -11  -2   -0.67    1.08
  -3  11   2    0.36    0.66
  -3  11   2   -0.06    0.88
   2 -11  -2   23.61    1.77
  -2  11   2   21.68    1.44
  -2  11   2   23.31    1.61
   1 -11  -2   45.07    2.45
  -1  11   2   40.59    1.94
  -1  11   2   43.06    2.01
   0 -11  -2   32.59    2.24
   0  11   2   37.75    1.83
   1  11   2   16.80    1.32
   2 -12  -2   30.37    2.24
  -2  12   2   30.80    1.78
  -1  13  -3   16.85    1.54
   2  12  -3   -0.56    0.79
  -2 -12   3    1.10    1.04
   1  12  -3    8.24    1.17
  -1 -12   3    7.95    1.21
   0  12  -3   21.71    1.51
   0 -12   3   22.28    1.63
  -1  12  -3   24.23    1.59
   1 -12   3   23.24    1.62
  -2  12  -3   25.04    1.68
   2 -12   3   25.41    1.64
  -3  12  -3    6.21    1.06
  -4  12  -3    1.22    0.86
   3  11  -3    8.33    1.10
  -3 -11   3    9.92    1.38
   2  11  -3   30.99    1.74
  -2 -11   3   34.99    2.02
   1  11  -3   72.23    2.83
  -1 -11   3   71.99    2.88
   0  11  -3   31.76    1.75
   0 -11   3   29.59    1.77
   0 -11   3   30.93    1.77
  -1  11  -3   22.18    1.50
   1 -11   3   21.02    1.53
   1 -11   3   20.11    1.49
  -2  11  -3    0.56    0.70
   2 -11   3    0.37    0.78
   2 -11   3    0.61    0.91
  -3  11  -3   19.21    1.39
   3 -11   3   21.48    1.54
   3 -11   3   20.79    1.57
  -4  11  -3   31.18    1.74
   4 -11   3   28.23    1.70
  -5  11  -3   24.52    1.69
   5 -11   3   23.14    1.56
   4  10  -3   17.85    1.40
  -4 -10   3   20.23    1.75
   3  10  -3   25.32    1.55
  -3 -10   3   27.67    1.92
   2  10  -3   44.54    2.06
  -2 -10   3   48.72    2.31
   1  10  -3   12.25    1.14
  -1 -10   3   12.43    1.27
  -1 -10   3   11.69    1.20
   0  10  -3    1.75    0.69
   0  10  -3    1.49    0.89
   0 -10   3    2.11    0.82
   0 -10   3    1.77    0.91
  -1  10  -3    2.95    0.88
  -1  10  -3    3.91    0.83
   1 -10   3    3.61    0.88
   1 -10   3    1.40    0.90
   1 -10   3    3.85    1.13
  -2  10  -3   20.37    1.34
  -2  10  -3   23.29    1.63
   2 -10   3   22.94    1.39
   2 -10   3   20.18    1.54
  -3  10  -3   40.42    1.95
   3 -10   3   43.08    2.00
   3 -10   3   39.74    1.90
  -4  10  -3   40.54    2.00
   4 -10   3   43.47    2.15
   4 -10   3   42.06    1.95
  -5  10  -3   28.20    1.66
   5 -10   3   30.62    1.68
  -6  10  -3    1.12    0.89
   6 -10   3    2.78    0.92
   5   9  -3   45.04    2.17
  -5  -9   3   46.41    2.44
   4   9  -3   22.95    1.50
  -4  -9   3   20.60    1.72
   3   9  -3   34.33    1.73
  -3  -9   3   40.77    2.12
   2   9  -3    6.11    0.93
   2   9  -3    5.20    0.80
  -2  -9   3    5.65    1.01
   1   9  -3   19.66    1.36
   1   9  -3   19.04    1.27
  -1  -9   3   16.86    1.51
  -1  -9   3   20.80    1.35
  -1  -9   3   19.35    1.51
   0   9  -3   70.83    2.60
   0   9  -3   67.06    2.51
   0  -9   3   68.22    2.64
   0  -9   3   62.82    2.63
   0  -9   3   69.29    2.55
   0  -9   3   75.80    2.61
  -1   9  -3  140.64    4.27
  -1   9  -3  132.67    4.32
   1  -9   3  145.79    4.22
   1  -9   3  143.39    4.15
   1  -9   3  145.62    4.28
   1  -9   3  130.58    4.32
  -2   9  -3   77.73    2.79
  -2   9  -3   74.50    2.73
   2  -9   3   75.43    2.74
   2  -9   3   80.29    2.80
   2  -9   3   77.96    2.74
  -3   9  -3   42.24    1.88
  -3   9  -3   38.71    1.81
   3  -9   3   37.97    1.89
   3  -9   3   39.69    1.85
   3  -9   3   37.35    1.79
  -4   9  -3   19.22    1.28
   4  -9   3   20.72    1.57
   4  -9   3   17.20    1.32
  -5   9  -3    2.48    0.80
   5  -9   3    3.04    0.84
   5  -9   3    3.54    1.02
  -6   9  -3   21.78    1.59
   6  -9   3   24.27    1.57
   6   8  -3   31.32    1.84
  -6  -8   3   36.28    2.20
   5   8  -3    8.40    1.07
  -5  -8   3    9.31    1.33
   4   8  -3    0.62    0.67
  -4  -8   3   -0.13    0.81
   3   8  -3   19.63    1.34
   3   8  -3   21.34    1.26
  -3  -8   3   20.08    1.47
   2   8  -3   41.78    1.85
   2   8  -3   39.88    1.85
  -2  -8   3   46.54    2.16
  -2  -8   3   46.70    1.89
  -2  -8   3   48.06    2.22
   1   8  -3   43.81    1.88
   1   8  -3   47.54    1.95
   1   8  -3   49.54    1.94
  -1  -8   3   45.70    1.92
  -1  -8   3   47.10    2.00
  -1  -8   3   46.01    2.15
  -1  -8   3   46.43    2.35
   0   8  -3  105.79    3.03
   0   8  -3  112.27    3.27
   0   8  -3  104.39    3.42
   0   8  -3  108.60    3.41
   0  -8   3  108.54    3.43
   0  -8   3  104.31    3.31
   0  -8   3  110.40    3.38
   0  -8   3  107.21    3.56
  -1   8  -3   93.07    2.97
  -1   8  -3   88.32    3.01
  -1   8  -3   89.71    2.78
   1  -8   3   93.24    2.91
   1  -8   3   90.41    3.06
   1  -8   3   85.49    3.04
   1  -8   3   88.50    2.92
  -2   8  -3   13.06    1.17
  -2   8  -3   11.21    1.00
  -2   8  -3   12.94    1.17
   2  -8   3   10.88    1.17
   2  -8   3   12.00    1.09
   2  -8   3   13.27    1.24
   2  -8   3   11.52    1.25
  -3   8  -3   11.08    1.02
   3  -8   3   10.96    1.16
   3  -8   3    9.79    1.15
   3  -8   3   11.65    1.06
   3  -8   3   10.79    1.18
  -4   8  -3    6.22    0.88
   4  -8   3    7.39    1.02
   4  -8   3    6.28    0.88
   4  -8   3    7.35    1.02
  -5   8  -3   69.21    2.56
   5  -8   3   69.90    2.53
   5  -8   3   63.87    2.44
  -6   8  -3   46.15    2.18
   6  -8   3   49.75    2.14
  -7   8  -3   27.09    1.67
   7  -8   3   22.24    1.58
   6   7  -3    1.56    0.81
  -6  -7   3    1.49    0.96
   5   7  -3    7.11    0.94
  -5  -7   3    4.93    1.03
   4   7  -3   31.82    1.67
   4   7  -3   35.46    1.61
  -4  -7   3   34.10    1.86
   3   7  -3  204.92    5.45
   3   7  -3  200.47    5.93
   3   7  -3  207.46    5.74
  -3  -7   3  218.11    5.56
  -3  -7   3  208.03    5.64
  -3  -7   3  205.48    6.13
   2   7  -3   97.38    2.90
   2   7  -3   98.52    3.32
   2   7  -3   96.39    3.13
   2   7  -3   96.51    3.05
  -2  -7   3   96.71    3.27
  -2  -7   3  100.99    3.12
  -2  -7   3  101.13    3.02
  -2  -7   3   96.81    3.35
   1   7  -3   98.05    2.89
   1   7  -3   91.25    3.02
   1   7  -3   94.67    2.99
   1   7  -3   94.06    3.17
  -1  -7   3   98.22    2.89
  -1  -7   3   93.66    2.99
  -1  -7   3   96.95    3.22
  -1  -7   3   98.74    3.19
   0   7  -3   72.50    2.18
   0   7  -3   74.51    2.64
   0   7  -3   79.78    2.47
   0   7  -3   73.10    2.53
   0   7  -3   74.15    2.49
   0  -7   3   77.31    2.53
   0  -7   3   78.34    2.52
   0  -7   3   80.40    2.71
   0  -7   3   76.13    2.70
  -1   7  -3    1.38    0.75
  -1   7  -3   -0.47    0.49
  -1   7  -3   -0.29    0.63
  -1   7  -3   -0.08    0.76
   1  -7   3    1.04    0.88
   1  -7   3    1.07    0.80
   1  -7   3    0.17    0.74
   1  -7   3   -0.39    0.63
  -2   7  -3   76.83    2.57
  -2   7  -3   77.98    2.49
  -2   7  -3   74.79    2.61
   2  -7   3   80.72    2.60
   2  -7   3   80.18    2.61
   2  -7   3   77.72    2.56
   2  -7   3   73.22    2.58
  -3   7  -3  176.17    5.27
  -3   7  -3  184.61    4.94
   3  -7   3  179.30    5.25
   3  -7   3  181.24    4.96
   3  -7   3  181.63    5.11
   3  -7   3  182.13    4.88
  -4   7  -3   84.45    2.91
   4  -7   3   84.22    2.75
   4  -7   3   92.98    2.63
   4  -7   3   85.64    2.91
   4  -7   3   86.14    2.93
  -5   7  -3   25.89    1.49
   5  -7   3   29.68    1.66
   5  -7   3   26.65    1.40
   5  -7   3   29.19    1.49
  -6   7  -3   11.19    1.11
   6  -7   3   13.82    1.20
  -7   7  -3   -0.21    0.72
   7  -7   3   -0.17    0.79
   7   6  -3   10.66    1.19
  -7  -6   3    8.63    1.25
   6   6  -3   24.99    1.49
  -6  -6   3   20.99    1.55
   5   6  -3   35.31    1.61
   5   6  -3   30.61    1.58
  -5  -6   3   31.90    1.78
   4   6  -3  101.45    3.18
   4   6  -3   98.87    3.26
   4   6  -3   99.98    3.27
  -4  -6   3  100.03    3.42
  -4  -6   3  108.64    3.09
   3   6  -3  104.62    3.28
   3   6  -3  112.39    3.47
   3   6  -3  106.07    3.37
  -3  -6   3  109.67    3.53
  -3  -6   3  111.74    3.16
   2   6  -3    6.67    0.77
   2   6  -3    5.93    0.67
   2   6  -3    7.33    1.08
  -2  -6   3    6.07    0.88
  -2  -6   3    7.51    0.81
  -2  -6   3    6.55    0.87
   1   6  -3   10.31    1.05
   1   6  -3    9.08    0.82
   1   6  -3    8.97    0.76
  -1  -6   3    9.89    0.89
  -1  -6   3    8.21    0.83
  -1  -6   3   11.75    0.90
  -1  -6   3   12.11    1.05
   0   6  -3   45.81    1.88
   0   6  -3   47.10    1.76
   0   6  -3   46.97    1.74
   0  -6   3   46.02    1.84
   0  -6   3   45.26    1.68
   0  -6   3   47.03    1.84
   0  -6   3   46.84    1.73
  -1   6  -3  110.50    3.26
  -1   6  -3  116.07    3.48
  -1   6  -3  118.27    3.39
   1  -6   3  117.89    3.30
   1  -6   3  114.50    3.37
   1  -6   3  113.20    3.52
   1  -6   3  119.50    3.26
  -2   6  -3  144.29    4.06
  -2   6  -3  155.28    4.30
  -2   6  -3  156.36    4.44
  -2   6  -3  149.24    4.09
   2  -6   3  153.67    4.44
   2  -6   3  151.06    4.10
   2  -6   3  152.37    4.13
   2  -6   3  153.90    4.28
  -3   6  -3  188.15    4.96
  -3   6  -3  184.59    5.36
  -3   6  -3  185.09    4.90
   3  -6   3  188.99    5.03
   3  -6   3  191.69    5.35
   3  -6   3  187.66    5.17
   3  -6   3  178.23    4.98
   3  -6   3  190.34    4.93
  -4   6  -3   25.35    1.47
  -4   6  -3   23.82    1.34
   4  -6   3   25.88    1.35
   4  -6   3   24.66    1.56
   4  -6   3   24.61    1.53
   4  -6   3   26.21    1.38
  -5   6  -3    1.52    0.62
   5  -6   3    2.16    0.65
   5  -6   3    1.06    0.76
  -6   6  -3    0.42    0.63
   6  -6   3   -0.08    0.67
  -7   6  -3   18.50    1.38
   7  -6   3   17.11    1.29
   7   5  -3   59.97    2.39
  -7  -5   3   57.84    2.58
   6   5  -3   46.22    1.96
  -6  -5   3   45.76    2.13
   5   5  -3   67.67    2.37
   5   5  -3   69.42    2.30
   5   5  -3   67.15    2.41
  -5  -5   3   65.33    2.55
   4   5  -3   61.43    2.17
   4   5  -3   60.67    2.06
   4   5  -3   62.49    2.20
   4   5  -3   63.18    2.33
  -4  -5   3   60.56    2.35
  -4  -5   3   65.55    2.41
  -4  -5   3   62.40    2.10
   3   5  -3    6.21    0.90
   3   5  -3    3.84    0.68
   3   5  -3    5.05    0.74
   3   5  -3    4.93    0.62
  -3  -5   3    4.18    0.76
  -3  -5   3    5.57    0.93
  -3  -5   3    4.42    0.69
  -3  -5   3    5.52    0.90
   2   5  -3   50.96    1.78
   2   5  -3   50.22    1.79
   2   5  -3   52.62    1.99
   2   5  -3   54.28    1.73
  -2  -5   3   50.44    1.92
  -2  -5   3   50.76    1.82
  -2  -5   3   51.34    1.76
   1   5  -3  495.52   13.11
   1   5  -3  494.34   12.03
   1   5  -3  496.09   12.56
   1   5  -3  496.39   12.19
  -1  -5   3  504.15   13.25
  -1  -5   3  500.07   12.57
  -1  -5   3  501.69   12.04
   0   5  -3  378.86   10.09
   0   5  -3  391.57    9.80
   0   5  -3  380.54    9.38
   0   5  -3  370.44    9.25
   0   5  -3  377.19    9.68
   0  -5   3  384.98    9.69
   0  -5   3  378.10    9.28
   0  -5   3  373.82   10.18
  -1   5  -3  147.11    4.04
  -1   5  -3  155.09    4.33
  -1   5  -3  153.99    4.18
   1  -5   3  153.13    4.38
   1  -5   3  153.97    4.19
   1  -5   3  147.46    3.99
  -2   5  -3  135.76    3.55
  -2   5  -3  131.61    3.81
   2  -5   3  115.55    3.43
   2  -5   3  137.23    3.73
   2  -5   3  133.69    3.83
   2  -5   3  134.04    3.58
  -3   5  -3    4.82    0.66
  -3   5  -3    3.98    0.57
   3  -5   3    3.67    0.52
   3  -5   3    4.32    0.82
   3  -5   3    3.55    0.64
   3  -5   3    3.96    0.70
  -4   5  -3   55.75    1.92
  -4   5  -3   57.09    2.08
  -4   5  -3   52.71    2.00
   4  -5   3   55.27    1.83
   4  -5   3   53.58    2.00
   4  -5   3   54.45    2.02
   4  -5   3   52.86    2.06
  -5   5  -3   35.17    1.63
   5  -5   3   35.31    1.57
   5  -5   3   36.73    1.68
  -6   5  -3   29.48    1.57
   6  -5   3   30.02    1.50
  -7   5  -3    9.50    1.08
   7  -5   3    8.54    1.07
   8   4  -3   24.36    1.58
  -8  -4   3   26.33    1.82
   7   4  -3   12.78    1.12
  -7  -4   3   14.58    1.30
   6   4  -3    6.98    0.85
   6   4  -3    7.24    0.92
  -6  -4   3    5.77    0.88
   5   4  -3   -0.36    0.72
   5   4  -3   -0.60    0.51
   5   4  -3    1.05    0.94
   5   4  -3    0.66    0.74
  -5  -4   3   -1.09    0.98
  -5  -4   3   -0.97    0.61
   4   4  -3   22.51    1.42
   4   4  -3   23.56    1.27
   4   4  -3   28.16    1.21
   4   4  -3   23.71    1.20
  -4  -4   3   27.77    1.67
  -4  -4   3   24.02    1.34
   3   4  -3   64.15    1.95
   3   4  -3   67.09    2.11
   3   4  -3   64.03    2.08
   3   4  -3   62.54    2.03
  -3  -4   3   63.01    2.16
  -3  -4   3   62.79    1.95
  -3  -4   3   64.43    2.18
  -3  -4   3   63.75    2.20
   2   4  -3  197.09    5.02
   2   4  -3  197.12    5.22
   2   4  -3  199.57    5.13
   2   4  -3  198.57    5.45
  -2  -4   3  209.83    5.48
  -2  -4   3  195.18    5.00
  -2  -4   3  201.87    5.55
  -2  -4   3  188.94    5.09
   1   4  -3  653.78   17.06
   1   4  -3  663.16   17.52
   1   4  -3  694.98   17.61
   1   4  -3  677.50   16.23
   1   4  -3  671.62   16.35
  -1  -4   3  691.39   18.09
  -1  -4   3  705.86   17.55
  -1  -4   3  658.20   16.19
  -1  -4   3  665.18   16.09
   0   4  -3  120.80    3.16
   0   4  -3  119.23    3.29
   0   4  -3  122.31    3.51
   0   4  -3  118.77    3.42
   0   4  -3  116.61    3.16
   0   4  -3  114.54    3.26
   0  -4   3  121.67    3.52
   0  -4   3  114.84    3.27
   0  -4   3  124.75    3.43
   0  -4   3  121.92    3.19
  -1   4  -3    8.50    0.66
  -1   4  -3    8.50    0.66
  -1   4  -3    8.59    0.61
  -1   4  -3   10.61    0.74
  -1   4  -3    7.80    0.65
   1  -4   3    7.96    0.62
   1  -4   3    8.48    0.65
   1  -4   3    7.34    0.66
   1  -4   3    8.43    0.66
  -2   4  -3    4.77    0.58
  -2   4  -3    6.23    0.61
  -2   4  -3    4.27    0.49
   2  -4   3    4.77    0.56
   2  -4   3    6.87    0.66
   2  -4   3    4.80    0.58
  -3   4  -3   56.26    1.74
  -3   4  -3   53.98    1.87
  -3   4  -3   53.46    1.72
   3  -4   3   57.10    1.94
   3  -4   3   53.76    1.85
   3  -4   3   56.43    1.91
  -4   4  -3   70.51    2.12
  -4   4  -3   66.65    2.28
   4  -4   3   68.39    2.30
   4  -4   3   68.12    2.29
  -6   4  -3   32.17    1.59
   6  -4   3   35.11    1.60
  -7   4  -3    9.61    1.11
  -7   4  -3    9.77    1.10
   7  -4   3   11.36    1.15
   8   3  -3    5.11    0.91
  -8  -3   3    6.29    1.05
   7   3  -3    0.27    0.65
  -7  -3   3    1.60    0.71
   6   3  -3    3.81    0.78
   6   3  -3    3.42    0.67
   6   3  -3    3.62    0.73
  -6  -3   3    2.80    0.73
   5   3  -3  223.69    5.68
   5   3  -3  228.16    5.77
   5   3  -3  216.31    6.12
   5   3  -3  215.81    5.89
  -5  -3   3  215.68    5.80
  -5  -3   3  219.12    6.22
   4   3  -3  215.73    5.79
   4   3  -3  224.76    5.65
   4   3  -3  223.39    6.04
   4   3  -3  219.90    5.57
  -4  -3   3  216.70    5.66
  -4  -3   3  218.33    6.11
   3   3  -3  264.92    7.01
   3   3  -3  264.96    6.52
   3   3  -3  262.47    6.46
   3   3  -3  257.07    6.71
  -3  -3   3  256.44    6.51
  -3  -3   3  264.97    6.44
  -3  -3   3  255.94    7.05
   2   3  -3  201.72    5.08
   2   3  -3  204.16    5.04
   2   3  -3  197.33    5.45
   2   3  -3  213.05    5.48
   2   3  -3  198.32    5.23
  -2  -3   3  200.60    5.50
  -2  -3   3  197.00    5.08
  -2  -3   3  207.62    5.47
  -2  -3   3  197.35    5.25
  -2  -3   3  202.81    5.01
   1   3  -3   28.23    1.05
   1   3  -3   26.01    1.14
   1   3  -3   26.88    1.02
   1   3  -3   25.59    1.03
   1   3  -3   27.15    1.05
   1   3  -3   28.53    1.09
  -1  -3   3   27.89    1.12
  -1  -3   3   27.29    1.21
  -1  -3   3   27.76    1.12
  -1  -3   3   27.60    1.07
  -1  -3   3   28.91    1.06
   0   3  -3   55.59    1.78
   0   3  -3   54.82    1.65
   0   3  -3   53.03    1.55
   0   3  -3   53.55    1.66
   0   3  -3   52.51    1.68
   0   3  -3   53.19    1.68
   0  -3   3   53.08    1.75
   0  -3   3   55.26    1.68
   0  -3   3   55.61    1.56
   0  -3   3   53.63    1.59
   0  -3   3   56.24    1.69
   0  -3   3   53.41    1.81
  -1   3  -3  174.37    4.56
  -1   3  -3  165.43    4.21
  -1   3  -3  160.54    4.17
   1  -3   3  160.22    4.18
   1  -3   3  165.98    4.41
   1  -3   3  170.18    4.21
   1  -3   3  166.55    4.51
  -2   3  -3  266.54    6.60
  -2   3  -3  255.61    7.13
  -2   3  -3  266.82    6.58
   2  -3   3  277.30    7.14
   2  -3   3  264.92    6.59
   2  -3   3  268.94    7.16
   2  -3   3  274.13    6.59
  -3   3  -3   54.62    1.74
  -3   3  -3   55.75    1.80
  -3   3  -3   55.28    1.86
   3  -3   3   57.67    1.88
   3  -3   3   54.54    1.84
   3  -3   3   56.50    1.73
  -4   3  -3   71.81    2.39
  -4   3  -3   74.10    2.25
  -4   3  -3   75.07    2.36
   4  -3   3   75.88    2.37
   4  -3   3   71.65    2.39
   4  -3   3   74.76    2.24
  -5   3  -3   39.43    1.63
  -5   3  -3   40.47    1.58
  -5   3  -3   36.12    1.60
   5  -3   3   40.83    1.58
   5  -3   3   37.77    1.60
  -6   3  -3   12.81    1.08
  -6   3  -3   10.10    1.01
   6  -3   3   12.34    1.07
  -7   3  -3   14.51    1.25
   7  -3   3   12.34    1.18
  -8   3  -3   13.41    1.35
   8  -3   3   12.07    1.28
   8   2  -3   21.97    1.40
  -8  -2   3   18.37    1.39
   7   2  -3   22.83    1.37
   7   2  -3   24.53    1.34
  -7  -2   3   23.36    1.38
   6   2  -3   95.35    2.88
   6   2  -3   97.32    2.92
   6   2  -3   92.65    2.85
   6   2  -3   88.20    2.91
   6   2  -3   89.40    2.75
  -6  -2   3   85.87    3.00
   5   2  -3  192.21    4.93
   5   2  -3  187.84    5.02
   5   2  -3  183.73    5.22
   5   2  -3  191.24    4.93
   5   2  -3  185.41    4.85
  -5  -2   3  182.76    5.30
  -5  -2   3  184.52    4.95
   4   2  -3   48.43    1.60
   4   2  -3   48.02    1.62
   4   2  -3   50.00    1.65
   4   2  -3   48.37    1.70
   4   2  -3   48.26    1.67
  -4  -2   3   48.03    1.71
  -4  -2   3   47.38    1.72
   3   2  -3   15.14    0.78
   3   2  -3   17.36    0.89
   3   2  -3   16.21    0.74
   3   2  -3   16.38    0.83
   3   2  -3   16.75    0.86
  -3  -2   3   18.38    0.79
  -3  -2   3   14.92    0.95
  -3  -2   3   16.46    0.82
   2   2  -3   38.63    1.27
   2   2  -3   38.10    1.26
   2   2  -3   40.13    1.26
   2   2  -3   37.85    1.24
   2   2  -3   38.52    1.25
  -2  -2   3   39.80    1.31
  -2  -2   3   38.68    1.27
  -2  -2   3   39.44    1.22
  -2  -2   3   39.14    1.30
  -2  -2   3   38.36    1.28
   1   2  -3    5.19    0.44
   1   2  -3    5.68    0.42
   1   2  -3    4.28    0.49
   1   2  -3    4.74    0.47
   1   2  -3    5.39    0.42
   1   2  -3    5.14    0.54
  -1  -2   3    4.82    0.52
  -1  -2   3    4.75    0.46
  -1  -2   3    5.80    0.49
  -1  -2   3    6.17    0.52
  -1  -2   3    5.66    0.44
   0   2  -3   52.98    1.63
   0   2  -3   53.18    1.70
   0   2  -3   53.91    1.51
   0   2  -3   53.19    1.57
   0   2  -3   52.67    1.63
   0  -2   3   56.52    1.53
   0  -2   3   52.53    1.68
   0  -2   3   54.71    1.58
   0  -2   3   53.16    1.71
   0  -2   3   56.65    1.61
   0  -2   3   53.85    1.59
  -1   2  -3  412.47   10.36
  -1   2  -3  393.45   10.49
  -1   2  -3  391.92    9.51
  -1   2  -3  396.64    9.52
   1  -2   3  393.83    9.49
   1  -2   3  401.36   10.32
   1  -2   3  391.03   10.36
   1  -2   3  395.99    9.52
  -2   2  -3  200.15    4.98
  -2   2  -3  208.33    5.42
  -2   2  -3  200.55    5.40
  -2   2  -3  194.40    5.00
   2  -2   3  195.71    5.41
   2  -2   3  205.51    4.98
   2  -2   3  200.93    4.99
  -3   2  -3   83.10    2.48
  -3   2  -3   78.57    2.28
  -3   2  -3   81.28    2.36
   3  -2   3   78.40    2.46
   3  -2   3   84.47    2.42
   3  -2   3   83.45    2.29
  -4   2  -3   15.40    0.99
  -4   2  -3   16.70    1.01
  -4   2  -3   14.95    1.07
  -4   2  -3   13.48    0.96
   4  -2   3   14.25    1.03
   4  -2   3   12.67    0.87
  -5   2  -3   31.00    1.52
  -5   2  -3   33.60    1.74
  -5   2  -3   33.14    1.39
  -5   2  -3   29.97    1.49
   5  -2   3   31.24    1.46
  -6   2  -3   61.42    2.37
   6  -2   3   62.42    2.30
  -7   2  -3   74.31    2.80
   7  -2   3   75.73    2.75
  -9  -1   3   23.17    1.67
   8   1  -3   62.49    2.31
  -8  -1   3   55.90    2.40
   7   1  -3   97.34    2.98
   7   1  -3   92.82    2.81
   7   1  -3   90.34    2.87
  -7  -1   3   82.03    2.99
   6   1  -3  107.09    3.11
   6   1  -3  102.64    2.96
   6   1  -3   98.35    3.11
   6   1  -3  101.59    3.03
  -6  -1   3   98.82    3.22
   5   1  -3    4.14    0.64
   5   1  -3    3.97    0.64
   5   1  -3    4.18    0.55
   5   1  -3    4.40    0.80
  -5  -1   3    4.01    0.56
   4   1  -3   13.99    0.78
   4   1  -3   14.64    0.78
   4   1  -3   15.88    1.03
   4   1  -3   14.42    0.81
  -4  -1   3   14.15    0.92
  -4  -1   3   16.66    0.79
  -4  -1   3   15.36    0.78
   3   1  -3  370.64    8.96
   3   1  -3  377.80    8.98
   3   1  -3  373.45    9.73
   3   1  -3  388.39    9.71
   3   1  -3  356.92    9.30
  -3  -1   3  367.29    9.74
  -3  -1   3  385.40    9.76
  -3  -1   3  367.78    8.94
   2   1  -3  445.46   10.55
   2   1  -3  437.35   11.32
   2   1  -3  433.73   11.41
   2   1  -3  441.07   10.53
   2   1  -3  444.69   11.39
   2   1  -3  418.93   10.85
   2   1  -3  429.12   11.31
   2   1  -3  418.18   10.39
  -2  -1   3  424.71   11.03
  -2  -1   3  434.82   11.32
  -2  -1   3  422.82   10.34
  -2  -1   3  425.04   10.29
  -2  -1   3  443.13   11.48
   1   1  -3   58.94    1.59
   1   1  -3   58.08    1.84
   1   1  -3   60.91    1.60
   1   1  -3   59.46    1.60
  -1  -1   3   59.83    1.64
  -1  -1   3   59.75    1.66
  -1  -1   3   56.35    1.52
  -1  -1   3   59.32    1.51
  -1  -1   3   59.60    1.68
  -1  -1   3   61.39    1.85
   0   1  -3   74.46    2.02
   0   1  -3   77.75    2.06
   0   1  -3   73.68    2.28
   0   1  -3   78.22    2.15
   0   1  -3   76.22    1.95
   0  -1   3   75.91    1.93
   0  -1   3   75.51    2.03
   0  -1   3   77.82    2.18
   0  -1   3   79.19    2.08
   0  -1   3   78.91    2.25
  -1   1  -3  101.91    2.71
  -1   1  -3  106.53    2.90
  -1   1  -3  104.12    2.70
  -1   1  -3  108.14    2.92
   1  -1   3  113.73    2.95
   1  -1   3  108.43    2.91
   1  -1   3  103.64    2.71
   1  -1   3  105.49    2.71
  -2   1  -3    0.33    0.42
  -2   1  -3    0.43    0.28
  -2   1  -3    0.56    0.31
  -2   1  -3    0.40    0.33
  -2   1  -3    0.31    0.31
   2  -1   3    0.37    0.28
   2  -1   3    0.60    0.35
   2  -1   3    0.30    0.24
   2  -1   3    0.82    0.44
  -3   1  -3   44.42    1.53
  -3   1  -3   43.69    1.56
  -3   1  -3   43.85    1.45
  -3   1  -3   43.00    1.60
   3  -1   3   48.33    1.44
   3  -1   3   45.79    1.55
  -4   1  -3  133.82    3.64
  -4   1  -3  140.59    3.82
  -4   1  -3  136.70    4.01
   4  -1   3  141.77    3.68
   4  -1   3  132.84    3.97
  -5   1  -3   82.33    2.84
  -5   1  -3   84.68    2.61
  -5   1  -3   87.09    2.78
   5  -1   3   86.74    2.78
  -6   1  -3   23.90    1.40
   6  -1   3   26.86    1.37
  -7   1  -3   18.98    1.39
   7  -1   3   18.79    1.30
  -9   0   3   19.34    1.53
   8   0  -3   28.35    1.48
  -8   0   3   28.61    1.53
   7   0  -3    6.82    0.78
   7   0  -3    8.31    0.84
   7   0  -3    8.53    0.86
  -7   0   3    7.26    0.83
   6   0  -3   28.37    1.61
   6   0  -3   25.13    1.23
   6   0  -3   24.76    1.20
   6   0  -3   24.95    1.24
  -6   0   3   24.77    1.23
   5   0  -3   41.21    1.46
   5   0  -3   42.56    1.57
   5   0  -3   41.83    1.44
   5   0  -3   41.65    1.45
  -5   0   3   40.31    1.53
   4   0  -3   57.12    1.73
   4   0  -3   57.30    1.75
   4   0  -3   59.25    1.81
   4   0  -3   61.51    1.83
   4   0  -3   61.41    1.80
  -4   0   3   63.41    1.87
  -4   0   3   58.98    1.84
   3   0  -3  484.34   11.91
   3   0  -3  485.89   12.82
   3   0  -3  478.44   13.05
   3   0  -3  473.65   12.31
   3   0  -3  495.46   12.81
   3   0  -3  493.27   11.88
  -3   0   3  500.47   13.13
  -3   0   3  509.33   12.70
  -3   0   3  498.37   13.10
   2   0  -3   90.93    2.26
   2   0  -3   89.62    2.24
   2   0  -3   88.82    2.71
  -2   0   3   91.33    2.35
  -2   0   3   91.38    2.44
  -2   0   3   92.44    2.41
   1   0  -3  191.78    5.25
  -1   0   3  194.91    5.25
   0   0  -3   11.62    0.53
   0   0  -3   10.12    0.47
   0   0   3   11.64    0.41
   0   0   3   11.54    0.51
   0   0   3   11.08    0.82
   0   0   3   10.43    0.41
  -1   0  -3   26.93    0.87
  -1   0  -3   28.84    0.92
  -1   0  -3   28.97    0.93
  -1   0  -3   27.97    0.99
   1   0   3   27.96    0.89
   1   0   3   26.36    0.93
   1   0   3   29.26    0.93
  -2   0  -3  120.85    3.15
  -2   0  -3  125.90    3.40
  -2   0  -3  120.76    3.20
  -2   0  -3  120.83    3.42
   2   0   3  126.16    3.14
   2   0   3  129.94    3.43
   2   0   3  119.72    3.41
  -3   0  -3  361.76    8.92
  -3   0  -3  367.93    9.73
  -3   0  -3  368.72    8.99
   3   0   3  360.58    9.71
   3   0   3  378.29    8.91
  -4   0  -3  143.61    3.93
  -4   0  -3  141.50    4.18
  -4   0  -3  141.64    3.81
   4   0   3  143.72    4.16
   4   0   3  147.68    3.82
  -5   0  -3   21.16    1.33
  -5   0  -3   24.45    1.25
  -5   0  -3   26.68    1.62
   5   0   3   20.80    1.21
  -6   0  -3    4.84    0.85
   6   0   3    5.09    0.82
  -7   0  -3    1.40    0.86
   7   0   3    2.58    0.84
  -9   1   3    1.88    0.83
   8  -1  -3    0.82    0.72
   8  -1  -3    0.12    0.60
  -8   1   3    0.21    0.64
   7  -1  -3   40.81    1.87
   7  -1  -3   40.27    1.62
   7  -1  -3   39.68    1.60
   7  -1  -3   40.95    1.65
  -7   1   3   37.86    1.68
   6  -1  -3  126.79    3.57
   6  -1  -3  129.38    3.73
   6  -1  -3  128.84    3.66
   6  -1  -3  131.83    3.52
  -6   1   3  129.91    3.81
  -6   1   3  126.35    3.82
   5  -1  -3  167.63    4.53
   5  -1  -3  161.37    4.24
   5  -1  -3  168.74    4.33
   5  -1  -3  164.15    4.34
  -5   1   3  166.16    4.61
  -5   1   3  162.15    4.59
   4  -1  -3  157.70    4.71
   4  -1  -3  156.81    3.97
   4  -1  -3  154.25    3.92
   4  -1  -3  157.80    4.19
   4  -1  -3  150.85    4.01
   4  -1  -3  158.69    4.19
  -4   1   3  159.01    4.25
  -4   1   3  155.19    4.26
   3  -1  -3  138.92    4.14
   3  -1  -3  142.57    3.50
   3  -1  -3  139.93    3.51
   3  -1  -3  141.85    3.70
  -3   1   3  147.10    3.79
  -3   1   3  142.95    3.79
   2  -1  -3    4.35    0.56
  -2   1   3    4.10    0.19
  -1   1   3  113.26    3.28
   0  -1  -3  884.81   21.40
   0  -1  -3  906.18   21.49
   0   1   3  902.87   23.26
   0   1   3  910.50   23.33
  -1  -1  -3  193.79    4.83
  -1  -1  -3  198.04    5.25
  -1  -1  -3  194.21    4.87
  -1  -1  -3  205.23    5.22
   1   1   3  199.64    5.26
   1   1   3  206.39    5.29
  -2  -1  -3   83.35    2.53
  -2  -1  -3   90.95    2.49
  -2  -1  -3   85.19    2.32
  -2  -1  -3   84.69    2.38
   2   1   3   90.26    2.55
   2   1   3   91.35    2.55
   2   1   3   85.56    2.52
  -3  -1  -3   76.81    2.16
  -3  -1  -3   71.49    2.25
  -3  -1  -3   73.74    2.34
   3   1   3   75.61    2.32
  -4  -1  -3    0.13    0.56
  -4  -1  -3   -0.11    0.51
  -4  -1  -3    1.40    0.85
   4   1   3    0.54    0.45
  -5  -1  -3    9.33    1.02
  -5  -1  -3    8.47    0.93
   5   1   3    8.06    0.81
  -6  -1  -3   16.28    1.24
   6   1   3   13.84    1.15
  -7  -1  -3   13.04    1.31
   7   1   3   10.92    1.16
  -9   2   3    6.79    1.01
   8  -2  -3   17.11    1.21
   8  -2  -3   18.42    1.20
   8  -2  -3   17.57    1.19
  -8   2   3   16.74    1.23
   7  -2  -3   53.04    2.04
   7  -2  -3   52.74    1.87
   7  -2  -3   53.68    1.84
   7  -2  -3   47.95    1.77
  -7   2   3   49.81    1.93
  -7   2   3   47.68    1.93
   6  -2  -3   39.27    1.41
   6  -2  -3   35.17    1.38
   6  -2  -3   39.33    1.48
   6  -2  -3   37.87    1.59
   6  -2  -3   34.79    1.40
  -6   2   3   34.47    1.46
   5  -2  -3   64.09    2.02
   5  -2  -3   70.64    2.08
   5  -2  -3   65.11    2.65
   5  -2  -3   72.02    2.04
   5  -2  -3   69.81    2.01
   5  -2  -3   69.77    2.13
  -5   2   3   73.92    2.17
  -5   2   3   68.60    2.15
   4  -2  -3   15.13    0.58
   4  -2  -3   13.89    0.85
   4  -2  -3   14.69    0.64
   4  -2  -3   13.69    0.64
   4  -2  -3   13.18    0.58
   4  -2  -3   14.42    0.69
  -4   2   3   14.72    0.70
  -4   2   3   14.03    0.68
   3  -2  -3    3.02    0.63
   3  -2  -3    2.99    0.30
   3  -2  -3    2.82    0.38
  -3   2   3    2.18    0.26
  -3   2   3    2.66    0.26
   2  -2  -3   56.13    1.91
   1  -2  -3  647.18   16.94
   0  -2  -3  584.45   14.28
   0  -2  -3  601.13   14.50
   0   2   3  610.32   15.52
   0   2   3  593.35   15.59
  -1  -2  -3  202.39    5.12
  -1  -2  -3  205.56    5.12
  -1  -2  -3  208.01    5.06
  -1  -2  -3  205.16    5.50
  -1  -2  -3  213.08    5.43
   1   2   3  212.18    5.55
   1   2   3  210.12    5.50
  -2  -2  -3   18.77    0.89
  -2  -2  -3   17.62    0.81
  -2  -2  -3   17.69    1.06
   2   2   3   17.79    0.83
   2   2   3   18.78    0.89
  -3  -2  -3   53.30    1.73
  -3  -2  -3   53.57    1.93
  -3  -2  -3   57.91    2.02
   3   2   3   55.55    1.83
  -4  -2  -3   38.66    1.47
  -4  -2  -3   36.92    1.65
  -4  -2  -3   38.09    1.88
   4   2   3   37.89    1.54
  -5  -2  -3   62.56    2.36
  -5  -2  -3   67.10    2.43
   5   2   3   58.59    2.25
  -6  -2  -3   54.20    2.26
   6   2   3   48.46    2.09
  -7  -2  -3   11.16    1.27
   7   2   3    7.80    1.08
   9  -3  -3   32.43    2.30
  -9   3   3   33.06    1.71
   8  -3  -3   21.60    1.22
   8  -3  -3   24.07    1.43
   8  -3  -3   25.23    1.99
  -8   3   3   22.84    1.37
  -8   3   3   21.81    1.34
   7  -3  -3    3.20    0.86
   7  -3  -3    2.43    1.14
   7  -3  -3    3.29    0.73
   7  -3  -3    3.46    0.57
  -7   3   3    2.88    0.64
   6  -3  -3   12.82    1.33
   6  -3  -3   12.16    0.80
   6  -3  -3   11.73    0.88
   6  -3  -3   12.82    0.91
   6  -3  -3   10.79    0.99
  -6   3   3   11.02    0.84
   5  -3  -3   15.29    0.94
   5  -3  -3   17.22    0.76
   5  -3  -3   16.98    1.33
   5  -3  -3   15.56    0.77
   5  -3  -3   16.25    1.18
   5  -3  -3   16.51    0.86
  -5   3   3   16.12    0.85
  -5   3   3   17.84    0.89
   4  -3  -3  211.63    5.30
   4  -3  -3  203.61    5.10
   4  -3  -3  205.29    5.89
   4  -3  -3  199.67    5.03
  -4   3   3  212.23    5.48
  -4   3   3  197.46    5.48
   3  -3  -3  230.55    5.59
   3  -3  -3  232.58    5.66
   3  -3  -3  228.10    6.47
  -3   3   3  231.29    6.13
  -3   3   3  234.30    5.88
  -3   3   3  240.47    6.08
   2  -3  -3  231.84    5.55
   2  -3  -3  238.36    6.43
   2  -3  -3  231.66    5.55
  -2   3   3  229.71    6.03
  -2   3   3  239.41    6.01
  -2   3   3  229.32    5.76
   1  -3  -3  320.48    8.86
   1  -3  -3  324.22    7.84
   1  -3  -3  329.74    7.90
  -1   3   3  334.00    8.52
  -1   3   3  338.04    8.49
   0  -3  -3    4.35    0.54
   0  -3  -3    3.38    0.31
   0   3   3    3.54    0.42
   0   3   3    2.95    0.28
  -1  -3  -3   42.48    1.25
  -1  -3  -3   41.81    1.26
  -1  -3  -3   40.66    1.37
  -1  -3  -3   42.79    1.43
   1   3   3   43.38    1.44
   1   3   3   42.26    1.35
  -2  -3  -3  140.05    3.79
  -2  -3  -3  140.46    4.00
  -2  -3  -3  145.90    3.66
   2   3   3  144.98    4.03
   2   3   3  136.54    3.95
  -3  -3  -3   66.47    2.07
  -3  -3  -3   68.87    2.26
  -3  -3  -3   67.63    2.27
   3   3   3   66.50    2.18
  -4  -3  -3   24.13    1.51
  -4  -3  -3   24.18    1.39
  -4  -3  -3   27.88    1.31
   4   3   3   24.19    1.21
  -5  -3  -3   57.55    2.22
  -5  -3  -3   55.13    2.31
   5   3   3   49.98    2.06
  -6  -3  -3    8.40    1.13
   6   3   3   10.02    1.02
   9  -4  -3    9.78    1.63
  -9   4   3    9.68    1.08
  -9   4   3   10.41    1.13
   8  -4  -3    0.19    0.76
   8  -4  -3    0.68    1.19
  -8   4   3    0.80    0.63
   7  -4  -3    6.83    0.82
   7  -4  -3    6.99    1.27
   7  -4  -3    7.26    0.97
  -7   4   3    6.29    0.73
   6  -4  -3   15.71    1.10
   6  -4  -3   13.76    0.92
   6  -4  -3   15.67    0.81
   6  -4  -3   14.60    1.36
   6  -4  -3   15.00    1.01
  -6   4   3   15.38    0.93
   5  -4  -3  152.88    3.96
   5  -4  -3  145.24    3.90
   5  -4  -3  142.08    3.80
   5  -4  -3  149.78    4.62
   5  -4  -3  145.71    3.74
   5  -4  -3  142.97    3.70
  -5   4   3  152.28    4.12
  -5   4   3  140.99    4.12
   4  -4  -3  158.02    4.03
   4  -4  -3  156.26    3.93
   4  -4  -3  154.29    4.67
  -4   4   3  149.62    4.27
  -4   4   3  159.86    4.24
   3  -4  -3  229.48    5.54
   3  -4  -3  222.23    5.44
   3  -4  -3  227.99    6.32
  -3   4   3  231.55    5.91
  -3   4   3  221.82    5.74
  -3   4   3  215.52    5.97
   2  -4  -3    8.98    0.58
   2  -4  -3    8.83    0.49
   2  -4  -3    8.76    0.81
  -2   4   3    9.24    0.47
  -2   4   3    8.81    0.48
  -2   4   3    8.53    0.56
   1  -4  -3   19.54    0.73
   1  -4  -3   21.05    0.87
  -1   4   3   21.73    0.86
  -1   4   3   20.03    0.72
   0  -4  -3   15.39    0.97
   0  -4  -3   13.82    0.66
   0   4   3   14.92    0.87
   0   4   3   13.76    0.63
  -1  -4  -3  107.19    3.07
  -1  -4  -3  116.54    3.00
  -1  -4  -3  108.39    2.90
  -1  -4  -3  107.22    3.08
   1   4   3  110.51    3.14
   1   4   3  115.56    3.27
  -2  -4  -3  252.06    6.40
  -2  -4  -3  252.69    6.25
  -2  -4  -3  255.01    6.41
  -2  -4  -3  244.83    6.81
   2   4   3  251.01    6.79
  -3  -4  -3   89.67    2.61
  -3  -4  -3   89.60    2.92
  -3  -4  -3   92.51    2.94
   3   4   3   88.31    2.83
  -4  -4  -3   39.72    1.97
  -4  -4  -3   39.28    1.76
  -4  -4  -3   42.58    1.65
   4   4   3   40.61    1.68
  -5  -4  -3   -0.63    0.74
   5   4   3    0.22    0.56
   6   4   3   17.49    1.34
   8  -5  -3   39.61    1.76
   8  -5  -3   30.57    2.13
  -8   5   3   36.87    1.67
   7  -5  -3   84.65    2.57
   7  -5  -3   82.85    2.72
   7  -5  -3   76.77    3.20
  -7   5   3   79.19    2.70
   6  -5  -3  114.03    3.83
   6  -5  -3  113.09    3.24
   6  -5  -3  110.45    3.10
   6  -5  -3  111.67    3.05
   6  -5  -3  111.91    2.95
   6  -5  -3  110.20    2.89
  -6   5   3  102.03    3.32
   5  -5  -3   50.43    2.36
   5  -5  -3   56.09    1.94
   5  -5  -3   54.40    1.76
  -5   5   3   58.58    1.89
  -5   5   3   52.82    1.84
   4  -5  -3    0.92    0.81
   4  -5  -3    0.40    0.49
   4  -5  -3    1.43    0.66
  -4   5   3    1.17    0.37
  -4   5   3    0.68    0.55
  -4   5   3    0.84    0.40
   3  -5  -3   25.41    1.20
   3  -5  -3   23.79    0.96
   3  -5  -3   25.05    1.49
  -3   5   3   24.15    1.11
  -3   5   3   24.39    1.03
  -3   5   3   26.15    0.99
   2  -5  -3  183.56    4.56
   2  -5  -3  179.43    4.58
   2  -5  -3  189.04    5.30
  -2   5   3  183.87    4.75
  -2   5   3  185.33    4.94
  -2   5   3  183.99    4.96
   1  -5  -3   84.12    2.20
   1  -5  -3   80.83    2.37
  -1   5   3   80.30    2.35
  -1   5   3   81.13    2.27
  -1   5   3   82.57    2.50
   0  -5  -3   65.19    1.84
   0  -5  -3   63.75    2.13
   0   5   3   62.35    1.95
   0   5   3   66.66    2.19
  -1  -5  -3   89.38    2.76
  -1  -5  -3   86.38    2.46
  -1  -5  -3   89.03    2.53
  -1  -5  -3   89.52    2.44
   1   5   3   85.88    2.63
   1   5   3   87.26    2.79
  -2  -5  -3   42.49    1.54
  -2  -5  -3   41.41    1.68
  -2  -5  -3   40.84    1.86
  -2  -5  -3   43.40    1.97
   2   5   3   41.15    1.56
  -3  -5  -3    6.73    0.78
  -3  -5  -3    6.69    0.85
  -3  -5  -3    7.74    1.03
   3   5   3    5.34    0.69
  -4  -5  -3    9.77    1.05
  -4  -5  -3   10.64    1.26
   4   5   3    9.31    0.90
   5   5   3   17.46    1.27
   8  -6  -3   29.68    1.60
   8  -6  -3   30.88    2.17
  -8   6   3   27.90    1.52
   7  -6  -3   60.40    2.29
   7  -6  -3   61.58    2.13
   7  -6  -3   60.22    2.71
  -7   6   3   56.69    2.18
   6  -6  -3    8.18    0.82
   6  -6  -3    8.14    1.15
   6  -6  -3    7.17    0.94
  -6   6   3    7.72    0.77
   5  -6  -3   19.31    1.56
   5  -6  -3   19.26    1.04
   5  -6  -3   20.21    1.28
  -5   6   3   18.83    1.02
   4  -6  -3   20.10    1.02
   4  -6  -3   21.03    1.33
   4  -6  -3   20.70    1.55
  -4   6   3   20.35    1.21
  -4   6   3   21.34    1.05
  -4   6   3   20.22    1.02
   3  -6  -3  120.68    3.42
   3  -6  -3  124.31    3.30
   3  -6  -3  127.98    3.92
  -3   6   3  130.21    3.56
  -3   6   3  126.84    3.53
  -3   6   3  122.26    3.62
   2  -6  -3  176.66    4.53
   2  -6  -3  170.27    4.52
  -2   6   3  175.00    4.68
  -2   6   3  187.87    4.91
  -2   6   3  173.22    4.86
   1  -6  -3  106.05    2.91
   1  -6  -3  105.81    3.10
  -1   6   3  105.96    3.10
  -1   6   3  109.21    3.31
  -1   6   3  110.56    3.01
   0  -6  -3   60.66    1.91
   0  -6  -3   60.32    2.16
   0   6   3   61.05    1.99
   0   6   3   60.56    1.97
   0   6   3   67.23    2.30
  -1  -6  -3    2.21    0.98
  -1  -6  -3    2.14    0.43
  -1  -6  -3    2.62    0.65
   1   6   3    2.64    0.51
   1   6   3    1.78    0.64
  -2  -6  -3    3.95    0.71
  -2  -6  -3    3.98    0.99
  -2  -6  -3    4.35    0.70
   2   6   3    3.57    0.58
  -3  -6  -3   25.11    1.63
  -3  -6  -3   24.75    1.30
  -3  -6  -3   21.75    1.42
   3   6   3   24.10    1.27
  -4  -6  -3   78.68    2.90
   4   6   3   71.74    2.66
   5   6   3   32.75    1.74
   8  -7  -3    4.93    1.34
   8  -7  -3    3.86    0.99
  -8   7   3    5.46    0.86
   7  -7  -3    0.33    1.02
   7  -7  -3    0.24    0.75
  -7   7   3    0.78    0.60
   6  -7  -3   48.90    1.85
   6  -7  -3   52.70    2.35
   6  -7  -3   53.02    2.07
  -6   7   3   49.92    1.93
   5  -7  -3   91.59    3.14
   5  -7  -3   92.63    2.67
   5  -7  -3   89.71    2.81
  -5   7   3   85.71    2.85
   4  -7  -3   84.56    2.97
   4  -7  -3   84.88    2.50
   4  -7  -3   83.95    2.68
  -4   7   3   90.10    2.69
  -4   7   3   83.97    2.71
  -4   7   3   79.68    2.72
   3  -7  -3   69.22    2.32
   3  -7  -3   71.12    2.63
   3  -7  -3   66.68    2.15
  -3   7   3   75.41    2.35
  -3   7   3   68.53    2.32
  -3   7   3   70.28    2.35
   2  -7  -3   18.88    1.22
   2  -7  -3   18.52    1.33
  -2   7   3   19.53    1.16
  -2   7   3   18.11    1.01
  -2   7   3   20.10    1.27
   1  -7  -3   14.45    1.25
   1  -7  -3   13.17    0.92
  -1   7   3   14.90    1.06
  -1   7   3   12.71    0.82
  -1   7   3   17.44    1.32
   0  -7  -3   24.59    1.74
   0  -7  -3   24.83    1.25
   0   7   3   27.80    1.36
   0   7   3   28.70    1.21
  -1  -7  -3   42.16    1.92
  -1  -7  -3   45.12    1.62
   1   7   3   40.64    1.62
   1   7   3   40.75    1.64
  -2  -7  -3   25.98    1.70
  -2  -7  -3   26.91    1.34
   2   7   3   23.97    1.23
   2   7   3   25.99    1.37
  -3  -7  -3   47.09    2.35
   3   7   3   44.19    1.91
   3   7   3   43.65    1.87
   4   7   3    9.11    0.99
   7  -8  -3   19.44    1.38
   7  -8  -3   21.28    1.64
  -7   8   3   16.12    1.21
   6  -8  -3   37.84    1.99
   6  -8  -3   34.61    1.59
   6  -8  -3   34.96    1.83
  -6   8   3   35.14    1.64
   5  -8  -3   64.66    2.55
   5  -8  -3   62.98    2.33
   5  -8  -3   65.49    2.18
  -5   8   3   61.75    2.29
  -5   8   3   66.04    2.33
   4  -8  -3   43.89    1.82
   4  -8  -3   44.94    2.00
   4  -8  -3   42.69    1.66
  -4   8   3   44.39    1.86
  -4   8   3   41.32    1.78
   3  -8  -3    7.59    0.96
   3  -8  -3    6.43    0.91
  -3   8   3    4.90    0.71
  -3   8   3    5.31    0.83
   2  -8  -3    2.04    0.86
   2  -8  -3    1.32    0.71
  -2   8   3    1.64    0.51
  -2   8   3    1.34    0.69
   1  -8  -3   28.81    1.35
   1  -8  -3   31.26    1.67
  -1   8   3   30.55    1.42
  -1   8   3   29.27    1.31
   0  -8  -3  132.15    3.93
   0  -8  -3  132.39    3.67
   0   8   3  134.88    3.81
   0   8   3  127.19    3.92
  -1  -8  -3   76.17    2.78
  -1  -8  -3   73.85    2.39
   1   8   3   74.79    2.49
   1   8   3   67.53    2.46
  -2  -8  -3   20.25    1.61
   2   8   3   21.19    1.25
   2   8   3   23.39    1.41
  -3  -8  -3    0.32    1.22
   3   8   3    0.92    0.67
   4   8   3    3.63    0.88
   7  -9  -3   11.76    1.22
   7  -9  -3   11.03    1.42
  -7   9   3   10.55    1.08
   6  -9  -3    5.79    1.13
   6  -9  -3    4.15    0.95
  -6   9   3    3.37    0.76
   5  -9  -3    7.05    1.01
   5  -9  -3    8.04    1.12
   5  -9  -3    7.95    1.18
  -5   9   3    8.00    1.00
  -5   9   3    7.08    0.90
   4  -9  -3    6.68    0.96
   4  -9  -3    7.20    1.12
  -4   9   3    8.01    1.00
  -4   9   3    6.32    0.86
   3  -9  -3   31.97    1.64
   3  -9  -3   28.55    1.60
  -3   9   3   32.79    1.64
  -3   9   3   31.08    1.51
   2  -9  -3   43.97    1.88
   2  -9  -3   41.64    1.97
  -2   9   3   41.42    1.78
  -2   9   3   43.99    1.79
   1  -9  -3   58.60    2.37
   1  -9  -3   58.48    2.12
  -1   9   3   53.90    2.06
  -1   9   3   54.78    2.10
   0  -9  -3   21.25    1.60
   0  -9  -3   22.32    1.35
   0   9   3   20.80    1.21
   0   9   3   21.55    1.33
  -1  -9  -3    6.07    1.27
   1   9   3    5.60    0.92
   1   9   3    5.23    0.79
  -2  -9  -3    1.06    1.22
   2   9   3    2.95    0.73
   3   9   3   14.62    1.26
   6 -10  -3    0.18    0.96
   6 -10  -3   -0.19    0.98
  -6  10   3    0.79    0.69
   5 -10  -3    9.57    1.27
   5 -10  -3    9.10    1.16
  -5  10   3   11.04    1.09
  -5  10   3   10.06    1.13
   4 -10  -3   34.95    1.90
   4 -10  -3   38.41    1.92
  -4  10   3   32.93    1.89
  -4  10   3   36.16    1.80
   3 -10  -3   52.84    2.29
   3 -10  -3   54.99    2.30
  -3  10   3   56.70    2.25
  -3  10   3   55.10    2.25
   2 -10  -3   46.14    2.17
   2 -10  -3   45.19    1.95
  -2  10   3   42.17    1.91
  -2  10   3   44.34    2.01
   1 -10  -3    5.04    1.23
   1 -10  -3    5.42    0.95
  -1  10   3    5.83    0.83
  -1  10   3    4.68    0.90
   0 -10  -3    2.21    1.23
   0  10   3    1.76    0.85
   0  10   3    4.36    0.79
  -1 -10  -3    6.22    1.40
   1  10   3    7.88    0.95
   5 -11  -3   29.02    1.93
  -5  11   3   23.46    1.61
   4 -11  -3    8.38    1.32
  -4  11   3    9.73    1.10
   3 -11  -3    3.75    1.32
  -3  11   3    6.34    0.93
   2 -11  -3    0.83    1.29
  -2  11   3    2.26    0.73
   1 -11  -3   10.68    1.52
  -1  11   3   10.10    1.09
   0 -11  -3    4.68    1.52
   0  11   3    6.75    0.97
   2  12  -4    2.07    0.93
  -2 -12   4    3.86    1.17
   1  12  -4    0.43    0.79
  -1 -12   4    0.82    0.93
   0  12  -4    8.72    1.14
   0 -12   4    9.96    1.31
  -1  12  -4   26.10    1.72
   1 -12   4   25.83    1.77
  -2  12  -4   34.70    1.98
   2 -12   4   38.34    2.03
  -3  12  -4   20.93    1.61
   3 -12   4   22.02    1.67
  -4  12  -4    6.82    1.10
   4 -12   4    7.16    1.18
   3  11  -4    1.22    0.79
  -3 -11   4    2.04    1.11
   2  11  -4   22.94    1.53
  -2 -11   4   22.78    1.80
   1  11  -4   54.40    2.41
  -1 -11   4   55.92    2.54
   0  11  -4   41.77    2.03
   0 -11   4   40.57    2.10
  -1  11  -4   24.50    1.62
   1 -11   4   26.05    1.71
   1 -11   4   27.45    1.79
  -2  11  -4   18.66    1.47
   2 -11   4   21.00    1.56
   2 -11   4   18.40    1.51
  -3  11  -4    1.90    0.79
   3 -11   4    1.13    0.92
  -4  11  -4    8.22    1.06
   4 -11   4    6.34    1.11
  -5  11  -4    7.93    1.13
   5 -11   4    5.23    1.09
   4  10  -4    9.11    1.12
  -4 -10   4   10.48    1.45
   3  10  -4   21.40    1.49
  -3 -10   4   18.27    1.69
   2  10  -4   58.59    2.46
  -2 -10   4   64.97    2.67
   1  10  -4   39.96    1.90
  -1 -10   4   39.83    1.98
  -1 -10   4   44.61    2.15
   0  10  -4   24.32    1.62
   0  10  -4   21.00    1.37
   0 -10   4   22.62    1.61
   0 -10   4   26.30    1.67
  -1  10  -4   15.28    1.30
  -1  10  -4   14.52    1.24
   1 -10   4   14.26    1.34
   1 -10   4   20.28    1.48
  -2  10  -4    1.66    0.73
   2 -10   4    1.19    0.84
   2 -10   4    0.80    0.94
  -3  10  -4   36.97    1.81
   3 -10   4   38.54    2.00
   3 -10   4   37.55    1.85
  -4  10  -4   57.41    2.47
   4 -10   4   58.61    2.44
  -5  10  -4   44.44    2.15
   5 -10   4   46.78    2.17
   5   9  -4   48.94    2.25
  -5  -9   4   47.22    2.41
   4   9  -4   29.03    1.64
  -4  -9   4   32.15    2.02
   3   9  -4   42.85    1.95
  -3  -9   4   40.42    2.11
   2   9  -4   51.41    2.15
   2   9  -4   54.48    2.19
  -2  -9   4   55.96    2.20
  -2  -9   4   55.31    2.44
   1   9  -4    0.30    0.73
   1   9  -4    1.31    0.64
  -1  -9   4    0.22    0.84
  -1  -9   4    0.71    0.84
   0   9  -4   15.58    1.25
   0   9  -4   15.74    1.15
   0  -9   4   15.45    1.43
   0  -9   4   16.94    1.37
   0  -9   4   15.27    1.27
  -1   9  -4   41.11    1.94
  -1   9  -4   44.90    1.96
   1  -9   4   40.44    2.16
   1  -9   4   48.06    2.08
   1  -9   4   44.87    1.98
  -2   9  -4   67.59    2.49
  -2   9  -4   66.47    2.50
   2  -9   4   64.08    2.55
   2  -9   4   71.58    2.60
  -3   9  -4   54.86    2.24
   3  -9   4   59.03    2.36
   3  -9   4   55.13    2.30
  -4   9  -4   36.47    1.80
   4  -9   4   40.51    2.01
   4  -9   4   37.81    1.81
  -5   9  -4    1.19    0.75
   5  -9   4   -0.80    0.78
  -6   9  -4    4.03    1.00
   6  -9   4    4.39    1.00
   6   8  -4   31.30    1.84
  -6  -8   4   36.95    2.18
   5   8  -4   34.54    1.77
  -5  -8   4   29.84    1.88
   4   8  -4   15.73    1.25
  -4  -8   4   16.07    1.42
   3   8  -4   10.82    1.00
   3   8  -4    9.76    1.06
  -3  -8   4   11.68    1.23
   2   8  -4    3.03    0.72
   2   8  -4    2.47    0.86
   2   8  -4    3.50    0.91
  -2  -8   4    3.96    0.95
  -2  -8   4    3.57    0.92
   1   8  -4   16.68    1.21
   1   8  -4   17.77    1.39
   1   8  -4   16.46    1.25
   1   8  -4   18.41    1.54
  -1  -8   4   17.22    1.27
  -1  -8   4   18.18    1.39
  -1  -8   4   14.55    1.35
  -1  -8   4   16.28    1.17
   0   8  -4  114.70    3.65
   0   8  -4  118.98    3.66
   0   8  -4  118.57    3.56
   0   8  -4  115.30    3.72
   0  -8   4  121.22    3.68
   0  -8   4  122.99    3.69
   0  -8   4  123.33    3.63
   0  -8   4  114.74    3.88
  -1   8  -4  170.90    5.18
  -1   8  -4  170.44    4.80
  -1   8  -4  175.38    5.03
   1  -8   4  177.92    4.90
   1  -8   4  169.94    5.27
   1  -8   4  184.44    5.00
   1  -8   4  181.34    5.09
  -2   8  -4   58.31    2.22
  -2   8  -4   57.87    2.35
  -2   8  -4   57.83    2.27
   2  -8   4   63.04    2.40
   2  -8   4   61.78    2.39
   2  -8   4   52.68    2.26
   2  -8   4   61.29    2.32
  -3   8  -4   20.64    1.31
   3  -8   4   18.22    1.35
   3  -8   4   19.72    1.37
   3  -8   4   18.81    1.27
  -4   8  -4    0.08    0.60
   4  -8   4   -0.71    0.77
   4  -8   4    0.16    0.71
  -5   8  -4   41.13    1.96
   5  -8   4   38.96    1.91
  -6   8  -4   47.94    2.20
   6  -8   4   49.32    2.23
   7   7  -4   28.69    1.71
  -7  -7   4   31.68    1.98
   6   7  -4   28.48    1.60
  -6  -7   4   27.11    1.88
   5   7  -4    0.42    0.66
  -5  -7   4   -0.11    0.80
   4   7  -4   16.76    1.25
   4   7  -4   16.48    1.19
  -4  -7   4   15.52    1.32
   3   7  -4   72.49    2.83
   3   7  -4   70.93    2.23
   3   7  -4   67.83    2.50
   3   7  -4   70.35    2.49
  -3  -7   4   70.93    2.79
  -3  -7   4   69.72    2.68
   2   7  -4  111.76    3.33
   2   7  -4  116.26    3.54
   2   7  -4   87.40    2.95
   2   7  -4  101.12    3.31
  -2  -7   4  108.91    3.59
  -2  -7   4  108.85    3.16
  -2  -7   4  111.97    3.36
   1   7  -4   70.61    2.47
   1   7  -4   72.20    2.72
   1   7  -4   71.91    2.50
  -1  -7   4   72.98    2.73
  -1  -7   4   71.69    2.48
  -1  -7   4   76.27    2.57
   0   7  -4  154.10    4.39
   0   7  -4  151.33    4.51
   0   7  -4  151.32    4.39
   0  -7   4  151.19    4.62
   0  -7   4  152.17    4.26
   0  -7   4  154.10    4.39
  -1   7  -4    1.95    0.87
  -1   7  -4    1.71    0.58
  -1   7  -4    0.52    0.35
  -1   7  -4    1.30    0.67
   1  -7   4    1.17    0.74
   1  -7   4   -0.51    0.78
   1  -7   4    2.14    0.79
  -2   7  -4   21.09    1.32
  -2   7  -4   19.27    1.14
   2  -7   4   18.77    1.22
   2  -7   4   13.33    0.95
   2  -7   4   22.76    1.40
   2  -7   4   18.23    1.37
  -3   7  -4   34.10    1.66
  -3   7  -4   33.62    1.57
  -3   7  -4   34.24    1.71
   3  -7   4   32.05    1.41
   3  -7   4   34.25    1.61
   3  -7   4   39.37    1.98
   3  -7   4   35.04    1.78
  -4   7  -4   56.06    2.18
   4  -7   4   56.51    2.19
   4  -7   4   59.47    2.24
  -5   7  -4   24.79    1.44
   5  -7   4   26.75    1.52
  -6   7  -4   26.11    1.63
   6  -7   4   25.93    1.61
  -7   7  -4   11.34    1.27
   7  -7   4   11.76    1.27
   7   6  -4    0.24    0.72
  -7  -6   4    1.58    0.99
   6   6  -4    1.55    0.71
  -6  -6   4    3.23    0.92
   5   6  -4    1.59    0.67
   5   6  -4    1.07    0.78
  -5  -6   4    2.15    0.79
   4   6  -4   90.19    2.98
   4   6  -4   92.51    3.05
   4   6  -4   97.41    2.87
   4   6  -4   92.37    3.04
  -4  -6   4   89.27    3.17
   3   6  -4  179.54    5.08
   3   6  -4  188.37    5.09
   3   6  -4  181.16    5.30
   3   6  -4  187.69    4.94
  -3  -6   4  182.94    5.45
  -3  -6   4  186.76    5.17
  -3  -6   4  183.83    5.12
   2   6  -4   96.14    3.00
   2   6  -4   97.42    2.92
   2   6  -4   99.09    3.05
   2   6  -4   97.23    3.19
  -2  -6   4   92.43    3.20
  -2  -6   4   96.89    3.02
  -2  -6   4   95.65    3.05
  -2  -6   4  104.92    2.95
   1   6  -4   31.76    1.60
   1   6  -4   31.55    1.40
   1   6  -4   30.54    1.38
   1   6  -4   31.35    1.39
  -1  -6   4   30.91    1.63
  -1  -6   4   30.45    1.57
  -1  -6   4   32.58    1.47
  -1  -6   4   32.25    1.51
   0   6  -4    0.53    0.76
   0   6  -4    0.08    0.60
   0   6  -4   -0.20    0.66
   0   6  -4    0.36    0.45
   0  -6   4    0.24    0.71
   0  -6   4    0.52    0.61
   0  -6   4   -0.10    0.67
   0  -6   4    0.82    0.71
  -1   6  -4  100.58    2.95
  -1   6  -4   97.92    3.05
  -1   6  -4   96.65    2.99
  -1   6  -4   99.11    2.86
   1  -6   4  104.14    2.97
   1  -6   4   94.05    3.13
   1  -6   4   97.71    3.00
  -2   6  -4  177.35    4.75
  -2   6  -4  175.03    5.07
  -2   6  -4  176.80    4.65
   2  -6   4  170.26    5.09
   2  -6   4  181.70    4.94
   2  -6   4  179.98    4.75
  -3   6  -4  184.44    4.85
  -3   6  -4  176.77    5.20
   3  -6   4  180.92    4.94
   3  -6   4  179.97    5.05
   3  -6   4  180.19    5.24
  -5   6  -4   25.44    1.46
   5  -6   4   25.68    1.46
   5  -6   4   29.61    1.64
  -6   6  -4   11.10    1.13
   6  -6   4   10.24    1.11
  -7   6  -4    8.15    1.10
   7  -6   4    4.14    0.99
   8   5  -4    0.08    0.79
  -8  -5   4   -0.38    0.94
   7   5  -4   36.43    1.75
  -7  -5   4   32.55    1.86
   6   5  -4   49.19    2.03
  -6  -5   4   48.57    2.18
   5   5  -4   68.95    2.41
   5   5  -4   69.07    2.40
   5   5  -4   65.16    2.27
  -5  -5   4   67.96    2.52
   4   5  -4  135.59    4.00
   4   5  -4  138.68    3.96
   4   5  -4  136.62    3.75
   4   5  -4  133.62    3.87
  -4  -5   4  136.16    4.01
  -4  -5   4  124.54    4.08
   3   5  -4   12.69    0.96
   3   5  -4   12.53    1.11
   3   5  -4   10.92    0.88
   3   5  -4    9.81    0.88
  -3  -5   4    8.84    1.08
  -3  -5   4    8.27    0.64
  -3  -5   4   10.97    0.96
  -3  -5   4    9.49    1.07
   2   5  -4   22.25    1.17
   2   5  -4   20.42    1.10
   2   5  -4   23.53    1.44
   2   5  -4   23.12    1.07
  -2  -5   4   23.86    1.24
  -2  -5   4   22.18    1.23
  -2  -5   4   23.79    1.34
   1   5  -4  167.93    4.28
   1   5  -4  160.05    4.57
   1   5  -4  165.07    4.41
   1   5  -4  155.79    4.40
   1   5  -4  163.23    4.41
  -1  -5   4  160.56    4.72
  -1  -5   4  161.41    4.24
  -1  -5   4  157.45    4.37
   0   5  -4  268.18    6.76
   0   5  -4  266.86    6.87
   0   5  -4  272.91    7.33
   0   5  -4  266.49    7.03
   0   5  -4  276.03    7.04
   0  -5   4  268.81    6.73
   0  -5   4  269.18    7.43
   0  -5   4  273.83    6.87
  -1   5  -4   81.81    2.51
  -1   5  -4   78.67    2.36
  -1   5  -4   79.04    2.45
   1  -5   4   77.23    2.58
   1  -5   4   81.66    2.47
   1  -5   4   76.92    2.40
   1  -5   4   79.41    2.38
  -2   5  -4  118.77    3.34
  -2   5  -4  122.35    3.35
  -2   5  -4  118.10    3.57
   2  -5   4  117.03    3.39
   2  -5   4  123.73    3.30
   2  -5   4  124.48    3.37
   2  -5   4  123.68    3.65
   2  -5   4  118.65    3.47
  -3   5  -4   46.69    1.72
  -3   5  -4   41.11    1.68
  -3   5  -4   47.57    1.75
   3  -5   4   44.79    1.75
   3  -5   4   44.58    1.80
   3  -5   4   45.36    1.77
   3  -5   4   45.46    1.76
  -4   5  -4    0.61    0.63
  -4   5  -4    0.43    0.59
  -4   5  -4    1.57    0.68
   4  -5   4    2.08    0.79
   4  -5   4    0.36    0.61
   4  -5   4   -0.34    0.77
  -5   5  -4    0.84    0.64
   5  -5   4    1.44    0.68
   5  -5   4    0.46    0.72
  -6   5  -4    8.91    1.06
   6  -5   4   10.52    1.09
  -7   5  -4   23.85    1.57
  -7   5  -4   25.54    1.61
   7  -5   4   26.92    1.57
   8   4  -4   21.89    1.50
  -8  -4   4   21.54    1.59
   7   4  -4   42.65    1.91
  -7  -4   4   42.03    2.00
   6   4  -4   35.99    1.64
   6   4  -4   37.70    1.67
   6   4  -4   33.21    1.59
  -6  -4   4   35.75    1.75
   5   4  -4   39.45    1.63
   5   4  -4   38.60    1.91
   5   4  -4   39.34    1.69
   5   4  -4   37.00    1.67
  -5  -4   4   37.22    1.69
  -5  -4   4   37.09    1.98
   4   4  -4   -0.17    0.45
   4   4  -4    0.58    0.63
   4   4  -4    0.31    0.62
   4   4  -4    0.30    0.77
  -4  -4   4    1.60    0.84
  -4  -4   4   -0.20    0.57
   3   4  -4    8.33    0.74
   3   4  -4    7.81    0.83
   3   4  -4    7.35    0.64
   3   4  -4    8.02    0.77
  -3  -4   4    7.94    0.76
  -3  -4   4    7.31    0.72
  -3  -4   4    7.66    0.86
  -3  -4   4    8.33    0.88
   2   4  -4  258.35    6.75
   2   4  -4  262.59    6.51
   2   4  -4  259.46    6.58
   2   4  -4  258.61    7.03
  -2  -4   4  270.73    7.09
  -2  -4   4  257.83    7.12
  -2  -4   4  255.29    6.55
  -2  -4   4  264.25    6.79
   1   4  -4  470.71   12.49
   1   4  -4  492.90   12.58
   1   4  -4  467.72   11.98
   1   4  -4  473.26   11.52
   1   4  -4  474.70   11.61
   1   4  -4  490.55   12.47
  -1  -4   4  478.17   12.63
  -1  -4   4  489.66   12.54
  -1  -4   4  472.70   12.01
  -1  -4   4  470.93   11.48
  -1  -4   4  466.00   11.57
   0   4  -4  211.96    5.75
   0   4  -4  212.78    5.41
   0   4  -4  210.38    5.59
   0   4  -4  213.69    5.34
   0   4  -4  214.32    5.84
   0   4  -4  200.34    5.48
   0  -4   4  213.29    5.56
   0  -4   4  210.24    5.88
   0  -4   4  208.26    5.40
   0  -4   4  217.82    5.77
   0  -4   4  211.08    5.30
  -1   4  -4   60.65    1.98
  -1   4  -4   61.57    1.98
  -1   4  -4   62.94    1.91
   1  -4   4   61.73    1.95
   1  -4   4   62.48    1.97
   1  -4   4   63.57    2.09
   1  -4   4   64.72    2.01
   1  -4   4   62.73    1.79
  -2   4  -4   43.33    1.54
  -2   4  -4   42.19    1.60
  -2   4  -4   43.71    1.50
   2  -4   4   45.67    1.60
   2  -4   4   43.83    1.61
   2  -4   4   42.54    1.59
  -3   4  -4   21.69    1.24
  -3   4  -4   24.55    1.12
  -3   4  -4   22.84    1.17
   3  -4   4   23.87    1.26
   3  -4   4   23.60    1.20
  -4   4  -4   76.43    2.57
  -4   4  -4   75.76    2.39
  -4   4  -4   77.37    2.56
   4  -4   4   78.00    2.40
   4  -4   4   72.70    2.52
  -5   4  -4  133.86    4.03
   5  -4   4  125.64    3.97
  -6   4  -4   63.67    2.47
  -6   4  -4   66.10    2.49
   6  -4   4   67.24    2.50
  -7   4  -4   11.50    1.21
   7  -4   4   10.48    1.17
   8   3  -4   36.32    1.75
  -8  -3   4   31.65    1.88
   7   3  -4   11.38    0.98
  -7  -3   4   11.72    1.12
   6   3  -4    0.77    0.71
   6   3  -4   -0.73    0.63
   6   3  -4   -1.28    0.81
   6   3  -4   -0.60    0.51
  -6  -3   4    0.28    0.62
   5   3  -4   92.77    2.85
   5   3  -4   91.00    2.67
   5   3  -4   87.70    2.74
   5   3  -4   85.51    2.80
  -5  -3   4   90.33    2.90
   4   3  -4  232.54    5.94
   4   3  -4  233.03    6.16
   4   3  -4  237.32    6.43
   4   3  -4  241.82    6.02
  -4  -3   4  241.05    6.50
  -4  -3   4  227.30    5.97
   3   3  -4   74.54    2.25
   3   3  -4   72.67    2.21
   3   3  -4   73.13    2.18
   3   3  -4   72.99    2.15
  -3  -3   4   72.17    2.28
  -3  -3   4   69.54    2.17
  -3  -3   4   74.08    2.25
  -3  -3   4   73.44    2.28
   2   3  -4  223.83    5.98
   2   3  -4  231.64    5.79
   2   3  -4  235.22    5.81
   2   3  -4  248.13    6.26
   2   3  -4  232.76    6.25
   2   3  -4  234.91    6.37
  -2  -3   4  226.75    5.78
  -2  -3   4  235.64    6.28
  -2  -3   4  229.97    6.30
  -2  -3   4  229.85    6.04
   1   3  -4   28.87    1.11
   1   3  -4   27.40    1.07
   1   3  -4   29.08    1.15
   1   3  -4   27.14    1.07
   1   3  -4   31.33    1.18
   1   3  -4   28.82    1.16
  -1  -3   4   28.97    1.20
  -1  -3   4   29.07    1.08
  -1  -3   4   27.44    1.04
  -1  -3   4   27.92    1.19
  -1  -3   4   27.48    1.15
   0   3  -4    6.36    0.62
   0   3  -4    4.03    0.56
   0   3  -4    5.81    0.49
   0   3  -4    4.83    0.46
   0   3  -4    4.65    0.57
   0  -3   4    5.78    0.46
   0  -3   4    5.70    0.47
   0  -3   4    5.55    0.66
   0  -3   4    5.78    0.61
   0  -3   4    5.74    0.52
   0  -3   4    4.38    0.54
  -1   3  -4   29.70    1.10
  -1   3  -4   29.16    1.12
  -1   3  -4   28.39    1.13
  -1   3  -4   29.64    1.25
   1  -3   4   28.98    1.21
   1  -3   4   31.56    1.16
   1  -3   4   29.48    1.23
   1  -3   4   29.60    1.12
   1  -3   4   30.95    1.11
   1  -3   4   31.32    1.14
  -2   3  -4   72.53    2.12
  -2   3  -4   74.55    2.25
  -2   3  -4   73.03    2.20
   2  -3   4   75.53    2.17
   2  -3   4   73.52    2.32
  -3   3  -4  103.66    2.92
  -3   3  -4  110.21    3.07
  -3   3  -4  104.09    3.17
   3  -3   4  103.94    3.19
   3  -3   4  110.88    2.95
  -4   3  -4  153.11    4.15
  -4   3  -4  146.51    3.98
  -4   3  -4  146.43    4.34
   4  -3   4  144.43    4.33
   4  -3   4  153.19    4.03
  -5   3  -4   96.35    3.11
  -5   3  -4   92.17    2.95
  -5   3  -4   95.96    3.09
   5  -3   4   94.50    3.09
  -6   3  -4    3.32    0.77
   6  -3   4    2.97    0.74
  -7   3  -4    0.77    0.84
   7  -3   4    0.02    0.70
   8   2  -4    0.10    0.66
  -8  -2   4    1.04    0.79
   7   2  -4    0.47    0.68
   7   2  -4    1.60    0.64
   7   2  -4    2.04    0.78
  -7  -2   4    1.56    0.66
   6   2  -4   51.83    2.02
   6   2  -4   51.95    2.11
   6   2  -4   44.03    1.77
   6   2  -4   49.64    1.81
   6   2  -4   46.40    1.83
  -6  -2   4   47.11    1.88
   5   2  -4  217.18    5.55
   5   2  -4  214.05    5.65
   5   2  -4  212.15    5.47
   5   2  -4  214.12    5.89
   5   2  -4  216.94    5.56
  -5  -2   4  207.33    5.96
   4   2  -4  102.42    3.02
   4   2  -4  107.81    2.92
   4   2  -4  104.08    2.86
   4   2  -4  101.51    2.93
   4   2  -4  106.03    2.92
  -4  -2   4  106.17    3.09
  -4  -2   4  102.32    3.09
   3   2  -4   85.98    2.38
   3   2  -4   84.33    2.47
   3   2  -4   87.86    2.44
   3   2  -4   83.29    2.39
   3   2  -4   85.25    2.36
  -3  -2   4   85.80    2.46
  -3  -2   4   80.67    2.51
  -3  -2   4   90.91    2.54
   2   2  -4   53.69    1.87
   2   2  -4   52.50    1.62
   2   2  -4   52.05    1.59
   2   2  -4   58.20    1.65
   2   2  -4   53.72    1.60
   2   2  -4   54.07    1.58
  -2  -2   4   51.06    1.54
  -2  -2   4   55.80    1.67
  -2  -2   4   55.62    1.68
  -2  -2   4   52.63    1.67
   1   2  -4   18.31    0.80
   1   2  -4   17.82    0.68
   1   2  -4   17.29    0.72
   1   2  -4   17.50    0.87
   1   2  -4   16.59    0.89
  -1  -2   4   19.64    0.86
  -1  -2   4   19.52    0.80
  -1  -2   4   17.82    0.90
  -1  -2   4   16.84    0.80
  -1  -2   4   17.77    0.72
   0   2  -4   69.38    2.21
   0   2  -4   73.05    2.04
   0   2  -4   71.98    2.02
   0   2  -4   75.13    2.15
   0   2  -4   72.13    1.95
   0  -2   4   74.61    2.01
   0  -2   4   73.20    2.19
   0  -2   4   72.92    2.06
   0  -2   4   72.72    2.13
   0  -2   4   66.64    2.00
  -1   2  -4  615.04   14.99
  -1   2  -4  613.00   15.04
  -1   2  -4  633.24   16.35
  -1   2  -4  615.45   16.39
   1  -2   4  643.49   16.15
   1  -2   4  632.28   17.10
   1  -2   4  616.97   16.30
   1  -2   4  632.98   15.04
  -2   2  -4  425.18   10.52
  -2   2  -4  427.00   11.40
  -2   2  -4  429.30   10.50
   2  -2   4  433.35   11.44
   2  -2   4  440.14   10.50
   2  -2   4  461.58   11.43
  -3   2  -4  122.86    3.33
  -3   2  -4  127.42    3.44
  -3   2  -4  122.23    3.59
  -3   2  -4  124.56    3.61
   3  -2   4  121.39    3.60
   3  -2   4  127.56    3.31
  -4   2  -4   47.65    1.73
  -4   2  -4   42.07    1.77
  -4   2  -4   44.03    1.71
  -4   2  -4   42.29    1.58
   4  -2   4   46.91    1.69
   4  -2   4   43.34    1.72
  -5   2  -4    5.74    0.96
  -5   2  -4    3.95    0.75
   5  -2   4    5.12    0.75
  -6   2  -4   32.24    1.68
   6  -2   4   31.48    1.62
  -7   2  -4   28.40    1.73
   7  -2   4   26.14    1.54
  -9  -1   4   11.05    1.22
   8   1  -4   41.52    1.80
  -8  -1   4   42.36    1.91
   7   1  -4   47.73    1.82
   7   1  -4   45.89    1.81
   7   1  -4   49.70    1.83
  -7  -1   4   45.80    1.89
   6   1  -4   82.05    2.63
   6   1  -4   75.94    2.40
   6   1  -4   74.45    2.38
   6   1  -4   75.67    2.45
  -6  -1   4   75.54    2.54
   5   1  -4   43.44    1.57
   5   1  -4   44.32    1.55
   5   1  -4   44.61    1.56
   5   1  -4   45.63    1.76
  -5  -1   4   43.00    1.62
   4   1  -4    3.29    0.41
   4   1  -4    3.54    0.38
   4   1  -4    2.89    0.47
   4   1  -4    3.97    0.60
   4   1  -4    2.75    0.51
  -4  -1   4    2.94    0.43
  -4  -1   4    4.19    0.47
   3   1  -4   70.49    1.96
   3   1  -4   73.89    2.00
   3   1  -4   71.21    2.03
   3   1  -4   71.80    2.40
   3   1  -4   71.45    1.99
   3   1  -4   71.06    1.96
  -3  -1   4   69.40    2.04
  -3  -1   4   70.26    2.08
  -3  -1   4   72.63    2.10
   2   1  -4  257.60    6.18
   2   1  -4  258.43    6.61
   2   1  -4  259.69    6.18
   2   1  -4  258.40    6.22
   2   1  -4  254.55    7.00
  -2  -1   4  254.21    6.71
  -2  -1   4  258.13    6.75
  -2  -1   4  259.20    6.47
   1   1  -4   44.50    1.25
   1   1  -4   46.53    1.57
   1   1  -4   47.18    1.31
  -1  -1   4   44.89    1.30
  -1  -1   4   45.86    1.37
  -1  -1   4   46.29    1.59
  -1  -1   4   46.22    1.28
   0   1  -4  399.25    9.95
   0   1  -4  421.75   10.65
   0   1  -4  404.14   10.05
   0  -1   4  424.77   10.77
   0  -1   4  415.55   10.99
   0  -1   4  403.54   10.83
  -1   1  -4  334.91    8.05
  -1   1  -4  334.19    8.05
  -1   1  -4  342.25    8.74
  -1   1  -4  336.58    8.71
  -1   1  -4  334.61    8.70
   1  -1   4  326.35    8.04
   1  -1   4  340.31    8.73
   1  -1   4  328.07    8.76
  -2   1  -4   32.33    1.25
  -2   1  -4   32.60    1.10
  -2   1  -4   30.02    1.15
   2  -1   4   31.29    1.14
   2  -1   4   34.25    1.19
   2  -1   4   33.60    1.22
  -3   1  -4   -0.18    0.42
  -3   1  -4    0.93    0.68
  -3   1  -4   -0.14    0.42
   3  -1   4    0.67    0.50
   3  -1   4    0.15    0.41
  -4   1  -4   23.42    1.24
  -4   1  -4   22.00    1.48
  -4   1  -4   22.83    1.12
   4  -1   4   19.64    1.15
  -5   1  -4   40.91    1.73
  -5   1  -4   43.98    1.93
   5  -1   4   40.05    1.68
  -6   1  -4   35.65    1.75
   6  -1   4   32.39    1.66
  -7   1  -4   28.07    1.74
   7  -1   4   26.02    1.55
  -9   0   4   28.01    1.68
   8   0  -4   30.09    1.51
   8   0  -4   35.12    1.58
  -8   0   4   30.09    1.61
   7   0  -4   38.19    1.53
   7   0  -4   36.73    1.53
   7   0  -4   39.58    1.63
   7   0  -4   37.36    1.82
  -7   0   4   37.86    1.66
   6   0  -4    1.30    0.50
   6   0  -4    1.25    0.68
   6   0  -4    1.62    0.61
   6   0  -4    0.94    0.83
  -6   0   4    1.42    0.52
   5   0  -4    2.04    0.42
   5   0  -4    1.51    0.51
   5   0  -4    1.68    0.57
   5   0  -4    2.47    0.69
  -5   0   4    2.17    0.44
   4   0  -4   15.06    0.87
   4   0  -4   15.55    0.62
   4   0  -4   12.31    1.08
   4   0  -4   14.68    0.65
   4   0  -4   14.41    0.76
   4   0  -4   14.82    0.69
  -4   0   4   14.76    0.74
  -4   0   4   15.56    0.73
   3   0  -4  255.04    8.04
   3   0  -4  299.68    7.10
   3   0  -4  294.75    7.08
  -3   0   4  300.72    7.68
  -3   0   4  306.79    7.84
  -3   0   4  307.52    7.40
  -3   0   4  300.65    7.71
   2   0  -4  692.75   19.28
   2   0  -4  694.80   16.84
   2   0  -4  707.10   16.78
  -2   0   4  728.48   17.51
  -2   0   4  688.35   18.20
  -2   0   4  711.49   18.20
   0   0  -4  256.07    6.08
   0   0  -4  253.40    6.20
   0   0   4  255.66    6.57
   0   0   4  250.94    6.61
  -1   0  -4   10.55    0.57
  -1   0  -4   10.62    0.60
  -1   0  -4   10.79    0.54
  -1   0  -4   10.59    0.71
   1   0   4   11.47    0.58
   1   0   4   11.72    0.55
  -2   0  -4   69.27    2.02
  -2   0  -4   67.34    2.06
  -2   0  -4   66.17    1.91
   2   0   4   68.03    2.07
   2   0   4   71.19    2.08
  -3   0  -4  256.73    6.28
  -3   0  -4  251.74    6.84
  -3   0  -4  249.07    6.37
   3   0   4  251.10    6.84
  -4   0  -4  137.83    4.10
  -4   0  -4  141.05    3.93
  -4   0  -4  140.42    3.78
   4   0   4  136.52    4.07
  -5   0  -4   12.36    1.16
  -5   0  -4   12.38    1.04
   5   0   4   13.14    1.03
  -6   0  -4   16.29    1.31
   6   0   4   14.04    1.11
  -7   0  -4    2.17    0.93
   7   0   4    2.74    0.87
  -9   1   4    6.59    0.99
   8  -1  -4    3.11    0.75
   8  -1  -4    4.49    0.87
  -8   1   4    3.98    0.77
   7  -1  -4   24.90    1.53
   7  -1  -4   22.64    1.13
   7  -1  -4   20.93    1.11
   7  -1  -4   23.49    1.19
  -7   1   4   21.36    1.22
   6  -1  -4   64.59    2.83
   6  -1  -4   68.08    2.28
   6  -1  -4   70.48    2.12
   6  -1  -4   69.61    2.13
   6  -1  -4   65.35    2.05
  -6   1   4   68.51    2.24
  -6   1   4   63.58    2.23
   5  -1  -4   43.63    1.38
   5  -1  -4   42.86    2.20
   5  -1  -4   43.36    1.63
   5  -1  -4   40.80    1.35
   5  -1  -4   41.50    1.42
   5  -1  -4   43.43    1.37
   5  -1  -4   39.06    1.31
  -5   1   4   45.54    1.50
  -5   1   4   43.81    1.48
  -5   1   4   42.52    1.48
   4  -1  -4  250.95    6.12
   4  -1  -4  247.95    7.10
   4  -1  -4  247.35    6.09
  -4   1   4  261.20    6.64
  -4   1   4  246.22    6.62
   3  -1  -4  239.08    5.83
   3  -1  -4  239.99    6.78
   3  -1  -4  247.83    5.84
  -3   1   4  241.86    6.32
  -3   1   4  244.99    6.34
  -3   1   4  248.43    6.08
   2  -1  -4   93.55    2.89
   1  -1  -4    5.41    0.65
   0  -1  -4  135.70    3.31
   0  -1  -4  134.63    3.32
   0  -1  -4  137.26    3.33
   0   1   4  140.76    3.60
   0   1   4  135.02    3.60
  -1  -1  -4  163.92    3.99
  -1  -1  -4  142.55    4.25
  -1  -1  -4  161.69    4.04
  -1  -1  -4  169.69    4.26
   1   1   4  164.70    4.35
   1   1   4  168.51    4.35
  -2  -1  -4   69.96    2.12
  -2  -1  -4   68.73    1.97
  -2  -1  -4   69.05    2.10
   2   1   4   70.26    2.13
   2   1   4   70.65    2.14
   2   1   4   70.00    2.12
  -3  -1  -4  108.29    3.25
  -3  -1  -4  110.86    3.01
  -3  -1  -4  109.98    3.12
   3   1   4  110.99    3.26
  -4  -1  -4   31.51    1.38
  -4  -1  -4   30.84    1.68
  -4  -1  -4   30.87    1.50
   4   1   4   31.04    1.36
  -5  -1  -4    8.13    0.97
  -5  -1  -4   11.35    1.17
   5   1   4    9.64    0.89
  -6  -1  -4    0.47    0.79
   6   1   4   -0.02    0.61
  -7  -1  -4   10.52    1.26
   7   1   4    9.07    1.15
   9  -2  -4   -0.57    1.19
  -9   2   4    0.32    0.70
   8  -2  -4    0.75    1.15
   8  -2  -4    1.99    0.78
   8  -2  -4    0.46    0.62
  -8   2   4    1.39    0.65
   7  -2  -4   62.22    2.82
   7  -2  -4   68.49    2.32
   7  -2  -4   66.73    2.05
   7  -2  -4   66.87    2.17
   7  -2  -4   68.95    2.14
  -7   2   4   64.14    2.30
  -7   2   4   64.09    2.28
   6  -2  -4  155.37    4.13
   6  -2  -4  143.92    3.96
   6  -2  -4  145.19    4.83
   6  -2  -4  154.73    4.09
   6  -2  -4  152.50    3.99
   6  -2  -4  154.82    3.95
  -6   2   4  145.62    4.29
   5  -2  -4  176.95    5.55
   5  -2  -4  177.93    4.60
   5  -2  -4  187.53    4.80
   5  -2  -4  181.91    4.65
  -5   2   4  182.33    4.99
  -5   2   4  186.04    4.98
   4  -2  -4   72.06    2.65
   4  -2  -4   71.22    1.99
   4  -2  -4   70.13    1.91
  -4   2   4   72.03    2.05
  -4   2   4   70.19    2.05
   3  -2  -4   -0.27    0.29
   3  -2  -4    0.30    0.23
   3  -2  -4    0.18    0.59
  -3   2   4    0.17    0.16
  -3   2   4    0.30    0.24
  -3   2   4    0.21    0.17
   2  -2  -4   25.53    1.28
   1  -2  -4  415.86   11.12
   0  -2  -4  403.26    9.99
   0  -2  -4  413.73    9.94
   0   2   4  426.85   10.72
   0   2   4  416.01   10.82
  -1  -2  -4   62.04    1.72
  -1  -2  -4   60.93    1.84
  -1  -2  -4   62.11    1.72
   1   2   4   64.86    1.91
   1   2   4   64.29    1.86
  -2  -2  -4   72.82    2.25
  -2  -2  -4   71.52    2.26
  -2  -2  -4   74.22    2.10
   2   2   4   79.25    2.31
   2   2   4   74.23    2.26
  -3  -2  -4    8.09    0.70
  -3  -2  -4    7.87    0.77
  -3  -2  -4    8.41    0.98
   3   2   4    8.24    0.71
  -4  -2  -4   11.67    1.13
  -4  -2  -4   11.08    0.85
  -4  -2  -4   12.05    0.98
   4   2   4   11.12    0.91
  -5  -2  -4   24.08    1.70
  -5  -2  -4   28.52    1.59
   5   2   4   25.55    1.39
  -6  -2  -4   44.91    2.15
   6   2   4   43.59    1.95
   9  -3  -4   16.40    1.85
  -9   3   4   16.56    1.29
   8  -3  -4   46.21    2.56
   8  -3  -4   51.20    1.93
  -8   3   4   50.83    2.00
  -8   3   4   47.61    1.99
   7  -3  -4   39.90    1.80
   7  -3  -4   42.11    2.27
   7  -3  -4   42.17    1.41
   7  -3  -4   43.88    1.64
  -7   3   4   41.48    1.67
   6  -3  -4   38.90    2.23
   6  -3  -4   38.02    1.16
   6  -3  -4   40.86    1.45
   6  -3  -4   37.74    1.66
  -6   3   4   36.39    1.45
   5  -3  -4    2.68    1.01
   5  -3  -4    0.99    0.48
   5  -3  -4    1.96    0.66
  -5   3   4    1.44    0.38
  -5   3   4    1.57    0.40
   4  -3  -4  137.57    3.40
   4  -3  -4  136.10    4.20
   4  -3  -4  132.87    3.47
  -4   3   4  134.46    3.70
  -4   3   4  138.17    3.68
   3  -3  -4  108.74    2.75
   3  -3  -4  108.77    2.68
  -3   3   4  110.88    2.96
  -3   3   4  110.27    2.84
  -3   3   4  109.66    2.90
   2  -3  -4  148.11    4.36
   1  -3  -4  104.61    2.53
  -1   3   4  104.53    2.75
  -1   3   4  108.00    2.78
   0  -3  -4   69.28    1.90
   0  -3  -4   61.87    1.74
   0   3   4   69.30    1.99
   0   3   4   67.31    1.88
  -1  -3  -4   12.01    0.69
  -1  -3  -4   10.56    0.78
  -1  -3  -4   10.66    0.81
   1   3   4   11.84    0.66
   1   3   4   13.27    0.77
  -2  -3  -4    4.26    0.58
  -2  -3  -4    3.60    0.55
  -2  -3  -4    2.83    0.78
   2   3   4    4.29    0.52
   2   3   4    3.96    0.54
  -3  -3  -4   25.20    1.31
  -3  -3  -4   26.60    1.23
  -3  -3  -4   25.80    1.58
   3   3   4   25.24    1.16
  -4  -3  -4   29.79    1.74
  -4  -3  -4   33.24    1.58
  -4  -3  -4   31.57    1.42
   4   3   4   30.64    1.41
  -5  -3  -4   82.03    2.88
   5   3   4   74.14    2.73
   6   3   4   32.53    1.74
   9  -4  -4   22.75    2.05
  -9   4   4   25.42    1.52
  -9   4   4   25.11    1.53
   8  -4  -4   18.20    1.28
   8  -4  -4   17.03    1.76
  -8   4   4   16.48    1.16
   7  -4  -4    4.24    0.73
   7  -4  -4    2.56    1.06
   7  -4  -4    2.51    0.83
  -7   4   4    3.00    0.60
   6  -4  -4    1.74    1.03
   6  -4  -4    0.70    0.69
   6  -4  -4    0.70    0.57
  -6   4   4    0.72    0.46
   5  -4  -4  128.26    4.20
   5  -4  -4  129.99    3.40
   5  -4  -4  129.90    3.51
  -5   4   4  136.90    3.68
  -5   4   4  127.18    3.69
   4  -4  -4  293.96    7.13
   4  -4  -4  281.83    8.14
   4  -4  -4  289.70    7.04
  -4   4   4  295.55    7.64
  -4   4   4  289.40    7.69
  -4   4   4  298.15    7.39
   3  -4  -4  123.89    3.01
   3  -4  -4  119.67    3.78
   3  -4  -4  120.58    3.11
  -3   4   4  121.34    3.33
  -3   4   4  121.01    3.20
  -3   4   4  123.03    3.25
   2  -4  -4   89.95    2.29
   2  -4  -4   91.88    2.30
   2  -4  -4   93.34    3.09
  -2   4   4   92.93    2.37
  -2   4   4   93.51    2.48
  -2   4   4   93.19    2.48
   1  -4  -4    0.91    0.29
   1  -4  -4    1.19    0.49
  -1   4   4    0.77    0.22
  -1   4   4    0.74    0.35
   0  -4  -4    1.93    0.67
   0  -4  -4    1.49    0.36
   0   4   4    2.17    0.46
   0   4   4    1.93    0.31
  -1  -4  -4   73.07    2.11
  -1  -4  -4   76.11    2.35
   1   4   4   73.36    2.28
   1   4   4   83.44    2.44
  -2  -4  -4  159.07    4.30
  -2  -4  -4  155.62    4.39
  -2  -4  -4  158.85    4.11
   2   4   4  156.98    4.45
  -3  -4  -4   84.41    2.72
  -3  -4  -4   83.70    2.49
  -3  -4  -4   80.04    2.66
   3   4   4   81.92    2.66
  -4  -4  -4   39.32    1.75
  -4  -4  -4   38.20    1.96
   4   4   4   34.74    1.62
   5   4   4   11.38    1.05
   8  -5  -4   14.89    1.14
   8  -5  -4   14.44    1.67
  -8   5   4   15.79    1.13
   7  -5  -4   36.44    2.21
   7  -5  -4   37.22    1.56
   7  -5  -4   33.20    1.67
  -7   5   4   33.60    1.49
   6  -5  -4   65.34    2.04
   6  -5  -4   65.69    2.16
   6  -5  -4   64.16    2.66
  -6   5   4   63.59    2.17
   5  -5  -4   58.54    1.80
   5  -5  -4   61.45    2.56
   5  -5  -4   56.39    1.98
  -5   5   4   55.83    1.92
  -5   5   4   61.79    1.93
   4  -5  -4   37.69    1.45
   4  -5  -4   34.79    1.25
   4  -5  -4   38.89    1.98
  -4   5   4   35.39    1.40
  -4   5   4   37.89    1.35
  -4   5   4   39.11    1.32
   3  -5  -4   21.49    1.55
   3  -5  -4   16.37    1.00
   3  -5  -4   15.35    0.75
  -3   5   4   17.07    0.81
  -3   5   4   17.25    0.93
  -3   5   4   18.15    0.78
   2  -5  -4   16.97    1.33
   2  -5  -4   16.07    0.83
   2  -5  -4   18.37    0.86
  -2   5   4   17.82    0.81
  -2   5   4   18.16    0.83
  -2   5   4   17.55    0.74
   1  -5  -4   41.20    1.31
   1  -5  -4   41.26    1.59
  -1   5   4   42.14    1.56
  -1   5   4   42.73    1.34
   0  -5  -4   39.81    1.34
   0  -5  -4   42.10    1.74
   0   5   4   41.20    1.62
   0   5   4   41.70    1.39
  -1  -5  -4  173.77    4.51
  -1  -5  -4  173.42    4.68
   1   5   4  175.38    4.89
   1   5   4  183.51    5.03
  -2  -5  -4   87.39    2.74
  -2  -5  -4   82.90    2.56
  -2  -5  -4   84.26    2.51
  -2  -5  -4   86.46    2.78
   2   5   4   87.31    2.69
  -3  -5  -4   23.67    1.26
  -3  -5  -4   27.33    1.71
   3   5   4   24.35    1.26
  -4  -5  -4    0.02    0.94
   4   5   4    0.28    0.61
   5   5   4    8.17    1.02
   8  -6  -4   34.60    1.65
   8  -6  -4   35.07    2.31
  -8   6   4   31.78    1.60
   7  -6  -4   53.59    1.91
   7  -6  -4   52.01    2.61
   7  -6  -4   51.48    2.08
  -7   6   4   50.49    1.99
   6  -6  -4   28.33    1.92
   6  -6  -4   29.10    1.33
   6  -6  -4   31.00    1.48
  -6   6   4   28.97    1.30
   5  -6  -4    1.69    0.75
   5  -6  -4    2.63    0.59
   5  -6  -4    2.86    0.98
  -5   6   4    2.33    0.51
   4  -6  -4    0.74    0.53
   4  -6  -4    2.14    0.95
   4  -6  -4    0.74    0.71
  -4   6   4    2.14    0.66
  -4   6   4    1.19    0.43
  -4   6   4    0.73    0.44
   3  -6  -4   28.11    1.32
   3  -6  -4   27.67    1.16
   3  -6  -4   28.65    1.68
  -3   6   4   28.10    1.15
  -3   6   4   29.08    1.18
  -3   6   4   28.24    1.27
   2  -6  -4  178.18    4.52
   2  -6  -4  170.22    4.44
  -2   6   4  180.35    4.88
  -2   6   4  174.65    4.61
  -2   6   4  172.37    4.79
   1  -6  -4  137.26    3.81
   1  -6  -4  134.60    3.57
  -1   6   4  142.87    4.06
  -1   6   4  137.27    3.70
  -1   6   4  135.18    3.84
   0  -6  -4  114.29    3.31
   0  -6  -4  111.75    3.08
   0   6   4  113.33    3.30
   0   6   4  116.32    3.53
  -1  -6  -4   18.36    1.28
  -1  -6  -4   17.26    1.05
   1   6   4   17.63    0.99
  -2  -6  -4    0.30    0.58
  -2  -6  -4    1.12    0.93
  -2  -6  -4   -0.19    0.89
   2   6   4    0.98    0.50
  -3  -6  -4   21.63    1.53
   3   6   4   19.99    1.21
  -4  -6  -4   44.51    2.13
   4   6   4   38.93    1.79
   8  -7  -4    9.06    1.09
   8  -7  -4    8.35    1.46
  -8   7   4    8.70    0.96
   7  -7  -4    4.62    0.84
   7  -7  -4    2.30    1.12
   7  -7  -4    4.42    0.98
  -7   7   4    3.22    0.71
   6  -7  -4    9.57    0.88
   6  -7  -4    7.95    1.24
   6  -7  -4    8.93    1.06
  -6   7   4    9.61    0.87
   5  -7  -4   14.46    1.13
   5  -7  -4   14.18    1.00
   5  -7  -4   14.45    1.36
  -5   7   4   16.80    1.16
  -5   7   4   13.84    0.98
   4  -7  -4   17.06    1.18
   4  -7  -4   18.25    1.03
   4  -7  -4   18.81    1.43
  -4   7   4   18.25    1.08
  -4   7   4   18.36    1.17
   3  -7  -4   64.88    2.12
   3  -7  -4   67.20    2.65
   3  -7  -4   65.10    2.07
  -3   7   4   65.69    2.17
  -3   7   4   62.60    2.15
  -3   7   4   67.78    2.18
   2  -7  -4   86.31    2.56
   2  -7  -4   84.59    2.65
  -2   7   4   86.43    2.61
  -2   7   4   91.14    2.86
  -2   7   4   87.85    2.67
   1  -7  -4   42.35    1.56
   1  -7  -4   43.68    1.88
  -1   7   4   45.60    1.90
  -1   7   4   43.82    1.58
  -1   7   4   42.03    1.60
   0  -7  -4    2.32    0.97
   0  -7  -4    2.47    0.62
   0   7   4    2.18    0.64
   0   7   4    1.50    0.47
  -1  -7  -4   31.08    1.78
  -1  -7  -4   32.05    1.37
   1   7   4   31.67    1.45
   1   7   4   30.04    1.36
  -2  -7  -4   23.24    1.36
  -2  -7  -4   21.55    1.60
  -2  -7  -4   22.59    1.55
   2   7   4   20.13    1.19
   2   7   4   22.81    1.33
  -3  -7  -4   49.27    2.41
   3   7   4   50.59    2.04
   4   7   4   31.08    1.67
   7  -8  -4    5.92    1.25
   7  -8  -4    3.55    0.94
  -7   8   4    5.87    0.84
   6  -8  -4   28.13    1.92
   6  -8  -4   26.26    1.68
   6  -8  -4   27.21    1.45
  -6   8   4   28.14    1.44
   5  -8  -4   55.23    2.23
   5  -8  -4   62.85    2.59
   5  -8  -4   61.15    2.07
  -5   8   4   55.50    2.16
  -5   8   4   62.97    2.23
   4  -8  -4   73.95    2.82
   4  -8  -4   73.39    2.33
   4  -8  -4   73.90    2.49
  -4   8   4   73.40    2.50
  -4   8   4   69.60    2.49
   3  -8  -4   10.49    1.00
   3  -8  -4   11.29    1.01
  -3   8   4    9.85    0.87
  -3   8   4   12.17    0.99
   2  -8  -4    0.92    0.90
   2  -8  -4    1.40    0.72
  -2   8   4    0.75    0.64
  -2   8   4    1.24    0.50
   1  -8  -4   17.27    1.09
   1  -8  -4   16.70    1.35
  -1   8   4   16.36    1.06
  -1   8   4   16.02    0.96
   0  -8  -4   87.63    2.62
   0  -8  -4   82.31    2.90
   0   8   4   80.77    2.70
   0   8   4   82.73    2.65
  -1  -8  -4   64.95    2.52
  -1  -8  -4   58.83    2.10
   1   8   4   57.11    2.16
   1   8   4   60.08    2.17
  -2  -8  -4   23.37    1.69
  -2  -8  -4   22.88    1.64
   2   8   4   20.18    1.28
   2   8   4   22.17    1.40
  -3  -8  -4   13.19    1.54
   3   8   4   12.54    1.15
   7  -9  -4   16.55    1.33
   7  -9  -4   17.66    1.68
  -7   9   4   17.31    1.26
   6  -9  -4   20.12    1.53
   6  -9  -4   22.31    1.42
   6  -9  -4   24.24    1.84
   5  -9  -4   18.99    1.57
   5  -9  -4   16.58    1.25
   5  -9  -4   18.94    1.43
  -5   9   4   19.67    1.36
  -5   9   4   17.65    1.24
   4  -9  -4    0.44    0.92
   4  -9  -4    0.19    0.84
  -4   9   4    0.41    0.61
  -4   9   4    1.09    0.81
   3  -9  -4   17.02    1.33
   3  -9  -4   17.59    1.28
  -3   9   4   17.40    1.17
  -3   9   4   17.54    1.33
   2  -9  -4   25.34    1.44
   2  -9  -4   23.33    1.60
  -2   9   4   24.01    1.30
  -2   9   4   24.56    1.41
   1  -9  -4   46.36    1.84
   1  -9  -4   44.07    2.17
  -1   9   4   44.30    1.83
  -1   9   4   46.05    1.88
   0  -9  -4   36.25    1.98
   0  -9  -4   37.85    1.69
   0   9   4   33.55    1.61
   0   9   4   32.88    1.55
  -1  -9  -4   21.57    1.67
   1   9   4   20.92    1.28
   1   9   4   24.55    1.47
  -2  -9  -4   10.17    1.49
  -2  -9  -4   11.71    1.49
   2   9   4   10.90    1.07
   5 -10  -4    3.29    1.03
   5 -10  -4    1.50    1.08
  -5  10   4    3.13    0.77
   4 -10  -4   45.16    2.11
   4 -10  -4   45.12    2.13
  -4  10   4   43.96    2.02
   3 -10  -4   53.78    2.34
   3 -10  -4   52.66    2.22
  -3  10   4   49.94    2.14
   2 -10  -4   38.69    1.84
   2 -10  -4   34.84    2.00
  -2  10   4   36.56    1.72
   1 -10  -4   10.08    1.43
   1 -10  -4   10.71    1.14
  -1  10   4   10.61    1.02
   0 -10  -4    0.96    1.18
   0  10   4    1.84    0.68
  -1 -10  -4   -0.26    1.27
   1  10   4    0.36    0.65
   3 -11  -4   17.62    1.65
  -3  11   4   17.59    1.39
   2 -11  -4    6.97    1.41
  -2  11   4    6.63    0.96
   2  12  -5   18.09    1.56
  -2 -12   5   14.63    1.58
   1  12  -5   16.12    1.43
  -1 -12   5   16.62    1.58
   0  12  -5    0.57    0.83
   0 -12   5   -0.56    0.94
  -1  12  -5   18.09    1.43
   1 -12   5   15.74    1.53
  -2  12  -5   36.73    2.02
   2 -12   5   37.00    2.10
  -3  12  -5   41.67    2.11
   3 -12   5   39.98    2.20
   3  11  -5    1.06    0.77
  -3 -11   5    1.73    1.03
   2  11  -5    0.32    0.74
  -2 -11   5    0.56    1.01
   1  11  -5   10.20    1.19
  -1 -11   5   10.12    1.29
   0  11  -5   28.89    1.67
   0 -11   5   27.91    1.84
  -1  11  -5   37.69    1.96
   1 -11   5   37.51    2.07
  -2  11  -5   36.92    1.90
   2 -11   5   36.60    2.05
  -3  11  -5   11.88    1.25
   3 -11   5   14.64    1.43
  -4  11  -5    1.75    0.91
   4 -11   5    1.48    0.89
   5  10  -5   12.62    1.37
  -5 -10   5   13.15    1.61
   4  10  -5    0.48    0.80
  -4 -10   5    1.13    1.08
   3  10  -5   11.84    1.19
  -3 -10   5   14.15    1.54
   2  10  -5   59.84    2.47
  -2 -10   5   58.37    2.60
   1  10  -5   77.79    2.91
  -1 -10   5   77.34    3.05
   0  10  -5   34.11    1.81
   0 -10   5   36.83    1.88
   0 -10   5   36.61    1.90
  -1  10  -5   68.40    2.65
   1 -10   5   66.24    2.68
   1 -10   5   70.50    2.71
  -2  10  -5    7.10    0.96
   2 -10   5    5.28    0.99
  -3  10  -5   19.56    1.39
   3 -10   5   22.24    1.60
  -4  10  -5   36.00    1.91
   4 -10   5   33.77    1.93
  -5  10  -5   30.58    1.78
   5 -10   5   27.63    1.80
   5   9  -5   21.03    1.54
  -5  -9   5   19.09    1.69
   4   9  -5   27.12    1.58
  -4  -9   5   29.82    1.87
   3   9  -5   37.22    1.86
  -3  -9   5   41.38    2.18
   2   9  -5   71.26    2.67
   2   9  -5   74.21    2.69
  -2  -9   5   70.89    2.67
  -2  -9   5   74.19    2.87
   1   9  -5   21.67    0.99
   1   9  -5   21.05    1.41
   1   9  -5   19.42    1.35
  -1  -9   5   23.81    1.65
  -1  -9   5   21.25    1.51
   0   9  -5    1.34    0.65
   0   9  -5   -0.10    0.79
   0  -9   5   -0.10    0.91
   0  -9   5    0.65    0.85
  -1   9  -5    1.19    0.77
  -1   9  -5    1.73    0.72
   1  -9   5    2.30    0.98
   1  -9   5    1.32    0.79
  -2   9  -5   31.67    1.65
   2  -9   5   33.74    1.83
   2  -9   5   30.36    1.74
  -3   9  -5   43.13    1.98
   3  -9   5   41.83    1.98
  -4   9  -5   51.30    2.28
   4  -9   5   54.13    2.28
  -5   9  -5   21.44    1.58
   5  -9   5   20.78    1.56
  -6   9  -5    2.18    0.94
   6  -9   5    1.69    0.97
   6   8  -5   28.13    1.73
  -6  -8   5   29.03    1.90
   5   8  -5   49.94    2.21
  -5  -8   5   50.66    2.45
   4   8  -5   51.09    2.14
  -4  -8   5   48.63    2.28
   3   8  -5   95.53    3.13
   3   8  -5   94.98    3.20
  -3  -8   5   96.75    3.23
  -3  -8   5   94.25    3.45
   2   8  -5   14.02    1.15
   2   8  -5   14.35    1.13
   2   8  -5   11.67    1.10
  -2  -8   5   15.49    1.26
  -2  -8   5   15.01    1.33
   1   8  -5   31.11    1.56
   1   8  -5   28.36    1.48
   1   8  -5   29.17    2.01
   1   8  -5   30.76    1.21
   1   8  -5   32.98    1.70
  -1  -8   5   30.96    1.81
  -1  -8   5   28.60    1.73
  -1  -8   5   29.84    1.90
   0   8  -5  100.89    3.06
   0   8  -5  104.67    3.37
   0   8  -5  101.13    3.35
   0   8  -5  105.92    3.36
   0  -8   5  105.26    3.35
   0  -8   5  103.01    3.54
   0  -8   5  101.71    3.19
   0  -8   5  104.13    3.47
  -1   8  -5  181.24    5.15
  -1   8  -5  185.98    5.17
  -1   8  -5  179.70    5.35
   1  -8   5  186.48    5.23
   1  -8   5  173.27    5.44
   1  -8   5  182.82    5.00
  -2   8  -5   68.27    2.48
   2  -8   5   63.88    2.52
   2  -8   5   73.31    2.55
  -3   8  -5   49.94    2.06
   3  -8   5   49.58    2.15
   3  -8   5   47.55    2.12
  -4   8  -5   10.79    1.07
   4  -8   5   11.01    1.14
  -5   8  -5    3.40    0.86
   5  -8   5    2.92    0.92
  -6   8  -5    8.69    1.14
   6  -8   5    7.74    1.18
   7   7  -5   19.49    1.41
  -7  -7   5   14.71    1.55
   6   7  -5   43.70    1.96
  -6  -7   5   40.62    2.15
   5   7  -5   15.46    1.25
  -5  -7   5   16.95    1.43
   4   7  -5    0.75    0.60
   4   7  -5    2.44    0.77
  -4  -7   5    2.20    0.88
   3   7  -5   11.20    1.10
   3   7  -5   10.46    1.13
   3   7  -5   10.36    0.94
   3   7  -5   11.27    1.36
  -3  -7   5   10.11    1.12
  -3  -7   5    9.41    1.15
   2   7  -5   46.15    1.85
   2   7  -5   46.90    2.00
   2   7  -5   46.50    2.29
   2   7  -5   45.20    1.87
  -2  -7   5   44.14    2.29
  -2  -7   5   49.10    1.98
  -2  -7   5   46.96    2.09
   1   7  -5  118.90    3.66
   1   7  -5  115.22    3.24
   1   7  -5  111.47    3.56
   1   7  -5  115.79    3.52
   1   7  -5  116.66    3.43
  -1  -7   5  113.11    3.52
  -1  -7   5  109.20    3.52
  -1  -7   5  113.87    3.75
   0   7  -5  193.01    5.37
   0   7  -5  186.30    5.41
   0   7  -5  204.46    5.30
   0   7  -5  196.36    5.66
   0  -7   5  198.21    5.52
   0  -7   5  201.61    5.43
   0  -7   5  197.38    5.81
  -1   7  -5  100.51    3.03
  -1   7  -5   98.42    3.18
  -1   7  -5   95.50    3.10
  -1   7  -5   99.00    3.09
   1  -7   5   97.57    3.33
   1  -7   5   99.43    3.12
   1  -7   5   99.29    3.14
  -2   7  -5    3.65    0.92
  -2   7  -5    1.16    0.81
  -2   7  -5    1.96    0.67
   2  -7   5    3.72    1.01
   2  -7   5    2.73    0.76
   2  -7   5    3.21    0.92
  -3   7  -5    7.38    0.89
  -3   7  -5    6.14    0.74
   3  -7   5    7.20    1.05
   3  -7   5    9.41    1.02
  -4   7  -5    2.66    0.70
   4  -7   5    2.04    0.83
   4  -7   5    1.93    0.77
  -5   7  -5   24.69    1.45
   5  -7   5   20.80    1.48
  -6   7  -5   38.71    1.98
   6  -7   5   36.30    1.96
   7   6  -5   24.88    1.56
  -7  -6   5   22.89    1.66
   6   6  -5    4.70    0.85
  -6  -6   5    3.66    0.92
   5   6  -5    0.36    0.75
   5   6  -5    0.45    0.62
  -5  -6   5    0.78    0.78
   4   6  -5   61.95    2.25
   4   6  -5   64.48    2.39
   4   6  -5   61.00    2.28
   4   6  -5   63.84    2.28
  -4  -6   5   60.10    2.41
   3   6  -5  268.99    6.89
   3   6  -5  262.59    7.28
   3   6  -5  262.99    7.02
   3   6  -5  267.27    6.76
  -3  -6   5  259.56    6.88
  -3  -6   5  250.96    7.40
   2   6  -5  150.90    4.18
   2   6  -5  148.63    4.26
   2   6  -5  146.75    4.39
   2   6  -5  156.33    4.36
  -2  -6   5  143.51    4.54
  -2  -6   5  152.70    4.30
   1   6  -5  213.69    5.64
   1   6  -5  216.15    5.78
   1   6  -5  218.28    5.86
   1   6  -5  218.61    6.10
   1   6  -5  222.77    5.84
  -1  -6   5  216.86    5.79
  -1  -6   5  210.27    6.25
   0   6  -5   67.38    2.26
   0   6  -5   69.57    2.31
   0   6  -5   67.12    2.26
   0   6  -5   70.12    2.38
   0  -6   5   71.37    2.49
   0  -6   5   67.38    2.50
  -1   6  -5    5.39    0.87
  -1   6  -5    5.14    0.90
  -1   6  -5    5.17    0.69
   1  -6   5    3.88    0.93
   1  -6   5    4.60    0.72
   1  -6   5    5.38    0.84
  -2   6  -5   47.18    1.85
  -2   6  -5   45.55    1.97
  -2   6  -5   48.06    1.94
   2  -6   5   50.30    1.91
   2  -6   5   48.17    1.44
   2  -6   5   48.95    1.95
   2  -6   5   51.41    1.95
  -3   6  -5   91.67    3.01
  -3   6  -5   94.05    2.92
  -3   6  -5   96.40    2.97
   3  -6   5   85.03    3.04
   3  -6   5   90.98    3.03
   3  -6   5   97.99    2.99
  -4   6  -5   62.68    2.36
   4  -6   5   64.74    2.45
   4  -6   5   68.17    2.46
  -5   6  -5   30.60    1.63
   5  -6   5   27.96    1.58
  -6   6  -5   21.57    1.56
   6  -6   5   23.56    1.56
   8   5  -5    0.66    0.83
  -8  -5   5   -0.53    0.94
   7   5  -5    8.82    1.04
  -7  -5   5    9.71    1.21
   6   5  -5   36.59    1.75
   6   5  -5   41.60    1.77
  -6  -5   5   36.85    1.84
   5   5  -5   54.29    2.05
   5   5  -5   54.03    2.04
   5   5  -5   52.76    2.23
   5   5  -5   53.81    2.05
  -5  -5   5   51.50    2.13
   4   5  -5  149.50    4.26
   4   5  -5  151.86    4.16
   4   5  -5  151.26    4.40
   4   5  -5  152.71    4.30
  -4  -5   5  141.04    4.46
   3   5  -5   84.48    2.58
   3   5  -5   80.41    2.60
   3   5  -5   81.37    2.57
   3   5  -5   80.72    2.59
  -3  -5   5   82.90    2.63
  -3  -5   5   79.33    2.66
  -3  -5   5   82.06    2.77
  -3  -5   5   70.79    2.68
   2   5  -5   18.89    1.04
   2   5  -5   17.56    1.10
   2   5  -5   19.12    1.15
   2   5  -5   19.12    1.30
   2   5  -5   19.26    1.25
  -2  -5   5   19.59    1.26
  -2  -5   5   20.80    1.26
  -2  -5   5   19.46    1.42
   1   5  -5    8.69    0.76
   1   5  -5   10.53    0.78
   1   5  -5    8.15    0.85
   1   5  -5    7.92    0.70
   1   5  -5    8.17    0.90
  -1  -5   5    6.83    0.86
  -1  -5   5    7.00    0.80
  -1  -5   5    7.91    0.95
   0   5  -5    2.70    0.70
   0   5  -5    1.76    0.56
   0   5  -5    1.77    0.45
   0   5  -5    2.76    0.67
   0  -5   5    0.80    0.72
   0  -5   5    1.13    0.61
   0  -5   5    1.69    0.62
  -1   5  -5   34.53    1.42
  -1   5  -5   33.69    1.49
  -1   5  -5   36.26    1.48
   1  -5   5   37.61    1.64
   1  -5   5   34.90    1.16
   1  -5   5   36.76    1.61
  -2   5  -5  172.12    5.03
  -2   5  -5  175.64    4.72
  -2   5  -5  173.24    4.70
   2  -5   5  181.29    4.83
   2  -5   5  179.20    5.15
   2  -5   5  186.48    4.76
  -3   5  -5  181.75    4.93
  -3   5  -5  186.78    5.30
  -3   5  -5  182.40    4.91
   3  -5   5  189.17    4.92
   3  -5   5  178.38    5.32
   3  -5   5  189.47    5.12
  -4   5  -5   40.00    1.68
  -4   5  -5   40.78    1.77
   4  -5   5   39.47    1.76
   4  -5   5   37.28    1.71
  -5   5  -5   12.92    1.13
   5  -5   5   13.44    1.14
  -6   5  -5    0.85    0.79
  -6   5  -5    1.38    0.82
   6  -5   5    1.76    0.82
  -7   5  -5   24.29    1.70
  -7   5  -5   20.66    1.66
   7  -5   5   20.40    1.49
   8   4  -5   18.08    1.37
  -8  -4   5   19.78    1.59
   7   4  -5   99.14    3.23
  -7  -4   5   93.34    3.38
   6   4  -5   59.78    2.11
   6   4  -5   60.16    2.18
   6   4  -5   60.49    2.18
  -6  -4   5   53.80    2.24
   5   4  -5  110.20    3.21
   5   4  -5  109.89    3.30
   5   4  -5  110.73    3.39
   5   4  -5  112.31    3.32
  -5  -4   5  106.82    3.50
   4   4  -5   57.15    1.97
   4   4  -5   53.37    1.90
   4   4  -5   53.04    2.07
   4   4  -5   54.70    1.91
  -4  -4   5   49.16    1.95
  -4  -4   5   53.54    2.03
   3   4  -5    0.40    0.40
   3   4  -5    1.45    0.57
   3   4  -5   -0.20    0.74
   3   4  -5    1.27    0.68
  -3  -4   5    1.28    0.66
  -3  -4   5    0.64    0.50
   2   4  -5   25.67    1.09
   2   4  -5   21.51    1.30
   2   4  -5   24.31    1.21
   2   4  -5   24.69    1.11
   2   4  -5   24.76    1.20
  -2  -4   5   23.94    1.34
  -2  -4   5   26.52    1.16
  -2  -4   5   23.67    1.22
  -2  -4   5   24.86    1.24
   1   4  -5  295.38    7.82
   1   4  -5  294.97    7.83
   1   4  -5  293.72    7.37
   1   4  -5  292.08    7.28
   1   4  -5  285.68    7.49
  -1  -4   5  303.33    8.02
  -1  -4   5  276.02    7.28
  -1  -4   5  306.61    7.89
  -1  -4   5  291.57    7.58
   0   4  -5  129.06    3.62
   0   4  -5  131.64    3.73
   0   4  -5  131.52    3.53
   0  -4   5  133.79    3.76
   0  -4   5  127.73    3.59
   0  -4   5  128.18    3.88
   0  -4   5  137.25    3.63
   0  -4   5  133.24    3.65
  -1   4  -5  149.61    3.93
  -1   4  -5  150.22    4.01
  -1   4  -5  145.35    4.19
   1  -4   5  150.99    4.01
   1  -4   5  148.24    4.07
   1  -4   5  150.95    4.33
   1  -4   5  153.05    4.09
  -2   4  -5  172.64    4.86
  -2   4  -5  172.84    4.54
  -2   4  -5  174.38    4.56
   2  -4   5  174.62    4.70
   2  -4   5  168.60    4.93
   2  -4   5  176.56    4.54
  -3   4  -5   11.43    0.87
  -3   4  -5   11.65    1.01
  -3   4  -5   11.88    0.86
   3  -4   5   12.37    1.01
   3  -4   5   12.00    0.99
  -4   4  -5   31.20    1.40
  -4   4  -5   31.25    1.70
  -4   4  -5   31.23    1.49
   4  -4   5   30.09    1.45
  -5   4  -5   45.52    1.97
  -5   4  -5   49.95    2.00
   5  -4   5   44.82    1.92
  -6   4  -5   41.03    1.91
  -6   4  -5   42.81    1.99
   6  -4   5   38.28    1.85
  -7   4  -5   11.06    1.27
   7  -4   5   10.95    1.20
   8   3  -5   34.05    1.74
  -8  -3   5   33.61    1.81
   7   3  -5   49.58    1.95
   7   3  -5   48.10    1.92
  -7  -3   5   48.56    2.06
   6   3  -5   19.93    1.19
   6   3  -5   20.50    1.36
   6   3  -5   21.41    1.30
   6   3  -5   19.89    1.16
  -6  -3   5   19.90    1.28
   5   3  -5    4.22    0.75
   5   3  -5    3.44    0.74
   5   3  -5    5.58    0.66
   5   3  -5    4.16    0.88
  -5  -3   5    5.06    0.76
   4   3  -5   54.25    1.85
   4   3  -5   53.77    1.86
   4   3  -5   56.06    1.95
   4   3  -5   53.47    1.82
  -4  -3   5   53.73    1.93
  -4  -3   5   52.62    1.90
   3   3  -5   37.99    1.64
   3   3  -5   38.85    1.51
   3   3  -5   37.23    1.37
   3   3  -5   40.54    1.38
   3   3  -5   37.39    1.45
  -3  -3   5   37.25    1.49
  -3  -3   5   39.55    1.45
  -3  -3   5   40.13    1.45
   2   3  -5  162.98    4.48
   2   3  -5  175.18    4.67
   2   3  -5  174.21    4.41
   2   3  -5  173.95    4.87
   2   3  -5  172.52    4.68
   2   3  -5  174.71    4.43
  -2  -3   5  168.69    4.79
  -2  -3   5  173.36    4.60
  -2  -3   5  172.35    4.76
   1   3  -5  247.99    6.44
   1   3  -5  238.76    6.53
   1   3  -5  234.27    6.37
   1   3  -5  245.31    5.98
   1   3  -5  243.22    6.06
  -1  -3   5  243.58    6.47
  -1  -3   5  235.60    6.56
  -1  -3   5  238.15    6.21
   0   3  -5   72.24    2.10
   0   3  -5   71.37    2.23
   0   3  -5   66.70    2.14
   0   3  -5   71.18    2.05
   0  -3   5   71.33    2.16
   0  -3   5   68.76    2.25
   0  -3   5   71.39    2.08
   0  -3   5   75.51    2.16
  -1   3  -5  139.36    3.84
  -1   3  -5  138.24    3.62
  -1   3  -5  138.67    3.66
   1  -3   5  138.83    3.87
   1  -3   5  135.41    3.95
   1  -3   5  138.96    3.69
  -2   3  -5    1.60    0.61
  -2   3  -5    2.30    0.53
  -2   3  -5    2.14    0.46
   2  -3   5    1.26    0.61
   2  -3   5    1.33    0.52
  -3   3  -5   38.57    1.51
  -3   3  -5   40.13    1.55
  -3   3  -5   38.60    1.61
   3  -3   5   37.47    1.55
   3  -3   5   42.92    1.62
  -4   3  -5  109.15    3.23
  -4   3  -5  110.79    3.14
  -4   3  -5  106.50    3.35
  -4   3  -5  109.30    3.36
   4  -3   5  105.50    3.36
  -5   3  -5  112.73    3.52
   5  -3   5  107.49    3.51
  -6   3  -5   24.15    1.46
   6  -3   5   21.99    1.39
  -7   3  -5    4.71    1.03
   7  -3   5    3.73    0.90
  -8  -2   5   11.10    1.13
   7   2  -5    4.79    0.86
   7   2  -5    4.29    0.70
   7   2  -5    3.39    0.75
  -7  -2   5    4.31    0.77
   6   2  -5   12.95    1.07
   6   2  -5   11.27    1.07
   6   2  -5   10.06    0.88
   6   2  -5   12.68    0.99
   6   2  -5   10.77    0.87
  -6  -2   5   12.20    1.00
   5   2  -5  191.23    5.15
   5   2  -5  183.78    4.94
   5   2  -5  186.82    4.89
   5   2  -5  185.18    4.85
   5   2  -5  184.92    4.85
  -5  -2   5  182.29    5.24
   4   2  -5  183.91    4.91
   4   2  -5  190.48    4.84
   4   2  -5  187.95    5.12
   4   2  -5  189.70    4.83
  -4  -2   5  189.44    5.04
  -4  -2   5  195.69    5.23
  -4  -2   5  183.77    5.20
   3   2  -5  186.86    4.95
   3   2  -5  185.33    4.73
   3   2  -5  186.69    4.95
   3   2  -5  187.49    5.39
   3   2  -5  185.15    4.71
   3   2  -5  179.98    4.79
   3   2  -5  192.19    5.01
  -3  -2   5  193.48    5.12
  -3  -2   5  184.07    4.92
  -3  -2   5  190.29    5.10
   2   2  -5  340.15    8.22
   2   2  -5  336.10    9.13
   2   2  -5  336.96    8.77
   2   2  -5  343.82    8.21
   2   2  -5  345.64    8.76
  -2  -2   5  340.94    8.91
  -2  -2   5  336.38    8.54
  -2  -2   5  333.34    8.90
   1   2  -5   49.56    1.58
   1   2  -5   51.53    1.78
   1   2  -5   49.27    1.50
   1   2  -5   50.34    1.45
   1   2  -5   47.43    1.41
  -1  -2   5   51.20    1.51
  -1  -2   5   51.28    1.65
  -1  -2   5   50.86    1.54
   0   2  -5   80.57    2.25
   0   2  -5   81.91    2.36
   0   2  -5   81.05    2.21
   0   2  -5   80.38    2.30
   0  -2   5   83.12    2.32
   0  -2   5   79.52    2.46
  -1   2  -5  278.23    6.96
  -1   2  -5  278.54    6.98
  -1   2  -5  292.67    7.58
  -1   2  -5  283.72    7.48
   1  -2   5  295.70    7.54
   1  -2   5  278.52    7.59
  -2   2  -5  185.03    5.08
  -2   2  -5  184.08    5.08
  -2   2  -5  185.28    4.73
  -2   2  -5  189.33    4.78
   2  -2   5  187.40    5.16
  -3   2  -5   53.34    1.81
  -3   2  -5   49.54    1.73
  -3   2  -5   54.80    1.92
  -3   2  -5   48.72    1.82
   3  -2   5   48.81    1.80
  -4   2  -5   53.30    1.99
  -4   2  -5   53.66    1.84
  -4   2  -5   52.94    2.10
   4  -2   5   54.71    2.02
  -5   2  -5    4.94    0.83
   5  -2   5    6.22    0.82
  -6   2  -5    1.85    0.81
   6  -2   5    0.27    0.65
  -7   2  -5    1.55    0.92
   7  -2   5   -0.24    0.78
  -9  -1   5    4.23    0.91
   8   1  -5   13.03    1.03
  -8  -1   5   12.79    1.16
   7   1  -5    7.09    1.00
   7   1  -5    6.49    0.79
   7   1  -5    8.31    0.91
   7   1  -5    5.49    1.00
   7   1  -5    6.34    0.73
  -7  -1   5    6.85    0.83
   6   1  -5   67.62    2.15
   6   1  -5   69.56    2.22
   6   1  -5   69.08    2.29
   6   1  -5   67.50    2.20
  -6  -1   5   65.85    2.32
   5   1  -5  128.64    3.42
   5   1  -5  133.10    3.57
   5   1  -5  120.91    3.40
   5   1  -5  128.45    3.48
   5   1  -5  123.20    4.14
  -5  -1   5  121.32    3.65
   4   1  -5  188.53    4.94
   4   1  -5  190.72    5.70
   4   1  -5  200.28    5.18
   4   1  -5  193.38    4.92
   4   1  -5  196.75    5.13
   4   1  -5  189.72    4.89
  -4  -1   5  199.35    5.12
  -4  -1   5  202.25    5.33
  -4  -1   5  193.55    5.30
   3   1  -5   97.32    3.19
   3   1  -5   97.60    2.59
   3   1  -5   98.88    2.59
   3   1  -5   95.86    2.62
  -3  -1   5  101.04    2.81
  -3  -1   5  103.10    2.74
  -3  -1   5   99.54    2.77
   2   1  -5   32.04    1.46
   2   1  -5   31.59    1.03
   2   1  -5   32.60    1.07
  -2  -1   5   29.29    1.03
  -2  -1   5   33.80    1.08
  -2  -1   5   33.31    1.05
   1   1  -5   93.50    2.45
   1   1  -5   94.94    2.38
   1   1  -5   94.12    2.89
  -1  -1   5   91.72    2.63
  -1  -1   5   96.85    2.55
   0   1  -5  217.39    5.30
   0   1  -5  216.56    5.36
   0   1  -5  213.31    5.61
   0  -1   5  227.44    5.74
   0  -1   5  216.41    5.82
  -1   1  -5  473.80   12.55
  -1   1  -5  493.59   12.62
  -1   1  -5  498.31   11.64
  -1   1  -5  472.94   11.63
   1  -1   5  471.05   12.65
   1  -1   5  508.63   12.63
  -2   1  -5   64.08    1.99
  -2   1  -5   64.41    1.98
  -2   1  -5   61.24    1.87
   2  -1   5   66.38    2.01
   2  -1   5   61.22    2.01
  -3   1  -5   18.05    1.02
  -3   1  -5   17.90    1.28
  -3   1  -5   17.32    1.04
   3  -1   5   17.14    0.96
  -4   1  -5    1.31    0.58
  -4   1  -5    1.62    0.83
  -4   1  -5    2.34    0.64
   4  -1   5    2.09    0.60
  -5   1  -5    3.63    0.77
  -5   1  -5    4.85    1.02
   5  -1   5    2.90    0.70
  -6   1  -5   22.50    1.48
   6  -1   5   19.46    1.30
   9   0  -5   20.68    2.02
  -9   0   5   23.36    1.48
   8   0  -5   32.21    1.53
   8   0  -5   29.04    1.37
   8   0  -5   27.71    2.10
  -8   0   5   30.67    1.57
   7   0  -5   69.83    2.41
   7   0  -5   68.53    2.25
   7   0  -5   60.23    2.89
   7   0  -5   71.00    2.22
   7   0  -5   67.19    2.13
  -7   0   5   66.29    2.37
   6   0  -5   80.03    3.25
   6   0  -5   90.02    2.67
   6   0  -5   86.99    2.53
   6   0  -5   80.42    2.43
   6   0  -5   84.93    2.53
  -6   0   5   84.79    2.70
   5   0  -5   52.21    1.54
   5   0  -5   49.80    1.48
   5   0  -5   50.08    1.74
   5   0  -5   49.21    1.64
   5   0  -5   51.14    1.52
   5   0  -5   50.13    2.30
  -5   0   5   53.02    1.73
  -5   0   5   49.33    1.71
   4   0  -5    0.43    0.49
   4   0  -5    0.27    0.43
   4   0  -5   -0.67    0.75
  -4   0   5   -0.02    0.28
  -4   0   5   -0.05    0.29
   3   0  -5  225.48    6.38
   3   0  -5  226.23    5.45
   3   0  -5  218.52    5.48
  -3   0   5  229.04    5.71
  -3   0   5  232.18    5.91
  -3   0   5  225.18    5.95
   2   0  -5  344.34    7.95
   2   0  -5  346.41    7.93
   2   0  -5  295.44    9.00
  -2   0   5  336.66    8.57
  -2   0   5  342.31    8.54
   1   0  -5  354.44    9.67
   1   0  -5  354.18    8.52
   1   0  -5  362.14    8.54
  -1   0   5  357.57    9.21
  -1   0   5  364.90    9.21
   0   0  -5  246.42    6.00
   0   0  -5  241.95    6.01
   0   0   5  253.60    6.55
   0   0   5  255.47    6.50
  -1   0  -5   30.12    1.15
  -1   0  -5   27.53    0.97
  -1   0  -5   32.20    1.05
  -1   0  -5   32.35    1.07
   1   0   5   33.55    1.10
   1   0   5   32.69    1.12
  -2   0  -5   21.15    0.97
  -2   0  -5   21.35    0.99
  -2   0  -5   21.61    1.18
   2   0   5   23.16    1.01
   2   0   5   25.41    1.02
  -3   0  -5   21.32    1.13
  -3   0  -5   25.29    1.39
  -3   0  -5   21.90    1.11
   3   0   5   20.22    1.08
  -4   0  -5   60.11    2.00
  -4   0  -5   59.06    2.11
  -4   0  -5   59.82    2.20
   4   0   5   57.54    2.09
  -5   0  -5   20.71    1.33
  -5   0  -5   20.45    1.43
   5   0   5   19.07    1.19
  -6   0  -5   20.85    1.48
   6   0   5   20.25    1.38
   9  -1  -5   16.53    1.84
  -9   1   5   20.16    1.34
   8  -1  -5   25.86    1.43
   8  -1  -5   23.04    2.02
  -8   1   5   24.99    1.40
   7  -1  -5    7.28    0.81
   7  -1  -5    7.95    0.96
   7  -1  -5    5.69    1.23
   7  -1  -5    8.07    0.66
  -7   1   5    7.51    0.79
   6  -1  -5   19.89    1.08
   6  -1  -5   19.45    0.82
   6  -1  -5   17.28    0.78
   6  -1  -5   20.01    0.79
   6  -1  -5   18.79    1.28
   6  -1  -5   18.31    1.59
  -6   1   5   19.92    1.03
   5  -1  -5    2.89    0.68
   5  -1  -5    3.84    0.99
   5  -1  -5    2.12    0.55
  -5   1   5    3.88    0.47
  -5   1   5    3.32    0.45
  -5   1   5    3.45    0.46
   4  -1  -5   95.13    3.33
   4  -1  -5   97.88    2.54
   4  -1  -5   97.14    2.58
  -4   1   5   98.90    2.72
  -4   1   5  100.32    2.75
   3  -1  -5  378.78    9.19
   3  -1  -5  387.50    9.20
   3  -1  -5  374.30   10.44
  -3   1   5  385.71    9.89
  -3   1   5  386.73    9.92
  -3   1   5  394.28    9.51
   2  -1  -5  205.19    5.82
   1  -1  -5  103.34    3.23
   0  -1  -5    0.24    0.28
   0  -1  -5    0.48    0.34
   0   1   5    0.20    0.23
  -1  -1  -5    3.48    0.54
  -1  -1  -5    3.27    0.43
   1   1   5    4.00    0.40
   1   1   5    3.65    0.39
   1   1   5    3.64    0.39
  -2  -1  -5   65.79    2.07
  -2  -1  -5   62.79    2.00
  -2  -1  -5   65.15    1.92
   2   1   5   72.01    2.11
   2   1   5   62.27    2.05
  -3  -1  -5  197.26    5.20
  -3  -1  -5  197.33    5.49
  -3  -1  -5  197.92    5.08
   3   1   5  197.84    5.52
  -4  -1  -5   92.21    2.94
  -4  -1  -5   97.24    2.80
  -4  -1  -5   93.72    2.99
   4   1   5   91.59    2.98
  -5  -1  -5   27.68    1.51
   5   1   5   25.65    1.42
   6   1   5    9.34    1.06
   9  -2  -5    4.41    1.38
  -9   2   5    6.86    0.97
   8  -2  -5    0.50    1.22
   8  -2  -5    0.93    0.75
  -8   2   5    1.16    0.62
   7  -2  -5   36.61    2.23
   7  -2  -5   43.24    1.77
   7  -2  -5   42.96    1.59
  -7   2   5   40.53    1.63
  -7   2   5   39.30    1.63
   6  -2  -5  151.79    3.90
   6  -2  -5  152.56    3.97
   6  -2  -5  142.71    4.79
  -6   2   5  141.54    4.18
   5  -2  -5  166.51    4.30
   5  -2  -5  168.43    4.36
  -5   2   5  177.69    4.68
  -5   2   5  171.07    4.67
   4  -2  -5  138.37    3.51
   4  -2  -5  138.83    4.38
   4  -2  -5  140.73    3.49
  -4   2   5  140.05    3.77
  -4   2   5  143.32    3.78
   2  -2  -5    0.42    0.67
   0  -2  -5  137.02    3.40
   0  -2  -5  134.03    3.34
   0   2   5  137.20    3.66
   0   2   5  136.22    3.63
  -1  -2  -5   81.92    2.34
  -1  -2  -5   81.97    2.22
   1   2   5   84.86    2.43
   1   2   5   81.38    2.39
  -2  -2  -5  127.99    3.53
  -2  -2  -5  129.02    3.61
  -2  -2  -5  126.83    3.41
   2   2   5  133.46    3.72
   2   2   5  125.68    3.69
   2   2   5  134.11    3.74
  -3  -2  -5  101.90    2.86
  -3  -2  -5  101.51    3.07
  -3  -2  -5   99.82    3.03
   3   2   5   97.85    3.07
  -4  -2  -5    7.49    0.85
  -4  -2  -5    6.79    0.79
  -4  -2  -5    7.21    0.98
   4   2   5    6.30    0.76
   5   2   5    1.97    0.65
   6   2   5   12.90    1.20
   9  -3  -5    2.80    1.27
  -9   3   5    3.64    0.81
   8  -3  -5   30.67    2.16
   8  -3  -5   34.14    1.54
  -8   3   5   30.66    1.50
  -8   3   5   31.14    1.52
   7  -3  -5   81.21    3.39
   7  -3  -5   87.48    2.68
   7  -3  -5   84.18    2.50
  -7   3   5   76.99    2.64
   6  -3  -5   60.51    2.74
   6  -3  -5   68.44    2.15
   6  -3  -5   66.40    1.99
  -6   3   5   67.16    2.14
   5  -3  -5   30.99    1.94
   5  -3  -5   33.40    1.34
   5  -3  -5   32.43    1.19
  -5   3   5   34.80    1.21
  -5   3   5   35.53    1.23
   4  -3  -5   12.79    0.79
   4  -3  -5   13.99    1.28
   4  -3  -5   12.11    0.64
  -4   3   5   13.66    0.60
  -4   3   5   12.33    0.59
   3  -3  -5   13.28    1.13
   2  -3  -5   23.39    1.45
   1  -3  -5  260.21    6.23
   1  -3  -5  257.22    6.17
  -1   3   5  261.57    6.71
  -1   3   5  266.46    6.78
   0  -3  -5  157.33    3.94
   0  -3  -5  160.00    4.04
   0   3   5  160.70    4.28
   0   3   5  163.37    4.35
  -1  -3  -5  163.64    4.16
  -1  -3  -5  163.00    4.28
   1   3   5  164.07    4.51
   1   3   5  168.32    4.56
  -2  -3  -5   54.85    1.61
  -2  -3  -5   53.00    1.73
  -2  -3  -5   50.05    1.93
   2   3   5   51.66    1.81
  -3  -3  -5    0.04    0.54
  -3  -3  -5    0.73    0.81
  -3  -3  -5    1.23    0.59
   3   3   5    0.27    0.47
  -4  -3  -5   21.16    1.57
   4   3   5   18.49    1.17
   5   3   5   45.96    2.00
   9  -4  -5   34.17    2.39
   9  -4  -5   39.57    1.89
  -9   4   5   36.39    1.79
  -9   4   5   35.67    1.77
   8  -4  -5   32.24    2.31
   8  -4  -5   31.54    1.49
  -8   4   5   29.10    1.46
   7  -4  -5   17.24    1.63
   7  -4  -5   20.64    1.31
   7  -4  -5   20.76    1.17
  -7   4   5   19.65    1.08
   6  -4  -5    2.16    0.57
   6  -4  -5    1.52    0.96
   6  -4  -5    2.52    0.70
  -6   4   5    1.90    0.47
   5  -4  -5   47.35    1.69
   5  -4  -5   48.45    1.52
   5  -4  -5   47.58    2.26
  -5   4   5   49.32    1.60
  -5   4   5   47.74    1.58
   4  -4  -5  164.53    4.14
   4  -4  -5  163.37    5.04
   4  -4  -5  163.93    4.05
  -4   4   5  160.57    4.43
  -4   4   5  164.63    4.27
  -4   4   5  168.09    4.39
   3  -4  -5  119.37    3.87
   3  -4  -5  118.19    3.00
   3  -4  -5  120.77    2.93
  -3   4   5  121.00    3.08
  -3   4   5  122.93    3.18
  -3   4   5  119.50    3.22
   2  -4  -5  129.82    3.25
   2  -4  -5  137.51    3.26
   2  -4  -5  137.42    4.26
  -2   4   5  135.43    3.53
  -2   4   5  137.65    3.54
   1  -4  -5   97.77    2.50
   1  -4  -5  100.87    2.67
  -1   4   5  102.66    2.86
  -1   4   5   99.47    2.71
   0  -4  -5   25.77    0.97
   0  -4  -5   25.65    1.26
   0   4   5   25.40    0.97
   0   4   5   28.22    1.16
  -1  -4  -5   -0.83    0.48
  -1  -4  -5    0.63    0.79
  -1  -4  -5    1.29    0.79
   1   4   5    0.99    0.47
   1   4   5   -0.13    0.37
  -2  -4  -5   61.11    1.94
  -2  -4  -5   61.08    2.14
   2   4   5   58.96    2.02
  -3  -4  -5   26.03    1.25
  -3  -4  -5   27.91    1.63
   3   4   5   23.39    1.24
  -4  -4  -5   33.12    1.88
   4   4   5   28.02    1.46
   5   4   5   19.07    1.35
   8  -5  -5    4.41    1.35
   8  -5  -5    3.57    0.81
  -8   5   5    3.66    0.70
   7  -5  -5    5.04    1.27
   7  -5  -5    4.60    0.88
   7  -5  -5    4.92    0.78
  -7   5   5    6.44    0.72
   6  -5  -5   13.50    0.92
   6  -5  -5   15.13    1.13
   6  -5  -5   12.70    1.36
  -6   5   5   12.71    0.82
   5  -5  -5   82.52    2.25
   5  -5  -5   84.25    3.14
   5  -5  -5   77.65    2.37
  -5   5   5   82.32    2.42
  -5   5   5   75.24    2.42
   4  -5  -5  124.56    4.10
   4  -5  -5  118.87    3.25
   4  -5  -5  121.79    3.12
  -4   5   5  123.43    3.35
  -4   5   5  125.00    3.37
  -4   5   5  118.83    3.44
   3  -5  -5  139.42    3.65
   3  -5  -5  145.86    3.58
   3  -5  -5  146.27    4.56
  -3   5   5  150.68    3.88
  -3   5   5  141.82    3.93
  -3   5   5  142.73    3.78
   2  -5  -5   57.25    1.66
   2  -5  -5   53.96    1.56
  -2   5   5   57.68    1.74
  -2   5   5   55.44    1.66
  -2   5   5   57.72    1.62
   1  -5  -5    0.44    0.42
   1  -5  -5    0.43    0.75
  -1   5   5    0.29    0.50
  -1   5   5   -0.12    0.29
   0  -5  -5   23.85    1.33
   0  -5  -5   21.20    1.01
   0   5   5   21.86    0.96
   0   5   5   24.49    1.24
  -1  -5  -5  123.02    3.53
  -1  -5  -5  124.50    3.35
   1   5   5  123.37    3.62
   1   5   5  130.62    3.77
  -2  -5  -5  110.99    3.22
  -2  -5  -5  102.42    2.98
   2   5   5  103.98    3.22
  -3  -5  -5   24.85    1.32
  -3  -5  -5   26.32    1.69
   3   5   5   21.77    1.24
  -4  -5  -5   11.47    1.32
   4   5   5   10.38    1.03
   8  -6  -5   20.76    1.34
   8  -6  -5   24.60    1.98
  -8   6   5   20.46    1.25
   7  -6  -5   36.05    1.68
   7  -6  -5   33.50    2.14
   7  -6  -5   39.80    1.60
  -7   6   5   37.85    1.56
   6  -6  -5   54.88    1.83
   6  -6  -5   54.67    2.01
   6  -6  -5   57.03    2.54
  -6   6   5   54.31    1.93
   5  -6  -5   43.31    1.49
   5  -6  -5   43.04    2.15
   5  -6  -5   45.25    1.70
  -5   6   5   41.78    1.56
  -5   6   5   44.29    1.60
   4  -6  -5   52.27    2.28
   4  -6  -5   46.86    1.76
   4  -6  -5   48.93    1.57
  -4   6   5   53.26    1.68
  -4   6   5   47.69    1.72
  -4   6   5   52.38    1.78
   3  -6  -5    0.25    0.50
   3  -6  -5   -0.18    0.60
   3  -6  -5   -1.19    0.95
  -3   6   5    0.09    0.39
  -3   6   5    0.06    0.54
  -3   6   5    0.10    0.34
   2  -6  -5   86.60    2.59
   2  -6  -5   87.45    2.46
  -2   6   5   90.24    2.53
  -2   6   5   94.78    2.78
  -2   6   5   88.41    2.60
   1  -6  -5   84.68    2.65
   1  -6  -5   84.73    2.39
  -1   6   5   87.04    2.56
  -1   6   5   87.02    2.49
  -1   6   5   88.83    2.77
   0  -6  -5   73.58    2.11
   0  -6  -5   70.93    2.36
   0   6   5   70.31    2.24
  -1  -6  -5   53.64    2.02
  -1  -6  -5   55.58    1.83
   1   6   5   54.11    1.91
  -2  -6  -5    3.29    1.01
  -2  -6  -5    3.39    0.74
   2   6   5    4.46    0.68
  -3  -6  -5    2.03    1.07
   3   6   5   -0.02    0.58
   4   6   5    1.45    0.68
   8  -7  -5   21.42    1.86
   8  -7  -5   19.26    1.37
  -8   7   5   18.56    1.28
   7  -7  -5   36.94    2.30
   7  -7  -5   36.22    1.80
   7  -7  -5   34.82    1.55
  -7   7   5   34.69    1.59
   6  -7  -5    8.65    1.34
   6  -7  -5    8.57    1.01
   6  -7  -5    9.25    0.89
  -6   7   5    9.56    0.85
   5  -7  -5    0.28    0.58
   5  -7  -5   -0.08    0.73
   5  -7  -5    1.14    1.02
  -5   7   5    0.25    0.63
  -5   7   5   -0.06    0.45
   4  -7  -5    5.01    0.69
   4  -7  -5    3.50    0.99
   4  -7  -5    4.71    0.84
  -4   7   5    5.35    0.65
  -4   7   5    5.35    0.77
   3  -7  -5   68.03    2.10
   3  -7  -5   65.22    2.11
  -3   7   5   68.99    2.17
  -3   7   5   65.64    2.17
   2  -7  -5  112.80    3.30
   2  -7  -5  116.36    3.13
  -2   7   5  118.17    3.25
  -2   7   5  112.66    3.35
   1  -7  -5  100.09    3.00
   1  -7  -5   95.19    2.76
  -1   7   5   97.22    2.94
  -1   7   5  100.77    2.87
   0  -7  -5   20.46    1.48
   0  -7  -5   21.23    1.14
   0   7   5   23.37    1.11
   0   7   5   20.58    1.16
  -1  -7  -5    0.03    0.65
  -1  -7  -5   -1.91    0.88
   1   7   5   -0.15    0.49
  -2  -7  -5    1.89    1.12
  -2  -7  -5    2.62    0.75
   2   7   5    1.82    0.62
  -3  -7  -5   15.95    1.53
   3   7   5   14.80    1.18
   7  -8  -5   -0.48    0.80
   7  -8  -5    0.63    1.15
   7  -8  -5    0.76    0.96
  -7   8   5    0.41    0.60
   6  -8  -5   21.94    1.77
   6  -8  -5   24.50    1.54
   6  -8  -5   24.11    1.33
  -6   8   5   23.15    1.29
   5  -8  -5   33.09    2.13
   5  -8  -5   39.27    1.56
   5  -8  -5   37.20    1.72
  -5   8   5   34.92    1.58
   4  -8  -5   72.70    2.88
   4  -8  -5   70.46    2.43
   4  -8  -5   70.55    2.30
  -4   8   5   70.92    2.43
  -4   8   5   69.40    2.44
   3  -8  -5   47.56    1.85
   3  -8  -5   47.59    1.93
  -3   8   5   51.47    1.88
  -3   8   5   48.02    1.81
   2  -8  -5   11.52    1.16
   2  -8  -5   11.69    0.92
  -2   8   5   10.96    0.88
  -2   8   5   10.10    0.91
   1  -8  -5    2.18    0.71
   1  -8  -5    2.44    1.01
  -1   8   5    2.94    0.58
  -1   8   5    2.11    0.71
   0  -8  -5    8.66    1.21
   0  -8  -5    8.58    0.90
   0   8   5    8.12    0.82
   0   8   5    9.61    0.93
  -1  -8  -5   12.67    1.05
  -1  -8  -5   12.79    1.35
   1   8   5   12.02    1.01
   1   8   5    9.89    1.02
  -2  -8  -5   16.51    1.49
  -2  -8  -5   18.09    1.56
   2   8   5   15.45    1.15
   2   8   5   13.29    1.19
   6  -9  -5   41.05    2.39
   6  -9  -5   39.07    1.81
   6  -9  -5   44.24    2.05
  -6   9   5   39.15    1.81
   5  -9  -5   53.87    2.22
   5  -9  -5   54.90    2.08
   5  -9  -5   59.13    2.68
  -5   9   5   53.38    2.16
   4  -9  -5   11.35    1.16
   4  -9  -5   14.12    1.25
  -4   9   5   12.28    1.07
   3  -9  -5    0.16    0.93
   3  -9  -5    0.46    0.81
  -3   9   5   -0.09    0.53
   2  -9  -5    1.21    0.78
   2  -9  -5   -1.15    1.01
  -2   9   5    0.11    0.52
   1  -9  -5   15.38    1.12
   1  -9  -5   14.05    1.41
  -1   9   5   13.18    1.04
   0  -9  -5   39.35    2.07
   0  -9  -5   37.20    1.73
   0   9   5   37.42    1.70
  -1  -9  -5   23.91    1.77
   1   9   5   23.90    1.38
   5 -10  -5    0.06    1.00
   5 -10  -5    1.54    1.07
  -5  10   5    0.73    0.68
   4 -10  -5    6.66    1.21
   4 -10  -5    6.55    1.17
  -4  10   5    6.55    0.93
   3 -10  -5   13.65    1.26
   3 -10  -5   15.09    1.50
  -3  10   5   14.52    1.19
   2 -10  -5   18.54    1.34
   2 -10  -5   16.74    1.58
  -2  10   5   17.23    1.22
   1 -10  -5   18.25    1.31
   1 -10  -5   19.34    1.67
  -1  10   5   18.10    1.20
   2  12  -6   23.93    1.75
  -2 -12   6   24.91    1.94
   1  12  -6   28.96    1.78
  -1 -12   6   29.46    2.01
   0  12  -6    3.49    0.99
   0 -12   6    5.34    1.23
  -1  12  -6    1.95    0.90
   1 -12   6    2.39    1.06
  -2  12  -6    7.32    1.15
   2 -12   6    6.78    1.26
   3  11  -6    9.26    1.21
  -3 -11   6    9.46    1.45
   2  11  -6   10.25    1.24
  -2 -11   6   11.00    1.38
   1  11  -6    7.59    1.12
  -1 -11   6    6.52    1.24
   0  11  -6    5.26    1.02
   0 -11   6    5.23    1.17
  -1  11  -6   29.70    1.71
   1 -11   6   32.59    1.99
  -2  11  -6   51.13    2.30
   2 -11   6   47.73    2.33
  -3  11  -6   26.48    1.74
   3 -11   6   25.86    1.85
  -4  11  -6   10.38    1.31
   4 -11   6   12.10    1.42
   4  10  -6   11.05    1.24
  -4 -10   6   11.83    1.49
   3  10  -6    0.69    0.80
  -3 -10   6    0.79    1.04
   2  10  -6   22.99    1.52
  -2 -10   6   17.17    1.56
   1  10  -6   65.36    2.60
  -1 -10   6   62.45    2.73
   0  10  -6   45.97    2.08
   0 -10   6   42.50    2.13
  -1  10  -6   43.99    2.00
   1 -10   6   43.40    2.18
  -2  10  -6   18.60    1.35
   2 -10   6   19.28    1.50
  -3  10  -6    2.42    0.85
   3 -10   6    3.42    1.04
  -4  10  -6    5.45    1.04
   4 -10   6    3.65    1.07
  -5  10  -6    8.45    1.23
   5 -10   6    6.74    1.22
   5   9  -6   -0.31    0.75
  -5  -9   6    0.92    0.96
   4   9  -6    3.00    0.87
  -4  -9   6    2.28    1.04
   3   9  -6   24.59    1.49
  -3  -9   6   26.83    1.74
   2   9  -6   85.01    3.06
   2   9  -6   90.33    2.75
  -2  -9   6   83.26    3.23
   1   9  -6   57.20    2.27
   1   9  -6   60.66    2.35
  -1  -9   6   55.84    2.44
  -1  -9   6   56.77    2.41
   0   9  -6   29.80    1.54
   0   9  -6   27.04    1.55
   0  -9   6   30.14    1.73
   0  -9   6   32.40    1.83
  -1   9  -6   13.74    1.16
  -1   9  -6   14.00    1.18
   1  -9   6   12.73    1.24
   1  -9   6   12.22    1.27
  -2   9  -6    4.91    0.88
   2  -9   6    4.29    0.94
  -3   9  -6   31.88    1.65
   3  -9   6   30.46    1.82
  -4   9  -6   38.12    1.92
   4  -9   6   40.13    2.07
  -5   9  -6   36.33    1.96
   5  -9   6   29.10    1.81
   6   8  -6   11.45    1.24
  -6  -8   6   11.27    1.39
   5   8  -6   46.51    2.11
  -5  -8   6   46.83    2.30
   4   8  -6   41.66    1.85
  -4  -8   6   38.09    2.03
   3   8  -6  100.43    3.24
   3   8  -6   97.06    3.32
  -3  -8   6   98.57    3.50
   2   8  -6   54.76    2.22
   2   8  -6   49.27    2.09
   2   8  -6   50.92    2.14
   2   8  -6   55.57    1.92
  -2  -8   6   50.66    2.17
  -2  -8   6   51.40    2.36
   1   8  -6    4.60    0.98
   1   8  -6    5.51    0.81
   1   8  -6    5.19    0.53
   1   8  -6    4.13    0.90
  -1  -8   6    5.43    1.05
  -1  -8   6    3.76    1.01
   0   8  -6   16.77    1.33
   0   8  -6   22.57    1.34
   0   8  -6   16.94    1.28
   0   8  -6   17.86    1.44
   0  -8   6   20.98    1.54
   0  -8   6   22.63    1.52
  -1   8  -6   45.56    1.95
  -1   8  -6   46.86    1.97
   1  -8   6   50.37    2.07
   1  -8   6   43.47    2.05
  -2   8  -6   50.06    2.06
   2  -8   6   51.15    2.15
   2  -8   6   45.14    2.07
  -3   8  -6   32.85    1.64
   3  -8   6   33.37    1.80
  -4   8  -6   38.66    1.85
   4  -8   6   37.16    1.88
  -5   8  -6    0.27    0.79
   5  -8   6    1.25    0.90
  -6   8  -6    0.33    0.92
   6  -8   6    0.67    0.87
   7   7  -6    7.69    1.09
  -7  -7   6    7.20    1.24
   6   7  -6   58.39    2.41
  -6  -7   6   59.07    2.65
   5   7  -6   33.84    1.68
  -5  -7   6   32.79    1.82
   4   7  -6   26.14    1.51
   4   7  -6   26.96    1.63
   4   7  -6   25.88    1.38
  -4  -7   6   26.15    1.60
   3   7  -6    8.66    1.00
   3   7  -6    8.80    0.90
   3   7  -6   11.29    1.05
   3   7  -6    9.54    1.12
   3   7  -6    9.84    1.31
  -3  -7   6    7.76    0.77
  -3  -7   6    9.34    1.09
   2   7  -6    1.18    0.61
   2   7  -6   -0.82    0.96
   2   7  -6   -0.31    0.61
   2   7  -6    0.75    0.89
   2   7  -6    0.27    0.78
  -2  -7   6    1.67    0.83
  -2  -7   6   -0.14    0.29
  -2  -7   6    2.10    1.14
   1   7  -6   24.52    1.82
   1   7  -6   25.67    1.13
   1   7  -6   25.83    1.38
   1   7  -6   25.91    1.66
   1   7  -6   25.24    1.48
  -1  -7   6   24.43    1.55
  -1  -7   6   23.70    1.69
   0   7  -6  154.32    4.61
   0   7  -6  152.91    4.46
   0   7  -6  159.52    4.41
   0   7  -6  160.33    4.49
   0  -7   6  152.90    4.45
   0  -7   6  150.98    4.80
   0  -7   6  158.22    4.48
  -1   7  -6  113.61    3.38
  -1   7  -6  108.95    3.40
  -1   7  -6  109.44    3.45
   1  -7   6  100.55    3.59
   1  -7   6  111.03    3.42
   1  -7   6  107.09    3.38
  -2   7  -6   56.51    2.22
  -2   7  -6   53.48    2.06
  -2   7  -6   55.93    2.21
   2  -7   6   53.48    2.20
   2  -7   6   52.78    2.19
  -3   7  -6   44.36    1.89
   3  -7   6   42.81    1.91
   3  -7   6   39.84    1.87
  -4   7  -6    0.83    0.72
   4  -7   6    1.19    0.74
  -5   7  -6   20.58    1.52
   5  -7   6   23.82    1.59
  -6   7  -6   31.76    1.85
   6  -7   6   35.59    1.98
   7   6  -6   47.85    2.11
  -7  -6   6   44.43    2.29
   6   6  -6   30.52    1.63
  -6  -6   6   32.62    1.83
   5   6  -6   -0.64    0.70
   5   6  -6    0.37    0.61
   5   6  -6    1.18    0.83
  -5  -6   6    0.16    0.70
   4   6  -6    4.88    0.71
   4   6  -6    5.78    0.86
   4   6  -6    2.03    0.96
   4   6  -6    5.99    0.98
  -4  -6   6    3.59    0.92
  -4  -6   6    3.61    0.89
   3   6  -6  128.33    3.81
   3   6  -6  122.12    3.76
   3   6  -6  125.90    3.83
   3   6  -6  123.60    3.62
   3   6  -6  121.09    3.65
  -3  -6   6  124.49    3.74
  -3  -6   6  116.64    3.90
   2   6  -6   88.70    2.88
   2   6  -6   92.03    2.87
   2   6  -6   95.23    2.89
   2   6  -6   89.99    2.93
   2   6  -6   93.02    3.01
  -2  -6   6   92.53    2.96
  -2  -6   6   92.29    3.18
   1   6  -6   73.52    2.49
   1   6  -6   70.40    2.40
   1   6  -6   73.39    2.28
   1   6  -6   70.65    2.44
   1   6  -6   75.60    2.67
  -1  -6   6   78.14    2.52
  -1  -6   6   70.97    2.62
  -1  -6   6   72.33    2.65
   0   6  -6  115.32    3.44
   0   6  -6  112.37    3.26
   0   6  -6  115.89    3.42
   0  -6   6  108.14    3.35
   0  -6   6  109.23    3.42
   0  -6   6  106.31    3.56
  -1   6  -6    6.86    0.75
  -1   6  -6    6.43    0.99
  -1   6  -6    6.39    0.98
   1  -6   6    5.89    0.87
   1  -6   6    7.78    1.09
   1  -6   6    5.86    0.48
  -2   6  -6    0.39    0.80
  -2   6  -6   -0.28    0.89
  -2   6  -6    0.21    0.57
   2  -6   6    0.33    0.67
   2  -6   6    0.18    0.26
   2  -6   6    0.38    0.44
   2  -6   6    1.57    0.89
  -3   6  -6   11.54    1.00
  -3   6  -6   13.02    1.17
   3  -6   6   11.75    1.09
   3  -6   6   11.04    1.06
  -4   6  -6   43.59    1.86
   4  -6   6   43.90    1.94
  -5   6  -6   48.76    2.05
   5  -6   6   43.30    2.06
  -6   6  -6   28.00    1.67
   6  -6   6   29.05    1.78
  -8  -5   6   11.16    1.37
   7   5  -6    1.76    0.77
  -7  -5   6    1.11    0.81
   6   5  -6    1.73    0.67
   6   5  -6    0.80    0.84
   6   5  -6    0.48    0.74
  -6  -5   6    1.36    0.73
   5   5  -6   16.52    1.21
   5   5  -6   15.85    1.09
   5   5  -6   16.03    1.16
   5   5  -6   16.48    1.32
  -5  -5   6   15.10    1.17
   4   5  -6  157.92    4.44
   4   5  -6  157.00    4.50
   4   5  -6  160.86    4.64
   4   5  -6  166.44    4.53
  -4  -5   6  150.62    4.75
  -4  -5   6  165.69    4.64
   3   5  -6   99.97    3.01
   3   5  -6   97.57    3.26
   3   5  -6  100.81    3.08
   3   5  -6  100.69    3.06
   3   5  -6   97.81    3.04
  -3  -5   6  101.27    3.15
  -3  -5   6   98.42    3.24
   2   5  -6   44.53    1.81
   2   5  -6   41.53    1.65
   2   5  -6   44.67    1.68
   2   5  -6   45.88    1.78
   2   5  -6   43.87    1.97
  -2  -5   6   47.82    1.80
  -2  -5   6   44.20    1.84
   1   5  -6  103.74    3.05
   1   5  -6  105.77    3.21
   1   5  -6  106.43    3.09
   1   5  -6  101.63    3.03
   1   5  -6  106.42    3.13
  -1  -5   6   99.45    3.32
  -1  -5   6  105.29    3.16
   0   5  -6    9.97    0.80
   0   5  -6    9.79    0.95
   0   5  -6    9.42    1.03
   0  -5   6   10.38    0.84
   0  -5   6    9.63    0.94
   0  -5   6   10.07    0.86
  -1   5  -6   17.10    1.22
  -1   5  -6   17.61    0.96
  -1   5  -6   16.84    1.19
   1  -5   6   17.21    1.13
   1  -5   6   15.86    1.21
   1  -5   6   19.13    0.96
  -2   5  -6  165.83    4.44
  -2   5  -6  165.42    4.72
  -2   5  -6  166.12    4.50
   2  -5   6  157.41    4.82
   2  -5   6  165.69    4.62
  -3   5  -6  213.89    6.07
  -3   5  -6  214.76    5.66
  -3   5  -6  213.61    5.66
   3  -5   6  214.51    6.15
  -4   5  -6   58.76    2.16
   4  -5   6   52.31    2.13
  -5   5  -6   22.22    1.42
   5  -5   6   19.38    1.39
  -6   5  -6    3.59    0.96
  -6   5  -6    3.85    0.97
   6  -5   6    2.91    0.92
  -8  -4   6   -0.10    0.86
   7   4  -6   57.79    2.22
   7   4  -6   57.37    2.21
  -7  -4   6   57.34    2.41
   6   4  -6   54.36    2.02
   6   4  -6   57.56    2.08
   6   4  -6   57.43    2.14
  -6  -4   6   53.64    2.21
   5   4  -6   48.37    1.81
   5   4  -6   47.45    1.92
   5   4  -6   48.16    1.81
   5   4  -6   51.26    2.07
  -5  -4   6   49.11    1.95
   4   4  -6  116.33    3.40
   4   4  -6  118.89    3.87
   4   4  -6  116.85    3.38
   4   4  -6  119.87    3.46
   4   4  -6  117.46    3.48
  -4  -4   6  116.48    3.62
  -4  -4   6  119.24    3.50
   3   4  -6   26.79    1.24
   3   4  -6   29.04    1.38
   3   4  -6   26.44    1.50
   3   4  -6   25.50    1.31
   3   4  -6   27.72    1.21
  -3  -4   6   25.20    1.32
  -3  -4   6   25.32    1.41
   2   4  -6    0.07    0.36
   2   4  -6    0.71    0.57
   2   4  -6    0.51    0.75
   2   4  -6    0.18    0.68
   2   4  -6    0.60    0.49
  -2  -4   6    0.04    0.54
  -2  -4   6    1.17    0.65
  -2  -4   6    0.52    0.37
   1   4  -6   80.82    2.44
   1   4  -6   81.91    2.45
   1   4  -6   79.33    2.56
   1   4  -6   81.22    2.56
  -1  -4   6   81.97    2.48
  -1  -4   6   79.69    2.70
  -1  -4   6   86.31    2.56
   0   4  -6  184.18    4.69
   0   4  -6  175.89    4.78
   0   4  -6  176.50    4.94
   0  -4   6  180.91    4.86
   0  -4   6  186.62    5.04
   0  -4   6  179.43    5.16
  -1   4  -6  135.44    3.63
  -1   4  -6  128.42    3.55
  -1   4  -6  129.38    3.74
   1  -4   6  127.85    3.92
   1  -4   6  134.70    3.71
  -2   4  -6  161.59    4.58
  -2   4  -6  159.88    4.35
  -2   4  -6  163.43    4.36
   2  -4   6  156.59    4.68
   2  -4   6  165.91    4.50
  -3   4  -6   21.28    1.20
  -3   4  -6   22.05    1.37
  -3   4  -6   19.52    1.17
   3  -4   6   19.71    1.24
  -4   4  -6    2.23    0.81
  -4   4  -6    0.65    0.63
   4  -4   6    1.07    0.64
  -5   4  -6    0.43    0.68
  -5   4  -6    0.74    0.71
   5  -4   6    0.50    0.65
  -6   4  -6    5.42    1.00
   6  -4   6    4.52    0.90
  -8  -3   6   31.84    1.82
   7   3  -6   14.69    1.10
   7   3  -6   17.90    1.14
   7   3  -6   19.84    1.29
  -7  -3   6   17.80    1.32
   6   3  -6   47.20    1.79
   6   3  -6   45.96    1.87
   6   3  -6   45.74    1.75
   6   3  -6   49.89    1.77
  -6  -3   6   42.76    1.89
   5   3  -6   49.20    1.99
   5   3  -6   48.76    1.80
   5   3  -6   51.10    1.81
   5   3  -6   55.25    2.53
   5   3  -6   53.93    1.93
  -5  -3   6   50.85    1.95
   4   3  -6   13.08    0.84
   4   3  -6   14.70    0.92
   4   3  -6   12.69    1.00
   4   3  -6   15.38    1.30
   4   3  -6   12.60    0.97
  -4  -3   6   15.32    1.13
  -4  -3   6   14.45    0.98
   3   3  -6    4.06    0.75
   3   3  -6    4.67    0.78
   3   3  -6    3.45    0.51
   3   3  -6    3.74    0.74
   3   3  -6    4.89    0.48
  -3  -3   6    3.57    0.58
  -3  -3   6    3.81    0.51
  -3  -3   6    3.60    0.69
   2   3  -6  217.60    5.51
   2   3  -6  218.72    5.79
   2   3  -6  217.12    5.78
   2   3  -6  218.37    5.53
   2   3  -6  218.03    6.10
  -2  -3   6  210.83    5.99
  -2  -3   6  225.37    5.75
  -2  -3   6  219.26    5.94
   1   3  -6  487.84   11.91
   1   3  -6  506.92   12.74
   1   3  -6  487.60   13.00
   1   3  -6  480.75   11.81
   1   3  -6  488.01   12.69
  -1  -3   6  488.24   12.95
  -1  -3   6  496.47   12.30
  -1  -3   6  491.21   12.82
   0   3  -6  159.23    4.14
   0   3  -6  161.98    4.35
   0   3  -6  161.77    4.47
   0   3  -6  159.86    4.24
   0  -3   6  157.94    4.58
   0  -3   6  161.96    4.45
   0  -3   6  163.48    4.29
  -1   3  -6  118.08    3.32
  -1   3  -6  113.02    3.19
  -1   3  -6  114.47    3.23
   1  -3   6  117.62    3.48
   1  -3   6  123.05    3.39
  -2   3  -6   34.44    1.44
  -2   3  -6   34.90    1.54
  -2   3  -6   34.37    1.35
   2  -3   6   32.91    1.41
  -3   3  -6   30.73    1.41
  -3   3  -6   31.54    1.38
  -3   3  -6   31.04    1.63
  -3   3  -6   30.79    1.39
   3  -3   6   30.11    1.40
  -4   3  -6   43.72    1.77
  -4   3  -6   44.63    1.90
   4  -3   6   40.07    1.76
  -5   3  -6   53.70    2.15
   5  -3   6   50.67    2.09
   6  -3   6   19.52    1.43
  -8  -2   6   31.54    1.71
   7   2  -6   15.32    1.17
   7   2  -6   15.40    1.61
   7   2  -6   17.30    1.10
  -7  -2   6   15.07    1.17
   6   2  -6    1.24    0.65
   6   2  -6    0.66    0.50
   6   2  -6    0.14    0.95
   6   2  -6    0.74    0.79
   6   2  -6    0.95    0.58
  -6  -2   6    0.84    0.58
   5   2  -6   78.02    2.27
   5   2  -6   79.83    2.35
   5   2  -6   78.13    2.44
   5   2  -6   74.33    2.92
   5   2  -6   72.15    2.36
  -5  -2   6   77.30    2.50
   4   2  -6   73.48    2.30
   4   2  -6   76.86    2.33
   4   2  -6   75.69    2.14
   4   2  -6   80.22    2.24
   4   2  -6   77.04    2.79
   4   2  -6   78.75    2.18
  -4  -2   6   78.67    2.43
  -4  -2   6   79.49    2.43
  -4  -2   6   74.36    2.39
   3   2  -6  133.30    3.53
   3   2  -6  136.86    4.11
   3   2  -6  132.99    3.56
   3   2  -6  133.57    3.53
  -3  -2   6  140.66    3.71
  -3  -2   6  135.53    3.80
  -3  -2   6  132.53    3.79
   2   2  -6  264.60    7.34
   2   2  -6  264.78    6.53
   2   2  -6  266.50    6.54
  -2  -2   6  269.82    7.07
  -2  -2   6  272.62    6.80
  -2  -2   6  258.53    7.09
   1   2  -6  147.05    4.29
   1   2  -6  144.36    3.83
   1   2  -6  148.33    3.72
  -1  -2   6  151.93    3.86
  -1  -2   6  146.05    3.99
  -1  -2   6  142.86    4.13
   0   2  -6    9.42    0.61
   0   2  -6    8.24    0.72
   0   2  -6    8.77    0.45
   0   2  -6    8.86    0.45
   0   2  -6    8.03    0.65
   0  -2   6    8.68    0.71
   0  -2   6    9.47    0.58
  -1   2  -6   39.61    1.46
  -1   2  -6   38.46    1.43
  -1   2  -6   41.55    1.35
  -1   2  -6   41.53    1.36
   1  -2   6   42.58    1.53
   1  -2   6   43.13    1.43
  -2   2  -6   67.27    2.08
  -2   2  -6   66.51    2.14
  -2   2  -6   65.13    2.04
   2  -2   6   63.44    2.17
  -3   2  -6   20.68    1.12
  -3   2  -6   23.94    1.17
  -3   2  -6   21.52    1.33
   3  -2   6   23.13    1.21
  -4   2  -6   56.78    2.06
  -4   2  -6   57.61    2.16
   4  -2   6   51.92    2.07
  -5   2  -6   47.80    1.99
   5  -2   6   39.67    1.82
  -6   2  -6    4.98    0.98
   6  -2   6    4.65    0.87
   9   1  -6    5.14    1.44
  -9  -1   6    5.15    0.99
   8   1  -6    0.82    1.15
   8   1  -6    1.67    0.84
  -8  -1   6    1.60    0.73
   7   1  -6    0.69    0.77
   7   1  -6   -0.05    0.54
   7   1  -6    0.52    0.77
   7   1  -6    0.82    0.71
   7   1  -6    0.05    1.05
  -7  -1   6    0.20    0.58
   6   1  -6   48.51    1.57
   6   1  -6   48.06    1.84
   6   1  -6   47.37    1.74
   6   1  -6   47.51    1.60
   6   1  -6   49.16    2.50
   6   1  -6   48.91    1.90
  -6  -1   6   44.40    1.77
   5   1  -6  171.16    4.49
   5   1  -6  169.64    5.33
   5   1  -6  173.50    4.53
   5   1  -6  172.39    4.54
  -5  -1   6  162.04    4.79
  -5  -1   6  183.48    4.86
   4   1  -6  134.58    3.52
   4   1  -6  130.60    3.51
   4   1  -6  132.55    4.24
   4   1  -6  131.84    3.53
  -4  -1   6  139.05    3.80
  -4  -1   6  131.81    3.75
  -4  -1   6  140.20    3.68
   3   1  -6  199.15    5.04
   3   1  -6  206.22    5.11
   3   1  -6  204.56    5.94
  -3  -1   6  212.31    5.31
  -3  -1   6  205.86    5.47
  -3  -1   6  204.79    5.51
   2   1  -6   44.63    1.34
   2   1  -6   41.70    1.35
   2   1  -6   43.89    1.81
  -2  -1   6   44.27    1.39
  -2  -1   6   47.29    1.35
  -2  -1   6   47.16    1.38
   1   1  -6   12.50    0.68
   1   1  -6   11.02    0.94
   1   1  -6   11.27    0.81
  -1  -1   6   11.99    0.73
  -1  -1   6   11.56    0.52
   0   1  -6   98.76    2.67
   0   1  -6   98.75    2.61
   0  -1   6  101.04    2.78
   0  -1   6  101.31    2.88
  -1   1  -6  212.91    5.69
  -1   1  -6  210.09    5.34
  -1   1  -6  210.57    5.34
  -1   1  -6  210.34    5.62
   1  -1   6  212.67    5.80
   1  -1   6  227.33    5.77
  -2   1  -6  111.37    3.18
  -2   1  -6  111.28    3.03
  -2   1  -6  112.71    3.12
   2  -1   6  108.94    3.28
  -3   1  -6   60.23    1.99
  -3   1  -6   56.01    1.91
  -3   1  -6   57.84    2.04
   3  -1   6   56.60    2.03
  -4   1  -6   46.04    1.80
  -4   1  -6   45.56    1.69
  -4   1  -6   46.38    1.87
   4  -1   6   44.16    1.82
  -5   1  -6    0.83    0.72
   5  -1   6    0.59    0.60
   6  -1   6    8.08    1.02
   9   0  -6    9.38    1.56
  -9   0   6    9.47    1.10
   8   0  -6   31.76    1.58
   8   0  -6   28.01    2.10
  -8   0   6   29.24    1.49
   7   0  -6   58.96    2.17
   7   0  -6   54.00    2.68
   7   0  -6   58.57    2.00
  -7   0   6   55.10    2.07
   6   0  -6  141.41    3.80
   6   0  -6  140.47    3.72
   6   0  -6  130.98    4.62
  -6   0   6  133.68    3.98
   5   0  -6   67.41    2.82
   5   0  -6   64.26    2.07
   5   0  -6   65.31    2.00
  -5   0   6   64.83    2.08
  -5   0   6   68.27    2.12
   4   0  -6   11.15    0.81
   4   0  -6    9.52    1.11
   4   0  -6   10.70    0.76
  -4   0   6   12.10    0.82
  -4   0   6   10.26    0.66
  -4   0   6    9.93    0.61
   3   0  -6  106.67    2.75
   3   0  -6  109.57    2.81
  -3   0   6  111.03    2.90
  -3   0   6  112.51    2.96
  -3   0   6  111.34    3.01
   2   0  -6   93.06    2.24
   2   0  -6   92.26    2.23
   2   0  -6   91.19    2.23
   2   0  -6   85.97    2.98
  -2   0   6   90.90    2.41
  -2   0   6   92.17    2.40
   1   0  -6   19.78    0.69
   1   0  -6   20.45    0.83
   1   0  -6   16.54    1.36
  -1   0   6   19.38    0.79
  -1   0   6   19.68    0.64
   0   0  -6  127.24    3.26
   0   0  -6  126.12    3.23
   0   0   6  133.09    3.48
   0   0   6  127.36    3.53
  -1   0  -6   97.74    2.66
  -1   0  -6   96.73    2.71
   1   0   6  100.20    2.88
   1   0   6  103.61    2.86
  -2   0  -6   40.06    1.44
  -2   0  -6   41.08    1.60
  -2   0  -6   42.88    1.44
   2   0   6   43.26    1.54
  -3   0  -6    4.99    0.89
  -3   0  -6    4.76    0.69
  -3   0  -6    4.23    0.63
   3   0   6    4.74    0.63
  -4   0  -6    3.80    0.94
  -4   0  -6    3.51    0.71
   4   0   6    3.61    0.70
   5   0   6   20.19    1.31
   6   0   6   30.24    1.70
   9  -1  -6   24.40    2.18
  -9   1   6   24.50    1.50
   8  -1  -6   56.87    2.04
   8  -1  -6   49.37    2.72
  -8   1   6   55.39    2.13
   7  -1  -6   55.85    2.68
   7  -1  -6   58.91    2.13
   7  -1  -6   59.76    1.99
  -7   1   6   58.46    2.09
   6  -1  -6   11.13    0.81
   6  -1  -6    9.95    0.90
   6  -1  -6    9.10    1.28
  -6   1   6    8.79    0.73
   5  -1  -6    1.21    0.53
   5  -1  -6    2.11    0.96
   5  -1  -6    0.95    0.64
  -5   1   6    1.83    0.40
  -5   1   6    1.57    0.39
  -5   1   6    1.64    0.41
   4  -1  -6   38.15    1.89
   4  -1  -6   34.15    1.17
   4  -1  -6   36.10    1.19
  -4   1   6   34.90    1.16
  -4   1   6   35.47    1.12
  -4   1   6   35.35    1.20
   3  -1  -6  321.32    8.94
   1  -1  -6   98.22    3.24
  -1   1   6   95.26    2.57
   0  -1  -6   77.08    2.08
   0  -1  -6   75.55    2.03
   0   1   6   77.83    2.18
   0   1   6   77.98    2.20
  -1  -1  -6    3.58    0.50
  -1  -1  -6    3.12    0.65
   1   1   6    3.30    0.42
   1   1   6    2.61    0.43
  -2  -1  -6    6.92    0.67
  -2  -1  -6    7.30    0.88
  -2  -1  -6    6.55    0.51
   2   1   6    6.45    0.65
  -3  -1  -6  102.86    2.92
  -3  -1  -6  104.01    3.05
  -3  -1  -6  101.31    3.05
   3   1   6  100.39    3.14
  -4  -1  -6   85.49    2.71
   4   1   6   78.77    2.75
   5   1   6   22.07    1.37
   9  -2  -6   19.84    1.43
   9  -2  -6   15.30    1.86
  -9   2   6   18.56    1.33
   8  -2  -6   12.79    1.59
   8  -2  -6   16.90    1.24
  -8   2   6   15.01    1.10
   7  -2  -6    9.97    0.85
   7  -2  -6   11.16    1.00
   7  -2  -6    9.87    1.40
  -7   2   6   11.18    0.89
  -7   2   6   10.85    0.87
   6  -2  -6   51.53    1.68
   6  -2  -6   50.58    1.75
   6  -2  -6   52.47    2.47
  -6   2   6   55.15    1.80
  -6   2   6   48.43    1.72
   5  -2  -6   78.93    2.27
   5  -2  -6   80.74    3.18
   5  -2  -6   76.86    2.17
  -5   2   6   78.69    2.32
  -5   2   6   83.06    2.35
   4  -2  -6  123.44    3.13
   4  -2  -6  125.64    4.16
   4  -2  -6  123.98    3.15
  -4   2   6  127.53    3.37
  -4   2   6  129.66    3.39
   3  -2  -6   75.22    2.78
   2  -2  -6   37.12    1.87
   0  -2  -6   28.82    0.97
   0  -2  -6   28.84    1.13
   0   2   6   28.21    1.00
   0   2   6   30.67    1.03
  -1  -2  -6   21.54    0.96
  -1  -2  -6   23.26    1.20
   1   2   6   23.20    1.00
   1   2   6   22.39    0.97
  -2  -2  -6   96.20    2.57
  -2  -2  -6   96.36    2.84
  -2  -2  -6   96.44    2.69
   2   2   6   93.83    2.88
  -3  -2  -6   93.78    2.73
  -3  -2  -6   94.95    2.89
   3   2   6   90.08    2.92
  -4  -2  -6   18.04    1.34
   4   2   6   14.86    1.10
   5   2   6    2.87    0.78
   9  -3  -6    1.44    0.85
   9  -3  -6    1.92    1.29
  -9   3   6    0.61    0.68
   8  -3  -6    3.91    0.80
   8  -3  -6    5.58    0.95
   8  -3  -6    5.59    1.36
  -8   3   6    4.72    0.75
  -8   3   6    5.50    0.77
   7  -3  -6   66.65    3.04
   7  -3  -6   66.68    2.27
   7  -3  -6   64.91    2.11
  -7   3   6   66.01    2.23
   6  -3  -6   63.11    1.93
   6  -3  -6   65.25    2.02
   6  -3  -6   65.06    2.79
  -6   3   6   61.24    2.02
   5  -3  -6   69.04    2.05
   5  -3  -6   75.85    2.97
   5  -3  -6   69.54    1.94
  -5   3   6   70.95    2.08
  -5   3   6   66.17    2.05
   4  -3  -6   80.71    2.12
   4  -3  -6   83.00    3.07
   4  -3  -6   79.51    2.05
  -4   3   6   80.85    2.20
  -4   3   6   81.42    2.15
  -4   3   6   77.79    2.21
   3  -3  -6   22.97    1.77
   2  -3  -6    1.94    0.88
   1  -3  -6  182.64    4.45
   1  -3  -6  183.11    4.53
  -1   3   6  191.64    4.91
  -1   3   6  185.85    4.83
   0  -3  -6  244.03    6.06
   0  -3  -6  243.44    5.98
   0  -3  -6  242.09    6.06
   0   3   6  248.27    6.51
   0   3   6  255.72    6.57
  -1  -3  -6   86.43    2.44
  -1  -3  -6   86.76    2.59
   1   3   6   94.07    2.70
   1   3   6   87.78    2.62
  -2  -3  -6   42.88    1.49
  -2  -3  -6   43.15    1.76
   2   3   6   39.14    1.54
  -3  -3  -6    0.01    0.83
  -3  -3  -6    0.52    0.59
   3   3   6    0.45    0.50
  -4  -3  -6    4.74    1.08
   4   3   6    3.63    0.72
   5   3   6   17.51    1.26
   8  -4  -6   22.13    1.32
   8  -4  -6   22.39    1.93
   8  -4  -6   23.04    1.49
  -8   4   6   19.96    1.22
   7  -4  -6   11.78    1.02
   7  -4  -6   12.05    0.90
   7  -4  -6    9.63    1.42
  -7   4   6   12.31    0.88
   6  -4  -6   52.53    1.66
   6  -4  -6   53.73    1.77
   6  -4  -6   48.94    2.44
  -6   4   6   50.98    1.73
   5  -4  -6    2.00    0.57
   5  -4  -6    0.57    1.04
   5  -4  -6    2.71    0.46
  -5   4   6    2.89    0.41
  -5   4   6    2.66    0.40
   4  -4  -6   12.86    0.86
   4  -4  -6   14.13    0.63
   4  -4  -6   12.59    1.35
  -4   4   6   14.82    0.62
  -4   4   6   14.53    0.79
  -4   4   6   14.09    0.67
   3  -4  -6   18.80    1.50
   2  -4  -6  101.85    3.66
   1  -4  -6  168.55    4.20
   1  -4  -6  160.85    4.04
  -1   4   6  171.33    4.52
  -1   4   6  163.22    4.39
   0  -4  -6   49.57    1.51
   0  -4  -6   49.99    1.73
   0   4   6   51.51    1.72
   0   4   6   49.16    1.59
  -1  -4  -6    5.88    0.62
  -1  -4  -6    6.14    0.84
   1   4   6    6.96    0.67
   1   4   6    5.91    0.59
  -2  -4  -6    7.31    0.96
  -2  -4  -6    7.19    0.75
   2   4   6    7.51    0.73
  -3  -4  -6   22.17    1.55
  -3  -4  -6   22.98    1.25
   3   4   6   21.95    1.24
  -4  -4  -6   11.91    1.26
   4   4   6   11.26    1.03
   8  -5  -6   14.59    1.73
   8  -5  -6   11.63    1.13
   8  -5  -6   13.03    1.05
  -8   5   6   10.41    0.94
   7  -5  -6    2.96    1.25
   7  -5  -6    2.11    0.68
   7  -5  -6    1.35    0.78
  -7   5   6    2.10    0.54
   6  -5  -6    0.43    0.52
   6  -5  -6    1.17    0.65
   6  -5  -6    1.07    1.03
  -6   5   6    0.51    0.41
   5  -5  -6   35.37    1.38
   5  -5  -6   35.85    2.15
   5  -5  -6   36.86    1.23
  -5   5   6   37.39    1.33
   4  -5  -6   82.78    2.16
   4  -5  -6   80.64    2.33
   4  -5  -6   78.06    3.09
  -4   5   6   81.11    2.41
  -4   5   6   86.00    2.34
  -4   5   6   83.61    2.36
   3  -5  -6  121.81    3.05
   3  -5  -6  124.23    4.19
   3  -5  -6  120.44    3.10
  -3   5   6  124.92    3.31
  -3   5   6  122.33    3.34
  -3   5   6  123.73    3.19
   2  -5  -6   68.63    1.90
   2  -5  -6   73.73    2.06
  -2   5   6   73.54    2.05
  -2   5   6   73.76    2.19
   1  -5  -6   11.21    0.88
   1  -5  -6   11.06    0.68
  -1   5   6   11.85    0.90
  -1   5   6   11.45    0.65
   0  -5  -6    3.54    0.52
   0  -5  -6    1.82    0.72
   0   5   6    3.95    0.49
  -1  -5  -6   66.30    2.05
  -1  -5  -6   72.47    2.33
  -1  -5  -6   67.63    2.28
   1   5   6   67.48    2.20
  -2  -5  -6   70.79    2.22
  -2  -5  -6   68.29    2.41
   2   5   6   66.32    2.31
  -3  -5  -6   21.93    1.64
   3   5   6   21.64    1.26
   4   5   6   21.01    1.37
   8  -6  -6   10.55    1.62
   8  -6  -6    8.67    1.01
  -8   6   6   10.38    0.94
   7  -6  -6    8.88    0.88
   7  -6  -6    7.56    0.97
   7  -6  -6    7.77    1.37
  -7   6   6    8.77    0.81
   6  -6  -6   33.58    1.33
   6  -6  -6   33.22    1.48
   6  -6  -6   32.67    2.03
  -6   6   6   31.29    1.32
   5  -6  -6   49.96    2.51
   5  -6  -6   51.82    1.62
   5  -6  -6   50.01    1.76
  -5   6   6   50.89    1.75
  -5   6   6   52.83    1.77
   4  -6  -6   41.62    1.34
   4  -6  -6   40.48    2.27
   4  -6  -6   41.78    1.52
  -4   6   6   41.86    1.51
  -4   6   6   42.49    1.52
   3  -6  -6   10.57    0.73
   3  -6  -6   11.59    0.80
   3  -6  -6   12.21    1.41
  -3   6   6   11.57    0.70
  -3   6   6   10.09    0.77
   2  -6  -6   17.92    0.88
   2  -6  -6   18.25    1.16
  -2   6   6   17.16    0.82
  -2   6   6   19.89    0.90
   1  -6  -6   23.38    0.99
   1  -6  -6   22.25    1.35
  -1   6   6   22.19    0.98
   0  -6  -6   18.04    0.99
   0  -6  -6   21.71    1.31
   0   6   6   20.92    1.01
  -1  -6  -6   49.36    2.04
  -1  -6  -6   47.17    1.97
  -1  -6  -6   47.42    1.71
   1   6   6   48.82    1.80
  -2  -6  -6   40.96    1.61
  -2  -6  -6   39.34    1.90
   2   6   6   36.13    1.62
  -3  -6  -6   13.43    1.40
   3   6   6   15.87    1.16
   7  -7  -6   52.79    1.94
   7  -7  -6   57.04    2.69
   7  -7  -6   53.21    2.09
  -7   7   6   52.25    2.00
   6  -7  -6   34.72    2.26
   6  -7  -6   36.73    1.46
   6  -7  -6   35.65    1.62
  -6   7   6   37.16    1.51
   5  -7  -6    4.19    1.17
   5  -7  -6    2.87    0.80
   5  -7  -6    4.19    0.67
  -5   7   6    4.20    0.62
   4  -7  -6    0.91    0.58
   4  -7  -6    1.01    1.10
   4  -7  -6    2.17    0.74
  -4   7   6    1.13    0.49
  -4   7   6    0.72    0.63
   3  -7  -6   54.04    1.85
   3  -7  -6   52.96    1.79
  -3   7   6   54.10    1.83
  -3   7   6   54.32    1.85
   2  -7  -6   53.52    1.79
   2  -7  -6   55.75    2.05
  -2   7   6   57.03    1.85
  -2   7   6   55.15    1.84
   1  -7  -6   35.68    1.70
   1  -7  -6   34.25    1.36
  -1   7   6   32.57    1.36
  -1   7   6   36.89    1.41
   0  -7  -6   38.58    1.52
   0  -7  -6   38.43    1.85
   0   7   6   40.45    1.57
  -1  -7  -6    8.66    1.16
  -1  -7  -6    9.74    0.92
  -1  -7  -6    8.98    1.19
   1   7   6   10.13    0.90
  -2  -7  -6    2.38    1.16
   2   7   6    2.94    0.69
   6  -8  -6    7.16    1.01
   6  -8  -6    5.76    1.36
   6  -8  -6    4.98    0.83
  -6   8   6    5.07    0.73
   5  -8  -6   20.77    1.21
   5  -8  -6   20.50    1.75
   5  -8  -6   18.59    1.27
  -5   8   6   18.86    1.18
   4  -8  -6   17.72    1.33
   4  -8  -6   16.62    1.18
  -4   8   6   18.09    1.12
   3  -8  -6   36.14    1.56
   3  -8  -6   37.54    1.71
  -3   8   6   36.55    1.51
   2  -8  -6   28.07    1.34
   2  -8  -6   26.84    1.65
  -2   8   6   29.51    1.31
   1  -8  -6   16.40    1.34
   1  -8  -6   17.20    1.12
  -1   8   6   16.85    1.01
   0  -8  -6    0.86    0.71
   0  -8  -6    0.48    0.98
   0   8   6    0.79    0.55
  -1  -8  -6   -0.18    1.06
  -1  -8  -6    0.35    1.11
  -1  -8  -6    1.66    0.81
   1   8   6    0.58    0.60
   5  -9  -6   37.22    1.82
   5  -9  -6   36.54    1.69
  -5   9   6   37.86    1.73
   4  -9  -6   30.24    1.66
   4  -9  -6   30.37    1.68
  -4   9   6   29.26    1.49
   3  -9  -6    7.20    0.99
   3  -9  -6    6.19    1.12
  -3   9   6    5.49    0.78
   2  -9  -6    0.82    1.03
   2  -9  -6    2.64    0.80
  -2   9   6    2.59    0.65
   1  -9  -6    1.40    1.09
   1  -9  -6    1.85    0.80
  -1   9   6    1.66    0.64
   0  -9  -6   24.46    1.49
   0  -9  -6   23.65    1.68
   0   9   6   21.94    1.29
   1  12  -7   28.22    1.86
  -1 -12   7   31.66    2.10
   0  12  -7   13.24    1.38
   0 -12   7   12.98    1.50
  -1  12  -7    1.15    0.88
   1 -12   7    1.48    1.10
  -2  12  -7    0.46    0.90
   2 -12   7    0.26    1.06
   3  11  -7   28.85    1.82
  -3 -11   7   28.99    2.08
   2  11  -7   27.49    1.77
  -2 -11   7   25.07    1.92
   1  11  -7   23.89    1.64
  -1 -11   7   23.59    1.73
   0  11  -7   -0.17    0.74
   0 -11   7   -0.68    0.92
  -1  11  -7   20.87    1.45
   1 -11   7   17.80    1.62
  -2  11  -7   36.89    1.97
   2 -11   7   35.70    2.13
  -3  11  -7   34.52    1.93
   3 -11   7   29.42    2.04
   4  10  -7   18.99    1.53
   4  10  -7   22.90    1.66
  -4 -10   7   18.22    1.70
   3  10  -7    1.50    0.84
  -3 -10   7    2.02    1.06
   2  10  -7    0.54    0.74
  -2 -10   7    0.14    0.92
   1  10  -7   16.54    1.30
  -1 -10   7   17.22    1.56
   0  10  -7   33.15    1.76
   0 -10   7   31.81    1.95
  -1  10  -7   38.63    1.88
   1 -10   7   41.07    2.16
  -2  10  -7   39.46    1.97
   2 -10   7   35.72    2.00
  -3  10  -7    8.36    1.14
   3 -10   7    6.79    1.17
  -4  10  -7    3.85    1.01
   5   9  -7   19.27    1.50
  -5  -9   7   18.93    1.71
   4   9  -7    0.07    0.84
   4   9  -7   -0.49    0.75
  -4  -9   7    0.97    1.00
   3   9  -7   10.56    1.12
   3   9  -7   11.00    1.01
  -3  -9   7   10.57    1.33
   2   9  -7   82.26    2.93
   2   9  -7   80.03    2.54
  -2  -9   7   77.40    3.14
   1   9  -7   87.65    3.02
  -1  -9   7   84.44    3.25
   0   9  -7   78.80    2.80
   0  -9   7   73.13    2.91
  -1   9  -7   63.38    2.38
   1  -9   7   57.90    2.57
  -2   9  -7    1.30    0.76
   2  -9   7    0.70    0.81
  -3   9  -7    7.72    1.04
   3  -9   7    7.65    1.19
  -4   9  -7   14.51    1.35
   4  -9   7   14.16    1.43
  -5   9  -7   28.42    1.81
   5  -9   7   24.33    1.74
   6   8  -7   -0.59    0.75
  -6  -8   7    0.35    0.98
   5   8  -7   15.44    1.31
  -5  -8   7   17.86    1.59
   4   8  -7   25.09    1.71
   4   8  -7   20.29    1.39
  -4  -8   7   19.23    1.60
   3   8  -7   78.81    2.72
   3   8  -7   77.71    2.76
   3   8  -7   78.69    2.66
  -3  -8   7   68.75    2.89
   2   8  -7  107.17    3.38
   2   8  -7  104.54    3.43
   2   8  -7  110.05    3.22
   2   8  -7  108.51    3.34
  -2  -8   7  101.38    3.64
  -2  -8   7  100.40    3.35
   1   8  -7   12.58    1.09
   1   8  -7   13.77    1.21
   1   8  -7   12.78    0.86
   1   8  -7   15.58    1.17
  -1  -8   7   12.44    1.08
  -1  -8   7   13.02    1.26
   0   8  -7    2.37    0.70
   0   8  -7    3.18    0.90
   0  -8   7    1.63    0.80
   0  -8   7    2.84    0.86
  -1   8  -7    3.89    0.98
  -1   8  -7    3.82    0.77
   1  -8   7    2.92    0.90
   1  -8   7    2.97    0.87
  -2   8  -7   11.21    1.07
   2  -8   7   11.33    1.22
  -3   8  -7   56.60    2.27
   3  -8   7   49.86    2.33
  -4   8  -7   64.32    2.54
   4  -8   7   56.29    2.54
  -5   8  -7   24.64    1.67
   5  -8   7   18.95    1.61
  -7  -7   7    2.67    1.11
   6   7  -7   47.12    2.08
  -6  -7   7   46.27    2.28
   5   7  -7   66.26    2.50
   5   7  -7   70.41    2.81
  -5  -7   7   62.29    2.70
   4   7  -7   61.64    2.43
   4   7  -7   61.10    2.30
   4   7  -7   59.48    2.38
   4   7  -7   58.26    2.25
  -4  -7   7   60.40    2.54
   3   7  -7   84.52    2.81
   3   7  -7   82.53    2.77
   3   7  -7   77.27    2.94
   3   7  -7   81.57    2.72
   3   7  -7   80.39    2.75
  -3  -7   7   79.16    2.96
  -3  -7   7   77.11    2.85
   2   7  -7    3.73    1.04
   2   7  -7    3.77    0.96
   2   7  -7    4.58    0.84
   2   7  -7    4.64    0.76
   2   7  -7    5.16    0.72
  -2  -7   7    4.80    1.03
  -2  -7   7    3.64    0.95
   1   7  -7    1.10    0.96
   1   7  -7    0.75    0.59
   1   7  -7    1.41    0.73
   1   7  -7    0.94    0.96
   1   7  -7    1.15    0.57
  -1  -7   7    0.63    0.86
  -1  -7   7    2.60    0.95
   0   7  -7   47.10    1.92
   0   7  -7   47.90    2.22
   0   7  -7   53.29    2.05
   0  -7   7   47.46    2.12
  -1   7  -7  156.61    4.50
  -1   7  -7  161.13    4.38
  -1   7  -7  156.43    4.61
   1  -7   7  143.25    4.73
  -2   7  -7   83.62    2.86
  -2   7  -7   90.71    2.87
   2  -7   7   78.87    2.96
   2  -7   7   82.95    2.78
  -3   7  -7   75.59    2.68
   3  -7   7   70.32    2.73
  -4   7  -7   11.70    1.16
   4  -7   7    8.39    1.14
  -5   7  -7    7.39    1.09
   5  -7   7    8.77    1.19
  -7  -6   7   43.32    2.23
   6   6  -7   54.06    2.13
  -6  -6   7   50.22    2.33
   5   6  -7   10.81    1.16
   5   6  -7   10.19    1.00
   5   6  -7    9.80    1.24
   5   6  -7   10.01    0.98
  -5  -6   7    8.08    1.11
   4   6  -7    1.15    0.81
   4   6  -7   -0.93    0.62
   4   6  -7    0.69    0.59
   4   6  -7    0.36    0.79
   4   6  -7   -0.06    0.94
  -4  -6   7   -0.54    0.64
  -4  -6   7   -0.98    0.76
   3   6  -7    2.49    1.05
   3   6  -7    0.91    0.96
   3   6  -7    0.16    0.73
   3   6  -7    1.07    0.61
   3   6  -7    1.12    0.72
  -3  -6   7    1.74    0.95
  -3  -6   7    1.09    0.80
   2   6  -7   19.11    1.28
   2   6  -7   21.56    1.26
   2   6  -7   17.29    1.31
   2   6  -7   20.99    1.52
   2   6  -7   18.87    1.15
  -2  -6   7   18.43    1.35
  -2  -6   7   20.01    1.39
   1   6  -7   94.61    2.94
   1   6  -7   93.48    2.97
   1   6  -7   91.20    3.09
   1   6  -7   95.44    2.88
  -1  -6   7   93.16    3.03
  -1  -6   7   87.48    3.20
   0   6  -7  180.84    5.16
   0   6  -7  184.80    4.95
   0   6  -7  179.72    5.00
   0  -6   7  180.56    5.41
   0  -6   7  179.98    5.10
  -1   6  -7   66.58    2.50
  -1   6  -7   72.37    2.45
  -1   6  -7   65.29    2.32
   1  -6   7   66.42    2.51
   1  -6   7   68.84    2.41
  -2   6  -7   23.78    1.43
  -2   6  -7   23.92    1.25
  -2   6  -7   25.88    1.58
   2  -6   7   22.99    1.46
   2  -6   7   26.90    1.53
  -3   6  -7    7.73    0.90
  -3   6  -7    7.98    1.06
   3  -6   7    6.01    0.95
  -4   6  -7    6.31    0.87
   4  -6   7    4.59    0.94
  -5   6  -7   21.58    1.52
   5  -6   7   23.33    1.56
  -7  -5   7   21.08    1.55
   6   5  -7    7.70    0.94
   6   5  -7    8.78    1.29
   6   5  -7    8.83    1.09
   6   5  -7    8.14    0.91
  -6  -5   7    9.18    1.10
   5   5  -7    6.21    0.77
   5   5  -7    6.86    0.81
   5   5  -7    7.33    0.99
   5   5  -7    5.93    1.06
   5   5  -7    8.04    1.16
  -5  -5   7    6.21    0.96
  -5  -5   7    6.62    0.93
   4   5  -7   88.60    2.75
   4   5  -7   89.01    3.14
   4   5  -7   85.17    2.90
   4   5  -7   91.20    2.88
   4   5  -7   86.09    2.81
  -4  -5   7   91.35    2.94
  -4  -5   7   83.01    2.96
   3   5  -7  230.49    6.16
   3   5  -7  229.74    6.11
   3   5  -7  234.21    6.62
   3   5  -7  237.76    6.43
   3   5  -7  239.24    6.19
  -3  -5   7  237.22    6.38
  -3  -5   7  222.71    6.60
   2   5  -7  104.62    3.15
   2   5  -7  100.93    3.02
   2   5  -7  111.19    3.31
   2   5  -7  103.59    3.24
   2   5  -7  105.80    3.17
  -2  -5   7  109.87    3.28
  -2  -5   7  101.25    3.38
   1   5  -7  167.89    4.53
   1   5  -7  169.89    4.66
   1   5  -7  172.97    4.83
   1   5  -7  170.30    4.74
  -1  -5   7  158.00    5.01
  -1  -5   7  173.46    4.74
   0   5  -7   70.58    2.30
   0   5  -7   71.24    2.42
   0   5  -7   70.51    2.31
   0  -5   7   72.76    2.41
   0  -5   7   70.78    2.57
  -1   5  -7    3.16    0.82
  -1   5  -7    2.31    0.80
  -1   5  -7    3.24    0.58
   1  -5   7    4.12    0.81
   1  -5   7    2.57    0.72
  -2   5  -7   33.19    1.57
  -2   5  -7   33.49    1.47
  -2   5  -7   33.96    1.61
   2  -5   7   33.44    1.65
   2  -5   7   33.46    1.59
  -3   5  -7   79.73    2.75
  -3   5  -7   86.80    2.79
   3  -5   7   84.36    2.91
   3  -5   7   82.89    2.76
  -4   5  -7   42.63    1.85
   4  -5   7   39.24    1.82
  -5   5  -7   18.98    1.42
  -5   5  -7   17.28    1.39
   5  -5   7   19.81    1.37
  -6   5  -7   10.15    1.23
   6  -5   7    7.63    1.12
   8   4  -7    3.22    1.38
  -8  -4   7    2.00    0.91
   7   4  -7    3.71    0.84
   7   4  -7    5.10    1.02
   7   4  -7    2.62    1.17
  -7  -4   7    3.95    0.89
   6   4  -7   14.86    1.15
   6   4  -7   16.02    1.16
   6   4  -7   15.86    1.55
   6   4  -7   14.71    1.05
  -6  -4   7   14.52    1.21
   5   4  -7   76.28    2.89
   5   4  -7   72.13    2.34
   5   4  -7   73.24    2.54
   5   4  -7   77.91    2.45
   5   4  -7   73.82    2.49
  -5  -4   7   74.88    2.56
  -5  -4   7   68.03    2.54
   4   4  -7  143.44    3.92
   4   4  -7  136.40    3.87
   4   4  -7  132.28    4.27
   4   4  -7  137.91    3.88
   4   4  -7  131.65    3.75
  -4  -4   7  130.59    4.09
  -4  -4   7  138.44    4.03
   3   4  -7  113.25    3.13
   3   4  -7  104.98    2.99
   3   4  -7  110.05    3.17
   3   4  -7  105.01    3.17
   3   4  -7  104.49    3.46
  -3  -4   7  107.53    3.27
  -3  -4   7  103.57    3.35
   2   4  -7   49.81    2.06
   2   4  -7   49.74    1.88
   2   4  -7   50.50    1.68
   2   4  -7   54.63    2.03
  -2  -4   7   49.35    1.98
  -2  -4   7   52.99    1.85
  -2  -4   7   54.57    1.93
   1   4  -7    5.76    0.84
   1   4  -7    6.23    0.54
   1   4  -7    6.27    0.93
   1   4  -7    6.83    0.81
  -1  -4   7    6.13    0.61
  -1  -4   7    5.28    0.82
  -1  -4   7    5.82    0.76
   0   4  -7   23.89    1.28
   0   4  -7   21.43    1.00
   0   4  -7   23.51    1.40
   0  -4   7   22.74    1.32
   0  -4   7   23.53    1.24
  -1   4  -7   70.61    2.16
  -1   4  -7   63.59    2.22
  -1   4  -7   67.26    2.27
   1  -4   7   63.97    2.33
   1  -4   7   69.18    2.21
  -2   4  -7  138.76    3.84
  -2   4  -7  137.57    3.80
  -2   4  -7  133.95    3.94
   2  -4   7  133.22    4.12
  -3   4  -7   52.32    2.05
  -3   4  -7   53.91    1.97
  -3   4  -7   53.01    1.94
   3  -4   7   47.81    1.97
  -4   4  -7   10.92    1.18
  -4   4  -7   13.23    1.11
  -4   4  -7   13.27    1.11
   4  -4   7   12.05    1.09
  -5   4  -7   23.36    1.49
   5  -4   7   22.97    1.44
   6  -4   7   -0.61    0.74
   8   3  -7   18.47    1.91
  -8  -3   7   16.96    1.41
   7   3  -7   57.42    2.87
   7   3  -7   62.17    2.26
   7   3  -7   61.07    2.07
  -7  -3   7   55.30    2.32
   6   3  -7   40.16    1.70
   6   3  -7   39.65    1.50
   6   3  -7   40.73    1.53
   6   3  -7   43.81    2.32
   6   3  -7   37.87    1.80
  -6  -3   7   38.08    1.72
   5   3  -7  170.61    4.64
   5   3  -7  168.93    4.61
   5   3  -7  168.40    5.32
   5   3  -7  167.07    4.53
   5   3  -7  179.14    4.75
  -5  -3   7  172.05    4.82
  -5  -3   7  169.92    4.96
   4   3  -7   94.08    2.64
   4   3  -7   91.50    3.22
   4   3  -7   93.45    2.77
   4   3  -7   87.90    2.50
   4   3  -7   91.70    2.77
  -4  -3   7   87.86    2.87
  -4  -3   7   95.35    2.89
   3   3  -7   15.20    1.20
   3   3  -7   13.11    1.02
   3   3  -7   14.38    0.65
   3   3  -7   15.29    1.05
   3   3  -7   14.63    0.63
   3   3  -7   14.40    0.61
  -3  -3   7   14.66    1.10
  -3  -3   7   14.94    0.96
  -3  -3   7   15.10    0.97
   2   3  -7  100.74    3.25
   2   3  -7   98.08    2.71
   2   3  -7  102.28    2.92
   2   3  -7  100.18    2.84
  -2  -3   7  102.33    2.98
  -2  -3   7  102.74    2.95
  -2  -3   7   99.26    3.08
   1   3  -7  296.09    7.48
   1   3  -7  300.67    7.89
   1   3  -7  307.13    7.62
   1   3  -7  303.03    7.87
   1   3  -7  307.38    8.34
  -1  -3   7  306.18    7.77
  -1  -3   7  309.47    8.09
  -1  -3   7  297.08    8.23
   0   3  -7  152.89    4.34
   0   3  -7  159.15    4.25
   0   3  -7  157.30    4.14
   0   3  -7  156.62    4.22
   0  -3   7  162.23    4.41
   0  -3   7  158.71    4.26
   0  -3   7  158.97    4.57
  -1   3  -7   70.84    2.16
  -1   3  -7   71.66    2.25
  -1   3  -7   72.04    2.27
   1  -3   7   72.27    2.41
  -2   3  -7   51.64    1.88
  -2   3  -7   53.84    1.84
  -2   3  -7   52.45    1.82
  -2   3  -7   51.90    1.98
   2  -3   7   51.25    1.98
  -3   3  -7    2.35    0.84
  -3   3  -7    1.62    0.65
  -3   3  -7    2.42    0.61
   3  -3   7    1.55    0.60
  -4   3  -7    5.21    0.94
  -4   3  -7    3.09    0.73
   4  -3   7    3.58    0.72
  -5   3  -7   11.08    1.12
   5  -3   7    8.71    1.01
   6  -3   7   16.48    1.43
   8   2  -7   29.38    2.16
   8   2  -7   33.25    1.69
  -8  -2   7   30.76    1.68
   7   2  -7   51.63    1.93
   7   2  -7   46.46    1.99
   7   2  -7   44.07    2.42
  -7  -2   7   43.00    1.90
   6   2  -7   30.50    1.59
   6   2  -7   32.25    1.47
   6   2  -7   29.26    1.13
   6   2  -7   32.06    2.00
  -6  -2   7   31.34    1.44
   5   2  -7    0.18    0.16
   5   2  -7    0.24    0.69
   5   2  -7   -1.10    0.89
   5   2  -7    0.90    0.74
   5   2  -7    0.51    0.25
  -5  -2   7    0.36    0.74
  -5  -2   7    0.36    0.51
   4   2  -7   23.34    1.58
   4   2  -7   21.95    1.25
   4   2  -7   19.33    1.25
  -4  -2   7   20.90    1.07
  -4  -2   7   21.00    1.21
  -4  -2   7   22.33    1.09
   3   2  -7   35.58    1.46
   3   2  -7   38.32    1.89
   3   2  -7   35.87    1.43
  -3  -2   7   34.72    1.37
  -3  -2   7   36.76    1.35
  -3  -2   7   36.71    1.44
   2   2  -7  264.42    6.68
   2   2  -7  273.44    6.74
   2   2  -7  269.21    7.61
  -2  -2   7  274.22    6.95
  -2  -2   7  273.29    7.30
  -2  -2   7  277.75    7.24
   1   2  -7  114.34    3.35
   1   2  -7  125.43    3.24
   1   2  -7  126.99    3.87
  -1  -2   7  120.17    3.60
  -1  -2   7  127.15    3.33
  -1  -2   7  126.92    3.44
   0   2  -7   60.32    1.94
   0   2  -7   61.53    2.01
   0  -2   7   66.55    1.96
   0  -2   7   63.65    2.12
  -1   2  -7   42.46    1.56
  -1   2  -7   39.25    1.51
  -1   2  -7   40.08    1.33
   1  -2   7   41.09    1.59
   1  -2   7   41.86    1.46
  -2   2  -7   -0.46    0.59
  -2   2  -7   -0.83    0.76
  -2   2  -7    0.56    0.44
   2  -2   7    0.11    0.53
  -3   2  -7   17.79    1.30
  -3   2  -7   14.64    0.98
  -3   2  -7   15.38    1.01
   3  -2   7   14.51    1.05
  -4   2  -7   60.86    2.34
  -4   2  -7   62.28    2.25
   4  -2   7   61.14    2.31
   5  -2   7   60.18    2.35
   8   1  -7   16.58    1.25
   8   1  -7   14.70    1.77
  -8  -1   7   19.81    1.31
   7   1  -7   11.08    0.99
   7   1  -7   10.57    1.45
   7   1  -7   13.25    1.15
   7   1  -7   10.42    1.06
  -7  -1   7   10.29    0.94
   6   1  -7   12.79    1.02
   6   1  -7   14.46    1.03
   6   1  -7   11.16    0.95
   6   1  -7   13.88    1.42
  -6  -1   7   12.37    0.95
   5   1  -7  165.76    4.33
   5   1  -7  161.24    5.20
   5   1  -7  166.02    4.35
   5   1  -7  160.08    4.31
  -5  -1   7  167.77    4.52
  -5  -1   7  156.53    4.61
  -5  -1   7  176.91    4.70
   4   1  -7  124.18    3.28
   4   1  -7  120.30    4.03
   4   1  -7  122.84    3.32
   4   1  -7  125.16    3.28
  -4  -1   7  124.14    3.45
  -4  -1   7  122.14    3.52
  -4  -1   7  125.05    3.49
   3   1  -7  155.44    4.02
   3   1  -7  157.24    4.84
   3   1  -7  157.08    3.95
  -3  -1   7  163.69    4.15
  -3  -1   7  153.81    4.28
  -3  -1   7  153.92    4.26
   2   1  -7  116.56    3.03
   2   1  -7  112.68    3.73
   2   1  -7  113.48    2.98
  -2  -1   7  114.41    3.25
  -2  -1   7  117.75    3.18
  -2  -1   7  121.81    3.07
   1   1  -7    9.94    0.75
   1   1  -7   10.55    1.07
   1   1  -7   11.20    0.79
  -1  -1   7   11.75    0.58
  -1  -1   7   11.07    0.81
   0   1  -7    4.34    0.61
   0   1  -7    4.84    0.64
   0  -1   7    5.66    0.46
   0  -1   7    5.04    0.58
  -1   1  -7   81.52    2.36
  -1   1  -7   79.02    2.21
  -1   1  -7   80.73    2.44
   1  -1   7   90.88    2.51
   1  -1   7   80.12    2.53
  -2   1  -7   86.05    2.53
  -2   1  -7   87.69    2.56
  -2   1  -7   86.54    2.65
   2  -1   7   87.93    2.75
  -3   1  -7   81.49    2.55
  -3   1  -7   78.79    2.54
  -3   1  -7   82.33    2.44
   3  -1   7   79.18    2.65
  -4   1  -7   67.49    2.38
   4  -1   7   64.92    2.40
   5  -1   7    7.69    0.95
   8   0  -7    4.81    1.32
   8   0  -7    3.91    0.85
  -8   0   7    3.02    0.73
   7   0  -7   19.66    1.76
   7   0  -7   23.61    1.45
   7   0  -7   19.78    1.25
  -7   0   7   18.58    1.12
   6   0  -7   94.50    2.76
   6   0  -7   93.44    3.65
   6   0  -7  101.56    2.87
  -6   0   7   94.86    2.94
   5   0  -7  100.12    2.82
   5   0  -7   99.45    2.77
   5   0  -7   97.45    3.68
  -5   0   7  100.25    2.95
  -5   0   7  104.50    2.98
   4   0  -7   32.72    1.25
   4   0  -7   34.34    1.92
   4   0  -7   33.35    1.25
  -4   0   7   32.34    1.27
  -4   0   7   31.85    1.13
  -4   0   7   32.72    1.17
   3   0  -7   12.80    1.26
   3   0  -7    9.98    0.75
   3   0  -7   11.89    0.72
  -3   0   7   11.48    0.54
  -3   0   7   12.09    0.66
  -3   0   7   11.01    0.56
   2   0  -7    2.04    0.41
   2   0  -7    2.07    0.35
   2   0  -7    2.67    0.93
  -2   0   7    2.16    0.31
  -2   0   7    2.40    0.22
   1   0  -7    3.14    0.94
   1   0  -7    3.34    0.55
   1   0  -7    2.24    0.42
  -1   0   7    2.81    0.27
  -1   0   7    3.40    0.47
   0   0  -7  149.91    3.82
   0   0  -7  147.91    3.81
   0   0   7  149.66    4.14
   0   0   7  153.36    4.07
  -1   0  -7  258.36    6.53
  -1   0  -7  258.81    6.55
   1   0   7  259.46    7.09
   1   0   7  280.43    7.08
  -2   0  -7   96.37    2.84
  -2   0  -7   98.71    2.74
   2   0   7   95.39    2.95
  -3   0  -7   58.49    2.00
  -3   0  -7   63.27    2.18
   3   0   7   60.08    2.15
  -4   0  -7   -0.53    0.91
   4   0   7    1.19    0.64
   5   0   7    5.88    0.93
   9  -1  -7   28.57    1.59
   9  -1  -7   21.79    2.08
  -9   1   7   25.20    1.51
   8  -1  -7   40.15    2.55
   8  -1  -7   42.43    1.77
  -8   1   7   41.07    1.80
   7  -1  -7   70.99    2.25
   7  -1  -7   65.71    3.02
   7  -1  -7   73.12    2.38
  -7   1   7   68.91    2.35
   6  -1  -7   29.70    1.24
   6  -1  -7   32.03    1.41
   6  -1  -7   30.08    1.97
  -6   1   7   31.78    1.27
   5  -1  -7   16.79    1.54
   5  -1  -7   14.04    0.99
   5  -1  -7   16.53    0.91
  -5   1   7   16.35    0.85
  -5   1   7   15.61    0.80
   4  -1  -7    1.95    0.96
   4  -1  -7    1.26    0.48
   4  -1  -7    1.14    0.45
  -4   1   7    1.23    0.27
  -4   1   7    1.29    0.28
  -4   1   7    1.51    0.31
  -4   1   7    0.58    0.47
   3  -1  -7   81.17    3.01
   2  -1  -7  197.17    5.92
   1  -1  -7  150.63    3.77
   1  -1  -7  154.34    3.82
  -1   1   7  154.39    4.14
  -1   1   7  161.02    4.08
   0  -1  -7  179.43    4.59
   0  -1  -7  184.38    4.56
   0   1   7  185.24    4.96
   0   1   7  187.62    4.93
  -1  -1  -7   43.59    1.68
  -1  -1  -7   46.65    1.52
   1   1   7   46.94    1.60
   1   1   7   47.27    1.59
  -2  -1  -7    0.55    0.51
  -2  -1  -7    0.91    0.69
   2   1   7    0.39    0.46
  -3  -1  -7   20.95    1.17
  -3  -1  -7   20.30    1.37
   3   1   7   18.47    1.12
  -4  -1  -7   27.57    1.68
   4   1   7   26.76    1.43
   5   1   7   13.05    1.19
   8  -2  -7   21.33    1.25
   8  -2  -7   20.74    1.91
   8  -2  -7   22.04    1.49
  -8   2   7   20.05    1.25
   7  -2  -7    0.29    0.62
   7  -2  -7    1.34    0.76
   7  -2  -7    1.88    1.22
  -7   2   7    1.12    0.52
   6  -2  -7    1.55    1.10
   6  -2  -7    2.38    0.54
   6  -2  -7    1.60    0.67
  -6   2   7    2.57    0.47
  -6   2   7    1.98    0.46
   5  -2  -7    1.72    1.02
   5  -2  -7    1.28    0.54
   5  -2  -7    0.78    0.46
  -5   2   7    1.29    0.35
  -5   2   7    1.35    0.33
   4  -2  -7  124.43    4.22
   4  -2  -7  124.81    3.13
   4  -2  -7  124.90    3.14
  -4   2   7  131.53    3.26
  -4   2   7  124.89    3.35
  -4   2   7  128.19    3.38
   3  -2  -7  192.88    5.85
   2  -2  -7  117.35    3.93
   1  -2  -7  109.05    2.77
   1  -2  -7  108.38    2.75
   1  -2  -7  112.61    2.78
  -1   2   7  112.58    2.98
  -1   2   7  112.53    2.98
   0  -2  -7   10.60    0.68
   0  -2  -7    8.64    0.73
   0   2   7   11.59    0.67
   0   2   7   11.47    0.67
  -1  -2  -7    9.64    0.84
  -1  -2  -7    8.18    0.67
   1   2   7    9.68    0.75
   1   2   7    8.91    0.71
   1   2   7    9.01    0.68
  -2  -2  -7   45.60    1.56
  -2  -2  -7   43.36    1.77
   2   2   7   43.05    1.62
  -3  -2  -7   91.35    2.91
  -3  -2  -7   96.53    2.78
   3   2   7   88.82    2.96
  -4  -2  -7   30.35    1.75
   4   2   7   24.17    1.40
   8  -3  -7    1.17    0.86
   8  -3  -7    0.70    0.67
   8  -3  -7    1.71    1.22
  -8   3   7    1.30    0.63
  -8   3   7    1.36    0.63
   7  -3  -7   31.36    1.50
   7  -3  -7   29.88    2.11
   7  -3  -7   29.14    1.29
  -7   3   7   29.52    1.29
   6  -3  -7   76.96    2.19
   6  -3  -7   76.21    2.28
   6  -3  -7   78.75    3.18
  -6   3   7   76.23    2.33
   5  -3  -7   92.52    2.48
   5  -3  -7   95.81    3.49
   5  -3  -7   90.68    2.43
  -5   3   7   92.03    2.61
  -5   3   7   94.26    2.63
   4  -3  -7   83.85    2.15
   4  -3  -7   83.84    2.12
   4  -3  -7   87.83    3.34
  -4   3   7   83.43    2.29
  -4   3   7   86.38    2.29
  -4   3   7   85.27    2.20
   2  -3  -7   14.08    1.44
   1  -3  -7   69.23    1.85
   1  -3  -7   72.39    1.96
  -1   3   7   72.16    2.05
  -1   3   7   71.45    1.99
   0  -3  -7  118.45    3.22
   0  -3  -7  119.19    3.11
   0   3   7  126.54    3.42
   0   3   7  120.68    3.37
  -1  -3  -7   54.48    1.70
  -1  -3  -7   55.82    1.91
   1   3   7   52.97    1.80
  -2  -3  -7   43.72    1.63
  -2  -3  -7   48.05    1.88
   2   3   7   46.16    1.73
  -3  -3  -7   15.75    1.26
  -3  -3  -7   13.68    1.01
   3   3   7   12.02    0.98
  -4  -3  -7    3.95    1.07
   4   3   7    3.07    0.75
   8  -4  -7   22.42    1.46
   8  -4  -7   20.95    2.04
   8  -4  -7   22.04    1.28
  -8   4   7   23.70    1.24
   7  -4  -7   31.70    1.46
   7  -4  -7   31.12    2.27
   7  -4  -7   32.82    1.38
  -7   4   7   31.17    1.32
   6  -4  -7   44.43    2.51
   6  -4  -7   44.76    1.48
   6  -4  -7   43.90    1.57
  -6   4   7   42.27    1.50
   5  -4  -7   81.68    2.19
   5  -4  -7   80.39    3.30
   5  -4  -7   83.83    2.28
  -5   4   7   83.28    2.37
   4  -4  -7    1.61    0.45
   4  -4  -7    1.94    0.30
   4  -4  -7    2.27    1.01
  -4   4   7    1.54    0.38
  -4   4   7    2.44    0.32
  -4   4   7    2.17    0.26
   3  -4  -7    4.71    1.10
   1  -4  -7  145.82    3.63
   1  -4  -7  144.80    3.74
  -1   4   7  147.86    3.94
  -1   4   7  147.57    4.02
   0  -4  -7   74.64    2.09
   0  -4  -7   74.02    2.23
   0  -4  -7   76.07    2.23
   0   4   7   74.21    2.24
  -1  -4  -7   31.55    1.49
  -1  -4  -7   34.00    1.28
   1   4   7   33.44    1.33
  -2  -4  -7   16.37    1.09
  -2  -4  -7   18.27    1.33
   2   4   7   16.84    1.05
  -3  -4  -7    0.13    0.94
   3   4   7    1.60    0.66
   8  -5  -7   19.34    1.34
   8  -5  -7   18.77    1.19
   8  -5  -7   19.82    1.98
  -8   5   7   18.85    1.16
   7  -5  -7   44.74    1.60
   7  -5  -7   38.92    2.41
   7  -5  -7   42.36    1.70
  -7   5   7   43.35    1.63
   6  -5  -7   10.74    0.86
   6  -5  -7   10.79    0.75
   6  -5  -7   10.81    1.52
  -6   5   7   11.59    0.78
   5  -5  -7   37.49    2.25
   5  -5  -7   35.33    1.33
   5  -5  -7   36.40    1.19
  -5   5   7   35.46    1.27
   4  -5  -7   99.53    2.47
   4  -5  -7   97.10    3.60
   4  -5  -7   95.63    2.59
  -4   5   7   96.71    2.65
  -4   5   7   97.03    2.75
   3  -5  -7   73.70    1.89
   3  -5  -7   74.32    3.09
   3  -5  -7   72.07    1.89
  -3   5   7   71.72    2.03
  -3   5   7   73.01    1.94
   2  -5  -7   83.34    2.31
   2  -5  -7   80.30    2.11
  -2   5   7   81.95    2.29
   1  -5  -7   24.31    0.96
   1  -5  -7   25.46    1.20
  -1   5   7   26.57    0.99
   0  -5  -7   18.50    1.19
   0  -5  -7   17.09    1.23
   0  -5  -7   18.19    0.92
   0   5   7   17.73    0.89
  -1  -5  -7   -0.26    0.54
  -1  -5  -7    0.56    0.81
   1   5   7    0.07    0.47
  -2  -5  -7   14.33    1.24
  -2  -5  -7   16.86    1.10
   2   5   7   16.26    1.05
  -3  -5  -7   10.59    1.29
   3   5   7    9.06    0.99
   7  -6  -7    3.00    0.83
   7  -6  -7    0.09    1.21
   7  -6  -7    2.88    0.69
  -7   6   7    2.11    0.55
   6  -6  -7   18.23    1.18
   6  -6  -7   19.46    1.03
   6  -6  -7   16.81    1.73
  -6   6   7   19.87    0.99
   5  -6  -7   61.83    2.85
   5  -6  -7   66.14    1.89
   5  -6  -7   65.55    2.03
  -5   6   7   63.61    2.07
   4  -6  -7   63.55    2.77
   4  -6  -7   62.98    1.77
   4  -6  -7   58.05    1.90
  -4   6   7   63.01    1.98
   3  -6  -7   49.10    1.59
   3  -6  -7   48.08    1.52
  -3   6   7   49.17    1.54
  -3   6   7   48.89    1.58
   2  -6  -7   11.46    0.95
   2  -6  -7   11.13    0.73
  -2   6   7   11.80    0.69
   1  -6  -7    1.55    0.50
   1  -6  -7    0.87    0.78
  -1   6   7    1.12    0.41
   0  -6  -7    3.56    0.61
   0  -6  -7    3.52    0.85
   0   6   7    4.08    0.59
  -1  -6  -7   31.83    1.73
  -1  -6  -7   34.91    1.44
   1   6   7   33.88    1.47
  -2  -6  -7   38.39    1.95
   2   6   7   34.30    1.64
   7  -7  -7   37.73    1.60
   7  -7  -7   39.28    2.42
   7  -7  -7   39.69    1.81
  -7   7   7   40.44    1.63
   6  -7  -7   39.98    2.35
   6  -7  -7   40.29    1.51
   6  -7  -7   39.65    1.69
  -6   7   7   36.87    1.53
   5  -7  -7   20.93    1.25
   5  -7  -7   20.29    1.05
   5  -7  -7   17.81    1.73
  -5   7   7   20.97    1.10
   4  -7  -7   11.14    1.58
   4  -7  -7   12.48    0.87
   4  -7  -7   11.57    0.94
  -4   7   7   12.19    0.89
   3  -7  -7    0.91    0.61
   3  -7  -7    0.19    0.73
  -3   7   7    0.43    0.44
   2  -7  -7   20.41    1.07
   2  -7  -7   21.98    1.40
  -2   7   7   22.11    1.03
   1  -7  -7   10.91    1.09
   1  -7  -7   11.30    0.85
  -1   7   7   10.71    0.82
   0  -7  -7   32.54    1.41
   0  -7  -7   32.50    1.66
   0   7   7   35.73    1.47
  -1  -7  -7   30.03    1.85
  -1  -7  -7   34.01    1.51
   1   7   7   29.84    1.48
   6  -8  -7    2.29    0.78
   6  -8  -7    2.92    0.93
   6  -8  -7    1.08    1.34
  -6   8   7    1.86    0.61
   5  -8  -7    1.51    0.73
   5  -8  -7    0.43    1.25
   5  -8  -7   -0.20    0.80
  -5   8   7    0.63    0.53
   4  -8  -7    0.83    0.80
   4  -8  -7    1.17    0.81
  -4   8   7    1.84    0.59
   3  -8  -7   18.61    1.32
   3  -8  -7   16.64    1.18
  -3   8   7   18.13    1.07
   2  -8  -7   43.29    1.65
   2  -8  -7   41.71    1.88
  -2   8   7   41.37    1.63
   1  -8  -7   40.51    1.93
   1  -8  -7   43.23    1.67
  -1   8   7   41.08    1.67
   0  -8  -7   19.97    1.30
   0  -8  -7   18.30    1.43
   0   8   7   17.24    1.15
   4  -9  -7   26.15    1.62
   4  -9  -7   26.51    1.69
  -4   9   7   25.38    1.41
   3  -9  -7   21.79    1.39
   3  -9  -7   18.64    1.50
  -3   9   7   17.67    1.18
   2  -9  -7   14.72    1.12
   2  -9  -7   13.40    1.40
  -2   9   7   14.05    1.09
   3  11  -8   22.17    1.57
  -3 -11   8   21.10    1.83
   2  11  -8   44.93    2.17
  -2 -11   8   41.03    2.36
   1  11  -8   44.69    2.13
  -1 -11   8   38.03    2.19
   0  11  -8    2.15    0.88
   0 -11   8    2.06    1.07
  -1  11  -8    3.26    0.95
   1 -11   8    2.73    1.05
  -2  11  -8    6.73    1.11
   2 -11   8    6.03    1.26
   4  10  -8   40.21    2.04
  -4 -10   8   37.19    2.31
   3  10  -8   12.22    1.25
  -3 -10   8   11.16    1.39
   2  10  -8   18.36    1.37
  -2 -10   8   21.66    1.76
   1  10  -8    3.46    0.89
  -1 -10   8    1.41    0.93
   0  10  -8    5.51    0.97
   0 -10   8    5.33    1.08
  -1  10  -8   20.06    1.46
   1 -10   8   19.85    1.66
  -2  10  -8   33.98    1.85
   2 -10   8   35.46    2.09
  -3  10  -8   38.47    1.98
   3 -10   8   30.17    2.05
   5   9  -8   43.68    2.18
   5   9  -8   39.92    2.04
  -5  -9   8   38.56    2.31
   4   9  -8    6.73    1.01
   4   9  -8    7.79    1.05
  -4  -9   8    7.70    1.30
   3   9  -8    1.73    0.78
   3   9  -8    0.70    0.70
  -3  -9   8    1.06    0.94
   2   9  -8   12.95    1.17
  -2  -9   8   13.99    1.40
   1   9  -8   34.39    1.71
  -1  -9   8   31.79    1.85
   0   9  -8   31.65    1.64
   0  -9   8   29.36    1.77
  -1   9  -8   86.70    3.00
   1  -9   8   77.16    3.09
  -2   9  -8   23.50    1.52
   2  -9   8   21.21    1.67
  -3   9  -8    3.06    0.91
   3  -9   8    3.31    0.98
  -4   9  -8    1.72    0.91
   4  -9   8    0.58    0.96
   6   8  -8    6.44    1.29
  -6  -8   8    6.07    1.28
   5   8  -8    0.94    0.75
   5   8  -8    1.12    0.93
  -5  -8   8    0.46    0.96
   4   8  -8    1.42    0.85
   4   8  -8    1.79    0.76
  -4  -8   8    1.23    0.96
   3   8  -8   18.23    1.36
   3   8  -8   19.07    1.34
   3   8  -8   19.71    1.31
  -3  -8   8   14.44    1.41
   2   8  -8   75.94    2.72
   2   8  -8   78.94    2.54
   2   8  -8   77.41    2.71
   2   8  -8   76.47    2.65
  -2  -8   8   73.21    2.99
   1   8  -8   57.00    2.22
   1   8  -8   57.54    1.93
   1   8  -8   61.71    2.40
  -1  -8   8   57.69    2.43
   0   8  -8   50.32    2.09
   0   8  -8   51.10    2.03
   0  -8   8   47.47    2.19
  -1   8  -8   12.88    1.11
   1  -8   8   13.52    1.32
  -2   8  -8    1.35    0.74
   2  -8   8    0.89    0.80
  -3   8  -8   19.82    1.47
   3  -8   8   20.60    1.62
  -4   8  -8   56.34    2.37
   4  -8   8   50.03    2.44
   6   7  -8   11.44    1.42
  -6  -7   8   10.51    1.27
   5   7  -8   34.82    1.99
   5   7  -8   31.99    1.69
  -5  -7   8   32.30    1.89
   4   7  -8   52.75    2.17
   4   7  -8   51.47    2.29
   4   7  -8   50.60    2.02
   4   7  -8   53.46    2.11
  -4  -7   8   48.78    2.25
   3   7  -8  120.98    3.83
   3   7  -8  122.60    3.78
   3   7  -8  122.07    3.67
   3   7  -8  128.39    3.83
  -3  -7   8  120.53    4.06
   2   7  -8   40.15    1.82
   2   7  -8   41.98    1.75
   2   7  -8   38.71    2.09
   2   7  -8   41.72    1.71
   2   7  -8   44.88    1.72
  -2  -7   8   38.24    1.87
  -2  -7   8   37.41    1.92
   1   7  -8    3.94    1.00
   1   7  -8    5.58    0.75
   1   7  -8    5.03    0.71
   1   7  -8    6.50    1.00
  -1  -7   8    4.89    0.99
  -1  -7   8    6.23    0.96
   0   7  -8    1.81    0.62
   0   7  -8    0.08    0.83
   0   7  -8    3.52    0.93
   0  -7   8    0.80    0.78
   0  -7   8    1.78    0.85
  -1   7  -8   38.31    1.82
  -1   7  -8   37.15    1.62
   1  -7   8   32.05    1.75
  -2   7  -8   57.57    2.32
  -2   7  -8   57.78    2.21
   2  -7   8   54.97    2.38
  -3   7  -8   54.11    2.17
   3  -7   8   49.67    2.26
  -4   7  -8   21.46    1.48
   4  -7   8   19.47    1.49
  -5   7  -8   -0.41    0.87
   5  -7   8   -0.62    0.89
   7   6  -8    9.65    1.45
  -7  -6   8   12.26    1.36
   6   6  -8   48.26    1.98
   6   6  -8   50.73    2.41
  -6  -6   8   46.77    2.25
   5   6  -8   36.38    2.05
   5   6  -8   34.69    1.64
   5   6  -8   38.30    1.68
   5   6  -8   37.02    1.82
  -5  -6   8   36.65    1.86
   4   6  -8   47.40    1.82
   4   6  -8   44.58    1.80
   4   6  -8   45.75    2.13
   4   6  -8   43.77    2.01
   4   6  -8   47.86    2.11
  -4  -6   8   46.53    2.11
  -4  -6   8   44.62    2.07
   3   6  -8   13.60    1.23
   3   6  -8   13.62    1.33
   3   6  -8   15.34    1.10
   3   6  -8   13.51    1.14
   3   6  -8   15.37    1.07
  -3  -6   8   14.66    1.22
  -3  -6   8   16.19    1.31
   2   6  -8    3.79    1.02
   2   6  -8    4.11    1.09
   2   6  -8    7.38    0.75
   2   6  -8    5.42    0.84
  -2  -6   8    4.83    0.99
  -2  -6   8    5.87    0.98
   1   6  -8   39.71    2.02
   1   6  -8   42.99    1.65
   1   6  -8   40.55    1.70
   1   6  -8   41.26    1.90
  -1  -6   8   38.05    1.96
  -1  -6   8   40.19    1.89
   0   6  -8  191.87    5.41
   0   6  -8  195.88    5.32
   0   6  -8  199.48    5.55
   0  -6   8  201.56    5.52
   0  -6   8  194.68    5.82
  -1   6  -8  112.22    3.38
  -1   6  -8  105.70    3.33
  -1   6  -8  110.15    3.33
   1  -6   8  108.33    3.42
   1  -6   8  106.04    3.61
  -2   6  -8   34.87    1.55
  -2   6  -8   35.38    1.65
   2  -6   8   32.13    1.73
  -3   6  -8   28.34    1.46
   3  -6   8   24.74    1.57
  -4   6  -8    0.45    0.74
   4  -6   8   -0.32    0.72
  -5   6  -8    4.27    1.03
  -5   6  -8    5.05    1.01
   5  -6   8    5.05    1.06
   7   5  -8   53.03    2.60
  -7  -5   8   46.74    2.26
   6   5  -8   33.22    1.76
   6   5  -8   31.03    1.48
   6   5  -8   28.20    2.07
  -6  -5   8   27.04    1.60
   5   5  -8    7.17    0.78
   5   5  -8    8.10    1.00
   5   5  -8    7.85    1.16
   5   5  -8    8.44    1.12
   5   5  -8    7.22    0.78
  -5  -5   8    6.04    0.93
   4   5  -8    1.27    0.51
   4   5  -8    1.58    0.59
   4   5  -8    0.22    0.86
   4   5  -8   -0.60    0.82
   4   5  -8    0.61    0.83
  -4  -5   8    0.39    0.72
  -4  -5   8    1.31    0.85
   3   5  -8   84.77    2.91
   3   5  -8   84.68    2.57
   3   5  -8   80.90    2.47
   3   5  -8   83.95    2.83
   3   5  -8   81.34    2.73
  -3  -5   8   79.48    2.90
  -3  -5   8   81.50    2.82
   2   5  -8  112.15    3.32
   2   5  -8  113.98    3.58
   2   5  -8  115.59    3.53
   2   5  -8  116.57    3.42
  -2  -5   8  109.29    3.65
  -2  -5   8  116.74    3.51
   1   5  -8  152.23    4.42
   1   5  -8  150.34    4.29
   1   5  -8  157.14    4.59
   1   5  -8  159.45    4.37
  -1  -5   8  153.40    4.74
  -1  -5   8  158.35    4.45
   0   5  -8   87.30    2.67
   0   5  -8   85.13    2.71
   0   5  -8   88.88    2.87
   0  -5   8   86.02    3.00
   0  -5   8   86.31    2.83
  -1   5  -8    0.29    0.81
  -1   5  -8    3.33    0.82
  -1   5  -8    2.15    0.58
   1  -5   8    2.14    0.80
   1  -5   8    2.27    0.78
  -2   5  -8   -1.06    0.70
  -2   5  -8    0.32    0.83
  -2   5  -8    0.74    0.57
   2  -5   8    0.11    0.62
   2  -5   8    0.20    0.73
  -3   5  -8    2.79    0.70
  -3   5  -8    1.60    0.87
   3  -5   8    3.11    0.76
  -4   5  -8   11.86    1.11
  -4   5  -8   10.80    1.08
   4  -5   8    9.82    1.11
   5  -5   8   19.27    1.43
   8   4  -8    9.31    1.53
  -8  -4   8   11.25    1.24
   7   4  -8    2.71    0.98
   7   4  -8    2.44    1.13
  -7  -4   8    2.61    0.87
   6   4  -8    1.84    0.63
   6   4  -8    3.36    0.92
   6   4  -8    2.69    1.06
  -6  -4   8    2.81    0.78
   5   4  -8    6.73    1.15
   5   4  -8    7.95    0.69
   5   4  -8    6.95    1.01
   5   4  -8    7.02    0.66
   5   4  -8    7.17    0.98
  -5  -4   8    7.59    0.91
  -5  -4   8    7.82    0.98
   4   4  -8  160.56    4.39
   4   4  -8  159.41    4.40
   4   4  -8  166.47    4.37
   4   4  -8  152.14    4.87
  -4  -4   8  161.66    4.57
  -4  -4   8  149.46    4.67
   3   4  -8  103.60    3.15
   3   4  -8   96.77    3.07
   3   4  -8  103.75    2.83
   3   4  -8  101.33    3.37
  -3  -4   8  103.68    3.16
  -3  -4   8   91.81    3.19
   2   4  -8  106.65    3.22
   2   4  -8  114.35    3.32
   2   4  -8  108.48    3.53
   2   4  -8  108.40    3.03
  -2  -4   8  107.07    3.48
  -2  -4   8  112.95    3.30
   1   4  -8   80.42    2.77
   1   4  -8   81.27    2.50
   1   4  -8   79.98    2.68
   1   4  -8   77.66    2.29
  -1  -4   8   80.54    2.55
  -1  -4   8   77.48    2.74
   0   4  -8    6.36    0.95
   0   4  -8    8.66    0.93
   0   4  -8    7.17    0.60
   0  -4   8    7.12    0.88
   0  -4   8    7.31    0.86
  -1   4  -8   10.38    1.02
  -1   4  -8    9.65    0.73
  -1   4  -8    9.42    0.99
   1  -4   8    9.49    0.98
   1  -4   8    8.63    0.91
  -2   4  -8   67.66    2.25
  -2   4  -8   68.95    2.26
  -2   4  -8   69.01    2.33
  -2   4  -8   70.74    2.36
   2  -4   8   63.58    2.40
  -3   4  -8   86.50    2.85
  -3   4  -8   89.61    2.89
  -3   4  -8   89.32    2.87
   3  -4   8   82.36    2.97
  -4   4  -8   34.52    1.61
   4  -4   8   28.66    1.64
   5  -4   8   25.00    1.56
   8   3  -8    3.82    1.30
  -8  -3   8    2.10    0.85
   7   3  -8   38.94    2.42
   7   3  -8   41.92    1.86
  -7  -3   8   37.01    1.76
   6   3  -8   46.68    1.92
   6   3  -8   46.30    1.85
   6   3  -8   41.13    2.28
  -6  -3   8   43.99    1.87
   5   3  -8   95.82    2.94
   5   3  -8   96.98    3.48
   5   3  -8   98.84    2.94
  -5  -3   8   92.03    3.08
  -5  -3   8  100.46    3.07
   4   3  -8  121.78    4.03
   4   3  -8  116.02    3.45
   4   3  -8  123.90    3.45
  -4  -3   8  112.97    3.61
  -4  -3   8  123.86    3.57
   3   3  -8    8.14    0.95
   3   3  -8   10.90    1.01
   3   3  -8    8.63    1.06
  -3  -3   8    9.91    0.90
  -3  -3   8   10.17    0.92
  -3  -3   8   10.09    0.78
   2   3  -8   -0.68    0.83
   2   3  -8    0.50    0.75
   2   3  -8   -0.60    0.72
  -2  -3   8    0.16    0.35
  -2  -3   8   -0.02    0.62
  -2  -3   8    0.39    0.63
   1   3  -8   35.38    1.86
   1   3  -8   34.68    1.44
   1   3  -8   38.72    1.68
  -1  -3   8   34.72    1.43
  -1  -3   8   37.21    1.67
  -1  -3   8   37.20    1.36
   0   3  -8   18.76    1.16
   0   3  -8   15.80    1.14
   0   3  -8   17.18    0.81
   0  -3   8   18.53    1.13
   0  -3   8   18.69    1.17
   0  -3   8   20.08    0.95
  -1   3  -8   63.93    2.16
  -1   3  -8   65.59    2.17
  -1   3  -8   63.46    1.96
   1  -3   8   63.87    2.28
  -2   3  -8  105.96    3.09
  -2   3  -8  102.88    3.08
  -2   3  -8  106.10    3.11
   2  -3   8  103.04    3.32
  -3   3  -8   39.31    1.57
  -3   3  -8   37.14    1.77
   3  -3   8   33.24    1.64
   4  -3   8    5.88    0.91
   5  -3   8    0.48    0.71
   8   2  -8   40.50    1.89
   8   2  -8   41.97    2.46
  -8  -2   8   39.59    1.91
   7   2  -8   56.75    2.13
   7   2  -8   58.40    2.89
   7   2  -8   58.40    2.21
  -7  -2   8   55.75    2.20
   6   2  -8   63.60    2.20
   6   2  -8   61.65    2.18
   6   2  -8   61.70    2.78
  -6  -2   8   65.30    2.29
   5   2  -8   22.34    1.24
   5   2  -8   24.26    1.71
   5   2  -8   23.67    1.26
  -5  -2   8   20.40    1.12
  -5  -2   8   21.93    1.29
   4   2  -8   -0.08    0.75
   4   2  -8    0.97    0.75
   4   2  -8    1.79    1.02
  -4  -2   8    1.15    0.48
  -4  -2   8    0.14    0.74
  -4  -2   8    1.81    0.53
   3   2  -8    1.39    0.88
   3   2  -8    0.91    0.71
   3   2  -8    1.91    0.73
  -3  -2   8    2.11    0.44
  -3  -2   8    1.58    0.53
  -3  -2   8    1.93    0.66
   2   2  -8   68.17    2.20
   2   2  -8   68.40    2.60
   2   2  -8   68.03    2.10
  -2  -2   8   64.12    2.22
  -2  -2   8   68.86    2.09
  -2  -2   8   70.82    2.12
   1   2  -8  138.93    3.65
   1   2  -8  142.43    4.45
   1   2  -8  135.99    3.78
  -1  -2   8  142.28    3.89
  -1  -2   8  141.87    3.78
  -1  -2   8  135.81    4.08
   0   2  -8   82.54    2.53
   0   2  -8   82.00    2.46
   0  -2   8   85.67    2.71
   0  -2   8   89.84    2.56
  -1   2  -8  151.96    4.01
  -1   2  -8  156.39    4.03
  -1   2  -8  150.26    3.98
  -1   2  -8  138.58    3.93
   1  -2   8  152.04    4.36
  -2   2  -8   29.06    1.33
  -2   2  -8   31.39    1.47
  -2   2  -8   28.42    1.14
   2  -2   8   26.69    1.34
  -3   2  -8    2.66    0.70
  -3   2  -8    3.14    0.83
   3  -2   8    2.29    0.69
  -4   2  -8   24.66    1.66
   4  -2   8   23.57    1.37
   5  -2   8   40.10    1.90
   8   1  -8   42.80    1.90
   8   1  -8   42.54    2.50
  -8  -1   8   39.83    1.85
   7   1  -8   21.93    1.37
   7   1  -8   19.79    1.87
   7   1  -8   25.43    1.66
   7   1  -8   24.13    1.51
  -7  -1   8   23.68    1.29
   6   1  -8    1.34    0.68
   6   1  -8    0.50    0.95
   6   1  -8    0.35    0.72
   6   1  -8   -0.21    0.75
  -6  -1   8    0.29    0.52
   5   1  -8   47.53    1.69
   5   1  -8   46.19    1.71
   5   1  -8   46.58    2.33
  -5  -1   8   52.82    1.78
  -5  -1   8   49.40    1.82
  -5  -1   8   45.66    1.68
   4   1  -8   46.08    1.60
   4   1  -8   47.38    2.25
   4   1  -8   44.89    1.66
  -4  -1   8   47.40    1.70
  -4  -1   8   45.37    1.59
  -4  -1   8   44.37    1.57
   3   1  -8   77.29    2.29
   3   1  -8   79.66    2.28
   3   1  -8   76.95    2.94
  -3  -1   8   82.51    2.36
  -3  -1   8   78.79    2.37
  -3  -1   8   82.29    2.34
   2   1  -8  166.89    5.20
   2   1  -8  167.84    4.33
   2   1  -8  168.24    4.23
  -2  -1   8  167.70    4.66
  -2  -1   8  172.86    4.54
  -2  -1   8  168.50    4.36
   1   1  -8   55.83    1.72
   1   1  -8   58.52    1.87
  -1  -1   8   54.39    1.91
  -1  -1   8   58.51    1.73
   0   1  -8   10.79    0.82
   0   1  -8   10.18    0.81
   0  -1   8   11.74    0.90
   0  -1   8   12.10    0.72
  -1   1  -8    0.75    0.60
  -1   1  -8    1.02    0.72
   1  -1   8    0.88    0.54
   1  -1   8    0.34    0.38
  -2   1  -8    7.08    0.77
  -2   1  -8    7.99    0.91
   2  -1   8    7.82    0.77
  -3   1  -8   31.84    1.59
  -3   1  -8   29.57    1.40
   3  -1   8   27.52    1.42
  -4   1  -8   57.23    2.28
   4  -1   8   54.04    2.20
   5  -1   8   13.23    1.22
   8   0  -8    2.71    0.80
   8   0  -8    1.51    1.22
  -8   0   8    2.64    0.70
   7   0  -8    2.24    1.13
   7   0  -8    1.74    0.82
   7   0  -8    2.06    0.74
  -7   0   8    2.37    0.60
   6   0  -8   51.36    1.82
   6   0  -8   50.60    1.72
   6   0  -8   48.91    2.46
  -6   0   8   45.87    1.73
   5   0  -8  104.86    2.86
   5   0  -8  104.36    2.89
   5   0  -8  103.40    3.75
  -5   0   8  106.84    3.00
  -5   0   8  107.65    3.10
  -5   0   8  101.26    3.02
   4   0  -8  121.73    4.25
   4   0  -8  124.95    3.33
   4   0  -8  127.78    3.27
   4   0  -8  128.49    3.28
  -4   0   8  132.85    3.47
  -4   0   8  122.51    3.48
  -4   0   8  127.72    3.55
   3   0  -8  115.94    3.03
   3   0  -8  120.48    3.06
   3   0  -8  115.81    4.02
  -3   0   8  125.16    3.14
  -3   0   8  118.34    3.25
  -3   0   8  120.89    3.26
   2   0  -8   38.93    1.21
   2   0  -8   42.73    2.15
   2   0  -8   39.25    1.33
  -2   0   8   40.73    1.20
  -2   0   8   39.38    1.33
   1   0  -8    0.93    0.57
   1   0  -8    0.35    0.51
  -1   0   8    0.64    0.27
  -1   0   8    1.01    0.45
   0   0  -8   24.66    1.12
   0   0  -8   26.28    1.14
   0   0   8   25.88    1.03
   0   0   8   26.96    1.12
  -1   0  -8  176.37    4.66
  -1   0  -8  180.91    4.70
   1   0   8  195.74    5.08
   1   0   8  177.01    5.07
  -2   0  -8   67.04    2.11
  -2   0  -8   70.33    2.23
   2   0   8   65.77    2.25
  -3   0  -8   25.01    1.29
  -3   0  -8   24.03    1.49
   3   0   8   22.19    1.26
  -4   0  -8    7.39    1.13
   4   0   8    6.06    0.88
   8  -1  -8   14.50    1.70
   8  -1  -8   14.99    1.12
   8  -1  -8   16.01    1.27
  -8   1   8   14.65    1.07
   7  -1  -8   37.16    1.52
   7  -1  -8   39.15    1.69
   7  -1  -8   34.64    2.37
  -7   1   8   39.31    1.57
   6  -1  -8   71.96    2.20
   6  -1  -8   66.86    2.99
   6  -1  -8   71.10    2.12
  -6   1   8   72.13    2.26
   5  -1  -8   65.04    2.80
   5  -1  -8   66.30    1.93
   5  -1  -8   62.35    1.90
  -5   1   8   66.39    1.99
  -5   1   8   66.93    2.02
   4  -1  -8   37.31    1.26
   4  -1  -8   37.35    1.20
   4  -1  -8   37.34    2.09
  -4   1   8   38.80    1.25
  -4   1   8   36.79    1.17
  -4   1   8   39.55    1.29
   3  -1  -8    3.30    1.09
   2  -1  -8    9.73    1.30
   1  -1  -8  122.69    3.16
   1  -1  -8  122.21    3.13
  -1   1   8  123.39    3.41
  -1   1   8  126.72    3.34
   0  -1  -8  159.82    4.06
   0  -1  -8  155.72    4.08
   0   1   8  160.56    4.40
   0   1   8  164.24    4.37
  -1  -1  -8   28.73    1.17
  -1  -1  -8   28.54    1.30
   1   1   8   29.02    1.22
  -2  -1  -8    1.42    0.60
  -2  -1  -8    1.46    0.78
   2   1   8    2.14    0.58
  -3  -1  -8    0.42    0.87
  -3  -1  -8   -0.15    0.63
   3   1   8   -0.23    0.54
  -4  -1  -8    1.50    0.98
   4   1   8    1.43    0.70
   8  -2  -8   26.94    1.60
   8  -2  -8   25.95    1.36
   8  -2  -8   22.05    2.00
  -8   2   8   24.69    1.31
   7  -2  -8   28.40    2.11
   7  -2  -8   30.29    1.35
   7  -2  -8   34.00    1.57
  -7   2   8   29.70    1.32
   6  -2  -8   16.05    0.90
   6  -2  -8   14.75    1.57
   6  -2  -8   15.80    1.06
  -6   2   8   16.59    0.86
  -6   2   8   17.12    0.88
   5  -2  -8   33.40    2.18
   5  -2  -8   32.77    1.18
   5  -2  -8   33.31    1.12
  -5   2   8   33.94    1.12
   4  -2  -8    5.11    0.44
   4  -2  -8    4.99    0.38
   4  -2  -8    5.65    1.15
  -4   2   8    5.08    0.35
  -4   2   8    5.93    0.33
   3  -2  -8  205.65    6.31
   2  -2  -8  148.80    4.89
   1  -2  -8   67.52    1.90
   1  -2  -8   67.89    1.86
  -1   2   8   71.55    2.00
  -1   2   8   71.50    1.99
   0  -2  -8   21.68    0.91
   0  -2  -8   21.52    1.06
   0   2   8   22.37    0.94
  -1  -2  -8    0.47    0.49
  -1  -2  -8    0.24    0.65
   1   2   8    0.07    0.42
  -2  -2  -8    9.77    0.85
  -2  -2  -8    9.13    0.97
   2   2   8   11.18    0.87
  -3  -2  -8   37.97    1.84
   3   2   8   34.35    1.62
  -4  -2  -8   25.20    1.76
   4   2   8   24.25    1.44
   8  -3  -8   11.90    1.12
   8  -3  -8   11.18    1.70
   8  -3  -8   12.22    0.98
  -8   3   8   10.22    0.92
   7  -3  -8    1.20    0.72
   7  -3  -8    1.29    0.59
   7  -3  -8    3.15    1.28
  -7   3   8    1.37    0.50
  -7   3   8    1.69    0.50
   6  -3  -8   10.12    0.70
   6  -3  -8   10.85    1.53
   6  -3  -8    9.62    0.77
  -6   3   8    9.62    0.66
   5  -3  -8   51.85    1.47
   5  -3  -8   50.90    1.51
   5  -3  -8   49.60    2.51
  -5   3   8   51.79    1.54
   4  -3  -8   98.12    3.62
   3  -3  -8   29.06    1.95
   1  -3  -8    0.65    0.34
   1  -3  -8    0.53    0.48
  -1   3   8    0.62    0.30
   0  -3  -8    7.26    0.73
   0  -3  -8    6.45    0.59
   0   3   8    7.52    0.59
  -1  -3  -8    8.63    0.88
  -1  -3  -8   10.37    0.76
   1   3   8    9.54    0.77
  -2  -3  -8   41.32    1.75
  -2  -3  -8   41.57    1.61
   2   3   8   39.83    1.66
  -3  -3  -8   44.09    2.03
   3   3   8   38.77    1.73
   8  -4  -8    1.67    1.28
   8  -4  -8    2.45    0.91
   8  -4  -8    2.67    0.74
  -8   4   8    2.90    0.63
  -8   4   8    1.66    0.61
   7  -4  -8   51.62    1.73
   7  -4  -8   49.22    2.70
   7  -4  -8   50.95    1.85
  -7   4   8   50.80    1.80
   6  -4  -8   57.09    2.90
   6  -4  -8   57.62    1.75
   6  -4  -8   58.80    1.84
  -6   4   8   58.64    1.84
   5  -4  -8   41.19    1.24
   5  -4  -8   41.68    2.32
   5  -4  -8   41.88    1.34
  -5   4   8   42.37    1.33
   4  -4  -8   20.70    1.73
   3  -4  -8    3.96    1.17
   2  -4  -8    2.63    0.48
   2  -4  -8    2.90    0.30
  -2   4   8    3.46    0.29
   1  -4  -8   58.74    1.67
   1  -4  -8   60.31    1.82
  -1   4   8   60.39    1.80
   0  -4  -8   38.84    1.33
   0  -4  -8   36.97    1.49
   0   4   8   38.30    1.39
  -1  -4  -8   44.03    1.78
  -1  -4  -8   43.94    1.57
   1   4   8   45.44    1.66
  -2  -4  -8   31.23    1.39
  -2  -4  -8   29.77    1.60
   2   4   8   29.10    1.39
  -3  -4  -8    9.40    1.23
   3   4   8    9.05    0.96
   7  -5  -8   27.88    1.27
   7  -5  -8   30.84    2.21
   7  -5  -8   29.29    1.41
  -7   5   8   28.49    1.25
   6  -5  -8   30.06    1.12
   6  -5  -8   26.54    1.23
   6  -5  -8   31.07    2.29
  -6   5   8   27.20    1.13
   5  -5  -8    2.05    0.43
   5  -5  -8   -0.52    1.06
   5  -5  -8    1.36    0.55
  -5   5   8    1.46    0.36
   4  -5  -8   19.75    1.75
   4  -5  -8   19.62    0.88
   4  -5  -8   20.36    0.71
  -4   5   8   19.82    0.81
   3  -5  -8   11.25    0.63
   3  -5  -8    9.98    0.52
  -3   5   8    9.64    0.51
   2  -5  -8   28.04    0.94
   2  -5  -8   27.77    1.18
  -2   5   8   28.60    0.98
   1  -5  -8   35.48    1.21
   1  -5  -8   36.07    1.43
  -1   5   8   37.15    1.29
   0  -5  -8   23.82    1.34
   0  -5  -8   23.52    1.07
   0   5   8   22.59    1.08
  -1  -5  -8   22.25    1.39
  -1  -5  -8   20.11    1.16
   1   5   8   20.85    1.14
  -2  -5  -8    0.70    0.68
  -2  -5  -8    1.08    0.94
   2   5   8    0.02    0.56
   7  -6  -8    1.79    1.29
   7  -6  -8    3.88    0.83
   7  -6  -8    3.07    0.71
  -7   6   8    3.19    0.59
   6  -6  -8    1.06    0.54
   6  -6  -8    1.29    0.67
   6  -6  -8   -0.07    1.15
  -6   6   8    1.39    0.46
   5  -6  -8   31.88    2.31
   5  -6  -8   27.90    1.22
   5  -6  -8   26.88    1.07
  -5   6   8   27.74    1.14
   4  -6  -8   41.10    1.31
   4  -6  -8   42.61    2.54
   4  -6  -8   40.57    1.42
  -4   6   8   38.01    1.40
   3  -6  -8   42.46    1.52
   3  -6  -8   42.42    1.36
  -3   6   8   41.32    1.40
   2  -6  -8   32.72    1.42
   2  -6  -8   32.91    1.15
  -2   6   8   31.01    1.18
   1  -6  -8   11.52    0.97
   1  -6  -8   11.76    0.84
  -1   6   8   12.22    0.81
   0  -6  -8    1.43    0.59
   0  -6  -8    0.51    0.82
   0  -6  -8   -0.03    0.82
   0   6   8    0.58    0.50
  -1  -6  -8   19.91    1.21
  -1  -6  -8   18.60    1.35
   1   6   8   20.07    1.19
   6  -7  -8   14.90    1.86
   6  -7  -8   19.29    1.28
   6  -7  -8   19.22    1.09
  -6   7   8   18.22    1.04
   5  -7  -8   20.55    1.92
   5  -7  -8   21.86    1.22
   5  -7  -8   20.72    1.10
  -5   7   8   20.65    1.08
   4  -7  -8   27.89    1.32
   4  -7  -8   28.48    1.29
  -4   7   8   28.64    1.26
   3  -7  -8   12.59    0.93
   3  -7  -8    9.81    1.00
  -3   7   8   10.97    0.82
   2  -7  -8    0.77    0.58
   2  -7  -8   -0.74    0.78
  -2   7   8   -0.07    0.43
   1  -7  -8    3.01    0.91
   1  -7  -8    5.29    0.72
  -1   7   8    4.40    0.65
   0  -7  -8   18.88    1.38
   0  -7  -8   20.62    1.51
   0  -7  -8   18.01    1.14
   0   7   8   17.69    1.14
   4  -8  -8    2.35    0.92
   4  -8  -8    3.94    0.89
   3  -8  -8    9.17    0.94
   3  -8  -8    7.49    1.09
  -3   8   8    9.32    0.83
   2  -8  -8   30.84    1.69
   2  -8  -8   32.83    1.46
  -2   8   8   30.61    1.41
   2  11  -9   17.19    1.45
  -2 -11   9   14.66    1.61
   1  11  -9   42.83    2.12
  -1 -11   9   42.08    2.36
   0  11  -9   20.62    1.53
   0 -11   9   15.03    1.58
  -1  11  -9    3.62    1.00
   1 -11   9    4.92    1.24
  -4 -10   9   23.65    1.98
   3  10  -9   34.45    1.85
  -3 -10   9   31.69    2.13
   2  10  -9   51.46    2.19
  -2 -10   9   44.43    2.33
   1  10  -9   32.62    1.76
  -1 -10   9   32.18    2.02
   0  10  -9    0.65    0.76
   0 -10   9   -1.51    0.85
  -1  10  -9   11.21    1.18
   1 -10   9   13.71    1.48
  -2  10  -9   33.49    1.84
   2 -10   9   28.80    1.93
   5   9  -9   49.36    2.33
  -5  -9   9   47.58    2.54
   4   9  -9   19.49    1.42
  -4  -9   9   17.99    1.69
   3   9  -9    3.26    0.83
  -3  -9   9    1.96    0.97
   2   9  -9    0.52    0.71
  -2  -9   9    0.32    0.88
   1   9  -9    8.21    0.98
  -1  -9   9    5.26    1.07
   0   9  -9   21.03    1.41
   0  -9   9   16.67    1.50
  -1   9  -9   45.09    2.00
   1  -9   9   40.24    2.20
  -2   9  -9   52.73    2.21
   2  -9   9   43.65    2.28
  -3   9  -9   10.71    1.23
   3  -9   9    9.59    1.30
   5   8  -9   22.09    1.68
  -5  -8   9   21.30    1.73
   4   8  -9    3.12    0.91
  -4  -8   9    0.77    0.90
   3   8  -9    8.44    0.96
   3   8  -9    7.78    0.98
   3   8  -9    9.04    1.00
  -3  -8   9    7.82    1.15
   2   8  -9   63.57    2.37
   2   8  -9   66.58    2.52
   2   8  -9   61.04    2.25
  -2  -8   9   60.67    2.67
   1   8  -9   66.64    2.50
   1   8  -9   68.37    2.42
  -1  -8   9   62.57    2.65
   0   8  -9   90.18    2.96
   0  -8   9   79.55    3.16
  -1   8  -9   66.01    2.44
   1  -8   9   61.99    2.68
  -2   8  -9    0.42    0.72
   2  -8   9    0.30    0.82
  -3   8  -9    6.06    1.01
   3  -8   9    4.19    1.03
   6   7  -9    0.00    0.98
  -6  -7   9    0.10    0.89
   5   7  -9    7.47    0.95
   5   7  -9    9.21    1.23
  -5  -7   9    9.97    1.26
   4   7  -9   22.31    1.36
   4   7  -9   19.38    1.50
   4   7  -9   23.87    1.63
  -4  -7   9   16.70    1.51
   3   7  -9   89.35    2.83
   3   7  -9   92.09    3.08
   3   7  -9   94.42    2.96
   3   7  -9   92.06    3.09
  -3  -7   9   81.62    3.26
   2   7  -9   90.41    2.93
   2   7  -9   93.50    3.06
   2   7  -9   91.63    2.95
  -2  -7   9   85.78    3.27
   1   7  -9   21.81    1.25
   1   7  -9   22.72    1.58
  -1  -7   9   16.14    1.35
   0   7  -9    1.06    0.95
   0   7  -9    2.44    0.66
   0  -7   9    2.30    0.85
  -1   7  -9    0.65    0.94
  -1   7  -9    0.22    0.60
   1  -7   9    0.19    0.78
  -2   7  -9    8.36    0.97
   2  -7   9    6.35    1.03
  -3   7  -9   22.29    1.44
   3  -7   9   21.77    1.61
   4  -7   9   32.10    1.89
   7   6  -9    1.15    1.11
  -7  -6   9    0.17    0.92
   6   6  -9   45.69    2.41
  -6  -6   9   42.24    2.16
   5   6  -9   41.56    1.70
   5   6  -9   44.25    2.25
   5   6  -9   45.88    2.11
  -5  -6   9   43.34    2.10
   4   6  -9   87.06    2.68
   4   6  -9   92.89    3.00
   4   6  -9   88.55    3.18
   4   6  -9   89.77    3.03
  -4  -6   9   87.40    3.21
   3   6  -9  106.33    3.55
   3   6  -9  109.93    3.23
   3   6  -9  110.91    3.48
   3   6  -9  105.20    3.34
  -3  -6   9  100.53    3.60
  -3  -6   9  106.81    3.42
   2   6  -9    7.94    1.06
   2   6  -9    5.58    1.09
   2   6  -9    6.69    0.92
   2   6  -9    7.00    0.72
  -2  -6   9    6.19    0.99
  -2  -6   9    6.76    1.01
   1   6  -9    1.73    0.89
   1   6  -9    2.60    0.55
   1   6  -9    3.19    1.00
  -1  -6   9    1.77    0.80
  -1  -6   9    2.28    0.84
   0   6  -9   57.21    2.20
   0   6  -9   58.63    2.32
   0   6  -9   60.78    2.05
   0  -6   9   59.38    2.26
   0  -6   9   53.84    2.28
  -1   6  -9   65.88    2.27
  -1   6  -9   67.41    2.42
   1  -6   9   62.57    2.55
  -2   6  -9   41.54    1.94
  -2   6  -9   38.36    1.66
   2  -6   9   38.72    1.94
   3  -6   9   42.39    2.06
   4  -6   9    7.81    1.15
   7   5  -9   39.95    2.34
  -7  -5   9   40.84    2.08
   6   5  -9   59.95    2.37
   6   5  -9   60.33    2.67
  -6  -5   9   55.70    2.40
   5   5  -9   22.02    1.63
   5   5  -9   30.22    1.63
   5   5  -9   22.25    1.79
  -5  -5   9   25.02    1.55
   4   5  -9    5.64    1.01
   4   5  -9    6.45    1.06
   4   5  -9    5.89    1.02
  -4  -5   9    4.63    1.00
  -4  -5   9    5.53    0.91
   3   5  -9    2.70    0.98
   3   5  -9    3.18    0.46
   3   5  -9    3.08    0.93
   3   5  -9    2.74    0.88
  -3  -5   9    4.65    0.95
  -3  -5   9    2.74    0.82
   2   5  -9   15.59    1.22
   2   5  -9   12.11    1.23
   2   5  -9   15.08    0.81
   2   5  -9   13.18    1.16
  -2  -5   9   14.17    1.25
  -2  -5   9   17.02    1.32
   1   5  -9   57.07    2.13
   1   5  -9   58.39    1.88
   1   5  -9   58.93    2.36
   1   5  -9   59.99    2.27
  -1  -5   9   61.89    2.19
  -1  -5   9   55.97    2.30
   0   5  -9   87.28    2.63
   0   5  -9   88.01    2.86
   0   5  -9   87.38    2.77
   0  -5   9   90.07    2.87
   0  -5   9   84.12    3.01
  -1   5  -9   37.55    1.71
  -1   5  -9   34.70    1.72
  -1   5  -9   35.12    1.46
   1  -5   9   35.78    1.75
   1  -5   9   37.31    1.67
  -2   5  -9   26.32    1.32
  -2   5  -9   25.94    1.61
  -2   5  -9   26.30    1.32
   2  -5   9   23.49    1.44
   4  -5   9    3.30    0.94
   7   4  -9   40.92    1.94
   7   4  -9   34.41    2.22
  -7  -4   9   35.45    1.88
   6   4  -9   12.77    1.52
   6   4  -9   16.76    1.29
   6   4  -9   13.62    1.29
  -6  -4   9   16.56    1.27
   5   4  -9   -0.55    0.86
   5   4  -9    0.21    0.88
   5   4  -9   -0.01    0.83
  -5  -4   9   -0.76    0.85
  -5  -4   9    0.58    0.64
   4   4  -9   70.14    2.40
   4   4  -9   65.86    2.40
   4   4  -9   69.70    2.76
  -4  -4   9   65.14    2.46
  -4  -4   9   73.13    2.50
   3   4  -9   85.90    3.10
   3   4  -9   86.24    2.83
   3   4  -9   88.91    2.75
  -3  -4   9   84.71    2.83
  -3  -4   9   85.30    2.95
   2   4  -9   60.49    2.27
   2   4  -9   59.39    2.12
   2   4  -9   62.66    2.46
  -2  -4   9   61.90    2.17
  -2  -4   9   59.82    2.31
   1   4  -9  140.99    3.78
   1   4  -9  139.43    4.07
   1   4  -9  148.30    3.98
   1   4  -9  136.67    3.79
  -1  -4   9  153.48    4.13
  -1  -4   9  146.34    4.38
   0   4  -9   35.64    1.18
   0   4  -9   33.54    1.62
   0   4  -9   34.83    1.56
   0   4  -9   34.69    1.17
   0  -4   9   34.39    1.65
   0  -4   9   36.13    1.60
  -1   4  -9    0.81    0.77
  -1   4  -9    0.02    0.71
   1  -4   9    1.35    0.68
   1  -4   9    0.78    0.65
  -2   4  -9   16.78    1.22
  -2   4  -9   17.35    1.27
   2  -4   9   16.53    1.24
  -3   4  -9   47.72    2.08
   3  -4   9   43.31    2.01
   4  -4   9   31.29    1.68
   8   3  -9    1.53    1.24
   8   3  -9    1.60    0.98
  -8  -3   9    1.35    0.86
   7   3  -9    3.97    1.21
   7   3  -9    3.78    0.98
  -7  -3   9    3.25    0.81
   6   3  -9    7.53    1.06
   6   3  -9    9.77    1.34
   6   3  -9    9.02    1.02
  -6  -3   9    8.66    0.95
   5   3  -9   44.13    1.85
   5   3  -9   40.35    1.82
   5   3  -9   40.42    2.27
  -5  -3   9   45.80    1.88
  -5  -3   9   43.29    1.79
   4   3  -9  100.70    3.01
   4   3  -9   98.90    3.56
   4   3  -9  102.37    3.01
  -4  -3   9   98.25    3.17
  -4  -3   9  101.28    3.11
   3   3  -9   57.18    2.50
   3   3  -9   58.24    2.06
   3   3  -9   58.42    2.11
  -3  -3   9   56.42    2.13
  -3  -3   9   57.00    2.00
  -3  -3   9   59.96    2.10
   2   3  -9   26.43    1.76
   2   3  -9   26.29    1.36
   2   3  -9   22.37    1.50
  -2  -3   9   26.34    1.28
  -2  -3   9   23.78    1.41
  -2  -3   9   25.37    1.18
   1   3  -9    7.90    0.96
   1   3  -9    7.92    0.84
  -1  -3   9    8.45    0.84
  -1  -3   9    8.53    0.91
  -1  -3   9    8.62    0.69
   0   3  -9    2.57    0.78
   0   3  -9    3.00    0.75
   0  -3   9    3.14    0.71
   0  -3   9    2.89    0.70
  -1   3  -9   29.31    1.40
  -1   3  -9   25.35    1.38
   1  -3   9   27.60    1.42
  -2   3  -9  110.14    3.27
  -2   3  -9  115.53    3.33
   2  -3   9  105.33    3.51
  -3   3  -9   55.92    2.19
   3  -3   9   49.71    2.11
   4  -3   9   26.54    1.59
   8   2  -9   20.63    1.47
   8   2  -9   17.27    1.94
  -8  -2   9   20.17    1.42
   7   2  -9   24.16    2.03
   7   2  -9   24.73    1.58
   7   2  -9   29.77    1.59
  -7  -2   9   28.48    1.53
   6   2  -9   58.42    2.05
   6   2  -9   52.56    2.60
   6   2  -9   53.52    2.03
  -6  -2   9   54.66    2.08
   5   2  -9   95.46    2.84
   5   2  -9   93.54    2.86
   5   2  -9   89.86    3.47
  -5  -2   9  101.82    3.03
  -5  -2   9   95.50    2.99
   4   2  -9   36.21    2.14
   4   2  -9   37.18    1.53
   4   2  -9   36.83    1.56
  -4  -2   9   37.53    1.51
  -4  -2   9   40.33    1.54
  -4  -2   9   37.87    1.61
   3   2  -9    7.62    0.87
   3   2  -9    5.89    1.16
   3   2  -9    6.08    0.87
  -3  -2   9    6.43    0.62
  -3  -2   9    7.47    0.79
  -3  -2   9    6.36    0.75
   2   2  -9   23.08    1.42
   2   2  -9   22.09    1.17
   2   2  -9   28.06    1.91
  -2  -2   9   23.89    1.07
  -2  -2   9   23.21    1.21
  -2  -2   9   24.88    1.35
   1   2  -9  100.70    2.87
   1   2  -9  102.69    2.99
  -1  -2   9  101.70    3.17
  -1  -2   9  103.17    2.93
  -1  -2   9  102.45    2.98
   0   2  -9   93.37    2.80
   0   2  -9   98.43    2.87
   0  -2   9  104.57    2.95
   0  -2   9   94.27    3.06
  -1   2  -9  132.35    3.63
  -1   2  -9  126.82    3.59
   1  -2   9  129.69    3.90
  -2   2  -9   63.22    2.10
  -2   2  -9   62.41    2.17
   2  -2   9   58.26    2.21
  -3   2  -9    0.49    0.89
   3  -2   9    0.63    0.65
   4  -2   9    6.61    0.93
   8   1  -9   34.29    2.32
   8   1  -9   34.33    1.69
  -8  -1   9   33.82    1.67
   7   1  -9   29.60    2.12
   7   1  -9   29.34    1.45
   7   1  -9   27.87    1.59
  -7  -1   9   28.28    1.41
   6   1  -9   13.08    0.99
   6   1  -9   13.21    1.51
   6   1  -9   12.68    1.02
  -6  -1   9   12.33    0.96
   5   1  -9    0.18    0.94
   5   1  -9   -0.26    0.63
   5   1  -9    0.11    0.62
  -5  -1   9   -0.04    0.65
  -5  -1   9    0.69    0.47
   4   1  -9    0.84    0.64
   4   1  -9    1.14    0.62
   4   1  -9    1.18    0.95
  -4  -1   9    1.19    0.47
  -4  -1   9    0.27    0.65
   3   1  -9   27.46    1.24
   3   1  -9   28.90    1.98
   3   1  -9   28.38    1.28
  -3  -1   9   28.50    1.23
  -3  -1   9   30.31    1.14
  -3  -1   9   27.75    1.22
   2   1  -9  171.89    5.45
   2   1  -9  177.31    4.58
   2   1  -9  174.51    4.45
  -2  -1   9  180.80    4.60
  -2  -1   9  174.72    4.93
  -2  -1   9  177.34    4.77
   1   1  -9  151.12    3.97
   1   1  -9  154.12    4.07
  -1  -1   9  152.75    4.39
  -1  -1   9  158.88    4.24
   0   1  -9   69.56    2.15
   0   1  -9   70.41    2.17
   0  -1   9   72.60    2.32
  -1   1  -9    6.58    0.84
  -1   1  -9    7.77    0.76
   1  -1   9    8.43    0.78
  -2   1  -9    4.30    0.73
  -2   1  -9    2.71    0.85
   2  -1   9    4.29    0.70
  -3   1  -9    3.63    0.98
   3  -1   9    2.30    0.68
   4  -1   9   26.56    1.55
   8   0  -9    7.87    0.95
   8   0  -9    6.58    1.56
  -8   0   9    9.12    0.96
   7   0  -9   13.79    1.03
   7   0  -9   13.78    1.68
   7   0  -9   13.84    1.13
   7   0  -9   11.88    1.07
  -7   0   9   14.80    1.04
   6   0  -9    4.49    0.79
   6   0  -9    3.78    1.16
   6   0  -9    5.10    0.72
   6   0  -9    4.13    0.76
  -6   0   9    5.08    0.62
   5   0  -9   60.18    1.87
   5   0  -9   60.22    1.90
   5   0  -9   60.77    2.74
   5   0  -9   58.69    1.90
  -5   0   9   59.41    1.93
  -5   0   9   62.80    2.02
   4   0  -9   80.69    2.33
   4   0  -9   81.35    2.26
   4   0  -9   77.99    3.17
  -4   0   9   84.85    2.40
  -4   0   9   84.40    2.40
   3   0  -9  175.43    5.72
   3   0  -9  183.31    4.58
   3   0  -9  187.76    4.60
  -3   0   9  190.58    4.74
  -3   0   9  186.76    4.94
  -3   0   9  183.87    4.97
   2   0  -9  100.13    2.62
   2   0  -9   95.85    2.75
   2   0  -9  101.85    3.65
  -2   0   9  103.38    2.78
  -2   0   9  103.89    2.95
   1   0  -9    5.26    0.65
   1   0  -9    3.97    0.58
  -1   0   9    4.83    0.43
  -1   0   9    6.13    0.63
   0   0  -9   16.73    1.05
   0   0  -9   18.45    0.96
   0   0   9   18.11    0.99
  -1   0  -9   26.43    1.32
  -1   0  -9   24.90    1.17
   1   0   9   25.56    1.22
  -2   0  -9   35.58    1.62
  -2   0  -9   35.78    1.51
   2   0   9   35.93    1.53
  -3   0  -9   35.45    1.74
   3   0   9   31.20    1.55
   4   0   9   23.35    1.46
   8  -1  -9   -0.43    1.17
   8  -1  -9    2.17    0.94
   8  -1  -9    1.27    0.75
  -8   1   9    0.49    0.59
   7  -1  -9    9.75    1.48
   7  -1  -9   10.11    0.97
   7  -1  -9    9.80    0.86
  -7   1   9    9.73    0.83
   6  -1  -9   74.24    2.23
   6  -1  -9   71.98    2.17
   6  -1  -9   72.27    3.13
  -6   1   9   71.38    2.27
   5  -1  -9   72.20    2.08
   5  -1  -9   70.92    2.07
   5  -1  -9   71.63    3.05
  -5   1   9   71.83    2.14
  -5   1   9   74.35    2.18
   4  -1  -9   64.13    1.78
   4  -1  -9   65.75    1.85
   4  -1  -9   62.98    2.80
  -4   1   9   67.77    1.89
  -4   1   9   65.98    1.88
   3  -1  -9    4.40    1.14
   3  -1  -9    5.19    0.43
  -3   1   9    5.43    0.36
  -3   1   9    5.26    0.37
   2  -1  -9    2.27    1.12
   2  -1  -9    1.60    0.38
   2  -1  -9    1.40    0.51
  -2   1   9    1.75    0.25
  -2   1   9    2.26    0.44
   1  -1  -9    2.37    0.49
   1  -1  -9    1.68    0.50
  -1   1   9    2.49    0.45
   0  -1  -9   95.53    2.65
   0  -1  -9   96.21    2.68
   0   1   9   97.74    2.85
  -1  -1  -9   77.83    2.37
  -1  -1  -9   77.76    2.29
   1   1   9   74.88    2.44
  -2  -1  -9   29.76    1.32
  -2  -1  -9   27.74    1.47
   2   1   9   28.06    1.34
  -3  -1  -9   22.24    1.60
   3   1   9   20.77    1.29
   8  -2  -9   30.57    1.44
   8  -2  -9   29.12    1.67
   8  -2  -9   31.21    2.46
  -8   2   9   28.87    1.43
   7  -2  -9   54.23    1.92
   7  -2  -9   51.88    1.78
   7  -2  -9   50.12    2.83
  -7   2   9   53.50    1.89
   6  -2  -9   48.19    2.73
   6  -2  -9   52.66    1.72
   6  -2  -9   49.25    1.61
  -6   2   9   51.76    1.69
   5  -2  -9   14.50    0.77
   5  -2  -9   14.92    0.83
   5  -2  -9   14.80    1.57
  -5   2   9   16.01    0.85
  -5   2   9   13.66    0.67
  -5   2   9   14.04    0.69
   4  -2  -9    6.36    1.21
   3  -2  -9   68.86    2.94
   2  -2  -9   71.09    1.90
  -2   2   9   74.23    2.05
   1  -2  -9   72.37    2.03
   1  -2  -9   70.08    2.00
  -1   2   9   78.05    2.18
   0  -2  -9   44.31    1.56
   0  -2  -9   44.60    1.45
   0   2   9   43.43    1.53
  -1  -2  -9   19.04    1.19
  -1  -2  -9   15.75    0.99
   1   2   9   17.69    1.00
  -2  -2  -9    5.48    0.95
  -2  -2  -9    6.04    0.80
   2   2   9    5.50    0.76
  -3  -2  -9    2.52    0.98
   3   2   9    1.88    0.70
   8  -3  -9   30.04    2.33
   8  -3  -9   31.76    1.72
   8  -3  -9   28.27    1.39
  -8   3   9   29.76    1.43
   7  -3  -9    2.38    1.28
   7  -3  -9    2.91    0.75
   7  -3  -9    3.30    0.66
  -7   3   9    1.99    0.54
  -7   3   9    2.43    0.58
   6  -3  -9    2.16    1.24
   6  -3  -9    1.79    0.60
   6  -3  -9    1.89    0.50
  -6   3   9    1.56    0.41
   5  -3  -9    7.90    0.57
   5  -3  -9    7.62    0.55
   5  -3  -9    5.85    1.30
  -5   3   9    7.27    0.47
   4  -3  -9   85.43    3.54
   3  -3  -9   77.70    3.23
   2  -3  -9   31.86    0.99
   2  -3  -9   30.67    0.92
  -2   3   9   31.65    0.99
   1  -3  -9   36.85    1.28
   1  -3  -9   34.75    1.17
  -1   3   9   38.90    1.26
   0  -3  -9    8.40    0.67
   0  -3  -9    8.58    0.80
   0   3   9    9.36    0.73
  -1  -3  -9    0.19    0.75
  -1  -3  -9    0.76    0.59
   1   3   9    1.88    0.54
  -2  -3  -9   16.72    1.28
  -2  -3  -9   19.29    1.20
   2   3   9   17.05    1.15
   7  -4  -9   18.50    1.04
   7  -4  -9   15.12    1.80
   7  -4  -9   19.86    1.19
  -7   4   9   19.23    1.00
   6  -4  -9   45.01    1.45
   6  -4  -9   46.63    1.52
   6  -4  -9   44.35    2.68
  -6   4   9   46.14    1.51
   5  -4  -9   55.54    1.60
   5  -4  -9   56.57    2.81
   5  -4  -9   58.05    1.56
  -5   4   9   57.55    1.66
   4  -4  -9   40.54    2.36
   2  -4  -9    5.61    0.56
   2  -4  -9    5.49    0.41
  -2   4   9    5.47    0.40
   1  -4  -9    6.82    0.72
   1  -4  -9    5.56    0.54
  -1   4   9    6.20    0.53
   0  -4  -9   24.96    1.25
   0  -4  -9   20.37    1.04
   0   4   9   20.48    1.03
  -1  -4  -9   26.11    1.26
  -1  -4  -9   26.28    1.51
   1   4   9   25.68    1.26
  -2  -4  -9   40.20    1.86
  -2  -4  -9   41.34    1.71
   2   4   9   35.74    1.68
   7  -5  -9   21.46    1.27
   7  -5  -9   24.90    2.25
   7  -5  -9   23.78    1.11
  -7   5   9   20.93    1.06
   6  -5  -9   29.79    2.26
   6  -5  -9   34.05    1.18
   6  -5  -9   32.12    1.30
  -6   5   9   33.25    1.21
   5  -5  -9   15.79    0.72
   5  -5  -9   15.81    0.84
   5  -5  -9   16.45    1.75
   4  -5  -9    2.60    1.25
   3  -5  -9    2.83    0.33
   2  -5  -9   13.80    0.94
   2  -5  -9   14.84    0.70
  -2   5   9   13.79    0.70
   1  -5  -9   63.48    1.99
   1  -5  -9   62.31    1.86
  -1   5   9   63.99    2.00
   0  -5  -9   52.52    1.76
   0  -5  -9   52.89    1.90
   0   5   9   52.12    1.86
  -1  -5  -9   29.49    1.65
  -1  -5  -9   26.70    1.37
   1   5   9   26.33    1.37
   6  -6  -9    4.47    0.71
   6  -6  -9    2.28    1.48
   6  -6  -9    3.76    0.61
   5  -6  -9    1.10    0.59
   5  -6  -9    0.72    1.33
   5  -6  -9    1.20    0.49
   4  -6  -9    9.60    0.72
   4  -6  -9    9.61    0.69
   3  -6  -9   37.98    1.27
   3  -6  -9   40.15    1.46
   2  -6  -9   54.45    1.67
   2  -6  -9   55.29    1.85
  -2   6   9   55.77    1.79
   1  -6  -9   27.60    1.44
   1  -6  -9   28.63    1.21
   1  -6  -9   27.85    1.44
  -1   6   9   29.92    1.25
   0  -6  -9    5.13    0.76
   0  -6  -9    6.43    0.98
   0   6   9    4.18    0.66
   4  -7  -9   35.26    1.53
   4  -7  -9   37.10    1.47
   3  -7  -9   30.13    1.49
   3  -7  -9   30.31    1.29
   2  -7  -9    4.64    0.69
   2  -7  -9    3.58    0.88
  -3 -10  10   16.33    1.69
  -2 -10  10   41.75    2.33
  -1 -10  10   38.53    2.22
   0 -10  10    1.62    1.01
   1 -10  10   -0.10    0.92
  -4  -9  10   24.53    1.80
  -3  -9  10   18.96    1.65
  -2  -9  10   20.96    1.62
  -1  -9  10    2.34    1.02
   0  -9  10    7.42    1.23
   1  -9  10   22.69    1.76
   2  -9  10   26.13    1.90
   5   8 -10   50.22    2.43
  -5  -8  10   46.67    2.46
   4   8 -10   10.31    1.17
  -4  -8  10    9.40    1.33
   3   8 -10    0.16    0.79
  -3  -8  10    0.75    0.93
   2   8 -10   17.53    1.43
  -2  -8  10   14.87    1.43
  -1  -8  10   38.15    2.07
   0  -8  10   37.57    2.07
   1  -8  10   43.40    2.15
   2  -8  10    8.54    1.19
   6   7 -10   15.20    1.56
  -6  -7  10   13.00    1.48
   5   7 -10    1.73    1.00
  -5  -7  10    1.50    0.90
   4   7 -10    0.84    1.04
   4   7 -10    0.41    0.87
  -4  -7  10    0.46    0.89
   3   7 -10   40.74    2.04
   3   7 -10   42.72    1.99
  -3  -7  10   37.70    2.08
   2   7 -10   70.42    2.62
   2   7 -10   70.72    2.55
  -2  -7  10   67.84    2.81
   1   7 -10   34.14    1.76
  -1  -7  10   34.70    1.91
   0   7 -10   49.67    2.19
   0  -7  10   46.96    2.25
  -1   7 -10   15.94    1.40
   1  -7  10   12.23    1.30
   2  -7  10    1.03    0.87
   3  -7  10   10.99    1.27
   6   6 -10    7.92    1.27
  -6  -6  10    9.99    1.23
   5   6 -10   29.82    1.93
   5   6 -10   28.20    1.85
  -5  -6  10   28.50    1.77
   4   6 -10   41.42    2.05
   4   6 -10   41.88    2.08
  -4  -6  10   39.65    1.97
   3   6 -10   99.49    3.39
   3   6 -10   99.57    3.31
   3   6 -10   96.00    3.15
  -3  -6  10   91.78    3.40
   2   6 -10   32.39    1.73
   2   6 -10   30.93    1.85
   2   6 -10   30.87    1.70
  -2  -6  10   31.89    1.79
   1   6 -10    1.61    0.97
   1   6 -10    1.90    0.93
  -1  -6  10    0.79    0.81
   0   6 -10    0.39    0.90
   0  -6  10    0.98    0.82
  -1   6 -10   20.16    1.44
   1  -6  10   18.15    1.44
   2  -6  10   19.88    1.50
   3  -6  10   36.55    1.98
   7   5 -10   20.09    1.84
  -7  -5  10   21.72    1.61
   6   5 -10   44.50    2.08
   6   5 -10   38.91    2.34
  -6  -5  10   41.17    2.04
   5   5 -10   30.36    1.98
   5   5 -10   27.79    1.71
   5   5 -10   28.49    1.79
  -5  -5  10   29.76    1.67
   4   5 -10   35.09    2.02
   4   5 -10   37.43    1.84
   4   5 -10   37.06    1.93
  -4  -5  10   36.48    1.89
   3   5 -10   23.00    1.50
   3   5 -10   20.79    1.62
   3   5 -10   21.87    1.60
  -3  -5  10   21.82    1.56
  -3  -5  10   22.58    1.47
   2   5 -10    1.05    0.97
   2   5 -10    0.48    0.84
   2   5 -10    2.99    0.90
  -2  -5  10    0.72    0.78
  -2  -5  10    1.26    0.78
   1   5 -10   12.09    1.23
   1   5 -10   13.20    1.15
  -1  -5  10   13.97    1.13
  -1  -5  10   11.61    1.15
   0   5 -10   68.06    2.48
   0   5 -10   68.80    2.40
   0  -5  10   66.22    2.59
  -1   5 -10   59.00    2.21
   1  -5  10   53.70    2.29
  -2   5 -10   70.75    2.55
   2  -5  10   64.85    2.62
   3  -5  10   31.58    1.80
   7   4 -10   47.18    2.70
   7   4 -10   52.76    2.30
  -7  -4  10   51.35    2.26
   6   4 -10   30.74    1.99
   6   4 -10   28.64    1.69
  -6  -4  10   28.90    1.62
   5   4 -10    6.22    1.03
   5   4 -10    4.43    1.01
   5   4 -10    6.03    1.18
  -5  -4  10    6.14    0.91
   4   4 -10    8.04    1.07
   4   4 -10    7.54    1.03
   4   4 -10    7.78    1.20
  -4  -4  10    8.50    1.07
  -4  -4  10    7.12    0.94
   3   4 -10   29.45    1.65
   3   4 -10   31.44    1.90
   3   4 -10   30.75    1.61
  -3  -4  10   29.35    1.57
  -3  -4  10   32.33    1.57
   2   4 -10   25.60    1.85
   2   4 -10   24.02    1.53
   2   4 -10   27.27    1.42
  -2  -4  10   25.02    1.45
  -2  -4  10   26.59    1.49
   1   4 -10   94.35    2.91
   1   4 -10   92.36    2.97
  -1  -4  10   92.20    3.15
  -1  -4  10   97.22    2.97
   0   4 -10   91.24    2.88
   0   4 -10   92.87    2.98
   0  -4  10  102.66    3.06
   0  -4  10   91.08    3.18
  -1   4 -10   15.30    1.20
  -1   4 -10   15.34    1.20
   1  -4  10   14.54    1.21
  -2   4 -10    2.69    0.95
   2  -4  10    1.21    0.76
   3  -4  10    4.21    0.91
   7   3 -10    3.16    1.21
   7   3 -10    4.19    0.97
  -7  -3  10    3.91    0.86
   6   3 -10    2.32    0.91
   6   3 -10    2.22    0.89
   6   3 -10    2.43    1.18
  -6  -3  10    3.11    0.76
   5   3 -10   13.63    1.14
   5   3 -10   12.92    1.17
   5   3 -10   14.49    1.52
  -5  -3  10   13.03    1.18
  -5  -3  10   14.54    1.09
   4   3 -10   63.95    2.26
   4   3 -10   63.87    2.79
   4   3 -10   65.29    2.30
  -4  -3  10   66.86    2.34
  -4  -3  10   64.59    2.32
   3   3 -10   80.82    3.07
   3   3 -10   74.25    2.55
   3   3 -10   75.66    2.47
  -3  -3  10   81.11    2.55
  -3  -3  10   75.51    2.63
   2   3 -10  112.42    3.23
   2   3 -10  110.35    3.81
   2   3 -10  115.34    3.37
  -2  -3  10  111.26    3.57
  -2  -3  10  116.25    3.33
   1   3 -10   67.22    2.22
   1   3 -10   70.90    2.38
  -1  -3  10   65.26    2.46
  -1  -3  10   73.66    2.33
   0   3 -10    5.70    0.87
   0   3 -10    4.88    0.83
   0  -3  10    5.54    0.79
   0  -3  10    5.28    0.80
  -1   3 -10    7.88    0.94
  -1   3 -10    9.40    1.03
   1  -3  10    8.05    0.94
  -2   3 -10   38.50    1.80
   2  -3  10   37.37    1.76
  -3   3 -10   32.07    1.77
   3  -3  10   25.57    1.50
   7   2 -10   15.31    1.70
   7   2 -10   17.25    1.27
   7   2 -10   16.00    1.31
  -7  -2  10   17.97    1.29
   6   2 -10   18.60    1.32
   6   2 -10   15.64    1.21
   6   2 -10   14.96    1.60
  -6  -2  10   16.93    1.17
  -6  -2  10   14.66    1.20
   5   2 -10  111.65    3.22
   5   2 -10  104.49    3.92
   5   2 -10  107.06    3.22
  -5  -2  10  108.50    3.39
  -5  -2  10  112.55    3.36
   4   2 -10  106.25    3.17
   4   2 -10  105.05    3.84
   4   2 -10  109.92    3.17
  -4  -2  10  115.85    3.29
  -4  -2  10  109.92    3.37
   3   2 -10   37.82    2.06
   3   2 -10   38.86    1.55
   3   2 -10   38.91    1.64
  -3  -2  10   40.82    1.56
  -3  -2  10   33.98    1.55
   2   2 -10    1.14    1.02
   2   2 -10   -0.42    0.72
   2   2 -10   -0.17    0.66
  -2  -2  10    0.52    0.56
  -2  -2  10    0.42    0.61
   1   2 -10   18.86    1.21
   1   2 -10   17.31    1.10
  -1  -2  10   19.97    1.18
  -1  -2  10   21.96    1.14
   0   2 -10   26.25    1.34
   0   2 -10   22.98    1.28
   0  -2  10   23.08    1.29
  -1   2 -10   39.89    1.66
  -1   2 -10   39.53    1.67
   1  -2  10   37.15    1.71
  -2   2 -10   33.71    1.65
  -2   2 -10   29.26    1.48
   2  -2  10   30.80    1.56
  -3   2 -10   10.99    1.20
   3  -2  10    9.87    1.04
   7   1 -10   30.49    2.17
   7   1 -10   30.58    1.55
   7   1 -10   31.66    1.64
  -7  -1  10   32.98    1.55
   6   1 -10   60.78    2.95
   6   1 -10   61.39    2.16
   6   1 -10   61.50    2.11
  -6  -1  10   63.37    2.26
  -6  -1  10   60.26    2.18
   5   1 -10   46.70    1.71
   5   1 -10   45.19    2.42
   5   1 -10   46.26    1.75
  -5  -1  10   44.63    1.81
  -5  -1  10   45.54    1.71
   4   1 -10   22.84    1.20
   4   1 -10   20.72    1.17
   4   1 -10   17.63    1.61
  -4  -1  10   19.52    1.17
  -4  -1  10   19.32    1.06
   3   1 -10    1.16    0.62
   3   1 -10    0.98    1.06
   3   1 -10    0.28    0.68
  -3  -1  10    1.36    0.57
  -3  -1  10    0.70    0.53
   2   1 -10   88.13    3.45
   2   1 -10   90.81    2.56
   2   1 -10   92.54    2.71
  -2  -1  10   91.92    2.87
  -2  -1  10   94.52    2.62
   1   1 -10   80.48    2.35
   1   1 -10   80.93    2.43
  -1  -1  10   79.95    2.59
   0   1 -10   48.93    1.76
   0   1 -10   50.19    1.78
   0  -1  10   53.03    1.91
  -1   1 -10   46.58    1.82
  -1   1 -10   48.22    1.77
   1  -1  10   44.03    1.80
  -2   1 -10    3.68    0.80
  -2   1 -10    4.35    0.91
   2  -1  10    3.65    0.75
  -3   1 -10    2.06    0.97
   3  -1  10    0.49    0.69
   7   0 -10   20.48    1.94
   7   0 -10   24.23    1.48
   7   0 -10   29.57    1.38
  -7   0  10   27.40    1.34
   6   0 -10    1.98    1.19
   6   0 -10    3.15    0.71
   6   0 -10    2.68    0.74
  -6   0  10    2.63    0.57
   5   0 -10   12.27    0.91
   5   0 -10   12.08    0.86
   5   0 -10   10.77    1.45
  -5   0  10   13.96    0.86
  -5   0  10   13.10    0.94
   4   0 -10   23.98    1.86
   4   0 -10   21.57    1.09
   4   0 -10   22.52    1.14
  -4   0  10   23.54    1.10
  -4   0  10   22.91    1.01
   3   0 -10   75.25    2.26
   3   0 -10   79.45    2.20
   3   0 -10   78.60    3.23
  -3   0  10   82.28    2.25
  -3   0  10   79.48    2.41
   2   0 -10   77.36    2.22
   2   0 -10   83.87    2.36
  -2   0  10   82.18    2.51
   1   0 -10   26.83    1.19
   1   0 -10   26.30    1.13
  -1   0  10   26.90    1.21
   0   0 -10    6.01    0.77
   0   0 -10    4.44    0.66
   0   0  10    6.49    0.72
  -1   0 -10    1.32    0.64
  -1   0 -10    0.92    0.76
   1   0  10    1.79    0.59
  -2   0 -10    0.98    0.87
  -2   0 -10    1.05    0.69
   2   0  10    0.45    0.61
  -3   0 -10   11.67    1.25
   3   0  10   10.97    1.07
   7  -1 -10    0.62    0.62
   7  -1 -10    0.25    0.78
   7  -1 -10    1.69    1.29
  -7   1  10    0.88    0.54
   6  -1 -10   34.68    1.45
   6  -1 -10   36.33    2.42
   6  -1 -10   32.82    1.34
  -6   1  10   33.59    1.34
   5  -1 -10   66.51    2.99
   5  -1 -10   64.41    1.91
   5  -1 -10   60.42    1.90
   5  -1 -10   63.75    1.89
  -5   1  10   66.56    2.02
  -5   1  10   62.64    1.95
   4  -1 -10   45.07    1.40
   4  -1 -10   45.05    2.45
   4  -1 -10   45.80    1.48
  -4   1  10   46.32    1.46
  -4   1  10   49.36    1.49
   3  -1 -10   54.93    1.65
   3  -1 -10   56.02    1.55
   3  -1 -10   55.19    2.68
  -3   1  10   57.76    1.73
   2  -1 -10   12.76    0.74
   2  -1 -10   14.33    0.86
  -2   1  10   13.98    0.84
   1  -1 -10    2.30    0.57
   1  -1 -10    3.01    0.55
  -1   1  10    3.67    0.53
   0  -1 -10    5.12    0.65
   0  -1 -10    7.13    0.78
   0   1  10    6.44    0.68
  -1  -1 -10   40.29    1.70
  -1  -1 -10   43.62    1.58
   1   1  10   39.65    1.62
  -2  -1 -10   34.06    1.66
  -2  -1 -10   34.38    1.57
   2   1  10   34.52    1.60
   7  -2 -10   40.85    1.52
   7  -2 -10   40.82    2.55
   7  -2 -10   42.65    1.68
  -7   2  10   41.13    1.61
   6  -2 -10   43.52    1.46
   6  -2 -10   43.57    1.52
   6  -2 -10   43.62    2.63
  -6   2  10   43.89    1.52
   5  -2 -10   33.41    2.22
   5  -2 -10   32.03    1.15
   5  -2 -10   33.48    1.15
  -5   2  10   33.40    1.12
   4  -2 -10    5.34    1.33
   3  -2 -10    2.32    1.23
   2  -2 -10    1.37    0.42
   2  -2 -10    1.98    0.43
  -2   2  10    1.30    0.37
   1  -2 -10   12.95    0.86
   1  -2 -10   13.26    0.77
  -1   2  10   11.82    0.76
   0  -2 -10   55.94    1.75
   0  -2 -10   55.00    1.83
   0   2  10   52.71    1.84
  -1  -2 -10   35.24    1.56
  -1  -2 -10   34.62    1.43
   1   2  10   34.84    1.49
  -2  -2 -10   18.93    1.26
  -2  -2 -10   18.58    1.35
   2   2  10   16.90    1.20
   7  -3 -10   18.41    2.02
   7  -3 -10   17.93    1.04
   7  -3 -10   19.93    1.25
  -7   3  10   19.14    1.00
   6  -3 -10    8.43    0.70
   6  -3 -10    8.52    0.64
   6  -3 -10    9.02    1.54
  -6   3  10    8.01    0.62
  -6   3  10    9.38    0.68
   5  -3 -10    3.11    0.44
   5  -3 -10    1.46    1.23
   5  -3 -10    3.36    0.41
   4  -3 -10    6.25    1.38
   2  -3 -10   36.13    1.12
   2  -3 -10   37.33    1.16
  -2   3  10   37.84    1.20
   1  -3 -10   57.52    1.73
   1  -3 -10   59.54    1.82
  -1   3  10   59.86    1.86
   0  -3 -10   31.22    1.40
   0  -3 -10   32.66    1.28
   0   3  10   32.70    1.33
  -1  -3 -10    2.26    0.86
  -1  -3 -10    1.45    0.69
   1   3  10    2.24    0.60
   6  -4 -10    2.36    0.58
   6  -4 -10    2.05    1.30
   6  -4 -10    1.86    0.47
   5  -4 -10   13.60    0.65
   5  -4 -10   15.97    1.86
   5  -4 -10   13.24    0.58
   4  -4 -10   33.72    2.31
   2  -4 -10   29.80    1.08
   2  -4 -10   29.28    0.98
   1  -4 -10    0.41    0.46
   1  -4 -10   -0.44    0.60
  -1   4  10   -0.01    0.40
   0  -4 -10    2.69    0.81
   0  -4 -10    3.51    0.66
   0   4  10    3.46    0.60
   5  -5 -10   46.72    2.68
   5  -5 -10   42.71    1.31
   5  -5 -10   42.93    1.24
   3  -5 -10    7.45    0.50
   3  -5 -10    6.91    0.60
   2  -5 -10    3.00    0.48
   2  -5 -10    3.35    0.63
   2  -5 -10    3.19    0.64
   1  -5 -10   26.89    1.27
   1  -5 -10   25.73    1.13
  -1   5  10   27.54    1.17
   3  -6 -10    6.71    0.61
   3  -6 -10    6.51    0.76
  -3  -9  11   23.83    1.89
  -2  -9  11   50.62    2.49
  -1  -9  11   19.51    1.59
   0  -9  11   -0.20    0.94
   4   8 -11   20.27    1.55
  -4  -8  11   19.06    1.70
  -3  -8  11    8.17    1.21
  -2  -8  11    0.90    0.93
  -1  -8  11    1.91    0.97
   0  -8  11   10.82    1.28
   1  -8  11   27.46    1.84
   5   7 -11   22.85    1.76
  -5  -7  11   25.02    1.82
   4   7 -11    1.09    0.97
   4   7 -11   -0.37    1.03
  -4  -7  11    1.21    0.93
   3   7 -11    2.52    1.05
   3   7 -11    4.15    1.01
  -3  -7  11    2.04    0.96
   2   7 -11   37.11    1.94
   2   7 -11   32.00    1.84
  -2  -7  11   34.25    1.94
   1   7 -11   36.18    1.91
  -1  -7  11   28.90    1.84
   0   7 -11   57.67    2.40
   0  -7  11   54.68    2.47
   1  -7  11   36.11    2.00
   2  -7  11    2.74    0.95
   6   6 -11    1.15    1.11
   6   6 -11    0.15    1.10
  -6  -6  11    0.93    0.96
   5   6 -11    2.55    1.10
   5   6 -11    3.34    1.10
  -5  -6  11    1.01    0.89
   4   6 -11   13.80    1.39
   4   6 -11   15.42    1.42
  -4  -6  11   14.48    1.38
   3   6 -11   53.33    2.25
   3   6 -11   55.60    2.48
  -3  -6  11   52.91    2.40
   2   6 -11   42.28    1.97
   2   6 -11   41.17    2.10
  -2  -6  11   36.51    1.99
   1   6 -11   16.95    1.38
  -1  -6  11   16.45    1.41
   0   6 -11   18.63    1.42
   0  -6  11   19.18    1.48
  -1   6 -11    0.02    0.97
   1  -6  11    0.43    0.83
   2  -6  11    9.10    1.21
   6   5 -11   26.16    1.94
   6   5 -11   27.02    1.79
  -6  -5  11   26.85    1.72
   5   5 -11   27.26    1.85
   5   5 -11   25.94    1.80
  -5  -5  11   27.50    1.67
   4   5 -11   63.78    2.56
   4   5 -11   63.46    2.50
   4   5 -11   67.96    2.79
  -4  -5  11   62.15    2.57
   3   5 -11   58.49    2.59
   3   5 -11   59.48    2.43
   3   5 -11   62.23    2.31
  -3  -5  11   59.21    2.46
   2   5 -11   16.45    1.40
   2   5 -11   16.13    1.29
   2   5 -11   18.08    1.47
  -2  -5  11   17.44    1.39
   1   5 -11    1.86    0.89
   1   5 -11    0.76    0.96
  -1  -5  11    1.67    0.80
   0   5 -11   42.87    1.90
   0   5 -11   41.70    1.95
   0  -5  11   37.10    1.91
  -1   5 -11   42.20    1.93
   1  -5  11   38.29    1.95
  -2   5 -11   32.85    1.74
   2  -5  11   29.69    1.78
   6   4 -11   34.17    1.79
   6   4 -11   29.51    2.19
  -6  -4  11   30.99    1.72
   5   4 -11   26.06    1.98
   5   4 -11   21.78    1.52
   5   4 -11   24.03    1.56
  -5  -4  11   22.01    1.46
   4   4 -11   10.17    1.36
   4   4 -11    9.44    1.20
   4   4 -11   11.26    1.18
  -4  -4  11   10.69    1.13
  -4  -4  11   11.15    1.17
   3   4 -11   -0.11    0.97
   3   4 -11    0.54    0.97
   3   4 -11    0.39    0.83
  -3  -4  11   -0.59    0.73
  -3  -4  11   -0.18    0.74
   2   4 -11   11.27    1.12
   2   4 -11   12.06    1.38
   2   4 -11   11.89    1.22
  -2  -4  11   10.88    1.15
  -2  -4  11   12.19    1.08
   1   4 -11   56.98    2.17
   1   4 -11   55.91    2.19
  -1  -4  11   57.13    2.27
  -1  -4  11   59.51    2.18
   0   4 -11   62.28    2.26
   0   4 -11   60.83    2.29
   0  -4  11   58.94    2.37
  -1   4 -11   26.91    1.57
   1  -4  11   23.81    1.50
  -2   4 -11   12.40    1.29
   2  -4  11   12.62    1.22
   7   3 -11   26.10    1.68
   7   3 -11   22.57    2.06
  -7  -3  11   24.39    1.59
   6   3 -11   20.60    1.49
   6   3 -11   17.89    1.36
   6   3 -11   18.42    1.78
  -6  -3  11   18.99    1.31
   5   3 -11    3.69    0.98
   5   3 -11    1.64    0.92
   5   3 -11    3.91    1.15
  -5  -3  11    4.04    0.83
  -5  -3  11    3.93    0.98
   4   3 -11   39.45    1.83
   4   3 -11   40.71    1.77
   4   3 -11   40.56    2.18
  -4  -3  11   38.45    1.81
  -4  -3  11   35.84    1.76
   3   3 -11   46.74    2.42
   3   3 -11   45.05    1.95
   3   3 -11   46.44    1.90
  -3  -3  11   45.48    1.86
  -3  -3  11   46.52    1.97
   2   3 -11   84.86    2.76
   2   3 -11   83.49    2.63
   2   3 -11   80.82    3.23
  -2  -3  11   88.63    2.73
  -2  -3  11   81.32    2.88
   1   3 -11   94.02    2.93
   1   3 -11   89.42    2.79
  -1  -3  11   88.78    3.05
  -1  -3  11   97.11    2.94
   0   3 -11   10.54    1.06
   0   3 -11   10.93    1.05
   0  -3  11   12.06    1.06
  -1   3 -11    1.96    0.85
  -1   3 -11    1.44    0.82
   1  -3  11    0.16    0.70
  -2   3 -11    9.19    1.17
   2  -3  11    7.47    1.00
   7   2 -11   -0.52    0.81
   7   2 -11    0.25    1.16
   7   2 -11   -0.62    0.89
  -7  -2  11    0.38    0.69
   6   2 -11    4.73    0.91
   6   2 -11    3.54    1.29
   6   2 -11    2.02    0.89
  -6  -2  11    3.33    0.77
   5   2 -11   36.14    2.31
   5   2 -11   35.84    1.72
   5   2 -11   34.38    1.67
  -5  -2  11   39.94    1.66
  -5  -2  11   37.97    1.77
   4   2 -11   79.77    3.23
   4   2 -11   72.78    2.43
   4   2 -11   72.84    2.43
  -4  -2  11   72.39    2.54
  -4  -2  11   75.32    2.50
   3   2 -11   34.96    2.27
   3   2 -11   39.02    1.61
   3   2 -11   34.27    1.70
  -3  -2  11   38.97    1.71
  -3  -2  11   40.03    1.62
   2   2 -11   20.31    1.27
   2   2 -11   21.28    1.32
  -2  -2  11   23.15    1.29
  -2  -2  11   24.01    1.23
   1   2 -11    0.53    0.74
   1   2 -11    0.53    0.74
  -1  -2  11    1.04    0.63
  -1  -2  11   -0.15    0.63
   0   2 -11    0.42    0.76
   0   2 -11   -0.57    0.71
   0  -2  11    0.72    0.65
  -1   2 -11   14.21    1.12
  -1   2 -11   17.69    1.28
   1  -2  11   15.08    1.18
  -2   2 -11   33.41    1.74
   2  -2  11   31.69    1.67
   7   1 -11   19.86    1.95
   7   1 -11   20.99    1.36
   7   1 -11   20.09    1.37
  -7  -1  11   21.69    1.32
   6   1 -11   34.61    2.32
   6   1 -11   40.49    1.74
   6   1 -11   38.80    1.65
  -6  -1  11   39.44    1.77
  -6  -1  11   40.65    1.66
   5   1 -11   60.30    2.12
   5   1 -11   57.11    2.84
   5   1 -11   58.21    2.06
  -5  -1  11   63.28    2.23
  -5  -1  11   63.68    2.16
   4   1 -11   23.10    1.28
   4   1 -11   22.46    1.31
   4   1 -11   20.78    1.88
  -4  -1  11   23.43    1.28
  -4  -1  11   21.47    1.19
   3   1 -11    0.55    0.76
   3   1 -11   -0.80    1.01
   3   1 -11    0.85    0.66
  -3  -1  11    1.07    0.60
  -3  -1  11    1.23    0.64
   2   1 -11   14.88    0.99
   2   1 -11   13.71    1.04
  -2  -1  11   15.98    1.00
  -2  -1  11   15.87    1.09
   1   1 -11   30.87    1.38
   1   1 -11   31.96    1.44
  -1  -1  11   34.41    1.49
   0   1 -11   28.34    1.38
   0   1 -11   30.58    1.46
   0  -1  11   29.05    1.41
  -1   1 -11   57.71    2.08
  -1   1 -11   54.92    1.99
   1  -1  11   50.67    2.06
  -2   1 -11   35.78    1.81
   2  -1  11   30.41    1.61
   7   0 -11   30.34    2.47
   7   0 -11   34.11    1.54
   7   0 -11   31.68    1.62
  -7   0  11   31.39    1.48
   6   0 -11   10.99    0.90
   6   0 -11    9.96    1.60
   6   0 -11    8.65    0.91
  -6   0  11    9.52    0.83
   5   0 -11    1.52    0.69
   5   0 -11    0.03    0.65
   5   0 -11    0.32    1.18
  -5   0  11    1.14    0.53
   4   0 -11    2.81    0.69
   4   0 -11    2.72    0.70
   4   0 -11    1.57    1.18
  -4   0  11    2.78    0.57
  -4   0  11    2.15    0.63
   3   0 -11   17.08    0.98
   3   0 -11   16.77    1.09
   3   0 -11   12.70    1.61
  -3   0  11   17.23    0.94
  -3   0  11   15.54    1.02
   2   0 -11   55.57    1.82
   2   0 -11   55.01    1.75
  -2   0  11   55.68    1.91
   1   0 -11   32.09    1.32
   1   0 -11   32.19    1.35
  -1   0  11   33.61    1.41
   0   0 -11   43.98    1.69
   0   0 -11   42.50    1.61
   0   0  11   44.17    1.71
  -1   0 -11   24.62    1.41
  -1   0 -11   25.47    1.31
   1   0  11   22.65    1.30
   7  -1 -11    6.06    0.80
   7  -1 -11    5.22    1.56
   7  -1 -11    4.74    0.93
   7  -1 -11    4.21    0.86
  -7   1  11    4.68    0.71
   6  -1 -11   14.21    0.97
   6  -1 -11   13.01    0.94
   6  -1 -11   12.91    1.79
  -6   1  11   14.89    0.91
   5  -1 -11   26.37    1.17
   5  -1 -11   26.66    1.15
   5  -1 -11   24.02    2.09
  -5   1  11   27.75    1.12
   4  -1 -11   41.80    1.41
   4  -1 -11   38.24    1.39
   4  -1 -11   40.09    2.60
  -4   1  11   44.39    1.44
   3  -1 -11   51.92    1.72
   3  -1 -11   53.06    2.79
   3  -1 -11   54.81    1.59
  -3   1  11   55.45    1.79
   2  -1 -11   48.93    1.56
   2  -1 -11   45.83    1.50
  -2   1  11   48.17    1.65
   1  -1 -11   16.18    0.98
   1  -1 -11   15.82    0.95
  -1   1  11   15.21    0.95
   0  -1 -11    0.59    0.59
   0  -1 -11   -0.26    0.70
   0   1  11    0.03    0.51
  -1  -1 -11   16.28    1.17
  -1  -1 -11   13.82    1.02
   1   1  11   13.67    1.08
   6  -2 -11   32.21    2.37
   6  -2 -11   35.65    1.29
   6  -2 -11   37.42    1.42
   5  -2 -11   35.60    2.37
   5  -2 -11   34.18    1.21
   5  -2 -11   35.67    1.20
   4  -2 -11   34.77    2.44
   3  -2 -11   13.82    0.79
   3  -2 -11   15.25    0.69
   2  -2 -11    2.65    0.51
   2  -2 -11    2.99    0.50
  -2   2  11    2.68    0.46
   1  -2 -11    5.63    0.69
   1  -2 -11    5.59    0.63
  -1   2  11    7.14    0.65
   0  -2 -11   41.86    1.65
   0  -2 -11   42.63    1.57
   0   2  11   41.21    1.61
   6  -3 -11   22.46    0.95
   6  -3 -11   20.67    2.12
   6  -3 -11   22.65    1.09
   5  -3 -11   26.40    0.93
   5  -3 -11   28.81    2.36
   4  -3 -11   -0.15    1.26
   2  -3 -11   31.86    1.09
   2  -3 -11   32.23    1.14
   1  -3 -11   45.09    1.52
   1  -3 -11   46.40    1.61
  -1   3  11   46.60    1.62
   5  -4 -11   -0.25    1.26
   2  -4 -11   42.49    1.41
   2  -4 -11   42.23    1.33
  -3  -8  12   23.20    1.83
  -2  -8  12   25.91    1.85
  -1  -8  12    2.19    0.95
   4   7 -12   14.52    1.50
   4   7 -12   13.30    1.46
  -4  -7  12   14.87    1.52
   3   7 -12    0.67    1.04
   3   7 -12   -1.27    0.94
  -3  -7  12    0.38    0.93
   2   7 -12    3.85    1.16
  -2  -7  12    4.56    1.05
   1   7 -12   15.17    1.47
  -1  -7  12   16.17    1.46
   0  -7  12   33.00    1.97
   5   6 -12    0.86    1.13
   5   6 -12    0.21    1.08
  -5  -6  12    0.07    0.91
   4   6 -12    0.23    1.05
   4   6 -12   -0.26    0.99
  -4  -6  12    0.35    0.88
   3   6 -12   23.44    1.69
   3   6 -12   24.66    1.82
  -3  -6  12   22.40    1.66
   2   6 -12   44.38    2.04
  -2  -6  12   38.95    2.04
   1   6 -12   40.66    2.02
  -1  -6  12   42.13    2.08
   0   6 -12   39.77    2.01
   0  -6  12   38.56    2.03
   1  -6  12   10.68    1.28
   5   5 -12   11.26    1.50
   5   5 -12   11.52    1.34
  -5  -5  12   11.63    1.28
   4   5 -12   50.66    2.55
   4   5 -12   53.01    2.44
   4   5 -12   51.13    2.26
  -4  -5  12   50.97    2.36
   3   5 -12   92.30    3.46
   3   5 -12   86.84    3.17
   3   5 -12   91.88    3.01
  -3  -5  12   88.54    3.25
   2   5 -12   23.94    1.76
   2   5 -12   26.30    1.60
  -2  -5  12   26.50    1.68
   1   5 -12    4.00    1.01
  -1  -5  12    3.50    0.94
   0   5 -12    1.83    1.03
   0  -5  12   -0.19    0.78
  -1   5 -12    7.72    1.19
   1  -5  12    8.16    1.13
   6   4 -12   33.77    1.86
   6   4 -12   32.99    2.40
  -6  -4  12   31.58    1.84
   5   4 -12   35.63    1.92
   5   4 -12   35.01    1.91
   5   4 -12   35.64    2.29
  -5  -4  12   34.56    1.82
   4   4 -12   44.51    2.48
   4   4 -12   46.59    2.04
   4   4 -12   45.40    2.17
  -4  -4  12   47.26    2.13
   3   4 -12   15.58    1.59
   3   4 -12   15.84    1.34
   3   4 -12   14.06    1.26
  -3  -4  12   15.56    1.29
   2   4 -12    1.86    0.93
   2   4 -12    0.22    0.91
  -2  -4  12    2.01    0.80
   1   4 -12   16.06    1.33
   1   4 -12   14.63    1.27
  -1  -4  12   16.88    1.34
   0   4 -12   33.18    1.73
   0  -4  12   29.75    1.71
  -1   4 -12   19.09    1.43
   1  -4  12   18.60    1.43
   6   3 -12   35.00    1.91
   6   3 -12   30.78    1.78
   6   3 -12   29.41    2.34
  -6  -3  12   32.63    1.77
   5   3 -12    8.99    1.14
   5   3 -12    7.72    1.46
   5   3 -12    8.93    1.20
  -5  -3  12    8.43    1.05
   4   3 -12    0.69    0.92
   4   3 -12    1.17    1.16
   4   3 -12   -0.10    0.96
  -4  -3  12   -0.36    0.76
  -4  -3  12   -0.16    0.82
   3   3 -12   14.96    1.20
   3   3 -12   19.99    1.46
   3   3 -12   16.10    1.66
  -3  -3  12   16.30    1.23
  -3  -3  12   18.57    1.39
   2   3 -12   24.60    1.42
   2   3 -12   22.93    1.56
  -2  -3  12   23.99    1.52
  -2  -3  12   24.41    1.47
   1   3 -12   51.84    2.10
   1   3 -12   53.01    2.02
  -1  -3  12   55.10    2.19
   0   3 -12   24.20    1.45
   0   3 -12   25.09    1.48
   0  -3  12   23.15    1.43
  -1   3 -12   10.45    1.21
   1  -3  12    7.85    1.04
   6   2 -12    3.04    1.01
   6   2 -12    3.88    1.40
   6   2 -12    3.31    0.95
  -6  -2  12    3.78    0.81
   5   2 -12   11.79    1.17
   5   2 -12   12.25    1.16
   5   2 -12   11.86    1.61
  -5  -2  12   10.61    1.17
  -5  -2  12   12.57    1.09
   4   2 -12   39.76    2.36
   4   2 -12   41.53    1.88
   4   2 -12   39.01    1.75
  -4  -2  12   44.98    1.85
  -4  -2  12   40.85    1.83
   3   2 -12   33.18    2.30
   3   2 -12   28.79    1.61
   3   2 -12   31.05    1.51
  -3  -2  12   30.08    1.58
  -3  -2  12   32.76    1.57
   2   2 -12   40.39    1.70
   2   2 -12   42.52    1.81
  -2  -2  12   41.45    1.83
  -2  -2  12   43.64    1.76
   1   2 -12   40.27    1.66
   1   2 -12   37.13    1.69
  -1  -2  12   43.28    1.78
  -1  -2  12   37.94    1.74
   0   2 -12    7.41    0.97
   0   2 -12    8.07    1.00
   0  -2  12    8.50    0.96
  -1   2 -12    0.63    0.93
   1  -2  12   -1.12    0.66
   6   1 -12   21.92    1.41
   6   1 -12   22.54    2.09
   6   1 -12   23.05    1.49
  -6  -1  12   23.69    1.36
   5   1 -12   44.74    1.81
   5   1 -12   45.58    1.84
   5   1 -12   50.82    2.80
  -5  -1  12   47.90    1.90
   4   1 -12   34.65    1.64
   4   1 -12   36.34    1.57
   4   1 -12   37.13    2.48
  -4  -1  12   36.94    1.62
   3   1 -12   23.82    2.04
   3   1 -12   21.08    1.21
   3   1 -12   21.68    1.34
  -3  -1  12   21.32    1.29
   2   1 -12    2.47    0.71
   2   1 -12    2.62    0.78
  -2  -1  12    3.57    0.72
  -2  -1  12    3.21    0.66
   1   1 -12    0.55    0.69
   1   1 -12    0.19    0.69
  -1  -1  12    0.70    0.62
   0   1 -12    5.26    0.85
   0   1 -12    5.87    0.95
   0  -1  12    4.24    0.81
   6   0 -12   30.40    1.46
   6   0 -12   30.24    1.53
   6   0 -12   30.27    2.41
  -6   0  12   30.17    1.44
   5   0 -12   21.89    1.28
   5   0 -12   20.77    1.24
   5   0 -12   20.68    2.06
  -5   0  12   22.44    1.20
   4   0 -12   13.69    0.96
   4   0 -12   15.09    1.71
   4   0 -12   13.92    1.03
  -4   0  12   15.64    1.07
   3   0 -12    0.72    0.64
   3   0 -12   -0.42    0.70
  -3   0  12   -0.02    0.57
   2   0 -12   16.92    1.11
   2   0 -12   16.18    1.01
  -2   0  12   15.78    1.08
   1   0 -12   37.05    1.51
   1   0 -12   37.21    1.51
  -1   0  12   38.29    1.59
   0   0 -12   36.68    1.57
   0   0 -12   40.91    1.70
   0   0  12   38.66    1.67
   5  -1 -12    1.27    0.67
   5  -1 -12    2.82    0.67
   5  -1 -12    2.42    1.37
   4  -1 -12    3.66    1.43
   4  -1 -12    1.54    0.63
   4  -1 -12    2.17    0.71
   3  -1 -12   42.09    1.53
   3  -1 -12   43.42    1.43
   2  -1 -12   47.41    1.61
   2  -1 -12   47.54    1.60
   1  -1 -12   23.59    1.19
   1  -1 -12   28.05    1.28
  -1   1  12   23.79    1.20
   5  -2 -12   23.78    1.04
   5  -2 -12   19.62    2.16
   5  -2 -12   24.20    1.07
   4  -2 -12   41.08    1.44
   4  -2 -12   45.50    1.39
   4  -2 -12   43.56    2.76
   3  -2 -12   37.45    1.22
   3  -2 -12   35.63    1.25
   2  -2 -12   11.68    0.87
   2  -2 -12   11.01    0.79
   3   5 -13   40.72    2.41
   3   5 -13   37.69    1.94
  -3  -5  13   38.57    2.08
   2   5 -13   26.49    1.75
  -2  -5  13   25.06    1.65
   4   4 -13   38.85    2.14
   4   4 -13   40.08    2.50
   4   4 -13   41.45    2.01
  -4  -4  13   43.04    2.10
   3   4 -13   28.86    2.27
   3   4 -13   33.92    1.79
   3   4 -13   32.38    1.90
  -3  -4  13   33.82    1.85
   2   4 -13    4.59    1.10
   2   4 -13    6.96    1.11
  -2  -4  13    6.78    1.05
   1   4 -13    0.51    0.94
  -1  -4  13   -0.54    0.79
   4   3 -13    1.27    1.08
   4   3 -13    3.33    1.36
   4   3 -13    2.18    0.98
  -4  -3  13    2.12    0.89
   3   3 -13   -0.49    1.24
   3   3 -13   -0.17    0.92
   3   3 -13    1.06    0.93
  -3  -3  13    1.30    0.80
   2   3 -13    2.46    0.95
   2   3 -13    0.22    0.89
  -2  -3  13    0.73    0.76
   1   3 -13   24.70    1.53
   1   3 -13   21.22    1.51
  -1  -3  13   19.26    1.43
   4   2 -13   11.19    1.15
   4   2 -13   10.03    1.59
   4   2 -13   13.46    1.25
  -4  -2  13   14.04    1.18
   3   2 -13   17.61    1.29
   3   2 -13   16.93    1.24
  -3  -2  13   15.73    1.28
   2   2 -13   36.04    1.73
   2   2 -13   34.95    1.66
  -2  -2  13   34.21    1.72
   4   1 -13   25.46    1.45
   4   1 -13   27.72    2.23
   4   1 -13   25.57    1.56
  -4  -1  13   25.85    1.47
   3   1 -13   25.70    1.40
   3   1 -13   25.29    1.48
  -3  -1  13   28.59    1.48
   2   1 -13   23.14    1.43
   2   1 -13   25.77    1.35
  -2  -1  13   27.59    1.42
   0   0   0    0.00    0.00
;
_shelx_hkl_checksum              26185
loop_
_space_group_symop_operation_xyz
'x, y, z'
'-x, -y, -z'
loop_
_atom_site_label
_atom_site_type_symbol
_atom_site_fract_x
_atom_site_fract_y
_atom_site_fract_z
_atom_site_U_iso_or_equiv
_atom_site_adp_type
_atom_site_occupancy
_atom_site_site_symmetry_order
_atom_site_calc_flag
_atom_site_refinement_flags_posn
_atom_site_refinement_flags_adp
_atom_site_refinement_flags_occupancy
_atom_site_disorder_assembly
_atom_site_disorder_group
C1 C 0.8235(4) 1.2161(3) 0.7429(3) 0.0321(7) Uani 1 1 d . . . . .
H1 H 0.8484 1.2929 0.8163 0.039 Uiso 1 1 calc R U . . .
C2 C 0.8585(4) 1.2245(3) 0.6244(3) 0.0339(7) Uani 1 1 d . . . . .
C3 C 0.8234(5) 1.1122(3) 0.5164(3) 0.0398(8) Uani 1 1 d . . . . .
H3 H 0.8482 1.1197 0.4378 0.048 Uiso 1 1 calc R U . . .
C4 C 0.7503(5) 0.9869(3) 0.5254(3) 0.0448(8) Uani 1 1 d . . . . .
H4 H 0.7253 0.9100 0.4522 0.054 Uiso 1 1 calc R U . . .
C5 C 0.7143(5) 0.9754(3) 0.6417(3) 0.0381(7) Uani 1 1 d . . . . .
H5 H 0.6664 0.8914 0.6484 0.046 Uiso 1 1 calc R U . . .
C6 C 0.7511(4) 1.0912(3) 0.7478(3) 0.0299(6) Uani 1 1 d . . . . .
N1 N 0.5140(4) 0.5601(3) 0.3687(3) 0.0384(6) Uani 1 1 d . . . . .
N2 N 0.9361(4) 1.3583(3) 0.6190(3) 0.0468(7) Uani 1 1 d . . . . .
H2A H 0.9504 1.4200 0.6970 0.070 Uiso 1 1 calc R U . . .
H2B H 1.0501 1.3592 0.6079 0.070 Uiso 1 1 calc R U . . .
H2C H 0.8549 1.3773 0.5489 0.070 Uiso 1 1 calc R U . . .
N3 N 0.7139(4) 1.0807(3) 0.8735(3) 0.0374(6) Uani 1 1 d . . . . .
H3A H 0.6673 0.9946 0.8640 0.056 Uiso 1 1 calc R U . . .
H3B H 0.8236 1.1112 0.9450 0.056 Uiso 1 1 calc R U . . .
H3C H 0.6284 1.1299 0.8874 0.056 Uiso 1 1 calc R U . . .
O1 O 0.6444(4) 0.5145(3) 0.3316(3) 0.0589(7) Uani 1 1 d . . . . .
O1' O 1.0347(4) 1.3549(3) 0.3882(3) 0.0577(7) Uani 1 1 d D . . . .
O2 O 0.3419(3) 0.5117(2) 0.2900(2) 0.0462(6) Uani 1 1 d . . . . .
O3 O 0.5520(4) 0.6465(2) 0.4792(3) 0.0597(7) Uani 1 1 d . . . . .
Cl1 Cl 0.32929(13) 0.19971(10) -0.16695(8) 0.0548(2) Uani 1 1 d . . . . .
Cl2 Cl 0.61867(11) 0.17730(8) 0.16524(9) 0.04132(18) Uani 1 1 d . . . . .
Cl3 Cl 0.12305(11) 0.19938(8) 0.10327(9) 0.04274(19) Uani 1 1 d . . . . .
Cl4 Cl 0.76169(12) 0.46318(9) 0.04775(9) 0.04157(18) Uani 1 1 d . . . . .
Bi1 Bi 0.42218(2) 0.34801(2) 0.08226(2) 0.02908(5) Uani 1 1 d . . . . .
H1B H 1.163(2) 1.362(7) 0.418(6) 0.18(3) Uiso 1 1 d D . . . .
H1A H 0.970(6) 1.293(4) 0.308(3) 0.107(19) Uiso 1 1 d D . . . .
loop_
_atom_site_aniso_label
_atom_site_aniso_U_11
_atom_site_aniso_U_22
_atom_site_aniso_U_33
_atom_site_aniso_U_23
_atom_site_aniso_U_13
_atom_site_aniso_U_12
C1 0.0335(17) 0.0307(16) 0.0332(16) 0.0055(13) 0.0160(13) 0.0063(13)
C2 0.0315(17) 0.0365(17) 0.0366(17) 0.0139(14) 0.0135(14) 0.0076(14)
C3 0.0446(19) 0.049(2) 0.0327(16) 0.0148(15) 0.0189(15) 0.0152(16)
C4 0.056(2) 0.0386(19) 0.0331(17) 0.0011(14) 0.0122(16) 0.0101(17)
C5 0.0441(19) 0.0297(16) 0.0360(17) 0.0076(13) 0.0096(15) 0.0059(14)
C6 0.0281(16) 0.0347(16) 0.0290(15) 0.0104(13) 0.0111(12) 0.0085(13)
N1 0.0512(18) 0.0313(14) 0.0326(14) 0.0070(11) 0.0172(13) 0.0058(13)
N2 0.0540(19) 0.0444(17) 0.0530(17) 0.0214(14) 0.0297(15) 0.0069(14)
N3 0.0397(15) 0.0381(15) 0.0365(14) 0.0128(12) 0.0162(12) 0.0049(12)
O1 0.0410(14) 0.0722(18) 0.0507(15) -0.0047(13) 0.0166(12) 0.0092(13)
O1' 0.0560(18) 0.0668(18) 0.0423(15) 0.0066(13) 0.0209(13) -0.0074(14)
O2 0.0397(14) 0.0502(14) 0.0439(13) 0.0046(11) 0.0156(11) 0.0073(11)
O3 0.0764(19) 0.0454(15) 0.0436(14) -0.0073(11) 0.0180(13) 0.0109(13)
Cl1 0.0530(5) 0.0726(6) 0.0289(4) -0.0013(4) 0.0072(4) 0.0273(5)
Cl2 0.0360(4) 0.0399(4) 0.0491(5) 0.0218(4) 0.0093(4) 0.0079(3)
Cl3 0.0335(4) 0.0449(5) 0.0491(5) 0.0141(4) 0.0154(4) 0.0019(4)
Cl4 0.0390(4) 0.0489(5) 0.0477(5) 0.0219(4) 0.0222(4) 0.0146(4)
Bi1 0.03271(7) 0.03043(7) 0.02596(6) 0.00920(4) 0.01192(5) 0.00681(5)
loop_
_atom_type_symbol
_atom_type_description
_atom_type_scat_dispersion_real
_atom_type_scat_dispersion_imag
_atom_type_scat_source
C C 0.0033 0.0016 'International Tables Vol C Tables 4.2.6.8 and 6.1.1.4'
H H 0.0000 0.0000 'International Tables Vol C Tables 4.2.6.8 and 6.1.1.4'
N N 0.0061 0.0033 'International Tables Vol C Tables 4.2.6.8 and 6.1.1.4'
O O 0.0106 0.0060 'International Tables Vol C Tables 4.2.6.8 and 6.1.1.4'
Cl Cl 0.1484 0.1585 'International Tables Vol C Tables 4.2.6.8 and 6.1.1.4'
Bi Bi -4.1077 10.2566 'International Tables Vol C Tables 4.2.6.8 and 6.1.1.4'
loop_
_geom_angle_atom_site_label_1
_geom_angle_atom_site_label_2
_geom_angle_atom_site_label_3
_geom_angle
_geom_angle_site_symmetry_1
_geom_angle_site_symmetry_3
C6 C1 C2 117.5(3) . .
C6 C1 H1 121.2 . .
C2 C1 H1 121.2 . .
C3 C2 C1 121.6(3) . .
C3 C2 N2 120.8(3) . .
C1 C2 N2 117.6(3) . .
C2 C3 C4 119.1(3) . .
C2 C3 H3 120.4 . .
C4 C3 H3 120.4 . .
C5 C4 C3 120.6(3) . .
C5 C4 H4 119.7 . .
C3 C4 H4 119.7 . .
C4 C5 C6 118.3(3) . .
C4 C5 H5 120.8 . .
C6 C5 H5 120.8 . .
C1 C6 C5 122.8(3) . .
C1 C6 N3 118.2(3) . .
C5 C6 N3 119.1(3) . .
O3 N1 O1 121.4(3) . .
O3 N1 O2 120.9(3) . .
O1 N1 O2 117.6(3) . .
C2 N2 H2A 109.5 . .
C2 N2 H2B 109.5 . .
H2A N2 H2B 109.5 . .
C2 N2 H2C 109.5 . .
H2A N2 H2C 109.5 . .
H2B N2 H2C 109.5 . .
C6 N3 H3A 109.5 . .
C6 N3 H3B 109.5 . .
H3A N3 H3B 109.5 . .
C6 N3 H3C 109.5 . .
H3A N3 H3C 109.5 . .
H3B N3 H3C 109.5 . .
N1 O1 Bi1 98.57(19) . .
H1B O1' H1A 115(3) . .
N1 O2 Bi1 96.88(16) . .
Bi1 Cl4 Bi1 93.34(2) . 2_665
Cl1 Bi1 Cl2 89.44(3) . .
Cl1 Bi1 Cl3 88.91(3) . .
Cl2 Bi1 Cl3 86.57(3) . .
Cl1 Bi1 O1 159.25(6) . .
Cl2 Bi1 O1 82.70(6) . .
Cl3 Bi1 O1 109.64(6) . .
Cl1 Bi1 O2 152.38(5) . .
Cl2 Bi1 O2 111.81(5) . .
Cl3 Bi1 O2 75.55(5) . .
O1 Bi1 O2 46.78(7) . .
Cl1 Bi1 Cl4 85.65(3) . .
Cl2 Bi1 Cl4 84.91(2) . .
Cl3 Bi1 Cl4 169.93(2) . .
O1 Bi1 Cl4 74.57(6) . .
O2 Bi1 Cl4 112.69(5) . .
Cl1 Bi1 Cl4 83.46(3) . 2_665
Cl2 Bi1 Cl4 169.36(2) . 2_665
Cl3 Bi1 Cl4 101.14(2) . 2_665
O1 Bi1 Cl4 101.29(6) . 2_665
O2 Bi1 Cl4 77.50(5) . 2_665
Cl4 Bi1 Cl4 86.66(2) . 2_665
loop_
_geom_bond_atom_site_label_1
_geom_bond_atom_site_label_2
_geom_bond_distance
_geom_bond_site_symmetry_2
C1 C6 1.364(4) .
C1 C2 1.386(4) .
C1 H1 0.9300 .
C2 C3 1.366(4) .
C2 N2 1.462(4) .
C3 C4 1.386(5) .
C3 H3 0.9300 .
C4 C5 1.375(5) .
C4 H4 0.9300 .
C5 C6 1.376(4) .
C5 H5 0.9300 .
C6 N3 1.475(4) .
N1 O3 1.229(3) .
N1 O1 1.257(3) .
N1 O2 1.259(3) .
N2 H2A 0.8900 .
N2 H2B 0.8900 .
N2 H2C 0.8900 .
N3 H3A 0.8900 .
N3 H3B 0.8900 .
N3 H3C 0.8900 .
O1 Bi1 2.693(2) .
O1' H1B 0.898(15) .
O1' H1A 0.890(15) .
O2 Bi1 2.727(2) .
Cl1 Bi1 2.5705(8) .
Cl2 Bi1 2.5898(8) .
Cl3 Bi1 2.6449(8) .
Cl4 Bi1 2.8210(8) .
Cl4 Bi1 2.9155(8) 2_665
Bi1 Cl4 2.9155(8) 2_665
loop_
_geom_hbond_atom_site_label_D
_geom_hbond_atom_site_label_H
_geom_hbond_atom_site_label_A
_geom_hbond_distance_DH
_geom_hbond_distance_HA
_geom_hbond_distance_DA
_geom_hbond_angle_DHA
_geom_hbond_site_symmetry_A
C1 H1 Cl4 0.93 2.97 3.825(3) 153.5 1_566
C5 H5 O3 0.93 2.61 3.328(4) 134.0 .
N2 H2A O2 0.89 2.40 2.887(4) 114.5 2_676
N2 H2A Cl4 0.89 2.78 3.484(3) 136.9 2_776
N2 H2B O1 0.89 2.30 3.066(4) 144.9 2_776
N2 H2B O1' 0.89 2.30 2.770(4) 112.5 .
N3 H3A Cl2 0.89 2.49 3.270(3) 146.6 2_666
N3 H3A Cl3 0.89 2.73 3.331(3) 126.2 2_666
N3 H3B Cl3 0.89 2.27 3.148(3) 170.9 1_666
N3 H3C Cl1 0.89 2.38 3.210(3) 156.3 1_566
N3 H3C Cl2 0.89 2.91 3.351(3) 112.1 1_566
O1' H1B N1 0.898(15) 2.63(3) 3.419(4) 147(5) 2_776
O1' H1B O1 0.898(15) 2.53(5) 3.072(4) 119(4) 2_776
O1' H1B O3 0.898(15) 2.10(2) 2.974(4) 166(7) 2_776
O1' H1A Cl2 0.890(15) 2.56(3) 3.268(3) 137(4) 1_565
O1' H1A Cl3 0.890(15) 2.79(4) 3.381(3) 125(4) 1_665
loop_
_geom_torsion_atom_site_label_1
_geom_torsion_atom_site_label_2
_geom_torsion_atom_site_label_3
_geom_torsion_atom_site_label_4
_geom_torsion
_geom_torsion_site_symmetry_1
_geom_torsion_site_symmetry_2
_geom_torsion_site_symmetry_3
_geom_torsion_site_symmetry_4
C6 C1 C2 C3 -0.4(5) . . . .
C6 C1 C2 N2 -180.0(3) . . . .
C1 C2 C3 C4 0.2(5) . . . .
N2 C2 C3 C4 179.8(3) . . . .
C2 C3 C4 C5 -0.3(5) . . . .
C3 C4 C5 C6 0.6(5) . . . .
C2 C1 C6 C5 0.6(5) . . . .
C2 C1 C6 N3 179.7(3) . . . .
C4 C5 C6 C1 -0.7(5) . . . .
C4 C5 C6 N3 -179.8(3) . . . .
O3 N1 O1 Bi1 -177.5(2) . . . .
O2 N1 O1 Bi1 4.1(3) . . . .
O3 N1 O2 Bi1 177.6(2) . . . .
O1 N1 O2 Bi1 -4.0(3) . . . .
