#------------------------------------------------------------------------------
#$Date: 2021-08-26 11:52:35 +0300 (Thu, 26 Aug 2021) $
#$Revision: 268252 $
#$URL: file:///home/coder/svn-repositories/cod/cif/1/56/44/1564424.cif $
#------------------------------------------------------------------------------
#
# This file is available in the Crystallography Open Database (COD),
# http://www.crystallography.net/
#
# All data on this site have been placed in the public domain by the
# contributors.
#
data_1564424
loop_
_publ_author_name
'Zhu, Liwei'
'Liu, Ning'
'Yu, Liangmin'
'Jiang, Xiaohui'
'Li, Xia'
_publ_section_title
;
 pH-dependent synthesis of two three-dimensional cobalt-based metal
 organic frameworks with antibacterial activity and dye adsorption
;
_journal_name_full               'Inorganica Chimica Acta'
_journal_page_first              119728
_journal_paper_doi               10.1016/j.ica.2020.119728
_journal_volume                  510
_journal_year                    2020
_chemical_absolute_configuration .
_chemical_formula_moiety         'C12 H8 Co N2 O4, C3 H7 N O'
_chemical_formula_sum            'C15 H15 Co N3 O5'
_chemical_formula_weight         376.23
_space_group_crystal_system      monoclinic
_space_group_IT_number           7
_space_group_name_Hall           'P -2yac'
_space_group_name_H-M_alt        'P 1 n 1'
_atom_sites_solution_hydrogens   geom
_atom_sites_solution_primary     dual
_cell_angle_alpha                90
_cell_angle_beta                 90.645(4)
_cell_angle_gamma                90
_cell_formula_units_Z            2
_cell_length_a                   6.1722(7)
_cell_length_b                   12.6903(11)
_cell_length_c                   10.3679(11)
_cell_measurement_reflns_used    3940
_cell_measurement_temperature    100
_cell_measurement_theta_max      27.479
_cell_measurement_theta_min      3.211
_cell_volume                     812.04(14)
_computing_cell_refinement       'SAINT V8.38A (?, 2016)'
_computing_data_reduction        'SAINT V8.38A (?, 2016)'
_computing_molecular_graphics    'Olex2 (Dolomanov et al., 2009)'
_computing_publication_material  'Olex2 (Dolomanov et al., 2009)'
_computing_structure_refinement  'ShelXL (Sheldrick, 2015)'
_computing_structure_solution    'ShelXT (Sheldrick, 2015)'
_diffrn_ambient_temperature      100.0
_diffrn_measured_fraction_theta_full 0.990
_diffrn_measured_fraction_theta_max 0.983
_diffrn_measurement_device_type  'Bruker APEX-II CCD'
_diffrn_measurement_method       '\f and \w scans'
_diffrn_radiation_type           MoK\a
_diffrn_radiation_wavelength     0.71073
_diffrn_reflns_av_R_equivalents  0.0375
_diffrn_reflns_av_unetI/netI     0.0517
_diffrn_reflns_Laue_measured_fraction_full 0.990
_diffrn_reflns_Laue_measured_fraction_max 0.983
_diffrn_reflns_limit_h_max       8
_diffrn_reflns_limit_h_min       -6
_diffrn_reflns_limit_k_max       16
_diffrn_reflns_limit_k_min       -15
_diffrn_reflns_limit_l_max       13
_diffrn_reflns_limit_l_min       -13
_diffrn_reflns_number            6184
_diffrn_reflns_point_group_measured_fraction_full 0.778
_diffrn_reflns_point_group_measured_fraction_max 0.728
_diffrn_reflns_theta_full        25.242
_diffrn_reflns_theta_max         27.479
_diffrn_reflns_theta_min         3.211
_diffrn_standards_number         0
_exptl_absorpt_coefficient_mu    1.087
_exptl_absorpt_correction_T_max  0.0948
_exptl_absorpt_correction_T_min  0.0592
_exptl_absorpt_correction_type   multi-scan
_exptl_crystal_colour            violet
_exptl_crystal_colour_primary    violet
_exptl_crystal_density_diffrn    1.539
_exptl_crystal_description       block
_exptl_crystal_F_000             386
_exptl_crystal_size_max          0.08
_exptl_crystal_size_mid          0.05
_exptl_crystal_size_min          0.04
_refine_diff_density_max         1.166
_refine_diff_density_min         -0.727
_refine_diff_density_rms         0.150
_refine_ls_abs_structure_details
;
 Flack x determined using 761 quotients [(I+)-(I-)]/[(I+)+(I-)]
 (Parsons, Flack and Wagner, Acta Cryst. B69 (2013) 249-259).
;
_refine_ls_abs_structure_Flack   0.139(18)
_refine_ls_extinction_coef       .
_refine_ls_extinction_method     none
_refine_ls_goodness_of_fit_ref   1.055
_refine_ls_hydrogen_treatment    constr
_refine_ls_matrix_type           full
_refine_ls_number_parameters     219
_refine_ls_number_reflns         2701
_refine_ls_number_restraints     2
_refine_ls_restrained_S_all      1.055
_refine_ls_R_factor_all          0.0781
_refine_ls_R_factor_gt           0.0738
_refine_ls_shift/su_max          0.005
_refine_ls_shift/su_mean         0.001
_refine_ls_structure_factor_coef Fsqd
_refine_ls_weighting_details
'w=1/[\s^2^(Fo^2^)+(0.0717P)^2^+6.9735P] where P=(Fo^2^+2Fc^2^)/3'
_refine_ls_weighting_scheme      calc
_refine_ls_wR_factor_gt          0.1852
_refine_ls_wR_factor_ref         0.1884
_reflns_Friedel_coverage         0.474
_reflns_Friedel_fraction_full    0.564
_reflns_Friedel_fraction_max     0.470
_reflns_number_gt                2506
_reflns_number_total             2701
_reflns_threshold_expression     'I > 2\s(I)'
_iucr_refine_instructions_details
;
TITL 521zghy1violet_0m_a.res in Pn
    521zghy1violet_0m.res
    created by SHELXL-2018/3 at 14:15:07 on 23-May-2019
REM Old TITL 521zghy1violet_0m in Pn
REM SHELXT solution in Pn
REM R1 0.133, Rweak 0.022, Alpha 0.008, Orientation as input
REM Flack x = 0.291 ( 0.014 ) from Parsons' quotients
REM Formula found by SHELXT: C14 N2 O6 Co
CELL 0.71073 6.1722 12.6903 10.3679 90 90.645 90
ZERR 2 0.0007 0.0011 0.0011 0 0.004 0
LATT -1
SYMM 0.5+X,-Y,0.5+Z
SFAC C H Co N O
UNIT 30 30 2 6 10

L.S. 4
PLAN  20
SIZE 0.08 0.05 0.04
TEMP -173.15
BOND $H
list 4
fmap 2
ACTA
REM <olex2.extras>
REM <HklSrc "%.\\521zghy1violet_0m.hkl">
REM </olex2.extras>

WGHT    0.071700    6.973500
FVAR       1.17702
CO1   3    0.972473    0.246678    0.473441    11.00000    0.02927    0.01200 =
         0.01587    0.00171    0.00137    0.00105
O4    5    0.705818   -0.136452    0.925175    11.00000    0.02786    0.02393 =
         0.03472    0.01741   -0.00144   -0.00147
N3    4    0.822601    0.155847    0.612076    11.00000    0.02308    0.02552 =
         0.01822    0.00445   -0.00145    0.00183
O2    5    0.733328    0.348298    0.408327    11.00000    0.02760    0.02268 =
         0.03074    0.01176    0.00404    0.00486
N1    4    0.617554    0.647728    0.097524    11.00000    0.03218    0.02201 =
         0.02863   -0.00293    0.00714   -0.00023
O1    5    1.049815    0.359328    0.312268    11.00000    0.03162    0.02404 =
         0.02929    0.00754    0.00949    0.01290
O3    5    0.384379   -0.117752    0.833811    11.00000    0.02583    0.04921 =
         0.02295    0.02064   -0.00172   -0.00755
C11   1    0.864352    0.039137    0.791564    11.00000    0.03517    0.02879 =
         0.03058    0.01424    0.00331   -0.00501
AFIX  43
H11   2    0.951609    0.010052    0.858710    11.00000   -1.20000
AFIX   0
C12   1    0.946737    0.121070    0.715790    11.00000    0.03415    0.01746 =
         0.02055    0.00764    0.00008   -0.00096
AFIX  43
H12   2    1.083658    0.151836    0.735000    11.00000   -1.20000
AFIX   0
C3    1    0.571692    0.521033    0.266710    11.00000    0.03289    0.02851 =
         0.02565    0.01311    0.01021   -0.00254
AFIX  43
H3    2    0.486656    0.495233    0.335683    11.00000   -1.20000
AFIX   0
C10   1    0.574758   -0.090627    0.846554    11.00000    0.02506    0.02804 =
         0.00980    0.00681    0.00116   -0.00075
C8    1    0.537236    0.044452    0.670978    11.00000    0.02780    0.02784 =
         0.02372    0.00240    0.00025   -0.00378
AFIX  43
H8    2    0.391720    0.022450    0.657077    11.00000   -1.20000
AFIX   0
C7    1    0.627872    0.119726    0.593454    11.00000    0.02809    0.03353 =
         0.02846    0.01254   -0.00030    0.00566
AFIX  43
H7    2    0.544674    0.146576    0.523161    11.00000   -1.20000
AFIX   0
C6    1    0.898989    0.519781    0.145183    11.00000    0.02613    0.02527 =
         0.02706    0.00961   -0.00081   -0.00123
AFIX  43
H6    2    1.038061    0.491704    0.127113    11.00000   -1.20000
AFIX   0
C5    1    0.814361    0.603621    0.074916    11.00000    0.03033    0.02437 =
         0.02787    0.00556    0.00741    0.00060
AFIX  43
H5    2    0.898806    0.631832    0.007096    11.00000   -1.20000
AFIX   0
C4    1    0.494278    0.602572    0.188274    11.00000    0.03402    0.01774 =
         0.02853   -0.00093    0.01508    0.00940
AFIX  43
H4    2    0.350107    0.626873    0.199381    11.00000   -1.20000
AFIX   0

O5    5    0.409862    0.712057    0.454580    11.00000    0.05968    0.04229 =
         0.04739   -0.00911    0.00898    0.00312
C9    1    0.661530    0.000707    0.770387    11.00000    0.02891    0.03544 =
         0.02603    0.01262    0.00304    0.00252
C2    1    0.772293    0.478500    0.243035    11.00000    0.03296    0.02994 =
         0.02309    0.00925    0.00024    0.00323
C1    1    0.857102    0.384081    0.321241    11.00000    0.02455    0.05074 =
         0.02485    0.00330   -0.00635   -0.00320
C14   1   -0.044293    0.776162    0.642120    11.00000    0.04790    0.04342 =
         0.04390   -0.00905    0.01067   -0.00554
AFIX 137
H14A  2   -0.164573    0.814248    0.600882    11.00000   -1.50000
H14B  2    0.045287    0.825700    0.691857    11.00000   -1.50000
H14C  2   -0.101931    0.722154    0.699935    11.00000   -1.50000
AFIX   0
N2    4    0.083401    0.727570    0.546264    11.00000    0.05318    0.02704 =
         0.05878   -0.01211   -0.00515   -0.00156
C15   1   -0.030109    0.660432    0.454139    11.00000    0.05988    0.04960 =
         0.04537   -0.02915   -0.01277   -0.00021
AFIX 137
H15A  2    0.034543    0.589902    0.455394    11.00000   -1.50000
H15B  2   -0.018165    0.690531    0.367463    11.00000   -1.50000
H15C  2   -0.183215    0.655610    0.477465    11.00000   -1.50000
AFIX   0
C13   1    0.295378    0.745047    0.534227    11.00000    0.04972    0.05294 =
         0.04699    0.01080   -0.00016    0.01099
AFIX  43
H13   2    0.360796    0.789292    0.597487    11.00000   -1.20000
AFIX   0
HKLF 4




REM  521zghy1violet_0m_a.res in Pn
REM wR2 = 0.1884, GooF = S = 1.055, Restrained GooF = 1.055 for all data
REM R1 = 0.0738 for 2506 Fo > 4sig(Fo) and 0.0781 for all 2701 data
REM 219 parameters refined using 2 restraints

END  
     
WGHT      0.0704      7.0418 

REM Highest difference peak  1.166,  deepest hole -0.727,  1-sigma level  0.150
Q1    1  -0.3453  0.7486  0.5357  11.00000  0.05    1.17
Q2    1   0.2799  0.7497  0.4155  11.00000  0.05    0.92
Q3    1  -0.1435  0.7517  0.5450  11.00000  0.05    0.91
Q4    1   0.0764  0.7415  0.4002  11.00000  0.05    0.75
Q5    1   0.6122  0.6997  0.0412  11.00000  0.05    0.68
Q6    1   0.3890  0.4822  0.3201  11.00000  0.05    0.60
Q7    1   1.1309  0.5932  0.0715  11.00000  0.05    0.58
Q8    1   0.2680  0.5168  0.2257  11.00000  0.05    0.58
Q9    1   0.8261  0.2420  0.4875  11.00000  0.05    0.58
Q10   1   0.6856 -0.1246  1.0220  11.00000  0.05    0.57
Q11   1   0.5598  0.6994  0.4359  11.00000  0.05    0.56
Q12   1   1.1403  0.2157  0.4730  11.00000  0.05    0.52
Q13   1   0.2476 -0.1321  0.9349  11.00000  0.05    0.48
Q14   1   0.1347 -0.0072  0.6710  11.00000  0.05    0.48
Q15   1   0.5503  0.7931  0.4433  11.00000  0.05    0.48
Q16   1   1.1136  0.1426  0.7131  11.00000  0.05    0.47
Q17   1   1.1377  0.2273  0.5544  11.00000  0.05    0.47
Q18   1  -0.0298  0.8868  0.5067  11.00000  0.05    0.46
Q19   1   0.2731 -0.1820  0.8216  11.00000  0.05    0.46
Q20   1   0.2848  0.0006  0.7880  11.00000  0.05    0.46

  REM The information below was added by Olex2.
  REM
  REM R1 = 0.0738 for 2506 Fo > 4sig(Fo) and 0.0781 for all 6336 data
  REM n/a parameters refined using n/a restraints
  REM Highest difference peak 1.17, deepest hole -0.73
  REM Mean Shift 0.001, Max Shift -0.005.

  REM +++ Tabular Listing of Refinement Information +++
  REM R1_all = 0.0781
  REM R1_gt = 0.0738
  REM wR_ref = 0.1884
  REM GOOF = 1.055
  REM Shift_max = -0.005
  REM Shift_mean = 0.001
  REM Reflections_all = 6336
  REM Reflections_gt = 2506
  REM Parameters = n/a
  REM Hole = -0.73
  REM Peak = 1.17
  REM Flack = 0.139(18)

  
;
_cod_data_source_file            ICA-2020-510-119728.cif
_cod_data_source_block           521zghy1violet_0m
_cod_database_code               1564424
_shelx_space_group_comment
;
The symmetry employed for this shelxl refinement is uniquely defined
by the following loop, which should always be used as a source of
symmetry information in preference to the above space-group names.
They are only intended as comments.
;
_shelx_estimated_absorpt_t_max   0.958
_shelx_estimated_absorpt_t_min   0.918
_olex2_refinement_description
;
1. Fixed Uiso
 At 1.2 times of:
  All C(H) groups
 At 1.5 times of:
  All C(H,H,H) groups
2.a Aromatic/amide H refined with riding coordinates:
 C11(H11), C12(H12), C3(H3), C8(H8), C7(H7), C6(H6), C5(H5), C4(H4), C13(H13)
2.b Idealised Me refined as rotating group:
 C14(H14A,H14B,H14C), C15(H15A,H15B,H15C)
;
loop_
_space_group_symop_operation_xyz
'x, y, z'
'x+1/2, -y, z+1/2'
loop_
_atom_site_label
_atom_site_type_symbol
_atom_site_fract_x
_atom_site_fract_y
_atom_site_fract_z
_atom_site_U_iso_or_equiv
_atom_site_adp_type
_atom_site_occupancy
_atom_site_site_symmetry_order
_atom_site_calc_flag
_atom_site_refinement_flags_posn
_atom_site_refinement_flags_adp
_atom_site_refinement_flags_occupancy
_atom_site_disorder_assembly
_atom_site_disorder_group
Co1 Co 0.9725(3) 0.24668(9) 0.4734(2) 0.0190(3) Uani 1 1 d . . . . .
O4 O 0.7058(12) -0.1365(6) 0.9252(8) 0.0289(17) Uani 1 1 d . . . . .
N3 N 0.8226(14) 0.1558(7) 0.6121(9) 0.0223(18) Uani 1 1 d . . . . .
O2 O 0.7333(12) 0.3483(5) 0.4083(8) 0.0270(17) Uani 1 1 d . . . . .
N1 N 0.6176(17) 0.6477(7) 0.0975(10) 0.028(2) Uani 1 1 d . . . . .
O1 O 1.0498(13) 0.3593(6) 0.3123(8) 0.0282(19) Uani 1 1 d . . . . .
O3 O 0.3844(13) -0.1178(7) 0.8338(8) 0.033(2) Uani 1 1 d . . . . .
C11 C 0.8644(19) 0.0391(9) 0.7916(12) 0.031(3) Uani 1 1 d . . . . .
H11 H 0.951609 0.010052 0.858710 0.038 Uiso 1 1 calc R . . . .
C12 C 0.9467(19) 0.1211(8) 0.7158(10) 0.024(2) Uani 1 1 d . . . . .
H12 H 1.083658 0.151836 0.735000 0.029 Uiso 1 1 calc R . . . .
C3 C 0.5717(18) 0.5210(9) 0.2667(11) 0.029(3) Uani 1 1 d . . . . .
H3 H 0.486656 0.495233 0.335683 0.035 Uiso 1 1 calc R . . . .
C10 C 0.5748(17) -0.0906(8) 0.8466(9) 0.021(2) Uani 1 1 d . . . . .
C8 C 0.5372(18) 0.0445(8) 0.6710(11) 0.026(2) Uani 1 1 d . . . . .
H8 H 0.391720 0.022450 0.657077 0.032 Uiso 1 1 calc R . . . .
C7 C 0.6279(19) 0.1197(9) 0.5935(12) 0.030(2) Uani 1 1 d . . . . .
H7 H 0.544674 0.146576 0.523161 0.036 Uiso 1 1 calc R . . . .
C6 C 0.8990(18) 0.5198(9) 0.1452(11) 0.026(2) Uani 1 1 d . . . . .
H6 H 1.038061 0.491704 0.127113 0.031 Uiso 1 1 calc R . . . .
C5 C 0.8144(18) 0.6036(8) 0.0749(11) 0.027(2) Uani 1 1 d . . . . .
H5 H 0.898806 0.631832 0.007096 0.033 Uiso 1 1 calc R . . . .
C4 C 0.494(2) 0.6026(8) 0.1883(11) 0.027(2) Uani 1 1 d . . . . .
H4 H 0.350107 0.626873 0.199381 0.032 Uiso 1 1 calc R . . . .
O5 O 0.4099(16) 0.7121(8) 0.4546(11) 0.050(3) Uani 1 1 d . . . . .
C9 C 0.6615(19) 0.0007(10) 0.7704(11) 0.030(2) Uani 1 1 d . . . . .
C2 C 0.7723(19) 0.4785(9) 0.2430(11) 0.029(2) Uani 1 1 d . . . . .
C1 C 0.857(2) 0.3841(11) 0.3212(13) 0.033(3) Uani 1 1 d . . . . .
C14 C -0.044(2) 0.7762(11) 0.6421(14) 0.045(3) Uani 1 1 d . . . . .
H14A H -0.164573 0.814248 0.600882 0.067 Uiso 1 1 calc GR . . . .
H14B H 0.045287 0.825700 0.691857 0.067 Uiso 1 1 calc GR . . . .
H14C H -0.101931 0.722154 0.699935 0.067 Uiso 1 1 calc GR . . . .
N2 N 0.083(2) 0.7276(8) 0.5463(13) 0.046(3) Uani 1 1 d . . . . .
C15 C -0.030(3) 0.6604(11) 0.4541(15) 0.052(4) Uani 1 1 d . . . . .
H15A H 0.034543 0.589902 0.455394 0.078 Uiso 1 1 calc GR . . . .
H15B H -0.018165 0.690531 0.367463 0.078 Uiso 1 1 calc GR . . . .
H15C H -0.183215 0.655610 0.477465 0.078 Uiso 1 1 calc GR . . . .
C13 C 0.295(3) 0.7450(12) 0.5342(16) 0.050(4) Uani 1 1 d . . . . .
H13 H 0.360796 0.789292 0.597487 0.060 Uiso 1 1 calc R . . . .
loop_
_atom_site_aniso_label
_atom_site_aniso_U_11
_atom_site_aniso_U_22
_atom_site_aniso_U_33
_atom_site_aniso_U_23
_atom_site_aniso_U_13
_atom_site_aniso_U_12
Co1 0.0293(6) 0.0120(5) 0.0159(5) 0.0017(5) 0.0014(4) 0.0011(6)
O4 0.028(4) 0.024(4) 0.035(5) 0.017(3) -0.001(3) -0.001(3)
N3 0.023(5) 0.026(4) 0.018(4) 0.004(3) -0.001(4) 0.002(4)
O2 0.028(4) 0.023(4) 0.031(4) 0.012(3) 0.004(3) 0.005(3)
N1 0.032(5) 0.022(5) 0.029(5) -0.003(4) 0.007(4) 0.000(4)
O1 0.032(4) 0.024(4) 0.029(5) 0.008(3) 0.009(4) 0.013(3)
O3 0.026(4) 0.049(5) 0.023(4) 0.021(4) -0.002(3) -0.008(4)
C11 0.035(6) 0.029(6) 0.031(6) 0.014(5) 0.003(5) -0.005(5)
C12 0.034(6) 0.017(5) 0.021(5) 0.008(4) 0.000(4) -0.001(4)
C3 0.033(6) 0.029(6) 0.026(6) 0.013(4) 0.010(5) -0.003(5)
C10 0.025(5) 0.028(5) 0.010(4) 0.007(4) 0.001(4) -0.001(4)
C8 0.028(6) 0.028(5) 0.024(6) 0.002(4) 0.000(4) -0.004(4)
C7 0.028(6) 0.034(6) 0.028(6) 0.013(5) 0.000(5) 0.006(5)
C6 0.026(5) 0.025(5) 0.027(6) 0.010(4) -0.001(4) -0.001(4)
C5 0.030(6) 0.024(5) 0.028(6) 0.006(4) 0.007(5) 0.001(4)
C4 0.034(6) 0.018(5) 0.029(6) -0.001(4) 0.015(5) 0.009(4)
O5 0.060(7) 0.042(5) 0.047(6) -0.009(5) 0.009(5) 0.003(4)
C9 0.029(6) 0.035(6) 0.026(6) 0.013(5) 0.003(4) 0.003(4)
C2 0.033(6) 0.030(6) 0.023(6) 0.009(4) 0.000(5) 0.003(4)
C1 0.025(6) 0.051(8) 0.025(6) 0.003(5) -0.006(5) -0.003(5)
C14 0.048(8) 0.043(7) 0.044(8) -0.009(6) 0.011(7) -0.006(6)
N2 0.053(7) 0.027(5) 0.059(8) -0.012(5) -0.005(6) -0.002(5)
C15 0.060(8) 0.050(7) 0.045(10) -0.029(7) -0.013(7) 0.000(8)
C13 0.050(9) 0.053(8) 0.047(9) 0.011(7) 0.000(7) 0.011(7)
loop_
_atom_type_symbol
_atom_type_description
_atom_type_scat_dispersion_real
_atom_type_scat_dispersion_imag
_atom_type_scat_source
C C 0.0033 0.0016 'International Tables Vol C Tables 4.2.6.8 and 6.1.1.4'
H H 0.0000 0.0000 'International Tables Vol C Tables 4.2.6.8 and 6.1.1.4'
Co Co 0.3494 0.9721 'International Tables Vol C Tables 4.2.6.8 and 6.1.1.4'
N N 0.0061 0.0033 'International Tables Vol C Tables 4.2.6.8 and 6.1.1.4'
O O 0.0106 0.0060 'International Tables Vol C Tables 4.2.6.8 and 6.1.1.4'
loop_
_geom_angle_atom_site_label_1
_geom_angle_atom_site_label_2
_geom_angle_atom_site_label_3
_geom_angle
_geom_angle_site_symmetry_1
_geom_angle_site_symmetry_3
O4 Co1 O1 95.5(3) 2_554 .
O4 Co1 O3 61.1(3) 2_554 2_554
O4 Co1 C10 31.3(3) 2_554 2_554
O4 Co1 C1 121.5(4) 2_554 .
N3 Co1 O4 96.3(3) . 2_554
N3 Co1 O1 165.6(3) . .
N3 Co1 O3 86.3(3) . 2_554
N3 Co1 C10 92.4(4) . 2_554
N3 Co1 C1 135.6(4) . .
O2 Co1 O4 146.9(3) . 2_554
O2 Co1 N3 104.5(3) . .
O2 Co1 O1 61.2(3) . .
O2 Co1 O3 94.4(3) . 2_554
O2 Co1 C10 120.9(4) . 2_554
O2 Co1 C1 31.3(4) . .
N1 Co1 O4 107.0(4) 2_565 2_554
N1 Co1 N3 97.1(4) 2_565 .
N1 Co1 O2 95.9(4) 2_565 .
N1 Co1 O1 87.5(4) 2_565 .
N1 Co1 O3 168.0(3) 2_565 2_554
N1 Co1 C10 138.2(4) 2_565 2_554
N1 Co1 C1 93.5(4) 2_565 .
O1 Co1 C10 93.2(3) . 2_554
O1 Co1 C1 30.0(3) . .
O3 Co1 O1 92.1(3) 2_554 .
O3 Co1 C10 29.8(3) 2_554 2_554
O3 Co1 C1 92.1(4) 2_554 .
C1 Co1 C10 107.6(4) . 2_554
C10 O4 Co1 91.4(6) . 2_455
C12 N3 Co1 118.0(7) . .
C7 N3 Co1 120.9(8) . .
C7 N3 C12 120.4(10) . .
C1 O2 Co1 91.3(7) . .
C5 N1 Co1 122.9(8) . 2_464
C4 N1 Co1 118.0(8) . 2_464
C4 N1 C5 117.3(10) . .
C1 O1 Co1 83.9(7) . .
C10 O3 Co1 84.9(6) . 2_455
C12 C11 H11 119.5 . .
C9 C11 H11 119.5 . .
C9 C11 C12 121.0(11) . .
N3 C12 C11 118.0(10) . .
N3 C12 H12 121.0 . .
C11 C12 H12 121.0 . .
C4 C3 H3 120.3 . .
C2 C3 H3 120.3 . .
C2 C3 C4 119.3(10) . .
O4 C10 Co1 57.3(5) . 2_455
O4 C10 C9 117.2(9) . .
O3 C10 Co1 65.3(6) . 2_455
O3 C10 O4 122.5(9) . .
O3 C10 C9 120.3(10) . .
C9 C10 Co1 174.0(8) . 2_455
C7 C8 H8 120.5 . .
C7 C8 C9 119.1(11) . .
C9 C8 H8 120.5 . .
N3 C7 C8 122.8(11) . .
N3 C7 H7 118.6 . .
C8 C7 H7 118.6 . .
C5 C6 H6 121.3 . .
C5 C6 C2 117.4(10) . .
C2 C6 H6 121.3 . .
N1 C5 C6 123.8(10) . .
N1 C5 H5 118.1 . .
C6 C5 H5 118.1 . .
N1 C4 C3 122.0(11) . .
N1 C4 H4 119.0 . .
C3 C4 H4 119.0 . .
C11 C9 C10 121.6(10) . .
C11 C9 C8 118.4(10) . .
C8 C9 C10 119.9(10) . .
C3 C2 C6 119.8(10) . .
C3 C2 C1 120.9(10) . .
C6 C2 C1 119.2(10) . .
O2 C1 Co1 57.5(6) . .
O2 C1 C2 116.7(11) . .
O1 C1 Co1 66.1(7) . .
O1 C1 O2 123.3(12) . .
O1 C1 C2 118.8(11) . .
C2 C1 Co1 171.7(9) . .
H14A C14 H14B 109.5 . .
H14A C14 H14C 109.5 . .
H14B C14 H14C 109.5 . .
N2 C14 H14A 109.5 . .
N2 C14 H14B 109.5 . .
N2 C14 H14C 109.5 . .
C14 N2 C15 116.6(13) . .
C13 N2 C14 123.2(13) . .
C13 N2 C15 120.1(14) . .
N2 C15 H15A 109.5 . .
N2 C15 H15B 109.5 . .
N2 C15 H15C 109.5 . .
H15A C15 H15B 109.5 . .
H15A C15 H15C 109.5 . .
H15B C15 H15C 109.5 . .
O5 C13 N2 127.4(17) . .
O5 C13 H13 116.3 . .
N2 C13 H13 116.3 . .
loop_
_geom_bond_atom_site_label_1
_geom_bond_atom_site_label_2
_geom_bond_distance
_geom_bond_site_symmetry_2
Co1 O4 2.073(7) 2_554
Co1 N3 2.069(9) .
Co1 O2 2.068(8) .
Co1 N1 2.056(11) 2_565
Co1 O1 2.254(8) .
Co1 O3 2.247(8) 2_554
Co1 C10 2.464(10) 2_554
Co1 C1 2.452(13) .
O4 C10 1.281(13) .
N3 C12 1.385(14) .
N3 C7 1.299(15) .
O2 C1 1.273(15) .
N1 C5 1.360(15) .
N1 C4 1.345(14) .
O1 C1 1.235(15) .
O3 C10 1.230(14) .
C11 H11 0.9500 .
C11 C12 1.402(14) .
C11 C9 1.359(17) .
C12 H12 0.9500 .
C3 H3 0.9500 .
C3 C4 1.397(16) .
C3 C2 1.375(16) .
C10 C9 1.504(14) .
C8 H8 0.9500 .
C8 C7 1.372(15) .
C8 C9 1.393(16) .
C7 H7 0.9500 .
C6 H6 0.9500 .
C6 C5 1.388(15) .
C6 C2 1.390(15) .
C5 H5 0.9500 .
C4 H4 0.9500 .
O5 C13 1.170(18) .
C2 C1 1.535(17) .
C14 H14A 0.9800 .
C14 H14B 0.9800 .
C14 H14C 0.9800 .
C14 N2 1.417(17) .
N2 C15 1.454(17) .
N2 C13 1.33(2) .
C15 H15A 0.9800 .
C15 H15B 0.9800 .
C15 H15C 0.9800 .
C13 H13 0.9500 .
loop_
_refln_index_h
_refln_index_k
_refln_index_l
_refln_F_squared_meas
_refln_F_squared_sigma
-1 0 0 -0.8 1.7
1 0 0 -1.4 1.5
-2 0 0 5288.07 262.77
2 0 0 6019.3 263.77
2 0 0 5354.76 263.17
-3 0 0 2.9 3.5
3 0 0 1.9 3.3
3 0 0 5.8 5.3
4 0 0 133.39 16.6
-4 0 0 143.79 17.6
4 0 0 118.19 16.7
5 0 0 6.1 6.9
5 0 0 4.3 7
-5 0 0 11.9 7.6
6 0 0 119.19 23.5
6 0 0 134.59 24.7
7 0 0 5.9 10.9
7 0 0 13.3 9.3
8 0 0 132.39 27.9
-1 -1 0 8429.06 393.26
-1 -1 0 8866.31 394.36
1 1 0 8208.48 393.16
2 -1 0 50.39 9.6
-2 -1 0 38.8 7.7
-2 1 0 34.5 7.1
2 1 0 34.4 7.4
2 1 0 38.8 7.9
-3 -1 0 622.04 39.6
3 1 0 602.54 39.3
-3 1 0 631.04 40.5
4 -1 0 341.47 28.7
-4 -1 0 338.27 27.9
4 -1 0 322.77 28.1
4 1 0 319.57 27.5
-4 1 0 310.27 28
4 1 0 349.37 28.8
5 -1 0 386.26 33.2
-5 -1 0 309.57 30.3
5 -1 0 366.56 32.6
5 1 0 446.46 34.7
5 1 0 362.66 32.8
-5 1 0 357.66 32.5
6 -1 0 41 13.5
6 -1 0 50.49 15
6 1 0 48.5 16.8
6 1 0 22.5 11
7 -1 0 63.69 19.2
7 -1 0 61.19 18.7
7 1 0 91.89 20.4
7 1 0 82.69 22.8
0 -2 0 3364.66 156.18
0 2 0 3347.57 155.98
-1 -2 0 238.18 15.6
-1 -2 0 229.08 13.9
1 -2 0 219.48 15.1
1 2 0 245.58 15.6
-1 2 0 230.58 15.3
1 2 0 220.88 13.8
-2 -2 0 2310.17 110.69
2 -2 0 2043.8 109.19
-2 -2 0 2007.9 107.79
2 2 0 2380.66 110.59
2 2 0 2254.77 108.49
-2 2 0 2191.88 110.19
3 -2 0 1880.51 97.69
-3 -2 0 1836.42 95.99
3 2 0 1843.82 96.99
-3 2 0 1808.72 97.49
3 2 0 1802.72 95.49
4 -2 0 1293.77 74.99
-4 -2 0 1187.98 73.19
4 2 0 1279.67 73.59
-4 2 0 1302.17 75.89
4 2 0 1394.16 76.19
-5 -2 0 83.69 16.9
5 -2 0 96.89 20.2
5 -2 0 65.39 16.1
5 2 0 80.09 19
5 2 0 83.49 18.2
-5 2 0 65.29 15.5
6 -2 0 484.45 42.4
6 -2 0 565.14 44.5
6 2 0 511.05 43.8
6 2 0 580.94 43.3
7 -2 0 44.1 16.3
7 -2 0 98.99 21.6
7 2 0 69.99 18.8
7 2 0 95.09 21.2
0 -3 0 319.67 18.1
0 3 0 319.17 18
-1 -3 0 370.96 19.2
-1 -3 0 354.46 21.9
1 -3 0 328.87 20.7
1 -3 0 329.87 20
1 3 0 354.26 19
-1 3 0 373.56 21.5
1 3 0 329.17 21.2
2 -3 0 545.25 31.8
-2 -3 0 477.65 31.4
-2 -3 0 469.65 29.2
2 3 0 457.25 28.9
-2 3 0 489.55 31.4
2 3 0 534.05 32
-3 -3 0 1136.69 62.49
3 -3 0 1045.4 62.79
-3 -3 0 1009 63.39
3 3 0 1104.89 61.39
3 3 0 1182.08 64.19
-3 3 0 1158.78 64.69
4 -3 0 30.1 9.3
-4 -3 0 35.7 10
4 3 0 24.4 8.7
-4 3 0 27.4 9.3
4 3 0 18.5 7.9
5 -3 0 939.01 62.59
5 -3 0 913.11 62.29
-5 -3 0 1036.7 64.99
-5 3 0 929.41 62.39
5 3 0 977 60.89
5 3 0 932.21 62.19
6 -3 0 36.3 13.9
6 -3 0 27.6 11.9
6 3 0 21.1 10.8
6 3 0 46.2 13.7
7 -3 0 226.48 27.3
7 -3 0 136.29 26.2
7 3 0 183.18 27.9
7 3 0 255.47 28.1
0 -4 0 27.1 5.1
0 4 0 30.6 4.4
1 -4 0 251.67 16.7
-1 -4 0 232.88 17.8
1 -4 0 258.57 16.3
-1 -4 0 269.27 14.4
1 4 0 260.07 17.8
-1 4 0 256.47 17
1 4 0 260.87 14.1
-2 -4 0 2449.85 119.39
2 -4 0 2627.24 122.89
2 4 0 2464.05 119.49
2 4 0 2505.95 123.19
-2 4 0 2249.57 122.29
-3 -4 0 75.29 12
3 -4 0 84.39 15.2
-3 4 0 90.99 12.7
3 4 0 86.49 13
3 4 0 69.59 10.2
4 -4 0 841.32 53.49
-4 -4 0 790.22 50.49
4 4 0 823.22 50.89
4 4 0 820.22 53.39
-4 4 0 844.02 54.49
5 -4 0 247.68 26.4
-5 4 0 191.68 30.4
5 4 0 270.27 25.3
5 4 0 232.08 26
6 -4 0 288.77 31.6
6 -4 0 316.57 32
6 4 0 342.07 32
6 4 0 297.77 32.7
7 -4 0 -0.7 9.7
7 -4 0 20.1 11.2
7 4 0 12.7 11.3
7 4 0 6.7 9.3
0 -5 0 507.35 29.4
0 5 0 525.55 29.1
-1 -5 0 602.14 34.7
1 -5 0 563.44 31.9
1 -5 0 553.74 31.7
-1 5 0 621.14 32.5
-1 5 0 585.34 32.5
1 5 0 543.65 33
-2 -5 0 53.89 10.6
-2 -5 0 65.99 7.6
2 -5 0 50.69 7.8
2 -5 0 66.69 9.6
2 5 0 58.79 7.1
2 5 0 40.4 8.8
-2 5 0 67.79 9.3
3 -5 0 1160.58 68.49
-3 -5 0 1229.98 66.19
-3 -5 0 1154.98 70.09
-3 5 0 1358.26 71.59
3 5 0 1257.77 70.19
3 5 0 1204.68 65.59
-4 -5 0 120.39 15.4
4 -5 0 96.79 15.9
-4 -5 0 134.79 26.7
4 5 0 103.59 13.7
4 5 0 117.69 17.3
-4 5 0 109.59 17.6
5 -5 0 765.82 52.89
-5 -5 0 720.13 59.79
5 5 0 782.92 58.39
5 5 0 738.33 49.7
6 -5 0 335.67 34.6
6 -5 0 317.77 32.4
6 5 0 362.66 35.2
6 5 0 343.27 34.3
7 -5 0 229.98 29.2
7 -5 0 210.68 28.5
7 5 0 228.08 27.3
7 5 0 194.38 40.6
0 -6 0 311.47 20.7
0 6 0 308.97 20.1
1 -6 0 74.49 8.4
-1 -6 0 78.59 10.1
1 -6 0 81.79 8.2
-1 6 0 77.49 8.6
-1 6 0 80.99 8.4
1 6 0 72.89 9
2 -6 0 2616.04 139.19
-2 -6 0 2847.71 134.09
2 -6 0 2853.91 138.69
-2 -6 0 2675.13 140.99
-2 6 0 3033.7 139.99
2 6 0 2847.42 140.29
2 6 0 2766.02 133.59
-3 -6 0 283.37 21.9
3 -6 0 252.07 23.8
3 -6 0 332.47 23.7
-3 -6 0 292.17 26.3
3 6 0 321.37 22.3
-3 6 0 328.47 26.2
3 6 0 360.76 27.4
-4 -6 0 383.76 34.9
4 -6 0 427.96 34
-4 -6 0 428.16 30.8
-4 6 0 367.26 32.5
4 6 0 426.06 34.3
4 6 0 481.55 31.5
5 -6 0 55.59 16.2
-5 -6 0 59.29 13.7
5 6 0 47.1 14.8
5 6 0 67.59 14.5
6 -6 0 381.56 35.6
6 -6 0 340.57 35.2
6 6 0 358.46 36.4
7 -6 0 104.29 37.1
7 -6 0 121.49 22.9
7 6 0 117.29 25.3
7 6 0 126.29 23.7
0 -7 0 172.68 14.8
0 7 0 177.28 14.3
1 -7 0 2882.91 139.99
-1 -7 0 2859.71 143.49
1 -7 0 2888.71 138.09
1 7 0 2863.91 141.19
-1 7 0 2871.11 140.49
-1 7 0 2960.5 138.69
2 -7 0 406.76 26.6
-2 -7 0 373.16 28.8
2 -7 0 385.06 25.2
-2 -7 0 363.16 21.8
2 7 0 403.66 28
2 7 0 383.36 21.3
3 -7 0 2452.45 117.99
-3 -7 0 2335.27 115.19
3 -7 0 2291.77 119.89
-3 -7 0 2259.07 123.09
3 7 0 2266.27 114.29
3 7 0 2374.66 121.79
-3 7 0 2271.97 120.99
4 -7 0 194.78 19.8
-4 -7 0 155.08 22.1
4 -7 0 211.38 22.4
-4 -7 0 226.68 19.4
4 7 0 194.88 21.9
4 7 0 171.88 17.4
-5 -7 0 332.57 28.8
5 -7 0 284.97 35.1
5 7 0 397.26 29.1
5 7 0 286.37 31.6
6 -7 0 51.59 14.2
6 7 0 18.4 10.7
6 7 0 19.3 13
7 -7 0 60.79 15.7
7 -7 0 66.89 17.6
7 7 0 47.3 15.4
7 7 0 46.6 16.8
0 -8 0 8667.63 408.76
0 8 0 8736.73 407.46
-1 -8 0 112.69 14.1
1 -8 0 115.39 10.4
1 -8 0 150.28 13.1
-1 8 0 126.99 10.7
-1 8 0 117.19 12.2
1 8 0 114.19 12.2
2 -8 0 808.52 46
-2 -8 0 808.92 50.39
2 -8 0 795.82 45.6
-2 8 0 810.72 48.8
2 8 0 787.22 47.9
3 -8 0 1328.37 70.19
3 -8 0 1278.27 71.69
-3 -8 0 1380.86 67.29
-3 -8 0 1276.67 75.89
-3 8 0 1221.88 72.79
3 8 0 1241.28 65.29
3 8 0 1249.18 73.49
4 -8 0 366.56 31.6
4 -8 0 367.86 29
-4 -8 0 424.26 38.9
-4 -8 0 427.26 29.1
4 8 0 375.16 27.1
4 8 0 387.66 33.1
-4 8 0 425.26 34.4
5 -8 0 -20.9 10.3
5 -8 0 2.8 7.7
-5 -8 0 30.2 10.5
5 8 0 0.8 6.8
5 8 0 6.9 7.7
6 -8 0 210.88 25.9
6 8 0 197.38 26.7
6 8 0 229.28 23.7
7 -8 0 -17.2 10.6
0 -9 0 10 5.8
0 9 0 10.8 4.7
1 -9 0 1632.74 85.09
1 -9 0 1593.04 80.69
-1 -9 0 1702.03 89.29
-1 9 0 1673.93 81.49
1 9 0 1618.14 85.59
-1 9 0 1685.93 85.79
-2 -9 0 126.89 16.1
2 -9 0 126.89 13
2 -9 0 119.09 12.8
2 9 0 120.99 14.5
-2 9 0 121.09 13.3
3 -9 0 131.79 15.4
-3 -9 0 141.29 18.2
3 -9 0 119.49 13.3
3 9 0 113.09 9.9
-3 9 0 121.29 16.1
3 9 0 117.49 16.5
4 -9 0 453.65 35.4
4 -9 0 429.36 42.4
-4 -9 0 482.35 31.6
-4 9 0 460.75 36.9
4 9 0 464.95 50.89
5 -9 0 494.15 39.1
-5 -9 0 476.95 35.2
5 9 0 489.45 33
5 9 0 437.96 39.4
6 -9 0 29.1 12.1
6 9 0 46.9 16
6 9 0 57.59 13.9
0 -10 0 1443.86 76.99
0 10 0 1371.66 74.29
-1 -10 0 -8.2 4.7
1 -10 0 4.2 2.8
1 -10 0 1.2 3.7
1 10 0 7.4 4.7
-1 10 0 8.1 4.4
2 -10 0 311.67 23.6
2 -10 0 336.87 23.5
-2 -10 0 314.07 27.7
-2 10 0 332.87 23.7
2 10 0 330.97 26.2
-3 -10 0 304.27 29.9
3 -10 0 320.57 25
3 -10 0 318.97 25.6
3 10 0 372.06 29.3
-3 10 0 328.57 27.4
4 -10 0 565.44 40.5
4 -10 0 547.55 37.5
-4 10 0 562.34 41.2
4 10 0 537.15 32.3
4 10 0 572.74 42.5
-5 -10 0 18.9 9.7
5 -10 0 11.1 8.5
5 10 0 10.4 6.7
5 10 0 10.8 9.1
6 -10 0 86.09 18.5
-6 -10 0 34.4 16.6
6 10 0 46.9 20.4
6 10 0 66.19 14.3
0 -11 0 83.49 12.8
0 11 0 73.89 12.1
-1 -11 0 370.16 30.9
1 -11 0 402.76 28.7
1 11 0 431.26 29.1
-1 11 0 401.96 28.5
2 -11 0 264.17 20.1
2 -11 0 247.28 21.3
-2 -11 0 257.37 26
-2 11 0 274.27 20.7
2 11 0 288.67 23.8
3 -11 0 189.98 18.6
3 -11 0 196.78 19
3 11 0 184.28 20.7
4 -11 0 98.29 15.3
4 -11 0 128.29 18.3
4 11 0 143.59 20.1
-4 11 0 137.59 22
4 11 0 92.49 9.9
5 -11 0 255.57 27.4
5 11 0 207.98 18
5 11 0 231.78 27.1
0 -12 0 301.87 26
0 12 0 285.87 23.3
-1 -12 0 50.79 16.7
1 -12 0 44.7 10.5
1 12 0 43 9.6
-1 12 0 40 9.1
2 -12 0 210.18 16.7
-2 -12 0 152.28 22.8
2 -12 0 224.98 19.4
2 12 0 224.18 20.9
3 -12 0 5.8 6.4
3 -12 0 6.9 6.3
-3 12 0 5.7 8.8
3 12 0 8.9 8.3
4 -12 0 318.77 29.1
4 12 0 331.97 31.4
-4 12 0 388.66 32.9
5 -12 0 65.29 16.3
5 12 0 62.89 16.5
0 13 0 14.2 6.6
-1 -13 0 470.65 36.7
1 -13 0 446.86 33.2
-1 13 0 404.86 30.7
1 13 0 425.96 31.8
2 -13 0 39.3 7.2
2 -13 0 39.8 11
2 13 0 44.2 11
3 -13 0 418.06 29.8
3 -13 0 394.76 30.1
3 13 0 401.26 32.9
-3 13 0 388.16 30.2
4 -13 0 1 7.9
4 13 0 45.1 12.6
0 -14 0 380.06 32.6
0 14 0 371.56 28.5
1 -14 0 85.19 14.7
1 14 0 93.39 15.1
2 -14 0 619.34 33.8
2 -14 0 585.84 40.8
2 14 0 659.73 43.2
3 -14 0 8.2 6.8
3 14 0 -1.1 7.2
4 -14 0 104.79 17.1
4 14 0 79.09 17.4
0 15 0 0.4 5.3
1 15 0 284.17 24.7
2 15 0 145.39 18.6
3 -15 0 578.14 35.8
3 15 0 569.94 41.7
0 16 0 60.19 12.7
1 16 0 68.49 13.5
7 0 -1 235.48 27.5
7 0 -1 196.28 27.7
6 0 -1 -3.6 7.1
6 0 -1 -9 6.7
5 0 -1 434.16 36.2
5 0 -1 403.06 35.2
-5 0 1 497.15 37.9
-4 0 1 10.2 5.2
4 0 -1 2.6 5
4 0 -1 -7.7 4.4
3 0 -1 1232.18 66.89
-3 0 1 1166.08 66.89
-2 0 1 2 3.3
-2 0 1 3.9 2.7
2 0 -1 1.4 2.3
2 0 -1 2.5 2.8
1 0 -1 8080.19 361.56
-1 0 1 7373.16 361.66
1 0 -1 7923.81 361.96
-1 0 1 7829.42 361.56
1 0 1 7132.49 321.47
-1 0 -1 6681.93 321.27
-2 0 -1 -3.1 2
-3 0 -1 2056.19 107.59
-4 0 -1 5.2 6
4 0 1 9.2 6.2
5 0 1 646.54 47.9
5 0 1 651.33 46.9
-5 0 -1 678.43 49.2
6 0 1 -6.5 7.5
6 0 1 -4.4 6.9
7 0 1 516.15 46.4
7 0 1 531.75 44.5
7 -1 -1 12.7 11
7 -1 -1 32.3 14.9
7 1 -1 70.69 18
7 1 -1 53.09 17.6
6 -1 -1 244.18 27.8
6 -1 -1 266.47 28.2
6 1 -1 231.28 26.7
6 1 -1 242.98 27.8
5 -1 -1 7.5 7.8
5 -1 -1 25.6 10.2
-5 -1 1 1.9 7.9
5 1 -1 18.6 8.9
5 1 -1 11.9 9.3
-5 1 1 -10.5 8
-4 -1 1 730.33 46
4 -1 -1 745.53 45.8
4 -1 -1 650.63 44.9
4 1 -1 621.14 44.2
4 1 -1 614.44 44.3
-4 1 1 686.23 45.9
3 -1 -1 706.03 43.7
3 -1 -1 695.33 46.1
-3 -1 1 704.03 44.1
3 1 -1 745.53 44.6
-3 1 1 739.83 45.3
2 -1 -1 305.37 21.2
2 -1 -1 307.37 20.4
-2 -1 1 237.68 19.2
-2 -1 1 313.07 21.2
2 1 -1 294.87 20.5
-2 1 1 281.57 20.5
2 1 -1 298.67 20.7
1 -1 -1 4274.97 191.48
-1 -1 1 4600.04 192.08
-1 -1 1 3804.02 190.38
1 -1 -1 3661.63 189.58
1 1 -1 3839.32 190.98
1 1 -1 4406.66 190.78
-1 1 1 3893.81 191.08
-1 -1 -1 4403.76 197.78
1 -1 1 4266.87 198.28
-1 1 -1 3780.02 197.78
1 1 1 4390.06 197.58
2 -1 1 316.67 21.3
-2 -1 -1 256.97 19.8
-2 1 -1 264.87 20.6
2 1 1 295.97 20.3
3 -1 1 546.05 36.8
-3 -1 -1 521.45 35.2
3 1 1 540.15 35.1
3 1 1 524.65 36.8
-3 1 -1 472.95 35
4 -1 1 862.01 54.79
-4 -1 -1 864.01 55.59
4 1 1 983.6 57.69
-4 1 -1 853.71 55.99
4 1 1 834.12 54.19
5 -1 1 54.59 16
5 -1 1 66.69 15.9
-5 -1 -1 42.6 13.6
5 1 1 51.89 15.3
-5 1 -1 22.1 12.1
5 1 1 62.59 16.3
6 -1 1 355.66 35.9
6 -1 1 464.55 38
6 1 1 347.27 36
6 1 1 379.06 34.9
7 -1 1 24.5 10.7
7 -1 1 3.2 9.7
7 1 1 13.9 11.8
7 1 1 19.6 11.9
7 -2 -1 262.87 30
7 -2 -1 189.18 28.2
7 2 -1 217.38 29.8
7 2 -1 224.68 29.2
6 -2 -1 11.1 9.2
6 -2 -1 0.7 7.4
6 2 -1 -6 8.1
6 2 -1 4.3 8.5
5 -2 -1 361.86 32.2
-5 -2 1 339.17 29.6
5 -2 -1 278.67 28.1
5 2 -1 310.77 29.7
-5 2 1 291.17 30
5 2 -1 321.47 29.2
4 -2 -1 156.48 17.6
4 -2 -1 129.19 16.1
-4 -2 1 123.49 15.4
-4 2 1 157.78 17.3
4 2 -1 123.69 16.3
4 2 -1 120.69 15.8
3 -2 -1 1655.33 81.69
-3 -2 1 1357.46 79.39
3 -2 -1 1508.85 81.49
-3 -2 1 1628.04 83.09
3 2 -1 1515.05 80.39
3 2 -1 1372.26 80.29
-3 2 1 1481.05 81.79
-2 -2 1 152.98 12.8
-2 -2 1 167.98 14.6
2 -2 -1 132.59 13.1
-2 2 1 136.09 13.3
2 2 -1 132.79 12.4
2 2 -1 164.48 14.4
-1 -2 1 6084.69 274.77
-1 -2 1 5723.23 276.57
1 -2 -1 6012.6 275.97
1 2 -1 5694.93 274.17
-1 2 1 6272.17 276.17
1 2 -1 5662.83 276.17
0 -2 -1 666.83 32
0 -2 1 656.83 34.2
0 2 -1 661.23 34.3
0 2 1 682.43 32.9
0 2 1 675.23 31.9
-1 -2 -1 6018.4 283.87
1 -2 1 5800.72 285.07
1 -2 1 6365.76 284.87
-1 -2 -1 5588.34 284.97
1 2 1 6258.17 283.97
1 2 1 6349.06 285.27
-1 2 -1 6363.56 285.67
-2 -2 -1 179.28 15
2 -2 1 188.68 15.9
2 2 1 198.88 16.4
2 2 1 199.38 15.4
-2 2 -1 194.08 16.7
3 -2 1 1710.43 91.89
-3 -2 -1 1693.13 91.39
-3 2 -1 1690.03 92.99
3 2 1 1634.24 90.39
3 2 1 1930.01 93.79
-4 -2 -1 135.09 17.3
4 -2 1 144.29 17.5
-4 2 -1 203.98 20.7
4 2 1 141.99 18.2
4 2 1 137.89 16.8
-5 -2 -1 494.35 39.6
5 -2 1 514.35 40.4
-5 2 -1 485.85 41.4
5 2 1 546.55 42.3
5 2 1 521.15 39.6
6 -2 1 7.6 8.1
6 -2 1 -5.9 6.2
6 2 1 9.4 9.8
6 2 1 -0.4 6.9
7 -2 1 245.18 29
7 -2 1 229.78 28.9
7 2 1 264.17 32.3
7 2 1 240.18 29
7 -3 -1 40 12.3
7 -3 -1 21.8 11.4
7 3 -1 11.2 12
6 -3 -1 546.05 43.9
6 -3 -1 542.25 43.8
6 3 -1 511.85 43.8
6 3 -1 557.04 43.2
5 -3 -1 150.08 20.8
5 -3 -1 130.19 19
-5 -3 1 150.18 20.1
-5 3 1 193.88 22.7
5 3 -1 138.09 19.9
5 3 -1 146.59 19.1
-4 -3 1 1590.14 84.89
4 -3 -1 1373.06 79.99
-4 -3 1 1465.25 79.99
4 -3 -1 1382.66 80.89
-4 3 1 1442.26 81.99
4 3 -1 1330.87 80.39
4 3 -1 1378.46 79.09
-3 -3 1 1441.96 77.29
3 -3 -1 1455.05 79.29
-3 -3 1 1268.57 78.49
-3 3 1 1481.35 79.89
3 3 -1 1545.95 77.89
3 3 -1 1487.45 79.69
2 -3 -1 2355.16 105.89
-2 -3 1 2222.18 106.59
-2 -3 1 1799.02 101.79
2 3 -1 1866.61 101.79
-2 3 1 1858.21 104.09
2 3 -1 2430.26 106.79
-1 -3 1 523.75 27.6
1 -3 -1 547.55 29.3
-1 -3 1 502.25 30.3
1 3 -1 523.95 27.2
1 3 -1 510.75 29.9
-1 3 1 517.75 29.3
0 -3 -1 3287.97 143.49
0 -3 1 2976.7 145.69
0 3 1 2890.31 142.79
0 3 -1 3257.57 146.09
0 3 1 2961.4 142.99
1 -3 1 389.86 23.6
1 -3 1 432.96 24.1
-1 -3 -1 384.36 23.8
1 3 1 406.26 23.8
1 3 1 399.36 22.1
-1 3 -1 396.96 23.9
-2 -3 -1 2545.75 123.89
-2 -3 -1 2596.24 120.99
2 -3 1 2222.28 121.59
2 3 1 2519.75 122.99
2 3 1 2455.55 120.49
-2 3 -1 2459.75 123.49
3 -3 1 1096.89 60.29
-3 -3 -1 1007.3 57.79
-3 3 -1 965.1 59.99
3 3 1 1038.3 57.89
3 3 1 993.6 59.39
4 -3 1 1518.25 89.79
-4 -3 -1 1658.53 90.09
4 3 1 1646.04 89.09
-4 3 -1 1614.54 92.49
4 3 1 1684.63 91.79
-5 -3 -1 135.69 18.8
5 -3 1 144.49 20.6
5 3 1 171.08 20.1
-5 3 -1 148.59 21.3
5 3 1 140.59 21.1
6 -3 1 421.66 37.3
6 -3 1 377.26 38
6 3 1 425.66 36.2
6 3 1 380.66 36.9
7 -3 1 -4 10.9
7 -3 1 17.4 10.7
7 3 1 20.8 11
7 3 1 12.9 10.7
7 -4 -1 302.07 33.1
7 -4 -1 286.17 31.8
7 4 -1 277.27 30.5
7 4 -1 296.37 35.1
6 -4 -1 32.4 13.6
6 -4 -1 35.4 12.3
6 4 -1 38.5 14.6
6 4 -1 43.9 15
-5 -4 1 763.02 63.19
5 -4 -1 1080.19 63.59
5 -4 -1 899.31 59.89
5 4 -1 942.51 61.89
5 4 -1 966.7 59.59
4 -4 -1 52.69 12.1
-4 -4 1 36.1 10.6
-4 -4 1 61.69 14
4 4 -1 41.1 10.6
4 4 -1 31.3 10.8
-4 4 1 21.7 8.1
-3 -4 1 1458.15 85.09
-3 -4 1 1614.44 89.19
3 -4 -1 1732.03 88.69
3 4 -1 1659.43 85.39
3 4 -1 1655.93 88.59
-3 4 1 1687.33 89.09
-2 -4 1 676.43 40.8
2 -4 -1 632.64 38.9
-2 -4 1 629.44 36.7
-2 4 1 700.33 40.3
2 4 -1 671.63 40.1
2 4 -1 663.03 36.5
-1 -4 1 450.75 27.5
1 -4 -1 393.96 24.6
1 -4 -1 409.66 23.1
-1 -4 1 459.55 23.3
-1 4 1 501.25 26.1
1 4 -1 405.86 22.5
1 4 -1 414.56 26.2
0 -4 1 314.17 20.1
0 -4 1 325.47 17.6
0 -4 -1 316.57 18.3
0 4 -1 329.97 20.4
0 4 1 309.87 17
0 4 1 337.67 18
1 -4 1 629.24 32.8
1 -4 1 613.24 32.8
-1 -4 -1 510.95 32.4
1 4 1 635.54 30.3
-1 4 -1 512.35 32.3
-1 4 -1 498.85 31.8
1 4 1 651.03 33.3
2 -4 1 682.53 39.1
-2 -4 -1 651.83 39.5
-2 -4 -1 684.83 36.7
2 -4 1 636.54 37.4
2 4 1 674.83 39.3
-2 4 -1 618.24 39.1
2 4 1 569.44 35.6
3 -4 1 1199.68 75.09
-3 -4 -1 1461.05 75.59
3 4 1 1569.64 78.39
3 4 1 1544.65 74.99
-3 4 -1 1156.28 75.89
-4 -4 -1 106.99 15.1
4 -4 1 117.49 20.9
4 4 1 128.29 16
-4 4 -1 101.29 19.4
4 4 1 122.39 21.1
5 -4 1 927.31 58.59
-5 -4 -1 932.61 61.69
5 4 1 810.12 57.19
5 4 1 755.52 53.69
6 -4 1 25 12.4
6 -4 1 23.1 12.5
6 4 1 32.5 13.6
6 4 1 14.6 10.6
7 -4 1 297.97 33.9
7 -4 1 386.86 36.3
7 4 1 314.97 32.6
7 4 1 279.77 34.2
7 -5 -1 31.4 12.1
7 -5 -1 35.9 16.2
7 5 -1 20.3 13.5
6 -5 -1 1098.49 69.29
6 -5 -1 935.11 65.49
6 5 -1 1034.6 69.09
6 5 -1 978.7 64.89
5 -5 -1 36.4 12.5
5 -5 -1 47.6 14.3
5 5 -1 23.1 9.4
5 5 -1 21.1 16.2
4 -5 -1 967 61.99
-4 -5 1 1009 71.69
-4 -5 1 985.7 59.69
4 5 -1 1148.29 60.59
-4 5 1 979.4 62.99
4 5 -1 995.5 62.89
-3 -5 1 147.79 17
3 -5 -1 118.79 15
-3 -5 1 134.49 27
-3 5 1 135.29 16.2
3 5 -1 135.39 13.7
3 5 -1 143.79 16.4
2 -5 -1 3953.1 182.08
2 -5 -1 3484.85 183.98
-2 -5 1 3872.01 181.88
-2 -5 1 3816.62 187.78
-2 5 1 4083.09 186.38
2 5 -1 3657.23 180.68
2 5 -1 3897.81 191.58
1 -5 -1 217.98 15.4
1 -5 -1 225.28 14.5
-1 -5 1 259.17 19.1
-1 -5 1 221.58 13.4
1 5 -1 236.38 17.4
-1 5 1 248.38 16.4
0 -5 1 365.86 23.4
0 -5 1 374.36 19.7
0 -5 -1 349.27 21.3
0 5 1 380.36 19.4
0 5 1 387.96 21.1
0 5 -1 337.97 22.8
1 -5 1 348.17 22.3
-1 -5 -1 341.27 22.5
1 -5 1 334.97 21.4
1 5 1 350.86 22.2
-1 5 -1 329.97 21.3
1 5 1 356.96 18.8
-1 5 -1 352.76 22.8
-2 -5 -1 3764.92 178.08
2 -5 1 3740.73 181.48
-2 -5 -1 3570.54 182.48
2 -5 1 3787.22 180.88
2 5 1 3933.81 182.68
2 5 1 3608.94 177.78
-2 5 -1 3775.42 182.28
3 -5 1 92.09 13.2
-3 -5 -1 91.89 16.8
3 5 1 108.19 14.5
3 5 1 98.19 11.8
-3 5 -1 102.69 14.3
4 -5 1 1031.8 63.29
-4 -5 -1 970.1 59.89
-4 5 -1 1009.7 64.79
4 5 1 985.1 63.29
4 5 1 1160.28 61.49
5 -5 1 80.89 17.4
5 5 1 57.49 15.2
5 5 1 68.59 16.6
6 -5 1 523.35 42.7
6 5 1 489.65 38.7
6 5 1 392.86 38.3
7 -5 1 -5.1 12.5
7 -5 1 1.9 9.9
7 5 1 18.9 11.3
7 -6 -1 165.68 42.2
7 -6 -1 189.08 26.5
7 6 -1 169.58 27.2
7 6 -1 226.88 25.9
6 -6 -1 44.3 13.4
6 -6 -1 56.39 15.6
6 6 -1 16.5 10.6
6 6 -1 45.3 20.5
5 -6 -1 142.89 23.8
5 6 -1 206.78 21
5 6 -1 145.99 21
-4 -6 1 77.19 12.3
4 -6 -1 100.59 15.9
-4 -6 1 82.29 16.6
-4 6 1 108.39 17.3
4 6 -1 108.09 18.8
4 6 -1 89.69 12.9
3 -6 -1 1691.43 99.29
-3 -6 1 1879.61 97.09
-3 -6 1 2007.4 104.69
3 6 -1 2067.79 103.29
-3 6 1 1872.71 101.49
3 6 -1 1957 96.39
-2 -6 1 225.48 20.8
-2 -6 1 252.47 16.6
2 -6 -1 245.28 17
2 -6 -1 238.28 18.8
-2 6 1 220.48 20.9
2 6 -1 241.18 20.1
2 6 -1 235.38 15.5
-1 -6 1 1864.31 96.79
1 -6 -1 1903.81 91.99
1 -6 -1 1832.02 91.19
-1 6 1 1939.81 92.89
1 6 -1 1849.81 94.89
0 -6 -1 152.58 12.3
0 -6 1 164.18 13.8
0 -6 1 164.48 10.1
0 6 1 166.98 9.9
0 6 -1 144.39 13.2
0 6 1 166.08 12.1
1 -6 1 1738.53 83.79
-1 -6 -1 1610.64 85.49
1 -6 1 1755.22 86.29
1 6 1 1722.03 84.79
-1 6 -1 1633.84 83.59
-1 6 -1 1648.14 85.79
2 -6 1 261.47 19.9
-2 -6 -1 240.78 21.1
2 -6 1 268.07 20.8
2 6 1 297.57 18.1
2 6 1 261.07 21.9
-3 -6 -1 1830.32 106.89
-3 -6 -1 2032.2 102.09
3 -6 1 2082.09 103.99
3 -6 1 2123.79 106.39
3 6 1 2106.19 101.79
3 6 1 1907.51 105.79
-3 6 -1 1942.81 106.39
-4 -6 -1 72.99 12.2
4 -6 1 123.59 17.3
4 6 1 89.19 13.1
4 6 1 68.99 15.7
-4 6 -1 78.79 16.7
-5 -6 -1 202.08 25.1
5 -6 1 266.47 36.3
5 6 1 231.98 28
5 6 1 276.67 25
6 -6 1 45.8 14.8
6 6 1 55.29 19.5
7 -6 1 52.99 18.6
7 -6 1 66.09 22.8
7 6 1 72.79 17.4
7 6 1 75.89 20
7 -7 -1 25.5 14
7 -7 -1 32.3 12.9
7 7 -1 18.5 12.1
7 7 -1 52.29 16.9
6 -7 -1 233.68 27.2
6 -7 -1 176.88 24.1
6 7 -1 167.58 25.2
5 -7 -1 165.28 23.4
-5 -7 1 165.98 21.4
5 7 -1 172.08 19
5 7 -1 163.88 22.2
-4 -7 1 826.92 47.9
4 -7 -1 820.02 51.79
-4 -7 1 833.02 54.69
-4 7 1 726.33 66.79
4 7 -1 720.43 45.5
4 7 -1 709.93 50.89
3 -7 -1 354.76 27.1
-3 -7 1 330.17 23.5
-3 -7 1 280.17 28.5
3 -7 -1 370.26 25
-3 7 1 377.16 28.7
3 7 -1 369.46 29.3
3 7 -1 343.67 22.8
2 -7 -1 2022.2 100.89
-2 -7 1 1932.71 104.99
-2 -7 1 1956.2 95.79
2 -7 -1 1957.6 97.79
2 7 -1 2077.39 103.39
2 7 -1 1942.91 94.89
-2 7 1 1990.6 107.09
1 -7 -1 879.11 46.6
1 -7 -1 873.71 46
-1 -7 1 884.51 51.79
-1 7 1 913.71 47
1 7 -1 884.51 49.6
-1 7 1 855.41 46.6
0 -7 -1 3041.3 143.39
0 -7 1 2807.62 144.99
0 7 1 2964.4 141.89
0 7 -1 3018.2 144.89
-1 -7 -1 639.04 38.3
1 -7 1 649.24 37.4
1 -7 1 603.24 34.9
-1 7 -1 644.84 38.1
1 7 1 619.54 36.3
-1 7 -1 639.74 35.3
-2 -7 -1 1583.54 86.09
2 -7 1 1576.54 82.89
2 -7 1 1620.74 83.59
-2 7 -1 1676.03 85.59
2 7 1 1556.74 77.99
2 7 1 1597.54 84.69
-3 -7 -1 348.07 30.4
-3 -7 -1 439.26 27.2
3 -7 1 376.76 28.5
3 -7 1 411.26 30.3
3 7 1 404.56 30.9
-3 7 -1 427.36 31.8
3 7 1 405.66 26.3
4 -7 1 656.83 43.2
4 -7 1 593.94 42.7
-4 -7 -1 548.15 37.6
4 7 1 588.54 37.5
4 7 1 567.24 42.3
-4 7 -1 523.25 47.8
-5 -7 -1 124.89 18.4
5 -7 1 147.19 21.9
5 7 1 97.39 19.1
5 7 1 151.98 17.7
6 -7 1 468.15 41.1
6 7 1 481.25 43.6
7 -7 1 25.7 13.6
7 -7 1 14.9 13.6
7 7 1 13.8 15.4
7 7 1 0.6 11.2
6 -8 -1 118.49 23.4
6 -8 -1 118.89 23.4
6 8 -1 127.99 23.6
6 8 -1 134.79 19.9
5 -8 -1 219.48 21.1
-5 -8 1 228.48 23.4
5 -8 -1 184.78 23.4
5 8 -1 194.08 20
5 8 -1 188.38 24.3
-4 -8 1 166.18 17.3
4 -8 -1 166.68 17
4 -8 -1 187.18 20.9
4 8 -1 152.68 20
4 8 -1 174.78 16.1
-4 8 1 156.48 20.8
3 -8 -1 1527.25 81.89
-3 -8 1 1566.64 77.09
3 -8 -1 1466.95 78.19
-3 8 1 1552.24 83.49
3 8 -1 1423.16 83.09
3 8 -1 1455.15 75.19
-2 -8 1 186.98 21
2 -8 -1 227.78 18.5
-2 -8 1 222.78 14
2 -8 -1 271.27 25.7
-2 8 1 225.58 19
2 8 -1 256.77 21.1
-1 -8 1 2131.59 111.39
1 -8 -1 2176.38 103.89
1 -8 -1 2174.38 105.59
-1 8 1 2090.79 105.59
-1 8 1 2138.39 104.69
1 8 -1 2143.59 108.79
0 -8 1 1088.49 63.19
0 -8 -1 1200.98 61.99
0 8 1 1183.28 60.29
0 8 -1 1151.58 62.59
1 -8 1 1750.32 85.79
1 -8 1 1699.23 88.99
-1 -8 -1 1812.52 90.79
1 8 1 1711.13 87.79
-1 8 -1 1690.73 89.69
2 -8 1 130.69 14.2
-2 -8 -1 131.19 15.6
2 8 1 144.29 15
-2 8 -1 125.59 13.8
4 -8 1 200.68 21.9
4 -8 1 165.18 19.7
-4 -8 -1 195.28 24.8
-4 -8 -1 178.68 18.1
4 8 1 168.28 20.7
-4 8 -1 189.78 21.9
4 8 1 161.08 16.4
-5 -8 -1 256.37 23.4
5 -8 1 226.58 26.9
5 8 1 240.78 22.6
5 8 1 240.58 26.6
6 -8 1 25.5 12.1
6 8 1 41.1 13.9
6 8 1 28.3 13.5
6 -9 -1 54.49 16
6 -9 -1 70.39 19
6 9 -1 68.29 13.9
6 9 -1 53.89 16.1
5 -9 -1 54.79 12.1
-5 -9 1 42.5 13.2
5 -9 -1 51.49 14
5 9 -1 32.8 9.1
5 9 -1 36 12.5
-4 -9 1 589.04 36.1
4 -9 -1 522.35 39.3
4 -9 -1 569.64 36.6
-4 9 1 491.95 39.6
3 -9 -1 148.99 17
-3 -9 1 215.08 22.2
3 -9 -1 170.98 15.3
-3 -9 1 158.38 13.7
-3 9 1 167.68 19.1
3 9 -1 150.88 12
3 9 -1 150.58 18.4
2 -9 -1 719.93 41.8
-2 -9 1 759.72 48.9
2 -9 -1 680.93 40.3
-2 9 1 751.12 43
2 9 -1 684.23 44.9
-1 -9 1 302.37 26.4
1 -9 -1 341.77 20.7
-1 9 1 353.96 23.2
-1 9 1 343.17 21.5
1 9 -1 356.26 25.4
0 -9 -1 2382.36 118.29
0 -9 1 2311.87 120.39
0 9 1 2455.75 116.59
0 9 -1 2290.27 118.69
1 -9 1 506.95 33.3
1 -9 1 510.95 29.5
-1 -9 -1 512.55 34.3
1 9 1 520.75 32.4
-1 9 -1 534.85 34.3
2 -9 1 618.24 36.9
2 -9 1 608.34 37.8
-2 -9 -1 544.95 39.5
-2 9 -1 569.14 36.6
2 9 1 626.24 38.8
3 -9 1 172.68 16.9
3 -9 1 177.88 18.7
-3 -9 -1 185.68 24.4
-3 9 -1 159.78 18.7
3 9 1 181.78 19.8
3 9 1 160.48 12.7
4 -9 1 915.21 58.29
4 -9 1 994.9 61.79
-4 9 -1 1106.09 64.79
4 9 1 945.41 62.39
-5 -9 -1 20.2 10.6
5 -9 1 27.3 11.9
5 9 1 20 13
5 9 1 39.3 9.7
6 -9 1 89.29 20.5
6 9 1 115.19 18.1
6 9 1 103.69 22.6
6 -10 -1 7.5 9.6
-6 -10 1 -9.8 13.7
6 10 -1 8.4 7.5
6 10 -1 21.9 10.9
-5 -10 1 206.88 22.7
5 -10 -1 229.58 29.9
5 -10 -1 268.37 27
5 10 -1 220.68 25.5
5 10 -1 249.68 20.5
4 -10 -1 84.49 17.6
-4 -10 1 112.39 16.3
4 -10 -1 68.69 13.4
-4 10 1 102.99 18.2
4 10 -1 65.89 9.6
4 10 -1 68.99 15.7
3 -10 -1 697.13 42.5
3 10 -1 738.63 46
-3 10 1 546.15 44.7
-2 -10 1 60.69 20
2 -10 -1 54.39 9.5
2 -10 -1 62.49 10.6
2 10 -1 61.49 13.3
-2 10 1 59.09 10.2
-1 -10 1 1074.09 66.09
1 -10 -1 1141.99 60.99
1 -10 -1 1118.59 56.49
1 10 -1 1085.09 62.89
-1 10 1 1151.18 64.59
-1 10 1 1171.38 57.39
0 -10 1 165.08 17.2
0 -10 -1 165.58 15.6
0 10 -1 156.18 15.7
0 10 1 161.78 14.6
1 -10 1 1295.37 63.89
-1 -10 -1 1259.37 70.89
1 -10 1 1250.27 69.89
1 10 1 1264.57 67.89
-1 10 -1 1284.27 70.49
2 -10 1 30.1 7.7
-2 -10 -1 19.3 9.3
2 -10 1 23.6 7.1
2 10 1 37.5 8.6
-2 10 -1 20.8 6
-3 -10 -1 1095.29 65.09
3 -10 1 1000.3 59.69
3 10 1 949.21 60.69
-3 10 -1 1052.89 68.89
4 -10 1 20.6 9
4 -10 1 29.6 9
-4 10 -1 29.1 10.5
4 10 1 22.7 11.3
4 10 1 26.6 6.1
5 -10 1 396.56 34.8
5 10 1 372.66 27.7
5 10 1 417.36 37.1
6 -10 1 19.6 12.3
6 10 1 -2.4 7.1
-5 -11 1 71.29 14
5 -11 -1 71.49 15.6
5 11 -1 52.99 10.5
5 11 -1 38.1 13.8
4 -11 -1 435.36 34
-4 11 1 446.66 36.8
4 11 -1 455.25 37.3
3 -11 -1 323.57 25.3
3 -11 -1 286.87 23.1
-3 11 1 332.17 27.2
3 11 -1 330.67 38.9
2 -11 -1 495.55 32.8
-2 -11 1 492.05 39.6
2 -11 -1 542.55 32.2
2 11 -1 552.94 37.2
-2 11 1 506.25 32.7
-1 -11 1 36.7 13.8
1 -11 -1 41.5 9.2
1 11 -1 36.3 9.4
-1 11 1 46.5 9.2
-1 11 1 43.7 6.2
0 -11 1 585.34 40.3
0 -11 -1 634.14 39.4
0 11 -1 640.94 39.6
0 11 1 583.34 36.5
1 -11 1 36 5.8
-1 -11 -1 33.4 8.3
1 -11 1 28.9 7.8
1 11 1 40.2 8.5
-1 11 -1 26.4 8.1
-2 -11 -1 703.03 47.2
2 -11 1 681.03 43.2
2 -11 1 696.83 40.9
2 11 1 692.63 43.5
3 -11 1 253.07 23.4
3 -11 1 272.27 23
-3 -11 -1 323.97 28.7
-3 11 -1 232.68 23.6
3 11 1 284.07 25.3
4 -11 1 379.96 32.1
4 11 1 351.16 22.7
4 11 1 374.76 32.8
-4 11 -1 452.25 35.4
5 -11 1 45.3 14.2
5 11 1 71.09 11.3
5 11 1 75.49 17
5 -12 -1 187.98 24.8
5 12 -1 279.87 36.8
4 -12 -1 86.19 16.1
4 -12 -1 103.29 14.9
4 12 -1 143.29 24.1
-4 12 1 85.59 19.1
3 -12 -1 457.05 31.5
3 -12 -1 447.16 30.3
-3 12 1 441.56 32.5
3 12 -1 456.85 35.4
2 -12 -1 124.69 15.2
2 -12 -1 167.38 14.5
-2 12 1 169.58 17.4
2 12 -1 164.88 18.3
1 -12 -1 772.52 45.8
-1 -12 1 710.33 50.69
1 12 -1 781.82 47.9
0 -12 1 141.59 19.5
0 -12 -1 134.99 16.7
0 12 -1 169.48 17.4
0 12 1 157.58 15.4
-1 -12 -1 710.43 48
-1 12 -1 749.53 47.5
1 12 1 805.72 46
2 -12 1 91.49 11.7
-2 -12 -1 58.49 13.4
3 -12 1 347.07 27.6
3 -12 1 346.17 28.1
3 12 1 354.66 32.9
-3 12 -1 400.16 29.5
4 -12 1 23.5 10.7
-4 12 -1 36.5 15.1
4 12 1 18.5 10.1
5 -12 1 67.89 15.6
5 12 1 53.39 15.7
4 -13 -1 122.99 17.8
4 -13 -1 124.89 17
4 13 -1 87.59 17.6
3 -13 -1 99.99 13.8
3 -13 -1 83.19 13.3
-3 13 1 117.89 16.2
3 13 -1 104.49 19.3
2 -13 -1 679.43 41.1
2 -13 -1 650.73 36.9
2 13 -1 605.54 43.4
1 -13 -1 22.5 8.1
1 13 -1 32.5 8.9
0 -13 1 379.76 33
0 -13 -1 383.26 30.4
0 13 1 413.46 28.1
0 13 -1 385.76 29.9
1 -13 1 57.99 12
-1 -13 -1 57.89 15.7
-1 13 -1 46.1 11.8
1 13 1 52.29 11.4
-2 -13 -1 613.04 46
2 -13 1 632.24 36.9
2 -13 1 613.74 42.5
2 13 1 687.63 42.4
3 13 1 30 9.3
4 -13 1 153.38 20.5
4 13 1 144.09 20.1
4 -14 -1 22.4 10.2
4 14 -1 -9.6 8.7
3 -14 -1 431.16 32.8
3 -14 -1 491.95 32.1
-3 14 1 537.75 34.3
3 14 -1 432.86 36.3
2 -14 -1 171.18 18
2 14 -1 153.18 19.4
1 -14 -1 317.07 26
1 14 -1 275.57 25.3
0 -14 -1 100.09 19.2
0 14 -1 60.09 12.1
0 14 1 49.2 10.8
-1 -14 -1 227.68 23.9
1 14 1 212.08 19.8
-1 14 -1 219.48 21.8
2 -14 1 184.88 14.6
2 14 1 214.08 32.5
3 -14 1 520.35 34
3 14 1 468.95 36.8
4 -14 1 40.1 11.2
4 14 1 10.4 10.3
3 -15 -1 107.89 14.6
3 15 -1 70.09 15.8
2 -15 -1 497.65 36.1
2 15 -1 494.65 37.7
1 -15 -1 56.09 12
1 15 -1 23 8.4
0 -15 -1 166.88 23
0 15 1 190.78 19.1
0 15 -1 222.28 21.9
1 15 1 78.59 14.2
2 15 1 419.76 32.3
3 -15 1 87.89 13.7
3 15 1 71.49 14.2
1 16 -1 156.38 18.7
0 16 -1 42.7 10.9
1 16 1 187.98 20
7 0 -2 17.9 10.2
7 0 -2 5.9 10
6 0 -2 585.44 46.2
6 0 -2 579.14 46
5 0 -2 8.2 7.6
-5 0 2 -6.8 5.9
5 0 -2 -6.1 4.4
4 0 -2 1709.13 98.49
-4 0 2 1905.11 100.79
4 0 -2 1881.21 100.59
3 0 -2 0.8 3.6
-3 0 2 1.1 4.2
3 0 -2 3 3.9
-3 0 2 2 3.5
-2 0 2 416.16 25.7
2 0 -2 392.06 25.8
-2 0 2 418.76 26.5
2 0 -2 351.46 24.6
-1 0 2 1.4 2.1
1 0 -2 0.5 2
1 0 -2 -1.6 1.5
-1 0 2 -1.2 1.8
0 0 2 885.11 43.7
0 0 -2 896.91 43.8
1 0 2 -0.6 2
-2 0 -2 295.57 22.5
2 0 2 355.46 23.7
-3 0 -2 1.1 4
3 0 2 -2.4 4.1
-4 0 -2 1486.85 84.09
4 0 2 1424.76 82.19
-5 0 -2 2.3 7.8
5 0 2 -3.2 6.4
5 0 2 -1.9 5.9
6 0 2 880.31 58.49
6 0 2 750.52 59.09
7 0 2 14.5 8.9
7 0 2 2.3 10.7
7 -1 -2 83.79 20.7
7 -1 -2 98.49 20.4
7 1 -2 102.29 21.8
7 1 -2 131.99 25.2
6 -1 -2 6.5 9
6 -1 -2 20.6 10.6
6 1 -2 11.3 10.1
6 1 -2 19.7 12.5
-5 -1 2 976.8 63.99
5 -1 -2 913.91 62.29
5 -1 -2 1121.19 66.49
5 1 -2 1073.49 65.59
5 1 -2 970.7 63.89
-5 1 2 1018.6 64.99
-4 -1 2 260.57 24.5
4 -1 -2 205.58 21.8
4 -1 -2 250.57 24
-4 1 2 251.27 24
4 1 -2 287.07 24.8
4 1 -2 250.67 23.9
3 -1 -2 1013.3 59.49
-3 -1 2 1205.58 61.09
3 -1 -2 933.61 57.09
-3 -1 2 1043.9 59.09
-3 1 2 1027 59.39
3 1 -2 945.21 58.79
3 1 -2 1031.6 61.59
-2 -1 2 175.08 14.6
-2 -1 2 126.19 12.5
2 -1 -2 159.88 13.9
2 -1 -2 131.39 12.1
2 1 -2 145.29 13.2
-2 1 2 139.79 13.4
-1 -1 2 2298.67 118.39
1 -1 -2 2555.94 116.79
-1 -1 2 2486.35 118.99
1 -1 -2 2476.05 119.09
1 1 -2 2678.53 118.89
-1 1 2 2419.76 116.79
1 1 -2 2562.84 118.59
-1 1 2 2277.87 118.79
0 -1 2 259.07 15.7
0 1 -2 268.67 15.8
0 1 2 258.87 13.8
1 -1 2 3002.7 144.29
1 1 2 2998.5 143.59
2 -1 2 252.07 20.1
-2 -1 -2 295.17 20.7
-2 1 -2 248.18 20.2
2 1 2 284.37 20.6
-3 -1 -2 1247.48 71.29
3 -1 2 1171.78 70.69
-3 1 -2 1459.25 73.99
3 1 2 1257.57 72.59
-4 -1 -2 315.77 28.1
4 -1 2 301.97 27.8
-4 1 -2 318.97 28.7
4 1 2 367.86 29.1
4 1 2 333.17 30.5
5 -1 2 725.93 48.8
-5 -1 -2 602.64 46.9
-5 1 -2 612.14 47.7
5 1 2 704.03 50.19
5 1 2 677.33 47.7
6 -1 2 11 8.6
6 -1 2 6.7 8.7
6 1 2 -2.1 9.5
6 1 2 7.2 8.4
7 -1 2 144.69 28.5
7 -1 2 115.09 25
7 1 2 120.49 24.1
7 1 2 99.19 22.1
7 -2 -2 4.1 8.8
7 -2 -2 -16.5 9
7 2 -2 -10.7 8
7 2 -2 -10.5 7.9
6 -2 -2 160.88 23.2
6 -2 -2 161.98 23.3
6 2 -2 178.08 24
6 2 -2 158.68 21.6
5 -2 -2 346.27 31.4
5 -2 -2 387.16 33.4
-5 -2 2 292.17 29
5 2 -2 354.86 31.7
-5 2 2 346.97 31.7
5 2 -2 364.26 32.1
4 -2 -2 780.82 50.29
-4 -2 2 700.13 49.6
4 -2 -2 786.42 48.9
-4 -2 2 710.53 48.7
-4 2 2 809.52 51.19
4 2 -2 804.12 50.39
4 2 -2 744.03 48.9
-3 -2 2 173.78 17.3
-3 -2 2 137.19 15.4
3 -2 -2 155.88 15.4
3 -2 -2 166.68 16.9
-3 2 2 155.68 16.6
3 2 -2 165.18 16.6
2 -2 -2 1980.2 105.29
-2 -2 2 1973.8 104.49
2 -2 -2 2141.79 103.69
-2 -2 2 2109.39 106.39
-2 2 2 2017.4 105.49
2 2 -2 2214.38 106.09
2 2 -2 2289.97 105.09
1 -2 -2 3459.95 162.08
-1 -2 2 3555.24 164.98
-1 -2 2 3581.04 166.68
1 -2 -2 3402.96 165.38
-1 2 2 3451.65 165.58
1 2 -2 3364.36 164.28
1 2 -2 3543.15 165.78
1 -2 2 4250.17 198.58
1 -2 2 4173.88 199.18
1 2 2 4154.78 197.98
-2 -2 -2 1923.61 94.89
2 -2 2 1731.03 94.89
2 2 2 2026.7 95.09
-2 2 -2 1781.72 95.69
3 -2 2 82.49 12
-3 -2 -2 107.69 13.3
-3 2 -2 69.99 13.4
3 2 2 88.79 13.9
4 -2 2 619.44 43.8
-4 -2 -2 667.03 44.3
4 2 2 681.33 45.9
-4 2 -2 694.33 46.6
4 2 2 555.64 41.9
5 -2 2 224.18 25.9
-5 -2 -2 280.57 26.5
-5 2 -2 307.47 30.1
5 2 2 241.38 27.6
5 2 2 253.37 26.1
6 -2 2 246.68 28.6
6 -2 2 194.18 28.2
6 2 2 251.07 27.2
6 2 2 199.98 28.8
7 -2 2 9.7 10.9
7 -2 2 9.1 10.1
7 2 2 15.1 12.4
7 2 2 -7.9 11
7 -3 -2 283.37 32.6
7 -3 -2 307.17 32.1
7 3 -2 277.47 33.7
7 3 -2 269.67 31
6 -3 -2 187.78 23.9
6 -3 -2 152.68 23.2
6 3 -2 121.89 20.4
6 3 -2 201.78 25.9
5 -3 -2 1015.6 64.49
5 -3 -2 912.91 61.19
-5 -3 2 904.01 61.59
5 3 -2 1029.3 63.09
-5 3 2 1213.88 83.99
5 3 -2 939.01 63.59
4 -3 -2 1.9 5.7
-4 -3 2 0.3 6
-4 -3 2 13.3 7.5
4 -3 -2 3.4 5.4
-4 3 2 12.2 6.4
4 3 -2 -7 3.1
4 3 -2 11.6 6.2
3 -3 -2 1807.82 85.89
3 -3 -2 1445.56 86.09
-3 -3 2 1418.36 84.19
-3 -3 2 1835.52 89.89
3 3 -2 1435.86 85.99
3 3 -2 1679.83 86.39
-3 3 2 1720.53 88.19
-2 -3 2 848.92 46
2 -3 -2 775.72 44.3
-2 -3 2 780.02 47.9
2 -3 -2 873.51 47.5
-2 3 2 851.91 47.7
2 3 -2 805.02 44.8
2 3 -2 860.01 47.9
-1 -3 2 9221.18 418.66
-1 -3 2 8901.91 415.26
1 -3 -2 8836.92 416.26
-1 3 2 9170.98 416.76
1 3 -2 8632.64 417.06
0 -3 2 1731.53 86.39
0 3 2 1727.53 84.59
0 3 2 1810.82 81.89
0 3 -2 1745.43 86.69
1 -3 2 9999 450.85
1 -3 2 9878.81 450.45
-1 3 -2 9292.37 450.25
1 3 2 9524.45 448.66
1 3 2 9683.33 449.06
2 -3 2 667.23 39.9
-2 -3 -2 698.53 38.9
2 3 2 652.23 38.4
-2 3 -2 750.72 42.4
2 3 2 571.34 38.6
3 -3 2 2449.45 124.29
-3 -3 -2 2367.36 122.79
3 3 2 2374.46 125.19
-3 3 -2 2472.75 125.59
3 3 2 2370.46 124.09
-4 -3 -2 -1.1 4.6
4 -3 2 2.4 6.1
4 3 2 7.4 6.6
4 3 2 -7.9 5.3
-4 3 -2 7.1 6.6
5 -3 2 621.84 45.9
-5 -3 -2 632.14 45.7
5 3 2 621.24 44.5
5 3 2 565.64 45.9
6 -3 2 111.69 22.9
6 3 2 142.99 25.7
6 3 2 121.89 24.1
7 -3 2 187.18 27.5
7 -3 2 206.28 27.4
7 3 2 156.88 25.6
7 3 2 134.09 27.9
7 -4 -2 32.1 13.4
7 -4 -2 29 14.8
7 4 -2 47.9 15.8
7 4 -2 32.5 15.9
6 -4 -2 612.74 49.7
6 -4 -2 601.04 58.99
6 4 -2 703.13 49.1
6 4 -2 704.53 52.19
5 -4 -2 75.29 16.6
-5 -4 2 84.09 18.6
5 -4 -2 70.69 16.7
5 4 -2 97.29 18.2
5 4 -2 81.69 17.5
4 -4 -2 474.15 35.5
4 -4 -2 505.55 38.3
-4 -4 2 497.05 36.6
-4 -4 2 577.44 43.3
-4 4 2 515.25 38.6
4 4 -2 502.15 35.7
4 4 -2 603.54 40.4
3 -4 -2 267.67 22.9
-3 -4 2 259.87 21.1
3 -4 -2 254.07 20.8
-3 -4 2 237.48 23.1
3 4 -2 258.37 22.8
3 4 -2 272.87 20.9
-3 4 2 259.47 22.9
-2 -4 2 4224.58 199.38
2 -4 -2 4258.07 196.48
-2 -4 2 3617.44 193.28
-2 4 2 4027.5 210.68
2 4 -2 4198.38 193.48
-1 -4 2 328.97 23.7
1 -4 -2 351.26 18
1 -4 -2 331.07 21.6
-1 -4 2 362.46 20.8
1 4 -2 376.36 23.6
-1 4 2 331.97 21.6
0 -4 2 1905.21 88.69
0 -4 -2 1623.04 83.19
0 4 -2 1656.33 87.69
0 4 2 1820.22 82.79
0 4 2 1805.32 84.89
1 -4 2 574.64 33
1 -4 2 532.05 32.5
-1 4 -2 533.35 33.2
1 4 2 610.04 32.2
1 4 2 567.74 30.9
2 -4 2 5238.98 240.68
2 -4 2 4762.42 240.68
2 4 2 5209.28 241.18
2 4 2 4904.51 238.28
-3 -4 -2 218.88 18.3
3 -4 2 164.88 17.7
3 4 2 207.38 19.5
3 4 2 176.78 16.5
-3 4 -2 130.09 17.1
-4 -4 -2 352.76 29.3
4 -4 2 384.56 32.1
4 4 2 389.06 32.3
4 4 2 435.16 31.2
-4 4 -2 349.07 31.5
-5 -4 -2 54.39 13.9
5 -4 2 59.79 15.6
5 4 2 40.5 14
5 4 2 71.49 16.5
6 -4 2 532.65 45.8
6 4 2 561.54 47.1
6 4 2 610.44 44.6
7 -4 2 11.1 12
7 4 2 -19.3 10.3
7 4 2 24.1 11.1
7 -5 -2 284.57 31.9
7 5 -2 300.37 64.39
7 5 -2 314.07 31.5
6 -5 -2 28.8 12.2
6 -5 -2 9.8 10
6 5 -2 9.8 11.3
6 5 -2 21.8 11.3
5 -5 -2 489.05 37.1
5 -5 -2 499.95 40.4
-5 -5 2 490.45 36.8
5 5 -2 443.46 35.1
5 5 -2 382.36 38.7
4 -5 -2 34.6 10.1
4 -5 -2 51.19 12.8
-4 -5 2 19.6 9.3
-4 -5 2 49 11.3
4 5 -2 52.59 12.9
4 5 -2 40.4 10.2
-4 5 2 64.19 13.7
3 -5 -2 2026 112.29
-3 -5 2 2256.07 110.79
-3 -5 2 2185.98 115.69
-3 5 2 2317.37 114.29
3 5 -2 2146.19 113.89
3 5 -2 2077.99 108.59
-2 -5 2 214.68 19.2
2 -5 -2 208.38 17.4
-2 -5 2 213.38 16
-2 5 2 209.78 18.2
2 5 -2 199.88 18.1
2 5 -2 203.48 14.9
-1 -5 2 4444.06 214.08
-1 -5 2 4440.96 220.08
1 -5 -2 4705.73 212.18
1 -5 -2 4663.83 216.08
1 5 -2 4591.24 218.38
-1 5 2 4566.64 216.38
0 -5 2 598.34 34.7
0 -5 -2 563.94 29.8
0 5 -2 563.94 33.9
0 5 2 557.74 30.1
0 5 2 565.54 28.9
1 -5 2 5004.3 240.88
1 -5 2 5125.19 243.68
-1 -5 -2 5194.78 240.88
1 5 2 5155.98 239.98
-1 5 -2 5116.49 242.68
1 5 2 4943.01 237.98
2 -5 2 201.08 16.8
2 -5 2 182.88 17.1
2 5 2 202.98 17.3
2 5 2 191.88 15.1
-2 5 -2 174.58 16.4
3 -5 2 2162.08 111.49
-3 -5 -2 2126.19 108.39
3 5 2 2224.88 108.39
-3 5 -2 2011.3 111.89
3 5 2 2053.39 110.79
4 -5 2 90.19 18.7
-4 -5 -2 93.69 16.7
4 5 2 80.29 16.6
-4 5 -2 55.19 16.3
4 5 2 105.89 14.2
-5 -5 -2 398.26 34.2
5 -5 2 458.15 46.5
5 5 2 506.45 36
5 5 2 370.26 39.8
6 -5 2 40.4 14.4
6 5 2 45.8 16.3
6 5 2 29.2 12.4
7 -5 2 169.58 29.5
7 5 2 159.98 23.9
7 -6 -2 8.2 11.9
7 -6 -2 13.1 11
7 6 -2 12.8 10.4
7 6 -2 2.3 8.6
6 -6 -2 203.68 26.1
6 -6 -2 177.68 24
6 6 -2 253.87 25.1
6 6 -2 191.18 26.1
-5 -6 2 46 15.2
5 -6 -2 22 8.6
5 -6 -2 45.9 17.7
5 6 -2 34.6 11.3
5 6 -2 30.4 9.8
-4 -6 2 456.85 37.1
-4 -6 2 445.66 31.5
4 -6 -2 357.46 32
4 6 -2 402.26 33.8
4 6 -2 424.36 30.1
-4 6 2 446.66 49.8
-3 -6 2 536.75 35.1
-3 -6 2 554.04 40
3 -6 -2 591.94 38
3 6 -2 540.15 38.3
-3 6 2 517.15 37.7
3 6 -2 556.84 33.6
2 -6 -2 1412.96 73.59
2 -6 -2 1412.16 68.89
-2 -6 2 1276.27 76.59
-2 -6 2 1370.96 70.39
2 6 -2 1410.76 75.39
2 6 -2 1381.36 69.39
-2 6 2 1408.86 74.09
-1 -6 2 559.04 30.7
1 -6 -2 564.64 32.5
1 -6 -2 577.84 29.9
-1 -6 2 585.54 37.1
-1 6 2 600.74 33.4
1 6 -2 559.04 35.3
0 -6 2 3079.59 147.69
0 -6 -2 2972.7 142.79
0 -6 2 3019.6 142.89
0 6 2 3005.5 141.49
0 6 -2 2997.3 147.19
0 6 2 2951.8 141.69
-1 -6 -2 471.35 29.5
1 -6 2 476.05 29.1
1 -6 2 475.25 30.4
1 6 2 484.15 28.5
-1 6 -2 476.05 34.7
1 6 2 494.55 26.6
2 -6 2 922.71 53.79
-2 -6 -2 973.9 55.59
2 6 2 957.8 53.89
-2 6 -2 987.4 54.79
2 6 2 916.01 50.19
3 -6 2 405.66 29.7
3 -6 2 368.26 29.9
3 6 2 429.86 28
-3 6 -2 398.26 31.1
3 6 2 411.46 30.9
4 -6 2 415.46 32.1
-4 -6 -2 282.97 25.2
4 -6 2 326.77 29
4 6 2 389.76 31.3
-4 6 -2 290.37 32.3
-5 -6 -2 244.78 27.7
5 -6 2 251.17 29.1
5 6 2 170.68 23.9
5 6 2 184.98 22
6 -6 2 226.38 27.3
6 6 2 241.48 25.5
6 6 2 166.08 27.1
7 -6 2 23.4 13.3
7 6 2 42 16.6
7 -7 -2 127.09 23.5
7 -7 -2 170.28 25.7
7 7 -2 114.89 22.9
7 7 -2 137.49 21.6
6 -7 -2 47.4 14.1
6 -7 -2 101.19 19.7
6 7 -2 84.79 18.2
6 7 -2 97.39 18.3
5 -7 -2 508.75 39.7
5 -7 -2 396.56 34.7
5 7 -2 465.95 39.1
5 7 -2 497.85 34.7
-4 -7 2 278.87 22.3
4 -7 -2 208.18 22.8
-4 -7 2 138.79 31.5
4 7 -2 265.57 25.2
-4 7 2 200.18 22.8
4 7 -2 214.28 19.3
3 -7 -2 811.62 45.5
3 -7 -2 731.43 47.7
-3 -7 2 846.02 58.39
-3 -7 2 826.02 56.79
3 7 -2 732.43 43.3
3 7 -2 745.03 49.4
-3 7 2 836.22 50.09
-2 -7 2 27.9 9.4
-2 -7 2 35.1 6.7
2 -7 -2 35 8
2 -7 -2 22 5
-2 7 2 29.1 7.8
2 7 -2 37.7 8.8
-1 -7 2 861.21 46.1
1 -7 -2 952.8 49.1
1 -7 -2 972.8 47.2
-1 -7 2 904.01 54.29
-1 7 2 909.01 49.4
1 7 -2 943.51 52.79
0 -7 -2 174.78 13
0 -7 2 173.38 12.1
0 -7 2 155.18 15.1
0 7 -2 173.08 15.6
0 7 2 157.48 11.6
0 7 2 150.78 11.1
1 -7 2 956.3 53.99
-1 -7 -2 1084.19 56.19
1 -7 2 964.1 56.09
1 7 2 1002.1 50.59
-1 7 -2 1138.69 58.69
1 7 2 1007.9 53.89
2 -7 2 38.4 8.8
-2 -7 -2 32.9 8.6
2 -7 2 28.6 8.3
2 7 2 28.9 8.9
-2 7 -2 26.2 7.8
2 7 2 40.3 7
3 -7 2 577.44 38.6
3 -7 2 578.94 37.3
3 7 2 567.24 38.3
3 7 2 481.35 32.9
-4 -7 -2 491.75 34.6
4 -7 2 497.05 38.6
4 -7 2 466.95 35.4
4 7 2 477.45 33.6
-4 7 -2 502.55 38.6
4 7 2 490.85 38.3
5 -7 2 486.35 40.5
5 7 2 509.65 37.2
5 7 2 513.35 41.9
6 -7 2 112.69 23
6 7 2 97.89 22
6 7 2 95.89 19.3
7 -7 2 148.19 28.5
7 7 2 180.78 27
7 7 2 138.49 21.5
6 8 -2 61.89 15.9
5 -8 -2 11.4 7.7
5 -8 -2 -6.7 7.5
-5 -8 2 23.4 10
5 8 -2 26 9.1
5 8 -2 8.2 9.7
4 -8 -2 608.94 36.3
-4 -8 2 480.45 36.2
4 -8 -2 530.75 39.7
-4 8 2 585.44 42.3
4 8 -2 588.84 35.6
-3 -8 2 76.69 10.5
3 -8 -2 71.29 11.2
3 -8 -2 78.19 9.8
3 8 -2 51.09 8.2
3 8 -2 48.5 11.8
-3 8 2 67.89 12.7
2 -8 -2 504.75 28.4
-2 -8 2 477.45 27.6
2 -8 -2 487.25 31.3
-2 -8 2 477.65 36.6
2 8 -2 506.35 34.3
-2 8 2 452.05 31.6
-1 -8 2 141.59 9.6
1 -8 -2 144.89 11.4
-1 -8 2 159.08 17
1 -8 -2 143.59 12.1
-1 8 2 126.29 12.2
1 8 -2 134.79 14.5
0 -8 2 789.02 47.2
0 -8 2 757.12 40
0 -8 -2 786.42 42.9
0 8 -2 782.92 46.3
0 8 2 757.42 39.4
0 8 2 805.12 41.5
-1 -8 -2 174.48 16.6
1 -8 2 179.08 16.3
1 -8 2 178.48 14.6
-1 8 -2 174.88 17
1 8 2 180.58 14.7
-2 -8 -2 377.26 28.8
2 -8 2 415.36 33
2 -8 2 385.66 27.5
2 8 2 362.36 22.2
-2 8 -2 354.96 26.7
2 8 2 406.16 27.7
3 -8 2 88.39 16.3
3 -8 2 86.69 13.9
-3 -8 -2 121.19 17.8
3 8 2 83.79 11.2
-3 8 -2 113.99 14.7
3 8 2 89.09 15.9
4 -8 2 488.75 38.6
4 -8 2 500.05 36.9
4 8 2 571.84 34.7
-4 8 -2 469.25 38.2
4 8 2 476.45 39
-5 -8 -2 11.4 8.2
5 -8 2 13.9 8.6
5 8 2 6.2 6.2
5 8 2 3.3 9.2
6 -8 2 364.76 36
6 8 2 310.57 44.8
6 8 2 367.96 37.7
6 -9 -2 14.8 9.5
6 -9 -2 -0.2 10.3
6 9 -2 10.8 9.9
-5 -9 2 418.16 32.9
5 -9 -2 436.86 36.1
5 -9 -2 379.76 30.7
5 9 -2 438.16 30.4
5 9 -2 410.16 36.3
4 -9 -2 61.49 12.9
-4 -9 2 58.49 11.9
4 -9 -2 93.89 12.7
-4 9 2 79.79 15.6
4 9 -2 66.29 15.4
3 -9 -2 631.64 40.7
-3 -9 2 577.54 45.6
3 -9 -2 645.84 36.7
-3 -9 2 613.54 36.3
-3 9 2 636.74 42.3
3 9 -2 626.54 43.2
2 -9 -2 53.29 13.9
2 -9 -2 41.1 6.5
-2 9 2 69.39 12.3
2 9 -2 45.5 11.3
-1 -9 2 561.44 41.5
1 -9 -2 656.53 35.5
1 9 -2 671.83 40.6
-1 9 2 605.24 35.4
0 -9 2 342.27 20.3
0 -9 -2 414.86 25.1
0 -9 2 385.26 28.3
0 9 -2 369.56 27.1
0 9 2 341.57 22.4
-1 -9 -2 647.04 39.4
1 -9 2 631.14 36
1 -9 2 597.74 39.4
1 9 2 607.64 36.2
-1 9 -2 658.63 41
2 -9 2 11.2 5.1
2 -9 2 6.1 9.1
-2 -9 -2 34 8.2
2 9 2 21.8 6.4
-3 -9 -2 626.54 43.4
3 -9 2 562.54 39.3
3 -9 2 505.95 39.3
-3 9 -2 651.63 41.6
3 9 2 587.24 40.7
3 9 2 580.34 33.6
4 -9 2 137.59 20.1
4 9 2 168.28 15.8
-4 9 -2 158.58 22.2
4 9 2 177.78 21.7
5 -9 2 468.55 39.6
5 9 2 451.05 39.3
5 9 2 487.95 33.9
6 -9 2 78.19 17.7
6 9 2 41.3 15.9
6 9 2 36 16.6
6 -10 -2 183.38 25.2
6 -10 -2 195.98 25.2
6 10 -2 170.78 19.4
6 10 -2 177.78 25.9
5 -10 -2 95.79 18.3
-5 -10 2 97.79 17
5 -10 -2 84.69 15.3
5 10 -2 89.79 13.3
5 10 -2 132.79 23.6
4 -10 -2 720.93 43.6
4 -10 -2 763.22 49.3
-4 -10 2 758.62 44.4
4 10 -2 732.63 50.89
-4 10 2 728.73 50.19
3 -10 -2 124.09 12.5
3 -10 -2 96.49 13.4
-3 -10 2 109.39 11
-3 10 2 96.19 15.3
3 10 -2 74.49 17.6
-2 -10 2 394.96 34.1
-2 10 2 405.96 28.2
2 10 -2 408.66 31.1
1 -10 -2 54.79 8.4
-1 -10 2 80.99 15.9
1 10 -2 98.29 13.5
-1 10 2 65.09 8.4
0 -10 2 1630.14 87.09
0 10 2 1589.94 79.59
0 10 -2 1511.45 84.39
1 -10 2 68.79 8.9
1 -10 2 74.09 12.9
-1 -10 -2 88.39 14.7
-1 10 -2 67.79 12.6
1 10 2 68.99 9.6
2 -10 2 373.36 29.2
2 -10 2 345.37 30.6
-2 -10 -2 367.76 28.8
2 10 2 382.06 27.2
3 -10 2 136.19 17.8
-3 -10 -2 142.59 20
3 -10 2 157.18 17.2
3 10 2 168.08 18.8
-3 10 -2 124.29 17.5
3 10 2 137.89 11.2
4 -10 2 765.02 53.59
-4 10 -2 939.11 57.89
5 -10 2 -1.5 8
5 10 2 20.1 10.2
5 10 2 18.3 7.2
6 -10 2 227.78 28.3
6 10 2 187.28 22.2
5 -11 -2 285.37 24.7
5 -11 -2 306.97 29.4
-5 -11 2 260.57 25.7
5 11 -2 294.47 30.6
4 -11 -2 86.69 17.3
4 -11 -2 66.79 12.6
4 11 -2 97.59 19.3
-4 11 2 102.19 20.5
3 -11 -2 541.35 35.9
3 -11 -2 540.45 33
-3 11 2 501.05 36.8
3 11 -2 558.24 39.8
2 -11 -2 22.6 5.9
2 11 -2 26.2 8.4
-1 -11 2 1070.09 66.09
1 -11 -2 1014.3 58.09
1 11 -2 1023.3 62.09
-1 11 2 1143.89 55.19
0 -11 2 65.49 13.5
0 -11 -2 59.19 11
0 11 2 74.09 14
0 11 -2 58.69 12.6
-1 -11 -2 1121.99 65.19
1 -11 2 1174.98 67.89
1 -11 2 1168.18 59.19
-1 11 -2 1131.49 66.89
1 11 2 1170.98 62.19
2 -11 2 105.09 17.9
2 -11 2 91.29 12.8
-2 -11 -2 85.69 16.1
2 11 2 80.19 12.6
-3 -11 -2 753.82 49.9
3 -11 2 639.54 43.7
3 11 2 641.44 44.1
4 -11 2 11.5 9.6
4 11 2 15.3 8.6
4 11 2 6.5 4.1
5 -11 2 257.47 28.8
5 11 2 261.37 20.9
5 11 2 234.88 27.4
5 -12 -2 6.2 9.3
5 -12 -2 -9.7 10
5 12 -2 7.5 9.6
4 -12 -2 289.07 23
4 -12 -2 292.37 26.5
4 12 -2 275.17 28.1
3 -12 -2 245.18 21.8
3 -12 -2 217.68 19.5
-3 12 2 299.47 24.9
3 12 -2 241.68 25.4
2 -12 -2 331.97 31.6
1 -12 -2 92.19 12.1
1 12 -2 92.89 14.1
0 -12 -2 767.32 46.7
0 -12 2 761.02 51.29
0 12 -2 788.82 49.8
0 12 2 824.32 45
-1 -12 -2 104.49 17.2
1 -12 2 81.69 14.2
1 -12 2 103.19 9.4
-1 12 -2 92.99 14.6
1 12 2 111.89 12.2
-2 -12 -2 1203.08 70.79
2 -12 2 1008.6 70.09
2 12 2 1331.47 67.69
4 -12 2 293.17 27.3
4 12 2 238.58 26.6
5 -12 2 7.8 11.3
5 12 2 21.3 11
5 12 2 -1.3 8
4 -13 -2 9.9 8.8
4 -13 -2 27.9 11
4 13 -2 36.7 12.1
3 -13 -2 291.07 23
3 -13 -2 246.48 20.5
3 13 -2 248.98 25.8
-3 13 2 281.47 24
-2 13 2 254.07 22.9
1 -13 -2 272.67 22.2
1 13 -2 298.57 26.4
0 -13 -2 16.8 7.3
0 13 2 3.8 3.9
0 13 -2 7.5 6.3
-1 -13 -2 230.28 23.8
1 13 2 249.58 20
-1 13 -2 250.47 23.7
-2 -13 -2 381.36 32
2 -13 2 305.47 29.7
2 13 2 401.26 28.2
3 -13 2 300.17 25.4
3 13 2 289.57 30
4 -13 2 11.3 13.3
4 13 2 20.5 9.3
4 -14 -2 239.78 31.3
4 14 -2 178.28 28.8
3 -14 -2 62.39 11.8
3 -14 -2 87.69 14
-3 14 2 54.59 11.4
3 14 -2 76.99 16.7
2 -14 -2 270.27 22.4
-2 14 2 262.07 23.9
2 14 -2 305.07 27.3
1 -14 -2 143.29 16.1
1 14 -2 139.99 17.5
0 -14 -2 128.09 17.4
0 14 -2 124.99 17.1
0 14 2 152.38 14.8
-1 -14 -2 182.28 22.4
1 14 2 196.18 17.5
-1 14 -2 190.18 21.2
-2 -14 -2 150.58 23.6
2 -14 2 137.79 13.8
2 14 2 172.98 18.6
3 -14 2 73.09 13.3
3 14 2 35.3 11.6
4 14 2 75.69 15.4
3 15 -2 283.87 33.6
2 -15 -2 35.8 10.9
2 15 -2 62.79 14.6
1 -15 -2 254.77 24.1
1 15 -2 267.87 25.4
0 -15 -2 4.1 9.6
0 15 -2 34.9 11.6
0 15 2 20.1 7
-1 -15 -2 196.58 26.1
1 15 2 240.28 20.4
-1 15 -2 231.88 23.2
3 -15 2 197.08 20.9
3 15 2 192.98 22.4
1 16 -2 63.49 14.5
0 16 -2 274.97 25.4
0 16 2 224.18 20.8
1 16 2 42 10.1
7 0 -3 138.19 25.4
7 0 -3 141.29 22.8
6 0 -3 -1.8 6.7
6 0 -3 -7 7
-5 0 3 496.95 40.6
5 0 -3 530.15 40.2
5 0 -3 525.95 40.8
-4 0 3 -2.9 5.8
4 0 -3 2.9 6.3
4 0 -3 11.7 6.2
3 0 -3 1916.41 101.09
-3 0 3 1764.42 100.39
-3 0 3 1975.7 100.79
3 0 -3 2040.8 106.59
2 0 -3 0.2 2.6
-2 0 3 0.2 3
2 0 -3 1.9 2.7
1 0 -3 2259.67 101.79
-1 0 3 1981.2 103.69
1 0 -3 2196.48 104.09
-1 0 3 1992 101.89
0 0 3 -1.5 1
0 0 -3 -0.5 1.3
2 0 3 -0.2 2.6
-3 0 -3 1605.94 91.99
3 0 3 1819.62 92.49
-4 0 -3 7.7 7.1
4 0 3 -3.5 6.3
-5 0 -3 635.44 49.2
5 0 3 652.93 46.8
6 0 3 -2.6 7
6 0 3 -15.2 7.4
7 0 3 84.99 21.3
7 0 3 84.79 22.9
7 -1 -3 10.6 10.8
7 -1 -3 7.2 9.8
7 1 -3 56.39 17.5
7 1 -3 26.6 12.4
6 -1 -3 386.86 35.5
6 -1 -3 481.65 39.3
6 1 -3 373.36 36.2
6 1 -3 375.76 35.7
-5 -1 3 67.99 16.9
5 -1 -3 83.89 18.4
5 -1 -3 107.29 20.5
5 1 -3 105.79 20
5 1 -3 76.59 17.7
-5 1 3 73.49 19.5
-4 -1 3 2038.9 100.59
4 -1 -3 1757.82 96.69
-4 -1 3 2035 101.49
4 -1 -3 1649.23 97.79
-4 1 3 1624.94 97.29
4 1 -3 1699.93 97.49
4 1 -3 1806.42 98.39
-3 -1 3 158.28 15.9
3 -1 -3 121.79 15
3 -1 -3 156.38 15.1
-3 -1 3 157.38 16.4
3 1 -3 123.79 14.6
-3 1 3 156.28 16.4
3 1 -3 116.79 14.3
2 -1 -3 565.44 33.4
-2 -1 3 616.34 34
2 -1 -3 475.95 30.3
-2 -1 3 420.36 35.5
-2 1 3 611.64 32.3
2 1 -3 535.45 32.7
2 1 -3 439.36 31
1 -1 -3 237.38 17.1
-1 -1 3 226.48 16.8
-1 -1 3 224.58 16.4
1 -1 -3 230.38 14.3
1 1 -3 255.77 16.4
-1 1 3 247.78 17.4
-1 1 3 233.18 14.9
0 -1 -3 1192.98 51.69
0 -1 3 901.31 52.49
0 1 -3 1152.98 53.59
0 1 3 934.91 50.69
1 -1 3 253.67 17.5
2 -1 3 776.62 45.1
-2 1 -3 695.53 44.3
2 1 3 786.82 44.7
-3 -1 -3 141.99 16.3
3 -1 3 146.79 16.6
3 1 3 162.38 16.9
-3 1 -3 158.98 17.2
4 -1 3 2356.36 125.19
-4 -1 -3 2300.87 125.59
4 1 3 2537.25 125.69
-4 1 -3 2232.18 126.19
5 -1 3 112.49 22.1
-5 -1 -3 84.29 18.4
5 1 3 87.89 20.2
5 1 3 84.59 20.5
6 -1 3 422.86 36.7
6 -1 3 332.17 35.9
6 1 3 312.87 36.1
6 1 3 366.66 33.9
7 -1 3 2.8 12.9
7 -1 3 33.6 14.8
7 1 3 19.7 13.9
7 1 3 5.7 12.2
7 -2 -3 166.58 25.3
7 -2 -3 214.88 27.7
7 2 -3 200.08 26.1
7 2 -3 186.08 27.5
6 -2 -3 22.5 11.4
6 -2 -3 11.3 10.9
6 2 -3 24 10.6
6 2 -3 12 11
-5 -2 3 973.9 66.99
5 -2 -3 1097.09 69.09
5 -2 -3 1123.69 67.49
5 2 -3 1141.99 69.29
5 2 -3 1120.49 68.09
4 -2 -3 175.98 18.6
-4 -2 3 212.98 20.7
4 -2 -3 181.18 20.8
-4 -2 3 159.28 19.9
4 2 -3 147.09 18.6
-4 2 3 169.98 20
4 2 -3 181.48 20.4
-3 -2 3 897.61 53.69
3 -2 -3 1010.4 54.69
-3 -2 3 952.1 53.09
3 -2 -3 790.02 49.5
3 2 -3 833.02 50.99
-3 2 3 815.42 52.49
3 2 -3 886.21 52.39
2 -2 -3 350.36 25.1
2 -2 -3 348.27 22.7
-2 -2 3 397.26 26.3
-2 -2 3 382.76 26.9
2 2 -3 368.86 25.2
2 2 -3 354.26 24.3
-2 2 3 341.17 25.2
-1 -2 3 800.32 43.5
1 -2 -3 777.02 43
1 -2 -3 783.52 38.5
-1 -2 3 797.22 42.9
1 2 -3 758.22 42.3
-1 2 3 775.72 39.1
-1 2 3 772.72 43
0 -2 3 1649.33 82.79
0 2 3 1646.84 78.69
0 2 -3 1717.23 83.19
1 -2 3 790.02 44.1
1 -2 3 768.62 42.7
-2 2 -3 122.19 13.5
-3 -2 -3 771.92 50.39
3 -2 3 844.82 51.89
-3 2 -3 784.32 51.89
3 2 3 993.5 52.59
4 -2 3 24.3 8.6
-4 2 -3 45.3 11.2
4 2 3 28.7 9.6
4 2 3 45.8 10
-5 -2 -3 1148.49 71.09
5 -2 3 1162.98 71.09
5 2 3 1066.39 71.99
5 2 3 1110.49 69.19
6 -2 3 9.3 9.2
6 2 3 49 15.1
6 2 3 13 11.3
7 -2 3 268.37 32.9
7 -2 3 259.47 32.7
7 2 3 258.07 32.3
7 2 3 259.07 33.7
7 -3 -3 7.4 9.1
7 -3 -3 2.3 11.4
7 3 -3 0.4 8.5
7 3 -3 6 10
6 -3 -3 580.54 45.8
6 3 -3 536.15 44.6
6 3 -3 516.85 42.7
5 -3 -3 66.89 15.9
-5 -3 3 56.69 15.2
5 -3 -3 66.59 16.9
5 3 -3 87.49 18
5 3 -3 61.39 14.9
4 -3 -3 264.07 26.5
4 -3 -3 283.67 25.2
-4 3 3 299.37 27.6
4 3 -3 358.76 28.7
4 3 -3 389.66 28.3
3 -3 -3 24.9 7
-3 -3 3 21.3 7.5
-3 -3 3 28.6 8.1
3 -3 -3 27.1 6.6
3 3 -3 34.4 8.3
3 3 -3 39 8.7
2 -3 -3 3908.11 173.98
-2 -3 3 3494.15 176.98
2 -3 -3 3346.77 177.08
-2 -3 3 3815.72 180.28
2 3 -3 3695.93 176.08
-2 3 3 4021.5 179.38
2 3 -3 3298.87 180.28
-1 -3 3 4691.53 219.78
1 -3 -3 4680.73 220.28
-1 -3 3 4646.64 221.78
-1 3 3 4528.15 220.08
1 3 -3 4635.84 220.48
0 -3 3 6994.9 335.47
0 3 3 7387.06 329.67
0 3 -3 7105.29 335.97
1 -3 3 4569.14 216.98
1 -3 3 4434.86 215.98
-1 3 -3 4606.24 216.98
2 -3 3 4008.3 192.88
2 -3 3 3916.61 193.98
-2 3 -3 3488.15 193.08
2 3 3 4447.75 194.98
2 3 3 4054.99 192.58
3 -3 3 113.49 15.3
-3 -3 -3 114.49 13.8
-3 3 -3 93.39 13.7
3 3 3 96.49 13.4
3 3 3 97.89 14.7
-4 -3 -3 733.23 49.2
4 -3 3 795.72 51.29
4 3 3 737.33 48.5
-4 3 -3 667.73 54.69
4 3 3 819.62 52.89
-5 -3 -3 31.9 10.9
5 -3 3 24.2 12
5 3 3 37.8 13
5 3 3 26 11
6 -3 3 298.17 32.3
6 3 3 304.87 30.9
7 -3 3 27.3 17.1
7 -3 3 36.9 15.2
7 3 3 48.3 16.9
7 3 3 10.6 13.5
7 -4 -3 158.08 27.1
7 4 -3 188.48 25.4
7 4 -3 250.67 36.8
6 -4 -3 4.7 8.6
6 -4 -3 3.4 12
6 4 -3 11.7 9.7
6 4 -3 13.2 9.8
5 -4 -3 32 16.7
5 -4 -3 45.1 12.4
-5 -4 3 16.1 8.9
5 4 -3 38.2 12.3
4 -4 -3 158.78 17.4
4 -4 -3 149.99 18.4
-4 -4 3 157.68 18.7
-4 -4 3 120.69 19.2
4 4 -3 145.79 18.7
4 4 -3 157.48 17.3
-3 -4 3 875.71 54.29
3 -4 -3 931.41 52.69
-3 -4 3 961.2 58.29
3 -4 -3 895.81 55.99
3 4 -3 987.4 54.09
-3 4 3 913.91 56.39
3 4 -3 1054.89 57.69
2 -4 -3 1102.19 55.29
2 -4 -3 1090.49 59.69
-2 -4 3 1118.69 62.39
-2 -4 3 1079.79 58.69
-2 4 3 1073.49 59.99
2 4 -3 1063.89 57.39
2 4 -3 1039.9 59.69
1 -4 -3 7298.07 346.17
-1 -4 3 7640.14 345.77
-1 -4 3 7363.86 349.07
-1 4 3 7463.55 346.67
1 4 -3 7157.68 347.37
0 4 -3 813.22 46.1
0 4 3 837.62 44
1 -4 3 6885.71 321.47
1 -4 3 6970.1 321.97
-1 4 -3 6458.95 321.77
1 4 3 6957.9 318.87
2 -4 3 999.3 59.39
2 -4 3 893.21 52.49
2 4 3 953.2 52.79
2 4 3 891.61 51.49
3 -4 3 1028.7 60.19
3 -4 3 1023.6 58.29
3 4 3 1059.39 60.19
3 4 3 975.2 57.39
-3 4 -3 940.51 60.19
-4 4 -3 44.4 19.4
4 4 3 18.8 9
-5 -4 -3 71.89 16.7
5 4 3 129.19 23
5 4 3 94.79 21.2
6 -4 3 47 17.5
6 4 3 31.3 14.1
6 4 3 31.7 13.3
7 4 3 68.59 19.7
7 -5 -3 -11.6 9
7 -5 -3 16.1 12.1
7 5 -3 2.5 9.4
7 5 -3 -4.1 8.7
6 -5 -3 550.74 43.3
6 -5 -3 474.45 43
6 5 -3 475.45 38.8
6 5 -3 473.15 41.2
-5 -5 3 81.39 16.4
5 -5 -3 81.79 21.5
5 -5 -3 57.49 14.7
5 5 -3 70.89 15.3
5 5 -3 88.39 19.2
4 -5 -3 436.26 32.2
-4 -5 3 542.25 39.5
4 -5 -3 469.55 35.9
-4 -5 3 478.05 34.3
-4 5 3 512.15 37.4
4 5 -3 373.86 30.9
4 5 -3 442.46 35.5
3 -5 -3 18.8 6
-3 -5 3 17.8 6.6
3 -5 -3 23.9 7.4
-3 -5 3 22.3 8.3
-3 5 3 15 5.9
3 5 -3 15.5 6.9
2 -5 -3 1436.76 82.89
-1 -5 3 616.54 38.3
-1 -5 3 609.34 34.3
1 -5 -3 598.24 35.2
-1 5 3 594.34 35.2
1 5 -3 607.34 37
0 -5 3 4387.26 209.18
0 5 -3 4546.04 213.88
0 5 3 4166.68 204.98
0 5 3 4302.97 200.78
1 -5 3 574.34 34.8
1 -5 3 534.25 34.3
-1 5 -3 555.14 35.8
1 5 3 584.64 32.2
2 -5 3 3534.55 168.48
2 -5 3 3094.29 176.88
2 5 3 3637.64 167.78
2 5 3 3363.26 165.48
3 -5 3 77.99 12.4
3 -5 3 104.19 18.1
-3 5 -3 90.49 16.4
3 5 3 78.39 12.1
3 5 3 96.29 16.8
4 -5 3 660.73 46.8
-4 -5 -3 569.34 42.6
4 5 3 701.03 47.8
-4 5 -3 648.14 47.6
4 5 3 761.02 45.4
5 -5 3 31.7 13.4
-5 -5 -3 38.3 12.4
5 5 3 41.1 12.1
6 -5 3 321.57 34.4
6 5 3 414.56 34.7
6 5 3 369.16 36.6
7 -5 3 -5.9 11.4
7 5 3 -1.7 10.6
7 5 3 32.1 15.7
7 -6 -3 208.58 28.6
7 -6 -3 244.88 30.6
7 6 -3 236.48 26.1
7 6 -3 200.18 28.9
6 -6 -3 18 11.9
6 -6 -3 25.9 11.9
6 6 -3 19.3 10.1
6 6 -3 9.8 8.1
5 -6 -3 327.47 29.2
-5 -6 3 373.06 32.3
5 6 -3 366.26 29.7
5 6 -3 339.67 32.6
-4 -6 3 190.18 19.2
4 -6 -3 210.48 22.1
-4 -6 3 222.68 25
4 -6 -3 197.18 19.1
-4 6 3 158.18 21.2
4 6 -3 198.28 18.8
4 6 -3 193.58 22.2
-3 -6 3 605.94 41
-3 -6 3 613.94 36.3
3 -6 -3 517.95 33.1
3 -6 -3 498.95 36.1
3 6 -3 435.06 42.1
3 6 -3 516.95 37.4
-3 6 3 569.84 38
-2 -6 3 914.51 50.69
2 -6 -3 901.41 46.2
-2 -6 3 996.3 57.69
2 -6 -3 963.2 57.59
2 6 -3 859.21 53.29
-2 6 3 926.01 53.29
-1 -6 3 1135.49 60.89
1 -6 -3 1298.47 62.99
-1 -6 3 1150.68 66.39
1 6 -3 1233.68 65.19
-1 6 3 1124.19 62.19
0 -6 3 157.58 15.5
0 6 3 175.88 13
0 6 3 175.68 10.2
0 6 -3 159.68 15.4
1 -6 3 825.72 49.8
1 -6 3 906.41 49.7
1 6 3 881.21 46.7
-1 6 -3 903.61 51.59
2 -6 3 780.92 47.4
2 -6 3 744.13 45.9
2 6 3 790.42 45.7
2 6 3 771.62 43.7
3 -6 3 525.15 35.5
3 -6 3 494.55 35.9
-3 6 -3 439.16 35
3 6 3 522.05 35.9
4 -6 3 270.77 25
4 -6 3 284.67 27.3
4 6 3 261.77 23.5
4 6 3 286.97 27.3
-4 6 -3 275.17 27.5
5 -6 3 520.75 41.9
-5 -6 -3 526.35 39.2
5 6 3 473.75 37.4
5 6 3 469.95 41.3
6 -6 3 59.59 20
6 6 3 35.6 15.2
6 6 3 34.9 14.1
7 -6 3 183.28 32.2
7 6 3 105.69 22.9
7 6 3 126.59 26
7 -7 -3 26.1 12.5
7 -7 -3 -0.9 13
7 7 -3 4.4 8.6
7 7 -3 4.2 12.2
6 -7 -3 280.57 34.1
6 -7 -3 347.37 33.3
6 7 -3 276.87 31.8
6 7 -3 306.27 28.1
5 -7 -3 57.49 14.3
-5 -7 3 71.69 16.5
5 -7 -3 80.79 18.4
5 7 -3 63.59 13.6
5 7 -3 83.59 19.4
4 -7 -3 944.91 61.69
4 -7 -3 935.61 57.79
-4 -7 3 1056.99 60.79
4 7 -3 1000.6 66.69
4 7 -3 1068.89 58.19
-4 7 3 1043.7 64.19
3 -7 -3 224.28 15.9
-3 -7 3 207.98 23.1
3 -7 -3 206.88 19.4
-3 -7 3 216.68 18.4
-3 7 3 178.38 19.9
3 7 -3 194.28 20.5
-2 -7 3 1234.38 66.29
2 -7 -3 1287.27 68.89
-2 -7 3 1257.27 74.29
2 -7 -3 1320.57 62.69
-2 7 3 1264.17 69.69
2 7 -3 1272.47 71.19
-1 -7 3 534.65 30.8
1 -7 -3 529.85 27.4
-1 -7 3 571.64 37.7
-1 7 3 529.45 32.5
1 7 -3 547.85 35.6
0 -7 -3 863.11 40
0 -7 3 696.83 45.1
0 -7 3 723.03 41.6
0 7 3 733.63 37.9
0 7 -3 829.12 46.3
0 7 3 696.43 40.1
1 -7 3 493.15 31.4
1 -7 3 492.15 32.6
-1 7 -3 517.75 34.2
1 7 3 482.85 28.6
1 7 3 492.15 28.9
2 -7 3 950.8 56.19
2 -7 3 965.8 55.99
2 7 3 978.4 56.39
2 7 3 979.8 52.39
3 -7 3 293.37 25.1
3 -7 3 230.38 24.9
-3 7 -3 300.97 25.6
3 7 3 264.87 22.1
3 7 3 293.37 25.2
4 -7 3 1098.49 67.89
4 -7 3 1125.49 69.79
-4 7 -3 1165.08 71.79
4 7 3 1076.19 68.99
4 7 3 1220.48 66.19
5 -7 3 21.8 10.8
5 7 3 15.9 11.4
5 7 3 14 8.1
6 -7 3 219.78 27
6 7 3 159.58 22.3
6 7 3 238.18 28.8
7 7 3 21.6 14.2
6 -8 -3 14.6 20.4
6 -8 -3 32.2 13.8
6 8 -3 31 13.4
6 8 -3 24.3 10.3
5 -8 -3 261.37 25.4
5 -8 -3 255.17 27
-5 -8 3 255.57 26.5
5 8 -3 255.97 27.9
5 8 -3 324.27 25.1
-4 -8 3 32.5 10.1
4 -8 -3 38.5 11.5
4 -8 -3 46.9 9.3
4 -8 -3 41.4 10.1
4 8 -3 25.6 10.4
-4 8 3 47.3 13.5
4 8 -3 45.7 9.6
-3 -8 3 865.21 51.29
3 -8 -3 935.71 48.5
-3 -8 3 916.51 60.39
3 -8 -3 907.11 54.29
3 8 -3 920.91 56.79
-3 8 3 890.41 55.49
-2 -8 3 272.77 19.7
2 -8 -3 282.17 17.2
2 -8 -3 301.47 22.5
-2 -8 3 340.27 32.6
2 8 -3 271.57 24
-2 8 3 298.07 23
-1 -8 3 755.62 50.59
-1 -8 3 790.52 42.9
1 -8 -3 862.91 41.2
-1 8 3 769.42 45
1 8 -3 876.51 49.8
0 -8 3 9.8 6.7
0 -8 -3 22.6 5.4
0 -8 3 30 6.6
0 8 3 27.5 4.7
0 8 -3 20.6 7.3
0 8 3 28.4 6
1 -8 3 597.44 38.1
-1 -8 -3 684.33 37
1 -8 3 565.64 35.7
1 8 3 555.94 32.2
1 8 3 554.24 31.5
-1 8 -3 626.54 39.8
1 8 3 572.24 33.4
2 -8 3 202.28 18.5
2 8 3 184.88 16.8
2 8 3 153.98 13.9
3 -8 3 719.53 46.5
3 -8 3 661.03 44.2
3 8 3 679.93 45.4
3 8 3 721.93 41.5
-3 8 -3 703.63 46.3
4 -8 3 59.99 15.2
-4 8 -3 45 13.6
4 8 3 60.69 15.6
4 8 3 71.39 13
5 -8 3 382.06 36.3
5 8 3 375.46 30.9
5 8 3 373.36 35.7
6 -8 3 40.6 16.6
6 8 3 17.8 12.5
6 8 3 51.49 16.2
6 -9 -3 90.29 20.4
6 -9 -3 90.69 31.4
6 9 -3 79.49 19.7
6 9 -3 77.99 15.3
5 -9 -3 146.99 20.4
5 -9 -3 100.99 15.8
5 -9 -3 140.49 19
5 9 -3 142.19 21.4
5 9 -3 119.19 15.7
-4 -9 3 548.95 37.8
4 -9 -3 547.55 37.9
4 -9 -3 610.74 42
4 -9 -3 615.64 36.1
4 9 -3 580.04 36
4 9 -3 613.44 43.7
-4 9 3 577.14 43.4
3 -9 -3 11.9 4.6
3 -9 -3 11.5 6
-3 9 3 20.2 7.7
3 9 -3 8.7 6.4
-2 -9 3 658.53 36.1
-2 -9 3 687.13 47.4
2 -9 -3 614.54 39
2 -9 -3 628.34 34.3
-2 9 3 675.53 40.7
2 9 -3 617.04 42.5
-1 -9 3 81.89 8.2
1 -9 -3 83.59 7.8
-1 -9 3 71.79 14
1 9 -3 88.89 13.2
-1 9 3 66.79 9.4
0 -9 3 585.14 41.2
0 -9 -3 701.43 36.4
0 -9 3 609.24 35.6
0 9 3 630.74 34
0 9 3 618.14 34.5
0 9 -3 690.33 42.1
1 -9 3 130.19 13
-1 -9 -3 124.19 13.7
1 -9 3 127.29 14.9
-1 9 -3 128.79 15.3
1 9 3 92.49 10.5
1 9 3 127.99 9.2
1 9 3 107.89 9.5
2 -9 3 495.55 33.7
2 9 3 505.95 28.7
2 9 3 490.45 32.5
3 -9 3 40.8 12.2
3 -9 3 35.3 10.6
3 9 3 32.4 9.7
3 9 3 38.3 8.7
4 -9 3 646.84 45.3
4 9 3 589.24 43.6
4 9 3 620.94 38.5
-4 9 -3 541.75 46.4
5 -9 3 25.7 11.9
5 9 3 28.6 9.2
5 9 3 29.1 14.3
6 -9 3 164.28 29.1
6 9 3 174.78 29.2
6 9 3 145.09 22
6 -10 -3 -12 8.7
6 -10 -3 5.6 9.4
6 10 -3 0.4 9.5
-5 -10 3 274.67 27.3
5 -10 -3 381.16 31.5
5 -10 -3 280.37 27.5
5 -10 -3 309.17 25.4
5 10 -3 319.37 25.1
5 10 -3 322.57 32.3
4 -10 -3 84.99 10.7
4 -10 -3 78.89 15.4
-4 -10 3 50.79 11.6
4 10 -3 80.59 16.9
-3 -10 3 794.32 45.2
3 -10 -3 831.82 50.09
3 10 -3 811.92 52.99
-3 10 3 812.92 51.09
2 -10 -3 285.07 22.9
-2 -10 3 311.17 19.1
-2 -10 3 345.77 35.7
2 -10 -3 300.57 19.2
-2 10 3 321.67 24.3
2 10 -3 279.37 25.6
1 -10 -3 1119.29 60.59
-1 -10 3 1234.18 59.09
-1 -10 3 1208.28 72.39
-1 10 3 1227.48 63.19
1 10 -3 1231.68 69.29
0 -10 3 389.06 23.3
0 -10 -3 390.06 25
0 -10 3 355.16 29.5
0 10 3 386.86 23.1
0 10 3 390.66 22.2
0 10 -3 365.06 29.2
-1 -10 -3 1000 57.99
1 -10 3 1058.99 56.49
1 -10 3 1036.2 61.19
-1 10 -3 1022.7 61.99
1 10 3 1076.29 55.49
-2 -10 -3 177.08 19.7
2 -10 3 168.28 17.4
3 -10 3 657.53 43.5
3 10 3 616.94 36.2
3 10 3 673.53 43.9
4 -10 3 75.49 17.1
4 10 3 63.39 11.3
4 10 3 73.79 17.1
5 -10 3 172.58 24.2
5 10 3 171.88 18.9
5 10 3 171.88 23.1
6 -10 3 -0.4 12.9
5 -11 -3 34.6 11.5
5 -11 -3 24.7 10.2
-5 -11 3 16.3 12.6
5 -11 -3 28.5 13.6
5 11 -3 24 18.3
4 -11 -3 289.27 25.4
-4 -11 3 235.58 20.4
4 -11 -3 236.18 19.2
4 11 -3 237.68 26.9
3 -11 -3 32 8.8
-3 -11 3 30.5 6.6
3 11 -3 25 9.5
-3 11 3 44.5 11.6
2 -11 -3 887.61 48.6
2 11 -3 928.61 60.59
-2 11 3 983.1 53.99
1 -11 -3 434.56 26.3
-1 -11 3 417.96 43.4
-1 11 3 406.76 26.5
1 11 -3 459.15 33.4
0 -11 3 731.13 51.29
0 -11 -3 827.02 45.6
0 11 -3 809.62 50.89
0 11 3 826.02 43.4
1 -11 3 520.55 36.7
-1 -11 -3 519.55 34.3
1 -11 3 467.95 30.9
-1 11 -3 511.25 37.3
1 11 3 518.95 33.3
-2 -11 -3 785.12 50.69
2 -11 3 782.02 47.4
2 11 3 818.22 47.1
3 -11 3 96.09 15.2
3 11 3 72.69 7.9
3 11 3 63.89 13.3
4 -11 3 373.46 38.4
4 11 3 355.86 29.1
4 11 3 386.46 33.2
5 -11 3 7.4 11.6
5 11 3 -6.8 6.1
5 11 3 16.5 9.4
5 -12 -3 74.29 15.4
5 -12 -3 84.59 17
5 12 -3 71.59 16.8
4 -12 -3 66.59 20.7
-4 -12 3 57.19 11
4 -12 -3 44.7 9.2
4 12 -3 30.6 12.4
3 -12 -3 252.57 19.5
2 -12 -3 260.77 18.4
2 12 -3 257.97 25.4
-2 12 3 277.47 21.6
1 -12 -3 565.94 34.6
-1 12 3 606.34 34
1 12 -3 652.43 43.4
0 -12 -3 180.58 29.5
0 12 -3 163.28 20.4
0 12 3 153.08 13.1
1 -12 3 453.55 28.1
-1 -12 -3 494.45 33.3
1 12 3 445.76 28.8
-1 12 -3 468.65 39.1
-2 -12 -3 291.87 27
2 -12 3 258.87 22.9
2 12 3 315.97 22.9
3 -12 3 806.52 53.29
3 12 3 941.71 54.79
4 -12 3 -19.4 9.1
4 12 3 4.6 3.9
4 12 3 7.1 8.5
5 -12 3 142.39 25.5
5 12 3 143.39 14.8
5 12 3 104.19 20.7
4 -13 -3 116.99 21.8
4 -13 -3 128.49 17.9
3 -13 -3 27.7 8.7
3 -13 -3 36.4 7.6
3 13 -3 31.6 10.5
-3 13 3 59.09 11.7
2 -13 -3 508.25 34.2
-2 13 3 471.05 31.6
2 13 -3 496.05 38.3
1 13 -3 54.89 13.3
0 -13 -3 260.67 21.7
0 13 -3 271.27 25.4
1 13 3 59.29 8.7
-1 13 -3 38.8 10.7
-2 -13 -3 627.74 43.8
2 -13 3 578.54 37
2 13 3 551.94 36.7
3 -13 3 100.69 17.6
3 13 3 113.79 18
4 -13 3 138.69 20.8
4 13 3 104.29 19.6
3 -14 -3 208.98 19.5
-3 14 3 176.08 20.9
3 14 -3 157.88 21.7
-2 14 3 121.79 16.9
2 14 -3 125.89 18.7
1 -14 -3 577.54 40.3
1 14 -3 602.74 42.5
0 -14 -3 89.69 13.7
0 14 -3 101.69 15.1
0 14 3 78.69 10.2
-1 -14 -3 541.45 37.3
1 14 3 506.35 32.2
-1 14 -3 524.45 39.8
-2 -14 -3 65.99 17
2 14 3 123.69 15.2
3 -14 3 180.18 20.5
3 14 3 168.18 19.8
2 15 -3 418.06 35.3
1 -15 -3 12.2 7.8
1 15 -3 27.7 9.9
0 -15 -3 256.77 24.4
0 15 -3 290.77 27.5
-1 -15 -3 31.3 12.6
-1 15 -3 37 9.6
1 15 3 15.6 6.5
2 -15 3 216.88 18.1
2 15 3 242.38 20.8
0 16 -3 8.1 6.6
7 0 -4 14.2 11.1
7 0 -4 -0.4 9.2
6 0 -4 299.07 31
6 0 -4 342.67 32.9
5 0 -4 -6.9 5.7
5 0 -4 -6.6 6.6
-4 0 4 4586.74 230.38
4 0 -4 4797.72 229.18
-4 0 4 4610.74 235.68
4 0 -4 4596.64 229.88
-3 0 4 -6.4 3.9
3 0 -4 -3 3.3
-3 0 4 0.2 4.3
3 0 -4 4.4 4.5
2 0 -4 2758.72 135.19
-2 0 4 2909.01 136.99
2 0 -4 2493.05 142.49
-2 0 4 2920.61 139.39
1 0 -4 -0.9 1.8
-1 0 4 -1 2
-1 0 4 0.9 2.4
0 0 4 382.06 23.2
0 0 -4 409.16 23.7
1 0 4 3.5 2.8
2 0 4 1627.44 89.69
3 0 4 1.4 5
-4 0 -4 2923.21 197.48
4 0 4 3792.12 175.78
5 0 4 8.9 7.9
6 0 4 298.97 35.5
6 0 4 302.97 32
7 0 4 7.4 11.3
7 -1 -4 126.09 25.5
7 -1 -4 110.39 21.8
7 1 -4 159.18 23
7 1 -4 157.88 24.4
6 -1 -4 -2.5 9.6
6 -1 -4 15.2 9.7
6 1 -4 11.4 10.9
6 1 -4 -0.1 9.1
5 -1 -4 1113.79 72.59
5 -1 -4 1024.2 66.09
5 1 -4 1187.68 69.29
5 1 -4 970.2 65.69
-4 -1 4 216.08 23
4 -1 -4 203.28 20.3
4 -1 -4 185.58 21
-4 -1 4 224.48 22.2
4 1 -4 191.48 20.8
4 1 -4 170.48 19.3
-3 -1 4 2021.2 100.99
3 -1 -4 1825.42 96.49
-3 -1 4 1982.5 99.99
3 -1 -4 1872.91 99.49
3 1 -4 1716.03 97.99
-3 1 4 1832.72 99.99
3 1 -4 1735.33 97.29
-3 1 4 2012.7 98.59
2 -1 -4 264.87 21.4
-2 -1 4 260.17 21.4
-2 -1 4 242.68 23.8
2 -1 -4 267.57 18.5
2 1 -4 263.47 19.7
-2 1 4 267.77 19.3
-2 1 4 280.67 21.8
1 -1 -4 1555.44 75.19
-1 -1 4 1504.95 80.39
-1 -1 4 1564.44 78.39
-1 1 4 1589.04 76.19
1 1 -4 1475.95 77.19
0 -1 4 156.78 12.3
0 -1 -4 149.69 11.1
0 1 -4 151.18 12.4
0 1 4 149.19 10.8
1 -1 4 1921.41 93.79
1 1 4 1826.02 92.09
2 -1 4 195.38 18.7
2 1 4 221.28 25.6
3 -1 4 1842.72 100.49
3 1 4 1877.71 99.99
-4 -1 -4 290.37 27.7
4 -1 4 276.57 27.5
4 1 4 316.37 28.1
5 1 4 750.32 52.49
6 -1 4 24.1 11.6
6 1 4 0 9.1
6 1 4 7.5 10.3
7 1 4 85.49 21.2
7 -2 -4 52.29 16.3
7 2 -4 53.79 16
7 2 -4 59.39 17.2
6 -2 -4 139.69 22.5
6 -2 -4 192.58 25
6 2 -4 180.48 24.2
6 2 -4 152.68 23.2
5 -2 -4 143.79 19.2
5 2 -4 143.89 19.5
5 2 -4 122.19 18.5
4 -2 -4 1169.48 65.39
-4 -2 4 1043.3 66.59
4 -2 -4 1152.38 67.69
-4 -2 4 1096.09 67.29
-4 2 4 921.61 66.69
4 2 -4 1104.69 66.39
4 2 -4 1297.77 68.29
-3 -2 4 126.19 15.7
3 -2 -4 133.19 13.7
3 -2 -4 129.79 15
-3 -2 4 111.59 14.9
3 2 -4 114.19 13.9
3 2 -4 111.19 13.7
-3 2 4 133.99 15.6
2 -2 -4 3491.35 164.18
-2 -2 4 3473.55 169.78
-2 -2 4 3538.95 169.78
2 -2 -4 3359.46 168.58
-2 2 4 3402.36 165.08
-2 2 4 3434.96 169.78
2 2 -4 3304.17 168.48
2 2 -4 3540.95 172.98
-1 -2 4 1565.34 77.29
1 -2 -4 1473.65 71.29
-1 -2 4 1456.35 76.99
-1 2 4 1458.35 71.99
1 2 -4 1456.35 75.69
0 -2 4 2037.3 102.99
0 2 4 2078.79 98.99
0 2 -4 2133.79 103.49
1 -2 4 1466.35 79.29
2 -2 4 2587.34 131.99
2 -2 4 2589.44 134.29
2 2 4 2779.82 141.39
3 -2 4 109.69 14.7
3 2 4 91.09 13.3
-4 -2 -4 682.53 46.7
4 2 4 655.83 45.3
-4 2 -4 649.54 47.4
5 -2 4 220.88 28.2
5 2 4 192.08 23.3
5 2 4 226.18 39.6
6 -2 4 174.38 26.5
6 2 4 179.68 24.7
6 2 4 210.88 28.8
7 -2 4 4.8 12.6
7 -2 4 -19.4 21
7 2 4 -9.6 10.1
7 -3 -4 63.99 18.3
7 -3 -4 55.69 21.5
7 3 -4 55.39 16.2
7 3 -4 56.29 16.3
6 -3 -4 68.09 17.5
6 3 -4 44 14.5
6 3 -4 66.49 16.9
5 -3 -4 390.86 35
5 -3 -4 318.87 29.5
5 3 -4 363.86 31.5
5 3 -4 384.16 34.2
-4 -3 4 236.18 36.2
-4 -3 4 164.08 19.2
4 -3 -4 144.99 16.7
4 -3 -4 174.28 19.9
4 3 -4 146.79 17.5
4 3 -4 110.99 17.2
-4 3 4 181.28 20.3
3 -3 -4 875.81 52.39
3 -3 -4 847.92 55.59
-3 -3 4 962.6 56.69
-3 -3 4 1057.09 59.29
-3 3 4 981.9 57.79
3 3 -4 1054.69 56.19
3 3 -4 886.91 55.29
2 -3 -4 481.65 26.2
-2 -3 4 456.65 31.8
-2 -3 4 470.35 31
2 -3 -4 468.55 30.7
-2 3 4 488.95 31.8
2 3 -4 440.36 30
2 3 -4 358.86 29.2
-1 -3 4 3182.98 164.78
1 -3 -4 3422.46 156.98
-1 -3 4 3274.97 164.08
-1 3 4 3714.43 170.68
1 3 -4 3524.85 164.28
-1 3 4 3194.18 157.48
0 -3 4 158.88 13.9
0 3 -4 168.98 14.6
0 3 4 168.68 10
1 -3 4 3666.03 183.78
-1 3 -4 3968.4 186.48
2 -3 4 489.95 34.5
2 -3 4 511.25 33.3
2 3 4 508.45 33.9
3 -3 4 1088.39 66.09
3 3 4 1146.99 65.09
4 -3 4 223.48 24.5
4 3 4 224.48 23.1
4 3 4 233.28 26.2
-4 3 -4 261.97 26.1
5 -3 4 339.27 33.4
5 3 4 411.56 33.4
6 -3 4 41.9 15.5
6 3 4 58.59 17.4
6 3 4 43.6 15.5
7 -3 4 164.38 31.5
7 3 4 141.89 37.1
7 3 4 177.38 25.7
7 -4 -4 6.1 10.4
7 -4 -4 5.1 11.4
7 4 -4 -12.4 10.7
7 4 -4 -6.2 8
6 -4 -4 192.78 24.8
6 -4 -4 214.78 27.4
6 4 -4 212.78 24.8
6 4 -4 204.68 26.5
-5 -4 4 71.29 17.1
5 -4 -4 75.29 16.4
5 -4 -4 62.09 14.7
5 4 -4 104.99 16.9
5 4 -4 86.79 18.2
-4 -4 4 89.29 17.3
4 -4 -4 64.29 13.3
4 -4 -4 97.09 18
4 4 -4 66.99 14.3
-4 4 4 121.69 16.7
4 4 -4 71.89 15.9
3 -4 -4 121.19 12.6
-3 -4 4 102.09 15.6
3 -4 -4 158.28 17
-3 -4 4 138.69 15.7
-3 4 4 120.59 15.6
3 4 -4 137.09 16.1
3 4 -4 153.08 15.3
2 -4 -4 1921.21 87.09
-2 -4 4 1672.33 95.29
-2 -4 4 1710.73 92.89
2 -4 -4 1890.21 94.29
2 4 -4 1812.82 93.69
-2 4 4 1757.52 94.39
-1 -4 4 319.87 22.1
-1 -4 4 293.47 23.1
-1 4 4 298.57 21.8
1 4 -4 296.87 22.3
0 -4 4 6435.86 303.37
0 4 4 6514.65 301.57
0 4 -4 6243.28 309.07
1 -4 4 383.36 27.5
1 -4 4 423.46 27.2
-1 4 -4 353.76 26.7
1 4 4 393.96 24.6
2 -4 4 1249.97 68.89
2 -4 4 1226.08 70.19
2 4 4 1239.58 68.39
2 4 4 1299.87 68.89
3 -4 4 95.39 14.8
3 -4 4 122.79 14.8
3 4 4 116.09 15
3 4 4 140.29 16.8
4 -4 4 130.19 23
4 4 4 118.69 18.8
-4 4 -4 119.59 17.3
4 4 4 120.79 16.4
5 -4 4 149.19 26.6
5 4 4 204.48 44.7
5 4 4 148.59 21
6 -4 4 166.78 25.3
6 4 4 188.38 25.6
6 4 4 203.98 27.9
7 -4 4 20.6 11.2
7 4 4 6.5 12.8
7 4 4 -1.2 12
7 -5 -4 164.68 25.1
7 -5 -4 199.08 27.5
7 5 -4 197.58 24.9
7 5 -4 196.08 26.9
6 -5 -4 4.4 9.4
6 -5 -4 26.6 11.4
6 5 -4 15.3 10.7
6 5 -4 8.5 7.9
-5 -5 4 349.47 30.9
5 -5 -4 323.67 31.4
5 -5 -4 282.27 27.1
5 5 -4 322.07 30.7
5 5 -4 330.67 28.7
4 -5 -4 82.19 16.1
-4 -5 4 90.49 14.7
4 -5 -4 110.09 13.9
-4 -5 4 118.59 22.4
-4 5 4 101.19 16.6
4 5 -4 107.79 16.5
4 5 -4 106.89 15
-3 -5 4 532.05 38.3
3 -5 -4 640.34 40.9
-3 -5 4 553.04 41.9
3 -5 -4 558.24 34.7
3 5 -4 658.83 41.5
3 5 -4 654.83 38.4
-3 5 4 576.94 40.2
-2 -5 4 648.64 40.1
-2 -5 4 663.23 43.7
2 -5 -4 677.63 41.2
2 -5 -4 669.03 33.9
-2 5 4 645.24 41.2
2 5 -4 652.83 41.4
-1 -5 4 3480.15 162.68
-1 -5 4 3278.27 158.18
-1 5 4 3240.28 158.68
1 5 -4 3006.4 159.38
0 -5 4 76.69 10.1
0 5 -4 66.99 10.1
0 5 4 75.79 8.7
1 -5 4 4248.48 205.58
1 -5 4 4093.19 205.48
1 5 4 4307.97 201.08
-1 5 -4 4307.27 207.08
2 -5 4 499.65 35
2 5 4 502.75 33
2 5 4 513.65 33.2
3 -5 4 724.93 46.2
3 -5 4 711.33 47.1
3 5 4 684.63 44.6
3 5 4 745.53 46.9
4 -5 4 111.79 15.4
4 -5 4 85.79 17.2
4 5 4 86.69 17
4 5 4 72.59 16.3
-4 5 -4 109.89 17.7
5 -5 4 281.37 29.9
5 5 4 307.87 28.5
5 5 4 288.27 31
6 -5 4 20.3 10.7
6 5 4 18.7 12.5
6 5 4 23.6 12.9
7 -5 4 114.29 25.4
7 5 4 120.19 25.4
7 5 4 135.59 29.9
7 -6 -4 13.6 13.1
7 -6 -4 13 11
7 6 -4 17.9 11.6
7 6 -4 16.1 13.3
6 -6 -4 243.08 27.8
6 -6 -4 241.68 26.4
6 6 -4 230.88 25.1
6 6 -4 255.57 29.1
5 -6 -4 147.19 20.8
5 -6 -4 122.79 18.1
-5 -6 4 150.58 26
5 6 -4 156.68 20.8
5 6 -4 116.49 17.1
4 -6 -4 710.73 42.4
-4 -6 4 595.04 43.5
4 -6 -4 655.33 45.8
4 6 -4 702.63 43.3
-4 6 4 644.94 46.8
4 6 -4 673.43 46.5
3 -6 -4 39.7 9.8
3 -6 -4 56.39 8.4
-3 -6 4 26.9 11
-3 -6 4 18.1 7.5
3 6 -4 37.7 9.7
-3 6 4 31.5 9.5
-1 -6 4 670.23 43.5
-1 -6 4 689.33 39.3
1 6 -4 658.43 41.8
-1 6 4 687.13 40.3
0 -6 4 1296.67 70.09
0 6 4 1285.27 66.29
0 6 -4 1237.28 69.69
1 -6 4 753.42 45.6
1 -6 4 737.43 44.9
-1 6 -4 715.73 46
1 6 4 776.22 40.8
2 -6 4 1982 106.19
2 -6 4 2033 105.39
2 6 4 1984.6 103.09
2 6 4 2076.89 103.69
3 -6 4 131.19 16.8
3 -6 4 117.49 16.9
3 6 4 117.49 16
3 6 4 98.29 13.5
4 -6 4 627.24 44.2
4 6 4 556.04 39.5
4 6 4 546.15 42.2
-4 6 -4 546.95 43.4
5 -6 4 14.3 10.2
5 6 4 24.9 10.6
5 6 4 30 9.6
6 -6 4 235.28 30.6
6 6 4 283.87 32
6 6 4 249.38 28.9
7 -6 4 22.3 13.6
7 6 4 22.1 13.8
7 6 4 14.3 12.5
6 -7 -4 81.49 17.4
6 -7 -4 93.19 17.9
6 7 -4 68.49 16.4
6 7 -4 57.39 16
-5 -7 4 427.36 38.5
5 -7 -4 471.45 36.2
5 -7 -4 602.84 43
5 7 -4 533.35 42.2
5 7 -4 596.54 38.8
4 -7 -4 85.69 17.2
-4 -7 4 75.49 16.4
4 -7 -4 82.39 18.1
-4 7 4 77.99 16.4
4 7 -4 72.99 12.1
4 7 -4 98.79 19.2
3 -7 -4 829.92 42.3
-3 -7 4 769.62 54.09
3 -7 -4 806.42 50.09
-3 -7 4 777.52 48
3 -7 -4 829.72 44.1
-3 7 4 734.73 49.99
3 7 -4 823.72 51.49
2 -7 -4 93.69 12.6
-2 -7 4 124.39 12.9
-2 -7 4 108.89 19.8
2 7 -4 92.59 14.3
-2 7 4 106.49 13.4
-1 -7 4 1424.66 74.29
-1 -7 4 1421.36 80.49
1 7 -4 1477.85 78.89
-1 7 4 1433.86 75.89
0 -7 4 75.99 13.4
0 7 4 72.59 8.8
0 7 -4 74.99 11.3
1 -7 4 1755.02 96.59
1 -7 4 1836.72 97.69
1 7 4 1885.91 91.09
-1 7 -4 1897.21 98.99
2 -7 4 45.8 9.8
2 -7 4 83.09 13.4
2 7 4 83.79 11.3
2 7 4 69.69 9.9
3 -7 4 887.61 56.29
3 -7 4 861.11 54.89
3 7 4 923.71 52.49
3 7 4 891.61 54.59
4 -7 4 12.4 9.8
-4 7 -4 4.3 9.4
4 7 4 -0.3 9.2
4 7 4 12.1 7.1
5 -7 4 709.23 53.19
5 7 4 681.43 52.29
5 7 4 770.32 50.29
6 -7 4 37.6 14.1
6 7 4 19.8 13
6 7 4 1.6 9.9
6 -8 -4 210.18 24.3
6 -8 -4 167.58 23.6
6 8 -4 110.89 33.1
6 8 -4 206.58 22.7
-5 -8 4 45.7 16.1
5 -8 -4 63.29 14.1
5 -8 -4 56.19 15.3
5 8 -4 73.99 14.7
5 8 -4 95.69 20.3
-4 -8 4 1169.78 69.69
4 -8 -4 1210.68 63.59
4 -8 -4 1216.78 72.29
4 8 -4 1256.07 74.19
3 -8 -4 25.1 4.9
3 -8 -4 22.5 8
-3 -8 4 26 8.8
3 -8 -4 23.2 5.9
-3 8 4 21.9 8.8
3 8 -4 19.3 8.6
2 -8 -4 785.62 47.2
-2 -8 4 831.22 53.69
-2 -8 4 715.33 52.89
2 8 -4 801.52 49.99
-2 8 4 796.72 48
-1 -8 4 582.44 34.3
-1 -8 4 674.33 45.8
1 8 -4 529.05 38.2
-1 8 4 559.14 35.4
0 -8 4 783.42 48.2
0 -8 4 809.82 44.4
0 8 -4 695.83 46.5
0 8 4 742.53 42.1
1 -8 4 369.76 28.3
-1 8 -4 343.97 29
1 8 4 392.26 24
1 8 4 397.06 23.3
2 -8 4 652.93 42.9
2 -8 4 662.83 42.6
2 8 4 685.13 50.39
2 8 4 616.24 38.1
3 -8 4 33 11.7
3 -8 4 17.4 8.2
3 8 4 28.5 8.4
3 8 4 27.8 8.7
4 -8 4 857.91 56.89
4 8 4 922.21 52.29
4 8 4 734.03 53.99
5 -8 4 16.4 11.6
5 8 4 19.7 11.6
5 8 4 12.5 9.7
6 -8 4 155.68 30.3
6 8 4 184.68 23.4
6 8 4 140.09 25.9
6 -9 -4 76.59 16.2
6 -9 -4 77.09 18.5
6 -9 -4 108.19 22.2
6 9 -4 103.69 18.8
6 9 -4 54.19 15.5
-5 -9 4 308.67 31
5 -9 -4 381.26 33.3
5 -9 -4 300.37 24.9
5 -9 -4 420.46 29.4
5 9 -4 328.07 33.2
5 9 -4 302.07 26.7
-4 -9 4 -1.8 7.2
4 -9 -4 9.2 5.5
4 -9 -4 16.9 8.1
4 9 -4 22.3 9.4
3 -9 -4 562.94 38.3
3 -9 -4 593.24 32
3 -9 -4 560.54 30.2
-3 -9 4 524.85 35.3
3 9 -4 563.84 40.5
-3 9 4 496.75 39
-2 -9 4 123.89 22.3
-2 -9 4 160.48 15.8
2 -9 -4 135.49 14.6
2 9 -4 129.39 16.7
-2 9 4 139.49 15.8
-1 -9 4 751.22 40.7
-1 -9 4 781.62 49.7
1 9 -4 626.64 45.1
-1 9 4 727.93 42.4
0 -9 4 16.6 7.6
0 -9 4 37.4 8.8
0 9 -4 27.3 9
0 9 4 32.9 6.8
0 9 4 23.6 3.6
1 -9 4 962.8 57.89
-1 9 -4 914.91 58.39
1 9 4 1000.1 50.49
1 9 4 948.71 51.39
1 9 4 959.4 50.09
2 -9 4 69.19 13.1
2 9 4 102.89 11.5
2 9 4 90.69 11.6
3 -9 4 469.85 34.8
3 9 4 446.96 32.4
3 9 4 361.16 33
4 -9 4 16.1 12.8
4 9 4 45.3 12.2
4 9 4 38.2 10.5
5 -9 4 236.18 28.4
5 9 4 220.38 23.2
5 9 4 197.68 26.6
6 -9 4 28.7 19
6 9 4 27.3 12.5
6 9 4 10.4 13.1
5 -10 -4 14.9 9.4
-5 -10 4 -3.9 10.8
5 -10 -4 26.6 9.3
5 -10 -4 18.1 8.8
5 10 -4 -4.9 8.8
4 -10 -4 341.47 29.5
-4 -10 4 312.17 26.9
4 -10 -4 374.46 24.6
4 -10 -4 393.36 43.3
4 10 -4 339.57 31.4
3 -10 -4 23.4 5.5
-3 -10 4 19.2 7.7
3 -10 -4 10.8 4.3
3 -10 -4 24.6 9
3 10 -4 27.5 10.2
-2 -10 4 728.03 41.9
-2 10 4 797.22 46.5
2 10 -4 691.33 64.69
-1 -10 4 80.09 24.1
-1 -10 4 117.29 11.9
-1 -10 4 129.29 12
1 10 -4 99.69 15.5
-1 10 4 95.79 11.7
0 -10 4 546.55 34.2
0 -10 4 576.34 40.9
0 10 -4 566.34 39.6
0 10 4 557.74 32.5
0 10 4 589.24 29.8
1 -10 4 182.58 18.8
-1 10 -4 140.49 17.7
1 10 4 171.88 13.5
1 10 4 159.88 12.4
1 10 4 158.88 13.1
2 -10 4 721.53 46.6
2 10 4 757.02 41
2 10 4 727.83 43.4
3 -10 4 15.6 9.3
3 10 4 22.6 8.1
3 10 4 5.5 5.9
4 -10 4 215.78 29.1
4 10 4 224.88 24.9
4 10 4 253.27 21.2
5 -10 4 -7.1 9.5
5 10 4 7.7 10.3
5 10 4 22.4 9.2
5 -11 -4 133.49 17.6
5 -11 -4 139.19 17.8
5 -11 -4 115.79 20.7
5 11 -4 96.69 18.8
4 -11 -4 49.7 10.3
-4 -11 4 23.4 9.5
4 -11 -4 52.09 13.6
4 11 -4 43.4 12.7
3 -11 -4 477.65 35.2
3 -11 -4 479.85 26.6
3 -11 -4 459.55 27.7
3 11 -4 531.55 39.3
-3 11 4 563.24 38.9
-2 -11 4 182.88 16.1
2 11 -4 237.48 23.6
-2 11 4 247.08 21.5
-1 -11 4 190.58 15.2
-1 -11 4 219.88 15.4
1 11 -4 195.48 22
-1 11 4 197.98 17.1
0 -11 4 271.17 19.8
0 -11 4 266.17 18.7
0 11 -4 340.47 30.7
0 11 4 260.27 18.2
1 -11 4 124.49 25.4
1 11 4 124.19 10.7
1 11 4 118.89 9.9
1 11 4 106.89 9.3
2 -11 4 275.77 25.3
2 11 4 330.17 19.9
2 11 4 355.16 23.6
2 11 4 298.77 18.8
3 -11 4 472.05 36.3
3 11 4 447.36 28.2
3 11 4 484.15 34.4
4 -11 4 26.7 11
4 11 4 19 10.2
4 11 4 24.1 6.9
5 -11 4 74.79 18.5
5 11 4 77.39 17.2
5 11 4 99.49 15.5
4 -12 -4 160.18 20.9
-4 -12 4 154.48 17.6
4 -12 -4 136.89 15.4
4 12 -4 158.78 22.9
-3 -12 4 32.3 7.3
3 -12 -4 49.8 12.4
3 12 -4 31.1 11.2
-3 12 4 40.8 12.7
-2 12 4 481.65 33.4
2 12 -4 503.95 38.4
1 12 -4 203.98 22.2
0 -12 4 382.16 24
0 -12 4 408.46 23.3
0 12 -4 359.96 31.7
1 -12 4 243.58 21.9
-1 12 -4 267.37 26.5
1 12 4 284.97 19.8
2 -12 4 287.67 24.7
2 12 4 289.17 21.8
3 -12 4 8.2 9.4
3 12 4 6.9 7.3
4 -12 4 65.09 15.9
4 12 4 89.39 17.4
4 -13 -4 30.5 12.1
4 -13 -4 29.6 8.5
4 13 -4 29.2 10.8
3 13 -4 195.98 23.1
-3 13 4 150.18 20.5
-2 13 4 100.69 15.1
2 13 -4 120.69 20.7
-1 13 4 395.86 25.3
1 13 -4 421.26 33.9
0 13 -4 53.99 12.9
1 -13 4 374.76 26
-1 13 -4 408.56 34.2
1 13 4 427.66 31.5
2 -13 4 29.9 9.2
3 -13 4 282.77 26.7
3 13 4 258.47 24.2
4 -13 4 18.6 12.2
4 13 4 21 10.7
3 14 -4 97.59 21.4
-2 14 4 385.86 27.9
2 14 -4 445.06 36
1 14 -4 11.9 7.2
0 14 -4 292.37 27.7
-1 14 -4 18.7 8.2
1 14 4 10.2 4.8
2 -14 4 580.74 37.2
2 14 4 567.04 35.8
3 -14 4 60.69 14.9
3 14 4 54.89 12.5
2 15 -4 -4.9 8.8
1 15 -4 299.97 28.6
0 15 -4 7.9 7.6
1 15 4 378.66 24.8
-1 15 -4 389.26 33.8
2 -15 4 26.2 12.2
2 15 4 26.9 8.6
7 0 -5 414.16 38.3
7 0 -5 433.76 55.99
6 0 -5 7.9 8.1
6 0 -5 9.6 9.5
5 0 -5 2049.4 116.09
5 0 -5 2261.77 120.19
4 0 -5 1.2 5.1
4 0 -5 4.5 5.3
-4 0 5 11.8 7
-4 0 5 -11.7 5.9
3 0 -5 1316.07 72.49
-3 0 5 1349.56 77.29
3 0 -5 1299.97 75.19
-3 0 5 1420.66 75.09
2 0 -5 -2 2.7
-2 0 5 10.3 5.3
2 0 -5 0.4 3.5
-1 0 5 2392.86 120.89
1 0 -5 2336.77 116.59
-1 0 5 2442.16 117.49
0 0 -5 0.2 2.3
0 0 5 2 2.2
1 0 5 2158.28 110.89
2 0 5 -3.1 4.4
3 0 5 1279.27 74.19
4 0 5 2.2 6.6
5 0 5 1986.8 112.49
6 0 5 28 11
7 0 5 201.88 31.2
7 0 5 185.88 27.5
7 -1 -5 2.3 10.6
7 -1 -5 3.4 8.5
7 1 -5 -3.5 9.1
6 -1 -5 258.77 27.6
6 -1 -5 302.47 30.7
6 1 -5 201.98 26.8
6 1 -5 300.77 30.8
5 -1 -5 389.36 35.1
5 -1 -5 399.56 33.3
-5 -1 5 387.36 36.7
5 1 -5 423.06 36.5
5 1 -5 401.06 34.3
4 -1 -5 752.02 44.6
-4 -1 5 592.34 44.6
-4 -1 5 672.73 47
4 -1 -5 620.94 45.9
-4 1 5 642.34 44.9
4 1 -5 651.33 45.5
-4 1 5 748.73 48.8
4 1 -5 679.73 44.8
-3 1 5 104.69 14.7
-2 -1 5 2632.64 129.79
2 -1 -5 2441.06 124.89
-2 -1 5 2836.32 132.19
2 -1 -5 2547.55 130.29
-2 1 5 2776.42 132.39
-2 1 5 2670.83 127.39
2 1 -5 2150.58 127.29
-1 -1 5 572.54 36.6
-1 -1 5 607.44 35.8
1 -1 -5 584.64 32.3
1 1 -5 562.54 34
-1 1 5 576.34 36.7
-1 1 5 578.14 32.7
0 -1 -5 449.56 26.4
0 -1 5 447.36 27.6
0 1 -5 460.55 28.3
0 1 5 432.46 25.8
1 -1 5 398.76 26.2
1 1 5 392.56 24.8
2 -1 5 3368.96 164.88
2 -1 5 3404.46 168.68
2 1 5 3289.97 167.68
3 -1 5 143.79 18.8
3 1 5 186.48 19.6
4 -1 5 904.51 58.49
4 1 5 899.61 58.39
5 -1 5 262.57 29
5 1 5 292.07 30
6 -1 5 149.09 24
6 1 5 97.79 25.1
6 1 5 142.59 26.7
7 -1 5 -2.5 9.5
7 -1 5 6.8 11.2
7 1 5 9.6 13.1
7 1 5 15.8 14.1
7 -2 -5 78.09 20.2
7 -2 -5 171.68 30
7 2 -5 103.29 37.7
7 2 -5 100.89 22.2
6 -2 -5 62.79 15.8
6 -2 -5 86.59 19.6
6 2 -5 73.79 18.3
6 2 -5 98.39 20.9
5 -2 -5 176.98 22.1
5 -2 -5 247.98 26.4
5 2 -5 225.98 24.9
5 2 -5 223.78 47.3
4 -2 -5 14.8 6
-4 -2 5 29.5 10.3
4 -2 -5 20.1 8.2
4 2 -5 17.9 7.7
4 2 -5 19.4 8.7
-4 2 5 18.7 8.4
-3 -2 5 1532.15 86.39
3 -2 -5 1535.05 86.29
3 -2 -5 1528.35 81.39
-3 -2 5 1562.64 87.69
3 2 -5 1671.33 86.49
3 2 -5 1589.04 84.79
-3 2 5 1611.54 83.89
-3 2 5 1548.15 87.59
-2 -2 5 69.69 13.1
2 -2 -5 65.99 10.2
2 -2 -5 70.19 7.8
-2 -2 5 81.19 14.3
-2 2 5 64.79 12.6
-2 2 5 74.99 9.3
2 2 -5 59.59 9.5
1 -2 -5 2500.55 119.89
-1 -2 5 2515.05 126.49
-1 -2 5 2450.35 125.29
1 2 -5 2557.74 124.69
-1 2 5 2577.64 126.79
-1 2 5 2500.35 120.59
0 -2 5 93.59 10.4
0 2 -5 90.49 10.7
0 2 5 88.79 7.9
1 -2 5 1999.3 102.79
1 2 5 2076.39 100.39
2 -2 5 38.9 9.2
2 -2 5 57.99 8.7
2 2 5 41.5 9.3
3 -2 5 1280.37 75.39
3 -2 5 1306.67 72.39
3 2 5 1305.27 74.49
4 -2 5 95.59 15.8
4 2 5 100.09 16.3
5 -2 5 143.69 24
5 2 5 168.88 24.8
5 2 5 184.98 26
6 -2 5 157.08 23.7
6 2 5 128.39 25.7
6 2 5 180.38 24
7 -2 5 62.49 21.1
7 2 5 91.59 21.3
7 2 5 92.79 27
7 -3 -5 20.9 13.9
7 -3 -5 57.99 15.7
7 3 -5 78.79 24.4
6 -3 -5 242.48 28
6 3 -5 266.07 28.5
6 3 -5 286.67 30.1
5 -3 -5 231.08 26
5 -3 -5 247.68 24.6
5 3 -5 214.08 25.2
-4 -3 5 170.78 20
-3 -3 5 -5.7 5.5
3 -3 -5 12.9 5.8
-3 -3 5 2.5 6
3 -3 -5 12 4.4
3 3 -5 16.9 5.8
-3 3 5 7.4 4.9
3 3 -5 8.7 5.2
2 -3 -5 694.23 41.6
2 -3 -5 702.53 34.6
-2 -3 5 607.94 40.9
-2 -3 5 595.74 40.1
-2 3 5 594.14 40.7
-2 3 5 596.14 35.3
2 3 -5 679.43 40.1
1 -3 -5 52.79 5.3
-1 -3 5 74.69 10
-1 -3 5 62.49 11.4
-1 3 5 69.89 9.8
1 3 -5 61.79 9.1
-1 3 5 49.1 5.9
0 -3 5 2451.25 123.89
0 3 -5 2414.36 124.39
0 3 5 2593.34 117.99
1 -3 5 55.29 8.8
-1 3 -5 69.89 10
2 -3 5 572.94 37.8
2 -3 5 584.84 40.1
2 3 5 613.74 39.3
3 -3 5 42.2 10.6
3 -3 5 30.8 11.1
3 3 5 52.19 12.3
4 -3 5 357.66 31.9
4 3 5 332.07 29.6
4 3 5 313.47 31.9
5 -3 5 228.98 28.1
5 3 5 227.68 28.2
5 3 5 330.77 39.2
6 -3 5 235.18 29.4
6 3 5 235.28 28.2
6 3 5 218.88 30
7 -3 5 5.6 10
7 -4 -5 110.19 22.1
7 -4 -5 95.89 21.1
7 4 -5 102.19 21.3
7 4 -5 66.49 18.3
6 -4 -5 30 11.3
6 -4 -5 9 9.9
6 4 -5 14.2 9.3
6 4 -5 14.2 9.3
5 -4 -5 636.64 43.2
5 -4 -5 595.44 46.4
5 4 -5 741.13 54.09
5 4 -5 536.75 44.6
4 -4 -5 103.19 16
4 -4 -5 85.59 14.5
-4 -4 5 106.89 17.2
-4 -4 5 71.79 17
4 4 -5 105.69 18.6
4 4 -5 102.59 18.5
-4 4 5 109.49 20.6
3 -4 -5 512.05 36.1
-3 -4 5 538.95 38.3
-3 -4 5 492.55 35.7
3 -4 -5 475.85 29.6
3 4 -5 481.35 34.9
3 4 -5 508.65 34.3
-3 4 5 453.25 35.6
2 -4 -5 102.29 8
-2 -4 5 92.99 12.8
2 -4 -5 98.19 12.5
-2 -4 5 113.89 14.2
2 4 -5 104.09 12.9
-2 4 5 88.09 12.9
-1 -4 5 981.6 55.09
-1 -4 5 934.31 55.89
-1 4 5 904.31 54.49
1 4 -5 1074.79 56.29
0 -4 5 239.68 19.7
0 4 5 230.48 13.3
0 4 -5 249.08 20.1
1 -4 5 668.03 42.7
-1 4 -5 757.42 44.6
2 -4 5 115.09 13.6
2 -4 5 116.79 15.3
2 4 5 111.79 13.8
3 -4 5 511.85 37.7
3 4 5 433.56 34
3 4 5 515.75 37.2
4 -4 5 66.89 16.1
4 4 5 66.49 16.6
4 4 5 51.69 12.9
5 -4 5 606.54 46.8
5 4 5 571.84 47.3
6 -4 5 -1.6 10.6
6 4 5 4.1 10.1
6 4 5 1.8 9.7
7 -4 5 93.49 25.1
7 4 5 115.49 27.2
7 -5 -5 11.8 10.6
7 -5 -5 9.4 12.4
7 5 -5 16.2 11.7
7 5 -5 2.4 10.8
6 -5 -5 356.96 32.2
6 -5 -5 415.76 36.4
6 5 -5 292.47 30.1
6 5 -5 321.37 32.6
5 -5 -5 135.89 20.5
5 -5 -5 110.69 18.6
5 5 -5 87.39 18.3
5 5 -5 120.89 18.6
4 -5 -5 472.15 33.4
4 -5 -5 543.35 39.9
4 5 -5 516.45 38.8
4 5 -5 528.65 37
3 -5 -5 45.6 7.1
3 -5 -5 49.7 11.9
-3 -5 5 56.49 13
-3 -5 5 32.3 10.8
-3 5 5 27.5 10.6
3 5 -5 41.9 11
2 -5 -5 1271.77 68.19
-2 -5 5 1162.88 66.79
-2 -5 5 1118.59 69.59
-2 5 5 1147.99 67.89
2 5 -5 1308.57 68.79
-1 -5 5 936.91 53.19
-1 -5 5 928.41 55.49
1 5 -5 953 54.69
-1 5 5 903.61 52.99
0 -5 5 2535.65 129.29
0 5 5 2502.65 126.79
0 5 -5 2621.74 129.59
1 -5 5 903.21 54.59
1 -5 5 943.31 54.19
-1 5 -5 938.61 55.29
1 5 5 910.71 49.1
2 -5 5 854.41 52.49
2 5 5 844.92 48.9
2 5 5 783.22 49.2
3 -5 5 7.1 5.4
3 -5 5 18.5 8.9
3 5 5 10.3 6.1
3 5 5 3.1 6.8
4 -5 5 666.13 49.8
4 5 5 751.62 51.09
4 5 5 718.13 48.1
5 -5 5 115.89 24.1
5 5 5 152.48 23.7
5 5 5 101.69 32.3
6 -5 5 237.08 29.9
6 5 5 241.28 32.1
6 5 5 257.47 28.7
6 -6 -5 -10.7 8.7
6 -6 -5 13.2 8.5
6 6 -5 -0.1 8.4
6 6 -5 17.4 10.7
5 -6 -5 277.27 29
5 -6 -5 265.97 24.2
5 6 -5 236.38 26.8
5 6 -5 267.27 27.6
4 -6 -5 75.69 13.3
4 -6 -5 96.19 18.7
4 6 -5 74.99 16.6
4 6 -5 70.19 14.9
3 -6 -5 697.43 45
3 -6 -5 648.44 36
-3 -6 5 666.03 43.8
-3 -6 5 651.53 48
-3 6 5 753.12 55.69
3 6 -5 613.44 43.9
-2 -6 5 481.55 40.7
-2 -6 5 457.25 32
2 -6 -5 451.85 32.2
2 6 -5 435.46 32.6
-2 6 5 441.76 32.5
-1 -6 5 1588.64 79.99
-1 -6 5 1420.96 82.49
1 6 -5 1458.05 81.39
-1 6 5 1509.75 79.89
0 -6 5 148.69 15.7
0 6 -5 105.89 14.2
0 6 5 127.69 13.1
1 -6 5 1523.25 82.09
1 -6 5 1554.64 82.79
1 6 5 1528.45 75.79
-1 6 -5 1429.96 82.99
3 -6 5 655.53 44.4
3 -6 5 549.74 40.5
3 6 5 613.64 40.5
3 6 5 585.34 40.6
4 -6 5 18.2 10.3
4 6 5 35.2 12.4
4 6 5 30.2 10.7
5 -6 5 241.58 29.5
5 6 5 300.97 31.4
5 6 5 248.18 29.3
6 -6 5 19.6 11.2
6 6 5 33.6 16.5
6 6 5 32.3 15.2
6 -7 -5 250.67 25.9
6 -7 -5 226.58 26.8
6 7 -5 216.88 25.1
5 -7 -5 243.58 23
5 -7 -5 260.17 28.2
5 7 -5 270.07 26.7
5 7 -5 304.37 29.7
-4 -7 5 630.64 52.19
4 -7 -5 523.05 33.9
4 7 -5 550.54 41.5
3 -7 -5 208.88 20.9
3 -7 -5 178.08 12.5
-3 -7 5 195.68 19.6
3 -7 -5 200.28 12.8
3 7 -5 180.28 20.6
-3 7 5 183.98 22.2
-1 -7 5 181.18 16.3
-1 -7 5 164.78 25.1
1 7 -5 175.28 18.4
-1 7 5 173.38 16.8
0 -7 5 1315.17 72.89
0 7 -5 1190.48 71.59
0 7 5 1335.57 68.59
1 -7 5 177.78 17.9
1 -7 5 198.98 24.9
-1 7 -5 177.08 19
1 7 5 160.18 13
2 -7 5 1554.94 84.59
2 -7 5 1495.65 84.29
2 7 5 1488.45 81.19
2 7 5 1509.85 79.99
3 -7 5 250.37 24.7
3 7 5 223.58 21.4
3 7 5 214.28 22.2
4 7 5 652.83 46.4
4 7 5 629.84 44.4
5 -7 5 143.89 21.7
5 7 5 134.49 20.2
5 7 5 91.29 20.2
6 -7 5 99.09 23.8
6 7 5 105.49 23.3
6 7 5 98.69 20.2
6 -8 -5 51.39 19.4
6 -8 -5 46.7 12.9
6 8 -5 56.39 16.2
6 8 -5 37 12.3
5 -8 -5 469.75 33.1
5 -8 -5 536.05 40.8
5 8 -5 387.66 37.6
5 8 -5 499.35 35.6
-4 -8 5 16.5 10
4 -8 -5 30.7 7.3
4 -8 -5 32.4 7.8
4 -8 -5 29.3 13.5
4 8 -5 36.6 11.5
-3 -8 5 410.26 30.2
3 -8 -5 381.06 31.1
3 8 -5 392.56 32.2
-3 8 5 399.66 32.2
-2 -8 5 579.74 44.5
-2 -8 5 556.84 35.7
2 8 -5 525.45 38.3
-2 8 5 523.35 36.6
-1 -8 5 1418.46 73.89
-1 -8 5 1397.76 80.59
-1 8 5 1463.45 75.59
1 8 -5 1273.07 77.29
0 -8 5 64.29 13.9
0 8 5 75.79 10.2
0 8 -5 79.39 15.3
1 -8 5 1729.93 89.29
1 -8 5 1650.23 87.79
1 8 5 1492.35 82.29
-1 8 -5 1549.84 89.69
1 8 5 1652.13 79.49
2 -8 5 313.37 27.7
2 8 5 311.67 24.2
2 8 5 319.27 30.8
3 -8 5 481.95 38.9
3 8 5 488.85 36.3
3 8 5 545.75 35.9
4 -8 5 71.19 17.4
4 8 5 58.19 15.8
4 8 5 57.19 14.5
5 -8 5 415.56 40.2
5 8 5 470.75 40.2
5 8 5 469.85 36.3
6 8 5 15.4 12.1
6 8 5 1.7 11.2
6 -9 -5 52.09 24.2
6 -9 -5 103.79 16.9
6 9 -5 116.69 24.1
5 -9 -5 30.5 12.4
5 -9 -5 19.3 8.7
5 -9 -5 6.9 7.5
5 9 -5 20.2 10.7
4 -9 -5 365.36 23.3
4 -9 -5 346.17 30.2
4 -9 -5 333.37 21
4 9 -5 370.26 32.9
-3 -9 5 14.8 7.3
3 -9 -5 15.5 6.6
-3 9 5 5.8 7.1
3 9 -5 12.1 6.9
-2 -9 5 1045.3 58.49
-2 9 5 1023.5 60.49
-1 -9 5 305.87 39
-1 -9 5 311.87 22.8
1 9 -5 332.17 27.9
-1 9 5 307.97 24
0 -9 5 1012.9 64.89
0 -9 5 1133.99 62.79
0 9 -5 1172.88 66.69
0 9 5 1079.79 59.49
1 -9 5 346.47 27.4
1 -9 5 362.96 29.3
1 9 5 318.97 22.8
1 9 5 370.96 21.1
-1 9 -5 349.67 30.1
2 -9 5 801.42 50.39
2 9 5 843.92 48.9
2 9 5 664.93 50.09
3 -9 5 72.29 16.8
3 9 5 79.99 14.9
3 9 5 66.89 13.3
4 -9 5 329.17 31.8
4 9 5 325.87 30.3
4 9 5 342.57 27.6
5 -9 5 13.1 12.2
5 9 5 14.2 10.9
5 9 5 20.2 11.6
5 -10 -5 76.79 16.4
-5 -10 5 115.59 22
5 -10 -5 65.19 11.9
5 -10 -5 90.39 13
5 10 -5 93.49 23.8
-4 -10 5 3.5 9.1
4 -10 -5 1.6 4.3
4 -10 -5 8.2 8.7
4 10 -5 23.3 10.1
3 -10 -5 871.41 54.59
-3 -10 5 916.11 52.79
-3 10 5 858.11 55.39
3 10 -5 854.91 57.09
-1 -10 5 694.83 41.8
-1 10 5 691.13 43.3
1 10 -5 814.02 50.49
0 -10 5 19.7 8.4
0 10 5 32.2 7.3
1 -10 5 480.25 33.8
1 10 5 466.45 26.4
1 10 5 475.05 30.1
2 -10 5 189.08 21.3
2 10 5 182.68 17.2
2 10 5 188.38 16.4
3 -10 5 627.74 46.4
3 10 5 715.23 41.5
3 10 5 616.54 42.3
4 -10 5 22 11.8
4 10 5 26.1 11.9
4 10 5 22.1 10
5 -10 5 68.69 18
5 10 5 54.79 14.4
5 10 5 70.09 18.4
5 -11 -5 26.6 11.1
5 11 -5 30.9 12.7
-4 -11 5 117.39 18.6
4 -11 -5 90.19 18.8
4 11 -5 80.39 16
-3 -11 5 24.6 8.4
3 11 -5 32.1 11.7
-3 11 5 -2.3 10.9
-2 -11 5 689.33 40.6
-2 11 5 581.44 40.6
2 11 -5 614.74 45
-1 -11 5 52.79 9.8
-1 11 5 86.49 11.7
1 11 -5 60.19 13.3
0 -11 5 607.04 36.6
0 11 5 594.44 36.4
0 11 -5 649.14 44.7
1 -11 5 114.79 17.6
1 11 5 105.29 12.7
-1 11 -5 126.39 18.2
1 11 5 119.89 12
1 11 5 112.49 9.7
2 -11 5 361.56 30.7
2 11 5 364.76 24.4
3 -11 5 7.1 9.2
3 11 5 -1.5 6.3
3 11 5 15.8 7.4
4 -11 5 68.99 17.5
4 11 5 54.99 10.9
4 11 5 33.5 13.7
5 -11 5 77.19 22.9
5 11 5 72.99 14.9
5 11 5 50.59 13.9
4 -12 -5 46.6 13.4
-4 -12 5 49.5 14.2
4 12 -5 71.89 17.4
-3 -12 5 359.96 30.5
3 12 -5 337.47 31.4
-3 12 5 329.57 29.9
-2 -12 5 63.39 10.8
2 12 -5 49.4 13.8
-2 12 5 62.79 13
-1 -12 5 823.62 43.5
-1 -12 5 724.23 43.1
1 12 -5 832.62 53.19
-1 12 5 735.43 44.9
0 -12 5 79.19 11.8
0 -12 5 91.49 13.5
0 12 -5 87.39 17
1 -12 5 571.54 36.4
1 12 5 497.95 29.2
1 12 5 526.75 29
1 12 5 524.15 30.2
-1 12 -5 490.15 40.1
2 -12 5 18.2 8.5
2 12 5 20.2 5.5
2 12 5 25.4 5
2 12 5 20.5 4.6
3 -12 5 237.08 26
3 12 5 252.37 22.5
3 12 5 253.57 18.2
4 -12 5 74.59 18.3
4 12 5 59.89 14.6
4 12 5 46.6 9.5
-3 13 5 30.3 11.5
-2 13 5 458.55 32.7
2 13 -5 491.35 38.7
1 13 -5 121.19 17.2
-1 13 5 111.59 13.8
0 -13 5 367.06 25.6
0 -13 5 296.17 22.1
0 13 -5 310.97 29.5
1 -13 5 131.79 16.6
1 13 5 137.29 11
-1 13 -5 139.49 19.4
2 -13 5 252.77 24.9
3 -13 5 0.8 9.7
3 13 5 -5.8 6.7
-2 14 5 31.6 15.3
1 14 -5 280.57 28.3
0 14 -5 21.7 9.7
1 14 5 275.17 17.2
-1 14 -5 260.87 27.4
2 -14 5 22.4 10.7
2 14 5 30.8 7.4
1 15 -5 7.6 7.7
7 0 -6 9.2 10.6
7 0 -6 -11.6 8.7
6 0 -6 287.37 29.5
6 0 -6 285.37 30.4
5 0 -6 4.2 7.5
5 0 -6 -2.9 4.7
-4 0 6 516.85 40.7
4 0 -6 569.14 42.8
4 0 -6 606.74 40.3
-4 0 6 751.22 56.29
-3 0 6 6.9 7.6
3 0 -6 4.5 5.5
3 0 -6 0.7 4.7
-3 0 6 -4.9 4.8
-2 0 6 4821.72 229.28
2 0 -6 4667.33 227.98
-2 0 6 4765.42 232.88
-1 0 6 0.8 3.5
1 0 -6 5.1 3.8
0 0 -6 3266.17 158.58
1 0 6 -0.7 2.4
2 0 6 4394.56 221.88
2 0 6 4580.84 217.58
3 0 6 9 7
4 0 6 309.77 30.3
5 0 6 8 8.2
6 0 6 34.6 14.3
7 0 6 9.3 12.4
7 0 6 18.2 13.1
7 -1 -6 147.09 26.5
7 -1 -6 164.88 26.9
7 1 -6 144.89 27.2
7 1 -6 113.09 23.5
6 -1 -6 102.99 21.5
6 -1 -6 78.49 17.7
6 1 -6 49.9 15
6 1 -6 73.59 16.1
5 -1 -6 135.99 18.5
5 -1 -6 136.19 19.4
5 1 -6 111.49 17.9
5 1 -6 116.09 20.3
4 -1 -6 171.08 18.4
-4 -1 6 203.68 33.4
-4 -1 6 240.98 25.1
4 -1 -6 193.58 22.5
4 1 -6 153.88 20.5
4 1 -6 137.69 17.9
-4 1 6 190.48 21.1
3 -1 -6 455.75 34.9
-3 -1 6 517.55 35
-3 -1 6 487.35 38.5
3 -1 -6 475.95 30.9
3 1 -6 469.45 32.2
-3 1 6 453.35 32.5
3 1 -6 437.16 34.1
2 -1 -6 281.27 20.6
-2 -1 6 296.27 23.8
-2 -1 6 301.27 25.8
-2 1 6 336.97 26.3
2 1 -6 321.17 23
-1 -1 6 2046.7 103.89
1 -1 -6 2109.09 100.99
-1 -1 6 1983.8 106.39
-1 1 6 2041.7 106.99
-1 1 6 2070.39 101.49
1 1 -6 2022 107.09
0 -1 6 112.89 11.6
0 1 6 123.79 11
0 1 -6 120.49 13.3
1 -1 6 2409.76 120.19
1 1 6 2401.46 118.89
2 -1 6 277.27 22.6
2 -1 6 279.27 25.2
2 1 6 294.57 25.6
2 1 6 282.67 21.7
3 -1 6 402.56 32.9
3 -1 6 391.46 29.5
3 1 6 366.86 31.8
4 -1 6 123.89 20.2
4 1 6 134.49 20.4
5 -1 6 86.59 21.2
5 1 6 125.99 25.9
6 -1 6 80.69 20
6 1 6 59.99 17.6
6 1 6 62.69 21.2
7 -1 6 86.89 25
7 -1 6 72.39 18.8
7 1 6 31.2 16.6
7 1 6 82.19 23.1
7 -2 -6 51.89 15.2
7 -2 -6 60.29 17.9
7 2 -6 51.69 15.8
6 -2 -6 375.16 36.4
6 -2 -6 395.36 34.7
6 2 -6 341.37 34.9
6 2 -6 349.07 34
5 -2 -6 300.97 27.3
5 -2 -6 274.67 29.1
5 2 -6 287.97 31.2
5 2 -6 302.67 29.2
4 -2 -6 965 57.69
-4 -2 6 953.4 62.59
4 -2 -6 1011.7 63.49
-4 -2 6 1040.7 65.09
4 2 -6 980.9 60.59
4 2 -6 1047.4 62.99
-3 -2 6 61.99 14.9
3 -2 -6 52.09 11.5
3 -2 -6 68.59 10.3
-3 -2 6 70.59 14.3
-3 2 6 81.19 17.9
3 2 -6 87.39 13.4
3 2 -6 75.69 11.7
-3 2 6 59.69 12
-2 -2 6 1606.84 88.29
-2 -2 6 1599.14 87.09
2 -2 -6 1656.43 80.89
-2 2 6 1571.04 88.19
2 2 -6 1684.83 85.39
-2 2 6 1572.04 82.29
1 -2 -6 228.38 15.8
-1 -2 6 243.98 19.7
-1 -2 6 239.08 20.8
1 2 -6 241.18 19.3
-1 2 6 245.78 16.6
-1 2 6 207.08 19.6
0 -2 6 974.3 52.79
0 2 -6 907.11 52.99
0 2 6 922.41 48.6
1 -2 6 187.48 16.6
1 2 6 184.58 14.9
2 -2 6 1320.47 73.09
2 -2 6 1311.97 76.69
2 2 6 1360.66 76.39
3 -2 6 179.18 35.8
3 -2 6 78.49 16.6
3 2 6 97.99 15.5
4 -2 6 775.42 55.49
4 2 6 832.22 55.59
5 -2 6 437.66 39.5
5 2 6 468.85 39.9
6 -2 6 372.96 36.9
6 2 6 357.16 35.5
6 2 6 354.76 38.6
7 -2 6 25.5 14.8
7 2 6 52.99 16.5
7 2 6 28.7 13.9
7 -3 -6 63.89 18.3
7 -3 -6 54.49 16.9
7 3 -6 53.79 16.6
7 3 -6 65.39 17.9
6 -3 -6 9.6 10.1
6 -3 -6 16.9 13.8
6 3 -6 23.7 11.4
6 3 -6 10.5 9.9
5 -3 -6 633.34 43.4
5 -3 -6 647.74 48
5 3 -6 592.94 46.1
5 3 -6 668.93 47.2
4 -3 -6 97.59 13.6
4 -3 -6 127.39 18.9
-4 -3 6 102.69 21.6
-4 -3 6 109.29 21.2
4 3 -6 121.69 16.7
4 3 -6 109.19 16.7
3 -3 -6 1475.05 75.99
3 -3 -6 1539.45 84.39
-3 -3 6 1439.56 84.29
-3 -3 6 1501.95 84.89
-3 3 6 1420.76 84.69
3 3 -6 1527.75 81.99
2 -3 -6 109.39 9.5
-2 -3 6 128.39 15.2
-2 -3 6 118.29 18.7
-2 3 6 95.79 10.7
-2 3 6 105.79 14.8
2 3 -6 108.89 13.5
1 -3 -6 1765.92 81.09
-1 -3 6 1617.14 88.49
-1 -3 6 1664.93 89.09
-1 3 6 1596.54 88.59
1 3 -6 1711.73 87.99
-1 3 6 1629.44 81.29
0 -3 6 12.5 6.1
0 3 -6 21.3 7.2
0 3 6 29.7 4.4
1 -3 6 1359.16 73.99
1 3 6 1376.76 69.49
-1 3 -6 1343.67 74.69
2 -3 6 42.7 10.9
2 -3 6 70.99 10.6
2 3 6 54.39 11.1
3 -3 6 1203.18 69.49
3 -3 6 1226.38 73.19
3 3 6 1175.68 71.19
4 -3 6 101.39 31.1
4 3 6 117.59 19.1
5 -3 6 335.77 32.5
5 3 6 318.07 31
5 3 6 265.07 32.4
6 -3 6 -3 9.4
6 3 6 -7.2 12.2
6 3 6 10.2 10.6
6 -4 -6 204.48 25.9
6 -4 -6 229.68 25.2
6 4 -6 186.28 24.4
6 4 -6 285.27 29.9
5 -4 -6 15.8 8.8
5 -4 -6 29.3 9.3
5 4 -6 1.7 8.1
5 4 -6 11.6 8.7
4 -4 -6 1238.18 67.69
-4 -4 6 1193.18 75.29
4 -4 -6 1306.47 85.99
4 4 -6 1286.07 73.99
4 4 -6 1209.88 72.59
3 -4 -6 9.5 5.5
-3 -4 6 6.6 7.9
-3 -4 6 8.4 7
3 -4 -6 8 3.8
-3 4 6 5.8 6.3
3 4 -6 1.3 5.9
2 -4 -6 1569.54 72.59
-2 -4 6 1417.46 83.39
-2 -4 6 1488.25 82.39
-2 4 6 1391.66 82.39
2 4 -6 1584.44 81.79
-1 -4 6 83.79 12.1
-1 -4 6 98.39 12.8
-1 4 6 102.39 12.6
1 4 -6 85.09 12.1
0 -4 6 1468.15 78.39
0 4 6 1388.06 77.19
0 4 -6 1511.65 79.39
0 4 6 1405.56 69.39
1 -4 6 46.4 9.3
-1 4 -6 31.2 8.5
1 4 6 54.79 6.8
2 -4 6 1148.69 70.89
2 -4 6 1231.38 68.69
2 4 6 1259.27 70.49
3 -4 6 40 13.2
3 -4 6 33 9.7
3 4 6 33.1 11.5
4 -4 6 1049.99 75.79
4 4 6 858.21 62.39
4 4 6 988.2 62.29
5 -4 6 36 15.4
5 4 6 36.8 16.8
5 4 6 20.6 12.4
6 -4 6 192.58 27.9
6 4 6 231.08 28
6 4 6 233.38 37.2
6 -5 -6 9.7 8.8
6 -5 -6 -8.7 8.1
6 5 -6 -6 9.4
6 5 -6 27.6 11
5 -5 -6 443.26 38.2
5 -5 -6 437.16 32.3
5 5 -6 473.95 38
5 5 -6 431.86 35.7
-4 -5 6 57.29 14.5
4 -5 -6 50.69 19.6
4 5 -6 63.29 14.3
3 -5 -6 936.81 47.3
3 -5 -6 896.91 56.99
-3 -5 6 878.91 57.29
-3 -5 6 892.21 60.39
-3 5 6 893.61 57.59
3 5 -6 958 56.69
-2 -5 6 32.5 8.6
-2 -5 6 31.8 15.9
-2 5 6 24.5 7.8
2 5 -6 31 8.7
-1 -5 6 805.92 51.49
-1 -5 6 822.12 50.09
-1 5 6 817.52 49.99
1 5 -6 907.31 51.89
0 -5 6 102.49 12.9
0 5 6 109.19 12.9
0 5 -6 109.29 13.9
1 -5 6 775.62 47.1
-1 5 -6 770.92 48.4
1 5 6 718.73 39.7
1 5 6 743.53 42.1
2 -5 6 58.99 11.6
2 -5 6 71.99 14.9
2 5 6 64.09 16.8
2 5 6 55.49 12.2
3 -5 6 799.42 54.89
3 -5 6 836.02 56.29
3 5 6 861.11 54.19
3 5 6 903.51 54.79
4 -5 6 58.69 16.7
4 5 6 61.79 15.1
4 5 6 51.29 14.7
5 -5 6 360.56 33.8
5 5 6 255.67 29.4
5 5 6 255.97 30.1
6 -5 6 14.4 13.2
6 5 6 24.6 11.7
6 5 6 14 12.6
6 -6 -6 132.49 28.1
6 -6 -6 107.19 18.2
6 6 -6 99.49 21.1
6 6 -6 142.19 36.1
5 -6 -6 83.39 13
5 -6 -6 68.39 17.2
5 6 -6 77.89 16.7
5 6 -6 70.49 16.5
-4 -6 6 771.82 54.29
4 -6 -6 827.92 55.39
4 -6 -6 836.92 46
4 6 -6 852.21 54.99
3 -6 -6 37.9 11.9
3 -6 -6 32.1 5.3
-3 -6 6 37.7 11.4
-3 6 6 42.5 11.8
3 6 -6 29 9.8
-2 -6 6 588.34 42.2
-2 -6 6 556.94 38
2 6 -6 556.44 39.1
-2 6 6 558.24 39.5
-1 -6 6 55.09 18.1
-1 -6 6 58.89 11.9
-1 6 6 39.9 9.5
1 6 -6 44.8 10.5
0 -6 6 1724.23 92.59
0 6 -6 1484.15 88.19
0 6 6 1678.53 86.59
1 -6 6 36.6 9.4
1 -6 6 71.09 15.1
-1 6 -6 73.59 14.3
1 6 6 58.29 8.3
2 -6 6 338.27 28.4
2 -6 6 402.76 32.1
2 6 6 369.86 27.7
2 6 6 362.06 28.8
3 -6 6 4.7 7.8
3 6 6 24.9 8
3 6 6 4.6 7.1
4 -6 6 553.34 45.1
4 6 6 606.34 44.8
4 6 6 590.94 42.4
5 -6 6 72.39 18.9
5 6 6 87.79 19.5
5 6 6 88.59 20.7
6 6 6 66.09 16.8
6 6 6 105.59 25.7
6 -7 -6 38.2 10.5
6 -7 -6 29.7 23.2
6 7 -6 34.4 12.9
6 7 -6 29.1 11.5
5 -7 -6 209.58 25.4
5 -7 -6 239.98 20.6
5 7 -6 225.48 26
4 -7 -6 8 4.4
-4 -7 6 0.7 8.5
4 -7 -6 -0.9 8
4 7 -6 18.3 9.7
3 -7 -6 509.35 36.2
-3 -7 6 418.86 33.8
3 7 -6 483.35 36.2
-3 7 6 410.86 34.8
-2 -7 6 301.77 33.6
-2 -7 6 322.37 25.8
-2 7 6 328.67 27.8
2 7 -6 353.76 28.7
-1 -7 6 1456.55 77.79
-1 -7 6 1569.64 83.59
1 7 -6 1290.67 79.19
-1 7 6 1393.96 77.79
0 -7 6 246.58 22.8
0 7 -6 228.38 22.6
0 7 6 222.48 19.5
1 -7 6 1546.95 87.89
1 -7 6 1582.64 88.39
1 7 6 1695.33 79.49
-1 7 -6 1549.54 89.69
2 -7 6 289.67 38.9
2 -7 6 271.77 26.8
2 7 6 275.77 24.4
2 7 6 338.57 24.9
3 -7 6 298.37 29.3
3 7 6 286.87 26.2
3 7 6 332.47 27.6
4 -7 6 17.3 11.4
4 7 6 20.3 11.9
4 7 6 14 8.8
5 -7 6 102.59 24.6
5 7 6 93.49 21.2
5 7 6 127.39 19.2
6 -7 6 24.8 14.5
6 7 6 12.5 11.9
6 7 6 21.3 14.6
6 -8 -6 57.29 12.4
6 -8 -6 91.29 20.5
6 8 -6 48.6 15.7
5 -8 -6 113.89 14.2
5 -8 -6 120.19 19.9
5 8 -6 130.89 24.3
4 -8 -6 220.68 15.7
4 -8 -6 266.57 16.4
-4 -8 6 242.18 26.6
4 -8 -6 287.17 27.5
4 8 -6 244.08 26.2
-3 -8 6 19.8 8.1
-3 8 6 17.1 8
2 8 -6 1205.38 81.49
-1 -8 6 258.17 22.2
-1 8 6 284.37 23.7
1 8 -6 290.37 26.1
0 -8 6 562.44 40.8
0 8 6 555.24 36.1
0 8 -6 551.14 40.3
1 -8 6 376.16 30.9
1 8 6 418.96 23.2
-1 8 -6 402.36 33.3
1 8 6 408.36 28
2 -8 6 1435.86 81.09
2 8 6 1312.67 76.79
2 8 6 1416.66 77.19
3 -8 6 167.58 22.3
3 8 6 172.78 19.6
3 8 6 182.28 19.3
4 -8 6 252.07 28.4
4 8 6 211.08 23.4
4 8 6 206.98 24.6
5 -8 6 6.2 10.9
5 8 6 28.7 11.4
5 8 6 -0.7 8.8
5 -9 -6 43.1 13.1
5 -9 -6 40.1 9.7
5 9 -6 29.1 22.6
-4 -9 6 87.29 17.3
4 -9 -6 87.79 18.7
4 9 -6 89.49 19.5
-3 -9 6 339.37 28.1
-3 9 6 261.47 46.5
3 9 -6 337.07 30
-2 9 6 187.48 26.5
2 9 -6 148.69 19.9
-1 -9 6 562.54 38.2
-1 9 6 627.84 40.6
1 9 -6 653.33 43.9
0 -9 6 32 9.4
0 9 -6 29.7 17.7
0 9 6 13 6.6
1 -9 6 728.23 47.3
1 9 6 693.03 36.2
1 9 6 700.53 42.4
-1 9 -6 730.93 50.19
2 -9 6 310.37 28.6
2 9 6 326.07 25.5
3 -9 6 525.05 42.3
3 9 6 566.44 38.9
3 9 6 585.84 38.8
4 -9 6 27.4 11.6
4 9 6 17.3 10.6
4 9 6 7.7 9
5 -9 6 100.49 22.8
5 9 6 149.09 23.3
5 9 6 109.99 21.1
5 -10 -6 24.3 11.4
5 -10 -6 5 5.9
5 10 -6 4.4 9.4
4 -10 -6 214.68 23.9
-4 -10 6 158.78 23.1
4 10 -6 215.08 24
-3 -10 6 -11.9 6.5
3 10 -6 4.8 7.6
-2 -10 6 699.53 43.8
2 10 -6 728.03 49.3
-2 10 6 666.73 52.99
-1 -10 6 80.39 13.4
1 10 -6 43.8 11.8
-1 10 6 76.39 14.5
0 -10 6 619.34 40.5
0 10 6 553.64 37.4
0 10 -6 642.64 44.6
1 -10 6 32.4 10.3
-1 10 -6 15.3 8.2
1 10 6 50.59 9
2 -10 6 686.73 48
2 10 6 710.43 43.4
3 10 6 21.4 8.5
3 10 6 9.9 8.9
4 -10 6 108.69 22
4 10 6 123.19 20.8
5 -10 6 66.39 20.6
5 10 6 48.9 15
5 10 6 72.49 19.9
4 11 -6 34.5 12.4
-3 -11 6 447.26 33.1
3 11 -6 429.16 36.1
-2 -11 6 44.1 11.5
2 11 -6 42.1 12.7
-2 11 6 62.89 14.7
-1 -11 6 474.95 33.6
-1 -11 6 518.85 32.8
-1 11 6 454.95 33.5
1 11 -6 519.15 39
0 -11 6 59.09 12.7
0 -11 6 44 10.4
0 11 -6 48.7 13.1
0 11 6 39.4 9.9
1 -11 6 453.95 33.8
1 11 6 463.15 30.3
1 11 6 405.26 28.4
-1 11 -6 449.06 37.2
2 -11 6 33.2 12.1
2 11 6 15.2 6.3
2 11 6 30.7 8.5
3 -11 6 259.27 36.5
3 11 6 412.16 29.6
3 11 6 377.66 27.5
4 -11 6 4.5 10.9
4 11 6 9.6 10.8
4 11 6 -10.5 7.6
4 12 -6 231.28 27.3
-3 -12 6 30 10.4
3 12 -6 4 10.6
-2 -12 6 363.46 26.8
-2 12 6 373.06 30.2
2 12 -6 374.56 33.4
-1 -12 6 40.9 9.7
-1 -12 6 23.9 8.6
1 12 -6 23.4 9.2
-1 12 6 21.6 7.7
0 -12 6 218.58 20.7
0 -12 6 213.98 18.3
0 12 6 178.08 17.1
0 12 -6 152.28 21
1 -12 6 30.3 10.4
1 12 6 25 7.2
-1 12 -6 39.5 11.6
2 12 6 206.18 16.5
3 -12 6 5.8 9.8
3 12 6 9.2 6.4
3 12 6 2.6 6.6
4 -12 6 191.58 31.5
4 12 6 202.98 24
4 12 6 193.18 20.1
3 13 -6 175.38 24
-2 -13 6 26.7 10.6
2 13 -6 33.9 16
-2 13 6 38.3 13.2
-1 -13 6 155.58 26.1
1 13 -6 170.48 21.9
-1 13 6 186.18 18.3
0 -13 6 60.39 12.3
0 -13 6 49.6 10.1
0 13 -6 46.4 12.7
0 13 6 33 8.1
1 -13 6 192.98 21.3
-1 13 -6 143.29 20.4
1 13 6 199.78 15.5
2 -13 6 15.9 10.5
2 13 6 5.3 5.1
3 -13 6 220.28 26.2
3 13 6 172.68 24.3
3 13 6 217.08 19.9
2 14 -6 191.68 23.8
1 14 -6 94.69 18.6
0 14 6 341.87 22.4
1 -14 6 76.59 14.4
-1 14 -6 35.6 18.7
2 -14 6 105.29 17.7
6 0 -7 -5.4 8.3
6 0 -7 -5.6 8.1
5 0 -7 249.28 24
5 0 -7 168.08 23.4
-4 0 7 -15.4 7.1
4 0 -7 1 6.8
4 0 -7 -6.8 4.8
3 0 -7 455.15 29.3
-3 0 7 413.26 34.3
-3 0 7 353.26 29.9
-2 0 7 -1.4 4
2 0 -7 2.6 3.5
-1 0 7 1834.12 100.69
1 0 -7 2308.07 116.89
-1 0 7 1907.01 105.59
0 0 -7 1 3.3
0 0 7 -1.4 3.1
1 0 7 2713.13 134.69
2 0 7 10.6 7.7
3 0 7 403.26 34.1
3 0 7 344.17 31.3
4 0 7 -13.1 5.8
5 0 7 114.29 24.9
6 0 7 13.1 11.1
6 -1 -7 258.77 27.6
6 -1 -7 252.07 29.7
6 1 -7 255.57 28.2
6 1 -7 254.07 28.6
5 -1 -7 152.08 19.6
5 -1 -7 137.09 21.3
5 1 -7 180.38 23.1
5 1 -7 115.99 24
4 -1 -7 47.2 14.9
-4 -1 7 16.5 9.4
4 -1 -7 36.7 10
4 1 -7 46.3 12.3
-4 1 7 21.9 8.6
4 1 -7 31.7 15.6
3 -1 -7 43.5 9.5
-3 -1 7 37.4 13.1
-3 -1 7 40.1 11
-3 1 7 53.49 11.7
-3 1 7 46.5 14.3
3 1 -7 51.29 10.3
2 -1 -7 676.03 45.2
-2 -1 7 660.13 51.69
-2 -1 7 947.51 50.99
-2 1 7 848.42 47.5
-2 1 7 953.9 71.29
2 1 -7 830.12 47.3
-1 -1 7 476.45 34.7
1 -1 -7 536.75 30.8
-1 -1 7 516.25 33
-1 1 7 443.96 34.6
1 1 -7 487.85 31.8
-1 1 7 462.75 32.1
0 -1 7 2147.89 112.19
0 1 7 2252.77 110.29
0 1 -7 2283.27 113.79
1 -1 7 312.27 24.2
1 1 7 359.96 23.8
2 -1 7 1172.88 69.19
2 -1 7 1118.89 63.09
2 1 7 1080.79 67.19
2 1 7 1069.59 61.59
3 -1 7 34.5 8.4
3 -1 7 17.6 9.2
3 1 7 36.8 9.5
3 1 7 24 9.8
4 -1 7 15.6 9.2
4 1 7 14.6 7.5
5 -1 7 102.69 22.7
5 1 7 113.19 23.4
6 -1 7 143.89 30.8
6 1 7 174.58 25.5
6 -2 -7 60.29 17.3
6 -2 -7 30.2 12.1
6 2 -7 54.39 15.7
6 2 -7 34.3 12.9
5 -2 -7 759.72 53.99
5 -2 -7 667.13 46.3
5 2 -7 817.72 53.39
5 2 -7 639.84 48.4
4 -2 -7 311.37 29.1
-4 -2 7 277.27 29.2
4 -2 -7 354.26 25.5
-4 2 7 249.68 29.2
4 2 -7 267.57 40
4 2 -7 363.26 28.5
-3 -2 7 588.34 42.2
3 -2 -7 556.24 34.1
-3 -2 7 556.14 40.4
-3 2 7 616.34 43.6
3 2 -7 553.44 37.7
-3 2 7 544.75 36.9
-2 -2 7 138.79 18.5
-2 -2 7 143.89 16.6
2 -2 -7 146.89 12.9
-2 2 7 139.69 30.3
2 2 -7 160.18 16.1
-2 2 7 184.78 17.8
-1 -2 7 978.7 58.79
1 -2 -7 939.71 51.79
-1 -2 7 1044.3 57.69
1 2 -7 961.5 56.09
-1 2 7 1023.9 59.39
-1 2 7 981.4 52.49
0 -2 7 197.88 17.9
0 2 7 207.08 15.4
0 2 -7 216.48 19.4
1 -2 7 845.82 49.5
1 2 7 815.12 45.9
2 -2 7 116.69 14.4
2 -2 7 118.39 17.4
2 2 7 114.99 17.2
2 2 7 121.99 13.3
3 -2 7 630.34 42.8
3 -2 7 655.63 47.7
3 2 7 629.14 46.3
4 -2 7 229.48 26.7
4 2 7 158.08 24.1
5 -2 7 697.33 55.19
5 2 7 801.12 55.49
6 -2 7 -13.9 25.6
6 2 7 15.4 12.7
6 2 7 16.2 12.5
6 -3 -7 308.97 30
6 -3 -7 335.47 41.2
6 3 -7 375.26 35.1
6 3 -7 408.06 35.8
5 -3 -7 40.5 14.5
5 -3 -7 14.7 9.4
5 3 -7 30.3 11.8
5 3 -7 23.9 10.7
4 -3 -7 944.91 55.89
4 -3 -7 1044.5 65.09
4 3 -7 1034.5 61.99
-3 -3 7 279.57 25.8
3 -3 -7 263.87 18.8
-3 -3 7 262.17 25.3
-3 3 7 232.38 20.5
3 3 -7 261.17 23.4
-3 3 7 243.68 26.1
-2 -3 7 602.34 41.4
2 -3 -7 624.74 33.8
-2 -3 7 566.64 42.4
-2 3 7 564.74 44.1
2 3 -7 632.14 39.8
-2 3 7 614.74 35.3
-1 -3 7 230.68 21.9
-1 -3 7 207.38 20.2
1 3 -7 244.18 20.9
-1 3 7 242.68 16.4
-1 3 7 230.08 21.5
0 -3 7 1015.6 57.99
0 3 -7 947.81 57.89
0 3 7 1030.1 51.79
1 -3 7 122.99 14
1 3 7 101.19 12
2 -3 7 534.95 41.2
2 -3 7 610.74 50.99
2 3 7 583.94 41.1
2 3 7 542.95 34.7
3 -3 7 274.77 28.1
3 -3 7 308.37 26.2
3 3 7 272.27 27.6
4 -3 7 1129.09 76.29
4 3 7 1315.17 85.59
5 -3 7 -3.6 8.9
5 3 7 -11.8 9.2
5 3 7 4.4 10.7
6 -3 7 288.77 58.79
6 3 7 245.98 31.7
6 3 7 188.18 28.1
6 -4 -7 0.2 8.6
6 4 -7 5.7 12.5
6 4 -7 8.9 10
5 -4 -7 661.13 47.4
5 -4 -7 572.64 37.6
5 4 -7 475.45 40.8
5 4 -7 493.35 41.3
4 -4 -7 26.8 7.9
4 -4 -7 24.9 10.5
4 4 -7 26 10.8
-3 -4 7 1046.1 65.39
3 -4 -7 1055.99 54.79
-3 -4 7 967.3 65.99
-3 4 7 1207.18 86.59
3 4 -7 1057.99 62.99
2 -4 -7 90.29 8.1
-2 -4 7 64.59 14.1
-2 -4 7 107.99 24.7
-2 4 7 94.09 14.6
2 4 -7 101.79 14.5
-1 -4 7 428.46 32.1
-1 -4 7 470.75 32.5
-1 4 7 425.26 31.6
-1 4 7 423.46 23.7
1 4 -7 386.46 30.5
0 -4 7 141.69 15.7
0 4 7 147.69 15.9
0 4 -7 136.79 16.3
0 4 7 138.09 10.4
1 -4 7 413.36 29.8
1 4 7 388.96 23.6
-1 4 -7 304.57 28
2 -4 7 116.99 17.7
2 -4 7 140.19 16.2
2 4 7 130.29 17.6
3 -4 7 1143.69 70.99
3 4 7 1103.39 69.09
4 -4 7 -0.1 9.4
4 4 7 5.1 9
4 4 7 -13 8.3
5 -4 7 484.15 42.1
5 4 7 464.45 42.6
5 4 7 500.55 42.1
6 -4 7 -10.2 10.5
6 4 7 9.5 11.5
6 4 7 -9.7 12.6
6 -5 -7 100.49 22.1
6 -5 -7 119.89 19.1
6 5 -7 132.69 33
6 5 -7 126.29 20.7
5 -5 -7 34.9 13.9
5 -5 -7 40.4 10.3
5 5 -7 24.6 11.8
4 -5 -7 949.11 59.99
4 -5 -7 910.31 60.29
4 5 -7 871.71 57.99
3 -5 -7 88.09 8.7
-3 -5 7 107.79 17.4
3 5 -7 95.49 14.8
-2 -5 7 549.15 39.2
-2 -5 7 465.65 38
2 5 -7 508.65 36.3
-2 5 7 494.75 37.2
-1 -5 7 96.49 16.3
-1 -5 7 83.09 12.8
1 5 -7 75.19 13.7
-1 5 7 66.39 13.3
0 -5 7 1419.76 83.49
0 5 7 1488.25 69.89
0 5 -7 1397.06 81.49
0 5 7 1519.05 80.59
1 -5 7 104.69 14
1 5 7 114.29 10.2
-1 5 -7 131.89 17.1
2 -5 7 354.96 31.6
2 5 7 382.26 31.2
3 -5 7 64.59 14.8
3 5 7 34.4 11.4
3 5 7 49.7 12.9
4 -5 7 768.42 55.79
4 5 7 756.42 54.39
5 -5 7 -10.6 10.2
5 5 7 19.6 12.9
5 5 7 -8.9 8.9
6 -5 7 142.39 29.1
6 5 7 113.89 25.4
6 5 7 160.48 28.2
6 -6 -7 46.8 17.6
6 -6 -7 73.49 13.5
6 6 -7 22.2 11.6
5 -6 -7 358.16 34.7
5 -6 -7 354.76 25.9
5 6 -7 374.56 34.4
4 -6 -7 48.3 14.9
4 -6 -7 50.99 8
4 6 -7 51.29 14.2
-3 -6 7 266.77 26.4
3 6 -7 277.27 25.9
-2 -6 7 8 7.8
-2 6 7 20.2 8
2 6 -7 8.3 7.4
-1 -6 7 1055.89 59.39
-1 -6 7 1018.7 61.29
-1 6 7 973.7 58.29
1 6 -7 850.41 57.89
0 -6 7 52.39 12
0 6 7 58.69 11.8
0 6 -7 50.09 12.1
1 -6 7 617.94 43.6
1 -6 7 739.13 47.9
1 6 7 685.93 35.9
1 6 7 678.63 37.8
-1 6 -7 608.74 45.2
2 -6 7 36.1 11.8
2 6 7 32.5 10.4
2 6 7 34.1 11.3
3 6 7 276.47 26.1
3 6 7 297.67 27.1
4 -6 7 52.59 14.6
4 6 7 40.5 13.7
5 -6 7 283.67 32.2
5 6 7 241.58 32.8
5 6 7 314.87 31.9
6 -6 7 10.4 11.4
6 6 7 -8.4 9.5
5 -7 -7 33.8 8.2
5 -7 -7 51.29 16.2
5 7 -7 38.6 13.9
4 -7 -7 197.08 23.6
4 -7 -7 175.68 12.7
4 7 -7 213.08 24.2
-3 -7 7 16.4 9.2
3 7 -7 6.6 7.3
-2 -7 7 622.44 41.6
2 7 -7 502.75 41.9
-2 7 7 526.95 39.3
-1 -7 7 774.42 49.4
1 7 -7 823.32 52.09
-1 7 7 784.02 50.49
0 7 -7 1934.51 100.99
0 7 7 1687.53 95.09
1 -7 7 610.84 42.9
1 7 7 587.54 31.1
1 7 7 603.54 32.8
-1 7 -7 529.25 41.7
2 -7 7 325.37 31.4
2 7 7 381.26 29.9
3 -7 7 48.1 15.7
3 7 7 51.09 13
3 7 7 45.8 12.7
4 -7 7 138.39 27.1
4 7 7 69.29 27.4
4 7 7 168.78 22
5 -7 7 10.3 15.7
5 7 7 9.4 12.1
5 7 7 7.7 11.7
5 -8 -7 78.29 19.7
5 -8 -7 55.19 11
5 8 -7 29.3 20.9
4 -8 -7 -0.2 8.3
4 8 -7 19 10.1
-3 -8 7 418.56 34.5
3 8 -7 408.36 34.1
-2 -8 7 289.87 27.3
-2 8 7 263.27 26.9
2 8 -7 317.57 27.7
-1 -8 7 747.43 45.6
1 8 -7 751.82 48.9
-1 8 7 616.54 49.1
0 8 -7 44.9 12.1
0 8 7 48.4 10.9
1 -8 7 785.92 53.89
1 8 7 839.62 42
1 8 7 795.72 49.5
-1 8 -7 906.71 56.89
2 -8 7 286.07 27.8
2 8 7 303.17 26
2 8 7 293.47 26.6
3 8 7 242.58 24.4
3 8 7 296.87 24.8
4 -8 7 21.1 12
4 8 7 8 9.8
4 8 7 10.2 12.1
5 -8 7 59.29 17.2
5 8 7 39.1 16.2
5 8 7 46.9 17.1
5 9 -7 13.6 9.7
4 9 -7 45.8 12.7
-3 -9 7 154.68 21.9
3 9 -7 182.98 22.3
-2 -9 7 474.85 38.4
-2 9 7 531.55 39.3
2 9 -7 604.54 41.8
-1 -9 7 101.79 14.1
1 9 -7 89.89 18.3
0 9 7 865.51 52.79
0 9 -7 923.51 59.09
1 -9 7 37.3 10.9
1 9 7 46.5 10
-1 9 -7 57.59 13.4
2 -9 7 759.12 55.09
2 9 7 864.71 52.69
2 9 7 876.11 48.7
3 -9 7 79.49 16.9
3 9 7 56.49 11.4
4 -9 7 25.2 11.5
4 9 7 22.4 10.7
4 9 7 22.9 10.6
5 -9 7 14.4 16.6
5 9 7 25.6 11.2
5 9 7 -8.4 11
4 10 -7 66.09 21.9
-3 -10 7 264.27 26.7
3 10 -7 255.17 27
-2 -10 7 41.4 12.3
2 10 -7 38.9 11.5
-2 10 7 40.5 12
-1 -10 7 684.03 45.2
1 10 -7 798.22 51.89
0 -10 7 119.29 16.6
0 10 7 100.99 14.4
0 10 -7 88.69 17.8
1 -10 7 851.41 54.39
1 10 7 803.52 48.6
-1 10 -7 777.92 55.39
2 -10 7 24.7 11
2 10 7 3.5 7.4
2 10 7 19.1 6.3
2 10 7 30.4 7.1
3 -10 7 424.66 37.6
3 10 7 422.76 31.2
3 10 7 424.36 33.7
4 -10 7 31.3 15.4
4 10 7 49 13.6
4 10 7 10 15.2
4 11 -7 279.97 29.5
-3 -11 7 23.1 16.2
3 11 -7 42.2 18.9
-2 -11 7 314.27 27
2 11 -7 302.17 29.3
-2 11 7 307.97 31.2
-1 -11 7 17.9 9.3
-1 11 7 31.5 16
1 11 -7 27.6 10
0 -11 7 341.57 28.9
0 -11 7 301.37 24.9
0 11 -7 336.67 30.8
0 11 7 287.27 24.9
1 -11 7 37.5 12.1
1 11 7 59.79 12.3
1 11 7 40.3 8.1
-1 11 -7 29.5 11
2 -11 7 287.37 28.4
2 11 7 254.67 17.8
2 11 7 259.47 23.1
2 11 7 250.77 21.4
3 -11 7 16.2 12.2
3 11 7 4.4 8.5
3 11 7 17.2 7.4
4 -11 7 247.18 31
4 11 7 204.38 28.3
4 11 7 226.38 25.2
-3 -12 7 189.68 32.1
3 12 -7 189.78 24.2
-2 -12 7 81.19 15.8
-2 12 7 61.49 23.8
2 12 -7 86.79 21.4
-1 -12 7 349.27 28.6
-1 -12 7 332.37 27.1
1 12 -7 316.87 30.7
0 -12 7 16.1 8.8
0 -12 7 3.2 7.6
0 12 -7 6.5 7.4
0 12 7 16.3 7.6
1 -12 7 242.28 26.8
1 12 7 256.07 21
-1 12 -7 245.18 26.7
1 12 7 274.17 22.2
2 -12 7 18.4 11.4
2 12 7 41.4 9.3
2 12 7 19.6 4.7
2 12 7 19.3 7.2
3 -12 7 99.59 22.6
3 12 7 136.39 17.3
3 12 7 142.49 15.2
-2 -13 7 308.77 25.7
2 13 -7 260.17 28.2
-1 -13 7 64.19 14.3
-1 -13 7 85.19 15.4
-1 13 7 44.9 22.6
1 13 -7 64.19 16.4
0 -13 7 453.65 31.8
0 -13 7 417.76 33
0 13 7 406.86 29.4
1 -13 7 19.1 11.1
1 13 7 50.99 9.6
1 13 7 49.7 10.5
-1 13 -7 37.2 14.5
2 -13 7 230.68 40.6
2 13 7 214.58 18.7
2 13 7 153.48 12.7
0 -14 7 63.19 14.9
0 14 -7 53.39 13.2
6 0 -8 225.58 28.5
6 0 -8 270.27 29.1
5 0 -8 -2.4 7
5 0 -8 -5.1 8.4
4 0 -8 169.88 18.2
-4 0 8 140.79 23.1
-3 0 8 -10.7 6
3 0 -8 2.3 4.3
2 0 -8 1354.16 71.19
-2 0 8 1296.77 77.19
-2 0 8 1294.27 72.69
-1 0 8 -5.2 3.9
1 0 -8 5 4.4
-1 0 8 -1.3 5
0 0 8 1018.1 58.89
0 0 -8 1132.99 60.69
1 0 8 0.9 3.4
2 0 8 1170.18 67.69
2 0 8 1261.27 75.39
3 0 8 -9 4.7
3 0 8 -7.2 7.2
4 0 8 115.29 23.8
5 0 8 15.5 9.5
6 0 8 548.25 48.1
6 -1 -8 156.28 23.8
6 -1 -8 102.59 20.3
6 1 -8 110.99 26.4
6 1 -8 152.28 25.4
5 -1 -8 122.09 17.6
5 -1 -8 130.89 23.7
5 1 -8 147.49 21.1
5 1 -8 119.29 20.2
-4 -1 8 12.7 8.3
4 -1 -8 9.9 6.6
4 1 -8 -2.9 5.8
-4 1 8 -0.5 8
3 -1 -8 984.2 53.79
-3 -1 8 930.11 58.79
-3 1 8 913.81 55.99
3 1 -8 959.9 55.59
-2 -1 8 50.69 11.5
-2 -1 8 35.5 11.7
2 -1 -8 42.6 8.7
-2 1 8 68.49 11.9
2 1 -8 52.89 10.5
-2 1 8 56.29 13.2
-1 -1 8 1641.54 95.59
1 -1 -8 1851.61 91.19
-1 -1 8 1707.43 92.29
-1 1 8 1657.43 95.89
-1 1 8 1785.32 90.19
1 1 -8 1840.42 92.59
0 -1 8 6.3 5.3
0 1 8 5.6 4.1
0 1 -8 5.3 5.1
1 -1 8 1820.12 95.79
1 1 8 1834.32 94.19
2 -1 8 54.99 15.7
3 -1 8 347.97 37.4
4 -1 8 4.9 10.3
4 1 8 35.3 13.1
5 -1 8 66.69 20.9
5 1 8 68.39 17.9
6 -1 8 35.6 17.9
6 1 8 5.3 13.7
6 -2 -8 247.08 25.3
6 -2 -8 194.78 27.9
6 2 -8 242.98 27.1
6 2 -8 116.09 39.1
5 -2 -8 71.99 14.3
5 -2 -8 59.29 17.3
5 2 -8 50.89 13.7
4 -2 -8 391.76 27.7
-4 2 8 350.16 30.7
4 2 -8 391.46 31.1
-3 -2 8 126.29 19.5
3 -2 -8 161.98 15
-3 2 8 146.79 17
3 2 -8 169.38 17.9
2 -2 -8 923.21 51.39
-2 -2 8 921.71 57.39
-2 -2 8 983.8 60.59
-2 2 8 906.01 59.09
-2 2 8 984.6 53.49
2 2 -8 969.1 55.99
-1 -2 8 384.46 31.6
-1 -2 8 372.46 29.2
1 -2 -8 415.36 26.2
-1 2 8 398.06 31.8
-1 2 8 401.46 27.5
1 2 -8 443.96 30.2
0 -2 8 939.21 55.19
0 2 -8 971 56.59
0 2 8 922.61 51.09
1 -2 8 276.67 23.4
1 2 8 283.87 20.9
2 -2 8 1032 68.49
2 -2 8 1128.89 63.49
2 2 8 1100.09 60.99
3 -2 8 72.99 16.1
3 2 8 89.19 23.8
3 2 8 100.09 14.1
4 -2 8 208.58 25.9
4 2 8 233.38 26.3
5 -2 8 13.4 11
5 2 8 31.3 13.3
6 -2 8 84.79 25.1
6 2 8 112.29 26.7
6 -3 -8 -6.2 7.8
6 -3 -8 12.4 10.5
6 3 -8 11.4 18.6
6 3 -8 4.3 8.8
5 -3 -8 380.26 34.8
5 -3 -8 342.47 27.5
5 3 -8 318.27 30.8
4 -3 -8 197.18 17.4
4 3 -8 173.88 21.4
-3 -3 8 440.96 37.9
3 3 -8 543.65 36.5
-3 3 8 487.95 32.7
-2 -3 8 150.78 20.8
2 -3 -8 175.18 14.6
-2 -3 8 238.98 22.8
2 3 -8 191.08 19.7
-2 3 8 216.88 23.5
-2 3 8 198.08 16.1
-1 -3 8 814.82 49.5
-1 -3 8 818.62 50.79
-1 3 8 741.83 49.8
-1 3 8 749.82 42.2
1 3 -8 747.13 47.8
0 -3 8 619.24 40.1
0 3 -8 562.14 40
0 3 8 616.94 34.3
1 -3 8 629.84 42.5
1 3 8 636.04 37
2 -3 8 160.68 21.6
2 3 8 119.29 13.4
3 -3 8 579.34 46.5
3 3 8 627.14 45.5
4 -3 8 78.99 18.5
4 3 8 101.69 20.9
5 -3 8 196.58 27.6
5 3 8 186.28 25.4
6 -3 8 -0.6 11.3
6 3 8 3.7 11.3
6 -4 -8 143.19 23.1
5 -4 -8 44.8 10.6
5 -4 -8 21.3 11.9
5 4 -8 13.8 12
4 -4 -8 1191.48 63.89
4 4 -8 1229.48 72.59
3 -4 -8 24.2 5.2
3 4 -8 21.2 8.2
-2 -4 8 267.87 26.2
2 -4 -8 253.97 17.3
-2 -4 8 332.57 27.6
-2 4 8 278.67 18.7
2 4 -8 263.47 24.5
-2 4 8 334.77 37.5
-1 -4 8 199.18 20.6
-1 -4 8 220.78 21.6
-1 4 8 190.98 14.1
-1 4 8 216.18 21.3
1 4 -8 195.88 20.5
0 -4 8 744.83 46.4
0 4 8 730.43 46.7
0 4 8 783.32 38.6
0 4 -8 574.54 44.8
1 -4 8 162.08 17.9
1 4 8 165.98 13.3
2 -4 8 273.67 27.7
2 4 8 244.98 19.4
3 -4 8 63.19 16.3
3 4 8 36.5 16.9
4 -4 8 951.1 66.89
4 4 8 1001.3 64.89
5 -4 8 19.1 11.7
5 4 8 20.1 11.9
5 4 8 28.4 14.4
6 -4 8 58.29 17.7
6 4 8 -4.9 14.2
6 -5 -8 -19.2 8.5
6 -5 -8 -3.2 9.1
6 5 -8 14.9 11.2
5 -5 -8 409.76 36.5
5 -5 -8 372.86 27.2
5 5 -8 399.46 35
4 -5 -8 108.89 14.7
4 5 -8 120.59 18.8
3 -5 -8 983.3 49.99
3 5 -8 1001.7 61.19
-2 -5 8 1.8 7.9
2 5 -8 -0.9 5.1
-1 -5 8 1102.89 65.89
-1 -5 8 1079.39 64.99
1 5 -8 1043 63.89
-1 5 8 1092.79 64.99
0 -5 8 49.7 11.6
0 5 -8 58.19 12.9
0 5 8 55.19 6
0 5 8 63.09 13.8
1 5 8 779.72 40.6
-1 5 -8 691.13 49.2
2 -5 8 -12.3 5.4
2 5 8 16.5 9.1
2 5 8 -0.7 3.8
3 -5 8 618.24 47.8
3 5 8 676.13 46.8
3 5 8 615.04 50.79
4 -5 8 156.88 30
4 5 8 142.49 26.4
4 5 8 130.69 20.2
5 -5 8 114.39 24.8
5 5 8 112.49 23.7
5 5 8 151.88 23.5
5 -6 -8 7.2 6
5 -6 -8 9.3 10.1
5 6 -8 18.6 10.3
4 -6 -8 358.26 20.7
4 6 -8 289.47 29.8
3 6 -8 116.59 17.1
-2 -6 8 541.65 39.7
2 6 -8 559.34 40.3
-1 -6 8 287.77 26.7
1 6 -8 317.37 29.7
-1 6 8 271.37 25.1
0 6 8 917.61 58.79
0 6 -8 1059.79 62.69
1 6 8 209.58 16.5
1 6 8 213.58 14.5
2 -6 8 505.15 46.6
2 6 8 365.16 26
2 6 8 446.26 35
2 6 8 401.16 29.7
3 -6 8 92.49 20.5
3 6 8 74.09 18.6
3 6 8 78.59 16
4 -6 8 222.48 29.5
4 6 8 289.17 29.3
4 6 8 280.07 30.9
5 -6 8 1.5 18
5 6 8 21.9 14.5
5 6 8 6.3 12.2
5 -7 -8 22.6 13.7
5 7 -8 5.3 11.6
4 7 -8 19.4 8.3
3 7 -8 575.24 42.4
-2 -7 8 87.89 17.5
2 7 -8 100.69 18.2
-1 -7 8 753.72 50.09
1 7 -8 803.42 51.69
-1 7 8 736.53 49.1
0 7 8 31.3 9.5
0 7 -8 42.1 11.9
1 -7 8 719.93 51.39
1 7 8 717.33 39.1
-1 7 -8 766.12 51.99
1 7 8 721.63 37.5
2 -7 8 74.09 26.3
2 7 8 94.89 10.3
2 7 8 83.39 14.7
2 7 8 102.79 18.5
3 -7 8 578.94 44.7
3 7 8 467.95 41
3 7 8 527.25 38.1
4 -7 8 18.5 12
4 7 8 20.3 11.7
4 7 8 27 12.9
5 -7 8 55.09 20.7
5 7 8 75.89 19.8
5 7 8 66.29 17.4
5 8 -8 23.5 10.2
4 8 -8 146.29 21
3 8 -8 71.39 15.6
-2 -8 8 682.73 46.8
2 8 -8 725.83 49.5
-1 -8 8 55.09 12.4
1 8 -8 41.9 12.7
-1 8 8 43.7 12.4
0 8 8 518.95 37.5
0 8 -8 566.74 41.8
1 -8 8 24.1 11.7
-1 8 -8 25.2 10.7
1 8 8 25.9 8.3
2 -8 8 534.65 44.4
2 8 8 560.84 32.4
2 8 8 565.64 41.1
3 -8 8 19 11.2
3 8 8 20 10
3 8 8 17.1 8.4
4 -8 8 125.89 24
4 8 8 114.19 22.8
4 8 8 152.88 21.4
5 -8 8 2.5 12.4
5 8 8 6 15
5 8 8 11 10.7
4 9 -8 -8.5 8
3 9 -8 423.46 36.3
-2 -9 8 130.89 18.8
2 9 -8 138.89 19.8
-1 -9 8 328.27 29
1 9 -8 382.66 32.2
-1 9 8 361.66 31.9
0 9 -8 109.39 17.4
0 9 8 112.79 15.4
1 -9 8 490.05 38.5
1 9 8 468.45 34.2
-1 9 -8 445.36 38.6
2 -9 8 91.69 19.3
2 9 8 127.99 12.6
2 9 8 121.39 18.2
2 9 8 110.59 12.7
3 -9 8 258.57 29.7
3 9 8 272.17 25.9
3 9 8 201.78 22.4
4 -9 8 -4.2 11.1
4 9 8 -3.8 9
4 9 8 13 19.2
4 10 -8 161.48 22.9
3 10 -8 69.19 19.8
2 10 -8 271.87 27.5
-1 -10 8 -5.6 8.2
-1 10 8 -6.9 8.8
1 10 -8 12.5 7.7
0 -10 8 96.19 19.2
0 -10 8 83.39 16.2
0 10 -8 86.99 18.3
0 10 8 88.09 15.6
1 -10 8 35.3 11.9
1 10 8 13 8.2
-1 10 -8 29.6 10.4
2 -10 8 462.25 39.2
2 10 8 496.35 36.1
2 10 8 421.16 32.4
2 10 8 452.05 27.2
3 -10 8 86.09 19
3 10 8 138.99 19.6
3 10 8 124.79 15.7
4 -10 8 106.29 23
4 10 8 109.49 21
-2 -11 8 37.7 12.9
-1 -11 8 219.58 23.1
1 11 -8 214.18 24.8
0 -11 8 -8.4 7.1
0 -11 8 -16.7 7.5
0 11 8 -1.2 7.9
0 11 -8 5 7.4
1 -11 8 394.86 34.9
1 11 8 366.96 28.6
-1 11 -8 363.06 34.1
2 -11 8 1.8 10.3
2 11 8 24.9 4.5
2 11 8 -1.1 7.8
2 11 8 10.3 4
2 11 8 37.1 11.4
3 -11 8 220.68 30.4
3 11 8 255.67 21.1
3 11 8 216.88 25.6
-2 -12 8 271.57 30.4
2 12 -8 276.77 28.9
-1 -12 8 112.49 17.7
-1 -12 8 98.49 16.7
1 12 -8 92.19 18.1
0 -12 8 311.87 27.9
0 -12 8 298.67 29.5
0 12 -8 245.08 45.6
0 12 8 275.77 26.4
-1 12 -8 89.29 17.4
1 12 8 88.39 15.5
1 12 8 89.99 14.7
2 -12 8 319.67 32.1
2 12 8 302.27 26.5
-1 -13 8 156.28 22.2
1 13 -8 153.08 22
0 -13 8 84.39 16
0 13 -8 36.1 12
-1 13 -8 161.38 23.3
1 13 8 188.98 20.5
6 0 -9 -2 10.2
5 0 -9 384.76 32.3
4 0 -9 -10.5 4.7
-4 0 9 2 9.1
3 0 -9 474.85 33.1
-3 0 9 466.95 35.4
2 0 -9 5.1 4.4
-2 0 9 5.5 6.5
1 0 -9 583.34 37.9
-1 0 9 593.54 38.1
0 0 9 13.2 5.2
1 0 9 828.02 49.6
2 0 9 9 8.9
2 0 9 0.3 4.7
3 0 9 406.86 36.7
4 0 9 -13.7 7.1
5 0 9 240.38 29.9
6 -1 -9 325.17 30.8
6 1 -9 256.17 29.7
5 -1 -9 62.19 21.1
5 1 -9 24.6 9.9
4 -1 -9 138.89 16.3
-4 1 9 94.19 18.9
4 1 -9 139.99 17.5
3 -1 -9 20.6 7
-3 -1 9 13.3 9.2
3 1 -9 22.5 7.9
-3 1 9 20.1 9.3
2 -1 -9 653.63 40
-2 -1 9 642.94 43.9
-2 1 9 665.53 42
2 1 -9 691.43 42.6
-1 -1 9 53.19 10.8
1 -1 -9 46.1 9.6
1 1 -9 48.4 10.8
-1 1 9 53.89 10.5
0 -1 9 956.3 55.39
0 1 -9 924.11 56.39
0 1 9 955.4 53.29
1 1 9 23.3 6.7
2 -1 9 623.74 47.8
2 -1 9 587.44 40
3 -1 9 57.19 16
3 1 9 59.59 16.1
4 -1 9 142.49 23.5
4 1 9 144.49 22.8
5 -1 9 107.19 31
5 1 9 91.69 22
5 -2 -9 219.98 22.5
5 2 -9 252.37 26
4 -2 -9 -1.6 5.7
-4 2 9 14.7 8.5
4 2 -9 -4.7 6
3 -2 -9 384.96 25.4
-3 2 9 313.07 27
3 2 -9 370.76 29.2
-2 -2 9 37.6 9.9
2 2 -9 31.6 8.6
-1 2 9 287.07 21.1
1 2 -9 266.27 24.2
0 2 -9 74.69 14.6
0 2 9 68.39 9.4
1 -2 9 496.65 34.5
1 2 9 493.95 31.8
2 -2 9 97.19 21.6
2 2 9 90.69 12.6
3 -2 9 340.17 34.1
3 2 9 368.06 28.2
3 2 9 319.67 32.2
4 -2 9 17.8 12.3
4 2 9 35.7 13.9
5 2 9 190.88 25.7
5 -3 -9 18.3 8.3
5 3 -9 2.5 11.4
4 -3 -9 496.75 32.1
4 3 -9 494.05 37.2
3 3 -9 1.9 6.9
-3 3 9 5.1 7.7
-2 -3 9 499.55 35.4
2 -3 -9 371.96 25.6
2 3 -9 367.36 30.9
-2 3 9 436.46 28.6
-1 -3 9 184.68 19.1
1 3 -9 164.08 19.5
0 -3 9 936.81 56.99
0 3 -9 850.11 56.99
0 3 9 1004.3 51.19
1 -3 9 210.58 21
1 3 9 219.18 17.4
2 -3 9 497.15 42.2
2 3 9 504.35 33.3
3 -3 9 85.59 21.2
3 3 9 104.59 14.1
3 3 9 119.99 23
4 -3 9 262.87 31.6
4 3 9 263.07 28.8
5 -3 9 20.6 14.1
5 3 9 29.1 11.9
5 -4 -9 249.97 22.3
5 4 -9 309.67 29.4
4 -4 -9 144.79 14.1
4 4 -9 116.69 18.4
3 4 -9 111.79 17.3
-2 4 9 11.5 6
2 4 -9 18.3 9.1
-1 -4 9 1042.9 69.99
1 4 -9 823.42 54.89
-1 4 9 838.32 46.3
0 -4 9 17.7 10.2
0 4 9 13.5 4.4
0 4 -9 2.7 7
1 4 9 626.04 36.4
2 -4 9 11.9 10
2 4 9 -1.7 5.1
3 -4 9 165.28 29.3
3 4 9 169.78 17.3
3 4 9 139.49 21.2
4 -4 9 52.59 15.2
4 4 9 33.9 13.6
5 -4 9 114.99 25.7
5 4 9 113.49 25.7
5 4 9 182.58 26.7
5 -5 -9 26.9 8.3
5 5 -9 23.9 10.7
4 -5 -9 374.86 25.6
4 5 -9 434.96 34.6
3 -5 -9 168.48 11.9
3 5 -9 133.99 19.6
2 5 -9 297.67 27.3
1 5 -9 188.68 37.9
0 5 9 1546.95 75.89
1 5 9 169.28 13.7
2 -5 9 306.67 32.1
2 5 9 322.07 33.3
2 5 9 321.47 23.1
3 -5 9 64.89 15.7
3 5 9 68.19 16.9
3 5 9 45.2 10.6
4 -5 9 431.16 40.7
4 5 9 427.16 38.3
4 5 9 399.96 38.7
5 -5 9 5.8 11.9
5 5 9 40 14
5 5 9 3.7 12.4
5 -6 -9 227.68 21
5 6 -9 221.98 27.3
4 6 -9 31.9 12
3 6 -9 469.75 37.8
2 6 -9 63.19 13.6
1 6 -9 495.65 38.2
0 6 -9 101.79 19.7
-1 6 -9 573.34 41.3
1 6 9 484.05 30.9
1 6 9 488.85 28.6
2 -6 9 74.59 17.9
2 6 9 92.49 15.7
2 6 9 77.19 10.7
2 6 9 108.49 22.7
3 -6 9 498.25 41.7
3 6 9 422.66 36.7
3 6 9 477.35 37.8
3 6 9 477.95 39.4
4 -6 9 32.3 13.1
4 6 9 11.1 12.3
4 6 9 -5.9 8.2
5 -6 9 84.79 23.3
5 6 9 111.39 22.8
5 6 9 117.19 24.3
4 7 -9 215.78 24.9
3 7 -9 48.3 13.4
2 7 -9 701.93 49.1
1 7 -9 111.09 20.4
0 7 -9 963.3 62.79
1 -7 9 43.4 14.2
1 7 9 37.5 5.3
1 7 9 58.09 8.4
-1 7 -9 41 11.8
2 -7 9 481.25 40.6
2 7 9 386.96 37.3
2 7 9 486.35 31.8
2 7 9 433.56 27.9
3 -7 9 43 13.3
3 7 9 16.1 11.7
3 7 9 39 12.2
3 7 9 58.39 13.8
4 -7 9 173.98 25.9
4 7 9 134.59 25.1
4 7 9 165.38 22.9
4 8 -9 93.29 20
3 8 -9 347.27 32.5
2 8 -9 -6.3 6.4
1 8 -9 323.77 30.7
0 8 -9 1.2 5.4
1 -8 9 332.77 32.6
-1 8 -9 376.86 34
2 -8 9 2.9 10.1
2 8 9 4.4 4.2
2 8 9 -4 6.2
3 -8 9 240.38 31.3
3 8 9 309.77 23.2
3 8 9 281.37 29.3
3 8 9 321.37 26.8
4 -8 9 19.6 15.3
4 8 9 33.2 12.4
4 8 9 1 12
4 9 -9 81.79 17.7
2 9 -9 201.78 23.1
1 9 -9 54.09 14.7
0 9 -9 146.99 21.1
1 -9 9 23 11.3
-1 9 -9 0.8 6.9
2 -9 9 147.19 22.3
2 9 9 158.08 20.6
2 9 9 127.59 12.8
3 -9 9 4.7 11.4
3 9 9 -3.1 8.3
3 9 9 10 8.3
3 9 9 5.2 7
3 10 -9 207.58 24.8
2 10 -9 84.09 27
1 10 -9 267.97 27.6
0 -10 9 59.59 16.2
0 10 -9 48.4 14.2
1 -10 9 345.47 33.1
-1 10 -9 278.47 30.6
2 -10 9 60.59 17.3
2 10 9 69.69 14.6
2 10 9 69.99 8.1
3 -10 9 23.4 13.7
3 10 9 27 8.6
3 10 9 58.79 13.8
2 11 -9 219.78 25.3
1 11 -9 33.5 11.8
0 -11 9 371.66 32.9
0 11 -9 253.27 29.1
1 -11 9 42.5 13.1
-1 11 -9 37.8 11.4
2 -11 9 308.67 32.9
2 11 9 337.97 31.9
-1 -12 9 243.38 27.8
1 12 -9 200.18 27.5
0 -12 9 57.79 16.9
0 12 -9 35 13.5
1 -12 9 336.67 33.9
-1 12 -9 342.77 34.1
1 12 9 280.87 34.3
5 0 -10 3.7 7.5
4 0 -10 229.58 23.5
3 0 -10 8.7 6.8
-3 0 10 -0.9 8.4
-2 0 10 938.11 60.49
2 0 -10 982.7 56.59
1 0 -10 6.9 5.4
0 0 10 144.19 16.1
1 0 10 0.4 5.4
2 0 10 612.64 49.3
3 0 10 6.2 8.2
4 0 10 142.09 23.4
5 0 10 14.5 12.4
5 -1 -10 184.78 20.6
5 1 -10 167.28 21.8
4 -1 -10 12.8 8.3
4 1 -10 13.6 9.3
-4 1 10 6.9 10.3
3 -1 -10 838.82 49
-3 -1 10 885.11 62.99
-3 1 10 763.32 52.39
3 1 -10 794.12 50.59
-2 -1 10 102.99 16.3
2 -1 -10 86.69 12.4
-2 1 10 103.19 16.4
2 1 -10 91.39 13.7
-1 -1 10 233.98 22.1
1 -1 -10 240.48 20.5
-1 1 10 227.08 21
1 1 -10 237.78 22.1
0 -1 10 3.5 4.8
0 1 10 -1.9 4.9
1 -1 10 277.87 24.6
1 1 10 304.87 23.1
2 -1 10 77.79 17.9
2 1 10 43.8 9
3 -1 10 517.05 44.1
3 1 10 491.25 43
4 -1 10 -2.8 9.8
4 1 10 6.4 10.1
5 -1 10 136.19 29.3
5 1 10 114.09 24.9
5 -2 -10 5.4 9.4
5 2 -10 -0.9 8.4
4 -2 -10 391.46 28.3
4 2 -10 389.16 31.7
-4 2 10 320.57 37.1
3 -2 -10 121.89 13.2
3 2 -10 84.69 21
-3 2 10 85.29 16.7
-2 -2 10 551.84 45.4
2 -2 -10 581.24 35.6
2 2 -10 546.15 38.9
-2 2 10 557.34 37.1
-1 -2 10 168.78 19.1
1 2 -10 177.88 19.5
-1 2 10 147.59 15.7
0 -2 10 135.19 16.9
0 2 -10 117.49 16.6
0 2 10 126.39 14
1 2 10 177.28 16.6
2 -2 10 526.15 44
2 2 10 439.56 31.9
3 -2 10 136.69 21.1
3 2 10 85.19 20.2
4 -2 10 203.68 27.7
4 2 10 159.18 25.7
5 -2 10 10.5 12.5
5 2 10 11.8 12.9
5 -3 -10 138.69 16.2
5 3 -10 94.49 18.3
4 -3 -10 20.9 8.5
4 3 -10 16.2 9.6
3 -3 -10 333.57 23.1
-3 3 10 259.37 24.8
3 3 -10 328.97 28.2
2 3 -10 12.2 11.3
-2 3 10 22.5 7.5
-1 3 10 1058.69 58.09
1 3 -10 1088.79 65.09
0 3 -10 248.48 25.1
0 3 10 257.07 19.3
1 3 10 792.22 45.7
2 -3 10 26.6 13.9
3 -3 10 194.58 27.9
3 3 10 221.58 26.8
4 -3 10 16.6 11.4
4 3 10 1.7 8.2
5 -3 10 111.79 27
5 3 10 123.29 26.7
5 -4 -10 -6.3 6.8
5 4 -10 8.7 10.9
4 -4 -10 202.48 16.9
4 4 -10 193.98 22.4
3 4 -10 44.7 10.7
-2 4 10 323.97 23.4
2 4 -10 380.76 30.8
-1 4 10 45.8 8.1
1 4 -10 34.2 10.9
0 4 -10 1654.13 91.39
0 4 10 1525.65 79.89
1 4 10 34.4 7.6
2 -4 10 475.05 40.3
2 4 10 421.16 29.5
3 -4 10 122.89 24.6
3 4 10 69.69 15.8
3 4 10 105.39 21.7
4 -4 10 135.79 42
4 4 10 163.18 25.3
4 -5 -10 43.7 8.5
4 5 -10 57.29 15.1
2 5 -10 55.39 13.9
1 5 -10 801.22 53.89
0 5 -10 303.47 28.9
0 5 10 276.77 18.4
1 5 10 652.73 37
2 -5 10 18.6 11.9
2 5 10 9.8 8.9
2 5 10 8.3 5.9
3 -5 10 360.36 38
3 5 10 356.06 27.4
3 5 10 392.66 35.9
4 -5 10 60.09 20.9
4 5 10 31.8 14
4 5 10 37.6 16.5
4 6 -10 192.08 27.3
3 6 -10 48.1 12.2
2 6 -10 271.57 27.3
1 6 -10 106.59 16.9
0 6 -10 522.35 41.5
1 6 10 122.99 13.8
2 -6 10 337.87 34.7
2 6 10 317.47 22.5
2 6 10 377.56 34.8
2 6 10 321.97 27.6
3 -6 10 83.09 19.6
3 6 10 54.39 11.1
3 6 10 60.19 16.5
3 6 10 105.19 22.4
4 -6 10 262.77 32.9
4 6 10 280.37 31.7
4 6 10 256.97 31.6
4 7 -10 6 10.7
3 7 -10 426.36 36.7
2 7 -10 14.6 8.8
1 7 -10 254.87 26.7
0 7 -10 21.3 9.2
1 -7 10 155.08 25.1
2 -7 10 4.3 9.9
2 7 10 19.4 5.5
2 7 10 20 13.2
2 7 10 23.1 8.6
3 -7 10 307.77 35.3
3 7 10 319.47 29.6
3 7 10 337.97 25
3 7 10 349.37 33.8
4 -7 10 13.9 13.7
4 7 10 -6 11.6
4 7 10 18.6 12.3
3 8 -10 15.3 13.7
2 8 -10 307.77 29.7
1 8 -10 21.8 10.8
0 8 -10 115.99 18
1 -8 10 37.8 12.8
2 -8 10 174.08 26.6
2 8 10 214.88 25.2
2 8 10 184.28 14.7
3 -8 10 18.8 11.8
3 8 10 20.9 12.1
3 8 10 12 10.5
3 9 -10 194.88 24.6
2 9 -10 11.9 9.9
1 9 -10 175.88 25.3
0 9 -10 9.4 8.1
1 -9 10 172.68 25
2 -9 10 29.2 14.1
2 9 10 45.3 7.5
2 9 10 18 11.7
3 9 10 98.49 15.4
3 9 10 105.39 20.4
2 10 -10 407.76 35.9
1 10 -10 38.1 12.5
0 10 -10 89.09 17.2
1 -10 10 51.89 15.8
2 -10 10 405.16 39.1
2 10 10 382.96 35.4
0 11 -10 -5.9 8.3
4 0 -11 9.5 7.9
3 0 -11 626.44 41.4
-2 0 11 15.1 9.1
2 0 -11 10 6.8
1 0 -11 136.09 17.6
-1 0 11 184.58 19.4
0 0 11 -2.8 5.8
2 0 11 -9.4 9.7
3 0 11 471.85 42.1
4 0 11 -7.7 9
4 -1 -11 277.57 25.1
4 1 -11 261.47 26
3 -1 -11 51.69 10.9
3 1 -11 31.3 10.4
-3 1 11 23.4 12.4
2 -1 -11 319.97 26.3
2 1 -11 326.97 28
-2 1 11 380.56 34.1
-1 -1 11 176.58 22.5
1 1 -11 224.08 22.1
-1 1 11 218.68 21.3
1 1 11 276.57 22.9
2 -1 11 231.68 29.9
2 1 11 263.67 31.5
3 -1 11 44.6 15.4
3 1 11 22.8 12.7
4 -1 11 126.29 27.4
4 1 11 124.69 25.1
4 -2 -11 11.9 6.8
-4 2 11 7.2 10.9
4 2 -11 16.8 8.7
3 -2 -11 233.38 21
-3 2 11 209.98 22.9
3 2 -11 264.67 24.8
2 -2 -11 68.09 12.9
2 2 -11 62.09 14
-2 2 11 61.19 13.1
-1 2 11 662.13 41.6
0 2 11 384.16 27.6
1 2 11 555.04 40.1
2 -2 11 8.5 11
3 -2 11 222.48 28.8
3 2 11 184.88 26.4
4 -2 11 34.3 15.4
4 2 11 37.8 15.4
4 -3 -11 119.09 14.4
4 3 -11 76.69 16
3 -3 -11 6.3 6.7
3 3 -11 12.6 9.3
-3 3 11 1.1 9.2
2 3 -11 257.57 25.4
-2 3 11 273.07 22.5
-1 3 11 11 7.5
1 3 -11 23.8 9.6
0 3 11 863.51 49.4
1 3 11 13.8 6
2 -3 11 302.07 33.1
2 3 11 262.17 22.3
3 -3 11 8.7 14.7
3 3 11 55.19 15.9
4 -3 11 114.39 26.2
4 3 11 121.69 25.2
4 -4 -11 15 7.4
4 4 -11 17.6 10.5
3 4 -11 122.39 18
2 4 -11 -0.1 6.6
1 4 -11 585.24 43.1
0 4 -11 37.5 11.9
0 4 11 32.3 6.8
1 4 11 692.83 40.7
2 -4 11 -2.9 9.7
2 4 11 11.8 6.5
2 4 11 20.9 14
3 4 11 135.09 26.4
4 -4 11 24.8 15.2
4 4 11 18.9 11.7
4 5 -11 120.49 33
3 5 -11 51.29 13.1
2 5 -11 164.18 21
1 5 -11 26.3 11.9
0 5 11 642.14 40.5
0 5 -11 636.64 47.6
1 5 11 5.9 4.6
2 -5 11 227.68 28.6
2 5 11 251.27 30.8
2 5 11 233.28 19.1
3 -5 11 7.3 12.3
3 5 11 0.4 8.9
3 6 -11 41.2 13
2 6 -11 0.7 7.7
1 6 -11 248.38 27
0 6 -11 67.19 15.9
1 6 11 251.07 22.2
1 6 11 247.98 21.4
2 -6 11 -8.4 9.8
2 6 11 4.6 11.4
2 6 11 22.8 6.9
2 6 11 -3.8 8.7
3 -6 11 237.78 31.1
3 6 11 217.68 28.5
3 6 11 180.88 28.3
3 7 -11 140.89 21.2
2 7 -11 26.6 12.1
1 7 -11 53.59 13.4
0 7 -11 131.69 19.7
1 -7 11 29.5 13.7
2 -7 11 131.59 25.6
2 7 11 77.79 14.7
2 7 11 131.19 16.6
2 7 11 133.59 24.2
3 -7 11 95.89 22.6
3 7 11 59.39 17.3
3 7 11 86.09 17.6
2 8 -11 38 12.8
1 8 -11 149.19 28.3
0 8 -11 -1.1 9.4
1 -8 11 255.07 30.5
2 8 11 31.4 13.6
1 9 -11 53.09 15
0 9 -11 109.69 19.6
1 -9 11 81.89 22.5
3 0 -12 -4.7 7.4
2 0 -12 526.15 38.1
2 0 12 566.84 71.59
3 0 12 -5.1 7.8
3 -1 -12 276.37 25.5
3 1 -12 305.27 28
2 -1 -12 109.09 17.3
-2 1 12 112.79 18.2
2 1 -12 65.29 15
-1 1 12 220.38 23.6
1 1 -12 272.17 25.2
0 1 12 108.59 15.9
2 1 12 59.79 29.6
3 -1 12 193.98 27.7
3 1 12 179.08 27.1
3 -2 -12 9.5 8.1
-3 2 12 1.9 14.1
3 2 -12 16.3 9.2
2 2 -12 421.16 34.2
-2 2 12 417.66 33
1 2 -12 29.2 12
-1 2 12 55.99 11.9
0 2 12 499.65 36.7
1 2 12 12.7 7.3
2 -2 12 381.26 52.69
2 2 12 529.95 67.99
3 -2 12 21.7 13
3 2 12 18.1 13.9
3 3 -12 255.07 25.6
2 3 -12 23 10.1
-2 3 12 19.6 9.6
1 3 -12 327.47 30.1
-1 3 12 323.57 25.4
0 3 12 -3 6.2
1 3 12 211.28 19.4
2 -3 12 -17 11.5
2 3 12 -16.2 18.2
3 -3 12 75.19 21.7
3 3 12 97.39 22.2
3 4 -12 0.3 9.1
2 4 -12 266.37 27
-1 4 12 8.6 7.2
1 4 -12 1.7 8
0 4 12 456.05 29.9
1 4 12 17 6.3
2 -4 12 206.98 28.1
2 4 12 130.29 16
2 5 -12 2.6 8.1
1 5 -12 202.48 24
1 5 12 138.99 14.2
2 -5 12 3.2 11.3
2 5 12 9.4 19.9
2 6 -12 49.8 18.8
1 6 -12 31.8 13.5
0 6 -12 242.78 31.8
1 -6 12 14.2 15.7
2 -6 12 136.59 25.4
2 6 12 89.89 17.2
2 6 12 151.58 30.1
1 7 -12 154.38 23.2
0 7 -12 132.19 23.4
1 -7 12 100.09 21.7
2 0 -13 -13.9 7.6
2 1 -13 220.38 24.7
0 2 13 46.6 13.5
1 3 -13 22 12.1
