#------------------------------------------------------------------------------
#$Date: 2021-07-15 10:49:38 +0300 (Thu, 15 Jul 2021) $
#$Revision: 267548 $
#$URL: file:///home/coder/svn-repositories/cod/cif/1/56/41/1564155.cif $
#------------------------------------------------------------------------------
#
# This file is available in the Crystallography Open Database (COD),
# http://www.crystallography.net/
#
# All data on this site have been placed in the public domain by the
# contributors.
#
data_1564155
loop_
_publ_author_name
'Pandey, Souvik'
'Pradeep, Prajisha'
'Venugopal M, Anjali'
'Aswanth, A.A.'
'Andrews, Alex P.'
'Venugopal, Ajay'
_publ_section_title
;
 Incorporation of nitrate ions into halobismuthates
;
_journal_name_full               'Inorganica Chimica Acta'
_journal_page_first              119754
_journal_paper_doi               10.1016/j.ica.2020.119754
_journal_volume                  511
_journal_year                    2020
_chemical_formula_moiety         'Bi2 Br10, 4(C6 H9 N2)'
_chemical_formula_sum            'C24 H36 Bi2 Br10 N8'
_chemical_formula_weight         1653.67
_space_group_crystal_system      triclinic
_space_group_IT_number           2
_space_group_name_Hall           '-P 1'
_space_group_name_H-M_alt        'P -1'
_atom_sites_solution_hydrogens   geom
_audit_creation_method           SHELXL-2014
_cell_angle_alpha                102.6910(10)
_cell_angle_beta                 105.5270(10)
_cell_angle_gamma                103.9970(10)
_cell_formula_units_Z            1
_cell_length_a                   9.1931(3)
_cell_length_b                   11.2082(4)
_cell_length_c                   11.2833(4)
_cell_measurement_reflns_used    7523
_cell_measurement_temperature    296(2)
_cell_measurement_theta_max      28.44
_cell_measurement_theta_min      2.43
_cell_volume                     1035.39(6)
_computing_cell_refinement       'Bruker SAINT'
_computing_data_collection       'Bruker APEX2'
_computing_data_reduction        'Bruker SAINT'
_computing_molecular_graphics    'Bruker SHELXTL'
_computing_publication_material  'Bruker SHELXTL'
_computing_structure_refinement  'SHELXL-2014 (Sheldrick, 2014)'
_computing_structure_solution    'SHELXL-2014 (Sheldrick, 2014)'
_diffrn_ambient_temperature      296(2)
_diffrn_detector_area_resol_mean 0
_diffrn_measured_fraction_theta_full 0.997
_diffrn_measured_fraction_theta_max 0.996
_diffrn_measurement_device_type  'Bruker KAPPA APEX-II CCD'
_diffrn_measurement_method       '\f and \w scans'
_diffrn_radiation_type           MoK\a
_diffrn_radiation_wavelength     0.71073
_diffrn_reflns_av_R_equivalents  0.0339
_diffrn_reflns_av_unetI/netI     0.0302
_diffrn_reflns_Laue_measured_fraction_full 0.997
_diffrn_reflns_Laue_measured_fraction_max 0.996
_diffrn_reflns_limit_h_max       11
_diffrn_reflns_limit_h_min       -11
_diffrn_reflns_limit_k_max       13
_diffrn_reflns_limit_k_min       -13
_diffrn_reflns_limit_l_max       13
_diffrn_reflns_limit_l_min       -13
_diffrn_reflns_number            16254
_diffrn_reflns_point_group_measured_fraction_full 0.997
_diffrn_reflns_point_group_measured_fraction_max 0.996
_diffrn_reflns_theta_full        25.242
_diffrn_reflns_theta_max         25.998
_diffrn_reflns_theta_min         3.113
_diffrn_source                   'sealed tube'
_exptl_absorpt_coefficient_mu    18.163
_exptl_absorpt_correction_T_max  0.171
_exptl_absorpt_correction_T_min  0.093
_exptl_absorpt_correction_type   multi-scan
_exptl_absorpt_process_details   SADABS
_exptl_crystal_colour            yellow
_exptl_crystal_density_diffrn    2.652
_exptl_crystal_density_meas      2.651
_exptl_crystal_density_method    NONE
_exptl_crystal_description       block
_exptl_crystal_F_000             752
_exptl_crystal_size_max          0.250
_exptl_crystal_size_mid          0.150
_exptl_crystal_size_min          0.150
_refine_diff_density_max         0.628
_refine_diff_density_min         -0.623
_refine_diff_density_rms         0.095
_refine_ls_extinction_coef       0.00578(14)
_refine_ls_extinction_expression Fc^*^=kFc[1+0.001xFc^2^\l^3^/sin(2\q)]^-1/4^
_refine_ls_extinction_method     SHELXL
_refine_ls_goodness_of_fit_ref   1.020
_refine_ls_hydrogen_treatment    constr
_refine_ls_matrix_type           full
_refine_ls_number_parameters     204
_refine_ls_number_reflns         4060
_refine_ls_number_restraints     0
_refine_ls_restrained_S_all      1.020
_refine_ls_R_factor_all          0.0274
_refine_ls_R_factor_gt           0.0197
_refine_ls_shift/su_max          0.002
_refine_ls_shift/su_mean         0.000
_refine_ls_structure_factor_coef Fsqd
_refine_ls_weighting_details
'w=1/[\s^2^(Fo^2^)+(0.0160P)^2^] where P=(Fo^2^+2Fc^2^)/3'
_refine_ls_weighting_scheme      calc
_refine_ls_wR_factor_gt          0.0383
_refine_ls_wR_factor_ref         0.0399
_reflns_Friedel_coverage         0.000
_reflns_Friedel_fraction_full    .
_reflns_Friedel_fraction_max     .
_reflns_number_gt                3499
_reflns_number_total             4060
_reflns_threshold_expression     'I > 2\s(I)'
_cod_data_source_file            ICA-2020-511-119754.cif
_cod_data_source_block           2
_cod_database_code               1564155
_shelx_space_group_comment
;
The symmetry employed for this shelxl refinement is uniquely defined
by the following loop, which should always be used as a source of
symmetry information in preference to the above space-group names.
They are only intended as comments.
;
_shelx_estimated_absorpt_t_min   0.093
_shelx_estimated_absorpt_t_max   0.171
_shelxl_version_number           2014-3
_shelx_res_file
;
TITL SIR92 run in space group P -1
CELL  0.71073   9.1931  11.2082  11.2833  102.691  105.527  103.997
ZERR     1.00   0.0003   0.0004   0.0004    0.001    0.001    0.001
LATT   1
SFAC  C    H    N    BR   BI
UNIT  24 36 8 10 2
MERG   2
OMIT    -3.00  52.00
OMIT    -1   1   0
EQIV $1 -x+1, -y, -z+1
HTAB C3 Br1_$1
EQIV $2 x-1, y+1, z
HTAB N1 Br2_$2
HTAB N1 Br2_$1
EQIV $3 x-1, y, z
HTAB N1 N4_$3
HTAB N2 N3
EQIV $4 x, y+1, z
HTAB N2 Br1_$4
EQIV $5 -x+1, -y, -z
HTAB N2 Br3_$5
HTAB N3 Br5_$5
HTAB N3 N2
EQIV $6 x+1, y, z
HTAB N4 N1_$6
EQIV $7 -x+2, -y, -z
HTAB N4 Br5_$7
HTAB N4 Br4
HTAB C3 Br1_$1
HTAB N1 Br2_$2
HTAB N1 N4_$3
HTAB N2 N3
HTAB N2 Br1_$4
HTAB N2 Br2_$4
HTAB N2 Br3_$5
HTAB N3 Br5_$5
HTAB N3 N2
HTAB N4 N1_$6
HTAB N4 Br5_$7
HTAB N4 Br4
FMAP   2
PLAN   50
SIZE     0.150   0.150   0.250
ACTA
BOND   $H
CONF
L.S.  15
TEMP    23.00
WGHT    0.016000
EXTI    0.005779
FVAR       0.09165
C1    1    0.327808    0.359467    0.357022    11.00000    0.04669    0.03447 =
         0.03457    0.00721    0.00752    0.01725
AFIX  43
H1    2    0.250990    0.383539    0.304135    11.00000   -1.20000
AFIX   0
C2    1    0.297736    0.309788    0.452467    11.00000    0.03996    0.03501 =
         0.03746    0.00681    0.01542    0.01211
C3    1    0.413084    0.275071    0.530652    11.00000    0.06619    0.04828 =
         0.03741    0.02193    0.02048    0.02431
AFIX  43
H3    2    0.392872    0.241234    0.595013    11.00000   -1.20000
AFIX   0
C4    1    0.558389    0.290747    0.512967    11.00000    0.05117    0.06071 =
         0.04894    0.01549    0.00617    0.02647
AFIX  43
H4    2    0.636050    0.267504    0.565953    11.00000   -1.20000
AFIX   0
C5    1    0.589919    0.340056    0.418484    11.00000    0.04167    0.04551 =
         0.05574    0.00699    0.01997    0.01060
AFIX  43
H5    2    0.688157    0.351097    0.406829    11.00000   -1.20000
AFIX   0
C6    1    0.472641    0.372746    0.341444    11.00000    0.05866    0.03118 =
         0.03913    0.01151    0.02207    0.01120
C7    1    0.709153    0.132202    0.151173    11.00000    0.05261    0.03660 =
         0.03166    0.00906    0.01529    0.01507
AFIX  43
H7    2    0.767353    0.181537    0.112845    11.00000   -1.20000
AFIX   0
C8    1    0.551313    0.121752    0.131882    11.00000    0.05319    0.04508 =
         0.03173    0.00399    0.00640    0.02400
C9    1    0.466292    0.048196    0.187974    11.00000    0.04184    0.05343 =
         0.05512    0.00375    0.01391    0.01163
AFIX  43
H9    2    0.359303    0.040047    0.172932    11.00000   -1.20000
AFIX   0
C10   1    0.538963   -0.013591    0.266481    11.00000    0.07007    0.04539 =
         0.05999    0.02097    0.03144    0.00508
AFIX  43
H10   2    0.481105   -0.062680    0.305198    11.00000   -1.20000
AFIX   0
C11   1    0.696639   -0.003400    0.288254    11.00000    0.06262    0.04003 =
         0.04515    0.01719    0.01457    0.01971
AFIX  43
H11   2    0.746725   -0.044000    0.342374    11.00000   -1.20000
AFIX   0
C12   1    0.777968    0.067722    0.228560    11.00000    0.04574    0.03473 =
         0.03287    0.00651    0.00937    0.01466
N1    3    0.145136    0.289859    0.465094    11.00000    0.05825    0.06380 =
         0.06213    0.00973    0.02933    0.02236
AFIX 137
H1A   2    0.110867    0.355429    0.452778    11.00000   -1.50000
H1B   2    0.151341    0.284988    0.543876    11.00000   -1.50000
H1C   2    0.077347    0.216643    0.406560    10.50000   -1.50000
AFIX   0
N2    3    0.501081    0.417227    0.233908    11.00000    0.09365    0.04609 =
         0.06642    0.02807    0.04604    0.01589
AFIX 137
H2A   2    0.501882    0.351513    0.173479    10.50000   -1.50000
H2B   2    0.594623    0.479453    0.262782    11.00000   -1.50000
H2C   2    0.423954    0.447641    0.200369    11.00000   -1.50000
AFIX   0
N3    3    0.482020    0.195102    0.058267    11.00000    0.07539    0.07095 =
         0.04064    0.01392    0.00651    0.04503
AFIX 137
H3A   2    0.377236    0.156208    0.022634    11.00000   -1.50000
H3B   2    0.524117    0.200899   -0.003513    11.00000   -1.50000
H3C   2    0.501545    0.273885    0.109828    10.50000   -1.50000
AFIX   0
N4    3    0.947039    0.079711    0.250600    11.00000    0.05065    0.06000 =
         0.04950    0.01603    0.01577    0.02758
AFIX 137
H4A   2    1.007627    0.144371    0.321969    10.50000   -1.50000
H4B   2    0.972508    0.095489    0.183547    11.00000   -1.50000
H4C   2    0.963057    0.006511    0.259590    11.00000   -1.50000
AFIX   0
BR1   4    0.671850   -0.333221    0.157374    11.00000    0.04330    0.06099 =
         0.06615    0.03749    0.03389    0.03227
BR2   4    0.946862   -0.512470    0.302893    11.00000    0.06441    0.05771 =
         0.06083    0.03779    0.02953    0.03204
BR3   4    0.759267   -0.587963   -0.092774    11.00000    0.03070    0.05625 =
         0.05200    0.00402    0.01367    0.01520
BR4   4    1.116005   -0.138785    0.353790    11.00000    0.06430    0.04862 =
         0.04559    0.00264   -0.00482    0.02211
BR5   4    0.935659   -0.181405   -0.013321    11.00000    0.06625    0.05943 =
         0.05030    0.03305    0.02895    0.02422
BI1   5    0.953463   -0.354968    0.141011    11.00000    0.03204    0.03464 =
         0.03192    0.01244    0.01409    0.01519
HKLF    4

REM  SIR92 run in space group P -1
REM R1 =  0.0197 for    3499 Fo > 4sig(Fo)  and  0.0274 for all    4060 data
REM    204 parameters refined using      0 restraints

END

WGHT      0.0151      0.0000

REM Highest difference peak  0.628,  deepest hole -0.623,  1-sigma level  0.095
Q1    1   0.9881 -0.3971  0.1957  11.00000  0.05    0.63
Q2    1   1.1545 -0.1244  0.3013  11.00000  0.05    0.53
Q3    1   1.0293 -0.2807  0.1663  11.00000  0.05    0.51
Q4    1   0.9231 -0.2919  0.0930  11.00000  0.05    0.47
Q5    1   0.8261 -0.5208 -0.1029  11.00000  0.05    0.47
Q6    1   1.0134 -0.4337  0.3405  11.00000  0.05    0.46
Q7    1   1.1162 -0.3592  0.1624  11.00000  0.05    0.41
Q8    1   1.0134 -0.1383  0.0520  11.00000  0.05    0.38
Q9    1   0.8761 -0.4417  0.1203  11.00000  0.05    0.37
Q10   1   0.9085 -0.4476  0.2669  11.00000  0.05    0.37
Q11   1   0.9733 -0.2338 -0.0555  11.00000  0.05    0.37
Q12   1   0.7677 -0.3910  0.1046  11.00000  0.05    0.36
Q13   1   1.1472 -0.1760  0.4022  11.00000  0.05    0.36
Q14   1   0.8461 -0.2959  0.2071  11.00000  0.05    0.36
Q15   1   0.7485 -0.2659  0.1843  11.00000  0.05    0.35
Q16   1   0.7976 -0.3577  0.1139  11.00000  0.05    0.34
Q17   1   1.0382 -0.1317  0.3556  11.00000  0.05    0.34
Q18   1   0.7333 -0.3565  0.2324  11.00000  0.05    0.34
Q19   1   0.6973 -0.4148  0.1570  11.00000  0.05    0.34
Q20   1   0.9098 -0.1554 -0.0629  11.00000  0.05    0.34
Q21   1   0.7327 -0.2598  0.1417  11.00000  0.05    0.33
Q22   1   1.1207  0.0962  0.4021  11.00000  0.05    0.32
Q23   1   0.5264 -0.0638  0.2421  11.00000  0.05    0.32
Q24   1   0.3441  0.4209  0.1150  11.00000  0.05    0.32
Q25   1   0.8964 -0.6126 -0.0603  11.00000  0.05    0.31
Q26   1   0.0490  0.3658  0.5773  11.00000  0.05    0.30
Q27   1   0.6746  0.4835  0.1269  11.00000  0.05    0.30
Q28   1   1.1467 -0.1355  0.1410  11.00000  0.05    0.29
Q29   1   0.9532 -0.5617  0.2164  11.00000  0.05    0.29
Q30   1   0.9984 -0.5446  0.3604  11.00000  0.05    0.29
Q31   1   0.8208 -0.4215  0.2031  11.00000  0.05    0.29
Q32   1   0.3982  0.2563  0.5677  11.00000  0.05    0.29
Q33   1   0.2497  0.3783  0.0234  11.00000  0.05    0.29
Q34   1   1.0484 -0.0785  0.3283  11.00000  0.05    0.29
Q35   1   1.1453 -0.2891  0.1877  11.00000  0.05    0.28
Q36   1   1.1224 -0.0589  0.0783  11.00000  0.05    0.28
Q37   1   0.8346  0.4797  0.4385  11.00000  0.05    0.28
Q38   1   0.8810 -0.2197  0.0616  11.00000  0.05    0.28
Q39   1   0.3602  0.2341  0.2411  11.00000  0.05    0.28
Q40   1   0.1505  0.3719  0.7042  11.00000  0.05    0.28
Q41   1   0.9292 -0.1765  0.1612  11.00000  0.05    0.27
Q42   1   0.7729 -0.5174  0.1366  11.00000  0.05    0.27
Q43   1   1.0740 -0.4213  0.2718  11.00000  0.05    0.27
Q44   1   0.9507 -0.3424  0.2418  11.00000  0.05    0.27
Q45   1   1.0428 -0.4767  0.4171  11.00000  0.05    0.27
Q46   1   1.0768 -0.3210  0.2327  11.00000  0.05    0.27
Q47   1   0.8198 -0.1535  0.1585  11.00000  0.05    0.27
Q48   1   0.9781 -0.5020  0.2181  11.00000  0.05    0.27
Q49   1   1.0688 -0.1208  0.2608  11.00000  0.05    0.27
Q50   1   0.7852 -0.6083 -0.0402  11.00000  0.05    0.26
;
_shelx_res_checksum              65746
_shelx_hkl_file
;
  -2   0   0  175.51    6.39
  -2   0   0  186.16    9.26
   2   0   0  186.16    5.08
   2   0   0  193.39    9.27
   2   0   0  175.84    5.08
   2   0   0  178.16    4.46
  -3   0   0  112.24    5.91
  -3   0   0  109.29    4.00
   3   0   0  113.50    3.14
   3   0   0  116.93    5.92
   3   0   0  113.09    2.75
   3   0   0  111.69    3.13
  -4   0   0   30.50    1.39
  -4   0   0   32.67    1.35
  -4   0   0   33.85    2.35
   4   0   0   32.18    0.84
   4   0   0   31.41    0.95
   4   0   0   31.76    0.96
  -5   0   0   29.40    1.36
  -5   0   0   28.29    2.27
  -5   0   0   26.00    1.37
   5   0   0   27.93    0.89
   5   0   0   28.84    0.89
   5   0   0   28.63    0.79
  -6   0   0   18.64    1.26
  -6   0   0   22.19    2.58
  -6   0   0   20.25    1.32
   6   0   0   19.05    0.71
   6   0   0   20.23    0.74
   6   0   0   20.04    0.65
  -7   0   0   30.98    1.79
  -7   0   0   32.22    1.73
  -7   0   0   38.45    3.34
   7   0   0   34.04    1.01
   7   0   0   33.84    1.13
   7   0   0   34.47    1.15
  -8   0   0   18.02    1.39
  -8   0   0   17.10    1.32
   8   0   0   19.73    0.85
   8   0   0   18.66    0.73
  -9   0   0    3.12    0.97
  -9   0   0    5.14    0.93
   9   0   0    4.38    0.52
   9   0   0    4.80    0.45
 -10   0   0   19.47    1.78
 -10   0   0   21.87    1.66
  10   0   0   24.20    1.10
  10   0   0   25.06    0.99
 -11   0   0   17.99    1.60
 -11   0   0   13.44    1.50
  11   0   0   16.09    0.90
  11   0   0   16.17    1.06
  11  -1   0    3.19    0.66
  11  -1   0    3.89    0.55
 -11   1   0    5.37    1.12
 -11   1   0    2.64    1.15
  10  -1   0   14.89    0.87
  10  -1   0   14.64    0.79
 -10   1   0   14.33    1.39
 -10   1   0   12.47    1.24
   9  -1   0    4.62    0.44
   9  -1   0    4.59    0.51
  -9   1   0    4.53    0.90
  -9   1   0    3.96    0.92
   8  -1   0   23.92    0.80
   8  -1   0   23.48    0.90
  -8   1   0   21.16    1.49
  -8   1   0   23.51    1.43
   7  -1   0  171.94    4.19
   7  -1   0  170.14    4.77
   7  -1   0  170.14    4.77
  -7   1   0  164.26    6.16
  -7   1   0  168.33    6.10
   6  -1   0   70.86    1.81
   6  -1   0   71.75    2.05
   6  -1   0   71.57    2.06
  -6   1   0   67.67    2.81
  -6   1   0   71.76    2.71
   5  -1   0    7.04    0.34
   5  -1   0    6.96    0.35
   5  -1   0    7.26    0.32
  -5   1   0    6.17    0.72
  -5   1   0    7.07    1.23
  -5   1   0    8.06    0.74
   4  -1   0   48.81    1.38
   4  -1   0   47.62    1.20
   4  -1   0   47.48    1.37
   4  -1   0   47.90    1.36
  -4   1   0   50.29    1.78
  -4   1   0   48.77    3.04
  -4   1   0   43.50    1.90
   3  -1   0    0.35    0.08
   3  -1   0    0.53    0.63
   3  -1   0    0.20    0.09
   3  -1   0    0.36    0.09
  -3   1   0    1.20    0.69
  -3   1   0    0.60    0.25
   2  -1   0    4.12    0.69
   2  -1   0    3.41    0.13
   2  -1   0    3.48    0.15
   2  -1   0    3.85    0.15
  -1   1   0    1.69    0.11
  -1  -1   0  114.24    4.09
  -1  -1   0  113.32    3.26
  -1  -1   0  118.47    5.92
  -1  -1   0  116.83    3.31
   1   1   0  112.55    3.27
   1   1   0  124.51    5.94
  -2  -1   0   11.82    0.39
  -2  -1   0   13.54    1.12
  -2  -1   0   12.10    0.40
  -2  -1   0   11.42    0.72
   2   1   0   11.96    1.17
   2   1   0   10.39    0.74
   2   1   0   11.68    0.42
   2   1   0   12.34    0.42
  -3  -1   0  282.63    7.85
  -3  -1   0  283.18    9.92
  -3  -1   0  286.18   14.38
   3   1   0  275.94    7.94
   3   1   0  288.49    7.01
   3   1   0  287.68    7.91
  -4  -1   0  313.96   11.34
  -4  -1   0  326.87   11.36
  -4  -1   0  320.34   16.50
   4   1   0  338.18    9.04
   4   1   0  320.71    9.08
   4   1   0  328.31    7.99
  -5  -1   0   45.88    3.11
  -5  -1   0   47.71    2.03
  -5  -1   0   46.57    2.07
   5   1   0   48.18    1.27
   5   1   0   47.94    1.46
   5   1   0   50.57    1.46
  -6  -1   0   22.73    1.46
  -6  -1   0   25.07    1.60
  -6  -1   0   27.31    2.54
   6   1   0   24.25    0.77
   6   1   0   24.88    0.89
   6   1   0   24.62    0.88
  -7  -1   0   25.39    2.84
  -7  -1   0   23.07    1.58
  -7  -1   0   22.18    1.48
   7   1   0   23.39    0.89
   7   1   0   22.33    0.79
   7   1   0   23.02    0.90
  -8  -1   0   -0.69    0.91
  -8  -1   0    0.60    1.60
  -8  -1   0    0.83    0.76
   8   1   0    0.28    0.33
   8   1   0    0.16    0.37
  -9  -1   0    3.43    0.94
  -9  -1   0    1.04    1.09
   9   1   0    2.19    0.43
   9   1   0    1.83    0.48
 -10  -1   0    8.50    1.16
 -10  -1   0    7.12    1.31
  10   1   0    8.17    0.72
  10   1   0    8.43    0.62
  11  -2   0   -0.73    0.56
  11  -2   0   -0.64    0.46
 -11   2   0   -2.40    0.93
 -11   2   0   -0.15    0.97
  10  -2   0    3.72    0.57
  10  -2   0    3.62    0.47
 -10   2   0    3.31    0.93
 -10   2   0    5.26    0.98
   9  -2   0    0.78    0.36
   9  -2   0    1.16    0.42
  -9   2   0   -0.13    0.79
  -9   2   0    0.70    0.88
   8  -2   0    2.04    0.33
   8  -2   0    1.45    0.37
  -8   2   0    1.17    0.84
  -8   2   0    0.83    0.69
   7  -2   0   74.71    1.93
   7  -2   0   74.02    2.18
   7  -2   0   74.69    2.19
  -7   2   0   73.99    2.87
  -7   2   0   72.55    3.13
   6  -2   0   18.30    0.60
   6  -2   0   17.55    0.65
   6  -2   0   18.82    0.67
  -6   2   0   15.36    1.54
  -6   2   0   18.93    1.06
   5  -2   0    6.08    0.32
   5  -2   0    6.15    0.34
   5  -2   0    6.13    0.31
  -5   2   0    5.19    0.68
  -5   2   0    6.56    0.65
   4  -2   0   57.41    1.62
   4  -2   0   56.10    1.44
   4  -2   0   55.08    1.63
  -4   2   0   59.87    2.09
   3  -2   0  184.68    5.11
   3  -2   0  182.92    4.50
   3  -2   0  183.53    5.12
  -3   2   0  186.52    6.45
   2  -2   0   41.75    1.17
   2  -2   0   39.03    1.58
   2  -2   0   40.18    1.06
   2  -2   0   39.97    1.20
   2  -2   0   41.87    1.53
  -2   2   0   41.44    1.18
  -2   2   0   41.07    1.04
  -2   2   0   42.22    1.57
   1  -2   0   61.87    2.30
   1  -2   0   63.24    1.77
   1  -2   0   61.77    1.81
  -1   2   0   62.45    1.77
  -1   2   0   61.23    2.29
  -1   2   0   67.05    1.82
   0  -2   0   11.44    0.38
   0  -2   0   11.04    0.41
   0   2   0   12.21    0.42
   0   2   0   10.61    0.39
   0   2   0   10.34    0.59
  -1  -2   0   55.24    3.00
  -1  -2   0   52.02    1.99
  -1  -2   0   52.51    1.52
  -1  -2   0   51.91    1.51
   1   2   0   51.02    2.00
   1   2   0   51.27    1.52
   1   2   0   53.77    1.52
  -2  -2   0    8.74    1.01
  -2  -2   0    7.69    0.64
  -2  -2   0    8.12    0.34
  -2  -2   0    8.40    0.37
   2   2   0    8.00    0.69
   2   2   0    8.30    0.36
   2   2   0    8.65    0.36
   2   2   0    9.19    1.12
  -3  -2   0   60.61    2.36
  -3  -2   0   61.45    3.47
  -3  -2   0   61.08    1.75
  -3  -2   0   61.32    1.77
   3   2   0   61.57    1.78
   3   2   0   60.41    1.79
  -4  -2   0  179.55    6.57
  -4  -2   0  181.78    5.07
  -4  -2   0  181.30    9.55
  -4  -2   0  187.67    6.56
   4   2   0  187.96    5.16
   4   2   0  180.04    5.13
   4   2   0  183.46    4.50
  -5  -2   0    2.69    1.15
  -5  -2   0    3.56    0.90
  -5  -2   0    2.40    0.70
   5   2   0    3.22    0.28
   5   2   0    3.69    0.32
   5   2   0    3.24    0.34
  -6  -2   0    0.50    0.80
  -6  -2   0    1.05    0.96
  -6  -2   0    2.56    1.35
   6   2   0    0.27    0.33
   6   2   0    0.70    0.28
   6   2   0    0.86    0.29
  -7  -2   0   38.02    3.36
  -7  -2   0   36.65    1.89
  -7  -2   0   37.53    2.07
   7   2   0   38.29    1.32
   7   2   0   37.76    1.15
  -8  -2   0   13.55    2.11
  -8  -2   0   13.96    1.33
  -8  -2   0   16.63    1.36
   8   2   0   15.87    0.84
   8   2   0   15.61    0.76
  -9  -2   0    0.44    1.14
  -9  -2   0    2.35    0.89
  -9  -2   0   -1.67    1.71
   9   2   0    1.54    0.44
   9   2   0    1.98    0.52
 -10  -2   0   -1.38    1.28
 -10  -2   0    2.55    1.07
  10   2   0    1.16    0.49
  10   2   0    2.61    0.65
  11  -3   0    4.85    0.67
  11  -3   0    4.15    0.54
 -11   3   0    4.21    0.98
 -11   3   0    6.96    1.15
  10  -3   0   12.85    0.72
  10  -3   0   11.63    0.83
 -10   3   0   12.61    1.26
 -10   3   0   12.07    1.26
   9  -3   0    1.68    0.37
   9  -3   0    2.18    0.45
  -9   3   0    3.19    1.03
  -9   3   0    2.71    0.74
   8  -3   0    2.72    0.40
   8  -3   0    2.28    0.34
  -8   3   0    2.67    0.98
  -8   3   0    1.73    0.66
   7  -3   0   18.82    0.73
   7  -3   0   20.36    0.69
   7  -3   0   19.03    0.78
   7  -3   0   18.93    0.75
  -7   3   0   17.35    1.81
  -7   3   0   19.83    1.18
   6  -3   0   44.05    1.20
   6  -3   0   43.23    1.36
   6  -3   0   44.03    1.34
  -6   3   0   44.72    2.11
  -6   3   0   44.95    1.81
   5  -3   0    1.92    0.24
   5  -3   0    2.01    0.21
   5  -3   0    1.88    0.19
  -5   3   0    2.24    0.43
   4  -3   0   40.30    1.23
   4  -3   0   42.02    1.20
   4  -3   0   39.85    1.09
  -4   3   0   40.63    1.59
   3  -3   0  182.14    4.97
   3  -3   0  176.02    5.02
   3  -3   0  175.21    4.41
  -3   3   0  177.33    6.32
  -3   3   0  182.59    4.96
  -3   3   0  181.04    4.36
   2  -3   0   28.13    0.82
   2  -3   0   26.38    0.90
   2  -3   0   26.16    1.22
  -2   3   0   26.40    0.79
  -2   3   0   26.96    0.81
  -2   3   0   26.94    0.90
  -2   3   0   25.87    1.22
   1  -3   0  188.34    5.34
   1  -3   0  194.02    5.36
   1  -3   0  187.50    6.72
  -1   3   0  184.97    6.72
  -1   3   0  195.83    5.34
  -1   3   0  188.95    5.33
   0  -3   0   52.38    1.55
   0  -3   0   46.83    1.94
   0  -3   0   53.76    1.52
   0   3   0   50.53    2.02
   0   3   0   55.01    1.55
   0   3   0   51.51    1.52
  -1  -3   0    7.49    0.61
  -1  -3   0    7.86    0.36
  -1  -3   0    7.56    0.39
   1   3   0    7.43    0.36
   1   3   0    7.95    0.37
   1   3   0    7.48    0.68
  -2  -3   0    3.40    0.70
  -2  -3   0    4.42    0.31
  -2  -3   0    4.07    0.53
  -2  -3   0    4.29    0.35
   2   3   0    4.13    0.33
   2   3   0    3.98    0.33
  -3  -3   0   17.66    1.57
  -3  -3   0   16.75    1.10
  -3  -3   0   18.20    0.64
  -3  -3   0   19.08    0.68
   3   3   0   18.50    0.69
   3   3   0   16.65    0.69
  -4  -3   0    2.89    0.28
  -4  -3   0    2.35    0.97
  -4  -3   0    3.42    0.26
  -4  -3   0    3.28    0.91
  -4  -3   0    3.09    0.63
   4   3   0    2.74    0.30
   4   3   0    2.88    0.32
   4   3   0    3.24    0.28
  -5  -3   0    5.53    1.09
  -5  -3   0    4.96    0.83
  -5  -3   0    4.11    0.28
  -5  -3   0    4.18    1.21
   5   3   0    4.55    0.38
   5   3   0    4.34    0.41
   5   3   0    4.64    0.36
  -6  -3   0    1.45    1.30
  -6  -3   0    2.51    1.05
  -6  -3   0    1.79    0.81
   6   3   0    1.63    0.35
   6   3   0    2.10    0.36
   6   3   0    1.64    0.39
  -7  -3   0   18.07    2.80
  -7  -3   0   20.11    1.48
  -7  -3   0   21.80    1.78
   7   3   0   22.36    0.97
   7   3   0   21.00    0.84
  -8  -3   0   15.64    1.49
  -8  -3   0   13.60    1.46
  -8  -3   0   13.23    2.15
   8   3   0   15.90    0.79
   8   3   0   16.75    0.92
  -9  -3   0    1.55    0.95
  -9  -3   0   -1.33    1.19
  -9  -3   0   -2.28    1.90
   9   3   0    1.40    0.56
   9   3   0    1.01    0.47
 -10  -3   0    2.97    1.09
  10   3   0    2.85    0.67
  10   3   0    2.76    0.57
  11  -4   0    4.43    0.65
  11  -4   0    4.80    0.57
 -11   4   0    4.15    0.99
 -11   4   0    5.98    1.24
  10  -4   0   34.86    1.19
  10  -4   0   35.68    1.35
 -10   4   0   34.92    2.19
 -10   4   0   34.81    1.79
   9  -4   0    8.64    0.68
   9  -4   0    9.03    0.63
  -9   4   0    8.30    1.30
  -9   4   0    7.80    0.86
   8  -4   0    1.18    0.39
   8  -4   0    2.05    0.34
  -8   4   0    1.79    0.63
  -8   4   0    1.90    1.08
   7  -4   0   25.67    0.89
   7  -4   0   24.99    0.94
   7  -4   0   25.14    0.86
  -7   4   0   22.13    1.87
  -7   4   0   24.41    1.32
   6  -4   0    8.31    0.50
   6  -4   0    7.74    0.54
   6  -4   0    7.88    0.44
  -6   4   0    9.18    0.87
   5  -4   0   13.53    0.61
   5  -4   0   13.83    0.53
   5  -4   0   14.24    0.56
  -5   4   0   12.41    0.92
   4  -4   0   14.54    0.60
   4  -4   0   14.82    0.66
   4  -4   0   15.66    0.55
  -4   4   0   15.08    0.97
  -4   4   0   13.81    0.49
   3  -4   0   37.53    1.11
   3  -4   0   35.10    1.20
  -3   4   0   34.17    1.58
  -3   4   0   36.65    1.08
  -3   4   0   37.95    1.18
  -3   4   0   35.05    1.04
   2  -4   0    9.23    0.40
   2  -4   0    8.21    0.84
   2  -4   0    8.35    0.47
  -2   4   0    9.01    0.43
  -2   4   0    9.55    0.53
  -2   4   0    8.07    0.74
  -2   4   0    8.29    0.39
   1  -4   0    1.66    0.23
   1  -4   0    1.21    0.17
   1  -4   0    1.08    0.41
  -1   4   0    1.19    0.23
  -1   4   0    0.78    0.38
  -1   4   0    0.93    0.18
   0  -4   0  238.78    6.43
   0  -4   0  225.51    8.14
   0  -4   0  222.75    6.47
   0   4   0  234.74    6.51
   0   4   0  220.81    8.14
   0   4   0  240.08    6.48
  -1  -4   0  218.44    6.22
  -1  -4   0  225.52    6.18
  -1  -4   0  219.23    7.85
   1   4   0  226.81    6.22
   1   4   0  219.77    6.19
   1   4   0  216.98    7.84
  -2  -4   0    4.43    0.57
  -2  -4   0    4.39    0.35
  -2  -4   0    3.60    0.91
   2   4   0    4.36    0.34
   2   4   0    4.36    0.34
  -3  -4   0    5.50    0.46
  -3  -4   0    4.69    0.68
  -3  -4   0    4.99    0.99
   3   4   0    5.43    0.44
   3   4   0    5.78    0.40
   3   4   0    5.51    0.45
  -4  -4   0   23.92    1.45
  -4  -4   0   23.95    0.88
  -4  -4   0   22.99    2.25
  -4  -4   0   23.17    1.83
   4   4   0   23.09    0.91
   4   4   0   23.19    0.91
   4   4   0   23.98    0.80
  -5  -4   0    0.19    1.15
  -5  -4   0   -0.01    0.77
  -5  -4   0    0.11    1.09
  -5  -4   0    0.57    0.25
   5   4   0    0.68    0.37
   5   4   0    0.25    0.31
  -6  -4   0   -0.45    1.18
  -6  -4   0    0.58    1.00
  -6  -4   0   -0.40    0.77
   6   4   0    0.08    0.39
   6   4   0   -0.32    0.34
  -7  -4   0   -0.48    1.39
  -7  -4   0    0.47    1.21
  -7  -4   0    0.19    0.87
   7   4   0    0.06    0.44
   7   4   0   -0.24    0.37
  -8  -4   0   -1.20    1.23
  -8  -4   0   -2.61    1.71
  -8  -4   0    1.01    0.94
   8   4   0    0.19    0.50
   8   4   0    0.40    0.46
  -9  -4   0    0.72    1.04
   9   4   0    0.50    0.50
   9   4   0    0.36    0.60
  11  -5   0    2.62    0.55
  11  -5   0    2.53    0.63
 -11   5   0    1.87    0.92
 -11   5   0    3.48    1.34
  10  -5   0    6.74    0.57
  10  -5   0    6.63    0.65
 -10   5   0    6.00    0.92
 -10   5   0    6.58    1.37
   9  -5   0    6.88    0.62
   9  -5   0    6.81    0.53
  -9   5   0    6.92    1.36
  -9   5   0    6.10    0.86
   8  -5   0    0.86    0.37
   8  -5   0    0.20    0.40
  -8   5   0    1.27    0.69
  -8   5   0    0.27    1.09
   7  -5   0  136.78    3.53
   7  -5   0  137.86    3.93
   7  -5   0  138.50    4.00
  -7   5   0  135.43    5.07
   6  -5   0  209.44    6.01
   6  -5   0  209.86    5.28
   6  -5   0  217.82    5.93
  -6   5   0  206.35    7.57
   5  -5   0   95.67    2.62
   5  -5   0   86.01    2.38
   5  -5   0   90.29    2.73
  -5   5   0   88.95    3.49
  -5   5   0   89.40    2.24
   4  -5   0   74.95    2.29
   4  -5   0   78.13    2.18
  -4   5   0   75.17    2.19
  -4   5   0   69.46    2.93
  -4   5   0   74.79    2.13
  -4   5   0   74.99    1.88
  -4   5   0   73.18    1.94
   3  -5   0   55.02    1.82
   3  -5   0   60.69    1.73
  -3   5   0   58.51    1.71
  -3   5   0   58.45    1.84
  -3   5   0   56.35    2.35
   2  -5   0   14.35    1.01
   2  -5   0   12.23    0.53
   2  -5   0   13.01    0.61
  -2   5   0   11.80    0.93
  -2   5   0   13.42    0.66
  -2   5   0   13.05    0.55
   1  -5   0   39.48    1.72
   1  -5   0   38.76    1.31
   1  -5   0   42.16    1.26
  -1   5   0   40.44    1.27
  -1   5   0   38.31    1.76
  -1   5   0   41.32    1.32
   0  -5   0    0.76    0.39
   0  -5   0    0.79    0.26
   0   5   0    1.25    0.50
   0   5   0    0.48    0.23
   0   5   0    0.74    0.25
  -1  -5   0   27.78    1.33
  -1  -5   0   24.82    0.92
   1   5   0   23.60    1.28
   1   5   0   24.87    0.89
  -2  -5   0    2.60    0.97
  -2  -5   0    3.18    0.36
  -2  -5   0    2.46    0.60
   2   5   0    2.68    0.35
  -3  -5   0    7.76    0.89
  -3  -5   0    6.09    1.18
  -3  -5   0    6.64    1.18
  -3  -5   0    7.85    0.60
   3   5   0    7.42    0.49
   3   5   0    7.59    0.57
  -4  -5   0  150.77    7.97
  -4  -5   0  147.91    4.23
  -4  -5   0  148.67    5.49
  -4  -5   0  142.13    5.60
   4   5   0  141.96    4.23
   4   5   0  143.51    3.70
  -5  -5   0   50.54    2.36
  -5  -5   0   49.71    3.50
  -5  -5   0   50.84    1.65
  -5  -5   0   51.85    2.60
   5   5   0   52.12    1.72
   5   5   0   50.76    1.50
  -6  -5   0   21.44    1.58
  -6  -5   0   18.87    2.38
  -6  -5   0   19.99    1.81
   6   5   0   19.59    0.95
   6   5   0   18.96    0.82
  -7  -5   0    7.56    1.76
  -7  -5   0    7.62    1.42
  -7  -5   0   11.90    1.20
   7   5   0    9.58    0.64
   7   5   0   11.89    0.87
  -8  -5   0    4.11    1.11
  -8  -5   0    2.37    1.89
   8   5   0    4.73    0.69
   8   5   0    4.59    0.56
  -9  -5   0    1.87    1.15
   9   5   0    1.16    0.69
   9   5   0    1.07    0.56
  11  -6   0    7.71    0.79
  11  -6   0    8.94    0.71
 -11   6   0    6.85    1.12
 -11   6   0    6.67    1.62
  10  -6   0    4.62    0.58
  10  -6   0    3.42    0.63
 -10   6   0    2.82    0.90
 -10   6   0    2.99    1.46
   9  -6   0    1.47    0.49
   9  -6   0    1.00    0.53
  -9   6   0    2.20    0.86
  -9   6   0    2.22    1.32
   8  -6   0   28.56    1.11
   8  -6   0   29.39    1.19
  -8   6   0   27.11    1.64
  -8   6   0   28.41    2.08
   7  -6   0    3.24    0.36
   7  -6   0    1.83    0.52
   7  -6   0    2.38    0.46
  -7   6   0    2.65    0.82
   6  -6   0   36.69    1.38
   6  -6   0   38.43    1.22
  -6   6   0   33.52    1.87
   5  -6   0    8.66    0.66
   5  -6   0    8.38    0.48
  -5   6   0    7.23    0.47
  -5   6   0    7.87    0.38
  -5   6   0    5.79    0.88
   4  -6   0   36.09    1.13
   4  -6   0   33.22    1.25
  -4   6   0   33.92    0.96
  -4   6   0   35.69    1.10
  -4   6   0   32.12    1.69
  -4   6   0   31.66    1.24
   3  -6   0  401.15   11.71
   3  -6   0  447.37   11.69
  -3   6   0  407.74   14.73
  -3   6   0  416.44   11.65
   2  -6   0  272.02    9.74
   2  -6   0  265.28    7.74
  -2   6   0  277.92    7.66
  -2   6   0  279.19    9.77
   1  -6   0  195.32    7.09
   1  -6   0  194.01    5.62
  -1   6   0  194.00    5.55
  -1   6   0  202.06    7.13
   0  -6   0  162.17    5.81
   0  -6   0  158.66    4.60
   0   6   0  154.94    4.54
   0   6   0  158.86    5.84
  -1  -6   0   21.67    0.88
  -1  -6   0   22.32    1.39
   1   6   0   21.63    0.88
   1   6   0   19.80    1.28
  -2  -6   0    5.32    0.49
  -2  -6   0    5.90    1.32
  -2  -6   0    6.87    1.24
  -2  -6   0    5.42    0.86
   2   6   0    4.92    0.45
  -3  -6   0    1.10    1.19
  -3  -6   0    1.31    0.83
  -3  -6   0    0.92    0.39
  -3  -6   0    0.49    1.05
   3   6   0    1.57    0.35
   3   6   0    0.89    0.41
  -4  -6   0   46.06    2.54
  -4  -6   0   48.57    2.30
  -4  -6   0   44.90    3.31
  -4  -6   0   47.19    1.60
   4   6   0   44.82    1.59
   4   6   0   42.72    1.38
  -5  -6   0   36.23    2.41
  -5  -6   0   36.62    3.02
  -5  -6   0   38.20    2.03
   5   6   0   35.99    1.39
   5   6   0   36.00    1.21
  -6  -6   0    0.81    1.25
  -6  -6   0    1.76    0.99
  -6  -6   0    0.54    1.33
   6   6   0    2.01    0.46
   6   6   0    1.72    0.53
  -7  -6   0   11.55    1.34
  -7  -6   0    7.99    1.82
   7   6   0   11.17    0.90
   7   6   0   11.25    0.77
  -8  -6   0    6.47    2.34
  -8  -6   0   13.13    1.44
   8   6   0   13.85    0.88
   8   6   0   13.99    1.09
  11  -7   0    6.53    0.84
  11  -7   0    5.96    0.70
 -11   7   0    4.85    1.19
 -11   7   0    7.52    1.75
  10  -7   0   29.97    1.23
  10  -7   0   27.28    1.38
 -10   7   0   29.79    2.46
 -10   7   0   26.82    1.93
   9  -7   0   33.94    1.45
  -9   7   0   34.24    2.00
  -9   7   0   32.95    2.35
   8  -7   0   29.73    1.32
  -8   7   0   30.49    1.79
  -8   7   0   29.15    2.17
   7  -7   0   50.25    1.57
   7  -7   0   44.96    1.73
  -7   7   0   45.92    2.30
   6  -7   0    2.47    0.35
   6  -7   0    1.55    0.52
  -6   7   0    1.15    0.19
  -6   7   0    1.16    0.85
   5  -7   0   -0.10    0.27
   5  -7   0   -0.13    0.43
  -5   7   0   -0.43    0.75
  -5   7   0   -0.31    0.25
  -5   7   0   -0.16    0.24
   4  -7   0   -0.31    0.39
  -4   7   0   -0.23    0.30
  -4   7   0   -0.35    0.71
  -4   7   0   -0.33    0.25
   3  -7   0   94.16    2.90
  -3   7   0   94.00    2.77
  -3   7   0   93.74    3.73
   2  -7   0   91.57    2.89
   2  -7   0   96.33    3.73
  -2   7   0   94.03    2.80
  -2   7   0   95.69    3.75
   1  -7   0    6.89    1.18
   1  -7   0    6.01    0.53
   1  -7   0    8.02    0.86
  -1   7   0    6.73    0.50
  -1   7   0    6.12    0.80
   0  -7   0   37.75    1.35
   0  -7   0   39.47    1.81
   0  -7   0   38.58    2.33
   0   7   0   35.91    1.93
   0   7   0   35.65    1.28
  -1  -7   0  121.83    4.60
  -1  -7   0  118.47    3.54
  -1  -7   0  117.92    4.70
   1   7   0  113.64    3.48
  -2  -7   0   55.49    1.89
  -2  -7   0   56.61    4.04
  -2  -7   0   59.30    2.81
  -2  -7   0   59.25    2.63
   2   7   0   54.57    1.83
   2   7   0   53.79    1.61
  -3  -7   0   39.03    2.10
  -3  -7   0   35.51    2.92
  -3  -7   0   37.73    2.41
  -3  -7   0   37.89    1.44
   3   7   0   35.73    1.38
   3   7   0   36.26    1.21
  -4  -7   0   14.56    1.54
  -4  -7   0   12.61    1.70
  -4  -7   0   14.59    1.48
  -4  -7   0   13.91    0.88
   4   7   0   14.08    0.86
   4   7   0   13.72    0.75
  -5  -7   0    2.49    1.38
  -5  -7   0    2.10    1.00
   5   7   0    3.43    0.59
   5   7   0    3.88    0.51
  -6  -7   0    0.53    1.00
  -6  -7   0   -0.97    1.44
   6   7   0    0.45    0.56
   6   7   0    0.05    0.47
  -7  -7   0    3.66    1.16
  -7  -7   0   -0.86    1.70
   7   7   0    3.03    0.57
   7   7   0    3.17    0.70
   8   7   0    7.32    0.88
   8   7   0    8.42    0.78
  11  -8   0   -0.05    0.69
 -11   8   0    0.07    1.10
 -11   8   0    1.19    1.69
  10  -8   0   22.86    1.32
 -10   8   0   21.54    2.07
 -10   8   0   21.57    1.82
   9  -8   0   26.70    1.35
  -9   8   0   27.50    2.38
  -9   8   0   25.93    1.92
   8  -8   0    2.21    0.64
  -8   8   0    1.55    0.96
   7  -8   0    6.70    0.70
  -7   8   0    7.49    1.10
   6  -8   0   14.67    0.98
  -6   8   0   15.63    0.59
  -6   8   0   13.76    1.40
   5  -8   0    9.71    0.76
  -5   8   0   10.61    0.55
  -5   8   0    9.51    1.15
  -5   8   0    9.42    0.62
   4  -8   0   31.63    1.30
  -4   8   0   33.60    1.92
  -4   8   0   33.71    1.20
  -4   8   0   34.07    1.05
   3  -8   0   -0.07    0.38
  -3   8   0    0.81    0.82
  -3   8   0    0.13    0.36
  -3   8   0    0.14    0.31
   2  -8   0    6.85    0.99
   2  -8   0    6.72    0.62
  -2   8   0    6.07    0.95
  -2   8   0    6.56    0.54
   1  -8   0    0.02    0.42
   1  -8   0    0.57    0.78
   1  -8   0    1.55    1.24
  -1   8   0    0.28    0.37
  -1   8   0    0.07    0.80
   0  -8   0    9.87    0.79
   0  -8   0   13.98    1.55
   0  -8   0   11.95    1.10
   0   8   0    9.99    0.75
   0   8   0   10.38    1.14
  -1  -8   0   64.15    2.19
  -1  -8   0   70.54    2.92
  -1  -8   0   65.33    3.32
   1   8   0   63.34    2.11
   1   8   0   65.38    1.87
  -2  -8   0   29.29    2.79
  -2  -8   0   25.99    2.23
  -2  -8   0   24.68    1.16
  -2  -8   0   27.71    1.71
   2   8   0   24.98    1.13
   2   8   0   25.15    0.99
  -3  -8   0    3.57    0.59
  -3  -8   0    3.24    0.99
  -3  -8   0    3.09    1.32
   3   8   0    3.86    0.48
   3   8   0    2.99    0.55
  -4  -8   0    9.09    1.65
  -4  -8   0   10.55    0.85
  -4  -8   0   12.93    1.35
   4   8   0    9.94    0.68
   4   8   0    9.21    0.78
  -5  -8   0    4.62    1.19
  -5  -8   0    3.08    1.50
   5   8   0    4.58    0.69
   5   8   0    4.11    0.57
  -6  -8   0    0.77    1.60
   6   8   0    2.41    0.58
   6   8   0    2.19    0.67
   7   8   0    1.33    0.61
   7   8   0    1.03    0.71
  11  -9   0    6.69    0.90
 -11   9   0    7.03    1.93
 -11   9   0    6.54    1.38
  10  -9   0    0.55    0.73
 -10   9   0    0.78    1.66
 -10   9   0    1.19    1.12
   9  -9   0   15.74    1.13
  -9   9   0   13.76    1.83
  -9   9   0   14.57    1.49
   8  -9   0    0.75    0.60
  -8   9   0    1.48    1.02
   7  -9   0   14.16    1.00
  -7   9   0   14.21    1.38
   6  -9   0   84.79    2.76
  -6   9   0   81.92    2.17
  -6   9   0   82.31    3.56
   5  -9   0   24.73    1.21
  -5   9   0   25.81    1.76
  -5   9   0   25.12    1.01
  -5   9   0   25.38    0.90
   4  -9   0    1.67    0.53
  -4   9   0    0.85    0.83
  -4   9   0    1.96    0.44
  -4   9   0    1.76    0.39
   3  -9   0    4.25    0.61
  -3   9   0    3.79    0.52
  -3   9   0    4.14    0.44
  -3   9   0    4.01    0.93
   2  -9   0    1.39    0.92
   2  -9   0    0.99    0.52
  -2   9   0    1.67    0.48
  -2   9   0    1.62    0.85
  -2   9   0    1.27    0.41
   1  -9   0    0.48    0.90
   1  -9   0   -0.32    0.45
  -1   9   0    0.13    0.83
  -1   9   0   -0.80    0.38
  -1   9   0   -0.22    0.45
   0  -9   0    0.40    0.51
   0   9   0    0.56    0.45
   0   9   0    0.28    0.38
  -1  -9   0    3.60    0.58
   1   9   0    3.59    0.57
   1   9   0    3.38    0.49
  -2  -9   0   -0.82    0.50
  -2  -9   0    1.55    1.41
   2   9   0    0.23    0.43
   2   9   0   -0.19    0.47
  -3  -9   0    2.36    0.61
  -3  -9   0    2.51    1.41
   3   9   0    2.71    0.51
   3   9   0    1.89    0.55
  -4  -9   0    1.08    1.39
   4   9   0    3.33    0.57
   4   9   0    1.84    0.63
  -5  -9   0    6.27    1.78
   5   9   0   12.54    1.01
   5   9   0    9.77    0.75
   6   9   0    3.02    0.77
   6   9   0    2.39    0.64
  10 -10   0    6.71    0.92
 -10  10   0    5.48    1.93
 -10  10   0    5.97    1.31
   9 -10   0    0.15    0.70
  -9  10   0   -1.40    1.51
  -9  10   0    0.62    1.10
   8 -10   0    2.31    0.68
  -8  10   0    1.16    1.03
   7 -10   0    7.21    0.81
  -7  10   0    6.43    1.24
   6 -10   0    2.40    0.65
  -6  10   0    2.75    1.00
   5 -10   0    6.24    0.75
  -5  10   0    5.74    0.47
  -5  10   0    7.27    1.13
  -5  10   0    7.18    0.58
   4 -10   0    1.27    0.55
  -4  10   0    1.53    0.92
  -4  10   0    1.19    0.40
  -4  10   0    1.07    0.49
   3 -10   0   22.12    1.14
  -3  10   0   24.01    0.94
  -3  10   0   23.80    1.08
   2 -10   0   43.82    1.70
  -2  10   0   41.33    1.57
  -2  10   0   42.46    1.38
   1 -10   0   25.27    1.21
  -1  10   0   24.94    1.17
  -1  10   0   24.23    0.96
   0 -10   0   13.92    0.95
   0  10   0   13.80    0.81
   0  10   0   13.80    0.94
  -1 -10   0    5.18    0.74
   1  10   0    5.11    0.55
   1  10   0    4.66    0.64
  -2 -10   0    0.51    0.62
  -2 -10   0    1.95    1.60
   2  10   0    0.89    0.50
   2  10   0    2.03    0.63
  -3 -10   0   -0.04    0.64
  -3 -10   0   -0.48    1.40
   3  10   0    1.18    0.54
   3  10   0    1.17    0.64
  -4 -10   0   -1.07    1.42
   4  10   0    0.13    0.55
   4  10   0    0.90    0.62
   5  10   0    2.33    0.61
   5  10   0    1.85    0.74
  10 -11   0    8.24    1.01
 -10  11   0    5.16    2.01
   9 -11   0   19.29    1.29
  -9  11   0   16.39    2.19
   8 -11   0   19.30    1.32
   7 -11   0   35.47    1.67
   6 -11   0   11.31    0.95
   5 -11   0    0.20    0.57
  -5  11   0    1.00    0.51
  -5  11   0    1.11    0.43
   4 -11   0    9.12    0.85
  -4  11   0    8.55    0.62
  -4  11   0    9.86    0.81
   3 -11   0    0.37    0.57
  -3  11   0    0.43    0.53
  -3  11   0   -0.10    0.44
   2 -11   0   13.90    1.08
  -2  11   0   12.39    0.76
  -2  11   0   13.35    0.96
   1 -11   0    3.34    0.68
  -1  11   0    2.93    0.54
  -1  11   0    2.67    0.65
   0 -11   0    0.70    0.62
   0  11   0    1.83    0.65
   0  11   0    1.21    0.49
  -1 -11   0   11.58    0.99
   1  11   0    9.44    0.85
   1  11   0    9.61    0.75
  -2 -11   0   13.84    2.31
  -2 -11   0   14.08    1.16
   2  11   0   14.11    1.10
   2  11   0   13.87    0.87
   3  11   0    9.51    0.81
   3  11   0    9.55    0.90
   4  11   0    5.31    0.74
   4  11   0    5.29    0.87
   9 -12   0    4.25    0.89
  -9  12   0   -2.44    2.03
   8 -12   0    1.27    0.78
   7 -12   0    1.43    0.75
   6 -12   0   16.18    1.20
   5 -12   0   25.57    1.37
  -5  12   0   26.45    1.08
   4 -12   0   37.16    1.67
  -4  12   0   39.99    1.36
  -4  12   0   36.74    1.53
   3 -12   0   41.17    1.80
  -3  12   0   37.83    1.62
  -3  12   0   43.54    1.44
   2 -12   0    8.99    0.91
  -2  12   0    7.82    0.70
  -2  12   0    8.98    0.84
   1 -12   0    7.08    0.91
  -1  12   0    6.43    0.65
  -1  12   0    7.37    0.82
   0 -12   0    1.09    0.74
   0  12   0    1.63    0.60
   0  12   0    2.09    0.72
  -1 -12   0    4.10    0.85
  -1 -12   0    4.93    2.12
   1  12   0    3.34    0.63
   1  12   0    4.16    0.80
  -2 -12   0    8.39    1.02
   2  12   0    7.94    0.94
   2  12   0    9.47    0.84
   3  12   0    3.83    0.87
   3  12   0    3.28    0.71
   8 -13   0    0.73    0.82
   7 -13   0    0.28    0.79
   6 -13   0    6.28    0.95
   5 -13   0   15.40    1.26
   4 -13   0    6.94    0.95
  -4  13   0    7.88    0.84
  -4  13   0    6.69    0.69
   3 -13   0    8.67    1.01
  -3  13   0    7.52    0.73
  -3  13   0    9.46    0.89
   2 -13   0    9.71    1.04
  -2  13   0    8.80    0.88
  -2  13   0    9.65    0.79
   1 -13   0    4.14    0.91
  -1  13   0    4.38    0.70
  -1  13   0    4.80    0.79
   0 -13   0    9.04    1.02
   0  13   0    8.07    0.95
   0  13   0    7.66    0.81
  -1 -13   0    1.95    0.89
   1  13   0    2.11    0.84
   1  13   0    2.15    0.72
   6 -14   0    0.95    0.87
   5 -14   0   -0.90    0.74
   4 -14   0   -0.02    0.76
   3 -14   0    0.56    0.78
  -3  14   0    0.77    0.65
  -3  14   0   -0.27    0.75
   2 -14   0    7.30    1.06
  -2  14   0    7.25    0.96
  -2  14   0    5.67    0.75
   1 -14   0    7.33    1.05
  -1  14   0    8.46    0.99
  -1  14   0    8.25    0.88
   0  14  -1    1.07    0.86
   0  14  -1    0.56    0.72
   0 -14   1    0.29    0.91
  -1  14  -1    1.40    0.69
  -1  14  -1    2.20    0.80
   1 -14   1    0.79    0.89
  -2  14  -1    1.74    0.80
  -2  14  -1    1.06    0.62
   2 -14   1    1.99    0.89
  -3  14  -1    2.83    0.81
  -3  14  -1    3.41    0.70
   3 -14   1    3.01    0.93
  -4  14  -1    4.82    0.71
   4 -14   1    3.12    0.94
   5 -14   1   12.58    1.22
   6 -14   1   10.77    1.12
   2  13  -1    4.77    0.74
   2  13  -1    6.01    0.91
   1  13  -1    2.94    0.85
   1  13  -1    3.59    0.73
  -1 -13   1    2.76    0.91
   0  13  -1   -0.51    0.56
   0  13  -1    0.13    0.74
   0 -13   1    0.24    0.80
  -1  13  -1   -0.31    0.69
  -1  13  -1    0.67    0.61
   1 -13   1    0.96    0.80
  -2  13  -1    0.38    0.68
  -2  13  -1   -0.14    0.57
   2 -13   1   -0.13    0.77
  -3  13  -1   11.52    0.96
  -3  13  -1    9.30    0.77
   3 -13   1    8.48    1.02
  -4  13  -1   13.06    0.92
  -4  13  -1   12.54    1.04
   4 -13   1   12.08    1.12
   5 -13   1    7.27    0.93
   6 -13   1   12.03    1.12
   7 -13   1    2.17    0.87
   8 -13   1    4.02    0.95
   3  12  -1    8.85    0.96
   3  12  -1    9.23    0.85
   2  12  -1   11.37    1.01
   2  12  -1    9.42    0.80
  -2 -12   1   12.15    1.11
  -2 -12   1   10.48    2.47
   1  12  -1   10.48    0.82
   1  12  -1   11.78    0.99
  -1 -12   1   12.57    1.09
   0  12  -1    1.62    0.60
   0  12  -1    2.21    0.65
   0 -12   1    2.90    0.75
  -1  12  -1    0.66    0.55
  -1  12  -1    1.82    0.67
   1 -12   1    0.86    0.73
  -2  12  -1    8.14    0.71
  -2  12  -1    8.06    0.82
   2 -12   1    7.93    0.94
  -3  12  -1    0.20    0.60
  -3  12  -1   -0.36    0.46
   3 -12   1   -0.66    0.69
  -4  12  -1    3.22    0.66
  -4  12  -1    3.39    0.57
   4 -12   1    3.64    0.80
  -5  12  -1    0.87    0.49
   5 -12   1    1.23    0.68
   6 -12   1    8.72    0.99
  -7  12  -1   22.68    2.45
   7 -12   1   24.48    1.45
  -8  12  -1   11.45    2.30
   8 -12   1   18.57    1.40
  -9  12  -1   19.63    2.52
   9 -12   1   22.36    1.52
   5  11  -1    2.73    0.70
   4  11  -1    0.41    0.55
   4  11  -1    0.93    0.73
  -4 -11   1   -1.46    1.75
   3  11  -1    3.58    0.77
   3  11  -1    3.59    0.64
  -3 -11   1    4.80    1.91
   2  11  -1    5.81    0.76
   2  11  -1    5.81    0.67
  -2 -11   1    6.01    0.86
  -2 -11   1    5.54    2.02
   1  11  -1   26.35    1.08
   1  11  -1   24.79    1.24
  -1 -11   1   27.40    1.42
   0  11  -1   32.29    1.21
   0  11  -1   35.18    1.47
   0 -11   1   32.86    1.57
  -1  11  -1   47.58    1.75
   1 -11   1   48.00    1.88
  -2  11  -1   68.91    2.29
   2 -11   1   66.44    2.40
  -3  11  -1   22.57    1.04
   3 -11   1   20.50    1.25
  -4  11  -1   -0.13    0.42
  -4  11  -1    0.48    0.53
   4 -11   1   -0.21    0.60
  -5  11  -1    0.66    0.51
  -5  11  -1    0.80    0.45
   5 -11   1    0.19    0.63
   6 -11   1    0.33    0.65
   7 -11   1   21.14    1.33
  -8  11  -1    8.99    1.99
   8 -11   1   12.15    1.05
  -9  11  -1    2.35    1.89
   9 -11   1    3.84    0.84
 -10  11  -1   11.46    2.12
  10 -11   1    8.94    1.05
   6  10  -1    4.04    0.70
   5  10  -1   13.63    1.10
   5  10  -1   12.77    0.86
  -5 -10   1    9.72    2.19
   4  10  -1    4.91    0.65
   4  10  -1    5.54    0.74
  -4 -10   1    4.81    1.85
   3  10  -1    0.74    0.56
   3  10  -1   -0.10    0.49
  -3 -10   1   -0.08    0.61
  -3 -10   1    0.50    1.64
   2  10  -1    0.28    0.47
   2  10  -1   -0.13    0.51
  -2 -10   1    1.58    0.62
  -2 -10   1   -0.19    1.75
   1  10  -1   -0.02    0.52
  -1 -10   1    0.35    0.59
   0  10  -1   16.24    0.98
   0 -10   1   16.75    1.08
  -1  10  -1   19.09    1.01
   1 -10   1   18.26    1.06
  -2  10  -1   14.75    0.91
   2 -10   1   13.24    0.93
  -3  10  -1   27.33    1.17
   3 -10   1   26.70    1.30
  -4  10  -1   21.42    0.98
  -4  10  -1   21.46    1.65
   4 -10   1   21.38    1.19
  -5  10  -1   40.55    2.32
  -5  10  -1   41.29    1.28
  -5  10  -1   41.69    1.47
   5 -10   1   42.25    1.72
  -6  10  -1   55.19    2.89
   6 -10   1   62.79    2.22
  -7  10  -1    3.82    1.10
   7 -10   1    3.00    0.74
  -8  10  -1   -0.95    1.57
  -8  10  -1    1.60    1.05
   8 -10   1    0.91    0.70
  -9  10  -1    0.80    1.59
   9 -10   1    1.55    0.73
 -10  10  -1    3.87    1.90
  10 -10   1    3.67    0.82
   6   9  -1    1.97    0.59
   6   9  -1    0.70    0.67
  -6  -9   1   -2.31    1.68
   5   9  -1    3.33    0.58
   5   9  -1    3.07    0.64
  -5  -9   1    1.70    1.62
   4   9  -1    4.61    0.67
   4   9  -1    5.46    0.59
  -4  -9   1    4.90    1.73
   3   9  -1    2.03    0.57
   3   9  -1    2.10    0.48
  -3  -9   1    3.19    1.03
  -3  -9   1    1.45    1.59
  -3  -9   1    1.36    0.57
   2   9  -1   15.11    0.92
  -2  -9   1   17.12    1.59
  -2  -9   1   11.03    2.21
  -2  -9   1   16.38    0.99
   1   9  -1   60.16    2.07
  -1  -9   1   60.49    2.15
  -1  -9   1   65.42    2.92
   0   9  -1    6.04    0.62
   0  -9   1    6.73    0.71
   0  -9   1    6.64    0.95
  -1   9  -1   -0.90    0.89
  -1   9  -1    0.27    0.45
   1  -9   1   -0.05    0.49
   1  -9   1   -0.10    0.88
  -2   9  -1    4.23    0.52
  -2   9  -1    5.90    1.05
   2  -9   1    5.10    0.65
   2  -9   1    5.51    1.05
  -3   9  -1    3.63    0.51
  -3   9  -1    3.39    0.92
   3  -9   1    3.32    0.60
  -4   9  -1   22.44    1.75
  -4   9  -1   24.19    1.03
   4  -9   1   21.86    1.11
  -5   9  -1    9.82    0.68
  -5   9  -1   11.02    1.23
   5  -9   1   11.11    0.83
  -6   9  -1   15.74    1.50
  -6   9  -1   14.00    0.66
   6  -9   1   13.74    1.01
  -7   9  -1   11.79    1.72
  -7   9  -1   12.89    1.33
   7  -9   1   10.89    0.90
  -8   9  -1    0.72    1.49
  -8   9  -1    2.41    1.09
   8  -9   1    1.11    0.66
  -9   9  -1   19.23    2.03
  -9   9  -1   20.77    1.93
   9  -9   1   18.64    1.29
 -10   9  -1   11.41    2.02
 -10   9  -1   10.73    1.51
  10  -9   1   11.35    1.05
 -11   9  -1    1.65    1.82
   7   8  -1    1.09    0.66
   7   8  -1    0.24    0.53
  -7  -8   1   -2.42    1.65
   6   8  -1    2.68    0.65
   6   8  -1    2.21    0.53
  -6  -8   1    2.66    1.10
  -6  -8   1    0.72    1.52
   5   8  -1    0.56    0.53
   5   8  -1   -0.46    0.44
  -5  -8   1    0.90    1.00
  -5  -8   1   -0.68    1.35
   4   8  -1    2.30    0.54
   4   8  -1    2.34    0.48
  -4  -8   1    2.09    0.51
  -4  -8   1    2.60    1.44
  -4  -8   1    2.71    1.00
   3   8  -1    4.35    0.55
  -3  -8   1    5.57    1.65
  -3  -8   1    5.39    0.96
  -3  -8   1    5.90    0.64
   2   8  -1    3.98    0.55
  -2  -8   1    5.45    1.02
  -2  -8   1    4.80    0.60
   1   8  -1   12.06    0.74
  -1  -8   1   14.35    1.47
  -1  -8   1   13.45    0.88
   0   8  -1    0.92    0.82
   0   8  -1   -0.01    0.40
   0  -8   1    1.73    0.75
   0  -8   1    0.38    0.45
  -1   8  -1    4.82    0.48
  -1   8  -1    5.72    0.97
   1  -8   1    6.20    0.95
   1  -8   1    6.04    0.58
  -2   8  -1   24.12    1.68
  -2   8  -1   22.51    0.94
   2  -8   1   23.86    1.65
   2  -8   1   23.40    1.05
  -3   8  -1   59.86    2.73
  -3   8  -1   61.32    1.90
   3  -8   1   57.83    2.02
  -4   8  -1    4.96    0.96
  -4   8  -1    4.16    0.45
   4  -8   1    3.61    0.56
  -5   8  -1   16.67    0.76
  -5   8  -1   16.59    1.53
   5  -8   1   16.65    0.98
  -6   8  -1   14.40    1.44
  -6   8  -1   12.98    0.57
  -6   8  -1   13.98    0.60
   6  -8   1   14.71    0.99
  -7   8  -1    1.10    0.92
  -7   8  -1    0.00    1.21
   7  -8   1    0.48    0.59
  -8   8  -1    7.30    1.54
  -8   8  -1    6.50    1.12
   8  -8   1    7.13    0.77
  -9   8  -1   10.76    1.81
  -9   8  -1   12.41    1.34
   9  -8   1   12.38    0.99
 -10   8  -1   18.74    2.11
 -10   8  -1   21.10    1.85
  10  -8   1   17.91    1.23
 -11   8  -1    5.54    1.86
 -11   8  -1    1.47    1.20
  11  -8   1    1.43    0.80
   8   7  -1    8.21    0.74
   8   7  -1    9.44    0.86
  -8  -7   1   10.24    1.38
  -8  -7   1    4.19    2.10
   7   7  -1    3.45    0.68
   7   7  -1    4.03    0.56
  -7  -7   1   -0.68    1.70
  -7  -7   1    3.11    1.10
   6   7  -1    0.78    0.54
   6   7  -1    0.77    0.45
  -6  -7   1   -0.08    1.40
  -6  -7   1    1.39    0.98
   5   7  -1    9.40    0.77
   5   7  -1    7.65    0.58
  -5  -7   1    9.78    1.47
  -5  -7   1    7.17    1.67
  -5  -7   1    9.18    1.13
   4   7  -1   20.56    0.83
   4   7  -1   18.36    0.97
  -4  -7   1   21.53    1.01
  -4  -7   1   23.76    1.62
  -4  -7   1   24.00    2.04
  -4  -7   1   20.56    2.51
   3   7  -1    0.09    0.38
  -3  -7   1   -0.02    0.41
  -3  -7   1    0.44    0.88
  -3  -7   1    0.32    1.45
   2   7  -1   -0.17    0.38
  -2  -7   1    0.64    0.41
  -2  -7   1   -0.48    0.80
   1   7  -1    0.96    0.38
  -1  -7   1    0.55    0.40
  -1  -7   1    0.54    0.70
   0   7  -1   32.33    1.18
   0   7  -1   32.08    1.78
   0  -7   1   31.60    1.23
   0  -7   1   34.68    1.73
  -1   7  -1   22.41    1.46
  -1   7  -1   21.22    0.88
   1  -7   1   20.03    0.91
   1  -7   1   18.88    1.36
  -2   7  -1  130.58    3.76
  -2   7  -1  131.09    4.95
   2  -7   1  129.95    4.95
   2  -7   1  127.99    3.87
  -3   7  -1   86.06    3.55
  -3   7  -1   90.34    2.61
   3  -7   1   86.93    2.76
  -4   7  -1    7.22    0.97
  -4   7  -1    7.06    0.53
   4  -7   1    7.22    0.62
  -5   7  -1    0.23    0.26
  -5   7  -1    0.15    0.80
   5  -7   1   -0.63    0.43
  -6   7  -1   67.21    2.93
  -6   7  -1   66.58    1.72
   6  -7   1   66.26    2.26
  -7   7  -1    4.97    1.29
  -7   7  -1    4.22    0.93
   7  -7   1    3.22    0.53
   7  -7   1    3.99    0.61
  -8   7  -1    1.00    0.87
  -8   7  -1    1.35    1.30
   8  -7   1    1.18    0.51
   8  -7   1    0.78    0.57
  -9   7  -1    1.07    0.97
  -9   7  -1    3.20    1.52
   9  -7   1    2.74    0.58
   9  -7   1    3.21    0.67
 -10   7  -1    0.27    1.00
 -10   7  -1    0.90    1.56
  10  -7   1   -0.81    0.60
  10  -7   1   -0.42    0.54
 -11   7  -1    1.90    1.11
 -11   7  -1    3.08    1.73
  11  -7   1    2.97    0.64
  11  -7   1    0.97    0.73
   9   6  -1    0.91    0.68
   9   6  -1    0.59    0.56
   8   6  -1    5.00    0.69
   8   6  -1    5.52    0.62
  -8  -6   1    6.84    1.16
  -8  -6   1    2.83    1.86
   7   6  -1   14.88    0.84
   7   6  -1   15.42    0.93
  -7  -6   1   12.50    1.59
  -7  -6   1   15.93    1.47
  -7  -6   1   12.84    2.06
   6   6  -1   11.39    0.79
   6   6  -1   10.94    0.72
  -6  -6   1    8.47    1.80
  -6  -6   1   13.93    1.36
  -6  -6   1   11.02    1.53
   5   6  -1   61.69    2.03
   5   6  -1   62.84    1.78
  -5  -6   1   61.04    1.96
  -5  -6   1   63.96    4.30
  -5  -6   1   63.99    3.04
  -5  -6   1   62.72    2.80
   4   6  -1  112.64    3.43
  -4  -6   1  115.34    3.43
  -4  -6   1  116.76    6.72
  -4  -6   1  117.64    4.51
   3   6  -1   24.05    0.96
  -3  -6   1   25.47    1.59
  -3  -6   1   24.67    1.02
  -3  -6   1   24.78    2.62
   2   6  -1    0.24    0.33
  -2  -6   1    0.80    0.70
  -2  -6   1    0.03    0.33
   1   6  -1   41.51    1.36
   1   6  -1   40.34    1.90
  -1  -6   1   39.44    1.40
  -1  -6   1   42.41    1.92
   0   6  -1   -0.20    0.56
   0   6  -1    0.08    0.25
   0  -6   1   -0.35    0.51
   0  -6   1   -0.05    0.29
  -1   6  -1   26.64    0.95
  -1   6  -1   27.31    1.46
   1  -6   1   27.08    1.04
   1  -6   1   21.67    1.39
  -2   6  -1   11.43    0.57
  -2   6  -1   10.31    0.95
   2  -6   1   11.62    0.97
   2  -6   1   11.62    0.53
   2  -6   1   10.14    0.68
  -3   6  -1   36.94    1.17
  -3   6  -1   35.52    1.77
   3  -6   1   34.56    1.32
   3  -6   1   40.13    1.21
   3  -6   1   32.07    1.78
  -4   6  -1   48.83    2.30
  -4   6  -1   51.56    1.58
   4  -6   1   53.58    1.78
   4  -6   1   54.66    1.63
  -5   6  -1   51.08    1.54
  -5   6  -1   51.41    2.33
  -5   6  -1   51.67    1.61
   5  -6   1   51.13    1.58
   5  -6   1   56.42    1.65
   5  -6   1   52.75    1.81
  -6   6  -1  151.61    5.77
  -6   6  -1  153.24    5.93
   6  -6   1  155.15    4.01
   6  -6   1  160.26    4.45
   6  -6   1  151.68    4.56
  -7   6  -1   81.16    3.69
  -7   6  -1   80.14    3.34
   7  -6   1   81.87    2.62
   7  -6   1   85.75    2.52
   7  -6   1   83.12    2.32
  -8   6  -1    5.70    0.93
  -8   6  -1    4.46    1.38
   8  -6   1    5.45    0.61
   8  -6   1    5.51    0.55
  -9   6  -1   10.58    1.61
  -9   6  -1    7.71    1.05
   9  -6   1    9.79    0.69
   9  -6   1   10.76    0.88
 -10   6  -1    7.72    1.57
 -10   6  -1    6.47    1.08
  10  -6   1    7.34    0.66
  10  -6   1    6.53    0.75
 -11   6  -1    0.64    1.58
 -11   6  -1   -0.75    0.98
  11  -6   1    0.58    0.65
  11  -6   1    1.05    0.57
   9   5  -1   -0.58    0.48
   9   5  -1    0.83    0.61
  -9  -5   1   -3.55    1.99
  -9  -5   1   -0.01    1.02
   8   5  -1    1.56    0.56
   8   5  -1    2.12    0.49
  -8  -5   1    0.91    1.26
  -8  -5   1    2.77    0.99
  -8  -5   1   -0.85    1.72
   7   5  -1    1.58    0.52
   7   5  -1    1.57    0.44
  -7  -5   1    1.24    1.51
  -7  -5   1    1.71    1.18
  -7  -5   1    1.11    0.90
   6   5  -1    1.82    0.38
   6   5  -1    2.23    0.45
  -6  -5   1    2.53    1.32
  -6  -5   1    3.12    0.87
  -6  -5   1    1.99    1.18
   5   5  -1   14.84    0.76
   5   5  -1   14.04    0.66
  -5  -5   1   13.10    1.80
  -5  -5   1   15.41    1.29
  -5  -5   1   14.11    0.64
   4   5  -1   64.59    2.08
  -4  -5   1   68.02    2.81
  -4  -5   1   66.21    4.28
  -4  -5   1   69.34    2.06
   3   5  -1   80.49    2.49
  -3  -5   1   84.53    3.29
  -3  -5   1   83.26    4.98
  -3  -5   1   85.63    2.51
   2   5  -1  143.91    4.08
   2   5  -1  141.93    4.05
  -2  -5   1  138.47    7.83
  -2  -5   1  144.76    5.19
  -2  -5   1  136.46    4.07
   1   5  -1  483.01   17.42
   1   5  -1  532.05   13.88
   1   5  -1  495.44   13.83
  -1  -5   1  481.88   14.17
  -1  -5   1  500.54   17.44
   0   5  -1  473.77   12.57
   0   5  -1  447.54   15.80
   0   5  -1  452.62   12.87
   0  -5   1  434.15   15.78
   0  -5   1  438.26   12.90
   0  -5   1  460.12   12.51
  -1   5  -1   34.57    1.12
  -1   5  -1   35.52    1.57
  -1   5  -1   36.80    1.24
   1  -5   1   32.13    1.59
   1  -5   1   34.73    1.20
   1  -5   1   35.69    1.12
  -2   5  -1   19.22    0.90
  -2   5  -1   19.64    0.73
  -2   5  -1   19.05    1.10
   2  -5   1   20.96    0.73
   2  -5   1   20.32    0.84
   2  -5   1   20.07    1.25
  -3   5  -1    1.77    0.58
  -3   5  -1    1.65    0.24
  -3   5  -1    2.41    0.39
   3  -5   1    1.81    0.36
   3  -5   1    2.41    0.26
   3  -5   1    2.05    0.65
  -4   5  -1   73.15    2.14
  -4   5  -1   74.37    2.95
  -4   5  -1   74.75    2.21
   4  -5   1   74.38    2.03
   4  -5   1   73.98    2.32
   4  -5   1   77.15    2.20
  -5   5  -1  111.44    2.78
  -5   5  -1  112.93    4.20
   5  -5   1  114.05    3.22
   5  -5   1  107.51    3.30
   5  -5   1  111.86    2.91
  -6   5  -1  105.36    4.33
  -6   5  -1  109.14    4.11
   6  -5   1  104.63    2.83
   6  -5   1  112.41    3.15
   6  -5   1  107.35    3.21
  -7   5  -1   72.30    3.40
  -7   5  -1   72.24    2.96
   7  -5   1   72.67    2.29
   7  -5   1   74.24    2.02
   7  -5   1   74.31    2.26
  -8   5  -1   14.54    1.21
  -8   5  -1   12.71    1.54
   8  -5   1   13.75    0.81
   8  -5   1   14.42    0.73
  -9   5  -1   18.58    1.74
  -9   5  -1   18.72    1.41
   9  -5   1   20.94    0.92
   9  -5   1   19.49    1.01
 -10   5  -1   38.72    2.57
 -10   5  -1   36.78    2.02
  10  -5   1   40.15    1.36
  10  -5   1   38.26    1.52
 -11   5  -1    6.73    1.47
 -11   5  -1    2.77    1.03
  11  -5   1    4.10    0.61
  11  -5   1    4.00    0.74
  10   4  -1    4.01    0.70
  10   4  -1    3.20    0.57
 -10  -4   1    3.20    1.08
   9   4  -1    3.67    0.61
   9   4  -1    2.79    0.50
  -9  -4   1    1.94    1.32
  -9  -4   1    2.61    1.01
  -9  -4   1   -0.75    1.96
   8   4  -1   29.29    1.06
   8   4  -1   29.59    1.21
  -8  -4   1   29.13    2.10
  -8  -4   1   24.85    3.08
  -8  -4   1   29.67    1.81
   7   4  -1   33.18    1.25
   7   4  -1   34.37    1.12
  -7  -4   1   34.54    1.84
  -7  -4   1   32.33    3.08
  -7  -4   1   34.82    2.15
   6   4  -1    2.66    0.43
   6   4  -1    2.49    0.37
  -6  -4   1    1.76    1.20
  -6  -4   1    2.25    0.78
  -6  -4   1    3.19    1.12
   5   4  -1   -0.09    0.32
   5   4  -1    0.54    0.27
  -5  -4   1    0.56    1.18
  -5  -4   1    0.30    0.16
  -5  -4   1    0.35    0.71
  -5  -4   1    0.32    0.18
   4   4  -1    0.34    0.25
   4   4  -1    0.23    0.28
  -4  -4   1    0.61    0.25
  -4  -4   1    0.59    0.64
  -4  -4   1    0.28    1.00
  -4  -4   1    0.37    0.21
   3   4  -1   25.87    0.93
   3   4  -1   27.13    0.94
  -3  -4   1   27.18    2.27
  -3  -4   1   27.08    0.93
  -3  -4   1   26.78    0.91
  -3  -4   1   26.98    1.39
   2   4  -1   36.66    1.18
   2   4  -1   39.10    1.20
  -2  -4   1   37.78    1.64
  -2  -4   1   36.23    1.20
  -2  -4   1   36.01    2.75
  -2  -4   1   37.37    1.16
   1   4  -1  103.84    3.08
   1   4  -1  105.93    3.95
   1   4  -1  112.02    3.12
  -1  -4   1  110.75    3.08
  -1  -4   1  108.08    3.97
  -1  -4   1  106.98    3.12
   0   4  -1  220.26    6.13
   0   4  -1  225.30    6.18
   0   4  -1  217.68    7.78
   0  -4   1  214.22    6.17
   0  -4   1  226.97    6.13
   0  -4   1  211.58    7.76
  -1   4  -1   13.60    0.62
  -1   4  -1   11.85    0.49
  -1   4  -1   12.07    0.81
   1  -4   1   11.77    0.55
   1  -4   1   11.05    0.87
   1  -4   1   11.69    0.47
  -2   4  -1  100.40    3.92
  -2   4  -1  107.05    3.01
  -2   4  -1  108.40    2.71
  -2   4  -1  108.37    3.11
   2  -4   1  101.49    3.92
   2  -4   1  102.97    3.11
   2  -4   1  112.52    3.02
  -3   4  -1  336.36    7.90
  -3   4  -1  339.07    9.02
  -3   4  -1  321.02   11.39
  -3   4  -1  313.23    9.07
   3  -4   1  318.22   11.33
   3  -4   1  311.54    9.06
   3  -4   1  331.76    8.99
   3  -4   1  318.87    7.94
  -4   4  -1   92.50    2.33
  -4   4  -1   92.37    3.47
  -4   4  -1   94.05    2.64
   4  -4   1   91.42    2.40
   4  -4   1   93.75    2.68
   4  -4   1   93.53    2.73
  -5   4  -1    1.67    0.16
  -5   4  -1    2.41    0.90
  -5   4  -1    1.83    0.54
   5  -4   1    1.44    0.28
   5  -4   1    1.79    0.34
   5  -4   1    1.19    0.24
  -6   4  -1   11.85    1.34
  -6   4  -1   13.62    1.00
   6  -4   1   12.73    0.70
   6  -4   1   13.33    0.62
   6  -4   1   12.98    0.60
  -7   4  -1   -0.50    0.68
  -7   4  -1    0.44    1.25
   7  -4   1   -0.28    0.29
   7  -4   1    0.11    0.38
   7  -4   1    0.01    0.33
  -8   4  -1   17.85    1.26
  -8   4  -1   17.69    1.88
   8  -4   1   19.52    0.80
   8  -4   1   18.80    0.90
  -9   4  -1   22.71    2.04
  -9   4  -1   22.96    1.48
   9  -4   1   22.97    1.07
   9  -4   1   24.28    0.95
 -10   4  -1   31.06    2.18
 -10   4  -1   27.76    1.73
  10  -4   1   28.48    1.12
  10  -4   1   30.93    1.31
 -11   4  -1    9.74    1.44
 -11   4  -1    5.95    1.12
  11  -4   1    7.07    0.80
  11  -4   1    6.88    0.66
  10   3  -1    2.49    0.63
  10   3  -1    3.10    0.54
 -10  -3   1   -0.27    1.34
 -10  -3   1    3.15    1.00
 -10  -3   1   -3.54    2.09
   9   3  -1    1.04    0.52
   9   3  -1    0.69    0.41
  -9  -3   1   -0.48    1.11
  -9  -3   1   -0.88    1.84
  -9  -3   1    1.02    0.89
   8   3  -1   14.27    0.80
   8   3  -1   14.73    0.70
  -8  -3   1   13.44    1.35
  -8  -3   1   14.27    1.32
  -8  -3   1   11.67    2.15
   7   3  -1   28.12    0.94
   7   3  -1   29.16    1.08
  -7  -3   1   27.96    1.60
  -7  -3   1   29.73    1.91
  -7  -3   1   25.55    2.84
   6   3  -1    0.28    0.28
   6   3  -1    0.45    0.33
   6   3  -1    0.71    0.29
  -6  -3   1    0.81    1.33
  -6  -3   1    0.31    0.69
   5   3  -1    0.51    0.25
   5   3  -1    0.97    0.29
  -5  -3   1    0.60    1.12
  -5  -3   1    0.17    0.64
   4   3  -1   66.88    1.97
   4   3  -1   67.97    1.98
  -4  -3   1   66.34    2.60
  -4  -3   1   68.52    4.02
  -4  -3   1   64.88    1.90
  -4  -3   1   64.76    1.90
   3   3  -1   45.82    1.39
   3   3  -1   44.34    1.38
  -3  -3   1   45.28    1.84
  -3  -3   1   46.63    1.38
  -3  -3   1   46.53    2.95
  -3  -3   1   46.24    1.37
   2   3  -1    1.44    0.20
   2   3  -1    1.43    0.19
  -2  -3   1    1.16    0.69
  -2  -3   1    1.60    0.22
  -2  -3   1    1.45    0.18
  -2  -3   1    1.46    0.42
   1   3  -1    7.51    0.65
   1   3  -1    7.64    0.36
   1   3  -1    6.82    0.34
  -1  -3   1    8.15    0.33
  -1  -3   1    7.66    0.38
  -1  -3   1    7.07    0.65
   0   3  -1    1.76    0.19
   0   3  -1    1.70    0.41
   0   3  -1    2.00    0.23
   0  -3   1    1.81    0.33
   0  -3   1    2.04    0.18
  -1   3  -1   40.20    1.24
  -1   3  -1   37.63    1.13
  -1   3  -1   37.71    1.58
  -1   3  -1   38.19    1.05
   1  -3   1   37.02    1.64
   1  -3   1   35.77    1.19
   1  -3   1   38.01    1.13
  -2   3  -1   65.86    2.53
  -2   3  -1   67.50    1.72
  -2   3  -1   65.78    1.91
  -2   3  -1   70.25    1.98
   2  -3   1   64.99    1.98
   2  -3   1   63.67    1.73
   2  -3   1   68.53    1.92
   2  -3   1   67.23    2.51
  -3   3  -1  234.17    5.54
  -3   3  -1  230.15    8.00
  -3   3  -1  230.62    6.37
  -3   3  -1  234.77    6.32
   3  -3   1  203.05    6.35
   3  -3   1  233.61    6.33
   3  -3   1  226.06    5.57
  -4   3  -1   84.48    3.18
  -4   3  -1   85.05    3.37
  -4   3  -1   89.04    2.14
   4  -3   1   88.62    2.49
   4  -3   1   84.72    2.50
   4  -3   1   86.59    2.20
  -5   3  -1    3.83    0.90
  -5   3  -1    4.34    0.56
   5  -3   1    4.67    0.33
   5  -3   1    4.28    0.31
   5  -3   1    4.26    0.35
   5  -3   1    4.32    0.36
  -6   3  -1   30.26    1.48
  -6   3  -1   25.38    2.01
   6  -3   1   30.10    1.05
   6  -3   1   29.06    1.01
   6  -3   1   29.67    0.92
  -7   3  -1   28.97    1.54
  -7   3  -1   27.15    2.13
   7  -3   1   29.16    0.95
   7  -3   1   29.19    1.04
   7  -3   1   28.33    1.09
  -8   3  -1    1.02    1.00
  -8   3  -1    0.78    0.73
   8  -3   1    1.15    0.44
   8  -3   1    1.06    0.36
  -9   3  -1   -1.46    0.77
  -9   3  -1    2.12    1.08
   9  -3   1   -0.14    0.47
   9  -3   1   -0.33    0.39
 -10   3  -1   -0.35    0.88
 -10   3  -1    1.64    1.07
  10  -3   1    0.70    0.48
  10  -3   1    0.58    0.57
 -11   3  -1   -1.67    0.98
 -11   3  -1    0.68    1.13
  11  -3   1   -1.32    0.59
  11  -3   1   -0.98    0.50
  10   2  -1    2.43    0.48
  10   2  -1    2.00    0.55
 -10  -2   1    1.82    0.92
 -10  -2   1    0.06    1.17
 -10  -2   1   -0.15    2.06
   9   2  -1   -0.27    0.41
   9   2  -1    0.08    0.37
  -9  -2   1    0.83    1.74
  -9  -2   1   -0.40    1.04
  -9  -2   1    1.14    0.82
   8   2  -1    2.50    0.42
   8   2  -1    2.17    0.35
  -8  -2   1    1.54    1.67
  -8  -2   1    2.38    0.77
  -8  -2   1    2.37    1.02
   7   2  -1   20.71    0.72
   7   2  -1   21.75    0.84
   7   2  -1   20.01    0.84
  -7  -2   1   20.11    1.57
  -7  -2   1   20.31    2.61
  -7  -2   1   19.81    1.36
   6   2  -1    6.41    0.43
   6   2  -1    6.45    0.46
   6   2  -1    6.04    0.48
  -6  -2   1    5.51    0.77
  -6  -2   1    6.53    1.41
   5   2  -1   11.53    0.52
   5   2  -1   11.80    0.53
  -5  -2   1   11.33    0.91
  -5  -2   1   12.04    1.73
   4   2  -1   83.36    2.34
   4   2  -1   80.51    2.33
  -4  -2   1   82.08    3.03
  -4  -2   1   78.92    4.62
   3   2  -1   35.21    1.08
   3   2  -1   36.89    1.09
  -3  -2   1   37.42    2.38
  -3  -2   1   35.30    1.04
  -3  -2   1   34.58    1.04
  -3  -2   1   36.22    1.44
   2   2  -1  141.50    3.90
   2   2  -1  141.04    3.90
   2   2  -1  133.09    4.92
   2   2  -1  136.26    5.00
  -2  -2   1  143.00    3.90
  -2  -2   1  139.95    7.28
  -2  -2   1  142.30    3.89
  -2  -2   1  137.24    4.93
   1   2  -1   16.62    1.03
   1   2  -1   12.81    0.74
   1   2  -1   13.66    0.47
   1   2  -1   14.19    0.47
  -1  -2   1   13.35    0.47
  -1  -2   1   13.69    0.46
  -1  -2   1   13.18    0.77
   0   2  -1   77.30    2.15
   0   2  -1   72.31    2.74
   0   2  -1   78.95    2.18
   0  -2   1   76.55    2.14
   0  -2   1   73.87    2.17
  -1   2  -1   13.18    0.50
  -1   2  -1   15.65    0.92
  -1   2  -1   12.65    0.73
  -1   2  -1   11.85    0.44
  -1   2  -1   12.42    0.43
   1  -2   1   11.49    0.48
   1  -2   1   13.09    0.73
   1  -2   1   12.50    0.44
   1  -2   1   12.88    0.43
  -2   2  -1   23.02    1.01
  -2   2  -1   21.82    0.70
  -2   2  -1   23.14    0.74
  -2   2  -1   22.01    0.63
  -2   2  -1   23.19    1.34
   2  -2   1   21.82    0.65
   2  -2   1   22.87    0.75
   2  -2   1   23.60    1.10
   2  -2   1   22.69    0.72
  -3   2  -1   32.12    1.64
  -3   2  -1   34.01    1.38
  -3   2  -1   34.66    1.00
  -3   2  -1   35.46    0.90
   3  -2   1   33.95    0.92
   3  -2   1   34.83    1.06
   3  -2   1   34.44    1.05
  -4   2  -1    9.43    0.31
  -4   2  -1    8.67    0.88
  -4   2  -1   10.54    0.77
   4  -2   1   10.43    0.41
   4  -2   1    9.43    0.44
   4  -2   1    9.36    0.43
   4  -2   1    9.75    0.42
  -5   2  -1   15.42    1.49
  -5   2  -1   18.96    1.06
   5  -2   1   18.81    0.68
   5  -2   1   17.76    0.68
   5  -2   1   18.17    0.62
  -6   2  -1   24.36    1.34
  -6   2  -1   21.09    1.80
   6  -2   1   24.74    0.78
   6  -2   1   24.13    0.90
   6  -2   1   24.09    0.86
  -7   2  -1   65.75    2.66
  -7   2  -1   62.49    2.92
   7  -2   1   65.15    1.97
   7  -2   1   64.04    2.00
   7  -2   1   65.11    1.76
  -8   2  -1   12.36    1.27
  -8   2  -1   13.02    1.21
   8  -2   1   13.07    0.67
   8  -2   1   13.12    0.76
  -9   2  -1    0.16    0.86
  -9   2  -1    1.57    1.02
   9  -2   1    1.40    0.42
   9  -2   1    2.21    0.51
 -10   2  -1   13.21    1.30
 -10   2  -1   15.04    1.39
  10  -2   1   16.46    0.85
  10  -2   1   16.82    1.00
 -11   2  -1    2.50    1.14
 -11   2  -1    1.36    1.14
  11  -2   1    3.10    0.71
  11  -2   1    3.12    0.58
  11   1  -1   11.25    0.89
  11   1  -1   10.60    0.77
 -11  -1   1    7.31    1.40
 -11  -1   1   12.10    1.22
  10   1  -1   16.04    0.88
  10   1  -1   15.18    0.79
 -10  -1   1   12.41    1.37
 -10  -1   1   15.08    1.33
   9   1  -1    0.12    0.40
   9   1  -1    1.38    0.35
  -9  -1   1    1.03    0.78
  -9  -1   1    1.16    0.96
  -9  -1   1   -1.10    1.74
   8   1  -1    2.15    0.33
   8   1  -1    2.88    0.38
  -8  -1   1    1.37    1.48
  -8  -1   1    2.40    0.73
  -8  -1   1    2.26    0.91
   7   1  -1    9.32    0.51
   7   1  -1    7.86    0.54
   7   1  -1    7.88    0.46
  -7  -1   1    7.64    1.77
  -7  -1   1    8.86    1.02
  -7  -1   1    7.57    0.85
   6   1  -1    1.41    0.25
   6   1  -1    1.82    0.24
   6   1  -1    1.59    0.23
  -6  -1   1    2.59    1.26
  -6  -1   1    0.70    0.60
   5   1  -1    0.23    0.16
   5   1  -1    0.19    0.17
  -5  -1   1    0.96    0.98
  -5  -1   1    0.14    0.44
   4   1  -1    5.27    0.27
   4   1  -1    5.30    0.27
  -4  -1   1    4.74    0.46
  -4  -1   1    4.56    0.88
   3   1  -1   59.75    1.72
   3   1  -1   60.84    1.72
  -3  -1   1   61.68    2.21
  -3  -1   1   61.52    3.46
   2   1  -1    9.80    1.10
   2   1  -1   10.20    0.32
   2   1  -1    8.76    0.32
  -2  -1   1   12.69    0.86
  -2  -1   1   10.80    1.16
  -2  -1   1    8.76    0.52
   1   1  -1  170.54    5.25
   1   1  -1  187.61    6.59
  -1  -1   1  197.29    9.51
  -1  -1   1  194.55    6.62
  -1  -1   1  194.38    5.25
  -1  -1   1  180.68    5.25
  -1  -1   1  186.38    6.53
  -1   1  -1  136.43    4.91
  -1   1  -1  142.86    3.91
  -1   1  -1  139.50    3.40
  -1   1  -1  140.03    3.92
   1  -1   1  136.35    3.89
   1  -1   1  141.53    3.45
   1  -1   1  135.45    4.86
  -2   1  -1    2.94    0.63
  -2   1  -1    1.93    0.17
  -2   1  -1    2.17    0.14
  -2   1  -1    1.69    0.14
  -2   1  -1    3.30    0.46
   2  -1   1    2.94    0.21
   2  -1   1    3.17    0.61
   2  -1   1    4.07    0.54
   2  -1   1    2.15    0.20
   2  -1   1    2.00    0.17
  -3   1  -1   50.74    1.44
  -3   1  -1   53.10    1.28
  -3   1  -1   49.52    2.10
  -3   1  -1   52.69    1.94
   3  -1   1   50.46    1.31
   3  -1   1   50.03    1.49
   3  -1   1   51.32    1.50
  -4   1  -1    0.69    0.60
  -4   1  -1    1.55    0.50
   4  -1   1    1.28    0.21
   4  -1   1    0.99    0.17
   4  -1   1    1.34    0.19
  -5   1  -1    5.07    0.66
  -5   1  -1    4.22    0.77
   5  -1   1    5.45    0.37
   5  -1   1    5.54    0.40
   5  -1   1    5.14    0.34
  -6   1  -1    1.59    0.84
  -6   1  -1    3.01    0.76
   6  -1   1    2.54    0.29
   6  -1   1    1.97    0.34
   6  -1   1    2.14    0.28
  -7   1  -1    6.26    0.92
  -7   1  -1    6.01    1.03
   7  -1   1    7.43    0.51
   7  -1   1    6.23    0.51
   7  -1   1    7.16    0.50
  -8   1  -1   -0.58    0.80
  -8   1  -1    0.30    0.85
   8  -1   1    0.02    0.41
   8  -1   1    0.12    0.35
  -9   1  -1    0.20    0.92
  -9   1  -1   -0.40    0.90
   9  -1   1   -0.52    0.40
   9  -1   1   -0.03    0.47
 -10   1  -1   12.20    1.29
 -10   1  -1   10.24    1.28
  10  -1   1   14.58    0.85
  10  -1   1   13.66    0.96
 -11   1  -1    6.33    1.38
 -11   1  -1   11.44    1.37
  11  -1   1    9.90    0.89
  11  -1   1    9.82    0.73
  11   0  -1    2.96    0.60
  11   0  -1    2.23    0.49
 -11   0   1    3.00    0.96
 -11   0   1   -0.49    1.10
  10   0  -1   17.41    0.89
  10   0  -1   17.54    0.78
 -10   0   1   14.91    1.54
 -10   0   1   18.32    1.37
   9   0  -1    4.09    0.39
   9   0  -1    3.49    0.43
  -9   0   1    4.10    0.81
  -9   0   1    3.34    0.91
  -9   0   1    3.11    1.85
   8   0  -1   37.68    1.22
   8   0  -1   37.55    1.08
  -8   0   1   37.93    1.80
  -8   0   1   36.16    1.76
  -8   0   1   36.59    3.48
   7   0  -1  220.59    5.98
   7   0  -1  217.84    5.98
   7   0  -1  216.93    5.24
  -7   0   1  206.33    7.60
  -7   0   1  214.81   11.47
  -7   0   1  207.87    7.59
   6   0  -1  119.69    3.34
   6   0  -1  120.64    2.93
   6   0  -1  119.15    3.34
  -6   0   1  121.48    6.72
  -6   0   1  114.06    4.30
   5   0  -1   53.00    1.51
   5   0  -1   53.95    1.51
  -5   0   1   51.53    2.01
  -5   0   1   54.42    3.36
  -4   0   1   30.17    2.21
   3   0  -1    1.30    0.59
  -3   0   1    2.57    0.62
   2   0  -1   13.16    1.08
  -2   0   1   15.39    1.29
  -1   0  -1  153.31    3.77
  -1   0  -1  158.07    4.32
  -1   0  -1  154.65    5.30
  -1   0  -1  151.23    4.27
  -1   0  -1  148.05    5.31
   1   0   1  147.86    4.30
   1   0   1  150.87    3.76
   1   0   1  147.67    7.59
   1   0   1  146.64    5.28
  -2   0  -1   11.92    0.42
  -2   0  -1   12.78    0.43
  -2   0  -1   14.12    0.85
  -2   0  -1   12.14    0.37
  -2   0  -1   11.44    0.87
   2   0   1   14.98    1.27
   2   0   1   11.95    0.40
   2   0   1   11.76    0.96
   2   0   1   11.42    0.98
   2   0   1   11.83    0.45
   2   0   1   12.15    0.43
  -3   0  -1  231.64    6.54
  -3   0  -1  249.00    8.28
  -3   0  -1  238.98    8.32
  -3   0  -1  210.55    6.53
  -3   0  -1  236.31   12.01
   3   0   1  250.79   12.04
   3   0   1  238.56    6.60
   3   0   1  233.72    5.81
   3   0   1  237.69    6.65
  -4   0  -1  368.15   12.94
  -4   0  -1  362.83   18.69
  -4   0  -1  376.56   12.94
   4   0   1  369.82    9.03
   4   0   1  378.47   10.31
   4   0   1  359.78   10.33
  -5   0  -1   54.05    2.28
  -5   0  -1   56.49    3.53
  -5   0  -1   53.14    2.22
   5   0   1   55.08    1.63
   5   0   1   52.59    1.43
   5   0   1   52.91    1.63
  -6   0  -1   30.85    1.76
  -6   0  -1   33.14    1.75
   6   0   1   30.70    0.94
   6   0   1   30.52    1.05
   6   0   1   30.13    1.07
  -7   0  -1   12.64    1.30
  -7   0  -1   13.13    1.28
   7   0   1   13.29    0.64
   7   0   1   14.58    0.72
   7   0   1   13.11    0.76
  -8   0  -1    1.03    0.88
  -8   0  -1   -0.42    0.91
   8   0   1    1.13    0.36
   8   0   1    1.29    0.45
  -9   0  -1    0.80    1.01
  -9   0  -1    2.58    0.99
   9   0   1    1.51    0.54
   9   0   1    1.86    0.44
 -10   0  -1    4.40    1.26
 -10   0  -1    6.47    1.14
  10   0   1    6.50    0.62
  10   0   1    7.02    0.74
  11  -1  -1    0.06    0.44
 -11   1   1    0.75    0.91
 -11   1   1   -0.72    0.94
  10  -1  -1    0.47    0.42
  10  -1  -1   -0.68    0.35
 -10   1   1   -1.69    0.83
 -10   1   1    1.24    0.79
   9  -1  -1    0.27    0.35
   9  -1  -1    0.73    0.31
  -9   1   1   -0.04    0.73
  -9   1   1    0.24    0.75
   8  -1  -1    0.61    0.26
   8  -1  -1    0.04    0.22
   8  -1  -1    0.74    0.28
  -8   1   1    0.26    0.66
  -8   1   1    0.50    1.40
  -8   1   1    0.38    0.66
   7  -1  -1   79.41    1.98
   7  -1  -1   80.64    2.25
   7  -1  -1   79.82    2.25
  -7   1   1   77.25    4.95
  -7   1   1   72.91    3.01
  -7   1   1   80.13    2.95
   6  -1  -1   86.97    2.37
   6  -1  -1   85.77    2.09
   6  -1  -1   84.12    2.38
  -6   1   1   77.39    3.15
  -6   1   1   87.36    5.15
  -6   1   1   86.45    3.05
   5  -1  -1   29.03    0.74
  -5   1   1   29.96    2.32
  -4   1   1  264.87   13.53
   3  -1  -1  621.90   31.08
  -3   1   1  619.78   31.79
   2  -1  -1  305.52   15.20
  -2   1   1  299.48   15.21
   1  -1  -1  101.06    3.53
   1  -1  -1   98.52    2.83
  -1   1   1  103.86    5.12
  -1   1   1  107.43    2.85
  -1   1   1  106.80    3.54
  -1   1   1   89.02    2.47
   0  -1  -1   42.42    1.15
   0  -1  -1   33.90    1.13
   0  -1  -1   34.13    0.99
   0   1   1   42.86    1.14
  -1  -1  -1    0.16    0.40
  -1  -1  -1    0.65    0.13
  -1  -1  -1    0.94    0.53
  -1  -1  -1    0.41    0.14
   1   1   1    0.32    0.12
   1   1   1    1.56    0.57
   1   1   1    0.59    0.33
   1   1   1    0.37    0.40
   1   1   1    0.28    0.15
  -2  -1  -1   56.23    1.62
  -2  -1  -1   56.74    3.01
  -2  -1  -1   54.91    2.15
  -2  -1  -1   59.67    2.20
  -2  -1  -1   54.72    1.60
   2   1   1   53.11    1.61
   2   1   1   52.59    2.15
   2   1   1   54.95    1.42
   2   1   1   56.98    1.63
   2   1   1   56.50    3.02
  -3  -1  -1  274.29    9.73
  -3  -1  -1  266.48    7.69
  -3  -1  -1  273.61   14.00
  -3  -1  -1  281.12    9.71
  -3  -1  -1  271.68    7.70
   3   1   1  277.16    7.69
   3   1   1  296.57   14.05
   3   1   1  270.39    7.77
   3   1   1  278.67    6.84
  -4  -1  -1  319.05   16.32
  -4  -1  -1  315.84   11.27
  -4  -1  -1  314.75    8.88
  -4  -1  -1  328.03   11.32
   4   1   1  321.86    7.93
   4   1   1  322.17    9.05
   4   1   1  327.18    8.94
  -5  -1  -1   50.63    3.38
  -5  -1  -1   52.10    2.23
  -5  -1  -1   47.40    2.20
   5   1   1   51.13    1.56
   5   1   1   49.89    1.56
   5   1   1   48.79    1.36
  -6  -1  -1   31.38    2.95
  -6  -1  -1   28.22    1.74
  -6  -1  -1   31.49    1.79
   6   1   1   30.72    0.96
   6   1   1   30.28    1.10
   6   1   1   30.39    1.08
  -7  -1  -1   55.68    2.54
  -7  -1  -1   56.66    2.59
   7   1   1   57.87    1.84
   7   1   1   56.51    1.60
  -8  -1  -1   22.38    1.58
  -8  -1  -1   19.06    1.74
   8   1   1   22.39    0.91
   8   1   1   21.73    1.01
  -9  -1  -1    2.42    0.97
  -9  -1  -1   -0.61    1.05
   9   1   1    1.16    0.53
   9   1   1    1.42    0.45
 -10  -1  -1    1.81    1.11
 -10  -1  -1   -2.76    1.15
  10   1   1    0.52    0.61
  10   1   1    0.10    0.50
 -11   2   1    5.75    1.03
 -11   2   1    8.42    1.02
  10  -2  -1   23.28    0.87
  10  -2  -1   23.53    0.99
 -10   2   1   21.85    1.51
 -10   2   1   21.24    1.45
   9  -2  -1   17.55    0.69
   9  -2  -1   16.63    0.73
  -9   2   1   15.28    1.16
  -9   2   1   15.75    1.32
   8  -2  -1   10.50    0.50
   8  -2  -1   10.97    0.50
   8  -2  -1   10.19    0.53
  -8   2   1   10.45    0.98
  -8   2   1    9.61    0.98
   7  -2  -1    0.26    0.21
   7  -2  -1    0.26    0.21
   7  -2  -1    0.09    0.18
  -7   2   1    1.34    0.56
  -7   2   1   -1.42    0.77
   6  -2  -1   23.56    0.73
   6  -2  -1   24.33    0.68
  -6   2   1   25.38    1.02
   5  -2  -1   11.13    0.36
  -5   2   1   14.74    1.73
   4  -2  -1  184.65    4.39
  -4   2   1  178.25    9.41
   3  -2  -1  449.64   12.21
   3  -2  -1  437.15   10.71
   3  -2  -1  446.97   10.74
   3  -2  -1  412.20   12.17
  -3   2   1  450.38   15.33
  -3   2   1  449.12   15.33
   2  -2  -1   68.11    2.46
   2  -2  -1   69.44    1.69
   2  -2  -1   68.13    2.47
   2  -2  -1   68.80    1.93
   2  -2  -1   69.50    3.78
   2  -2  -1   69.63    1.96
  -2   2   1   68.66    1.94
  -2   2   1   72.40    2.52
  -2   2   1   67.14    2.50
  -2   2   1   66.85    1.72
   1  -2  -1   76.35    1.87
   1  -2  -1   73.54    2.80
   1  -2  -1   76.60    2.14
   1  -2  -1   73.91    2.15
   1  -2  -1   73.36    2.73
  -1   2   1   79.13    2.16
  -1   2   1   75.32    2.14
  -1   2   1   74.82    2.74
  -1   2   1   75.88    1.87
  -1   2   1   77.54    2.81
   0  -2  -1  183.67    5.62
   0  -2  -1  205.36    5.63
   0  -2  -1  199.84    6.97
   0  -2  -1  198.58    4.86
   0   2   1  202.59    5.67
   0   2   1  189.49    6.92
   0   2   1  199.34    5.54
  -1  -2  -1  202.19    7.03
  -1  -2  -1  204.50   10.00
  -1  -2  -1  196.50    5.52
  -1  -2  -1  198.03    5.54
  -1  -2  -1  196.45    7.01
   1   2   1  200.43    4.96
   1   2   1  194.52    5.63
   1   2   1  191.46    7.01
   1   2   1  202.41    5.55
  -2  -2  -1   54.42    2.15
  -2  -2  -1   54.89    2.97
  -2  -2  -1   56.06    2.18
  -2  -2  -1   54.92    1.62
  -2  -2  -1   54.85    1.59
   2   2   1   55.17    1.62
   2   2   1   60.28    3.07
   2   2   1   49.45    2.12
   2   2   1   54.80    1.61
   2   2   1   48.72    1.40
  -3  -2  -1   37.60    2.34
  -3  -2  -1   37.77    1.20
  -3  -2  -1   38.57    1.16
  -3  -2  -1   38.07    1.75
  -3  -2  -1   37.99    1.74
   3   2   1   38.71    1.06
   3   2   1   39.21    1.21
   3   2   1   38.70    1.21
  -4  -2  -1    1.83    0.66
  -4  -2  -1    2.21    0.86
  -4  -2  -1    1.62    0.24
  -4  -2  -1    2.22    0.22
  -4  -2  -1    1.95    0.79
   4   2   1    2.05    0.27
   4   2   1    1.70    0.31
   4   2   1    1.97    0.26
  -5  -2  -1    2.44    0.20
  -5  -2  -1    2.16    0.81
  -5  -2  -1    2.36    0.91
  -5  -2  -1    2.95    1.18
   5   2   1    2.23    0.38
   5   2   1    2.06    0.31
   5   2   1    2.40    0.33
  -6  -2  -1   10.14    1.68
  -6  -2  -1    9.37    1.20
  -6  -2  -1    9.47    1.09
   6   2   1   10.27    0.60
   6   2   1    9.04    0.64
   6   2   1   10.89    0.66
  -7  -2  -1   72.60    4.78
  -7  -2  -1   70.88    3.16
  -7  -2  -1   74.38    3.14
   7   2   1   74.49    2.03
   7   2   1   74.22    2.31
  -8  -2  -1   42.09    2.41
  -8  -2  -1   44.74    2.30
   8   2   1   45.69    1.63
   8   2   1   44.79    1.40
  -9  -2  -1    2.85    1.30
  -9  -2  -1    4.09    1.05
   9   2   1    3.50    0.53
   9   2   1    4.81    0.67
 -10  -2  -1    6.01    1.23
  10   2   1    5.12    0.65
  10   2   1    5.90    0.78
 -11   3   1    4.81    0.90
 -11   3   1    6.73    1.05
  10  -3  -1   38.64    1.18
  10  -3  -1   38.68    1.34
 -10   3   1   37.42    1.79
 -10   3   1   35.96    2.01
   9  -3  -1    6.00    0.47
   9  -3  -1    5.73    0.39
  -9   3   1    5.47    0.72
  -9   3   1    5.92    1.00
   8  -3  -1    0.96    0.27
   8  -3  -1    1.19    0.26
   8  -3  -1    1.38    0.31
  -8   3   1    1.46    0.57
  -8   3   1    0.89    0.90
   7  -3  -1   11.53    0.48
   7  -3  -1   11.21    0.53
   7  -3  -1   11.34    0.49
  -7   3   1   12.47    0.86
   6  -3  -1    4.77    0.34
   6  -3  -1    5.68    0.29
   6  -3  -1    4.57    0.35
  -6   3   1    6.45    0.62
   5  -3  -1    7.95    0.36
   5  -3  -1    8.04    0.36
   5  -3  -1    7.53    0.31
  -5   3   1    8.41    0.56
   4  -3  -1   14.65    0.55
   4  -3  -1   15.06    0.51
   4  -3  -1   15.16    0.49
  -4   3   1   14.38    0.76
   3  -3  -1   47.01    1.41
   3  -3  -1   47.13    1.34
  -3   3   1   49.11    1.83
  -3   3   1   43.75    1.81
  -3   3   1   45.99    1.20
   2  -3  -1    0.30    0.37
   2  -3  -1    0.24    0.16
   2  -3  -1    1.02    0.51
   2  -3  -1    0.60    0.14
  -2   3   1    0.70    0.20
  -2   3   1    0.61    0.16
  -2   3   1    0.42    0.32
  -2   3   1    1.03    0.55
  -2   3   1    0.49    0.12
   1  -3  -1   16.82    0.62
   1  -3  -1   17.79    1.16
   1  -3  -1   16.70    0.60
   1  -3  -1   17.72    0.92
  -1   3   1   17.94    0.87
  -1   3   1   17.98    0.53
  -1   3   1   18.47    0.62
  -1   3   1   17.27    0.60
   0  -3  -1   57.67    1.67
   0  -3  -1   56.35    2.27
   0  -3  -1   56.35    1.69
   0   3   1   56.77    1.47
   0   3   1   61.29    1.71
   0   3   1   55.24    2.19
   0   3   1   56.16    1.68
  -1  -3  -1  341.66   16.41
  -1  -3  -1  332.35    9.04
  -1  -3  -1  334.56   11.45
  -1  -3  -1  316.96    9.27
  -1  -3  -1  321.05   11.42
   1   3   1  313.20   11.42
   1   3   1  327.29    8.12
   1   3   1  321.66    9.06
   1   3   1  323.34    9.27
  -2  -3  -1    3.20    0.26
  -2  -3  -1    2.49    0.55
  -2  -3  -1    3.21    0.31
  -2  -3  -1    2.50    0.72
  -2  -3  -1    3.15    0.64
   2   3   1    2.77    0.28
   2   3   1    2.91    0.25
   2   3   1    3.32    0.29
  -3  -3  -1   15.51    0.66
  -3  -3  -1   16.91    1.48
  -3  -3  -1   15.44    1.09
  -3  -3  -1   14.67    1.28
   3   3   1   13.94    0.65
   3   3   1   16.07    0.66
   3   3   1   15.04    0.57
  -4  -3  -1   17.27    0.75
  -4  -3  -1   19.86    1.65
  -4  -3  -1   16.50    1.38
  -4  -3  -1   18.55    1.81
   4   3   1   18.84    0.78
   4   3   1   17.97    0.67
   4   3   1   18.10    0.78
  -5  -3  -1    7.71    1.15
  -5  -3  -1    6.08    0.93
  -5  -3  -1    6.45    1.31
  -5  -3  -1    6.65    0.48
   5   3   1    6.16    0.44
   5   3   1    6.72    0.53
  -6  -3  -1    1.42    0.86
  -6  -3  -1   -0.22    1.23
  -6  -3  -1    0.72    1.00
   6   3   1    0.25    0.35
   6   3   1    0.82    0.42
  -7  -3  -1   -0.22    1.47
  -7  -3  -1    1.87    0.93
  -7  -3  -1   -1.21    1.09
   7   3   1    1.28    0.43
   7   3   1    1.37    0.51
  -8  -3  -1   -0.80    1.60
  -8  -3  -1    1.01    0.97
  -8  -3  -1   -1.00    1.17
   8   3   1    0.15    0.43
   8   3   1    0.02    0.54
  -9  -3  -1    1.39    1.07
   9   3   1   -0.31    0.57
   9   3   1   -0.28    0.47
 -12   4   1    0.39    1.08
 -12   4   1   -1.61    0.86
 -11   4   1   -1.68    0.76
 -11   4   1    1.44    1.04
  10  -4  -1   21.32    0.88
  10  -4  -1   20.83    0.94
 -10   4   1   20.19    1.32
 -10   4   1   23.35    1.81
   9  -4  -1   11.81    0.62
   9  -4  -1   10.42    0.65
  -9   4   1    9.42    0.94
  -9   4   1   10.46    1.24
   8  -4  -1    2.18    0.34
   8  -4  -1    2.25    0.29
   8  -4  -1    2.97    0.38
  -8   4   1    3.57    0.89
  -8   4   1    2.24    0.57
   7  -4  -1   64.54    1.83
   7  -4  -1   62.20    1.67
   7  -4  -1   62.03    1.88
  -7   4   1   60.46    2.43
   6  -4  -1  126.58    3.61
   6  -4  -1  126.41    3.19
   6  -4  -1  127.68    3.55
  -6   4   1  124.53    4.56
   5  -4  -1    1.22    0.29
   5  -4  -1    0.72    0.25
   5  -4  -1    0.49    0.16
  -5   4   1    1.38    0.49
   4  -4  -1    3.12    0.23
   4  -4  -1    3.03    0.33
  -4   4   1    3.54    0.21
  -4   4   1    3.18    0.54
   3  -4  -1   10.51    0.49
   3  -4  -1   10.79    0.43
  -3   4   1   10.67    0.51
  -3   4   1   10.19    0.43
  -3   4   1    9.75    0.57
  -3   4   1    9.38    0.78
  -3   4   1    9.57    0.37
   2  -4  -1   21.96    0.73
   2  -4  -1   19.88    1.22
   2  -4  -1   22.51    0.79
   2  -4  -1   21.30    1.08
  -2   4   1   23.77    0.82
  -2   4   1   20.41    1.08
  -2   4   1   22.72    0.65
  -2   4   1   22.33    0.74
   1  -4  -1    6.90    0.43
   1  -4  -1    7.74    0.40
   1  -4  -1    5.80    0.74
   1  -4  -1    7.41    0.70
  -1   4   1    6.35    0.41
  -1   4   1    6.63    0.71
  -1   4   1    6.54    0.32
  -1   4   1    7.58    0.45
   0  -4  -1   26.39    0.84
   0  -4  -1   24.54    1.44
   0  -4  -1   25.00    0.88
   0   4   1   24.63    0.74
   0   4   1   24.62    0.86
   0   4   1   24.70    1.21
   0   4   1   25.54    0.88
  -1  -4  -1   14.73    1.02
  -1  -4  -1   14.31    0.63
  -1  -4  -1   12.25    1.26
   1   4   1   13.06    0.58
   1   4   1   13.09    0.99
   1   4   1   14.84    0.60
   1   4   1   14.24    0.51
  -2  -4  -1   32.92    1.59
  -2  -4  -1   30.61    1.11
  -2  -4  -1   33.06    1.79
  -2  -4  -1   34.51    2.16
   2   4   1   32.48    1.12
   2   4   1   32.23    0.95
   2   4   1   32.70    1.09
  -3  -4  -1    1.33    0.71
  -3  -4  -1    1.10    0.78
  -3  -4  -1    1.37    0.32
  -3  -4  -1    1.41    0.93
   3   4   1    1.46    0.34
   3   4   1    1.14    0.29
  -4  -4  -1   45.12    2.95
  -4  -4  -1   43.28    2.11
  -4  -4  -1   44.80    2.31
  -4  -4  -1   42.51    1.43
   4   4   1   40.06    1.42
   4   4   1   42.61    1.27
  -5  -4  -1   29.32    2.63
  -5  -4  -1   28.84    1.08
  -5  -4  -1   28.70    2.02
  -5  -4  -1   30.72    1.86
   5   4   1   29.62    1.01
   5   4   1   29.58    1.16
  -6  -4  -1    4.77    1.00
  -6  -4  -1    2.06    1.36
  -6  -4  -1    3.03    1.13
   6   4   1    4.39    0.55
   6   4   1    3.33    0.47
  -7  -4  -1    4.71    1.33
  -7  -4  -1    5.48    1.73
  -7  -4  -1    8.11    1.12
   7   4   1    7.54    0.72
   7   4   1    8.23    0.59
  -8  -4  -1    1.07    1.75
  -8  -4  -1    6.22    1.18
   8   4   1    5.06    0.59
   8   4   1    4.63    0.67
  -9  -4  -1    2.38    1.19
   9   4   1    1.39    0.70
   9   4   1    0.93    0.54
 -12   5   1    4.55    1.02
 -12   5   1    4.24    1.32
  11  -5  -1    5.10    0.56
 -11   5   1    4.45    1.31
 -11   5   1    3.11    0.87
  10  -5  -1    0.29    0.41
  10  -5  -1   -0.28    0.46
 -10   5   1    0.40    1.20
 -10   5   1    0.25    0.73
   9  -5  -1    0.49    0.41
   9  -5  -1   -0.43    0.39
  -9   5   1    0.14    0.67
  -9   5   1    0.97    1.09
   8  -5  -1    3.93    0.44
   8  -5  -1    3.97    0.48
  -8   5   1    3.40    0.71
   7  -5  -1    1.10    0.40
   7  -5  -1    1.27    0.37
   7  -5  -1    1.19    0.25
  -7   5   1    1.76    0.71
   6  -5  -1   59.93    1.91
   6  -5  -1   62.02    1.78
  -6   5   1   57.02    2.47
   5  -5  -1    0.79    0.34
   5  -5  -1    0.73    0.20
  -5   5   1    0.58    0.14
  -5   5   1    0.27    0.60
   4  -5  -1    5.03    0.37
   4  -5  -1    4.78    0.41
  -4   5   1    4.25    0.62
  -4   5   1    4.22    0.30
  -4   5   1    3.93    0.34
  -4   5   1    4.75    0.33
  -4   5   1    4.78    0.35
   3  -5  -1  177.47    5.22
   3  -5  -1  190.41    5.15
  -3   5   1  184.26    5.25
  -3   5   1  184.38    5.14
  -3   5   1  180.74    6.59
  -3   5   1  182.21    4.50
   2  -5  -1  127.93    3.53
   2  -5  -1  120.72    3.59
   2  -5  -1  119.51    4.54
  -2   5   1  122.85    3.53
  -2   5   1  123.50    3.09
  -2   5   1  129.43    3.61
  -2   5   1  122.02    4.56
   1  -5  -1   58.05    2.43
   1  -5  -1   62.43    1.76
   1  -5  -1   57.24    1.80
   1  -5  -1   56.04    2.32
  -1   5   1   57.18    2.33
  -1   5   1   58.67    1.55
  -1   5   1   57.93    1.76
   0  -5  -1   11.41    0.78
   0  -5  -1   13.51    1.21
   0  -5  -1   11.27    0.58
   0   5   1   11.93    0.94
   0   5   1   11.30    0.59
   0   5   1   12.64    0.52
  -1  -5  -1    3.77    0.85
  -1  -5  -1    3.80    0.39
  -1  -5  -1    4.06    0.63
   1   5   1    3.39    0.66
   1   5   1    3.49    0.36
   1   5   1    3.75    0.30
  -2  -5  -1    0.53    0.67
  -2  -5  -1   -0.23    0.74
  -2  -5  -1   -0.02    0.31
  -2  -5  -1   -0.21    0.94
   2   5   1   -0.07    0.26
   2   5   1    0.01    0.32
  -3  -5  -1    2.34    0.40
  -3  -5  -1    2.63    1.11
  -3  -5  -1    2.92    0.94
  -3  -5  -1    2.09    0.80
   3   5   1    1.91    0.33
   3   5   1    2.10    0.39
  -4  -5  -1   28.33    1.76
  -4  -5  -1   29.72    1.14
  -4  -5  -1   28.05    2.07
  -4  -5  -1   26.80    2.42
   4   5   1   28.19    1.15
   4   5   1   28.73    0.99
  -5  -5  -1    5.73    1.33
  -5  -5  -1    7.89    1.05
  -5  -5  -1    7.13    0.56
  -5  -5  -1    6.92    1.26
   5   5   1    6.84    0.53
   5   5   1    7.71    0.63
  -6  -5  -1   -1.22    1.29
  -6  -5  -1    0.19    1.17
  -6  -5  -1    0.72    0.92
   6   5   1    0.22    0.50
   6   5   1    0.28    0.43
  -7  -5  -1    0.41    1.62
  -7  -5  -1    2.99    1.04
   7   5   1    2.91    0.62
   7   5   1    4.14    0.57
  -8  -5  -1    9.03    1.35
   8   5   1    8.83    0.70
   8   5   1    8.48    0.85
  11  -6  -1    3.35    0.65
  11  -6  -1    4.00    0.56
 -11   6   1    6.17    1.48
 -11   6   1    2.10    0.98
  10  -6  -1   40.24    1.52
  10  -6  -1   37.88    1.34
 -10   6   1   34.78    2.00
 -10   6   1   37.96    2.42
   9  -6  -1   45.40    1.44
   9  -6  -1   45.29    1.63
  -9   6   1   42.93    2.16
  -9   6   1   44.66    2.47
   8  -6  -1   52.00    1.80
  -8   6   1   51.11    2.36
   7  -6  -1   40.13    1.26
   7  -6  -1   37.70    1.43
  -7   6   1   36.37    1.94
   6  -6  -1    0.25    0.25
   6  -6  -1    0.64    0.40
  -6   6   1    0.02    0.72
   5  -6  -1    0.29    0.36
   5  -6  -1    0.68    0.24
  -5   6   1    0.39    0.67
  -5   6   1    0.65    0.17
  -5   6   1    0.90    0.20
  -5   6   1    0.78    0.21
   4  -6  -1    0.45    0.33
   4  -6  -1    0.94    0.24
  -4   6   1    0.99    0.60
  -4   6   1    0.07    0.37
  -4   6   1    0.34    0.21
  -4   6   1    0.57    0.25
   3  -6  -1  129.06    3.53
   3  -6  -1  116.98    3.59
  -3   6   1  122.43    3.07
  -3   6   1  123.10    4.59
  -3   6   1  120.44    3.51
   2  -6  -1  127.01    4.68
   2  -6  -1  123.15    3.68
  -2   6   1  128.71    3.17
  -2   6   1  124.41    4.70
  -2   6   1  125.19    3.62
   1  -6  -1   14.38    1.11
   1  -6  -1   14.12    0.69
   1  -6  -1   15.24    1.49
  -1   6   1   15.00    1.07
  -1   6   1   13.77    0.56
  -1   6   1   14.64    0.70
   0  -6  -1   36.74    1.66
   0  -6  -1   37.56    1.31
   0  -6  -1   38.28    2.13
   0   6   1   37.72    1.86
   0   6   1   36.99    1.29
   0   6   1   38.92    1.13
  -1  -6  -1  109.07    4.29
  -1  -6  -1  104.59    3.18
  -1  -6  -1  108.73    4.14
   1   6   1  107.31    2.75
   1   6   1  101.66    3.13
  -2  -6  -1   51.54    2.61
  -2  -6  -1   47.81    1.65
  -2  -6  -1   50.48    3.28
  -2  -6  -1   50.42    2.32
   2   6   1   46.07    1.61
   2   6   1   48.32    1.43
  -3  -6  -1   36.44    2.32
  -3  -6  -1   36.88    2.01
  -3  -6  -1   33.31    2.62
  -3  -6  -1   34.31    1.31
   3   6   1   34.59    1.32
   3   6   1   33.61    1.14
  -4  -6  -1    8.08    1.34
  -4  -6  -1    9.67    0.71
  -4  -6  -1    9.10    1.10
  -4  -6  -1    9.62    1.36
   4   6   1    8.80    0.64
   4   6   1   10.51    0.78
  -5  -6  -1    1.18    1.21
  -5  -6  -1   -0.35    1.21
  -5  -6  -1    1.47    0.97
   5   6   1    1.69    0.53
   5   6   1    2.71    0.48
  -6  -6  -1   -2.31    1.30
  -6  -6  -1    0.31    1.01
   6   6   1    0.45    0.55
   6   6   1    1.10    0.48
  -7  -6  -1    2.33    1.11
  -7  -6  -1   -4.01    1.71
   7   6   1    2.11    0.66
   7   6   1    1.62    0.54
  -8  -6  -1    9.03    1.47
   8   6   1    8.55    0.75
   8   6   1    9.10    0.92
  11  -7  -1    0.18    0.64
 -11   7   1    0.74    1.51
 -11   7   1    0.13    0.99
  10  -7  -1   18.62    1.13
 -10   7   1   17.26    1.73
 -10   7   1   17.08    1.58
   9  -7  -1   32.09    1.38
  -9   7   1   29.22    1.84
   8  -7  -1    6.39    0.69
  -8   7   1    6.51    0.97
   7  -7  -1   34.68    1.39
   7  -7  -1   37.42    1.24
  -7   7   1   33.83    1.97
   6  -7  -1  121.98    3.32
   6  -7  -1  109.62    3.44
  -6   7   1  106.81    4.40
   5  -7  -1  115.12    3.21
   5  -7  -1  107.12    3.32
  -5   7   1  106.00    3.13
  -5   7   1  107.67    4.29
  -5   7   1  111.97    2.77
   4  -7  -1  146.38    4.32
  -4   7   1  146.05    3.67
  -4   7   1  150.56    5.51
  -4   7   1  143.92    4.18
   3  -7  -1   67.54    2.19
  -3   7   1   69.49    1.84
  -3   7   1   70.21    2.91
  -3   7   1   68.38    2.10
   2  -7  -1    3.23    0.73
   2  -7  -1    2.86    0.44
  -2   7   1    2.93    0.41
  -2   7   1    3.55    0.75
  -2   7   1    3.87    0.36
   1  -7  -1    2.66    0.74
   1  -7  -1    2.70    0.45
   1  -7  -1    3.76    1.14
  -1   7   1    2.96    0.36
  -1   7   1    3.25    0.79
  -1   7   1    2.85    0.43
   0  -7  -1   27.86    2.10
   0  -7  -1   25.37    1.06
   0  -7  -1   25.20    1.35
   0   7   1   25.01    1.58
   0   7   1   26.06    0.92
   0   7   1   26.89    1.07
  -1  -7  -1  160.35    4.78
  -1  -7  -1  167.71    6.12
  -1  -7  -1  167.65    6.22
   1   7   1  164.28    4.15
   1   7   1  156.69    4.74
  -2  -7  -1   86.50    2.76
  -2  -7  -1   91.06    5.19
  -2  -7  -1   91.41    3.73
  -2  -7  -1   90.08    3.90
   2   7   1   85.95    2.74
   2   7   1   86.02    2.39
  -3  -7  -1   30.52    1.29
  -3  -7  -1   34.49    1.88
  -3  -7  -1   33.02    2.24
  -3  -7  -1   32.73    2.65
   3   7   1   31.36    1.12
   3   7   1   30.69    1.24
  -4  -7  -1   22.72    2.44
  -4  -7  -1   24.56    1.13
  -4  -7  -1   28.05    1.83
   4   7   1   24.12    1.14
   4   7   1   23.80    0.95
  -5  -7  -1   23.27    1.81
  -5  -7  -1   15.62    1.98
   5   7   1   18.54    0.93
   5   7   1   18.46    1.06
  -6  -7  -1    3.44    1.58
  -6  -7  -1    6.35    1.26
   6   7   1    6.40    0.65
   6   7   1    7.02    0.78
   7   7   1    0.98    0.59
   7   7   1    0.45    0.69
  11  -8  -1    8.79    0.91
 -11   8   1    9.73    1.82
 -11   8   1    8.79    1.29
  10  -8  -1    0.41    0.63
 -10   8   1   -0.38    1.41
 -10   8   1    0.00    1.03
   9  -8  -1    5.93    0.73
  -9   8   1    6.64    1.15
   8  -8  -1    1.02    0.56
  -8   8   1    0.58    0.89
   7  -8  -1    7.67    0.71
  -7   8   1    7.98    1.06
   6  -8  -1  105.81    3.31
  -6   8   1  107.05    4.24
  -6   8   1  105.79    2.68
   5  -8  -1   67.16    2.22
  -5   8   1   68.94    1.81
  -5   8   1   65.56    2.04
  -5   8   1   66.27    2.98
   4  -8  -1   32.38    1.31
  -4   8   1   34.52    1.96
  -4   8   1   35.83    1.10
  -4   8   1   36.51    1.26
   3  -8  -1   38.02    1.43
  -3   8   1   38.61    2.04
  -3   8   1   38.21    1.16
  -3   8   1   36.63    1.33
   2  -8  -1   19.52    0.92
   2  -8  -1   20.06    1.52
  -2   8   1   18.85    0.90
  -2   8   1   19.28    0.79
  -2   8   1   17.38    1.53
   1  -8  -1   23.88    1.10
   1  -8  -1   25.17    1.58
  -1   8   1   26.82    1.76
  -1   8   1   24.02    1.03
  -1   8   1   24.91    0.90
   0  -8  -1   13.91    1.49
   0  -8  -1   13.12    0.81
   0   8   1   14.51    1.40
   0   8   1   12.04    0.66
   0   8   1   13.23    0.78
  -1  -8  -1    1.48    0.93
  -1  -8  -1    1.10    1.30
  -1  -8  -1    1.40    0.51
   1   8   1    0.87    0.38
   1   8   1    0.47    0.46
  -2  -8  -1    1.31    0.90
  -2  -8  -1    0.72    0.46
  -2  -8  -1    0.45    1.08
   2   8   1    1.04    0.46
   2   8   1    0.83    0.42
  -3  -8  -1    0.23    1.12
  -3  -8  -1    0.85    0.90
  -3  -8  -1    0.57    0.52
   3   8   1    0.24    0.44
   3   8   1    0.12    0.50
  -4  -8  -1    8.30    1.55
  -4  -8  -1    9.11    0.82
   4   8   1   10.52    0.77
   4   8   1    9.85    0.80
  -5  -8  -1   16.23    2.46
   5   8   1   22.24    0.98
   5   8   1   22.16    1.21
   6   8   1    6.01    0.69
   6   8   1    7.70    0.87
  11  -9  -1    6.89    0.86
 -11   9   1    7.77    1.37
 -11   9   1    5.23    1.83
  10  -9  -1    4.21    0.78
 -10   9   1    4.30    1.18
 -10   9   1    2.41    1.67
   9  -9  -1   -0.96    0.62
  -9   9   1    0.22    1.01
   8  -9  -1    0.29    0.59
  -8   9   1    1.22    0.99
   7  -9  -1    4.12    0.65
  -7   9   1    5.37    1.07
   6  -9  -1   21.19    1.11
  -6   9   1   22.86    1.73
  -6   9   1   21.60    0.79
   5  -9  -1    8.37    0.73
  -5   9   1    8.05    0.56
  -5   9   1    7.97    1.07
  -5   9   1    8.32    0.55
   4  -9  -1    0.48    0.47
  -4   9   1    0.05    0.34
  -4   9   1   -0.18    0.86
  -4   9   1    0.66    0.42
   3  -9  -1   14.11    0.85
  -3   9   1   13.05    0.82
  -3   9   1   12.71    1.27
  -3   9   1   13.97    0.72
   2  -9  -1   84.51    2.71
  -2   9   1   81.98    2.25
  -2   9   1   81.67    2.58
  -2   9   1   84.09    3.54
   1  -9  -1   27.70    1.23
  -1   9   1   30.09    1.23
  -1   9   1   28.52    1.05
   0  -9  -1   24.65    1.17
   0   9   1   23.18    0.95
   0   9   1   20.72    1.03
  -1  -9  -1    7.26    0.74
   1   9   1    6.82    0.66
   1   9   1    7.07    0.57
  -2  -9  -1    1.05    1.26
  -2  -9  -1    0.94    0.56
   2   9   1    1.09    0.56
   2   9   1    1.06    0.48
  -3  -9  -1    0.95    0.61
  -3  -9  -1    0.23    1.22
   3   9   1    1.01    0.47
   3   9   1    0.87    0.59
   4   9   1    0.18    0.58
   4   9   1    0.42    0.54
   5   9   1    2.71    0.75
   5   9   1    2.97    0.64
   6   9   1    0.19    0.61
   6   9   1    0.82    0.76
  10 -10  -1   11.58    1.02
 -10  10   1   10.43    1.44
   9 -10  -1   19.93    1.20
  -9  10   1   19.29    1.87
   8 -10  -1   14.49    1.04
  -8  10   1   13.64    1.46
   7 -10  -1    5.84    0.74
  -7  10   1    6.16    1.13
   6 -10  -1    0.44    0.55
  -6  10   1    0.31    0.94
   5 -10  -1    7.17    0.75
  -5  10   1    7.54    0.54
  -5  10   1    8.60    0.62
  -5  10   1    7.45    1.16
   4 -10  -1    1.03    0.55
  -4  10   1    0.74    0.47
  -4  10   1    1.07    0.40
   3 -10  -1    7.24    0.72
  -3  10   1    8.34    0.68
  -3  10   1    7.56    0.57
   2 -10  -1   24.78    1.18
  -2  10   1   24.13    1.09
  -2  10   1   24.26    0.95
   1 -10  -1    2.14    0.58
  -1  10   1    1.85    0.45
  -1  10   1    2.09    0.53
   0 -10  -1   -0.69    0.56
   0  10   1    0.62    0.44
   0  10   1    0.42    0.55
  -1 -10  -1    5.08    1.71
  -1 -10  -1    2.94    0.70
   1  10   1    2.82    0.55
   1  10   1    3.37    0.66
  -2 -10  -1    4.81    0.76
  -2 -10  -1    5.31    1.53
   2  10   1    6.34    0.65
   2  10   1    5.15    0.71
  -3 -10  -1    5.35    0.80
   3  10   1    3.53    0.60
   3  10   1    4.57    0.76
   4  10   1    2.25    0.76
   4  10   1    2.32    0.60
   5  10   1    0.39    0.76
   5  10   1    0.27    0.63
  10 -11  -1   -0.24    0.69
   9 -11  -1   13.35    1.09
   8 -11  -1    3.87    0.77
   7 -11  -1    3.12    0.72
   6 -11  -1   12.06    0.97
   5 -11  -1   12.39    1.02
  -5  11   1   12.76    0.76
   4 -11  -1   16.55    1.13
  -4  11   1   19.53    1.02
  -4  11   1   19.31    0.93
   3 -11  -1   17.69    1.15
  -3  11   1   18.13    0.91
  -3  11   1   20.07    1.08
   2 -11  -1   -0.14    0.55
  -2  11   1    0.77    0.49
  -2  11   1    1.16    0.59
   1 -11  -1    0.51    0.59
  -1  11   1    0.10    0.59
  -1  11   1   -0.14    0.50
   0 -11  -1   -0.50    0.65
   0  11   1    0.95    0.63
   0  11   1   -0.08    0.52
  -1 -11  -1    8.99    0.92
   1  11   1    8.59    0.86
   1  11   1    7.24    0.67
  -2 -11  -1    8.95    0.97
   2  11   1    9.84    0.80
   2  11   1    9.51    0.93
   3  11   1    2.81    0.69
   3  11   1    2.87    0.76
   4  11   1    2.32    0.71
   4  11   1    1.93    0.78
   9 -12  -1    0.34    0.78
   8 -12  -1    0.21    0.70
   7 -12  -1    2.51    0.76
   6 -12  -1    4.79    0.78
   5 -12  -1   17.42    1.22
   4 -12  -1   11.16    0.98
  -4  12   1   10.46    0.75
  -4  12   1   11.34    0.95
   3 -12  -1    7.64    0.86
  -3  12   1    8.33    0.69
  -3  12   1    7.32    0.80
   2 -12  -1    9.24    0.95
  -2  12   1    9.36    0.86
  -2  12   1    8.11    0.68
   1 -12  -1    7.86    0.92
  -1  12   1    6.69    0.66
  -1  12   1    8.96    0.89
   0 -12  -1   11.04    1.06
   0  12   1   10.61    0.99
   0  12   1   11.05    0.83
  -1 -12  -1    2.21    0.82
   1  12   1    3.11    0.68
   1  12   1    2.79    0.80
  -2 -12  -1    0.77    0.83
   2  12   1    0.31    0.72
   2  12   1   -0.73    0.59
   8 -13  -1    5.18    0.93
   7 -13  -1   17.03    1.30
   6 -13  -1    6.48    0.90
   5 -13  -1    0.13    0.74
   4 -13  -1    1.56    0.75
  -4  13   1    1.90    0.60
   3 -13  -1    0.13    0.75
  -3  13   1    0.04    0.69
  -3  13   1   -0.04    0.56
   2 -13  -1   10.80    1.07
  -2  13   1   10.67    0.82
  -2  13   1    9.25    0.96
   1 -13  -1   15.65    1.30
  -1  13   1   14.47    0.95
  -1  13   1   12.76    1.10
   0 -13  -1    8.49    1.07
   0  13   1   12.06    1.09
   0  13   1    9.11    0.87
  -1 -13  -1    8.84    1.11
   1  13   1    8.15    0.88
   1  13   1    7.50    0.97
   6 -14  -1   10.51    1.15
   5 -14  -1    3.35    0.92
   4 -14  -1    1.99    0.86
   3 -14  -1    2.14    0.90
  -3  14   1    2.19    0.70
   2 -14  -1   -0.29    0.78
  -2  14   1    0.18    0.81
  -2  14   1    0.56    0.64
   0  14  -2    0.23    0.83
   0  14  -2    0.88    0.70
   0 -14   2   -0.38    0.81
  -1  14  -2    0.87    0.64
  -1  14  -2    0.14    0.73
   1 -14   2   -0.76    0.84
  -2  14  -2    0.18    0.64
  -2  14  -2    1.28    0.79
   2 -14   2    1.13    0.88
  -3  14  -2    7.07    0.92
  -3  14  -2    7.08    0.79
   3 -14   2    6.04    1.04
  -4  14  -2    5.08    0.73
   4 -14   2    6.97    1.04
   5 -14   2    5.99    1.02
   6 -14   2    5.88    0.97
   2  13  -2    3.90    0.89
   2  13  -2    3.30    0.69
  -2 -13   2    6.31    2.48
   1  13  -2    2.52    0.76
   1  13  -2    3.55    0.72
  -1 -13   2    2.97    0.91
   0  13  -2    0.76    0.73
   0  13  -2    0.24    0.61
   0 -13   2   -0.35    0.78
  -1  13  -2    1.97    0.59
  -1  13  -2    1.27    0.72
   1 -13   2    0.27    0.80
  -2  13  -2   10.21    0.95
   2 -13   2   11.31    1.06
  -3  13  -2    2.97    0.71
   3 -13   2    1.00    0.80
  -4  13  -2   -0.30    0.54
  -4  13  -2    0.45    0.65
   4 -13   2   -0.61    0.68
   5 -13   2    1.96    0.82
   6 -13   2    0.14    0.80
   7 -13   2    5.42    0.98
   8 -13   2    5.84    1.01
   4  12  -2    0.17    0.76
   4  12  -2   -0.93    0.64
  -4 -12   2   -0.16    1.96
   3  12  -2    1.31    0.76
   3  12  -2    1.75    0.62
  -3 -12   2    2.37    2.14
   2  12  -2    2.15    0.75
   2  12  -2    1.72    0.63
  -2 -12   2    1.16    2.05
  -2 -12   2    0.87    0.81
   1  12  -2    3.86    0.76
  -1 -12   2    3.37    0.82
   0  12  -2   13.66    1.00
   0 -12   2   14.45    1.20
  -1  12  -2   19.07    1.18
   1 -12   2   18.24    1.30
  -2  12  -2   29.40    1.36
   2 -12   2   26.18    1.49
  -3  12  -2   12.98    1.01
   3 -12   2   11.33    1.01
  -4  12  -2    0.21    0.58
   4 -12   2    0.16    0.65
   5 -12   2    5.84    0.88
   6 -12   2    2.09    0.80
   7 -12   2    3.30    0.85
   8 -12   2    1.02    0.82
  -9  12  -2    2.89    2.10
   9 -12   2    0.20    0.83
   5  11  -2    8.87    0.96
   5  11  -2    7.91    0.80
  -5 -11   2    6.99    2.24
   4  11  -2    4.87    0.77
   4  11  -2    5.51    0.67
  -4 -11   2    4.65    2.04
   3  11  -2    0.77    0.61
   3  11  -2   -0.06    0.55
  -3 -11   2    1.46    1.86
   2  11  -2    0.44    0.57
  -2 -11   2   -0.66    2.03
  -2 -11   2   -0.64    0.66
   1  11  -2    0.48    0.55
  -1 -11   2    0.21    0.67
   0  11  -2   15.54    1.04
   0 -11   2   15.18    1.16
  -1  11  -2    9.97    0.82
   1 -11   2    9.63    0.90
  -2  11  -2   20.01    1.09
   2 -11   2   18.74    1.16
  -3  11  -2   26.95    1.22
   3 -11   2   26.45    1.34
  -4  11  -2   19.39    1.05
   4 -11   2   15.01    1.08
  -5  11  -2   30.11    1.25
  -5  11  -2   26.86    2.38
   5 -11   2   30.47    1.45
  -6  11  -2   43.44    3.33
   6 -11   2   45.61    1.92
  -7  11  -2    4.04    1.72
   7 -11   2    4.87    0.84
  -8  11  -2   -0.68    1.63
   8 -11   2   -0.12    0.73
  -9  11  -2    5.45    1.92
   9 -11   2    3.43    0.87
   6  10  -2    6.20    0.85
   6  10  -2    3.24    0.67
  -6 -10   2    2.86    2.02
   5  10  -2    7.96    0.82
   5  10  -2    8.84    0.75
  -5 -10   2    8.65    2.16
   4  10  -2   18.63    1.06
   4  10  -2   19.94    0.99
  -4 -10   2   15.47    2.51
   3  10  -2   13.63    0.98
  -3 -10   2   13.64    1.01
  -3 -10   2   12.00    2.34
   2  10  -2   35.79    1.48
  -2 -10   2   35.06    1.55
   1  10  -2   61.33    2.16
  -1 -10   2   65.64    2.28
   0  10  -2    9.99    0.77
   0 -10   2    9.04    0.82
  -1  10  -2    3.56    0.56
   1 -10   2    4.09    0.66
  -2  10  -2    1.96    0.50
   2 -10   2    1.74    0.57
  -3  10  -2   43.51    1.55
   3 -10   2   40.37    1.68
  -4  10  -2   83.16    2.55
  -4  10  -2   79.63    3.57
   4 -10   2   77.70    2.71
  -5  10  -2   62.87    2.01
  -5  10  -2   62.19    3.48
  -5  10  -2   60.50    2.90
   5 -10   2   59.24    2.24
  -6  10  -2   49.30    3.46
  -6  10  -2   53.38    2.73
   6 -10   2   51.74    2.03
  -7  10  -2   20.31    1.87
  -7  10  -2   25.56    2.59
   7 -10   2   23.73    1.32
  -8  10  -2    5.96    1.76
   8 -10   2    3.33    0.78
  -9  10  -2   11.75    2.04
   9 -10   2   12.54    1.11
 -10  10  -2    9.72    2.10
  10 -10   2    6.67    1.03
   7   9  -2    0.92    0.70
   7   9  -2    1.80    0.61
  -7  -9   2   -1.59    1.97
   6   9  -2    0.76    0.53
   6   9  -2    0.83    0.63
  -6  -9   2   -1.98    1.78
   5   9  -2    1.22    0.52
   5   9  -2    1.00    0.59
  -5  -9   2    0.16    1.68
  -5  -9   2    1.21    1.06
   4   9  -2    5.44    0.68
  -4  -9   2    6.08    1.86
  -4  -9   2    7.61    1.21
   3   9  -2   16.38    0.94
  -3  -9   2   18.93    1.10
  -3  -9   2   16.96    2.49
  -3  -9   2   20.47    1.57
   2   9  -2   28.09    1.27
  -2  -9   2   34.02    1.98
  -2  -9   2   30.75    1.35
   1   9  -2   43.31    1.59
  -1  -9   2   44.24    1.67
  -1  -9   2   46.37    2.29
   0   9  -2   25.47    1.12
   0  -9   2   27.94    1.83
   0  -9   2   26.62    1.22
  -1   9  -2    3.78    1.02
  -1   9  -2    3.21    0.54
   1  -9   2    2.28    0.89
   1  -9   2    3.13    0.61
  -2   9  -2   51.30    2.53
  -2   9  -2   53.90    1.74
   2  -9   2   45.64    1.83
   2  -9   2   53.62    2.64
  -3   9  -2   32.51    2.07
  -3   9  -2   33.17    1.27
   3  -9   2   32.87    1.39
  -4   9  -2    1.48    0.97
  -4   9  -2    1.09    0.45
   4  -9   2    1.31    0.52
  -5   9  -2    0.87    1.36
  -5   9  -2   -0.07    0.87
  -5   9  -2    0.42    0.40
   5  -9   2    0.20    0.54
  -6   9  -2   -1.41    1.29
  -6   9  -2   -0.18    0.90
   6  -9   2    0.44    0.57
  -7   9  -2   23.36    1.81
  -7   9  -2   22.35    2.07
   7  -9   2   23.73    1.30
  -8   9  -2   30.76    2.02
  -8   9  -2   32.30    2.86
   8  -9   2   26.58    1.49
  -9   9  -2   23.29    2.23
  -9   9  -2   22.99    1.85
   9  -9   2   22.73    1.39
 -10   9  -2   23.68    2.38
  10  -9   2   22.16    1.43
   7   8  -2    2.68    0.56
   7   8  -2    2.86    0.67
  -7  -8   2    2.37    1.13
  -7  -8   2   -0.35    1.75
   6   8  -2   -0.02    0.46
   6   8  -2   -0.23    0.53
  -6  -8   2    1.08    1.05
  -6  -8   2   -0.68    1.65
   5   8  -2    3.34    0.59
  -5  -8   2    3.27    1.67
  -5  -8   2    3.94    1.09
   4   8  -2    9.07    0.72
  -4  -8   2   11.19    1.21
  -4  -8   2   10.07    0.81
  -4  -8   2    9.91    1.96
   3   8  -2    0.50    0.43
  -3  -8   2   -0.52    0.84
  -3  -8   2    0.01    0.45
  -3  -8   2   -0.32    1.56
   2   8  -2   -0.57    0.40
  -2  -8   2    0.03    0.83
  -2  -8   2   -0.40    0.46
   1   8  -2   -0.23    0.41
  -1  -8   2   -0.19    0.77
  -1  -8   2   -0.12    0.45
   0   8  -2   12.69    0.73
   0   8  -2   13.73    1.30
   0  -8   2   14.32    1.40
   0  -8   2   13.12    0.81
  -1   8  -2   16.35    1.40
  -1   8  -2   17.00    0.87
   1  -8   2   18.20    0.94
  -2   8  -2   51.97    1.69
  -2   8  -2   51.80    2.47
   2  -8   2   52.46    2.52
   2  -8   2   46.97    1.79
  -3   8  -2   94.82    3.80
  -3   8  -2   96.52    2.80
   3  -8   2   87.33    2.93
  -4   8  -2    1.08    0.38
  -4   8  -2    0.89    0.89
   4  -8   2    1.46    0.52
  -5   8  -2    2.20    1.40
  -5   8  -2    1.37    0.36
  -5   8  -2    1.74    0.94
   5  -8   2    1.79    0.56
  -6   8  -2   18.29    1.74
  -6   8  -2   19.16    0.74
  -6   8  -2   20.78    1.67
   6  -8   2   19.71    1.12
  -7   8  -2   -0.51    0.89
  -7   8  -2    0.40    1.38
   7  -8   2    0.34    0.57
  -8   8  -2    2.79    1.54
  -8   8  -2    2.86    1.05
   8  -8   2    2.12    0.69
   8  -8   2    3.10    0.62
  -9   8  -2    0.03    1.56
  -9   8  -2    0.99    1.04
   9  -8   2    1.08    0.61
   9  -8   2    0.18    0.68
 -10   8  -2   -0.11    1.09
 -10   8  -2    1.96    1.72
  10  -8   2    0.10    0.62
  10  -8   2   -0.16    0.70
 -11   8  -2    5.53    1.89
  11  -8   2    3.72    0.74
   8   7  -2    2.25    0.68
   8   7  -2    2.81    0.58
  -8  -7   2   -0.58    1.98
  -8  -7   2    1.63    1.07
   7   7  -2    5.01    0.67
   7   7  -2    3.94    0.55
  -7  -7   2    2.59    1.73
  -7  -7   2    4.47    1.07
   6   7  -2    3.11    0.56
   6   7  -2    2.78    0.47
  -6  -7   2    3.81    1.43
  -6  -7   2    2.01    1.61
  -6  -7   2    4.03    1.05
   5   7  -2   16.09    0.88
  -5  -7   2   16.66    1.45
  -5  -7   2   14.89    2.13
   4   7  -2   26.62    1.11
  -4  -7   2   29.14    1.16
  -4  -7   2   28.54    3.03
  -4  -7   2   28.55    1.75
   3   7  -2    1.04    0.42
  -3  -7   2    1.56    0.44
  -3  -7   2   -0.42    1.55
  -3  -7   2    0.70    0.85
   2   7  -2    5.02    0.51
  -2  -7   2    7.03    0.57
  -2  -7   2    6.93    0.95
   1   7  -2   14.61    0.77
  -1  -7   2   13.99    0.77
  -1  -7   2   15.00    1.33
   0   7  -2    2.83    0.78
   0   7  -2    3.35    0.40
   0  -7   2    3.71    0.50
   0  -7   2    3.87    0.72
  -1   7  -2    0.99    0.32
  -1   7  -2    1.30    0.64
   1  -7   2    0.60    0.38
   1  -7   2    0.95    0.59
  -2   7  -2   20.54    1.43
  -2   7  -2   18.29    0.82
   2  -7   2   18.53    1.35
   2  -7   2   19.15    0.92
  -3   7  -2    0.15    0.31
  -3   7  -2    0.43    0.68
   3  -7   2    1.23    0.85
   3  -7   2    0.85    0.44
  -4   7  -2    1.29    0.80
  -4   7  -2    1.06    0.33
  -4   7  -2    2.35    1.20
   4  -7   2    0.41    0.46
  -5   7  -2    0.35    1.22
  -5   7  -2    0.63    0.29
  -5   7  -2    0.79    0.82
   5  -7   2    0.38    0.48
  -6   7  -2   73.46    3.25
  -6   7  -2   76.15    3.72
   6  -7   2   73.37    2.48
   6  -7   2   76.31    2.20
  -7   7  -2   52.98    2.56
  -7   7  -2   52.60    3.09
   7  -7   2   53.16    1.94
   7  -7   2   56.39    1.75
  -8   7  -2    2.16    0.94
  -8   7  -2    3.64    1.49
   8  -7   2    2.26    0.53
   8  -7   2    1.73    0.61
  -9   7  -2   10.16    1.23
  -9   7  -2   11.27    1.75
   9  -7   2   10.62    0.90
   9  -7   2   12.34    0.83
 -10   7  -2   14.09    1.95
 -10   7  -2   11.70    1.36
  10  -7   2   13.78    1.11
  10  -7   2   14.99    1.09
 -11   7  -2    2.02    1.77
 -11   7  -2    0.44    1.09
  11  -7   2   -0.06    0.75
  11  -7   2   -0.06    0.65
   9   6  -2    0.51    0.61
   9   6  -2   -0.53    0.47
  -9  -6   2   -0.07    1.05
  -9  -6   2   -4.09    1.91
   8   6  -2    0.55    0.47
   8   6  -2    1.18    0.57
  -8  -6   2   -1.25    1.81
  -8  -6   2    0.78    0.98
   7   6  -2   -0.05    0.40
   7   6  -2    0.69    0.48
  -7  -6   2    0.75    0.91
  -7  -6   2   -0.52    1.32
  -7  -6   2   -0.75    1.49
   6   6  -2    1.73    0.47
  -6  -6   2    1.44    1.45
  -6  -6   2    2.79    0.91
   5   6  -2    2.82    0.47
  -5  -6   2    4.01    0.40
  -5  -6   2    2.82    0.84
  -5  -6   2    2.28    1.43
   4   6  -2   22.17    0.99
  -4  -6   2   25.01    1.56
  -4  -6   2   24.41    1.00
  -4  -6   2   25.68    2.85
   3   6  -2   13.12    0.71
  -3  -6   2   13.47    2.00
  -3  -6   2   13.74    1.23
  -3  -6   2   11.77    0.69
   2   6  -2   11.24    0.64
   2   6  -2    9.47    1.25
  -2  -6   2   11.33    0.67
  -2  -6   2   12.52    1.03
   1   6  -2  135.86    3.93
  -1  -6   2  134.48    3.98
  -1  -6   2  136.58    5.06
   0   6  -2  138.28    3.95
   0   6  -2  135.55    5.08
   0  -6   2  134.33    4.02
   0  -6   2  138.67    5.08
  -1   6  -2    0.78    0.60
  -1   6  -2    1.07    0.31
   1  -6   2    1.04    0.57
   1  -6   2    1.40    0.38
  -2   6  -2    6.84    0.77
  -2   6  -2    7.06    0.50
   2  -6   2    7.10    0.86
   2  -6   2    7.51    0.62
  -3   6  -2   27.04    1.49
  -3   6  -2   31.71    1.92
  -3   6  -2   27.23    0.99
   3  -6   2   27.30    1.15
   3  -6   2   25.17    1.58
   3  -6   2   30.56    1.01
  -4   6  -2   17.86    1.33
  -4   6  -2   20.40    1.81
  -4   6  -2   17.66    0.73
   4  -6   2   19.04    0.78
   4  -6   2   18.66    0.82
   4  -6   2   19.14    0.94
  -5   6  -2    9.69    1.00
  -5   6  -2   11.84    1.37
  -5   6  -2    9.45    0.50
   5  -6   2   10.07    0.60
   5  -6   2    9.77    0.79
   5  -6   2    8.72    0.60
  -6   6  -2    9.62    1.07
  -6   6  -2   11.78    1.53
   6  -6   2   11.61    0.67
   6  -6   2   11.75    0.79
   6  -6   2   10.75    0.72
  -7   6  -2    6.37    1.43
  -7   6  -2    6.72    0.95
   7  -6   2    8.37    0.60
   7  -6   2    6.36    0.66
   7  -6   2    7.86    0.57
  -8   6  -2   -0.26    1.32
  -8   6  -2    0.15    0.81
   8  -6   2    0.35    0.52
   8  -6   2    0.29    0.45
  -9   6  -2    3.51    1.00
  -9   6  -2    6.83    1.61
   9  -6   2    4.89    0.68
   9  -6   2    4.98    0.60
 -10   6  -2   26.80    1.88
 -10   6  -2   30.19    2.54
  10  -6   2   26.28    1.34
  10  -6   2   27.43    1.20
 -11   6  -2    5.35    1.71
 -11   6  -2    2.91    1.17
  11  -6   2    3.41    0.69
  11  -6   2    3.10    0.75
   9   5  -2    3.97    0.62
   9   5  -2    3.66    0.53
  -9  -5   2    4.68    1.45
  -9  -5   2    0.06    1.96
  -9  -5   2    4.11    1.08
   8   5  -2   28.55    1.06
   8   5  -2   28.90    1.22
  -8  -5   2   26.14    3.17
  -8  -5   2   29.85    2.20
  -8  -5   2   30.09    1.84
   7   5  -2   45.19    1.55
   7   5  -2   42.93    1.35
  -7  -5   2   44.74    2.18
  -7  -5   2   45.50    3.70
   6   5  -2    9.75    0.69
  -6  -5   2    9.51    0.99
  -6  -5   2    7.52    1.65
   5   5  -2   -0.20    0.34
  -5  -5   2    0.50    0.72
  -5  -5   2    0.60    0.23
  -5  -5   2    1.10    1.36
   4   5  -2    1.23    0.32
   4   5  -2    0.81    0.33
  -4  -5   2    0.98    0.74
  -4  -5   2    2.72    1.32
  -4  -5   2    1.35    0.30
   3   5  -2   39.24    1.27
   3   5  -2   34.57    1.23
  -3  -5   2   38.12    3.19
  -3  -5   2   36.33    1.74
  -3  -5   2   37.03    1.24
   2   5  -2   47.35    2.52
   2   5  -2   51.30    1.63
   2   5  -2   56.77    1.69
  -2  -5   2   55.40    2.22
  -2  -5   2   52.15    1.66
   1   5  -2  183.72    6.77
   1   5  -2  198.39    5.38
   1   5  -2  181.27    6.89
   1   5  -2  192.15    5.34
  -1  -5   2  187.03    5.37
  -1  -5   2  186.67    6.78
   0   5  -2  217.84    5.94
   0   5  -2  216.68    5.88
   0   5  -2  201.58    7.46
   0  -5   2  205.33    7.48
   0  -5   2  206.72    5.86
   0  -5   2  200.97    5.93
  -1   5  -2   30.96    1.06
  -1   5  -2   35.09    1.19
  -1   5  -2   30.12    1.54
   1  -5   2   30.64    1.17
   1  -5   2   33.16    1.05
  -2   5  -2   97.98    2.82
  -2   5  -2  101.71    2.95
  -2   5  -2   93.71    3.72
  -2   5  -2   96.99    3.78
   2  -5   2   94.48    3.74
   2  -5   2   99.92    2.82
   2  -5   2   94.63    2.94
  -3   5  -2  311.19   11.23
  -3   5  -2  316.18    8.81
  -3   5  -2  319.82   11.28
  -3   5  -2  328.83    8.90
   3  -5   2  311.13    7.82
   3  -5   2  329.94    8.84
   3  -5   2  312.14   11.19
   3  -5   2  302.56    8.93
  -4   5  -2   67.85    2.76
  -4   5  -2   67.21    3.00
  -4   5  -2   69.75    2.09
  -4   5  -2   67.72    2.01
   4  -5   2   67.10    2.16
   4  -5   2   70.95    2.08
   4  -5   2   69.63    1.92
  -5   5  -2    5.08    0.35
  -5   5  -2    4.81    1.17
  -5   5  -2    4.84    0.33
  -5   5  -2    4.77    0.74
   5  -5   2    5.48    0.41
   5  -5   2    4.34    0.49
   5  -5   2    4.56    0.44
  -6   5  -2   26.85    1.53
  -6   5  -2   28.31    2.40
   6  -5   2   30.61    1.12
   6  -5   2   29.86    1.08
   6  -5   2   28.32    1.15
   6  -5   2   28.28    1.00
  -7   5  -2    1.70    1.31
  -7   5  -2    2.62    0.79
   7  -5   2    2.19    0.50
   7  -5   2    2.16    0.41
   7  -5   2    2.96    0.42
  -8   5  -2   12.28    1.61
  -8   5  -2   10.66    1.08
   8  -5   2   12.27    0.84
   8  -5   2   11.30    0.73
  -9   5  -2   17.78    1.80
  -9   5  -2   15.96    1.39
   9  -5   2   16.13    0.87
   9  -5   2   15.85    1.03
 -10   5  -2   21.59    1.70
 -10   5  -2   20.57    1.95
  10  -5   2   21.36    1.07
  10  -5   2   21.59    1.18
 -11   5  -2   10.22    1.61
 -11   5  -2    8.90    1.30
  11  -5   2    8.73    0.78
  11  -5   2    8.29    0.91
  10   4  -2    0.49    0.49
  10   4  -2   -0.13    0.57
 -10  -4   2   -4.50    2.15
 -10  -4   2    1.92    1.02
 -10  -4   2   -0.68    1.40
   9   4  -2    1.61    0.44
   9   4  -2    2.79    0.55
  -9  -4   2    1.30    1.20
  -9  -4   2   -0.75    1.79
  -9  -4   2    2.24    0.93
   8   4  -2   18.90    0.96
   8   4  -2   19.13    0.81
  -8  -4   2   19.92    1.81
  -8  -4   2   18.92    2.86
  -8  -4   2   20.42    1.41
   7   4  -2   63.53    2.01
   7   4  -2   63.90    1.76
  -7  -4   2   62.50    2.67
  -7  -4   2   64.17    4.48
   6   4  -2   10.86    0.67
   6   4  -2   12.26    0.66
  -6  -4   2   12.70    1.13
  -6  -4   2   10.18    1.75
   5   4  -2   60.25    1.85
   5   4  -2   62.07    1.86
  -5  -4   2   58.28    2.49
  -5  -4   2   57.39    3.94
   4   4  -2  213.54    6.18
   4   4  -2  224.44    6.20
  -4  -4   2  220.73   11.68
  -4  -4   2  219.44    6.13
  -4  -4   2  221.75    7.86
  -4  -4   2  218.82    6.13
   3   4  -2  127.32    3.55
   3   4  -2  120.79    3.53
  -3  -4   2  124.36    4.52
  -3  -4   2  121.26    6.84
  -3  -4   2  121.89    3.51
  -3  -4   2  122.76    3.50
   2   4  -2    9.01    0.48
   2   4  -2    8.29    0.91
   2   4  -2    8.36    0.46
  -2  -4   2    8.65    0.45
  -2  -4   2    8.89    0.86
  -2  -4   2    8.56    0.46
   1   4  -2    8.59    0.88
   1   4  -2    8.07    0.46
   1   4  -2    9.40    0.77
   1   4  -2    9.12    0.47
  -1  -4   2    9.64    0.73
  -1  -4   2    9.64    0.45
  -1  -4   2    9.11    0.49
   0   4  -2   64.12    2.52
   0   4  -2   64.02    1.92
   0   4  -2   68.54    2.00
   0  -4   2   65.80    1.92
   0  -4   2   62.73    1.98
   0  -4   2   63.42    2.54
  -1   4  -2  198.33    4.82
  -1   4  -2  200.16    7.01
  -1   4  -2  182.56    6.93
  -1   4  -2  201.68    5.54
  -1   4  -2  194.52    5.44
   1  -4   2  194.75    5.43
   1  -4   2  182.82    5.51
  -2   4  -2  182.61    6.62
  -2   4  -2  188.14    5.17
  -2   4  -2  189.84    6.69
  -2   4  -2  179.41    4.57
  -2   4  -2  187.70    5.24
   2  -4   2  174.23    5.25
   2  -4   2  177.99    6.59
   2  -4   2  190.84    5.18
   2  -4   2  181.94    4.60
  -3   4  -2  625.03   21.21
  -3   4  -2  617.39   17.06
  -3   4  -2  621.00   21.43
  -3   4  -2  615.95   17.12
  -3   4  -2  618.52   15.03
   3  -4   2  601.26   17.34
   3  -4   2  620.74   16.94
   3  -4   2  580.99   21.16
   3  -4   2  578.74   15.08
  -4   4  -2  236.16    6.55
  -4   4  -2  233.26    6.52
  -4   4  -2  233.87    8.33
  -4   4  -2  230.46    8.49
   4  -4   2  230.93    5.80
   4  -4   2  243.13    6.61
   4  -4   2  234.31    6.62
  -5   4  -2   22.27    1.99
  -5   4  -2   22.55    1.30
  -5   4  -2   22.48    0.74
   5  -4   2   25.90    0.92
   5  -4   2   23.14    0.82
   5  -4   2   22.97    0.91
   5  -4   2   24.20    0.89
  -6   4  -2   45.60    2.00
  -6   4  -2   43.03    2.75
  -6   4  -2   43.93    1.12
   6  -4   2   43.80    1.31
   6  -4   2   43.92    1.50
   6  -4   2   43.18    1.46
  -7   4  -2   52.14    2.91
  -7   4  -2   54.26    2.40
   7  -4   2   55.57    1.58
   7  -4   2   55.01    1.77
   7  -4   2   53.56    1.81
  -8   4  -2    0.83    1.19
  -8   4  -2    0.94    0.81
   8  -4   2    1.29    0.43
   8  -4   2    0.97    0.49
  -9   4  -2    0.26    1.25
  -9   4  -2   -0.17    0.86
   9  -4   2    0.72    0.44
   9  -4   2    0.01    0.52
 -10   4  -2   -1.00    0.88
 -10   4  -2   -0.23    1.27
  10  -4   2   -0.69    0.60
  10  -4   2   -0.74    0.47
 -11   4  -2    2.68    1.39
 -11   4  -2   -1.05    1.05
  11  -4   2   -0.02    0.58
  11  -4   2    0.44    0.71
  10   3  -2    3.41    0.55
  10   3  -2    2.11    0.47
 -10  -3   2    1.25    2.20
 -10  -3   2    2.13    1.29
 -10  -3   2    3.13    0.94
   9   3  -2    0.36    0.38
   9   3  -2    0.60    0.45
  -9  -3   2    0.82    0.80
  -9  -3   2   -2.77    1.79
  -9  -3   2   -0.03    1.08
   8   3  -2    0.61    0.34
   8   3  -2    0.50    0.38
  -8  -3   2    1.02    0.73
  -8  -3   2    1.15    1.06
  -8  -3   2   -0.44    1.58
   7   3  -2   14.19    0.70
   7   3  -2   14.20    0.60
  -7  -3   2   11.08    1.87
  -7  -3   2   14.28    1.11
   6   3  -2   25.14    0.92
   6   3  -2   26.94    0.93
  -6  -3   2   24.40    1.42
  -6  -3   2   26.50    2.76
   5   3  -2   32.77    1.07
   5   3  -2   32.41    1.08
  -5  -3   2   32.91    1.55
  -5  -3   2   33.57    2.85
   4   3  -2  297.17    8.53
   4   3  -2  307.03    8.42
  -4  -3   2  300.76   15.63
  -4  -3   2  304.16   10.61
   3   3  -2  160.30    4.53
   3   3  -2  164.72    4.54
  -3  -3   2  159.84    5.74
  -3  -3   2  161.93    4.50
  -3  -3   2  157.20    4.50
  -3  -3   2  162.57    8.61
   2   3  -2   16.55    0.59
   2   3  -2   15.46    1.20
   2   3  -2   15.29    0.59
  -2  -3   2   16.02    0.86
  -2  -3   2   16.68    0.58
  -2  -3   2   16.40    0.59
  -2  -3   2   16.08    1.94
  -2  -3   2   15.24    0.57
   1   3  -2   46.56    1.37
   1   3  -2   42.86    2.05
   1   3  -2   45.14    1.35
   1   3  -2   44.27    1.77
  -1  -3   2   45.60    1.34
  -1  -3   2   42.82    1.78
  -1  -3   2   44.55    1.36
   0   3  -2  118.81    4.48
   0   3  -2  129.54    3.56
   0   3  -2  122.69    3.50
   0   3  -2  127.29    3.10
   0  -3   2  116.31    3.54
   0  -3   2  127.60    3.49
   0  -3   2  120.63    4.48
  -1   3  -2    1.17    0.27
  -1   3  -2    0.69    0.47
  -1   3  -2    0.42    0.19
  -1   3  -2   -0.07    0.68
  -1   3  -2    0.29    0.18
   1  -3   2    0.96    0.22
   1  -3   2    0.78    0.26
   1  -3   2    0.41    0.46
   1  -3   2    0.51    0.17
  -2   3  -2    0.78    0.20
  -2   3  -2    0.53    0.41
  -2   3  -2    0.47    0.69
  -2   3  -2    0.51    0.18
  -2   3  -2    0.53    0.23
   2  -3   2    0.35    0.17
   2  -3   2    0.53    0.45
   2  -3   2    0.25    0.23
   2  -3   2    0.46    0.19
  -3   3  -2    1.27    0.22
  -3   3  -2    1.24    0.22
  -3   3  -2    0.77    0.77
  -3   3  -2    0.92    0.43
  -3   3  -2    1.68    0.27
   3  -3   2    1.67    0.24
   3  -3   2    1.93    0.23
   3  -3   2    0.41    0.53
   3  -3   2    1.10    0.21
  -4   3  -2   36.63    1.60
  -4   3  -2   37.18    1.02
  -4   3  -2   38.01    1.15
  -4   3  -2   38.30    1.13
  -4   3  -2   35.88    2.06
   4  -3   2   37.58    1.23
   4  -3   2   37.57    1.21
   4  -3   2   37.10    1.08
  -5   3  -2   27.47    1.38
  -5   3  -2   25.64    1.93
  -5   3  -2   27.44    0.76
   5  -3   2   26.38    0.95
   5  -3   2   26.91    0.99
   5  -3   2   27.23    0.87
  -6   3  -2  105.16    4.02
  -6   3  -2  103.13    4.37
   6  -3   2  106.90    3.16
   6  -3   2  110.45    3.15
   6  -3   2  106.67    2.76
  -7   3  -2  182.96    7.02
  -7   3  -2  184.21    6.78
   7  -3   2  186.92    4.69
   7  -3   2  191.75    5.35
   7  -3   2  186.12    5.37
  -8   3  -2   22.27    2.00
  -8   3  -2   19.56    1.41
   8  -3   2   21.89    0.88
   8  -3   2   20.80    1.00
  -9   3  -2    4.72    1.25
  -9   3  -2    3.20    0.97
   9  -3   2    4.66    0.52
   9  -3   2    4.18    0.63
 -10   3  -2   11.10    1.27
 -10   3  -2   13.34    1.51
  10  -3   2   13.08    0.87
  10  -3   2   11.62    0.96
 -11   3  -2    1.02    1.24
 -11   3  -2    0.15    1.05
  11  -3   2    0.64    0.59
  11  -3   2    0.79    0.71
  11   2  -2    9.84    0.64
 -11  -2   2    9.44    1.14
 -11  -2   2    6.10    1.36
 -11  -2   2    3.17    2.56
  10   2  -2    9.04    0.65
  10   2  -2   11.31    0.79
 -10  -2   2   10.45    1.05
 -10  -2   2    8.85    1.30
 -10  -2   2    6.80    2.31
   9   2  -2    0.17    0.39
   9   2  -2    0.66    0.33
  -9  -2   2    0.69    0.72
  -9  -2   2    0.46    0.96
  -9  -2   2   -0.66    1.64
   8   2  -2    0.18    0.32
   8   2  -2    0.64    0.29
  -8  -2   2    0.72    1.59
  -8  -2   2    0.01    0.94
  -8  -2   2    0.82    0.65
   7   2  -2    0.93    0.31
   7   2  -2    1.78    0.29
   7   2  -2    1.80    0.27
  -7  -2   2    1.77    0.61
  -7  -2   2    1.76    1.38
   6   2  -2    0.65    0.22
   6   2  -2    0.20    0.24
  -6  -2   2    0.22    1.31
  -6  -2   2   -0.05    0.55
   5   2  -2    4.93    0.33
   5   2  -2    4.25    0.33
  -5  -2   2    4.40    0.54
  -5  -2   2    4.25    1.19
   4   2  -2   10.95    0.41
   4   2  -2    9.70    0.43
  -4  -2   2    9.93    0.70
  -4  -2   2   11.74    1.52
   3   2  -2   31.76    0.94
   3   2  -2   29.33    0.95
  -3  -2   2   30.85    2.16
  -3  -2   2   31.28    1.24
  -3  -2   2   30.82    1.50
   2   2  -2   18.27    0.60
   2   2  -2   15.84    1.05
   2   2  -2   18.17    0.61
   2   2  -2   17.33    0.80
  -2  -2   2   17.95    0.58
  -2  -2   2   18.99    0.57
  -2  -2   2   18.63    1.21
  -2  -2   2   18.65    1.78
  -2  -2   2   18.27    0.84
   1   2  -2   65.22    2.45
   1   2  -2   63.99    1.92
   1   2  -2   72.10    1.94
   1   2  -2   61.19    2.62
  -1  -2   2   67.70    2.48
  -1  -2   2   67.89    1.93
  -1  -2   2   65.50    2.71
  -1  -2   2   67.84    1.91
   0   2  -2  305.35   10.83
   0   2  -2  317.43    7.48
   0   2  -2  316.15    8.60
   0   2  -2  315.49    8.66
   0   2  -2  325.95    8.76
   0  -2   2  288.37    8.63
   0  -2   2  301.21   10.83
   0  -2   2  298.04   10.80
   0  -2   2  291.24    7.64
   0  -2   2  308.41    8.58
  -1   2  -2   56.75    1.67
  -1   2  -2   60.95    1.71
  -1   2  -2   57.81    1.48
  -1   2  -2   58.73    2.18
  -1   2  -2   51.02    2.40
   1  -2   2   57.99    1.67
   1  -2   2   56.71    1.69
   1  -2   2   57.26    1.48
   1  -2   2   53.43    2.40
   1  -2   2   58.22    2.20
  -2   2  -2    4.53    0.30
  -2   2  -2    4.80    0.37
  -2   2  -2    4.35    0.75
  -2   2  -2    4.24    0.30
  -2   2  -2    4.35    0.48
   2  -2   2    4.93    0.76
   2  -2   2    4.48    0.32
   2  -2   2    4.33    0.55
   2  -2   2    4.49    0.29
   2  -2   2    4.51    0.31
  -3   2  -2   72.07    2.61
  -3   2  -2   67.09    2.85
  -3   2  -2   68.79    2.01
  -3   2  -2   71.28    1.76
  -3   2  -2   72.65    2.00
   3  -2   2   71.55    2.04
   3  -2   2   64.70    1.78
   3  -2   2   62.03    2.65
   3  -2   2   71.19    2.05
  -4   2  -2    1.49    0.19
  -4   2  -2    0.29    0.78
  -4   2  -2    1.52    0.18
  -4   2  -2    1.66    0.53
  -4   2  -2    1.72    0.19
   4  -2   2    1.50    0.25
   4  -2   2    1.60    0.25
   4  -2   2    1.45    0.29
  -5   2  -2    3.32    0.70
  -5   2  -2    3.63    0.92
  -5   2  -2    2.55    0.19
   5  -2   2    2.59    0.37
   5  -2   2    2.88    0.32
   5  -2   2    2.57    0.31
  -6   2  -2    0.58    0.76
  -6   2  -2    0.87    1.00
   6  -2   2    0.48    0.29
   6  -2   2    0.12    0.31
   6  -2   2    0.76    0.38
  -7   2  -2    9.30    1.26
  -7   2  -2    8.85    0.99
   7  -2   2    8.95    0.65
   7  -2   2    9.45    0.63
   7  -2   2   10.13    0.64
  -8   2  -2    1.36    1.00
  -8   2  -2    0.34    0.88
   8  -2   2    1.06    0.48
   8  -2   2    1.09    0.43
  -9   2  -2   -1.31    0.86
  -9   2  -2    0.47    1.07
   9  -2   2   -0.36    0.54
   9  -2   2   -0.09    0.43
 -10   2  -2   12.51    1.40
 -10   2  -2   11.58    1.33
  10  -2   2   13.17    0.84
  10  -2   2   12.18    0.91
 -11   2  -2    7.96    1.37
 -11   2  -2   10.10    1.44
  11  -2   2   11.36    0.80
  11  -2   2    7.66    0.89
 -11  -1   2    3.39    1.24
 -11  -1   2    7.22    1.00
  10   1  -2   15.00    0.79
  10   1  -2   14.93    0.70
 -10  -1   2   13.20    1.28
 -10  -1   2   10.76    2.44
 -10  -1   2   14.39    1.21
   9   1  -2    0.88    0.30
   9   1  -2    0.90    0.34
  -9  -1   2    0.96    1.81
  -9  -1   2    1.99    0.71
  -9  -1   2    0.96    0.90
   8   1  -2    8.62    0.46
   8   1  -2    8.89    0.50
  -8  -1   2    7.46    1.77
  -8  -1   2    7.68    0.77
  -8  -1   2    8.57    0.95
   7   1  -2   77.43    1.97
   7   1  -2   78.90    2.25
   7   1  -2   76.02    2.24
  -7  -1   2   80.54    5.10
  -7  -1   2   74.16    2.94
   6   1  -2    8.06    0.39
   6   1  -2    8.52    0.39
  -6  -1   2    9.16    0.82
  -6  -1   2    9.61    1.59
   5   1  -2    7.55    0.33
   5   1  -2    7.49    0.32
  -5  -1   2    6.74    1.16
  -5  -1   2    8.01    0.63
   4   1  -2    1.52    0.14
   4   1  -2    1.68    0.12
  -4  -1   2    0.95    0.46
  -4  -1   2    1.73    0.79
  -4  -1   2    1.66    0.27
   3   1  -2   45.42    1.27
   3   1  -2   46.01    1.27
  -3  -1   2   43.78    1.61
  -3  -1   2   44.90    2.70
  -3  -1   2   44.38    1.67
   2   1  -2   12.93    1.46
   2   1  -2   12.01    0.39
   2   1  -2   11.80    0.39
  -2  -1   2   10.55    0.74
  -2  -1   2   12.62    1.23
  -2  -1   2   11.69    0.58
   1   1  -2   11.91    0.44
   1   1  -2   12.29    0.39
   1   1  -2   11.59    0.65
   1   1  -2   11.91    0.60
   1   1  -2   11.70    0.40
  -1  -1   2   12.02    0.44
  -1  -1   2   11.67    0.65
  -1  -1   2   12.69    0.69
  -1  -1   2   12.08    0.39
   0   1  -2   89.22    2.48
   0   1  -2   90.88    2.17
   0   1  -2   87.93    2.46
   0   1  -2   87.90    3.13
   0  -1   2   86.79    2.48
   0  -1   2   83.36    3.11
   0  -1   2   89.85    2.46
   0  -1   2   84.93    3.16
   0  -1   2   83.43    2.16
  -1   1  -2   17.83    0.62
  -1   1  -2   18.93    0.67
  -1   1  -2   19.68    0.99
  -1   1  -2   19.26    0.57
  -1   1  -2   17.52    1.12
   1  -1   2   18.03    0.64
   1  -1   2   18.02    0.55
   1  -1   2   21.81    1.08
   1  -1   2   16.86    1.28
   1  -1   2   18.84    0.61
  -2   1  -2  182.90    6.59
  -2   1  -2  186.98    4.51
  -2   1  -2  187.71    5.15
  -2   1  -2  181.61    5.15
  -2   1  -2  188.07    6.52
   2  -1   2  184.59    5.17
   2  -1   2  171.36    6.59
   2  -1   2  178.27    6.55
   2  -1   2  191.06    5.16
   2  -1   2  187.77    4.52
  -3   1  -2   46.98    1.46
  -3   1  -2   50.19    1.94
  -3   1  -2   47.40    1.46
  -3   1  -2   47.60    2.12
  -3   1  -2   50.07    1.44
  -3   1  -2   49.50    1.27
   3  -1   2   47.04    1.47
   3  -1   2   48.07    1.29
   3  -1   2   51.52    1.48
  -4   1  -2   90.49    2.55
  -4   1  -2   90.95    3.53
  -4   1  -2   92.73    2.25
  -4   1  -2   95.31    3.40
  -4   1  -2   87.11    2.58
   4  -1   2   92.23    2.62
   4  -1   2   86.53    2.62
   4  -1   2   87.89    2.30
  -5   1  -2    7.29    0.97
  -5   1  -2    8.38    0.84
   5  -1   2    8.01    0.47
   5  -1   2    8.03    0.46
   5  -1   2    7.13    0.50
  -6   1  -2   11.70    1.24
  -6   1  -2   12.16    1.22
   6  -1   2   12.68    0.64
   6  -1   2   11.43    0.66
   6  -1   2   12.09    0.58
  -7   1  -2   26.29    1.83
  -7   1  -2   28.14    1.71
   7  -1   2   26.92    1.10
   7  -1   2   27.89    0.97
   7  -1   2   27.97    1.05
  -8   1  -2   -0.77    0.96
  -8   1  -2   -0.12    0.91
   8  -1   2    0.84    0.49
   8  -1   2    0.59    0.40
  -9   1  -2    0.50    0.98
  -9   1  -2   -2.86    0.97
   9  -1   2   -0.08    0.53
   9  -1   2    0.23    0.47
 -10   1  -2    3.72    1.14
 -10   1  -2    0.53    1.18
  10  -1   2    2.70    0.57
  10  -1   2    3.26    0.70
 -11   0   2   -2.09    1.00
 -11   0   2    0.54    0.79
  10   0  -2    1.32    0.35
  10   0  -2    1.63    0.39
 -10   0   2    1.78    0.73
 -10   0   2   -0.59    0.86
 -10   0   2    0.91    1.82
   9   0  -2    0.07    0.29
   9   0  -2    0.25    0.26
  -9   0   2   -0.16    0.78
  -9   0   2   -0.05    1.71
  -9   0   2   -0.05    0.64
   8   0  -2    1.41    0.24
   8   0  -2    1.26    0.23
   8   0  -2    1.33    0.26
  -8   0   2    1.05    0.56
  -8   0   2    1.75    0.68
  -8   0   2    1.29    1.62
   7   0  -2   60.63    1.75
   7   0  -2   60.95    1.54
   7   0  -2   60.82    1.74
  -7   0   2   66.69    4.51
  -7   0   2   58.19    2.33
  -6   0   2   28.10    2.55
  -5   0   2    4.74    1.06
  -4   0   2  175.68    9.15
  -3   0   2  210.19   10.75
   2   0  -2   73.23    3.90
  -2   0   2   70.81    3.87
   1   0  -2   59.99    2.03
   1   0  -2   71.15    2.56
   1   0  -2   74.40    3.77
   1   0  -2   70.41    2.57
   1   0  -2   72.81    2.02
  -1   0   2   74.13    2.02
  -1   0   2   72.98    1.78
  -1   0   2   73.37    2.57
  -1   0   2   72.96    2.04
  -1   0   2   75.07    2.58
  -1   0   2   75.13    3.76
   0   0  -2   23.23    0.99
   0   0  -2   24.70    0.74
   0   0  -2   22.80    0.63
   0   0  -2   22.46    0.72
   0   0   2   24.13    0.72
   0   0   2   23.24    0.99
   0   0   2   22.89    0.74
   0   0   2   22.87    0.64
  -1   0  -2   22.25    0.73
  -1   0  -2   25.29    1.20
  -1   0  -2   20.92    1.20
  -1   0  -2   23.12    0.66
  -1   0  -2   23.40    0.77
   1   0   2   23.37    0.76
   1   0   2   23.63    0.73
   1   0   2   23.00    0.65
   1   0   2   19.43    1.24
   1   0   2   24.26    1.31
  -2   0  -2    3.06    0.24
  -2   0  -2    3.15    0.52
  -2   0  -2    2.49    0.53
  -2   0  -2    3.16    0.20
  -2   0  -2    2.63    0.22
   2   0   2    2.97    0.21
   2   0   2    3.27    0.26
   2   0   2    2.87    0.67
   2   0   2    2.31    0.55
   2   0   2    2.68    0.63
   2   0   2    2.48    0.25
  -3   0  -2   66.34    2.53
  -3   0  -2   65.93    1.65
  -3   0  -2   65.16    2.57
  -3   0  -2   67.32    1.88
  -3   0  -2   62.22    1.90
   3   0   2   64.61    1.90
   3   0   2   64.92    3.65
   3   0   2   62.42    1.91
   3   0   2   63.87    1.67
  -4   0  -2   95.41    3.79
  -4   0  -2   99.05    2.80
  -4   0  -2  100.53    3.73
  -4   0  -2   99.52    2.84
   4   0   2  102.19    2.88
   4   0   2  100.03    2.52
   4   0   2   96.82    2.87
  -5   0  -2    1.71    0.16
  -5   0  -2    0.89    0.80
  -5   0  -2    1.98    0.80
   5   0   2    1.49    0.35
   5   0   2    1.70    0.30
   5   0   2    1.69    0.27
  -6   0  -2   -0.25    0.91
  -6   0  -2    1.57    0.92
   6   0   2    0.94    0.40
   6   0   2    0.68    0.33
   6   0   2    0.75    0.31
  -7   0  -2   40.85    2.12
  -7   0  -2   40.33    2.07
   7   0   2   40.94    1.45
   7   0   2   39.75    1.23
  -8   0  -2   10.90    1.21
  -8   0  -2    8.97    1.18
   8   0   2   11.15    0.72
   8   0   2   10.76    0.82
  -9   0  -2    1.39    1.03
  -9   0  -2   -1.36    1.07
   9   0   2    0.96    0.50
   9   0   2    2.01    0.60
 -10   0  -2    1.97    1.14
 -10   0  -2   -0.11    1.26
  10   0   2    1.70    0.72
  10   0   2    1.52    0.59
 -11   1   2    9.18    1.09
 -11   1   2   13.39    1.22
  10  -1  -2   29.72    0.96
  10  -1  -2   30.48    1.08
 -10   1   2   28.43    1.59
 -10   1   2   30.13    1.54
   9  -1  -2   23.83    0.74
   9  -1  -2   24.26    0.82
  -9   1   2   21.11    1.29
  -9   1   2   22.27    1.28
  -9   1   2   22.86    3.24
   8  -1  -2   18.49    0.65
   8  -1  -2   19.31    0.60
   8  -1  -2   20.73    0.65
  -8   1   2   18.19    1.09
  -8   1   2   21.02    2.61
  -8   1   2   19.64    1.07
  -7   1   2    2.65    1.49
  -6   1   2   24.50    2.77
  -5   1   2    2.29    0.97
  -4   1   2  168.76    8.80
   3  -1  -2  499.21   25.07
  -3   1   2  491.80   25.66
   2  -1  -2  130.09    3.67
   2  -1  -2  131.07    3.69
   2  -1  -2  135.62    3.22
   2  -1  -2  136.22    6.79
  -2   1   2  129.22    4.62
  -2   1   2  132.91    6.81
  -2   1   2  131.97    4.62
   1  -1  -2   90.56    2.23
   1  -1  -2   85.72    3.22
   1  -1  -2   89.43    2.54
   1  -1  -2   93.25    4.61
   1  -1  -2   91.46    2.55
   1  -1  -2   89.24    3.25
  -1   1   2   91.91    2.54
  -1   1   2   92.37    4.62
  -1   1   2   88.98    3.24
  -1   1   2   89.14    2.55
  -1   1   2   89.05    2.23
  -1   1   2   92.35    3.27
   0  -1  -2  190.99    4.50
   0  -1  -2  190.87    6.55
   0  -1  -2  199.42    5.25
   0  -1  -2  183.44    5.15
   0   1   2  186.69    5.20
   0   1   2  182.88    6.52
   0   1   2  155.11    6.49
   0   1   2  186.60    5.15
   0   1   2  186.58    4.54
  -1  -1  -2  134.79    3.66
  -1  -1  -2  127.55    3.67
  -1  -1  -2  128.58    4.70
  -1  -1  -2  131.94    3.20
  -1  -1  -2  129.67    4.69
   1   1   2  131.48    3.67
   1   1   2  135.05    6.55
   1   1   2  125.68    4.74
   1   1   2  128.05    3.21
   1   1   2  130.59    3.67
   1   1   2  126.06    4.70
  -2  -1  -2   33.41    1.04
  -2  -1  -2   32.97    1.07
  -2  -1  -2   33.56    0.91
  -2  -1  -2   34.48    1.53
  -2  -1  -2   35.35    1.53
   2   1   2   33.25    1.06
   2   1   2   30.28    1.55
   2   1   2   30.94    1.65
   2   1   2   33.85    0.93
   2   1   2   31.24    1.04
   2   1   2   35.74    1.98
  -3  -1  -2   31.28    0.97
  -3  -1  -2   31.29    2.07
  -3  -1  -2   30.86    1.51
  -3  -1  -2   30.02    1.00
  -3  -1  -2   31.63    1.50
   3   1   2   30.97    1.01
   3   1   2   29.60    2.04
   3   1   2   29.71    0.88
   3   1   2   28.45    1.00
  -4  -1  -2    1.78    0.23
  -4  -1  -2    1.40    0.67
  -4  -1  -2    1.59    0.73
  -4  -1  -2    1.62    0.27
   4   1   2    2.03    0.29
   4   1   2    1.85    0.33
   4   1   2    2.01    0.27
  -5  -1  -2    0.38    0.21
  -5  -1  -2   -0.23    0.82
  -5  -1  -2    0.60    0.19
  -5  -1  -2    0.89    0.93
   5   1   2    0.28    0.30
   5   1   2    0.08    0.26
   5   1   2    0.46    0.34
  -6  -1  -2    3.17    0.94
  -6  -1  -2    3.98    1.04
   6   1   2    3.50    0.48
   6   1   2    3.67    0.40
  -7  -1  -2   66.60    2.98
  -7  -1  -2   69.56    3.00
   7   1   2   66.74    1.89
   7   1   2   67.42    2.17
  -8  -1  -2   31.49    2.08
  -8  -1  -2   32.13    1.99
   8   1   2   33.32    1.16
   8   1   2   31.40    1.30
  -9  -1  -2    5.16    1.17
  -9  -1  -2    0.91    1.19
   9   1   2    4.05    0.68
   9   1   2    3.61    0.56
 -10  -1  -2    4.51    1.25
  10   1   2    3.81    0.64
  10   1   2    4.01    0.78
 -12   2   2    1.05    0.85
 -12   2   2   -1.87    0.86
 -11   2   2    7.41    0.88
 -11   2   2    5.98    0.92
  10  -2  -2   52.42    1.58
  10  -2  -2   50.45    1.39
 -10   2   2   49.58    2.12
 -10   2   2   47.46    2.15
   9  -2  -2   23.22    0.79
   9  -2  -2   23.36    0.73
  -9   2   2   22.09    1.19
  -9   2   2   21.24    1.37
   8  -2  -2   24.05    0.73
   8  -2  -2   23.18    0.69
  -7   2   2   88.87    5.45
  -6   2   2   85.56    5.08
  -5   2   2  156.69    8.32
   4  -2  -2   53.89    1.38
   4  -2  -2   56.85    1.37
  -4   2   2   56.90    3.40
   3  -2  -2    6.99    0.29
   3  -2  -2    6.24    0.26
   3  -2  -2    7.15    1.04
   3  -2  -2    7.10    0.30
  -3   2   2    7.96    1.14
  -3   2   2    8.69    0.53
  -3   2   2    6.88    0.46
   2  -2  -2   52.57    1.51
   2  -2  -2   50.95    1.51
   2  -2  -2   55.41    2.91
   2  -2  -2   49.48    1.97
   2  -2  -2   49.58    1.93
   2  -2  -2   51.59    1.32
  -2   2   2   52.69    1.51
  -2   2   2   53.24    1.52
  -2   2   2   51.44    1.95
  -2   2   2   53.41    2.94
  -2   2   2   53.92    2.01
  -2   2   2   51.03    1.31
   1  -2  -2    1.91    0.40
   1  -2  -2    1.89    0.20
   1  -2  -2    2.77    0.61
   1  -2  -2    1.94    0.19
   1  -2  -2    1.85    0.16
  -1   2   2    1.79    0.17
  -1   2   2    2.36    0.62
  -1   2   2    1.39    0.38
  -1   2   2    1.91    0.17
  -1   2   2    2.03    0.22
   0  -2  -2  966.87   33.48
   0  -2  -2  877.46   26.62
   0  -2  -2 1000.00   23.34
   0  -2  -2  982.88   26.66
   0   2   2  968.98   26.65
   0   2   2  905.59   33.38
   0   2   2  934.88   26.74
   0   2   2  983.13   23.35
  -1  -2  -2  533.82   15.26
  -1  -2  -2  562.92   19.10
  -1  -2  -2  538.05   15.09
  -1  -2  -2  544.40   19.00
  -1  -2  -2  540.93   26.86
   1   2   2  531.38   15.28
   1   2   2  527.51   13.10
   1   2   2  519.49   18.81
   1   2   2  531.75   15.11
   1   2   2  520.92   18.89
  -2  -2  -2  199.51    5.56
  -2  -2  -2  205.77    7.11
  -2  -2  -2  197.90   10.05
  -2  -2  -2  197.48    5.59
  -2  -2  -2  205.01    7.13
   2   2   2  195.81    4.89
   2   2   2  187.22    7.10
   2   2   2  183.76    7.14
   2   2   2  201.70    5.60
   2   2   2  217.73   10.11
   2   2   2  192.24    5.58
  -3  -2  -2  102.99    3.89
  -3  -2  -2  101.95    2.97
  -3  -2  -2  102.05    5.42
  -3  -2  -2   99.33    3.87
   3   2   2   99.87    2.59
   3   2   2  105.73    5.46
   3   2   2  104.67    2.98
   3   2   2   98.91    2.97
  -4  -2  -2   99.54    3.82
  -4  -2  -2   99.68    3.83
  -4  -2  -2   96.46    5.39
  -4  -2  -2   98.62    2.87
   4   2   2   93.75    2.52
   4   2   2  100.50    2.90
   4   2   2   97.37    2.89
  -5  -2  -2    6.31    0.44
  -5  -2  -2    6.94    1.13
  -5  -2  -2    5.73    1.37
  -5  -2  -2    8.03    1.06
   5   2   2    6.04    0.44
   5   2   2    6.83    0.56
  -6  -2  -2   -0.92    0.94
  -6  -2  -2    0.55    0.90
   6   2   2    0.03    0.38
   6   2   2    0.41    0.43
  -7  -2  -2    2.04    0.99
  -7  -2  -2    0.03    1.09
   7   2   2    1.78    0.52
   7   2   2    1.74    0.45
  -8  -2  -2    4.38    1.12
  -8  -2  -2    2.69    1.23
   8   2   2    5.31    0.68
   8   2   2    4.69    0.56
  -9  -2  -2    0.48    1.09
   9   2   2   -0.02    0.48
   9   2   2   -0.36    0.62
 -12   3   2    1.26    0.85
 -12   3   2    2.55    0.89
 -11   3   2    0.68    0.82
 -11   3   2   -0.99    0.68
  10  -3  -2   14.42    0.63
  10  -3  -2   13.81    0.71
 -10   3   2   15.14    1.37
 -10   3   2   12.76    1.00
   9  -3  -2   11.41    0.52
   9  -3  -2   12.27    0.58
  -9   3   2   10.39    1.01
  -9   3   2   11.95    0.87
   8  -3  -2    2.26    0.26
   8  -3  -2    2.26    0.25
   8  -3  -2    2.58    0.20
  -8   3   2    2.21    0.46
   7  -3  -2  125.81    3.10
   6  -3  -2  206.66    5.04
   5  -3  -2   28.28    0.84
   5  -3  -2   29.73    0.89
   5  -3  -2   27.68    0.81
  -5   3   2   29.82    1.18
  -5   3   2   28.17    1.15
   4  -3  -2   85.29    2.47
   4  -3  -2   87.32    2.13
   4  -3  -2   85.70    2.42
  -4   3   2   89.49    3.12
  -4   3   2   83.10    3.12
   3  -3  -2   28.97    0.77
   3  -3  -2   29.63    0.89
   3  -3  -2   29.40    0.92
  -3   3   2   30.48    1.29
  -3   3   2   29.31    0.77
  -3   3   2   26.97    1.20
  -3   3   2   27.82    0.89
   2  -3  -2    7.16    0.30
   2  -3  -2    7.07    1.08
   2  -3  -2    7.20    0.65
   2  -3  -2    8.06    0.37
   2  -3  -2    6.77    0.62
   2  -3  -2    7.27    0.36
  -2   3   2    6.62    0.30
  -2   3   2    7.18    0.60
  -2   3   2    8.24    0.86
  -2   3   2    7.66    0.38
  -2   3   2    7.58    0.37
   1  -3  -2    9.38    0.36
   1  -3  -2    9.75    0.43
   1  -3  -2    9.89    0.99
   1  -3  -2   10.04    0.45
   1  -3  -2    9.36    0.72
  -1   3   2   10.55    0.47
  -1   3   2    9.69    0.40
  -1   3   2    9.71    0.44
  -1   3   2    9.28    0.75
  -1   3   2   10.91    1.04
   0  -3  -2    7.54    0.72
   0  -3  -2    7.31    0.36
   0  -3  -2    7.03    0.43
   0   3   2    8.12    0.35
   0   3   2    7.13    0.41
   0   3   2    6.89    0.62
   0   3   2    7.76    0.43
  -1  -3  -2   66.05    3.34
  -1  -3  -2   63.89    2.60
  -1  -3  -2   64.64    1.89
  -1  -3  -2   64.76    2.54
  -1  -3  -2   62.97    1.93
   1   3   2   62.65    2.68
   1   3   2   60.42    2.53
   1   3   2   61.57    1.91
   1   3   2   64.01    1.67
   1   3   2   65.95    1.93
  -2  -3  -2    0.69    0.50
  -2  -3  -2    1.35    0.75
  -2  -3  -2    0.05    0.57
  -2  -3  -2    0.44    0.24
   2   3   2    0.17    0.23
   2   3   2    0.29    0.27
   2   3   2    0.42    0.21
  -3  -3  -2   26.56    0.99
  -3  -3  -2   28.06    1.55
  -3  -3  -2   26.72    1.90
  -3  -3  -2   28.01    1.71
   3   3   2   26.34    1.00
   3   3   2   26.40    0.87
  -4  -3  -2  145.13    7.62
  -4  -3  -2  143.06    5.42
  -4  -3  -2  144.40    4.14
  -4  -3  -2  145.38    5.40
   4   3   2  137.93    4.15
   4   3   2  143.45    3.64
  -5  -3  -2   78.19    3.38
  -5  -3  -2   81.48    3.35
  -5  -3  -2   78.68    2.39
  -5  -3  -2   80.69    4.77
   5   3   2   77.85    2.16
   5   3   2   77.37    2.46
  -6  -3  -2   15.64    1.43
  -6  -3  -2   14.25    1.39
  -6  -3  -2   13.94    1.82
   6   3   2   17.16    0.90
   6   3   2   17.18    0.78
  -7  -3  -2   18.84    1.87
  -7  -3  -2   21.01    1.73
   7   3   2   19.46    0.89
   7   3   2   18.43    1.02
  -8  -3  -2    6.51    1.23
   8   3   2    5.05    0.59
   8   3   2    4.85    0.70
  -9  -3  -2    1.19    1.17
   9   3   2   -0.02    0.57
   9   3   2   -0.57    0.64
 -12   4   2    1.18    0.83
 -12   4   2    3.24    1.03
 -11   4   2    1.19    0.70
 -11   4   2    3.10    1.07
  10  -4  -2    0.46    0.38
  10  -4  -2    0.69    0.36
 -10   4   2   -0.04    1.00
 -10   4   2    0.92    0.60
   9  -4  -2    2.87    0.35
   9  -4  -2    2.43    0.37
  -9   4   2    2.10    0.57
   8  -4  -2    0.76    0.30
   8  -4  -2    1.03    0.31
   8  -4  -2    1.26    0.21
  -8   4   2    1.19    0.50
   7  -4  -2   24.06    0.82
   7  -4  -2   24.95    0.80
   7  -4  -2   24.77    0.89
  -7   4   2   25.05    1.23
   6  -4  -2   78.98    2.19
   6  -4  -2   74.85    2.27
  -6   4   2   75.91    2.91
   5  -4  -2    0.89    0.18
   5  -4  -2    0.45    0.26
  -5   4   2    0.73    0.48
  -5   4   2    1.27    0.59
   4  -4  -2    3.16    0.30
   4  -4  -2    3.53    0.25
  -4   4   2    3.35    0.48
  -4   4   2    3.14    0.65
  -4   4   2    3.90    0.25
   3  -4  -2  130.58    3.88
   3  -4  -2  133.99    3.84
  -3   4   2  137.12    3.36
  -3   4   2  134.18    3.83
  -3   4   2  142.72    3.91
  -3   4   2  138.59    4.94
  -3   4   2  136.75    4.92
   2  -4  -2  110.59    4.15
   2  -4  -2  112.95    3.24
   2  -4  -2  111.13    3.28
  -2   4   2  114.50    2.84
  -2   4   2  119.36    3.30
  -2   4   2  109.55    4.15
  -2   4   2  118.47    4.24
  -2   4   2  115.53    3.26
   1  -4  -2   62.97    2.44
   1  -4  -2   62.85    1.83
   1  -4  -2   58.73    1.86
   1  -4  -2   59.53    2.53
  -1   4   2   65.08    1.89
  -1   4   2   61.75    1.85
  -1   4   2   61.66    2.44
  -1   4   2   60.35    2.51
  -1   4   2   61.97    1.61
   0  -4  -2   45.45    2.12
   0  -4  -2   46.18    1.46
   0  -4  -2   46.66    1.43
   0   4   2   45.40    1.45
   0   4   2   43.62    1.97
   0   4   2   47.99    1.48
   0   4   2   46.18    1.27
  -1  -4  -2    2.49    0.55
  -1  -4  -2    2.39    0.75
  -1  -4  -2    2.24    0.62
  -1  -4  -2    2.64    0.33
   1   4   2    2.12    0.26
   1   4   2    2.93    0.62
   1   4   2    2.51    0.34
  -2  -4  -2   -0.10    0.57
  -2  -4  -2    0.20    0.27
  -2  -4  -2    0.76    0.88
  -2  -4  -2   -0.33    0.66
   2   4   2    0.15    0.32
   2   4   2   -0.16    0.24
  -3  -4  -2    1.34    0.77
  -3  -4  -2    0.77    0.79
  -3  -4  -2    1.42    0.37
  -3  -4  -2    1.74    1.04
   3   4   2    1.40    0.38
   3   4   2    1.34    0.31
  -4  -4  -2   54.37    2.69
  -4  -4  -2   51.40    3.32
  -4  -4  -2   53.02    1.74
  -4  -4  -2   53.27    2.51
   4   4   2   52.27    1.76
   4   4   2   51.37    1.51
  -5  -4  -2   16.63    1.55
  -5  -4  -2   14.16    1.39
  -5  -4  -2   15.27    0.81
  -5  -4  -2   16.79    2.17
   5   4   2   14.87    0.76
   5   4   2   15.65    0.89
  -6  -4  -2   -0.71    1.27
  -6  -4  -2    0.91    0.94
  -6  -4  -2   -0.51    1.11
   6   4   2    0.89    0.54
   6   4   2    0.41    0.41
  -7  -4  -2    6.06    1.16
   7   4   2    6.02    0.60
   7   4   2    5.86    0.70
  -8  -4  -2   11.53    1.46
   8   4   2   10.43    0.76
   8   4   2   10.22    0.90
  -9  -4  -2    3.22    1.33
   9   4   2    3.19    0.67
   9   4   2    2.83    0.78
 -12   5   2    1.19    0.87
 -12   5   2    1.72    1.20
 -11   5   2    3.42    0.85
 -11   5   2    4.34    1.24
  10  -5  -2   22.68    0.91
  10  -5  -2   21.30    1.00
 -10   5   2   20.96    1.77
 -10   5   2   21.80    1.36
   9  -5  -2   14.24    0.69
   9  -5  -2   12.11    0.74
  -9   5   2   11.44    1.09
   8  -5  -2   11.95    0.73
  -8   5   2   10.72    1.04
   7  -5  -2    0.48    0.22
   7  -5  -2   -0.29    0.35
  -7   5   2    0.02    0.66
   6  -5  -2   38.99    1.38
   6  -5  -2   44.83    1.29
  -6   5   2   39.89    1.89
   5  -5  -2   10.14    0.59
   5  -5  -2   11.32    0.49
  -5   5   2    8.53    0.91
  -5   5   2   10.17    0.35
   4  -5  -2    3.41    0.36
   4  -5  -2    3.91    0.29
  -4   5   2    4.11    0.34
  -4   5   2    3.70    0.25
  -4   5   2    3.79    0.57
  -4   5   2    3.64    0.35
   3  -5  -2  127.29    3.56
   3  -5  -2  119.70    3.61
  -3   5   2  122.46    4.59
  -3   5   2  127.00    3.56
  -3   5   2  123.77    3.11
  -3   5   2  128.31    3.64
   2  -5  -2   57.25    2.32
   2  -5  -2   57.45    1.78
   2  -5  -2   57.75    1.74
  -2   5   2   57.96    1.53
  -2   5   2   55.87    2.35
  -2   5   2   58.13    1.75
   1  -5  -2   62.52    1.93
   1  -5  -2   63.75    2.53
   1  -5  -2   59.44    2.66
  -1   5   2   62.20    1.90
  -1   5   2   62.57    2.52
  -1   5   2   62.84    1.65
   0  -5  -2    3.68    0.83
   0  -5  -2    4.37    0.41
   0   5   2    3.74    0.63
   0   5   2    4.41    0.40
   0   5   2    4.29    0.33
  -1  -5  -2    7.70    0.88
  -1  -5  -2    9.28    1.28
  -1  -5  -2    8.47    1.10
  -1  -5  -2    8.91    0.61
   1   5   2    8.15    0.48
   1   5   2    8.53    0.90
   1   5   2    8.42    0.56
  -2  -5  -2    8.66    0.64
  -2  -5  -2    9.70    1.23
  -2  -5  -2    7.90    0.92
  -2  -5  -2    8.74    1.31
   2   5   2    7.95    0.57
   2   5   2    8.32    0.60
  -3  -5  -2    7.32    0.58
  -3  -5  -2    7.70    0.98
  -3  -5  -2    5.17    1.25
  -3  -5  -2    7.06    1.07
   3   5   2    6.24    0.50
   3   5   2    7.51    0.61
  -4  -5  -2    4.12    1.01
  -4  -5  -2    1.75    1.18
  -4  -5  -2    3.43    0.49
  -4  -5  -2    1.88    1.05
   4   5   2    3.58    0.46
   4   5   2    3.31    0.55
  -5  -5  -2    2.29    0.49
  -5  -5  -2    2.29    0.97
  -5  -5  -2    1.42    1.17
  -5  -5  -2    0.14    1.22
   5   5   2    2.47    0.55
   5   5   2    1.94    0.46
  -6  -5  -2    0.56    1.36
  -6  -5  -2    4.19    1.10
   6   5   2    4.19    0.55
   6   5   2    3.55    0.64
  -7  -5  -2    1.27    1.10
   7   5   2    1.25    0.63
   7   5   2    0.27    0.50
  -8  -5  -2    8.57    1.46
   8   5   2    6.26    0.85
   8   5   2    6.75    0.75
 -12   6   2    0.86    1.41
 -12   6   2   -0.46    0.96
 -11   6   2    0.11    0.89
 -11   6   2   -0.32    1.27
  10  -6  -2   24.23    1.12
 -10   6   2   22.68    1.59
   9  -6  -2   30.51    1.23
  -9   6   2   27.67    1.65
   8  -6  -2    4.41    0.54
  -8   6   2    3.34    0.82
   7  -6  -2   18.48    0.91
   7  -6  -2   22.08    0.79
  -7   6   2   17.57    1.41
   6  -6  -2   28.68    0.96
   6  -6  -2   26.54    1.07
  -6   6   2   24.55    1.55
   5  -6  -2   23.02    0.81
   5  -6  -2   21.25    0.89
  -5   6   2   22.48    0.67
  -5   6   2   21.81    1.36
  -5   6   2   20.28    0.72
   4  -6  -2   48.80    1.65
   4  -6  -2   51.75    1.58
  -4   6   2   51.62    1.38
  -4   6   2   52.11    1.57
  -4   6   2   50.11    2.20
   3  -6  -2    2.37    0.36
  -3   6   2    1.79    0.34
  -3   6   2    1.66    0.62
  -3   6   2    2.58    0.29
   2  -6  -2    9.99    1.00
   2  -6  -2    8.53    0.59
  -2   6   2   10.01    0.51
  -2   6   2    8.74    0.53
  -2   6   2    8.49    0.82
   1  -6  -2    6.78    0.52
   1  -6  -2    6.73    0.74
   1  -6  -2    6.81    1.06
  -1   6   2    6.26    0.81
  -1   6   2    5.85    0.43
  -1   6   2    5.99    0.48
   0  -6  -2   30.39    1.17
   0  -6  -2   33.13    2.08
   0   6   2   30.71    1.76
   0   6   2   30.40    1.00
   0   6   2   31.68    1.17
  -1  -6  -2  129.15    4.85
  -1  -6  -2  134.99    6.76
  -1  -6  -2  125.31    4.90
  -1  -6  -2  123.17    3.73
   1   6   2  119.46    3.70
   1   6   2  122.69    3.23
  -2  -6  -2   39.96    1.99
  -2  -6  -2   37.23    2.38
  -2  -6  -2   37.14    1.36
  -2  -6  -2   38.52    2.57
   2   6   2   35.14    1.38
   2   6   2   36.42    1.20
  -3  -6  -2    3.18    1.23
  -3  -6  -2    4.40    0.55
  -3  -6  -2    3.09    0.97
  -3  -6  -2    4.14    0.94
   3   6   2    4.45    0.58
   3   6   2    4.56    0.48
  -4  -6  -2    8.44    1.32
  -4  -6  -2   11.22    0.79
  -4  -6  -2   10.48    1.23
  -4  -6  -2    9.86    1.41
   4   6   2   10.82    0.83
   4   6   2   10.90    0.66
  -5  -6  -2    0.78    1.26
  -5  -6  -2    4.00    1.10
   5   6   2    5.29    0.68
   5   6   2    3.98    0.54
  -6  -6  -2    1.08    1.08
   6   6   2    0.91    0.63
   6   6   2    1.09    0.53
   7   6   2   -0.24    0.55
   7   6   2    0.36    0.67
  11  -7  -2   16.38    1.10
 -11   7   2   18.52    1.62
 -11   7   2   18.52    1.80
  10  -7  -2    1.10    0.56
 -10   7   2    0.99    0.94
   9  -7  -2    3.50    0.60
  -9   7   2    4.86    0.98
   8  -7  -2    3.24    0.53
  -8   7   2    3.09    0.84
   7  -7  -2   13.36    0.81
   7  -7  -2   14.30    0.69
  -7   7   2   13.16    1.31
   6  -7  -2  125.60    3.58
   6  -7  -2  122.47    3.69
  -6   7   2  122.34    4.73
   5  -7  -2  100.15    2.99
  -5   7   2   97.55    2.49
  -5   7   2   97.15    3.84
  -5   7   2   95.40    2.82
   4  -7  -2   49.15    1.70
  -4   7   2   51.37    1.42
  -4   7   2   51.93    1.63
  -4   7   2   51.59    2.33
   3  -7  -2   55.76    1.86
  -3   7   2   55.88    1.81
  -3   7   2   57.80    2.54
  -3   7   2   58.83    1.59
   2  -7  -2   26.53    1.58
   2  -7  -2   25.42    1.07
  -2   7   2   26.86    1.01
  -2   7   2   26.04    1.63
  -2   7   2   24.28    0.86
   1  -7  -2   37.38    1.38
   1  -7  -2   38.59    1.98
  -1   7   2   36.05    1.36
  -1   7   2   37.73    1.17
  -1   7   2   37.86    2.02
   0  -7  -2   21.67    1.01
   0  -7  -2   21.56    2.09
   0   7   2   22.42    0.86
   0   7   2   23.13    1.68
   0   7   2   21.49    1.00
  -1  -7  -2    0.71    1.27
  -1  -7  -2    0.37    0.89
  -1  -7  -2   -0.52    0.99
  -1  -7  -2    0.45    0.45
   1   7   2    0.31    0.36
   1   7   2    0.71    0.44
  -2  -7  -2    0.29    1.19
  -2  -7  -2    0.03    0.84
  -2  -7  -2    0.94    0.83
  -2  -7  -2    0.02    0.45
   2   7   2    0.06    0.48
   2   7   2    0.45    0.39
  -3  -7  -2    1.32    0.94
  -3  -7  -2    2.05    0.53
  -3  -7  -2    2.43    0.99
   3   7   2    2.36    0.55
   3   7   2    1.74    0.43
  -4  -7  -2   13.53    1.98
  -4  -7  -2   19.66    1.75
  -4  -7  -2   16.22    0.98
   4   7   2   15.48    1.00
   4   7   2   16.58    0.82
   5   7   2   19.45    1.15
   5   7   2   19.84    0.99
   6   7   2    9.95    0.91
   6   7   2   10.19    0.79
   7   7   2    3.82    0.84
   7   7   2    4.14    0.71
  11  -8  -2   11.38    0.91
 -11   8   2    9.17    1.74
 -11   8   2   10.19    1.30
  10  -8  -2   14.17    1.00
 -10   8   2   12.21    1.27
   9  -8  -2    3.74    0.62
  -9   8   2    2.59    0.91
   8  -8  -2   33.65    1.38
  -8   8   2   32.80    1.91
   7  -8  -2   17.25    0.96
  -7   8   2   16.64    1.44
   6  -8  -2    0.88    0.45
  -6   8   2    1.41    0.80
  -6   8   2    0.78    0.27
   5  -8  -2    1.55    0.45
  -5   8   2    2.25    0.41
  -5   8   2    2.43    0.85
  -5   8   2    3.47    0.37
   4  -8  -2    1.49    0.42
  -4   8   2    1.01    0.43
  -4   8   2    0.60    0.33
  -4   8   2    2.10    0.86
   3  -8  -2   64.82    2.15
  -3   8   2   64.56    2.84
  -3   8   2   65.88    1.82
  -3   8   2   64.71    2.07
   2  -8  -2  133.65    4.08
   2  -8  -2  140.87    5.26
  -2   8   2  137.35    4.03
  -2   8   2  136.49    3.51
  -2   8   2  134.72    5.24
   1  -8  -2   96.29    3.76
   1  -8  -2   94.45    2.90
  -1   8   2   95.26    3.88
  -1   8   2   88.23    2.82
  -1   8   2   86.46    2.45
   0  -8  -2   96.31    3.00
   0   8   2   93.12    2.95
   0   8   2   97.73    2.60
  -1  -8  -2   26.09    1.19
  -1  -8  -2   32.41    2.57
  -1  -8  -2   29.59    1.79
   1   8   2   26.34    1.18
   1   8   2   28.66    1.03
  -2  -8  -2   14.04    1.78
  -2  -8  -2   13.53    0.93
   2   8   2   11.88    0.72
   2   8   2   12.88    0.85
  -3  -8  -2    5.46    0.68
  -3  -8  -2    2.77    1.14
   3   8   2    4.08    0.52
   3   8   2    4.96    0.64
   4   8   2    1.57    0.51
   4   8   2    0.85    0.62
   5   8   2    8.01    0.74
   5   8   2    8.33    0.88
   6   8   2    1.41    0.62
   6   8   2    0.20    0.74
  11  -9  -2    2.24    0.71
 -11   9   2    0.65    1.09
 -11   9   2   -3.83    1.61
  10  -9  -2   13.33    1.01
 -10   9   2   13.17    1.40
   9  -9  -2   31.99    1.45
  -9   9   2   31.28    1.99
   8  -9  -2   23.98    1.20
  -8   9   2   27.44    1.83
   7  -9  -2   60.71    2.11
  -7   9   2   58.79    2.82
   6  -9  -2    6.16    0.65
  -6   9   2    6.13    1.01
   5  -9  -2    0.43    0.44
  -5   9   2    0.03    0.83
  -5   9   2    0.25    0.39
  -5   9   2    0.53    0.35
   4  -9  -2    6.19    0.65
  -4   9   2    6.26    0.57
  -4   9   2    5.81    1.01
  -4   9   2    5.45    0.49
   3  -9  -2    0.61    0.49
  -3   9   2    0.61    0.48
  -3   9   2    1.07    0.41
  -3   9   2    0.09    0.80
   2  -9  -2   30.11    1.27
  -2   9   2   30.54    1.26
  -2   9   2   30.18    1.08
   1  -9  -2    2.59    0.55
  -1   9   2    2.60    0.57
  -1   9   2    3.12    0.48
   0  -9  -2    1.09    0.56
   0   9   2    2.31    0.46
   0   9   2    1.21    0.55
  -1  -9  -2   22.59    2.40
  -1  -9  -2   18.58    1.11
   1   9   2   17.86    0.88
   1   9   2   18.73    1.08
  -2  -9  -2   24.53    2.28
  -2  -9  -2   24.39    1.24
   2   9   2   22.20    0.99
   2   9   2   21.06    1.13
  -3  -9  -2   14.66    1.09
   3   9   2   14.26    0.85
   3   9   2   15.61    1.00
   4   9   2    8.78    0.87
   4   9   2   10.08    0.79
   5   9   2    3.82    0.71
   5   9   2    4.36    0.86
  10 -10  -2    1.81    0.70
 -10  10   2    3.20    1.20
   9 -10  -2   23.28    1.30
   8 -10  -2    8.09    0.80
  -8  10   2    8.02    1.25
   7 -10  -2    4.51    0.67
  -7  10   2    5.74    1.14
   6 -10  -2    9.29    0.82
  -6  10   2   10.05    1.24
   5 -10  -2   10.50    0.85
  -5  10   2   12.02    0.74
  -5  10   2   11.59    0.80
   4 -10  -2   22.95    1.13
  -4  10   2   23.45    1.11
  -4  10   2   22.97    0.94
   3 -10  -2    9.15    0.79
  -3  10   2    9.94    0.83
  -3  10   2   11.33    0.73
   2 -10  -2    0.16    0.55
  -2  10   2    0.49    0.42
  -2  10   2   -0.25    0.48
   1 -10  -2    0.13    0.57
  -1  10   2    0.42    0.57
  -1  10   2    0.54    0.48
   0 -10  -2   -0.11    0.59
   0  10   2   -0.36    0.49
   0  10   2    0.13    0.55
  -1 -10  -2    9.29    0.88
   1  10   2    7.72    0.78
   1  10   2    7.05    0.68
  -2 -10  -2   14.65    1.15
   2  10   2   14.78    0.95
   2  10   2   15.80    1.10
  -3 -10  -2    2.26    0.75
   3  10   2    3.04    0.77
   3  10   2    2.98    0.60
   4  10   2    3.40    0.71
   4  10   2    3.47    0.85
  10 -11  -2    4.51    0.83
   9 -11  -2    2.10    0.74
   8 -11  -2    1.21    0.64
   7 -11  -2    1.04    0.65
   6 -11  -2   23.06    1.27
   5 -11  -2   33.59    1.45
  -5  11   2   31.41    1.16
   4 -11  -2    8.56    0.84
  -4  11   2    8.05    0.76
  -4  11   2    8.63    0.64
   3 -11  -2    6.81    0.80
  -3  11   2    6.77    0.62
  -3  11   2    6.24    0.75
   2 -11  -2    1.49    0.66
  -2  11   2    1.54    0.64
  -2  11   2    1.23    0.52
   1 -11  -2    1.68    0.70
  -1  11   2    0.98    0.51
  -1  11   2    0.87    0.65
   0 -11  -2    1.85    0.73
   0  11   2    3.11    0.68
   0  11   2    3.45    0.59
  -1 -11  -2    0.32    0.69
   1  11   2   -0.07    0.53
   1  11   2   -0.34    0.63
  -2 -11  -2    0.04    0.74
   2  11   2    0.04    0.56
   2  11   2   -0.41    0.65
   3  11   2    0.20    0.78
   3  11   2    1.45    0.68
   9 -12  -2    1.77    0.80
   8 -12  -2    1.56    0.74
   7 -12  -2    8.16    0.93
   6 -12  -2    1.90    0.73
   5 -12  -2    0.32    0.67
   4 -12  -2    0.80    0.68
  -4  12   2    0.24    0.62
  -4  12   2    0.56    0.51
   3 -12  -2    0.78    0.65
  -3  12   2    1.12    0.56
  -3  12   2    1.06    0.67
   2 -12  -2    8.67    0.91
  -2  12   2    7.67    0.86
  -2  12   2    8.78    0.74
   1 -12  -2   12.27    1.07
  -1  12   2   14.39    1.12
  -1  12   2   12.61    0.87
   0 -12  -2    8.40    0.98
   0  12   2    8.31    0.76
   0  12   2    9.13    0.96
  -1 -12  -2    5.38    0.93
   1  12   2    4.06    0.73
   1  12   2    3.46    0.87
   2  12   2    3.70    0.91
   2  12   2    2.12    0.67
   8 -13  -2    9.78    1.05
   7 -13  -2   16.60    1.29
   6 -13  -2   11.45    1.07
   5 -13  -2    3.47    0.84
   4 -13  -2    3.74    0.87
   3 -13  -2    4.40    0.89
  -3  13   2    3.38    0.67
  -3  13   2    3.32    0.80
   2 -13  -2    0.62    0.74
  -2  13   2    0.41    0.78
  -2  13   2    1.31    0.65
   1 -13  -2    1.11    0.84
  -1  13   2    0.89    0.81
  -1  13   2    1.04    0.68
   0 -13  -2   -0.76    0.82
   0  13   2   -0.19    0.68
   0  13   2    0.31    0.77
   4 -14  -2    8.76    1.09
  -3  15  -3   16.53    1.18
   1  14  -3    5.39    0.78
   1  14  -3    4.59    0.95
  -1 -14   3    5.42    1.07
   0  14  -3    2.30    0.80
   0 -14   3    0.00    0.90
  -1  14  -3    2.02    0.83
   1 -14   3    1.38    0.92
  -2  14  -3    2.67    0.82
   2 -14   3    3.73    0.92
  -3  14  -3    1.96    0.78
   3 -14   3    1.08    0.83
   4 -14   3    2.54    0.86
   5 -14   3    0.34    0.85
   6 -14   3    8.28    1.13
   3  13  -3    0.78    0.82
   3  13  -3   -0.08    0.67
  -3 -13   3    1.19    2.23
   2  13  -3   -0.02    0.78
  -2 -13   3    1.23    2.35
   1  13  -3    2.43    0.76
  -1 -13   3    3.22    0.90
   0  13  -3    7.88    0.87
   0 -13   3    6.74    0.99
  -1  13  -3    3.81    0.78
   1 -13   3    3.54    0.89
  -2  13  -3   23.96    1.25
   2 -13   3   21.18    1.38
  -3  13  -3    7.71    0.81
   3 -13   3    7.59    1.00
  -4  13  -3    0.76    0.66
   4 -13   3    0.11    0.71
   5 -13   3    1.15    0.83
   6 -13   3    1.84    0.85
   7 -13   3    2.27    0.89
   8 -13   3    0.49    0.87
   4  12  -3    0.70    0.78
   4  12  -3    0.59    0.66
  -4 -12   3    2.48    2.29
   3  12  -3    0.89    0.73
  -3 -12   3   -0.23    2.06
   2  12  -3    0.92    0.70
  -2 -12   3    0.26    0.79
   1  12  -3    1.27    0.68
  -1 -12   3    1.04    0.76
   0  12  -3    0.64    0.61
   0 -12   3   -0.38    0.73
  -1  12  -3    0.20    0.62
   1 -12   3    0.27    0.73
  -2  12  -3   -0.54    0.56
   2 -12   3   -0.21    0.71
  -3  12  -3    2.39    0.65
   3 -12   3    1.37    0.75
  -4  12  -3    1.01    0.60
   4 -12   3    0.84    0.68
   5 -12   3   13.99    1.12
   6 -12   3   34.54    1.67
   7 -12   3    4.40    0.90
   8 -12   3    4.51    0.95
   5  11  -3    5.60    0.69
   5  11  -3    5.50    0.86
  -5 -11   3    3.61    2.24
   4  11  -3    4.10    0.76
  -4 -11   3    2.70    2.16
   3  11  -3    3.36    0.72
  -3 -11   3    2.94    2.15
   2  11  -3   12.40    1.01
  -2 -11   3   11.41    1.01
   1  11  -3   30.97    1.41
  -1 -11   3   30.20    1.51
   0  11  -3    0.51    0.60
   0 -11   3    0.48    0.68
  -1  11  -3    1.04    0.54
   1 -11   3    0.22    0.65
  -2  11  -3    1.67    0.60
   2 -11   3    3.46    0.73
  -3  11  -3    2.90    0.57
   3 -11   3    3.11    0.74
  -4  11  -3   19.32    1.03
   4 -11   3   17.64    1.22
  -5  11  -3    4.51    0.62
  -5  11  -3    3.56    1.68
   5 -11   3    3.55    0.74
  -6  11  -3   19.39    2.15
   6 -11   3   17.54    1.26
  -7  11  -3    8.33    1.84
   7 -11   3    6.75    0.92
  -8  11  -3    2.90    1.80
   8 -11   3    1.67    0.80
  -9  11  -3   17.24    2.29
   9 -11   3   13.14    1.19
   6  10  -3    0.62    0.58
   6  10  -3    0.08    0.67
  -6 -10   3   -0.83    2.06
   5  10  -3    2.24    0.68
  -5 -10   3    1.53    1.96
   4  10  -3    8.62    0.81
  -4 -10   3    8.34    2.20
   3  10  -3   22.40    1.17
  -3 -10   3   23.18    1.27
  -3 -10   3   16.29    2.77
   2  10  -3   26.93    1.25
  -2 -10   3   29.48    1.38
   1  10  -3   59.81    2.12
  -1 -10   3   62.51    2.23
   0  10  -3   30.68    1.34
   0 -10   3   32.42    1.48
  -1  10  -3    3.09    0.55
   1 -10   3    3.81    0.70
  -2  10  -3   39.91    1.51
  -2  10  -3   37.45    2.70
   2 -10   3   37.22    1.65
  -3  10  -3   22.19    1.09
  -3  10  -3   25.91    2.62
   3 -10   3   21.01    1.24
  -4  10  -3    0.27    1.42
  -4  10  -3    0.87    0.48
   4 -10   3    0.47    0.56
  -5  10  -3   -0.47    1.43
  -5  10  -3   -0.33    0.45
   5 -10   3   -0.19    0.61
  -6  10  -3    1.09    1.55
   6 -10   3    0.80    0.66
  -7  10  -3   22.57    2.21
   7 -10   3   23.80    1.38
  -8  10  -3   21.20    2.19
   8 -10   3   21.36    1.39
  -9  10  -3   21.96    2.45
   9 -10   3   22.78    1.52
 -10  10  -3   19.35    2.45
  10 -10   3   16.21    1.35
   7   9  -3    5.62    0.70
   7   9  -3    5.03    0.79
  -7  -9   3    2.45    2.11
   6   9  -3    2.43    0.68
  -6  -9   3    3.11    1.14
  -6  -9   3    2.42    1.97
   5   9  -3   13.31    0.95
  -5  -9   3    9.59    2.26
  -5  -9   3   13.69    1.46
   4   9  -3   13.69    0.95
  -4  -9   3   11.40    2.29
  -4  -9   3   14.19    1.41
   3   9  -3    0.56    0.52
  -3  -9   3   -0.21    0.54
  -3  -9   3    1.06    0.97
  -3  -9   3   -0.99    1.68
   2   9  -3    1.94    0.53
  -2  -9   3    2.23    0.97
  -2  -9   3    1.14    0.56
   1   9  -3   27.00    1.18
  -1  -9   3   28.65    1.27
  -1  -9   3   30.30    1.85
   0   9  -3   64.75    2.18
   0   9  -3   60.78    3.63
   0  -9   3   70.94    3.11
   0  -9   3   68.73    2.33
  -1   9  -3   93.20    3.84
  -1   9  -3   89.84    2.77
   1  -9   3   81.75    2.84
  -2   9  -3  150.78    6.06
  -2   9  -3  153.81    4.61
  -2   9  -3  171.62    6.43
   2  -9   3  162.89    6.11
   2  -9   3  147.22    4.74
  -3   9  -3  170.42    4.96
  -3   9  -3  175.54    6.84
  -3   9  -3  171.63    6.53
   3  -9   3  162.63    5.11
  -4   9  -3   17.57    0.89
  -4   9  -3   19.46    1.65
  -4   9  -3   16.44    1.74
   4  -9   3   15.60    1.00
  -5   9  -3    2.98    0.47
  -5   9  -3    4.65    1.44
  -5   9  -3    3.66    0.99
   5  -9   3    2.11    0.59
  -6   9  -3   15.61    1.81
  -6   9  -3   16.77    1.62
   6  -9   3   15.96    1.13
  -7   9  -3    2.04    1.02
  -7   9  -3    3.84    1.66
   7  -9   3    3.05    0.72
  -8   9  -3   11.28    1.41
  -8   9  -3   12.14    1.87
   8  -9   3   10.87    1.00
  -9   9  -3    3.78    1.80
   9  -9   3    2.12    0.67
   9  -9   3    1.27    0.79
 -10   9  -3    5.02    1.95
  10  -9   3    4.99    0.79
  10  -9   3    3.19    0.86
   8   8  -3    4.47    0.74
   8   8  -3    2.90    0.58
  -8  -8   3    3.90    1.19
  -8  -8   3    0.36    2.08
   7   8  -3    7.31    0.67
   7   8  -3    6.47    0.75
  -7  -8   3    6.22    2.13
  -7  -8   3    6.66    1.25
   6   8  -3    5.62    0.68
  -6  -8   3    5.36    1.11
  -6  -8   3    5.18    1.89
   5   8  -3   33.34    1.37
  -5  -8   3   35.70    2.12
  -5  -8   3   30.62    3.52
   4   8  -3   52.52    1.85
  -4  -8   3   55.64    2.60
  -4  -8   3   53.38    1.85
  -4  -8   3   48.99    4.28
   3   8  -3    4.47    0.55
  -3  -8   3    4.88    0.60
  -3  -8   3    3.28    1.75
  -3  -8   3    5.54    0.94
   2   8  -3    1.52    0.47
  -2  -8   3    0.83    0.91
  -2  -8   3    1.53    0.52
   1   8  -3   10.40    1.57
   1   8  -3    9.98    0.75
  -1  -8   3   12.80    1.21
  -1  -8   3   11.24    0.85
   0   8  -3    1.29    1.28
   0   8  -3    1.42    0.44
   0   8  -3    1.37    0.80
   0  -8   3    1.64    0.86
   0  -8   3    1.41    0.48
  -1   8  -3   20.88    1.51
  -1   8  -3   18.46    1.81
  -1   8  -3   21.52    0.95
   1  -8   3   20.00    1.03
  -2   8  -3    5.32    0.93
  -2   8  -3    5.39    1.38
  -2   8  -3    6.03    0.52
   2  -8   3    4.45    0.59
   2  -8   3    7.20    1.10
  -3   8  -3   30.85    1.18
  -3   8  -3   28.90    1.89
  -3   8  -3   31.47    2.58
   3  -8   3   31.02    1.31
   3  -8   3   32.41    2.04
  -4   8  -3   35.90    2.69
  -4   8  -3   34.22    1.25
  -4   8  -3   34.71    2.06
   4  -8   3   33.81    1.46
  -5   8  -3   34.34    1.25
  -5   8  -3   34.08    2.71
  -5   8  -3   37.13    2.08
   5  -8   3   33.90    1.49
  -6   8  -3  100.24    3.02
  -6   8  -3  108.42    4.74
  -6   8  -3  106.42    4.27
   6  -8   3  105.50    2.93
   6  -8   3  100.75    3.34
  -7   8  -3   48.78    3.23
  -7   8  -3   48.65    2.54
   7  -8   3   46.91    1.66
   7  -8   3   47.38    1.89
  -8   8  -3    2.36    1.52
  -8   8  -3    0.65    1.02
   8  -8   3    1.15    0.62
   8  -8   3    0.61    0.65
  -9   8  -3    6.54    1.76
  -9   8  -3    4.02    1.17
   9  -8   3    5.08    0.74
   9  -8   3    4.54    0.84
 -10   8  -3    1.69    1.84
  10  -8   3    1.71    0.70
  10  -8   3    1.41    0.81
   8   7  -3    0.24    0.55
   8   7  -3    0.92    0.51
  -8  -7   3   -0.38    1.03
  -8  -7   3   -2.11    1.84
   7   7  -3    0.46    0.52
  -7  -7   3   -0.09    0.95
  -7  -7   3    0.00    1.66
   6   7  -3    0.37    0.47
  -6  -7   3   -0.02    0.89
  -6  -7   3    0.08    1.57
   5   7  -3    1.40    0.47
  -5  -7   3    1.08    0.85
  -5  -7   3    1.04    1.62
   4   7  -3   10.21    0.75
  -4  -7   3   10.72    1.13
  -4  -7   3   10.73    0.72
  -4  -7   3    8.71    1.95
   3   7  -3    2.75    0.46
  -3  -7   3    2.73    0.48
  -3  -7   3    0.73    1.74
  -3  -7   3    3.23    0.90
   2   7  -3    0.64    0.39
  -2  -7   3    1.23    0.74
  -2  -7   3    0.88    0.42
   1   7  -3  105.01    3.14
   1   7  -3  101.85    4.31
  -1  -7   3  109.62    4.12
  -1  -7   3  103.04    3.21
   0   7  -3   63.81    2.81
   0   7  -3   64.15    3.05
   0   7  -3   68.13    2.11
   0  -7   3   69.73    2.89
   0  -7   3   66.84    2.19
  -1   7  -3    0.93    0.97
  -1   7  -3    0.30    0.32
  -1   7  -3    0.22    0.71
   1  -7   3    1.04    0.45
   1  -7   3   -0.57    0.59
  -2   7  -3   11.74    1.27
  -2   7  -3   14.63    1.44
  -2   7  -3   13.39    0.72
   2  -7   3   14.09    0.81
   2  -7   3   14.87    1.43
  -3   7  -3    9.79    0.65
  -3   7  -3   11.03    1.34
  -3   7  -3   11.98    1.18
   3  -7   3   11.63    0.77
   3  -7   3    9.21    1.15
  -4   7  -3    9.07    1.05
  -4   7  -3    7.07    1.42
  -4   7  -3    8.19    0.58
   4  -7   3    7.70    0.70
   4  -7   3    8.35    0.62
  -5   7  -3    6.03    0.46
  -5   7  -3    4.48    0.96
  -5   7  -3    4.30    1.48
   5  -7   3    5.54    0.59
   5  -7   3    4.89    0.65
  -6   7  -3    5.50    0.98
  -6   7  -3    3.55    1.42
  -6   7  -3    4.94    0.36
   6  -7   3    4.63    0.67
  -7   7  -3   14.96    1.50
  -7   7  -3   16.86    1.79
   7  -7   3   16.05    1.06
   7  -7   3   16.83    0.94
  -8   7  -3   -0.09    0.87
  -8   7  -3    1.45    1.55
   8  -7   3    0.70    0.54
   8  -7   3    0.70    0.63
  -9   7  -3    9.58    1.80
  -9   7  -3    5.61    1.15
   9  -7   3    5.62    0.81
   9  -7   3    6.94    0.73
 -10   7  -3   15.63    2.10
 -10   7  -3   15.40    1.54
  10  -7   3   16.10    1.22
  10  -7   3   17.44    1.09
   9   6  -3    0.87    0.55
   9   6  -3    0.71    0.48
  -9  -6   3   -0.19    1.04
  -9  -6   3   -0.20    2.09
   8   6  -3    9.48    0.65
   8   6  -3    9.57    0.75
  -8  -6   3    7.53    2.01
  -8  -6   3    9.81    1.19
  -8  -6   3   10.10    1.63
   7   6  -3   10.09    0.80
  -7  -6   3   10.47    1.11
  -7  -6   3    9.15    2.03
   6   6  -3    1.54    0.44
  -6  -6   3    1.24    0.79
  -6  -6   3    2.06    1.57
   5   6  -3    0.26    0.39
  -5  -6   3    0.83    1.51
  -5  -6   3    0.55    0.76
  -5  -6   3   -0.02    0.22
   4   6  -3    0.20    0.37
  -4  -6   3    0.99    1.55
  -4  -6   3    0.58    0.34
  -4  -6   3    0.68    0.78
   3   6  -3    8.36    0.57
  -3  -6   3    4.00    1.79
  -3  -6   3    9.16    0.94
  -3  -6   3    9.52    0.60
   2   6  -3    0.41    0.33
  -2  -6   3    0.44    0.67
  -2  -6   3    0.62    0.35
   1   6  -3   18.72    1.79
   1   6  -3   19.02    0.83
  -1  -6   3   18.32    1.21
  -1  -6   3   19.12    0.85
   0   6  -3    2.54    0.95
   0   6  -3    3.80    0.38
   0   6  -3    2.98    0.64
   0  -6   3    3.45    0.73
   0  -6   3    3.88    0.46
  -1   6  -3   20.90    1.38
  -1   6  -3   22.65    1.82
  -1   6  -3   21.18    0.85
   1  -6   3   23.10    0.97
  -2   6  -3    8.31    0.86
  -2   6  -3    9.09    0.53
  -2   6  -3    9.14    1.18
   2  -6   3    8.83    0.65
   2  -6   3    8.18    0.95
  -3   6  -3   98.38    2.83
  -3   6  -3   93.31    4.02
  -3   6  -3   95.70    3.79
   3  -6   3   94.94    2.97
   3  -6   3   93.27    2.59
   3  -6   3   97.22    3.80
  -4   6  -3   21.36    1.46
  -4   6  -3   21.76    0.85
  -4   6  -3   21.36    2.15
   4  -6   3   21.73    1.04
   4  -6   3   20.96    0.91
  -5   6  -3    6.71    1.45
  -5   6  -3    8.38    1.00
  -5   6  -3    8.66    0.53
   5  -6   3    9.30    0.68
   5  -6   3    9.72    0.75
  -6   6  -3   26.56    1.69
  -6   6  -3   23.28    2.06
   6  -6   3   23.60    1.14
   6  -6   3   27.04    1.07
  -7   6  -3    9.65    1.09
  -7   6  -3   10.20    1.62
   7  -6   3    9.76    0.66
   7  -6   3    8.88    0.74
  -8   6  -3    0.57    0.89
  -8   6  -3    1.32    1.39
   8  -6   3    0.02    0.48
   8  -6   3    1.00    0.59
  -9   6  -3    4.17    1.59
  -9   6  -3    3.25    1.01
   9  -6   3    3.39    0.60
   9  -6   3    3.41    0.70
 -10   6  -3   10.73    1.40
 -10   6  -3   12.35    1.89
  10  -6   3   11.95    0.86
  10  -6   3   11.13    0.98
  10   5  -3    2.05    0.61
  10   5  -3    1.12    0.49
 -10  -5   3    1.62    1.05
   9   5  -3    1.71    0.55
   9   5  -3    1.07    0.44
  -9  -5   3    1.41    0.92
  -9  -5   3    2.48    1.37
  -9  -5   3   -1.50    1.91
   8   5  -3   15.07    0.76
   8   5  -3   16.34    0.89
  -8  -5   3   17.30    1.39
  -8  -5   3   12.56    2.29
   7   5  -3   23.52    1.02
  -7  -5   3   19.85    2.91
  -7  -5   3   24.74    1.52
   6   5  -3    3.36    0.44
  -6  -5   3    3.86    0.80
  -6  -5   3    3.53    1.54
   5   5  -3    8.70    0.62
   5   5  -3    7.46    0.61
  -5  -5   3    8.55    0.94
  -5  -5   3    7.46    1.79
   4   5  -3   95.18    2.77
   4   5  -3   90.22    2.76
  -4  -5   3   93.89    3.61
  -4  -5   3   92.91    2.70
  -4  -5   3   88.07    5.77
   3   5  -3   21.62    0.85
   3   5  -3   22.85    0.88
  -3  -5   3   20.15    1.32
  -3  -5   3   18.76    2.47
  -3  -5   3   21.47    0.83
   2   5  -3   14.47    1.51
   2   5  -3   16.14    0.71
   2   5  -3   16.63    0.73
  -2  -5   3   15.53    1.09
  -2  -5   3   14.52    0.72
   1   5  -3    6.66    0.50
   1   5  -3    5.75    1.01
   1   5  -3    6.74    0.71
   1   5  -3    6.51    0.45
  -1  -5   3    6.58    0.74
  -1  -5   3    6.88    0.50
   0   5  -3   10.64    0.54
   0   5  -3   11.17    1.00
   0   5  -3   11.28    0.69
   0   5  -3    6.13    0.96
   0  -5   3    9.53    0.65
   0  -5   3   10.92    1.05
  -1   5  -3   10.97    0.56
  -1   5  -3   10.37    1.05
  -1   5  -3   10.60    1.01
   1  -5   3   12.81    0.58
   1  -5   3   10.70    0.65
  -2   5  -3   65.63    2.75
  -2   5  -3   66.62    2.03
  -2   5  -3   65.14    3.02
   2  -5   3   71.42    2.05
   2  -5   3   64.74    2.77
   2  -5   3   65.45    2.14
   2  -5   3   67.37    1.88
  -3   5  -3  134.85    3.86
  -3   5  -3  135.62    5.02
  -3   5  -3  130.97    5.15
   3  -5   3  136.98    3.89
   3  -5   3  133.02    3.48
   3  -5   3  134.51    4.99
   3  -5   3  136.94    3.87
   3  -5   3  130.43    3.95
  -4   5  -3   64.92    2.68
  -4   5  -3   64.11    1.95
  -4   5  -3   62.36    3.11
   4  -5   3   64.08    2.08
   4  -5   3   68.39    2.02
   4  -5   3   67.39    2.04
   4  -5   3   61.66    1.82
  -5   5  -3    2.28    0.75
  -5   5  -3    2.90    0.30
  -5   5  -3    1.45    1.27
   5  -5   3    3.43    0.42
   5  -5   3    3.14    0.39
   5  -5   3    3.19    0.47
  -6   5  -3   36.33    1.86
  -6   5  -3   34.00    1.04
  -6   5  -3   35.94    2.76
  -6   5  -3   30.15    1.00
   6  -5   3   36.90    1.34
   6  -5   3   36.30    1.19
  -7   5  -3   29.98    1.69
  -7   5  -3   32.57    2.56
   7  -5   3   30.70    1.28
   7  -5   3   29.28    1.09
  -8   5  -3   -0.40    0.83
  -8   5  -3   -0.16    1.43
   8  -5   3    1.18    0.57
   8  -5   3    0.33    0.44
  -9   5  -3    3.23    1.53
  -9   5  -3   -0.93    0.93
   9  -5   3    0.67    0.51
   9  -5   3    0.15    0.60
 -10   5  -3    3.13    1.52
 -10   5  -3    0.22    1.08
  10  -5   3    2.00    0.72
  10  -5   3    2.70    0.61
  10   4  -3    4.33    0.62
  10   4  -3    4.25    0.52
 -10  -4   3    3.93    0.98
 -10  -4   3    2.15    2.47
 -10  -4   3    3.95    1.42
   9   4  -3    1.53    0.49
   9   4  -3    1.20    0.41
  -9  -4   3    1.02    0.82
  -9  -4   3    2.68    1.23
  -9  -4   3    0.84    1.89
   8   4  -3    0.45    0.41
  -8  -4   3    1.53    0.73
  -8  -4   3   -1.09    1.59
   7   4  -3   22.98    0.96
  -7  -4   3   23.05    2.65
  -7  -4   3   24.10    1.42
   6   4  -3   17.36    0.75
   6   4  -3   15.78    0.75
  -6  -4   3   17.89    2.65
  -6  -4   3   15.92    1.17
   5   4  -3   49.52    1.57
   5   4  -3   49.89    1.57
  -5  -4   3   47.69    3.64
  -5  -4   3   49.25    2.13
   4   4  -3  288.18    7.91
   4   4  -3  283.86    7.92
  -4  -4   3  279.06   14.85
  -4  -4   3  276.55    7.82
  -4  -4   3  284.55    9.99
   3   4  -3  239.99    6.73
   3   4  -3  249.88    6.74
  -3  -4   3  237.68    6.69
  -3  -4   3  229.77   12.72
  -3  -4   3  236.88    6.69
  -3  -4   3  241.34    8.49
   2   4  -3   13.23    0.59
   2   4  -3   12.79    1.27
   2   4  -3   11.10    0.56
  -2  -4   3   11.90    0.57
  -2  -4   3   12.37    0.57
  -2  -4   3   11.69    0.89
   1   4  -3  103.43    4.05
   1   4  -3  108.56    4.24
   1   4  -3  108.36    3.19
   1   4  -3  116.89    3.23
  -1  -4   3  111.77    3.17
  -1  -4   3  107.36    4.09
  -1  -4   3  108.99    3.23
  -1  -4   3  114.86    3.18
   0   4  -3   99.85    2.49
   0   4  -3  103.91    2.88
   0   4  -3   88.85    3.60
   0   4  -3   93.35    2.79
   0  -4   3   93.83    3.62
   0  -4   3   98.91    2.79
   0  -4   3   93.53    3.75
   0  -4   3  100.36    2.78
   0  -4   3   87.93    2.85
  -1   4  -3    0.56    0.51
  -1   4  -3    0.87    0.27
  -1   4  -3    1.14    0.72
  -1   4  -3    1.13    0.27
  -1   4  -3    0.80    0.30
   1  -4   3    0.55    0.50
   1  -4   3    1.05    0.22
   1  -4   3    1.11    0.27
   1  -4   3    1.38    0.22
   1  -4   3    0.95    0.33
  -2   4  -3   -0.16    0.22
  -2   4  -3   -0.12    0.44
  -2   4  -3   -0.67    0.82
  -2   4  -3    0.14    0.32
   2  -4   3    0.37    0.22
   2  -4   3    0.26    0.27
   2  -4   3    0.28    0.22
   2  -4   3    0.15    0.23
   2  -4   3    0.20    0.58
  -3   4  -3    3.07    0.38
  -3   4  -3    2.72    0.32
  -3   4  -3    3.05    0.60
  -3   4  -3    3.28    0.98
   3  -4   3    3.28    0.33
   3  -4   3    2.05    0.70
   3  -4   3    2.82    0.36
   3  -4   3    2.84    0.33
  -4   4  -3   29.54    1.49
  -4   4  -3   29.13    2.00
  -4   4  -3   29.40    1.00
   4  -4   3   28.43    0.96
   4  -4   3   30.10    1.10
   4  -4   3   30.04    1.08
  -5   4  -3   18.93    2.05
  -5   4  -3   23.09    0.78
  -5   4  -3   20.89    1.34
  -5   4  -3   22.45    0.83
   5  -4   3   22.41    0.93
   5  -4   3   23.36    0.87
   5  -4   3   23.50    1.00
  -6   4  -3   63.42    2.73
  -6   4  -3   62.64    3.27
   6  -4   3   72.69    2.12
   6  -4   3   62.40    2.12
   6  -4   3   65.53    1.86
  -7   4  -3  119.10    4.60
  -7   4  -3  119.82    4.98
   7  -4   3  120.13    3.62
   7  -4   3  120.49    3.16
  -8   4  -3   23.62    1.62
  -8   4  -3   25.08    2.29
   8  -4   3   23.12    1.00
   8  -4   3   23.39    1.15
  -9   4  -3    5.22    1.05
  -9   4  -3    8.01    1.51
   9  -4   3    5.87    0.73
   9  -4   3    5.58    0.61
 -10   4  -3   10.15    1.57
 -10   4  -3    6.75    1.28
  10  -4   3    8.93    0.88
  10  -4   3    8.96    0.75
  10   3  -3   17.71    0.94
  10   3  -3   16.95    0.79
 -10  -3   3   17.71    1.41
 -10  -3   3   17.76    1.80
 -10  -3   3   14.14    2.77
   9   3  -3    5.03    0.50
   9   3  -3    5.44    0.44
  -9  -3   3    4.83    0.83
  -9  -3   3    4.35    1.83
  -9  -3   3    5.28    1.17
   8   3  -3   11.28    0.67
  -8  -3   3    7.76    1.84
  -8  -3   3   10.90    1.00
   7   3  -3   27.51    1.00
  -7  -3   3   28.85    1.44
  -7  -3   3   27.81    3.06
   6   3  -3    4.51    0.38
   6   3  -3    5.57    0.44
  -6  -3   3    5.16    0.69
  -6  -3   3    3.92    1.57
   5   3  -3    3.95    0.31
   5   3  -3    2.83    0.31
  -5  -3   3    3.63    0.59
  -5  -3   3    3.86    1.26
   4   3  -3   30.42    0.96
   4   3  -3   28.01    0.97
  -4  -3   3   28.32    2.50
  -4  -3   3   29.51    1.32
   3   3  -3  104.91    3.08
   3   3  -3  112.87    3.08
  -3  -3   3  107.62    3.03
  -3  -3   3  110.55    3.03
  -3  -3   3  109.31    3.92
  -3  -3   3   99.67    6.04
  -3  -3   3  105.23    4.15
   2   3  -3  103.50    3.00
   2   3  -3  109.23    3.01
   2   3  -3   97.28    3.89
  -2  -3   3  103.94    2.98
  -2  -3   3  105.84    3.82
  -2  -3   3  104.12    2.97
  -2  -3   3  105.62    4.00
   1   3  -3  451.40   15.71
   1   3  -3  470.90   11.04
   1   3  -3  450.51   12.64
   1   3  -3  471.69   12.49
   1   3  -3  443.66   15.52
  -1  -3   3  439.96   15.56
  -1  -3   3  428.38   12.26
  -1  -3   3  424.34   15.56
  -1  -3   3  408.38   12.45
   0   3  -3  900.52   23.88
   0   3  -3  900.39   20.62
   0   3  -3  901.92   29.77
   0   3  -3  926.00   23.89
   0  -3   3  801.65   29.56
   0  -3   3  753.10   23.56
   0  -3   3  797.02   23.61
   0  -3   3  814.81   29.67
   0  -3   3  773.86   20.92
  -1   3  -3  370.75    8.77
  -1   3  -3  371.25   12.60
  -1   3  -3  386.37   10.03
  -1   3  -3  347.70   10.06
  -1   3  -3  361.53   12.70
   1  -3   3  355.20   10.02
   1  -3   3  336.77    8.76
   1  -3   3  338.71   12.67
   1  -3   3  362.49   10.06
  -2   3  -3  116.80    3.28
  -2   3  -3  115.47    3.26
  -2   3  -3  114.52    2.86
  -2   3  -3  111.34    4.36
  -2   3  -3  113.11    4.13
   2  -3   3  110.20    4.15
   2  -3   3  110.34    2.86
   2  -3   3  111.41    3.28
   2  -3   3  105.54    4.32
   2  -3   3  118.37    3.26
  -3   3  -3   55.95    2.61
  -3   3  -3   57.93    1.73
  -3   3  -3   54.27    1.70
  -3   3  -3   55.32    2.26
   3  -3   3   56.76    1.53
   3  -3   3   57.91    1.76
   3  -3   3   51.73    2.36
   3  -3   3   58.34    1.74
  -4   3  -3    4.10    0.66
  -4   3  -3    3.02    0.99
  -4   3  -3    4.28    0.34
  -4   3  -3    4.39    0.35
   4  -3   3    4.07    0.42
   4  -3   3    5.04    0.39
   4  -3   3    4.33    0.36
  -5   3  -3   21.86    2.10
  -5   3  -3   23.89    1.43
  -5   3  -3   23.01    0.80
  -5   3  -3   22.96    0.79
   5  -3   3   24.47    0.87
   5  -3   3   22.68    0.96
   5  -3   3   24.82    0.93
  -6   3  -3   31.83    1.76
  -6   3  -3   35.10    2.50
   6  -3   3   30.58    1.25
   6  -3   3   34.15    1.21
   6  -3   3   31.11    1.07
  -7   3  -3   38.17    1.98
  -7   3  -3   40.60    2.51
   7  -3   3   39.15    1.48
   7  -3   3   38.52    1.25
  -8   3  -3    9.73    1.14
  -8   3  -3   11.82    1.53
   8  -3   3   12.37    0.77
   8  -3   3   11.37    0.84
  -9   3  -3    3.08    1.04
  -9   3  -3    5.48    1.32
   9  -3   3    3.77    0.57
   9  -3   3    5.17    0.71
 -10   3  -3   20.86    2.13
 -10   3  -3   14.64    1.52
  10  -3   3   17.37    1.17
  10  -3   3   18.24    1.01
 -11  -2   3    1.89    1.26
 -11  -2   3    0.64    2.21
 -11  -2   3    5.07    0.90
  10   2  -3   14.45    0.77
  10   2  -3   13.37    0.69
 -10  -2   3   12.57    1.32
 -10  -2   3   13.25    1.16
 -10  -2   3    9.60    2.49
   9   2  -3    2.38    0.34
   9   2  -3    2.87    0.40
  -9  -2   3    2.46    0.69
  -9  -2   3    1.45    1.70
   8   2  -3   24.38    0.89
  -8  -2   3   23.83    2.83
  -8  -2   3   25.02    1.29
   7   2  -3  101.34    2.95
   7   2  -3  108.08    2.96
  -7  -2   3   99.55    6.15
  -7  -2   3  101.03    3.79
   6   2  -3   41.58    1.25
   6   2  -3   39.39    1.26
  -6  -2   3   41.43    1.70
  -6  -2   3   42.73    3.37
   5   2  -3    8.05    0.42
   5   2  -3    9.43    0.39
  -5  -2   3    8.97    0.69
  -5  -2   3    8.44    1.36
  -5  -2   3    9.72    0.96
   4   2  -3   20.85    0.70
   4   2  -3   21.01    0.69
  -4  -2   3   21.11    0.98
  -4  -2   3   20.43    1.47
  -4  -2   3   21.59    1.98
   3   2  -3    1.39    0.17
   3   2  -3    1.57    0.19
  -3  -2   3    1.26    0.34
  -3  -2   3    1.53    0.61
  -3  -2   3    1.59    0.77
   2   2  -3    6.58    0.32
   2   2  -3    7.38    0.36
   2   2  -3    7.33    0.73
  -2  -2   3    6.35    0.60
  -2  -2   3    7.21    0.33
  -2  -2   3    6.94    0.31
  -2  -2   3    5.96    1.03
  -2  -2   3    6.19    0.70
   1   2  -3   10.19    0.41
   1   2  -3    9.41    0.78
   1   2  -3    9.27    0.79
   1   2  -3    9.15    0.52
   1   2  -3    9.37    0.41
  -1  -2   3   10.11    0.81
  -1  -2   3   10.30    0.41
  -1  -2   3    9.07    0.48
  -1  -2   3   10.76    1.08
   0   2  -3  243.74    6.50
   0   2  -3  237.24    5.68
   0   2  -3  237.96    8.18
   0   2  -3  229.37    6.46
   0  -2   3  221.82    8.23
   0  -2   3  222.09    6.49
   0  -2   3  229.21    8.18
   0  -2   3  225.87    5.68
   0  -2   3  236.24    6.46
  -1   2  -3   39.63    1.65
  -1   2  -3   39.24    1.82
  -1   2  -3   39.51    1.25
  -1   2  -3   37.11    1.20
  -1   2  -3   40.15    1.07
   1  -2   3   36.59    1.91
   1  -2   3   38.77    1.08
   1  -2   3   38.59    1.23
   1  -2   3   40.75    1.21
  -2   2  -3   12.10    0.55
  -2   2  -3   12.09    0.50
  -2   2  -3   12.61    0.56
  -2   2  -3   12.34    0.56
  -2   2  -3   11.49    1.23
  -2   2  -3   12.91    0.87
   2  -2   3   13.93    0.50
   2  -2   3   12.16    0.58
   2  -2   3   12.01    1.00
   2  -2   3   13.00    1.27
   2  -2   3   13.64    0.55
  -3   2  -3  178.26    6.27
  -3   2  -3  174.26    4.94
  -3   2  -3  177.22    6.41
  -3   2  -3  180.06    4.92
  -3   2  -3  171.27    4.92
   3  -2   3  162.69    6.30
   3  -2   3  171.79    4.33
   3  -2   3  170.36    4.96
   3  -2   3  183.89    4.96
  -4   2  -3  241.43    8.82
  -4   2  -3  243.30    8.64
  -4   2  -3  244.28    6.78
  -4   2  -3  237.41    6.81
   4  -2   3  237.53    6.85
   4  -2   3  244.04    6.00
   4  -2   3  252.49    6.85
  -5   2  -3   29.25    1.61
  -5   2  -3   28.98    0.93
  -5   2  -3   26.75    0.93
  -5   2  -3   29.06    1.96
   5  -2   3   27.70    1.08
   5  -2   3   30.45    1.05
   5  -2   3   29.39    0.97
  -6   2  -3   19.87    1.50
  -6   2  -3   20.44    1.96
   6  -2   3   18.22    0.82
   6  -2   3   21.41    0.89
   6  -2   3   17.80    0.91
  -7   2  -3   18.64    1.82
  -7   2  -3   15.75    1.33
   7  -2   3   17.11    0.95
   7  -2   3   17.14    0.82
  -8   2  -3   -1.51    0.86
  -8   2  -3    0.24    1.09
   8  -2   3    0.88    0.54
   8  -2   3   -0.01    0.44
  -9   2  -3    1.62    1.02
  -9   2  -3    3.67    1.20
   9  -2   3    2.96    0.55
   9  -2   3    3.84    0.69
 -10   2  -3   10.73    1.51
 -10   2  -3    7.15    1.30
  10  -2   3    9.40    0.92
  10  -2   3    9.27    0.77
 -11  -1   3    0.57    0.75
 -11  -1   3   -1.62    2.24
 -11  -1   3   -1.09    1.03
  10   1  -3    4.99    0.39
  10   1  -3    4.86    0.45
 -10  -1   3    4.94    0.74
 -10  -1   3    3.34    0.94
 -10  -1   3    3.60    1.94
   9   1  -3    0.31    0.29
   9   1  -3    0.61    0.26
  -9  -1   3    0.20    0.56
  -9  -1   3    0.15    1.68
   8   1  -3    3.78    0.30
  -8  -1   3    2.18    1.53
  -8  -1   3    3.18    0.55
   7   1  -3   59.87    1.74
   7   1  -3   60.61    1.73
  -7  -1   3   62.79    4.24
  -7  -1   3   57.20    2.27
   6   1  -3   17.08    0.60
   6   1  -3   18.62    0.58
  -6  -1   3   17.81    0.88
  -6  -1   3   21.35    2.53
  -6  -1   3   18.27    1.30
   5   1  -3   18.15    0.54
   5   1  -3   17.47    0.54
  -5  -1   3   17.28    0.75
  -5  -1   3   16.45    0.92
  -5  -1   3   18.06    2.09
   4   1  -3   37.06    1.07
   4   1  -3   37.85    1.07
  -4  -1   3   38.67    2.71
  -4  -1   3   36.60    1.43
  -4  -1   3   37.79    1.38
   3   1  -3  132.45    3.71
   3   1  -3  135.55    3.72
  -3  -1   3  135.93    4.72
  -3  -1   3  136.85    7.12
  -3  -1   3  128.79    4.68
   2   1  -3   22.53    0.74
   2   1  -3   21.10    0.91
   2   1  -3   22.28    0.67
   2   1  -3   21.51    0.65
   2   1  -3   19.92    0.87
  -2  -1   3   22.40    0.65
  -2  -1   3   22.24    1.05
  -2  -1   3   21.13    0.97
  -2  -1   3   22.38    1.80
   1   1  -3   24.81    1.27
   1   1  -3   29.79    0.92
   1   1  -3   27.79    0.78
   1   1  -3   27.72    1.30
   1   1  -3   25.74    0.83
  -1  -1   3   26.18    1.32
  -1  -1   3   27.29    0.90
  -1  -1   3   27.77    0.84
  -1  -1   3   27.77    1.24
  -1  -1   3   27.25    0.78
   0   1  -3   10.83    0.50
   0   1  -3   11.12    0.45
   0   1  -3   10.49    0.85
   0   1  -3   10.02    0.41
   0  -1   3   10.26    0.50
   0  -1   3   10.70    0.43
   0  -1   3    8.67    0.95
   0  -1   3    9.67    0.40
   0  -1   3   11.16    0.85
  -1   1  -3   13.45    0.46
  -1   1  -3   12.71    0.49
  -1   1  -3   12.88    0.81
  -1   1  -3   12.74    0.58
  -1   1  -3   11.55    0.97
   1  -1   3   11.97    1.10
   1  -1   3   10.58    0.96
   1  -1   3   12.86    0.54
   1  -1   3   12.35    0.45
   1  -1   3   13.25    0.49
  -2   1  -3   10.24    0.77
  -2   1  -3   10.42    1.08
  -2   1  -3    9.39    0.48
  -2   1  -3   10.30    0.44
  -2   1  -3   10.09    0.52
   2  -1   3   10.14    1.03
   2  -1   3   11.10    0.53
   2  -1   3   10.47    0.47
   2  -1   3   10.28    0.86
   2  -1   3    9.49    0.44
  -3   1  -3   81.61    2.31
  -3   1  -3   76.42    2.31
  -3   1  -3   79.63    3.16
  -3   1  -3   82.40    3.04
   3  -1   3   70.88    3.12
   3  -1   3   77.91    2.33
   3  -1   3   78.30    2.04
   3  -1   3   81.14    2.32
  -4   1  -3  122.41    4.77
  -4   1  -3  126.60    3.57
  -4   1  -3  125.24    3.62
  -4   1  -3  129.81    4.66
  -4   1  -3  125.79    3.61
   4  -1   3  122.93    3.18
   4  -1   3  129.41    3.63
   4  -1   3  122.56    3.64
  -5   1  -3    2.64    0.26
  -5   1  -3    1.95    0.28
  -5   1  -3    1.35    0.98
  -5   1  -3    2.91    0.80
   5  -1   3    2.68    0.36
   5  -1   3    1.73    0.34
   5  -1   3    2.51    0.43
  -6   1  -3    1.50    0.86
  -6   1  -3    0.80    1.06
   6  -1   3    1.44    0.39
   6  -1   3    1.57    0.47
  -7   1  -3   22.29    1.70
  -7   1  -3   20.62    1.60
   7  -1   3   21.82    1.05
   7  -1   3   22.95    0.93
  -8   1  -3   10.27    1.24
  -8   1  -3   11.36    1.35
   8  -1   3   12.05    0.91
   8  -1   3   11.11    0.79
  -9   1  -3   -1.09    1.05
  -9   1  -3    1.21    1.11
   9  -1   3    0.25    0.53
   9  -1   3    0.52    0.61
 -10   1  -3    2.21    1.32
  10  -1   3    0.41    0.72
  10  -1   3    1.36    0.59
 -11   0   3    2.72    0.96
 -11   0   3    2.11    2.27
 -11   0   3    5.86    0.78
  10   0  -3   12.04    0.59
  10   0  -3   10.82    0.54
 -10   0   3    6.80    2.22
 -10   0   3   11.87    0.96
 -10   0   3    9.23    0.97
   9   0  -3    2.14    0.25
   9   0  -3    2.95    0.28
  -9   0   3    2.13    0.55
  -9   0   3    1.35    1.82
   8   0  -3    0.54    0.17
   8   0  -3    0.25    0.17
  -8   0   3    0.04    1.60
  -8   0   3    0.22    0.42
  -7   0   3   17.89    2.55
  -6   0   3   32.62    2.74
  -5   0   3    1.21    0.91
  -4   0   3   38.79    2.56
   3   0  -3  159.91    4.43
   3   0  -3  158.33    3.91
   3   0  -3  165.06    4.43
  -3   0   3  154.82    5.56
  -3   0   3  160.32    8.34
  -3   0   3  163.66    5.57
   2   0  -3   31.86    0.96
   2   0  -3   30.42    1.16
   2   0  -3   30.71    0.83
   2   0  -3   27.62    1.19
   2   0  -3   30.38    0.91
   2   0  -3   34.06    2.05
  -2   0   3   30.89    1.26
  -2   0   3   32.02    0.89
  -2   0   3   31.38    1.99
  -2   0   3   30.36    1.25
  -2   0   3   29.66    0.82
   1   0  -3  138.47    3.86
   1   0  -3  134.44    4.89
   1   0  -3  135.07    3.37
   1   0  -3  134.48    4.87
   1   0  -3  133.77    3.83
  -1   0   3  135.31    3.37
  -1   0   3  137.49    4.90
  -1   0   3  142.57    3.84
  -1   0   3  134.53    3.85
  -1   0   3  139.92    7.06
  -1   0   3  137.18    4.87
   0   0  -3   28.05    0.93
   0   0  -3   29.35    1.36
   0   0  -3   27.61    0.80
   0   0   3   27.16    1.40
   0   0   3   28.24    0.94
   0   0   3   28.76    1.33
   0   0   3   27.96    0.81
   0   0   3   29.07    0.89
  -1   0  -3    7.94    0.70
  -1   0  -3    8.44    0.47
  -1   0  -3    8.62    0.36
  -1   0  -3    9.24    0.87
  -1   0  -3    8.37    0.41
   1   0   3    8.55    0.41
   1   0   3    8.84    0.39
   1   0   3    8.30    0.47
   1   0   3    7.98    0.78
   1   0   3    8.25    0.83
  -2   0  -3    5.66    0.40
  -2   0  -3    6.46    0.71
  -2   0  -3    6.16    0.44
  -2   0  -3    5.94    0.65
  -2   0  -3    5.92    0.37
   2   0   3    5.86    0.44
   2   0   3    4.93    0.81
   2   0   3    5.87    0.37
   2   0   3    5.18    0.68
   2   0   3    6.43    0.39
   2   0   3    5.72    0.80
  -3   0  -3   10.80    1.11
  -3   0  -3   11.51    1.03
  -3   0  -3   10.39    0.52
  -3   0  -3   10.85    0.55
   3   0   3    9.80    0.48
   3   0   3   10.19    0.54
   3   0   3   10.83    0.53
  -4   0  -3    7.31    0.94
  -4   0  -3    8.51    0.52
  -4   0  -3    8.82    0.93
   4   0   3    8.89    0.53
   4   0   3    8.77    0.59
   4   0   3    8.26    0.49
  -5   0  -3   11.50    1.12
  -5   0  -3   11.88    0.62
  -5   0  -3   11.57    1.19
   5   0   3   12.90    0.66
   5   0   3   11.90    0.72
   5   0   3   12.96    0.61
  -6   0  -3   -0.36    0.97
  -6   0  -3   -0.63    0.87
  -6   0  -3    0.44    0.17
   6   0   3    0.24    0.38
   6   0   3    0.27    0.43
  -7   0  -3   17.61    1.67
  -7   0  -3   16.93    1.61
   7   0   3   17.80    0.81
   7   0   3   18.43    0.95
  -8   0  -3   22.95    1.85
  -8   0  -3   18.39    1.75
   8   0   3   21.21    1.10
   8   0   3   19.94    0.96
  -9   0  -3   -1.52    1.12
  -9   0  -3    1.31    1.13
   9   0   3    0.90    0.62
   9   0   3    0.78    0.54
 -10   0  -3    4.56    1.31
  10   0   3    2.73    0.66
  10   0   3    2.62    0.80
 -12   1   3    0.87    0.74
 -11   1   3    4.78    0.89
 -11   1   3    7.11    0.77
  10  -1  -3   40.58    1.13
 -10   1   3   41.39    3.81
 -10   1   3   41.20    1.79
 -10   1   3   40.86    1.73
   9  -1  -3   11.26    0.42
  -9   1   3    9.92    1.97
  -8   1   3    3.11    1.56
  -7   1   3   28.85    2.93
  -6   1   3   19.59    2.28
  -5   1   3    4.37    1.05
  -4   1   3   13.56    1.50
   3  -1  -3   41.85    1.20
   3  -1  -3   40.86    1.18
   3  -1  -3   40.83    1.05
  -3   1   3   41.71    1.53
  -3   1   3   41.20    2.54
  -3   1   3   41.70    1.51
   2  -1  -3    0.91    0.33
   2  -1  -3    0.75    0.18
   2  -1  -3    0.87    0.14
   2  -1  -3    0.65    0.46
   2  -1  -3    0.72    0.15
   2  -1  -3    0.75    0.27
  -2   1   3    0.50    0.31
  -2   1   3    0.81    0.13
  -2   1   3    1.30    0.38
  -2   1   3    1.19    0.50
  -2   1   3    0.66    0.13
  -2   1   3    0.98    0.16
   1  -1  -3   13.94    0.87
   1  -1  -3   14.66    1.01
   1  -1  -3   14.52    0.48
   1  -1  -3   15.30    1.11
   1  -1  -3   14.24    0.59
   1  -1  -3   14.19    0.53
  -1   1   3   14.62    0.56
  -1   1   3   16.61    1.00
  -1   1   3   15.68    1.06
  -1   1   3   15.52    0.49
  -1   1   3   15.05    0.52
  -1   1   3   15.14    0.88
   0  -1  -3  248.16    5.84
   0  -1  -3  236.42    8.44
   0  -1  -3  250.38    6.67
   0  -1  -3  236.39    6.74
   0   1   3  233.39    6.76
   0   1   3  237.89    8.43
   0   1   3  239.34    6.67
   0   1   3  235.26    5.95
   0   1   3  232.68    8.43
  -1  -1  -3  288.98    6.82
  -1  -1  -3  290.67    7.79
  -1  -1  -3  279.49    9.84
  -1  -1  -3  284.83    9.88
  -1  -1  -3  274.17    7.96
   1   1   3  272.98    6.82
   1   1   3  290.97   13.98
   1   1   3  272.27    7.88
   1   1   3  265.11    9.86
   1   1   3  262.61    9.86
   1   1   3  291.25    7.81
  -2  -1  -3   20.25    1.29
  -2  -1  -3   20.51    0.77
  -2  -1  -3   20.67    0.76
  -2  -1  -3   21.91    1.30
   2   1   3   21.50    1.42
   2   1   3   17.78    1.46
   2   1   3   21.39    1.37
   2   1   3   20.08    0.79
   2   1   3   20.26    0.66
   2   1   3   21.19    0.77
  -3  -1  -3   15.59    1.23
  -3  -1  -3   16.67    1.23
  -3  -1  -3   15.84    0.66
   3   1   3   15.25    0.70
   3   1   3   14.95    1.42
   3   1   3   15.07    0.60
   3   1   3   15.50    0.65
  -4  -1  -3   18.81    1.48
  -4  -1  -3   19.35    0.79
  -4  -1  -3   19.13    1.45
   4   1   3   17.87    0.83
   4   1   3   18.93    0.72
  -5  -1  -3    0.15    0.94
  -5  -1  -3    0.61    0.93
  -5  -1  -3    0.57    0.33
   5   1   3    0.32    0.40
   5   1   3    0.69    0.34
  -6  -1  -3    1.09    0.94
  -6  -1  -3    1.14    0.92
   6   1   3   -0.32    0.44
   6   1   3    0.54    0.39
  -7  -1  -3    0.42    1.07
  -7  -1  -3    1.41    1.00
   7   1   3    1.22    0.53
   7   1   3    1.06    0.44
  -8  -1  -3    0.72    1.03
  -8  -1  -3   -2.76    1.08
   8   1   3    0.32    0.60
   8   1   3    0.13    0.46
  -9  -1  -3    0.96    1.17
   9   1   3   -0.28    0.63
   9   1   3    0.32    0.52
 -12   2   3    5.37    0.79
 -12   2   3    0.78    0.83
 -11   2   3    0.01    0.69
 -11   2   3    2.43    0.65
  -9   2   3    5.21    1.90
  -8   2   3    4.13    1.75
  -7   2   3  162.13    8.92
  -6   2   3  256.32   13.40
  -5   2   3  141.51    7.62
   4  -2  -3   92.80    2.59
   4  -2  -3   93.03    2.27
   4  -2  -3   92.24    2.59
  -4   2   3   94.17    5.17
  -4   2   3   92.45    3.26
  -4   2   3   90.20    3.27
   3  -2  -3  104.28    5.48
   3  -2  -3  103.76    2.93
   3  -2  -3  104.71    2.56
   3  -2  -3  101.94    2.92
  -3   2   3  102.52    5.50
  -3   2   3  104.82    3.72
  -3   2   3  103.80    3.70
   2  -2  -3    2.65    0.48
   2  -2  -3    3.41    0.38
   2  -2  -3    2.77    0.22
   2  -2  -3    2.86    0.20
   2  -2  -3    3.49    0.25
   2  -2  -3    2.81    0.48
  -2   2   3    2.80    0.20
  -2   2   3    2.63    0.25
  -2   2   3    2.71    0.39
  -2   2   3    3.57    0.61
  -2   2   3    4.02    0.54
  -2   2   3    3.43    0.28
   1  -2  -3   55.08    1.65
   1  -2  -3   56.81    2.89
   1  -2  -3   56.13    1.44
   1  -2  -3   55.09    1.65
   1  -2  -3   54.21    2.16
   1  -2  -3   52.22    2.22
  -1   2   3   56.24    2.23
  -1   2   3   54.86    1.45
  -1   2   3   58.46    1.66
  -1   2   3   54.53    1.67
  -1   2   3   55.31    2.17
   0  -2  -3    8.39    0.47
   0  -2  -3    8.55    0.43
   0  -2  -3    8.34    0.36
   0  -2  -3   10.00    1.00
   0   2   3    8.31    0.42
   0   2   3    7.78    0.82
   0   2   3    9.19    0.50
   0   2   3    8.55    0.77
   0   2   3    8.19    0.38
  -1  -2  -3   67.49    1.99
  -1  -2  -3   69.55    2.69
  -1  -2  -3   67.11    2.02
  -1  -2  -3   68.48    2.70
   1   2   3   65.12    2.81
   1   2   3   65.46    2.65
   1   2   3   64.39    1.75
   1   2   3   70.58    2.03
   1   2   3   67.39    2.03
  -2  -2  -3    3.70    0.34
  -2  -2  -3    2.05    0.74
  -2  -2  -3    2.32    0.67
   2   2   3    2.53    0.27
   2   2   3    2.97    0.55
   2   2   3    3.02    0.36
   2   2   3    2.21    0.92
   2   2   3    2.87    0.31
  -3  -2  -3   17.12    1.34
  -3  -2  -3   16.24    1.40
  -3  -2  -3   15.65    0.74
   3   2   3   15.00    0.64
   3   2   3   15.66    0.76
   3   2   3   17.45    1.48
  -4  -2  -3  184.89    6.57
  -4  -2  -3  176.09    5.04
  -4  -2  -3  176.61    6.51
   4   2   3  172.31    4.43
   4   2   3  170.74    5.07
  -5  -2  -3   77.35    3.33
  -5  -2  -3   78.97    2.39
  -5  -2  -3   81.73    3.39
   5   2   3   77.36    2.45
   5   2   3   74.66    2.13
  -6  -2  -3   26.54    1.86
  -6  -2  -3   21.35    1.85
   6   2   3   22.08    0.92
   6   2   3   23.71    1.08
  -7  -2  -3    9.23    1.35
  -7  -2  -3   11.21    1.36
   7   2   3   11.40    0.88
   7   2   3   11.15    0.75
  -8  -2  -3    8.35    1.32
   8   2   3    7.49    0.79
   8   2   3    7.29    0.65
  -9  -2  -3    1.78    1.16
   9   2   3   -0.59    0.57
   9   2   3    0.76    0.70
 -12   3   3    3.83    0.77
 -12   3   3    6.34    0.84
 -11   3   3    6.33    0.69
 -11   3   3    8.98    0.89
  10  -3  -3    3.09    0.31
 -10   3   3    1.77    0.49
   9  -3  -3    1.53    0.25
   8  -3  -3   20.73    0.64
   7  -3  -3    5.51    0.34
   6  -3  -3   93.80    2.26
   6  -3  -3   91.94    2.60
   6  -3  -3   91.23    2.57
  -6   3   3   90.41    5.42
   5  -3  -3   17.66    0.60
   5  -3  -3   18.01    0.62
   5  -3  -3   17.57    0.53
  -5   3   3   19.62    1.99
  -5   3   3   19.94    0.95
  -5   3   3   16.92    0.87
   4  -3  -3   37.57    1.12
   4  -3  -3   35.41    1.12
   4  -3  -3   36.64    0.97
  -4   3   3   38.84    1.58
  -4   3   3   35.18    1.48
   3  -3  -3  500.55   13.96
   3  -3  -3  492.26   12.19
   3  -3  -3  485.80   14.03
  -3   3   3  497.47   13.91
  -3   3   3  514.18   17.68
  -3   3   3  506.45   12.25
  -3   3   3  497.17   13.84
  -3   3   3  495.25   17.59
   2  -3  -3  454.58   10.94
   2  -3  -3  439.36   12.31
   2  -3  -3  458.84   22.25
   2  -3  -3  428.78   15.53
   2  -3  -3  405.58   12.38
  -2   3   3  447.56   12.54
  -2   3   3  456.86   15.44
  -2   3   3  447.94   10.89
  -2   3   3  436.82   15.51
  -2   3   3  445.36   12.31
   1  -3  -3  202.81   10.04
   1  -3  -3  206.59    5.63
   1  -3  -3  198.35    7.13
   1  -3  -3  194.62    7.16
   1  -3  -3  195.44    5.64
   1  -3  -3  203.09    4.92
  -1   3   3  198.85    5.63
  -1   3   3  209.55    5.65
  -1   3   3  200.24    7.18
  -1   3   3  199.48    4.93
  -1   3   3  193.15    7.14
   0  -3  -3  144.64    5.28
   0  -3  -3  145.03    4.13
   0  -3  -3  147.99    4.11
   0   3   3  142.12    5.26
   0   3   3  150.47    4.14
   0   3   3  140.45    5.27
   0   3   3  141.72    4.12
   0   3   3  142.35    3.60
  -1  -3  -3   50.76    2.18
  -1  -3  -3   47.09    2.43
  -1  -3  -3   47.05    1.50
  -1  -3  -3   46.84    2.03
   1   3   3   44.67    1.49
   1   3   3   45.99    1.29
   1   3   3   45.02    2.29
   1   3   3   47.29    2.11
  -2  -3  -3    2.59    0.36
  -2  -3  -3    1.62    0.71
  -2  -3  -3    2.16    0.85
  -2  -3  -3    2.86    0.60
   2   3   3    1.98    1.04
   2   3   3    2.94    0.30
   2   3   3    2.87    0.37
  -3  -3  -3   15.47    0.76
  -3  -3  -3   14.23    1.28
  -3  -3  -3   19.79    1.44
  -3  -3  -3   16.64    1.69
   3   3   3   15.69    0.81
   3   3   3   16.13    0.69
  -4  -3  -3   96.20    3.89
  -4  -3  -3   95.97    3.94
  -4  -3  -3   96.95    2.88
   4   3   3   91.47    2.90
   4   3   3   94.12    2.53
  -5  -3  -3   34.74    2.05
  -5  -3  -3   38.62    1.34
  -5  -3  -3   34.48    2.15
   5   3   3   36.52    1.21
   5   3   3   34.96    1.38
  -6  -3  -3    9.08    1.18
  -6  -3  -3    5.68    1.23
   6   3   3    6.10    0.68
   6   3   3    7.72    0.60
  -7  -3  -3   10.48    1.32
   7   3   3   11.49    0.92
   7   3   3    9.44    0.69
  -8  -3  -3   15.88    1.58
   8   3   3   14.16    0.97
   8   3   3   14.96    1.15
  -9  -3  -3    4.90    1.38
   9   3   3    3.99    0.83
   9   3   3    3.99    0.68
 -12   4   3    1.72    0.75
 -12   4   3    4.92    0.98
 -11   4   3    4.53    1.03
 -11   4   3    3.62    0.69
  10  -4  -3   31.96    1.13
  10  -4  -3   34.50    1.02
 -10   4   3   31.08    1.48
   9  -4  -3   34.21    1.14
  -9   4   3   34.41    1.50
   8  -4  -3   42.73    1.21
   8  -4  -3   39.18    1.30
  -8   4   3   38.74    1.69
   7  -4  -3   23.61    0.87
   7  -4  -3   25.64    0.78
  -7   4   3   22.99    1.30
  -7   4   3   21.87    1.23
   6  -4  -3    1.84    0.29
   6  -4  -3    2.25    0.23
  -6   4   3    1.68    0.53
  -6   4   3    2.13    0.69
   5  -4  -3    0.57    0.23
   5  -4  -3    0.61    0.16
   5  -4  -3    1.09    0.21
  -5   4   3    0.42    0.44
  -5   4   3    0.70    0.65
   4  -4  -3    3.65    0.31
   4  -4  -3    4.09    0.30
   4  -4  -3    3.44    0.28
  -4   4   3    3.63    0.27
  -4   4   3    3.69    0.27
  -4   4   3    3.74    0.70
  -4   4   3    3.36    0.51
  -4   4   3    5.27    0.36
   3  -4  -3  187.91    5.37
   3  -4  -3  190.74    4.70
   3  -4  -3  183.61    5.40
  -3   4   3  191.81    4.70
  -3   4   3  197.66    6.87
  -3   4   3  200.78    5.42
  -3   4   3  187.55    5.37
  -3   4   3  191.27    6.83
   2  -4  -3  116.19    2.92
   2  -4  -3  112.86    6.11
   2  -4  -3  115.24    4.29
   2  -4  -3  111.74    3.38
   2  -4  -3  119.03    3.36
  -2   4   3  119.54    4.39
  -2   4   3  119.17    2.94
  -2   4   3  116.18    4.31
  -2   4   3  121.50    3.40
  -2   4   3  118.94    3.37
   1  -4  -3   10.75    0.52
   1  -4  -3    9.66    0.92
   1  -4  -3   10.00    0.94
   1  -4  -3    9.61    1.10
   1  -4  -3   10.85    0.55
  -1   4   3   10.18    0.88
  -1   4   3   11.14    0.49
  -1   4   3    9.70    0.98
  -1   4   3   10.68    0.55
   0  -4  -3   45.11    2.15
   0  -4  -3   49.60    1.53
   0   4   3   53.87    2.10
   0   4   3   45.24    1.31
   0   4   3   44.69    1.51
  -1  -4  -3  120.91    3.66
  -1  -4  -3  128.69    4.75
  -1  -4  -3  125.39    6.34
  -1  -4  -3  133.79    4.76
   1   4   3  125.08    3.19
   1   4   3  124.07    4.72
   1   4   3  123.55    4.84
   1   4   3  121.41    3.65
  -2  -4  -3   64.41    2.02
  -2  -4  -3   66.60    2.81
  -2  -4  -3   64.71    2.81
  -2  -4  -3   64.45    3.47
   2   4   3   63.92    1.77
   2   4   3   60.87    2.03
  -3  -4  -3   40.45    2.16
  -3  -4  -3   39.30    2.32
  -3  -4  -3   41.86    2.65
  -3  -4  -3   42.10    1.46
   3   4   3   39.31    1.46
   3   4   3   40.64    1.27
  -4  -4  -3   19.60    1.65
  -4  -4  -3   17.95    0.94
  -4  -4  -3   18.72    1.81
  -4  -4  -3   16.10    2.07
   4   4   3   18.48    0.97
   4   4   3   16.41    0.81
  -5  -4  -3    1.58    1.17
  -5  -4  -3    2.95    1.01
  -5  -4  -3    2.66    0.49
   5   4   3    2.57    0.57
   5   4   3    2.43    0.48
  -6  -4  -3    0.73    1.01
   6   4   3    1.05    0.59
   6   4   3    0.84    0.48
  -7  -4  -3    7.24    1.32
   7   4   3    5.78    0.77
   7   4   3    5.58    0.63
  -8  -4  -3   13.70    1.62
   8   4   3   12.35    0.89
   8   4   3   14.77    1.21
 -12   5   3    2.60    1.22
 -12   5   3    1.99    0.86
 -11   5   3    0.95    1.07
 -11   5   3   -0.01    0.77
  10  -5  -3   32.51    1.23
 -10   5   3   31.89    1.66
   9  -5  -3   34.22    1.21
  -9   5   3   31.24    1.63
   8  -5  -3    0.63    0.36
   7  -5  -3    9.50    0.59
   7  -5  -3    9.74    0.50
  -7   5   3    8.87    0.83
   6  -5  -3   11.73    0.55
   6  -5  -3   11.96    0.62
  -6   5   3   12.52    1.31
  -6   5   3   11.51    0.99
   5  -5  -3    6.26    0.48
   5  -5  -3    8.18    0.46
  -5   5   3    5.59    0.29
  -5   5   3    6.99    0.71
  -5   5   3    7.36    0.93
  -5   5   3    6.65    0.38
   4  -5  -3   29.58    0.97
   4  -5  -3   27.56    0.99
  -4   5   3   27.47    1.67
  -4   5   3   26.56    1.04
  -4   5   3   27.48    1.43
  -4   5   3   27.64    0.94
  -4   5   3   29.02    0.83
   3  -5  -3    0.42    0.27
   3  -5  -3    0.46    0.24
  -3   5   3    0.89    0.83
  -3   5   3   -0.12    0.52
  -3   5   3    0.39    0.23
  -3   5   3    0.25    0.28
   2  -5  -3    7.53    0.52
   2  -5  -3    5.28    0.90
   2  -5  -3    8.21    0.74
  -2   5   3    7.73    1.02
  -2   5   3    6.73    0.45
  -2   5   3    7.62    0.53
  -2   5   3    6.95    0.72
   1  -5  -3    0.66    0.29
   1  -5  -3    1.31    0.88
   1  -5  -3    1.39    0.61
  -1   5   3    1.22    0.90
  -1   5   3    1.23    0.62
  -1   5   3    1.10    0.29
  -1   5   3    1.08    0.35
   0  -5  -3    1.09    0.33
   0  -5  -3    0.99    0.94
   0   5   3    1.18    0.65
   0   5   3    1.13    0.35
   0   5   3    2.15    0.34
  -1  -5  -3  145.01    5.53
  -1  -5  -3  143.67    4.27
  -1  -5  -3  149.50    7.45
  -1  -5  -3  156.96    5.54
   1   5   3  139.93    5.52
   1   5   3  146.38    3.73
   1   5   3  141.77    4.26
  -2  -5  -3   32.98    1.28
  -2  -5  -3   35.85    2.07
  -2  -5  -3   35.35    2.15
  -2  -5  -3   35.95    1.98
   2   5   3   33.20    1.10
   2   5   3   32.24    1.27
  -3  -5  -3    4.58    0.57
  -3  -5  -3    5.29    1.11
  -3  -5  -3    4.81    1.26
  -3  -5  -3    4.70    0.93
   3   5   3    4.69    0.56
   3   5   3    3.92    0.45
  -4  -5  -3    7.21    0.65
  -4  -5  -3    8.54    1.17
  -4  -5  -3    6.97    1.28
  -4  -5  -3    5.31    1.14
   4   5   3    8.19    0.60
   4   5   3    7.58    0.67
  -5  -5  -3    3.91    1.29
  -5  -5  -3    8.08    1.23
   5   5   3    6.10    0.71
   5   5   3    6.99    0.62
  -6  -5  -3    3.84    1.21
   6   5   3    3.04    0.69
   6   5   3    2.18    0.56
   7   5   3   -0.83    0.66
   7   5   3    0.53    0.56
   8   5   3    0.07    0.62
 -12   6   3    1.27    1.37
 -12   6   3    0.77    0.89
 -11   6   3    4.95    0.94
  10  -6  -3    3.61    0.54
 -10   6   3    2.77    0.84
   9  -6  -3   21.36    0.99
  -9   6   3   22.18    1.42
   8  -6  -3    1.36    0.40
  -8   6   3    1.25    0.69
   7  -6  -3   15.85    0.66
   7  -6  -3   13.85    0.72
  -7   6   3   13.55    1.16
   6  -6  -3  129.94    3.86
   6  -6  -3  137.15    3.80
  -6   6   3  129.18    4.92
   5  -6  -3   51.83    1.56
   5  -6  -3   48.76    1.62
  -5   6   3   46.75    1.50
  -5   6   3   50.81    1.33
  -5   6   3   50.43    2.18
   4  -6  -3    2.19    0.36
   4  -6  -3    2.10    0.31
  -4   6   3    1.78    0.67
  -4   6   3    2.23    0.36
  -4   6   3    1.99    0.30
   3  -6  -3    1.23    0.32
  -3   6   3    1.26    0.38
  -3   6   3    0.68    0.67
  -3   6   3    1.40    0.29
   2  -6  -3    2.17    0.66
   2  -6  -3    1.41    0.34
  -2   6   3    1.77    0.33
  -2   6   3    1.21    0.39
  -2   6   3    1.32    0.72
   1  -6  -3    0.39    0.64
   1  -6  -3   -0.03    0.35
  -1   6   3    0.53    0.40
  -1   6   3    0.22    0.32
  -1   6   3   -1.15    0.69
   0  -6  -3    0.20    0.35
   0  -6  -3    0.87    1.02
   0   6   3    0.82    0.41
   0   6   3    0.31    0.74
   0   6   3    0.28    0.35
  -1  -6  -3    6.07    0.56
  -1  -6  -3    6.63    0.94
  -1  -6  -3    4.85    1.27
  -1  -6  -3    5.99    0.81
   1   6   3    6.70    0.49
   1   6   3    6.05    0.58
  -2  -6  -3    0.63    0.86
  -2  -6  -3   -0.66    1.20
  -2  -6  -3   -0.46    0.69
  -2  -6  -3    0.18    0.44
   2   6   3    0.13    0.37
   2   6   3    0.61    0.50
  -3  -6  -3    3.13    0.94
  -3  -6  -3    5.47    1.09
  -3  -6  -3    5.38    0.61
   3   6   3    5.11    0.63
   3   6   3    5.42    0.54
  -4  -6  -3    3.84    1.09
  -4  -6  -3    2.21    1.09
  -4  -6  -3    4.83    0.64
   4   6   3    4.12    0.62
   4   6   3    4.33    0.55
  -5  -6  -3   18.61    1.78
   5   6   3   15.22    0.90
   5   6   3   15.48    1.07
   6   6   3    5.10    0.80
   6   6   3    5.92    0.69
   7   6   3    2.11    0.82
   7   6   3    1.96    0.66
 -11   7   3    6.98    1.04
  10  -7  -3    6.96    0.66
 -10   7   3    5.83    0.95
   9  -7  -3    0.25    0.46
  -9   7   3    0.10    0.75
   8  -7  -3    4.46    0.54
  -8   7   3    4.11    0.83
   7  -7  -3   12.84    0.77
  -7   7   3   14.09    1.21
   6  -7  -3   17.29    0.76
   6  -7  -3   14.13    0.76
  -6   7   3   12.56    1.29
   5  -7  -3    6.28    0.53
  -5   7   3    6.31    0.94
  -5   7   3    7.21    0.43
  -5   7   3    7.03    0.47
   4  -7  -3    1.69    0.40
  -4   7   3    1.08    0.76
  -4   7   3    2.05    0.41
  -4   7   3    1.96    0.34
   3  -7  -3   35.56    1.31
  -3   7   3   36.63    1.94
  -3   7   3   36.44    1.33
  -3   7   3   36.94    1.13
   2  -7  -3   82.21    2.62
   2  -7  -3   86.22    3.45
  -2   7   3   84.26    3.51
  -2   7   3   83.69    2.59
  -2   7   3   85.93    2.26
   1  -7  -3   63.19    2.74
   1  -7  -3   58.34    1.97
  -1   7   3   56.68    1.94
  -1   7   3   60.13    2.70
  -1   7   3   61.79    1.72
   0  -7  -3   17.02    1.64
   0  -7  -3   17.02    0.91
   0   7   3   15.82    1.68
   0   7   3   16.97    0.95
   0   7   3   16.47    0.76
  -1  -7  -3   14.80    1.52
  -1  -7  -3   15.14    1.43
  -1  -7  -3   14.35    0.89
   1   7   3   14.61    0.74
   1   7   3   14.65    0.86
  -2  -7  -3   -0.01    0.74
  -2  -7  -3    2.22    0.98
  -2  -7  -3    2.13    0.53
   2   7   3    1.26    0.54
   2   7   3    1.44    0.47
  -3  -7  -3   -1.95    0.84
  -3  -7  -3    1.03    0.54
   3   7   3    0.78    0.58
   3   7   3    0.93    0.45
  -4  -7  -3    2.47    0.64
   4   7   3    2.31    0.52
   4   7   3    1.79    0.62
   5   7   3    3.00    0.61
   5   7   3    3.91    0.76
   6   7   3   -0.13    0.61
   6   7   3   -0.16    0.73
  11  -8  -3    0.50    0.56
 -11   8   3   -0.19    0.93
  10  -8  -3   15.52    0.97
 -10   8   3   14.78    1.44
   9  -8  -3   36.15    1.45
  -9   8   3   35.95    1.99
   8  -8  -3   42.17    1.59
  -8   8   3   44.31    2.22
   7  -8  -3   57.63    1.96
  -7   8   3   60.26    2.67
   6  -8  -3   19.65    0.96
  -6   8   3   21.30    1.53
   5  -8  -3    2.60    0.49
  -5   8   3    3.49    0.46
  -5   8   3    2.94    0.38
  -5   8   3    2.55    0.83
   4  -8  -3   18.05    0.93
  -4   8   3   18.67    1.53
  -4   8   3   19.58    0.95
  -4   8   3   18.44    0.78
   3  -8  -3    1.63    0.43
  -3   8   3    2.43    0.91
  -3   8   3    1.99    0.51
  -3   8   3    1.88    0.42
   2  -8  -3   33.88    1.33
  -2   8   3   37.76    2.09
  -2   8   3   33.59    1.16
  -2   8   3   34.06    1.35
   1  -8  -3   12.70    0.81
  -1   8   3   13.21    0.89
  -1   8   3   13.54    0.70
   0  -8  -3    1.00    0.50
   0   8   3    0.70    0.54
   0   8   3    0.73    0.41
  -1  -8  -3   22.06    1.15
  -1  -8  -3   25.51    1.96
   1   8   3   23.19    0.96
   1   8   3   23.93    1.17
  -2  -8  -3   22.20    1.17
   2   8   3   21.80    1.01
   2   8   3   20.74    1.10
  -3  -8  -3   20.01    1.15
   3   8   3   18.14    1.13
   3   8   3   17.41    0.91
   4   8   3    7.71    0.73
   4   8   3    7.89    0.87
   5   8   3    2.86    0.66
   5   8   3    2.13    0.78
  11  -9  -3    4.06    0.70
 -11   9   3    3.37    1.07
  10  -9  -3   -0.36    0.57
 -10   9   3   -0.53    0.97
   9  -9  -3   17.20    1.02
  -9   9   3   15.82    1.53
   8  -9  -3    3.59    0.59
  -8   9   3    4.59    1.01
   7  -9  -3    3.68    0.58
  -7   9   3    2.89    0.98
   6  -9  -3   38.75    1.50
  -6   9   3   38.45    2.16
   5  -9  -3   49.23    1.75
  -5   9   3   47.14    1.42
  -5   9   3   45.87    1.62
  -5   9   3   48.61    2.46
   4  -9  -3   68.13    2.36
  -4   9   3   73.14    2.32
  -4   9   3   73.40    2.03
  -4   9   3   74.26    3.22
   3  -9  -3   66.22    2.28
  -3   9   3   68.35    2.22
  -3   9   3   68.61    1.94
   2  -9  -3   17.79    0.96
  -2   9   3   17.08    0.98
  -2   9   3   17.78    0.85
   1  -9  -3    5.86    0.66
  -1   9   3    7.09    0.59
  -1   9   3    7.36    0.68
   0  -9  -3    3.66    1.17
   0  -9  -3    2.49    0.62
   0   9   3    2.99    0.64
   0   9   3    2.64    0.53
  -1  -9  -3   11.19    0.90
   1   9   3   10.89    0.89
   1   9   3   11.09    0.75
  -2  -9  -3   25.90    1.31
   2   9   3   23.63    1.29
   2   9   3   23.00    1.11
  -3  -9  -3    9.33    0.91
   3   9   3    8.07    0.76
   3   9   3   10.73    0.94
   4   9   3    3.56    0.71
   4   9   3    3.89    0.83
  10 -10  -3   11.35    0.92
 -10  10   3   11.35    1.43
   9 -10  -3   -0.26    0.57
  -9  10   3   -0.30    1.00
   8 -10  -3    1.16    0.58
  -8  10   3    1.60    0.97
   7 -10  -3    0.33    0.55
  -7  10   3    1.17    1.01
   6 -10  -3   18.80    1.08
   5 -10  -3   34.88    1.51
  -5  10   3   38.38    1.22
   4 -10  -3   17.23    1.05
  -4  10   3   18.89    0.88
  -4  10   3   19.86    1.02
   3 -10  -3   13.82    0.98
  -3  10   3   14.70    0.96
  -3  10   3   14.33    0.83
   2 -10  -3   10.25    0.86
  -2  10   3    8.20    0.79
  -2  10   3    9.61    0.68
   1 -10  -3   10.88    0.90
  -1  10   3    9.82    0.72
  -1  10   3   10.76    0.86
   0 -10  -3    8.78    0.84
   0  10   3    9.27    0.70
   0  10   3    8.48    0.85
  -1 -10  -3    1.30    0.70
   1  10   3    1.68    0.59
   1  10   3    2.09    0.72
  -2 -10  -3    0.31    0.69
   2  10   3   -0.05    0.69
   2  10   3    0.37    0.61
   3  10   3    0.62    0.77
   3  10   3    0.58    0.63
  10 -11  -3    9.88    0.94
   9 -11  -3    2.95    0.74
   8 -11  -3    0.10    0.61
   7 -11  -3    9.19    0.86
   6 -11  -3    0.46    0.60
   5 -11  -3    3.64    0.70
   4 -11  -3    0.23    0.59
  -4  11   3    0.79    0.59
  -4  11   3    0.09    0.48
   3 -11  -3   -0.18    0.60
  -3  11   3    0.02    0.50
  -3  11   3   -0.34    0.59
   2 -11  -3   15.85    1.14
  -2  11   3   16.80    1.11
  -2  11   3   14.90    0.87
   1 -11  -3   19.31    1.15
  -1  11   3   16.35    1.00
  -1  11   3   16.77    1.08
   0 -11  -3    9.16    0.96
   0  11   3   10.51    0.95
   0  11   3    8.71    0.75
  -1 -11  -3    6.39    0.92
   1  11   3    6.16    0.85
   1  11   3    7.16    0.76
  -2 -11  -3    1.92    0.81
   2  11   3    3.02    0.72
   2  11   3    0.55    0.80
   9 -12  -3   11.18    1.01
   8 -12  -3   13.33    1.07
   7 -12  -3    6.95    0.87
   6 -12  -3    8.69    0.93
   5 -12  -3   -0.05    0.64
   4 -12  -3   -0.33    0.65
  -4  12   3    0.00    0.56
   3 -12  -3   -0.21    0.68
  -3  12   3   -0.76    0.55
  -3  12   3    0.12    0.69
   2 -12  -3    2.06    0.77
  -2  12   3    2.84    0.64
  -2  12   3    2.36    0.77
   1 -12  -3    2.94    0.80
  -1  12   3    3.42    0.69
  -1  12   3    3.40    0.83
   0 -12  -3   -1.03    0.75
   0  12   3    0.18    0.65
   0  12   3    0.64    0.80
  -1 -12  -3    1.32    0.86
   1  12   3   -0.30    0.76
   1  12   3    0.10    0.69
   7 -13  -3    1.45    0.79
   6 -13  -3    2.40    0.79
   5 -13  -3    4.63    0.83
   4 -13  -3    6.75    0.91
   3 -13  -3   11.18    1.10
  -3  13   3   11.29    0.88
   2 -13  -3    5.54    0.95
  -2  13   3    5.25    0.94
  -2  13   3    5.68    0.78
   1 -13  -3    2.16    0.89
  -1  13   3    0.20    0.85
  -1  13   3    1.26    0.71
   1  14  -4    8.87    1.07
  -1 -14   4   10.93    1.22
   0  14  -4   11.93    1.12
   0 -14   4   13.26    1.27
  -1  14  -4   15.99    1.20
   1 -14   4   15.88    1.34
  -2  14  -4   15.71    1.27
   2 -14   4   17.84    1.45
  -3  14  -4    9.85    1.00
   3 -14   4    9.37    1.08
   4 -14   4   -0.21    0.76
   5 -14   4   -0.65    0.77
   6 -14   4    0.13    0.87
   3  13  -4    0.16    0.79
  -3 -13   4    2.09    2.36
   2  13  -4   -0.58    0.74
   1  13  -4    0.42    0.69
  -1 -13   4    0.58    0.83
   0  13  -4    7.22    0.90
   0 -13   4    6.28    0.94
  -1  13  -4    8.74    0.94
   1 -13   4    8.97    1.06
  -2  13  -4    3.38    0.73
   2 -13   4    2.35    0.85
  -3  13  -4   13.66    1.11
   3 -13   4   13.65    1.19
  -4  13  -4    7.86    0.87
   4 -13   4    5.96    0.99
   5 -13   4   10.41    1.08
   6 -13   4   15.09    1.27
   7 -13   4    1.80    0.90
   4  12  -4    4.81    0.86
  -4 -12   4    3.23    2.32
   3  12  -4    1.40    0.73
  -3 -12   4    0.49    2.06
   2  12  -4    6.76    0.85
  -2 -12   4    4.52    0.88
   1  12  -4   14.58    1.12
  -1 -12   4   11.93    1.11
   0  12  -4    4.75    0.78
   0 -12   4    5.13    0.89
  -1  12  -4    1.18    0.66
   1 -12   4   -0.28    0.70
  -2  12  -4    1.88    0.68
   2 -12   4    1.86    0.71
  -3  12  -4    1.98    0.67
   3 -12   4    1.08    0.71
  -4  12  -4    5.71    0.74
   4 -12   4    5.40    0.84
   5 -12   4    3.48    0.84
   6 -12   4    7.45    0.97
   7 -12   4    4.67    0.94
   8 -12   4    1.24    0.84
   5  11  -4    0.08    0.69
  -5 -11   4   -0.85    2.07
   4  11  -4    1.04    0.69
  -4 -11   4    1.41    2.03
   3  11  -4    2.15    0.71
  -3 -11   4    1.59    2.03
   2  11  -4    1.97    0.66
  -2 -11   4    2.24    0.77
   1  11  -4    8.62    0.81
  -1 -11   4    9.42    0.95
   0  11  -4    1.11    0.58
   0 -11   4   -0.62    0.66
  -1  11  -4    0.80    0.59
   1 -11   4    0.08    0.65
  -2  11  -4   12.01    0.88
   2 -11   4   10.51    0.98
  -3  11  -4   22.72    1.19
   3 -11   4   25.37    1.38
  -4  11  -4    1.13    0.56
   4 -11   4    0.33    0.62
  -5  11  -4   10.10    0.77
   5 -11   4    6.07    0.84
  -6  11  -4    7.24    1.82
   6 -11   4    7.13    0.88
  -7  11  -4    2.75    1.70
   7 -11   4    1.18    0.77
  -8  11  -4    6.31    1.95
   8 -11   4    2.84    0.87
   9 -11   4    6.64    1.04
   6  10  -4    0.07    0.65
  -6 -10   4   -0.65    2.05
   5  10  -4    5.53    0.78
  -5 -10   4    5.05    2.14
   4  10  -4    5.14    0.73
  -4 -10   4    4.85    1.99
   3  10  -4    0.40    0.53
  -3 -10   4    0.02    0.62
  -3 -10   4   -1.10    1.91
   2  10  -4    0.42    0.57
  -2 -10   4   -0.09    0.59
   1  10  -4    0.57    0.50
  -1 -10   4    0.36    0.58
   0  10  -4   15.88    0.92
   0 -10   4   14.96    1.11
  -1  10  -4   26.17    1.21
   1 -10   4   25.33    1.35
  -2  10  -4   35.39    1.43
   2 -10   4   35.95    1.55
  -3  10  -4   67.15    3.57
  -3  10  -4   58.97    2.08
   3 -10   4   61.64    2.28
  -4  10  -4    5.56    0.64
  -4  10  -4    7.92    1.64
   4 -10   4    5.99    0.76
  -5  10  -4    5.66    1.62
  -5  10  -4    4.38    0.57
   5 -10   4    4.31    0.77
  -6  10  -4   18.32    2.05
   6 -10   4   17.65    1.23
  -7  10  -4    2.93    1.67
   7 -10   4    0.75    0.75
  -8  10  -4    3.69    1.82
   8 -10   4    0.32    0.75
  -9  10  -4    0.30    1.81
   9 -10   4    0.51    0.81
   7   9  -4    8.71    0.86
  -7  -9   4    3.85    2.29
  -7  -9   4    8.75    1.43
   6   9  -4   11.88    0.96
  -6  -9   4    7.92    2.31
  -6  -9   4   10.79    1.39
   5   9  -4   23.86    1.23
  -5  -9   4   24.56    3.47
  -5  -9   4   29.10    2.05
   4   9  -4   57.34    2.03
  -4  -9   4   49.13    4.75
  -4  -9   4   62.16    2.87
   3   9  -4   10.32    0.76
  -3  -9   4    9.71    1.23
  -3  -9   4    5.40    2.24
  -3  -9   4   10.18    0.80
   2   9  -4    1.89    0.49
  -2  -9   4    3.08    0.62
  -2  -9   4    3.46    1.06
   1   9  -4    9.32    0.75
  -1  -9   4    9.82    1.27
  -1  -9   4    9.74    0.81
   0   9  -4    3.07    1.50
   0   9  -4    2.62    0.55
   0  -9   4    2.25    0.62
   0  -9   4    2.70    1.08
  -1   9  -4    7.05    0.62
   1  -9   4    2.74    0.93
  -2   9  -4   13.69    1.32
  -2   9  -4   15.38    1.84
  -2   9  -4   14.26    0.90
   2  -9   4   15.20    1.53
   2  -9   4   14.32    0.97
  -3   9  -4   33.49    2.90
  -3   9  -4   33.11    1.34
  -3   9  -4   36.38    2.14
   3  -9   4   33.50    1.51
  -4   9  -4   35.12    2.14
  -4   9  -4   35.41    2.85
  -4   9  -4   35.83    1.34
   4  -9   4   33.82    1.48
  -5   9  -4   26.46    1.11
  -5   9  -4   28.28    1.92
  -5   9  -4   26.40    2.59
   5  -9   4   26.20    1.37
  -6   9  -4   75.57    4.00
  -6   9  -4   80.73    3.49
   6  -9   4   73.93    2.69
  -7   9  -4   48.17    3.43
   7  -9   4   40.33    1.59
   7  -9   4   42.24    1.84
  -8   9  -4    3.92    1.76
   8  -9   4    2.58    0.79
   8  -9   4    1.82    0.66
  -9   9  -4    9.30    2.03
   9  -9   4    7.03    0.85
   9  -9   4    5.82    0.97
 -10   9  -4    5.67    2.06
  10  -9   4    0.36    0.71
  10  -9   4    2.00    0.92
   8   8  -4    0.71    0.62
   8   8  -4    1.42    0.54
  -8  -8   4    0.48    1.14
  -8  -8   4   -2.46    2.03
   7   8  -4    0.45    0.57
  -7  -8   4    0.12    1.06
  -7  -8   4    0.37    1.93
   6   8  -4    3.51    0.62
  -6  -8   4    2.28    1.89
  -6  -8   4    3.56    1.04
   5   8  -4    6.02    0.67
  -5  -8   4    6.06    1.11
  -5  -8   4    6.31    2.01
   4   8  -4   52.21    1.84
  -4  -8   4   57.73    2.61
  -4  -8   4   46.76    4.27
  -4  -8   4   53.32    1.84
   3   8  -4   40.12    1.51
  -3  -8   4   44.25    1.59
  -3  -8   4   46.32    2.17
  -3  -8   4   30.62    4.10
   2   8  -4   61.29    2.09
  -2  -8   4   65.50    2.94
  -2  -8   4   62.55    2.14
   1   8  -4  202.66    7.75
   1   8  -4  193.97    5.80
  -1  -8   4  209.20    7.52
  -1  -8   4  197.49    5.90
   0   8  -4  177.45    6.83
   0   8  -4  172.25    5.06
   0  -8   4  176.66    6.57
   0  -8   4  166.27    5.14
  -1   8  -4    6.03    0.55
  -1   8  -4    6.38    0.98
  -1   8  -4    4.59    0.70
   1  -8   4    5.25    0.63
  -2   8  -4    5.70    1.36
  -2   8  -4    6.58    1.02
  -2   8  -4    4.99    0.53
   2  -8   4    6.90    1.17
   2  -8   4    6.33    0.66
  -3   8  -4    0.49    0.43
  -3   8  -4    0.83    1.41
  -3   8  -4    1.07    0.90
   3  -8   4    1.06    0.54
   3  -8   4    0.86    1.06
  -4   8  -4   55.88    2.69
  -4   8  -4   55.08    3.33
  -4   8  -4   53.57    1.82
   4  -8   4   53.97    1.99
  -5   8  -4   66.21    2.14
  -5   8  -4   70.04    3.10
  -5   8  -4   69.01    3.62
   5  -8   4   68.95    2.40
   5  -8   4   65.85    2.08
  -6   8  -4   52.90    3.20
  -6   8  -4   49.45    1.66
  -6   8  -4   53.15    2.62
   6  -8   4   53.34    2.00
   6  -8   4   51.44    1.76
  -7   8  -4   48.64    2.60
  -7   8  -4   50.62    3.35
   7  -8   4   47.00    1.91
   7  -8   4   45.73    1.68
  -8   8  -4    7.65    1.25
  -8   8  -4    9.19    1.75
   8  -8   4    9.55    0.95
   8  -8   4    8.60    0.83
  -9   8  -4   11.77    2.05
   9  -8   4    8.07    0.96
   9  -8   4    9.26    0.88
 -10   8  -4   20.40    2.40
  10  -8   4   16.14    1.30
  10  -8   4   19.69    1.20
   9   7  -4    2.39    0.56
   9   7  -4    2.21    0.66
  -9  -7   4   -0.72    2.24
  -9  -7   4    2.45    1.10
   8   7  -4   13.25    0.96
  -8  -7   4   11.65    1.32
  -8  -7   4    9.16    2.40
   7   7  -4   16.10    0.94
  -7  -7   4   13.42    2.47
  -7  -7   4   17.57    1.56
   6   7  -4    0.41    0.48
  -6  -7   4   -0.06    1.56
  -6  -7   4    0.23    0.89
   5   7  -4    0.88    0.45
  -5  -7   4    1.20    0.84
  -5  -7   4    1.72    1.68
   4   7  -4    0.20    0.43
  -4  -7   4    0.37    0.41
  -4  -7   4    0.73    0.82
  -4  -7   4    1.38    1.77
   3   7  -4   13.17    0.80
  -3  -7   4   16.10    1.40
  -3  -7   4   15.07    0.80
  -3  -7   4    8.44    2.26
   2   7  -4   24.91    1.03
  -2  -7   4   27.13    1.60
  -2  -7   4   24.95    1.11
   1   7  -4   45.90    1.60
   1   7  -4   46.48    2.55
  -1  -7   4   43.89    1.63
  -1  -7   4   49.13    2.33
   0   7  -4  100.15    3.01
   0   7  -4   97.87    4.00
   0   7  -4  100.23    4.30
   0  -7   4   97.86    3.12
   0  -7   4  101.28    3.98
  -1   7  -4    7.84    0.99
  -1   7  -4    6.06    0.55
  -1   7  -4    7.66    0.94
   1  -7   4    6.37    0.64
  -2   7  -4   38.91    2.00
  -2   7  -4   41.42    2.68
  -2   7  -4   39.05    1.39
   2  -7   4   36.94    1.48
   2  -7   4   41.23    2.20
  -3   7  -4  119.75    3.61
  -3   7  -4  119.39    5.14
  -3   7  -4  124.81    4.82
   3  -7   4  122.49    3.78
   3  -7   4  122.38    4.85
   3  -7   4  126.06    3.30
  -4   7  -4   20.54    0.90
  -4   7  -4   20.63    1.62
  -4   7  -4   19.24    1.85
   4  -7   4   20.86    1.00
   4  -7   4   20.90    1.11
  -5   7  -4    1.01    0.92
  -5   7  -4    1.19    0.39
  -5   7  -4   -0.26    1.48
   5  -7   4    0.68    0.48
   5  -7   4    0.19    0.50
  -6   7  -4    8.19    1.09
  -6   7  -4    7.66    1.56
  -6   7  -4    7.71    0.56
   6  -7   4    8.79    0.80
   6  -7   4    8.63    0.70
  -7   7  -4   -0.30    0.93
  -7   7  -4   -0.37    1.50
   7  -7   4    0.65    0.60
   7  -7   4    0.58    0.51
  -8   7  -4   13.75    1.97
  -8   7  -4   12.47    1.37
   8  -7   4   12.74    1.04
   8  -7   4   15.25    1.00
  -9   7  -4   14.50    2.02
   9  -7   4   11.96    0.90
   9  -7   4   11.41    1.03
 -10   7  -4   18.51    2.30
  10  -7   4   17.50    1.19
  10  -7   4   18.52    1.30
   9   6  -4    1.33    0.48
   9   6  -4    0.73    0.57
  -9  -6   4   -0.92    2.10
  -9  -6   4    1.14    0.97
   8   6  -4    6.64    0.67
  -8  -6   4    6.02    2.10
  -8  -6   4    7.15    1.08
   7   6  -4   15.32    0.90
  -7  -6   4   16.12    1.41
  -7  -6   4   12.87    2.23
   6   6  -4    0.31    0.42
  -6  -6   4   -0.45    1.56
  -6  -6   4   -0.28    0.73
   5   6  -4    0.33    0.39
  -5  -6   4    0.75    1.44
  -5  -6   4    0.09    0.10
  -5  -6   4    0.44    0.79
   4   6  -4   32.71    1.22
  -4  -6   4   32.70    1.76
  -4  -6   4   28.83    3.34
  -4  -6   4   32.16    1.15
   3   6  -4    9.38    0.66
  -3  -6   4    5.73    1.98
  -3  -6   4   11.32    0.63
  -3  -6   4   10.21    1.01
   2   6  -4   -0.41    0.33
  -2  -6   4    0.10    0.64
  -2  -6   4    0.49    0.36
   1   6  -4   13.39    0.67
   1   6  -4   13.11    1.24
  -1  -6   4   11.94    0.72
  -1  -6   4   13.54    1.13
   0   6  -4    4.50    1.07
   0   6  -4    3.73    0.75
   0   6  -4    3.25    0.41
   0  -6   4    3.16    0.80
   0  -6   4    2.42    0.47
  -1   6  -4    9.35    1.09
  -1   6  -4    8.76    0.88
  -1   6  -4    8.24    0.60
   1  -6   4    6.97    0.59
  -2   6  -4   15.84    0.77
  -2   6  -4   15.33    1.29
  -2   6  -4   15.64    1.45
   2  -6   4   15.88    1.30
   2  -6   4   14.66    0.83
   2  -6   4   14.44    0.79
  -3   6  -4  109.57    4.42
  -3   6  -4  114.01    4.76
  -3   6  -4  110.09    3.33
   3  -6   4  116.32    4.44
   3  -6   4  114.05    3.48
   3  -6   4  114.68    3.04
  -4   6  -4   29.81    2.51
  -4   6  -4   29.80    1.71
  -4   6  -4   26.73    1.05
   4  -6   4   27.59    1.21
   4  -6   4   26.91    1.07
  -5   6  -4    0.30    0.82
  -5   6  -4    0.64    0.35
  -5   6  -4   -1.73    1.38
   5  -6   4    0.23    0.41
   5  -6   4    0.46    0.49
  -6   6  -4   11.39    1.14
  -6   6  -4   10.55    1.60
  -6   6  -4   10.76    0.58
   6  -6   4   11.54    0.77
   6  -6   4   12.07    0.93
  -7   6  -4   17.38    1.91
  -7   6  -4   17.43    1.56
   7  -6   4   15.61    0.94
   7  -6   4   15.62    1.01
  -8   6  -4   -0.29    0.96
  -8   6  -4    0.20    1.44
   8  -6   4   -0.46    0.48
   8  -6   4   -0.50    0.57
  -9   6  -4   -0.78    0.95
  -9   6  -4    1.73    1.62
   9  -6   4    0.56    0.69
   9  -6   4    0.41    0.58
 -10   6  -4    2.61    1.73
  10  -6   4   -0.08    0.64
  10  -6   4   -0.61    0.74
  10   5  -4    1.47    0.54
  10   5  -4    1.00    0.48
 -10  -5   4    0.77    0.95
 -10  -5   4   -3.64    2.14
 -10  -5   4    2.28    1.52
   9   5  -4    0.97    0.50
   9   5  -4    0.10    0.39
  -9  -5   4    0.32    0.86
  -9  -5   4   -1.35    1.95
   8   5  -4    1.41    0.46
  -8  -5   4    1.41    0.84
  -8  -5   4    0.55    1.78
   7   5  -4    9.86    0.69
  -7  -5   4    8.50    2.02
  -7  -5   4   10.16    1.01
   6   5  -4    5.39    0.48
   6   5  -4    4.23    0.48
  -6  -5   4    5.02    0.81
  -6  -5   4    5.26    1.70
   5   5  -4    2.43    0.42
   5   5  -4    3.10    0.39
  -5  -5   4    2.48    1.56
  -5  -5   4    2.47    0.78
   4   5  -4   69.57    2.05
   4   5  -4   62.94    2.03
  -4  -5   4   65.98    1.94
  -4  -5   4   62.97    1.93
  -4  -5   4   59.47    4.53
  -4  -5   4   67.05    2.73
   3   5  -4   10.53    0.63
   3   5  -4   10.56    0.61
  -3  -5   4   11.12    1.03
  -3  -5   4    6.56    1.84
  -3  -5   4   10.49    0.58
   2   5  -4   34.26    1.23
   2   5  -4   36.03    1.24
  -2  -5   4   36.75    1.25
  -2  -5   4   34.08    1.66
   1   5  -4    1.29    0.35
   1   5  -4    0.56    0.29
   1   5  -4    1.02    0.89
  -1  -5   4    0.88    0.65
  -1  -5   4    0.58    0.35
   0   5  -4   19.01    1.24
   0   5  -4   15.19    1.51
   0   5  -4   17.11    0.76
   0  -5   4   19.47    1.22
   0  -5   4   16.57    0.85
  -1   5  -4    0.54    0.61
  -1   5  -4    0.82    0.30
  -1   5  -4    0.65    0.83
   1  -5   4    0.83    0.31
   1  -5   4    0.01    0.45
   1  -5   4    1.14    0.39
  -2   5  -4   19.04    1.85
  -2   5  -4   17.59    0.78
  -2   5  -4   17.13    1.17
   2  -5   4   17.28    0.84
   2  -5   4   16.61    1.24
   2  -5   4   17.32    0.78
  -3   5  -4   11.30    0.64
  -3   5  -4   12.06    1.13
  -3   5  -4   12.69    1.29
   3  -5   4   10.91    1.03
   3  -5   4   11.24    0.75
   3  -5   4   11.54    0.66
  -4   5  -4    2.96    0.39
  -4   5  -4    2.12    0.76
  -4   5  -4    1.43    1.27
   4  -5   4    3.18    0.50
   4  -5   4    3.64    0.43
  -5   5  -4   10.14    1.63
  -5   5  -4    9.85    0.61
  -5   5  -4   10.07    1.03
   5  -5   4   10.36    0.78
   5  -5   4   12.25    0.70
  -6   5  -4   11.29    0.56
  -6   5  -4   10.09    1.68
  -6   5  -4   11.36    1.11
   6  -5   4   13.14    0.75
   6  -5   4   11.12    0.84
  -7   5  -4   53.95    3.23
  -7   5  -4   54.19    2.59
   7  -5   4   56.27    1.96
   7  -5   4   55.44    1.71
  -8   5  -4    7.84    1.66
  -8   5  -4    6.93    1.12
   8  -5   4    7.48    0.79
   8  -5   4    7.70    0.68
  -9   5  -4    1.26    1.05
  -9   5  -4    3.32    1.56
   9  -5   4    2.12    0.57
   9  -5   4    1.72    0.70
 -10   5  -4   12.60    1.88
  10  -5   4   12.63    1.07
  10  -5   4   12.47    0.89
  10   4  -4    9.16    0.59
  10   4  -4    9.92    0.78
 -10  -4   4    8.47    2.38
 -10  -4   4    8.80    1.11
 -10  -4   4    9.58    1.53
   9   4  -4    1.16    0.43
  -9  -4   4    1.24    0.78
  -9  -4   4   -0.47    1.82
   8   4  -4    5.87    0.50
  -8  -4   4    5.11    1.92
  -8  -4   4    4.80    0.82
   7   4  -4    4.26    0.44
  -7  -4   4    4.52    0.77
  -7  -4   4    3.26    1.56
   6   4  -4    0.46    0.30
   6   4  -4    0.26    0.33
  -6  -4   4    0.69    1.51
  -6  -4   4    0.44    0.64
   5   4  -4    0.21    0.27
   5   4  -4    0.37    0.31
  -5  -4   4    0.16    0.61
  -5  -4   4   -0.23    1.45
   4   4  -4   14.30    0.63
   4   4  -4   12.20    0.65
  -4  -4   4   13.97    1.05
  -4  -4   4   11.80    1.77
  -4  -4   4   12.86    0.49
   3   4  -4   41.05    1.36
   3   4  -4   43.29    1.37
  -3  -4   4   41.16    1.30
  -3  -4   4   40.49    2.29
  -3  -4   4   44.04    1.32
  -3  -4   4   41.57    1.81
  -3  -4   4   35.84    3.41
   2   4  -4    6.06    0.83
   2   4  -4    4.56    0.39
   2   4  -4    5.67    0.43
  -2  -4   4    6.19    0.46
  -2  -4   4    5.50    0.68
  -2  -4   4    5.74    1.06
  -2  -4   4    5.09    0.41
   1   4  -4   49.04    2.19
   1   4  -4   52.47    2.44
   1   4  -4   56.37    1.75
   1   4  -4   53.96    1.67
   1   4  -4   53.03    1.49
  -1  -4   4   51.42    1.72
  -1  -4   4   54.83    2.49
  -1  -4   4   54.30    1.65
  -1  -4   4   51.35    2.26
   0   4  -4  379.04    9.89
   0   4  -4  342.58    9.81
   0   4  -4  360.82   12.42
   0   4  -4  364.13    8.63
   0  -4   4  339.92    9.87
   0  -4   4  344.43   12.40
   0  -4   4  344.88   12.52
   0  -4   4  332.88    8.62
   0  -4   4  348.83    9.79
  -1   4  -4   54.90    2.60
  -1   4  -4   55.07    2.34
  -1   4  -4   54.92    1.79
  -1   4  -4   55.51    1.73
   1  -4   4   55.06    1.81
   1  -4   4   52.20    2.56
   1  -4   4   54.65    1.58
   1  -4   4   58.50    1.73
  -2   4  -4    2.69    0.63
  -2   4  -4    3.41    0.35
  -2   4  -4    3.11    0.97
   2  -4   4    4.28    0.71
   2  -4   4    3.07    0.34
   2  -4   4    4.31    0.45
   2  -4   4    2.61    0.94
   2  -4   4    3.53    0.36
  -3   4  -4   45.85    1.54
  -3   4  -4   49.84    2.45
  -3   4  -4   47.66    2.07
   3  -4   4   51.24    1.57
   3  -4   4   48.52    1.41
   3  -4   4   47.45    2.19
   3  -4   4   47.45    1.61
  -4   4  -4    0.76    1.16
  -4   4  -4    0.75    0.31
  -4   4  -4    0.43    0.67
   4  -4   4    0.37    0.39
   4  -4   4    0.54    0.32
  -5   4  -4    5.24    0.87
  -5   4  -4    4.87    0.42
  -5   4  -4    3.43    1.35
   5  -4   4    4.75    0.46
   5  -4   4    5.62    0.57
  -6   4  -4    4.62    1.41
  -6   4  -4    4.83    0.40
  -6   4  -4    5.25    0.97
   6  -4   4    5.57    0.61
   6  -4   4    5.07    0.51
  -7   4  -4    2.88    0.93
  -7   4  -4    3.02    1.38
   7  -4   4    3.47    0.60
   7  -4   4    3.66    0.51
  -8   4  -4    1.20    1.29
  -8   4  -4   -0.04    0.93
   8  -4   4    0.35    0.47
   8  -4   4    0.69    0.58
  -9   4  -4    1.75    1.33
  -9   4  -4   -1.78    0.98
   9  -4   4    0.55    0.55
   9  -4   4   -0.41    0.60
 -10   4  -4   11.41    1.77
  10  -4   4   10.15    0.85
  10  -4   4   11.96    1.04
 -11  -3   4    5.10    0.95
 -11  -3   4    0.75    2.34
  10   3  -4   14.73    0.69
  10   3  -4   16.43    0.82
 -10  -3   4   11.78    2.49
 -10  -3   4   15.66    1.29
   9   3  -4    4.71    0.46
  -9  -3   4    5.18    0.78
  -9  -3   4    3.61    1.99
   8   3  -4   31.83    1.11
  -8  -3   4   30.95    3.42
  -8  -3   4   30.79    1.54
   7   3  -4  142.10    4.07
  -7  -3   4  139.67    8.16
  -7  -3   4  143.31    5.17
   6   3  -4   99.63    2.80
   6   3  -4   91.39    2.80
  -6  -3   4   96.59    3.60
  -6  -3   4   96.20    5.93
   5   3  -4   29.62    0.98
   5   3  -4   28.00    0.99
  -5  -3   4   29.08    2.07
  -5  -3   4   28.45    2.96
  -5  -3   4   28.68    1.38
   4   3  -4   33.15    1.06
   4   3  -4   31.76    1.07
  -4  -3   4   31.42    2.04
  -4  -3   4   32.62    2.85
  -4  -3   4   31.87    1.45
   3   3  -4   -0.46    0.21
   3   3  -4   -0.10    0.22
   3   3  -4   -0.08    0.21
  -3  -3   4    0.03    0.83
  -3  -3   4    0.07    0.16
  -3  -3   4   -0.42    0.44
  -3  -3   4    0.15    0.16
  -3  -3   4    0.22    0.97
   2   3  -4   13.18    0.57
   2   3  -4   13.37    1.12
   2   3  -4   12.19    0.57
   2   3  -4   13.82    0.64
   2   3  -4   13.94    0.56
  -2  -3   4   14.63    1.35
  -2  -3   4   12.83    0.94
  -2  -3   4   13.72    0.57
  -2  -3   4   13.16    0.62
   1   3  -4   34.61    1.15
   1   3  -4   30.32    1.75
   1   3  -4   32.79    1.07
   1   3  -4   31.11    1.51
   1   3  -4   33.16    1.08
   1   3  -4   34.05    1.01
  -1  -3   4   32.12    1.52
  -1  -3   4   33.23    1.17
  -1  -3   4   33.11    1.07
  -1  -3   4   30.70    1.82
   0   3  -4  249.68    6.84
   0   3  -4  241.84    6.78
   0   3  -4  246.54    5.97
   0   3  -4  247.63    8.61
   0   3  -4  240.61    6.78
   0  -3   4  230.90    6.83
   0  -3   4  236.47    8.59
   0  -3   4  238.54    8.71
   0  -3   4  233.96    5.97
   0  -3   4  248.04    6.78
  -1   3  -4   69.56    2.06
  -1   3  -4   66.68    2.92
  -1   3  -4   69.72    2.11
  -1   3  -4   69.47    2.07
  -1   3  -4   65.91    2.67
   1  -3   4   67.67    1.83
   1  -3   4   72.08    2.07
   1  -3   4   68.54    2.10
   1  -3   4   66.40    2.87
  -2   3  -4   36.34    1.21
  -2   3  -4   35.40    1.67
  -2   3  -4   35.54    1.22
  -2   3  -4   33.82    2.08
   2  -3   4   36.65    1.24
   2  -3   4   34.49    1.77
   2  -3   4   37.37    2.10
   2  -3   4   37.14    1.08
   2  -3   4   38.81    1.23
  -3   3  -4  211.67    6.03
  -3   3  -4  214.11    7.84
  -3   3  -4  212.38    7.64
   3  -3   4  212.90    6.06
   3  -3   4  209.62    5.29
   3  -3   4  225.83    6.05
   3  -3   4  202.24    7.66
  -4   3  -4  208.74    7.71
  -4   3  -4  202.44    5.85
  -4   3  -4  208.80    7.46
   4  -3   4  201.22    5.90
   4  -3   4  202.48    5.16
   4  -3   4  214.05    5.90
  -5   3  -4   31.46    2.46
  -5   3  -4   30.85    1.69
  -5   3  -4   28.49    1.04
   5  -3   4   29.19    1.19
   5  -3   4   31.11    1.04
  -6   3  -4   33.86    1.12
  -6   3  -4   37.66    2.49
  -6   3  -4   35.48    1.94
   6  -3   4   36.58    1.23
   6  -3   4   35.04    1.37
  -7   3  -4    9.56    1.39
  -7   3  -4    5.37    1.00
   7  -3   4    6.75    0.59
   7  -3   4    6.86    0.68
  -8   3  -4   -0.05    1.28
  -8   3  -4   -0.68    0.86
   8  -3   4    0.30    0.50
   8  -3   4    0.54    0.60
  -9   3  -4    1.80    1.08
  -9   3  -4    4.99    1.37
   9  -3   4    0.88    0.67
   9  -3   4    2.60    0.60
 -10   3  -4    6.36    1.54
  10  -3   4    4.97    0.73
  10  -3   4    4.96    0.88
 -11  -2   4    1.12    1.14
 -11  -2   4   -0.54    2.15
 -11  -2   4    0.68    0.77
  10   2  -4    0.28    0.37
  10   2  -4    0.46    0.31
 -10  -2   4   -0.32    0.64
 -10  -2   4   -0.73    2.09
   9   2  -4    0.20    0.32
  -9  -2   4   -0.82    1.64
  -9  -2   4    0.22    0.59
   8   2  -4    1.49    0.31
  -8  -2   4    1.44    0.53
  -8  -2   4    0.80    1.60
   7   2  -4  105.10    2.86
   7   2  -4   94.87    2.87
  -7  -2   4   98.87    3.66
  -7  -2   4   98.80    6.08
   6   2  -4   54.11    1.54
   6   2  -4   48.72    1.55
  -6  -2   4   51.92    3.77
  -6  -2   4   51.77    2.53
  -6  -2   4   50.98    2.01
   5   2  -4   39.90    1.21
   5   2  -4   40.07    1.23
   5   2  -4   39.88    1.22
  -5  -2   4   41.10    1.61
  -5  -2   4   36.06    2.02
  -5  -2   4   40.92    3.06
   4   2  -4  256.63    6.86
   4   2  -4  245.69    6.85
  -4  -2   4  245.54    8.63
  -4  -2   4  237.70   12.88
  -4  -2   4  244.45    8.73
   3   2  -4  458.91   10.98
   3   2  -4  457.63   12.63
   3   2  -4  468.82   12.48
  -3  -2   4  439.56   15.85
  -3  -2   4  463.58   15.86
  -3  -2   4  428.67   12.40
  -3  -2   4  423.57   22.83
   2   2  -4  106.15    2.98
   2   2  -4  104.19    2.65
   2   2  -4  108.14    3.06
   2   2  -4  100.97    3.80
  -2  -2   4  108.98    2.96
  -2  -2   4  101.22    3.85
  -2  -2   4  104.57    3.92
  -2  -2   4  102.11    3.01
  -2  -2   4  103.91    5.99
   1   2  -4  143.56    5.26
   1   2  -4  144.79    4.10
   1   2  -4  149.11    3.63
   1   2  -4  146.24    5.26
   1   2  -4  147.57    4.16
  -1  -2   4  138.41    4.16
  -1  -2   4  145.54    5.25
  -1  -2   4  151.47    4.10
  -1  -2   4  142.37    3.64
  -1  -2   4  141.54    5.31
   0   2  -4   13.68    0.58
   0   2  -4   15.38    0.70
   0   2  -4   15.60    0.57
   0   2  -4   15.21    0.99
   0  -2   4   14.26    0.67
   0  -2   4   15.35    0.60
   0  -2   4   15.63    1.03
   0  -2   4   13.75    1.15
   0  -2   4   14.79    0.58
  -1   2  -4   34.69    1.68
  -1   2  -4   33.62    1.54
  -1   2  -4   34.16    1.16
  -1   2  -4   33.05    1.11
  -1   2  -4   33.18    0.98
   1  -2   4   33.66    1.80
   1  -2   4   32.66    0.99
   1  -2   4   34.18    1.15
   1  -2   4   34.24    1.10
  -2   2  -4   30.33    1.05
  -2   2  -4   30.91    1.08
  -2   2  -4   30.56    1.80
  -2   2  -4   29.63    1.48
   2  -2   4   29.05    1.80
   2  -2   4   29.88    0.92
   2  -2   4   29.68    1.61
   2  -2   4   32.10    1.05
   2  -2   4   29.98    1.09
  -3   2  -4  271.34    7.56
  -3   2  -4  270.55    9.71
  -3   2  -4  270.43    9.55
   3  -2   4  282.46    7.58
   3  -2   4  251.94    9.60
   3  -2   4  265.56    7.59
   3  -2   4  270.69    6.64
  -4   2  -4  285.98   10.01
  -4   2  -4  273.56    7.73
  -4   2  -4  274.55    7.75
  -4   2  -4  283.15    9.82
   4  -2   4  268.98    6.81
   4  -2   4  266.47    7.78
  -5   2  -4   48.68    1.61
  -5   2  -4   51.48    2.66
  -5   2  -4   51.19    2.30
   5  -2   4   51.74    1.49
   5  -2   4   47.60    1.70
  -6   2  -4   16.73    1.53
  -6   2  -4   13.39    0.61
  -6   2  -4   14.16    1.44
   6  -2   4   14.94    0.89
   6  -2   4   14.99    0.76
  -7   2  -4   47.91    2.37
  -7   2  -4   54.23    2.83
   7  -2   4   50.10    1.80
   7  -2   4   49.73    1.56
  -8   2  -4    7.88    1.17
  -8   2  -4   10.51    1.40
   8  -2   4    9.47    0.69
   8  -2   4    9.22    0.83
  -9   2  -4   -0.95    1.06
  -9   2  -4    1.80    1.27
   9  -2   4   -0.42    0.66
   9  -2   4    0.27    0.52
 -10   2  -4    2.20    1.35
  10  -2   4    0.17    0.59
  10  -2   4    0.34    0.77
 -11  -1   4    8.42    2.40
 -11  -1   4    8.24    0.83
 -11  -1   4    8.89    1.13
  10   1  -4   14.81    0.68
  10   1  -4   14.82    0.60
 -10  -1   4   15.00    1.02
 -10  -1   4   10.27    2.37
   9   1  -4    6.66    0.44
  -9  -1   4    5.95    0.61
  -9  -1   4    5.62    1.90
   8   1  -4    7.80    0.44
  -8  -1   4    6.73    1.85
  -8  -1   4    8.32    0.66
   7   1  -4    1.12    0.21
   7   1  -4    0.92    0.17
  -7  -1   4    1.11    0.39
  -7  -1   4    2.13    1.47
  -7  -1   4    0.18    0.82
   6   1  -4   28.17    0.82
   6   1  -4   27.04    0.82
  -6  -1   4   25.32    1.31
  -6  -1   4   27.23    1.10
  -6  -1   4   28.14    2.66
   5   1  -4    4.37    0.24
   5   1  -4    4.85    0.25
  -5  -1   4    3.21    0.47
  -5  -1   4    4.55    1.12
  -5  -1   4    4.65    0.46
   4   1  -4  155.60    4.27
   4   1  -4  154.07    4.29
  -4  -1   4  149.16    5.40
  -4  -1   4  155.63    5.43
  -4  -1   4  153.66    8.26
   3   1  -4  341.12    8.32
   3   1  -4  346.78    9.59
   3   1  -4  357.78    9.50
  -3  -1   4  332.02   17.46
  -3  -1   4  329.93   11.93
  -3  -1   4  344.52   12.05
   2   1  -4   87.80    2.45
   2   1  -4   85.68    2.19
   2   1  -4   84.81    3.13
   2   1  -4   87.54    2.51
  -2  -1   4   88.72    2.44
  -2  -1   4   83.71    3.18
  -2  -1   4   82.46    2.49
  -2  -1   4   87.75    4.86
  -2  -1   4   84.08    2.19
  -2  -1   4   86.84    3.21
   1   1  -4   10.24    0.42
   1   1  -4   10.20    0.44
   1   1  -4    9.27    0.79
   1   1  -4   11.05    0.53
   1   1  -4    9.98    0.86
  -1  -1   4    9.37    0.43
  -1  -1   4    9.68    0.96
  -1  -1   4    9.88    0.41
  -1  -1   4   10.72    0.82
  -1  -1   4   10.94    0.52
   0   1  -4  189.29    4.58
   0   1  -4  190.06    5.24
   0   1  -4  177.80    6.61
   0   1  -4  184.49    5.21
   0  -1   4  190.22    5.22
   0  -1   4  185.89    5.24
   0  -1   4  183.08    4.58
   0  -1   4  185.04    6.61
   0  -1   4  182.64    6.67
  -1   1  -4   79.57    3.09
  -1   1  -4   82.42    3.21
  -1   1  -4   82.74    2.42
  -1   1  -4   80.22    2.40
  -1   1  -4   81.14    2.11
   1  -1   4   82.41    2.11
   1  -1   4   81.38    3.18
   1  -1   4   84.37    2.40
   1  -1   4   81.15    2.43
  -2   1  -4   24.43    0.89
  -2   1  -4   26.26    1.47
  -2   1  -4   24.57    1.36
  -2   1  -4   25.55    0.94
   2  -1   4   24.58    0.92
   2  -1   4   22.93    1.43
   2  -1   4   25.91    0.88
   2  -1   4   24.07    0.81
   2  -1   4   23.21    1.58
  -3   1  -4   22.41    1.33
  -3   1  -4   21.66    1.57
  -3   1  -4   21.25    0.85
   3  -1   4   20.41    0.73
   3  -1   4   20.62    0.88
   3  -1   4   17.08    1.57
   3  -1   4   21.48    0.83
  -4   1  -4    0.18    0.76
  -4   1  -4   -0.79    0.89
  -4   1  -4   -0.17    0.31
   4  -1   4   -0.20    0.32
   4  -1   4    0.05    0.39
  -5   1  -4    0.47    0.35
  -5   1  -4    0.59    0.34
  -5   1  -4    0.17    0.91
  -5   1  -4   -0.49    0.98
   5  -1   4    0.02    0.44
   5  -1   4    0.49    0.36
  -6   1  -4   10.46    1.32
  -6   1  -4   10.30    1.15
  -6   1  -4   10.32    0.56
   6  -1   4   10.58    0.80
   6  -1   4   10.46    0.69
  -7   1  -4   69.44    3.14
  -7   1  -4   71.76    3.34
   7  -1   4   71.25    2.04
   7  -1   4   70.45    2.37
  -8   1  -4   35.60    2.28
  -8   1  -4   31.29    2.13
   8  -1   4   33.43    1.45
   8  -1   4   33.06    1.25
  -9   1  -4    4.59    1.33
   9  -1   4    4.04    0.79
   9  -1   4    3.86    0.62
 -11   0   4    5.16    2.23
 -11   0   4    5.44    0.92
 -11   0   4    5.93    0.68
 -10   0   4   30.16    3.49
 -10   0   4   31.66    1.37
   9   0  -4    2.90    0.24
  -9   0   4    2.07    1.77
  -8   0   4    0.54    1.59
  -7   0   4    4.20    1.57
  -6   0   4    2.07    1.31
  -5   0   4    5.06    1.10
   4   0  -4    1.18    0.17
   4   0  -4    0.87    0.16
   4   0  -4    1.03    0.12
  -4   0   4    0.96    0.29
  -4   0   4    1.14    0.85
  -4   0   4    0.70    0.30
   3   0  -4   43.98    1.31
   3   0  -4   45.25    1.19
   3   0  -4   46.76    1.36
  -3   0   4   44.19    1.74
  -3   0   4   45.18    2.74
  -3   0   4   44.57    1.76
   2   0  -4    0.21    0.33
   2   0  -4    0.72    0.16
   2   0  -4    0.66    0.21
   2   0  -4    0.91    0.17
  -2   0   4    0.42    0.21
  -2   0   4    0.43    0.42
  -2   0   4    1.18    0.40
  -2   0   4    0.20    0.56
  -2   0   4    0.92    0.16
  -2   0   4    0.66    0.17
   1   0  -4    2.71    0.49
   1   0  -4    3.06    0.24
   1   0  -4    3.33    0.30
   1   0  -4    2.90    0.49
   1   0  -4    3.07    0.24
  -1   0   4    3.75    0.54
  -1   0   4    3.55    0.54
  -1   0   4    3.45    0.24
  -1   0   4    3.51    0.25
  -1   0   4    4.20    0.73
  -1   0   4    3.33    0.29
   0   0  -4  152.60    4.34
   0   0  -4  155.80    3.80
   0   0  -4  157.00    4.36
   0   0  -4  150.83    5.52
   0   0   4  155.91    4.34
   0   0   4  153.06    4.36
   0   0   4  151.03    5.55
   0   0   4  151.78    3.81
   0   0   4  149.66    5.52
  -1   0  -4  171.22    4.91
  -1   0  -4  175.81    4.92
  -1   0  -4  172.71    6.29
  -1   0  -4  172.71    6.24
   1   0   4  169.01    4.93
   1   0   4  180.07    4.92
   1   0   4  172.18    4.31
   1   0   4  172.83    6.31
  -2   0  -4    1.63    0.27
  -2   0  -4    2.37    0.67
  -2   0  -4    2.18    0.71
   2   0   4    1.19    0.85
   2   0   4    1.84    0.27
   2   0   4    1.32    0.34
   2   0   4    2.34    0.71
   2   0   4    1.83    0.28
  -3   0  -4   21.61    0.84
  -3   0  -4   20.71    1.49
  -3   0  -4   21.60    1.38
   3   0   4   17.81    1.82
   3   0   4   20.96    0.76
   3   0   4   21.04    0.89
  -4   0  -4   12.09    1.23
  -4   0  -4   13.37    0.71
  -4   0  -4   11.27    1.10
   4   0   4   12.94    0.60
   4   0   4   12.60    0.77
  -5   0  -4    0.95    0.39
  -5   0  -4    0.28    1.01
  -5   0  -4    2.10    1.00
   5   0   4    0.53    0.47
   5   0   4    0.95    0.38
  -6   0  -4    0.50    0.90
  -6   0  -4   -0.35    1.01
   6   0   4    0.32    0.49
   6   0   4    0.40    0.42
  -7   0  -4    0.92    1.05
  -7   0  -4    0.05    1.00
   7   0   4    0.87    0.46
   7   0   4    2.12    0.59
  -8   0  -4    1.27    1.12
   8   0   4   -0.04    0.50
   8   0   4    0.19    0.64
  -9   0  -4   -0.08    1.25
   9   0   4   -1.31    0.70
   9   0   4   -0.10    0.59
 -12   1   4    1.00    0.60
 -11   1   4    0.88    0.50
 -11   1   4   -1.00    1.91
 -10   1   4   21.30    3.11
  -9   1   4    6.73    1.88
  -8   1   4    1.72    1.67
  -7   1   4   82.55    5.21
  -6   1   4   88.67    5.38
   5  -1  -4    1.36    0.15
  -5   1   4    1.18    0.94
   4  -1  -4    0.36    0.12
   4  -1  -4    0.31    0.14
   4  -1  -4    0.45    0.18
  -4   1   4    0.27    0.29
  -4   1   4    0.91    0.84
  -4   1   4    0.57    0.34
   3  -1  -4   11.88    0.44
   3  -1  -4   12.30    0.45
   3  -1  -4   11.67    0.49
  -3   1   4   10.92    0.72
  -3   1   4   13.45    1.36
  -3   1   4   12.03    0.75
   2  -1  -4   19.55    1.39
   2  -1  -4   18.56    0.59
   2  -1  -4   18.27    0.69
   2  -1  -4   18.11    0.92
   2  -1  -4   17.82    0.64
  -2   1   4   18.33    0.69
  -2   1   4   18.40    0.97
  -2   1   4   19.06    0.60
  -2   1   4   19.06    1.03
  -2   1   4   19.65    0.66
  -2   1   4   20.08    1.43
   1  -1  -4    5.21    0.36
   1  -1  -4    5.57    0.33
   1  -1  -4    5.28    0.61
   1  -1  -4    5.47    0.37
   1  -1  -4    4.85    0.55
  -1   1   4    5.36    0.45
  -1   1   4    5.22    0.68
  -1   1   4    5.38    0.60
  -1   1   4    6.33    0.75
  -1   1   4    5.90    0.37
  -1   1   4    5.91    0.34
   0  -1  -4   29.15    0.84
   0  -1  -4   27.49    1.45
   0  -1  -4   29.10    0.97
   0  -1  -4   28.94    0.97
   0   1   4   29.19    1.01
   0   1   4   27.07    1.42
   0   1   4   26.63    0.86
   0   1   4   27.45    1.39
   0   1   4   28.72    0.96
  -1  -1  -4   20.73    1.30
  -1  -1  -4   21.19    0.79
  -1  -1  -4   20.74    1.21
   1   1   4   20.77    1.35
   1   1   4   15.22    1.43
   1   1   4   20.08    0.69
   1   1   4   20.66    0.79
   1   1   4   21.40    0.84
   1   1   4   21.27    1.36
  -2  -1  -4   59.40    2.54
  -2  -1  -4   58.82    2.44
  -2  -1  -4   57.09    1.82
   2   1   4   58.24    1.83
   2   1   4   63.05    3.21
   2   1   4   56.56    1.59
   2   1   4   57.28    2.68
  -3  -1  -4    0.92    0.82
  -3  -1  -4    0.76    0.31
  -3  -1  -4    0.08    0.80
   3   1   4    0.39    0.30
   3   1   4   -0.13    0.67
   3   1   4    0.29    0.37
  -4  -1  -4   51.99    2.44
  -4  -1  -4   47.56    2.34
  -4  -1  -4   47.76    1.60
   4   1   4   47.00    1.42
   4   1   4   46.06    1.63
  -5  -1  -4   22.84    1.82
  -5  -1  -4   24.39    1.04
  -5  -1  -4   24.01    1.75
   5   1   4   22.33    0.91
   5   1   4   23.13    1.07
  -6  -1  -4    5.10    1.09
  -6  -1  -4    7.22    1.15
   6   1   4    6.02    0.54
   6   1   4    5.45    0.65
  -7  -1  -4   10.14    1.38
  -7  -1  -4   12.03    1.40
   7   1   4   11.85    0.93
   7   1   4   11.51    0.79
  -8  -1  -4    5.26    1.30
   8   1   4    3.20    0.72
   8   1   4    4.26    0.63
  -9  -1  -4    1.45    1.23
   9   1   4    1.16    0.61
   9   1   4    0.52    0.76
 -10   2   4   -0.40    1.88
  -9   2   4    0.12    1.58
  -8   2   4    6.71    1.69
  -7   2   4   12.84    2.02
   6  -2  -4   66.60    1.66
  -6   2   4   67.60    4.36
   5  -2  -4    1.29    0.16
   5  -2  -4    0.93    0.15
   5  -2  -4    1.23    0.18
  -5   2   4    2.02    0.37
  -5   2   4    2.26    1.04
  -5   2   4    1.08    0.30
   4  -2  -4   25.20    0.72
   4  -2  -4   25.32    0.80
   4  -2  -4   24.89    0.83
  -4   2   4   25.59    1.17
  -4   2   4   26.50    1.98
  -4   2   4   24.70    1.10
   3  -2  -4  208.51    5.09
   3  -2  -4  212.10    5.83
   3  -2  -4  201.50    5.81
  -3   2   4  213.86    5.79
  -3   2   4  211.72   10.66
  -3   2   4  206.52    5.79
  -3   2   4  202.64    7.34
  -3   2   4  209.25    7.36
  -3   2   4  207.04    5.08
   2  -2  -4  142.08    4.01
   2  -2  -4  138.32    4.00
   2  -2  -4  142.71    3.50
   2  -2  -4  135.06    5.06
   2  -2  -4  143.87    7.25
  -2   2   4  141.49    3.51
  -2   2   4  137.25    4.01
  -2   2   4  142.36    5.14
  -2   2   4  141.51    5.11
  -2   2   4  143.61    7.25
  -2   2   4  145.17    4.01
   1  -2  -4   63.42    1.88
   1  -2  -4   63.86    1.88
   1  -2  -4   63.16    2.47
   1  -2  -4   62.99    1.64
   1  -2  -4   60.55    2.51
  -1   2   4   61.93    1.89
  -1   2   4   61.58    2.53
  -1   2   4   63.67    1.89
  -1   2   4   60.80    1.65
  -1   2   4   60.46    2.48
  -1   2   4   63.16    3.26
   0  -2  -4   51.80    1.60
   0  -2  -4   55.15    1.61
   0  -2  -4   47.94    2.16
   0   2   4   50.52    2.16
   0   2   4   50.49    1.39
   0   2   4   51.30    1.61
   0   2   4   51.25    2.28
  -1  -2  -4    1.04    0.28
  -1  -2  -4    0.04    0.71
  -1  -2  -4    0.94    0.57
   1   2   4    0.72    0.25
   1   2   4    0.22    0.88
   1   2   4    0.77    0.33
   1   2   4    0.85    0.61
  -2  -2  -4    0.25    0.74
  -2  -2  -4    0.29    0.27
  -2  -2  -4    0.95    0.66
   2   2   4   -0.09    0.32
   2   2   4   -0.16    0.27
   2   2   4   -0.66    1.01
   2   2   4    0.28    0.44
  -3  -2  -4    3.11    0.42
  -3  -2  -4    3.52    1.01
  -3  -2  -4    3.76    0.96
   3   2   4    3.56    0.49
   3   2   4    3.82    0.76
   3   2   4    4.12    0.41
  -4  -2  -4   44.47    1.55
  -4  -2  -4   45.63    2.40
  -4  -2  -4   48.81    2.41
   4   2   4   42.82    1.55
   4   2   4   42.26    1.36
  -5  -2  -4   12.16    1.29
  -5  -2  -4   12.31    1.30
  -5  -2  -4   13.07    0.79
   5   2   4   11.65    0.80
   5   2   4   12.94    0.74
  -6  -2  -4    1.39    1.05
  -6  -2  -4   -0.57    1.04
   6   2   4    0.76    0.46
   6   2   4    1.29    0.57
  -7  -2  -4    6.36    1.26
   7   2   4    6.21    0.75
   7   2   4    6.36    0.64
  -8  -2  -4    8.33    1.46
   8   2   4    9.35    0.90
   8   2   4    7.64    0.73
   8  -3  -4   65.44    1.60
  -8   3   4   62.34    4.46
   7  -3  -4   43.19    1.13
  -7   3   4   46.19    3.62
   6  -3  -4    0.08    0.20
   6  -3  -4    0.21    0.18
   6  -3  -4    0.20    0.16
  -6   3   4    0.72    0.51
  -6   3   4    2.59    1.44
  -6   3   4   -0.33    0.38
   5  -3  -4    2.92    0.21
   5  -3  -4    2.35    0.24
   5  -3  -4    3.06    0.27
  -5   3   4    2.96    1.18
  -5   3   4    3.19    0.60
  -5   3   4    2.20    0.45
   4  -3  -4    0.70    0.18
   4  -3  -4    1.12    0.22
   4  -3  -4    0.69    0.23
  -4   3   4    1.64    0.64
  -4   3   4    1.12    0.42
  -4   3   4    0.86    0.93
   3  -3  -4  241.30    5.81
   3  -3  -4  238.29    6.64
   3  -3  -4  225.15    6.64
  -3   3   4  232.70    8.39
  -3   3   4  246.50    6.64
  -3   3   4  235.55    5.81
  -3   3   4  245.85    8.43
  -3   3   4  233.45    6.63
   2  -3  -4  177.49    4.40
   2  -3  -4  171.09    6.36
   2  -3  -4  176.52    5.04
   2  -3  -4  180.77    9.04
   2  -3  -4  181.07    5.03
  -2   3   4  179.38    5.04
  -2   3   4  179.01    6.44
  -2   3   4  174.69    6.39
  -2   3   4  183.87    5.05
  -2   3   4  175.25    4.40
   1  -3  -4   55.14    2.71
   1  -3  -4   50.77    1.62
   1  -3  -4   51.62    1.60
   1  -3  -4   48.05    2.26
   1  -3  -4   50.29    2.16
  -1   3   4   52.79    1.65
  -1   3   4   52.92    2.29
  -1   3   4   52.02    1.42
  -1   3   4   50.59    2.20
   0  -3  -4   46.77    2.15
   0  -3  -4   44.52    1.45
   0   3   4   44.49    1.26
   0   3   4   44.15    2.08
   0   3   4   46.10    1.49
   0   3   4   44.16    2.06
  -1  -3  -4  128.01    3.71
  -1  -3  -4  133.08    4.83
  -1  -3  -4  127.26    4.80
   1   3   4  124.42    4.93
   1   3   4  123.19    3.71
   1   3   4  127.16    4.83
   1   3   4  126.46    3.25
  -2  -3  -4   54.02    2.48
  -2  -3  -4   52.62    2.43
  -2  -3  -4   50.13    1.67
   2   3   4   49.54    1.69
   2   3   4   50.10    1.47
   2   3   4   48.01    2.73
  -3  -3  -4   50.15    2.44
  -3  -3  -4   47.52    1.59
  -3  -3  -4   46.55    2.37
   3   3   4   45.12    1.41
   3   3   4   44.20    1.59
  -4  -3  -4    4.85    1.10
  -4  -3  -4    6.04    0.58
  -4  -3  -4    6.66    1.19
   4   3   4    5.55    0.63
   4   3   4    4.64    0.48
  -5  -3  -4    2.20    0.49
  -5  -3  -4    1.86    0.97
  -5  -3  -4    1.13    1.10
   5   3   4    2.24    0.56
   5   3   4    2.21    0.47
  -6  -3  -4    2.25    1.07
   6   3   4    1.09    0.60
   6   3   4    2.10    0.53
  -7  -3  -4    8.57    1.41
   7   3   4    7.34    0.86
   7   3   4    6.44    0.67
  -8  -3  -4   14.90    1.70
   8   3   4   11.81    0.87
   8   3   4   10.78    1.02
 -10   4   4   26.54    1.30
   9  -4  -4   39.69    1.29
  -9   4   4   41.29    1.70
  -9   4   4   39.00    1.69
   8  -4  -4   14.13    0.54
   8  -4  -4   12.94    0.60
  -8   4   4   13.21    0.89
  -8   4   4   14.29    0.99
   7  -4  -4   56.46    1.72
   7  -4  -4   59.25    1.70
   7  -4  -4   58.15    1.49
  -7   4   4   54.28    2.24
  -7   4   4   59.16    2.33
   6  -4  -4  100.34    2.47
   6  -4  -4   95.22    2.84
   6  -4  -4  103.01    2.83
  -6   4   4   96.34    3.63
  -6   4   4   97.22    3.69
   5  -4  -4  169.52    4.65
   5  -4  -4  163.37    4.05
   5  -4  -4  162.71    4.66
  -5   4   4  160.60    5.90
  -5   4   4  165.95    5.95
   4  -4  -4  166.06    4.83
   4  -4  -4  173.61    4.21
   4  -4  -4  173.63    4.82
  -4   4   4  175.16    6.18
  -4   4   4  169.01    6.13
  -4   4   4  168.10    4.19
  -4   4   4  166.95    4.80
   3  -4  -4   45.32    1.41
   3  -4  -4   45.03    1.22
   3  -4  -4   43.15    1.41
  -3   4   4   44.68    1.42
  -3   4   4   45.19    1.24
  -3   4   4   41.61    1.90
  -3   4   4   45.27    1.42
  -3   4   4   43.87    2.07
   2  -4  -4    0.18    0.53
   2  -4  -4   -0.02    0.25
   2  -4  -4   -0.58    0.47
   2  -4  -4    0.26    0.26
  -2   4   4    0.42    0.25
  -2   4   4    0.08    0.31
  -2   4   4    0.45    0.85
  -2   4   4    0.09    0.56
   1  -4  -4   29.69    1.78
   1  -4  -4   28.81    1.06
   1  -4  -4   30.61    1.66
   1  -4  -4   31.60    1.50
  -1   4   4   30.79    1.88
  -1   4   4   29.70    1.11
  -1   4   4   30.11    0.93
  -1   4   4   29.69    1.61
   0  -4  -4  110.50    3.29
   0  -4  -4  110.96    4.33
   0   4   4  108.36    4.31
   0   4   4  112.66    3.29
   0   4   4  111.12    4.29
   0   4   4  111.70    2.87
  -1  -4  -4  252.35    8.65
  -1  -4  -4  236.40    6.76
  -1  -4  -4  247.01    8.65
   1   4   4  227.51    8.69
   1   4   4  234.09    8.64
   1   4   4  232.10    5.90
   1   4   4  232.04    6.75
  -2  -4  -4  125.53    4.78
  -2  -4  -4  123.08    3.63
  -2  -4  -4  126.22    4.81
   2   4   4  116.46    3.15
   2   4   4  116.17    3.63
  -3  -4  -4   36.65    1.41
  -3  -4  -4   39.19    2.23
  -3  -4  -4   39.52    2.32
   3   4   4   38.05    1.42
   3   4   4   36.23    1.21
  -4  -4  -4   41.96    1.53
  -4  -4  -4   37.94    2.34
  -4  -4  -4   44.54    2.30
   4   4   4   38.47    1.51
   4   4   4   39.55    1.31
  -5  -4  -4   20.46    1.78
  -5  -4  -4   19.33    1.01
   5   4   4   17.87    1.07
   5   4   4   16.36    0.91
  -6  -4  -4    4.12    1.22
   6   4   4    5.39    0.63
   6   4   4    3.97    0.72
   7   4   4    1.18    0.62
   7   4   4    0.33    0.71
   8   4   4    0.61    0.81
   8   4   4   -0.58    0.63
 -12   5   4    3.67    1.18
 -12   5   4    3.59    0.80
 -11   5   4    7.46    0.85
  10  -5  -4   -0.66    0.35
 -10   5   4   -0.42    0.61
   9  -5  -4   18.80    0.79
  -9   5   4   17.36    1.13
   8  -5  -4   -0.10    0.30
  -8   5   4    0.05    0.54
  -8   5   4   -0.19    0.74
   7  -5  -4   20.18    0.77
   7  -5  -4   18.88    0.78
  -7   5   4   19.42    1.42
  -7   5   4   17.33    1.17
   6  -5  -4  163.82    4.59
   6  -5  -4  167.72    4.02
   6  -5  -4  158.29    4.62
  -6   5   4  158.05    5.88
  -6   5   4  162.04    5.93
   5  -5  -4   60.82    1.93
   5  -5  -4   64.04    1.67
   5  -5  -4   64.96    1.92
  -5   5   4   62.65    2.72
  -5   5   4   63.51    2.57
   4  -5  -4   58.36    1.86
   4  -5  -4   60.52    1.60
   4  -5  -4   61.01    1.84
  -4   5   4   60.29    1.88
  -4   5   4   59.11    2.68
  -4   5   4   60.40    1.61
  -4   5   4   58.47    1.83
  -4   5   4   59.94    2.50
   3  -5  -4   35.24    1.21
  -3   5   4   36.76    1.76
  -3   5   4   36.23    1.99
  -3   5   4   35.78    1.06
  -3   5   4   34.57    1.24
   2  -5  -4   23.11    1.36
   2  -5  -4   21.71    0.88
   2  -5  -4   20.91    1.66
  -2   5   4   22.30    0.77
  -2   5   4   22.27    1.78
  -2   5   4   22.25    1.42
  -2   5   4   23.58    0.94
   1  -5  -4   11.36    1.06
   1  -5  -4   13.64    0.68
   1  -5  -4   14.29    1.12
  -1   5   4   12.39    0.77
  -1   5   4   13.99    1.42
  -1   5   4   13.14    0.65
  -1   5   4   13.34    1.32
   0  -5  -4    9.58    1.26
   0  -5  -4    9.90    0.63
   0   5   4   10.41    1.09
   0   5   4   10.14    0.76
   0   5   4    9.06    0.63
  -1  -5  -4    3.81    1.12
  -1  -5  -4    4.52    0.52
  -1  -5  -4    5.20    0.97
   1   5   4    4.51    0.44
   1   5   4    4.41    0.54
  -2  -5  -4    0.63    0.44
  -2  -5  -4   -1.82    1.18
  -2  -5  -4    0.21    0.98
   2   5   4    0.29    0.38
   2   5   4    0.85    0.52
  -3  -5  -4    0.59    0.97
  -3  -5  -4    0.31    0.45
   3   5   4   -0.17    0.51
   3   5   4    0.05    0.39
  -4  -5  -4   15.00    1.47
  -4  -5  -4   13.06    0.91
   4   5   4   14.49    0.84
   4   5   4   13.70    0.91
  -5  -5  -4   34.59    2.28
   5   5   4   32.20    1.47
   5   5   4   30.82    1.20
   6   5   4   10.16    0.90
   6   5   4   10.20    0.79
   7   5   4    7.46    0.96
   7   5   4    6.87    0.78
 -12   6   4    9.08    0.97
 -11   6   4    7.87    0.91
  10  -6  -4    2.49    0.45
 -10   6   4    2.10    0.70
   9  -6  -4    0.23    0.37
  -9   6   4    0.56    0.64
   8  -6  -4    0.87    0.37
  -8   6   4    1.35    0.64
   7  -6  -4    1.13    0.32
   7  -6  -4    0.54    0.35
  -7   6   4   -0.20    0.94
  -7   6   4    0.47    0.64
   6  -6  -4   37.99    1.33
   6  -6  -4   40.30    1.30
  -6   6   4   37.73    1.85
  -6   6   4   37.60    2.18
   5  -6  -4   10.50    0.59
   5  -6  -4    8.44    0.58
  -5   6   4    9.78    0.53
  -5   6   4    9.25    0.93
  -5   6   4    8.23    0.53
  -5   6   4   11.12    1.26
   4  -6  -4    0.52    0.32
  -4   6   4    0.45    0.37
  -4   6   4   -1.03    1.06
  -4   6   4    0.12    0.69
  -4   6   4    0.48    0.31
   3  -6  -4   22.78    0.97
  -3   6   4   25.76    1.94
  -3   6   4   23.65    0.85
  -3   6   4   24.74    1.55
  -3   6   4   23.57    1.00
   2  -6  -4   75.65    4.28
   2  -6  -4   76.43    2.41
   2  -6  -4   77.75    3.18
  -2   6   4   76.79    3.18
  -2   6   4   79.42    3.49
  -2   6   4   77.12    2.41
  -2   6   4   77.00    2.09
   1  -6  -4   53.25    1.82
   1  -6  -4   59.24    2.59
   1  -6  -4   54.10    3.10
  -1   6   4   55.55    2.54
  -1   6   4   56.65    1.62
  -1   6   4   54.83    1.87
   0  -6  -4   35.21    2.40
   0  -6  -4   33.99    1.31
   0   6   4   35.10    1.38
   0   6   4   37.62    2.14
   0   6   4   34.90    1.18
  -1  -6  -4    3.18    0.52
  -1  -6  -4    3.44    0.94
  -1  -6  -4    2.00    1.21
   1   6   4    3.43    0.48
   1   6   4    4.15    0.59
  -2  -6  -4    1.98    0.91
  -2  -6  -4    1.63    0.51
   2   6   4    1.91    0.44
   2   6   4    1.27    0.52
  -3  -6  -4    1.49    0.54
   3   6   4    1.94    0.47
   3   6   4    2.06    0.60
  -4  -6  -4    3.59    0.66
   4   6   4    3.52    0.59
   4   6   4    2.94    0.70
   5   6   4    5.62    0.65
   5   6   4    6.15    0.83
   6   6   4    0.06    0.61
   6   6   4    0.24    0.75
 -11   7   4    0.96    0.81
  10  -7  -4   14.60    0.86
 -10   7   4   15.39    1.27
   9  -7  -4   24.47    1.06
  -9   7   4   23.99    1.53
   8  -7  -4   17.18    0.87
  -8   7   4   18.86    1.35
   7  -7  -4   14.21    0.78
  -7   7   4   14.83    1.22
   6  -7  -4    1.81    0.43
  -6   7   4    2.72    0.79
   5  -7  -4    7.84    0.63
  -5   7   4    6.77    0.51
  -5   7   4    7.98    0.57
  -5   7   4    8.78    0.98
   4  -7  -4   -0.12    0.36
  -4   7   4   -0.17    0.33
  -4   7   4    0.10    0.44
  -4   7   4    0.60    0.80
   3  -7  -4   15.95    0.87
  -3   7   4   19.33    1.40
  -3   7   4   18.86    0.92
  -3   7   4   17.15    0.78
   2  -7  -4   65.25    2.85
   2  -7  -4   59.19    2.06
  -2   7   4   63.98    2.10
  -2   7   4   63.60    2.90
  -2   7   4   64.58    1.81
   1  -7  -4    0.70    0.40
  -1   7   4    0.47    0.42
  -1   7   4    0.76    0.94
  -1   7   4    0.00    0.50
   0  -7  -4   -0.07    0.42
   0  -7  -4   -0.46    0.48
   0   7   4    0.22    0.43
   0   7   4    0.56    0.54
  -1  -7  -4    2.37    0.55
   1   7   4    2.32    0.60
   1   7   4    2.44    0.46
  -2  -7  -4    8.11    0.75
   2   7   4    7.96    0.75
   2   7   4    7.99    0.65
  -3  -7  -4    5.46    0.72
   3   7   4    6.18    0.74
   3   7   4    5.58    0.64
   4   7   4    2.89    0.69
   4   7   4    2.91    0.63
   5   7   4    0.57    0.76
   5   7   4    1.23    0.58
   6   7   4    2.03    0.71
   6   7   4    1.29    0.84
  11  -8  -4    1.86    0.55
 -11   8   4    2.34    0.94
  10  -8  -4    0.74    0.50
 -10   8   4    1.40    0.88
   9  -8  -4   24.07    1.07
  -9   8   4   23.07    1.60
   8  -8  -4    9.07    0.69
  -8   8   4    8.62    1.04
   7  -8  -4    6.85    0.61
  -7   8   4    5.26    0.95
   6  -8  -4   19.15    0.95
  -6   8   4   20.72    1.54
   5  -8  -4   18.48    0.96
  -5   8   4   18.96    0.92
  -5   8   4   21.24    1.53
  -5   8   4   20.41    0.84
   4  -8  -4   39.81    1.52
  -4   8   4   43.23    1.30
  -4   8   4   41.02    1.51
  -4   8   4   41.47    2.19
   3  -8  -4   25.15    1.14
  -3   8   4   26.05    1.15
  -3   8   4   26.39    1.79
  -3   8   4   25.55    0.98
   2  -8  -4    0.18    0.46
  -2   8   4    0.19    0.52
  -2   8   4    0.75    0.39
   1  -8  -4    3.64    0.58
  -1   8   4    5.08    0.65
  -1   8   4    3.96    0.49
   0  -8  -4    0.42    0.51
   0   8   4   -0.02    0.46
   0   8   4    0.07    0.56
  -1  -8  -4   18.33    1.08
   1   8   4   16.64    0.92
   1   8   4   16.23    1.01
  -2  -8  -4   20.90    1.12
   2   8   4   21.55    1.04
   2   8   4   19.70    1.14
  -3  -8  -4    4.33    0.76
   3   8   4    5.11    0.76
   3   8   4    4.77    0.68
   4   8   4    2.64    0.75
   4   8   4    2.95    0.69
   5   8   4    3.11    0.68
   5   8   4    3.35    0.84
  11  -9  -4   15.31    1.01
 -11   9   4   16.35    1.58
  10  -9  -4   16.91    1.03
 -10   9   4   15.46    1.61
   9  -9  -4   -0.43    0.52
  -9   9   4    1.09    0.94
   8  -9  -4    1.67    0.55
  -8   9   4    2.45    0.94
   7  -9  -4    1.44    0.54
  -7   9   4    3.34    0.93
   6  -9  -4   13.50    0.90
  -6   9   4   16.44    1.59
   5  -9  -4   39.47    1.55
  -5   9   4   39.88    1.46
  -5   9   4   41.97    1.31
  -5   9   4   40.61    2.21
   4  -9  -4   25.00    1.18
  -4   9   4   24.74    1.17
  -4   9   4   26.51    1.03
   3  -9  -4   18.09    1.04
  -3   9   4   19.92    0.90
  -3   9   4   19.32    1.05
   2  -9  -4   14.37    0.96
  -2   9   4   13.53    0.75
  -2   9   4   13.72    0.97
   1  -9  -4   14.01    0.92
  -1   9   4   15.34    0.88
  -1   9   4   14.31    1.02
   0  -9  -4   18.05    1.11
   0   9   4   16.89    1.11
   0   9   4   17.70    0.96
  -1  -9  -4    2.93    0.66
   1   9   4    2.76    0.60
   1   9   4    2.74    0.73
  -2  -9  -4    0.90    0.66
   2   9   4    0.49    0.57
   2   9   4    0.54    0.70
  -3  -9  -4    1.66    0.73
   3   9   4    0.73    0.71
   3   9   4    1.64    0.61
   4   9   4   -0.74    0.72
   4   9   4    0.47    0.67
  10 -10  -4   13.44    1.04
 -10  10   4   12.52    1.44
   9 -10  -4    4.27    0.70
  -9  10   4    5.57    1.16
   8 -10  -4   11.85    0.91
   7 -10  -4   21.25    1.12
   6 -10  -4    7.24    0.74
   5 -10  -4   -0.20    0.52
   4 -10  -4    2.96    0.62
  -4  10   4    2.99    0.64
  -4  10   4    3.94    0.54
   3 -10  -4    0.35    0.53
  -3  10   4    0.32    0.60
  -3  10   4    0.34    0.48
   2 -10  -4   19.66    1.11
  -2  10   4   19.86    1.17
  -2  10   4   19.81    0.99
   1 -10  -4   22.85    1.21
  -1  10   4   23.55    1.20
  -1  10   4   22.37    1.03
   0 -10  -4   33.61    1.49
   0  10   4   33.04    1.53
   0  10   4   30.33    1.29
  -1 -10  -4   11.39    0.97
   1  10   4   11.15    0.85
   1  10   4   11.05    0.97
  -2 -10  -4    6.96    0.92
   2  10   4    7.79    0.95
   2  10   4    5.68    0.72
   3  10   4    2.94    0.71
   3  10   4    3.17    0.92
   9 -11  -4   12.91    1.08
   8 -11  -4   13.88    1.08
   7 -11  -4   28.26    1.38
   6 -11  -4   13.18    1.01
   5 -11  -4    2.81    0.64
   4 -11  -4    2.20    0.68
  -4  11   4    2.91    0.58
   3 -11  -4    4.29    0.77
  -3  11   4    3.27    0.74
  -3  11   4    3.82    0.62
   2 -11  -4    2.57    0.68
  -2  11   4    1.41    0.54
  -2  11   4    1.98    0.74
   1 -11  -4    1.25    0.72
  -1  11   4    1.30    0.61
  -1  11   4    1.05    0.73
   0 -11  -4    0.11    0.72
   0  11   4    0.93    0.77
   0  11   4   -0.10    0.61
  -1 -11  -4    1.06    0.79
   1  11   4    0.90    0.61
   1  11   4    0.61    0.81
   8 -12  -4    6.39    0.87
   7 -12  -4    2.66    0.73
   6 -12  -4    3.32    0.77
   5 -12  -4    5.25    0.82
   4 -12  -4    9.70    0.97
   3 -12  -4   11.67    1.05
  -3  12   4   11.63    0.86
  -3  12   4   10.71    1.00
   2 -12  -4    2.65    0.80
  -2  12   4    1.92    0.83
  -2  12   4    2.84    0.68
   1 -12  -4    1.43    0.81
  -1  12   4    1.79    0.84
  -1  12   4    0.85    0.61
   0 -12  -4    0.87    0.77
   0  12   4    1.33    0.89
   0  12   4    0.96    0.70
   6 -13  -4    0.94    0.76
   5 -13  -4    6.17    0.93
   4 -13  -4    5.37    0.92
   3 -13  -4    2.64    0.87
   1  14  -5    0.73    0.85
  -1 -14   5    0.98    0.92
   0  14  -5    8.60    1.03
   0 -14   5    8.55    1.15
  -1  14  -5    4.85    0.87
   1 -14   5    5.65    1.04
  -2  14  -5   12.53    1.10
   2 -14   5   10.69    1.15
  -3  14  -5   13.67    1.10
   3 -14   5   11.06    1.18
   4 -14   5    8.99    1.14
   5 -14   5    8.61    1.13
   3  13  -5    4.84    0.92
  -3 -13   5    3.72    2.50
   2  13  -5   11.37    1.08
   1  13  -5   14.44    1.15
  -1 -13   5   14.31    1.25
   0  13  -5    0.08    0.73
   0 -13   5    0.13    0.83
  -1  13  -5    1.00    0.68
   1 -13   5    0.34    0.80
  -2  13  -5    2.19    0.76
   2 -13   5    2.24    0.80
  -3  13  -5   17.80    1.21
   3 -13   5   15.44    1.27
  -4  13  -5   28.68    1.45
   4 -13   5   29.40    1.66
   5 -13   5   19.66    1.45
   6 -13   5   21.65    1.52
   7 -13   5    9.52    1.15
   4  12  -5    2.60    0.80
  -4 -12   5    2.57    2.29
   3  12  -5    5.28    0.81
  -3 -12   5    5.19    2.19
   2  12  -5    9.00    0.89
  -2 -12   5    9.79    1.03
   1  12  -5   18.84    1.16
  -1 -12   5   18.27    1.34
   0  12  -5    7.85    0.83
   0 -12   5    5.70    0.94
  -1  12  -5    1.56    0.70
   1 -12   5    1.63    0.78
  -2  12  -5   16.70    1.07
   2 -12   5   15.68    1.28
  -3  12  -5    3.55    0.72
   3 -12   5    3.21    0.83
  -4  12  -5    0.81    0.63
   4 -12   5    0.95    0.72
   5 -12   5    0.21    0.74
   6 -12   5    0.12    0.79
   7 -12   5    9.61    1.12
   8 -12   5    6.28    1.04
   5  11  -5    1.72    0.75
  -5 -11   5    1.92    2.26
   4  11  -5    1.84    0.70
  -4 -11   5   -0.22    2.07
   3  11  -5    0.10    0.64
  -3 -11   5   -2.38    1.73
   2  11  -5    0.77    0.63
  -2 -11   5   -0.04    0.68
   1  11  -5   -0.06    0.56
  -1 -11   5   -0.46    0.66
   0  11  -5    6.95    0.74
   0 -11   5    7.70    0.90
  -1  11  -5    0.44    0.59
   1 -11   5    0.39    0.63
  -2  11  -5   24.64    1.24
   2 -11   5   24.65    1.40
  -3  11  -5   24.71    1.23
   3 -11   5   23.92    1.33
  -4  11  -5    3.07    0.63
   4 -11   5    1.44    0.66
  -5  11  -5    1.82    0.62
   5 -11   5    0.95    0.67
   6 -11   5    7.88    0.97
   7 -11   5    0.34    0.79
   8 -11   5    0.04    0.84
   6  10  -5    1.58    0.72
  -6 -10   5    0.56    2.27
   5  10  -5    5.87    0.79
  -5 -10   5    5.08    2.23
   4  10  -5   10.05    0.84
  -4 -10   5    6.98    2.37
   3  10  -5   -0.45    0.55
  -3 -10   5   -0.18    0.61
  -3 -10   5   -1.67    1.97
   2  10  -5   -0.01    0.51
  -2 -10   5    0.50    0.63
   1  10  -5    5.50    0.70
  -1 -10   5    4.86    0.76
   0  10  -5    1.11    0.56
   0 -10   5    1.19    0.66
  -1  10  -5    1.21    0.51
   1 -10   5    1.00    0.64
  -2  10  -5    3.88    0.62
   2 -10   5    3.53    0.70
  -3  10  -5   -0.70    0.49
   3 -10   5    0.05    0.57
  -4  10  -5    0.18    0.51
  -4  10  -5    1.68    1.48
   4 -10   5    0.02    0.62
  -5  10  -5    1.14    0.51
  -5  10  -5    1.84    1.57
   5 -10   5    0.88    0.69
  -6  10  -5   34.85    3.05
   6 -10   5   31.43    1.57
  -7  10  -5   19.63    2.14
   7 -10   5   16.91    1.23
  -8  10  -5    6.74    1.96
   8 -10   5    3.29    0.90
   8 -10   5    5.55    0.81
   9 -10   5    9.13    1.12
   9 -10   5    7.61    0.91
   7   9  -5    0.75    0.65
  -7  -9   5    0.63    1.22
  -7  -9   5   -0.54    1.94
   6   9  -5    0.33    0.63
  -6  -9   5    0.95    1.07
  -6  -9   5    0.77    2.05
   5   9  -5    5.49    0.71
  -5  -9   5    5.39    2.04
  -5  -9   5    7.35    1.25
   4   9  -5   10.96    0.90
  -4  -9   5    7.61    2.30
  -4  -9   5   13.22    1.42
   3   9  -5   10.02    0.85
  -3  -9   5    9.90    0.80
  -3  -9   5   11.69    1.28
   2   9  -5    7.88    0.71
  -2  -9   5    7.30    1.21
  -2  -9   5    8.09    0.80
   1   9  -5   75.65    2.51
  -1  -9   5   84.74    3.55
  -1  -9   5   73.75    2.62
   0   9  -5   26.25    1.19
   0  -9   5   31.95    2.09
   0  -9   5   28.46    1.38
  -1   9  -5    3.23    0.57
   1  -9   5    0.44    0.69
   1  -9   5    3.26    0.66
  -2   9  -5   12.18    1.32
  -2   9  -5   13.24    1.78
  -2   9  -5   10.89    0.85
   2  -9   5   12.11    0.93
  -3   9  -5    2.20    0.53
  -3   9  -5    3.02    0.93
  -3   9  -5    5.47    1.53
   3  -9   5    2.87    0.66
  -4   9  -5   11.89    0.82
  -4   9  -5   12.99    1.75
   4  -9   5   11.94    0.96
  -5   9  -5    3.99    1.55
  -5   9  -5    3.28    0.53
   5  -9   5    2.68    0.67
  -6   9  -5   10.22    1.78
   6  -9   5    9.37    0.96
   6  -9   5    9.44    0.79
  -7   9  -5   11.84    1.96
   7  -9   5    8.98    0.98
   7  -9   5    8.92    0.86
  -8   9  -5    2.46    1.73
   8  -9   5    1.02    0.70
   8  -9   5    1.06    0.78
  -9   9  -5    6.37    2.08
   9  -9   5    4.39    0.97
   9  -9   5    5.21    0.88
   8   8  -5   16.43    1.06
  -8  -8   5   18.90    1.81
  -8  -8   5   12.04    2.83
   7   8  -5   13.72    0.96
  -7  -8   5   13.47    1.44
  -7  -8   5   10.41    2.43
   6   8  -5    3.46    0.61
  -6  -8   5    4.11    1.07
  -6  -8   5    2.94    1.92
   5   8  -5    0.23    0.51
  -5  -8   5   -0.19    1.62
  -5  -8   5    1.17    1.02
   4   8  -5    1.13    0.51
  -4  -8   5    1.02    1.71
  -4  -8   5    0.84    1.01
  -4  -8   5    1.56    0.49
   3   8  -5   23.66    1.10
  -3  -8   5   26.63    1.16
  -3  -8   5   27.29    1.73
   2   8  -5   31.00    1.26
  -2  -8   5   31.50    1.36
  -2  -8   5   31.56    2.03
   1   8  -5   85.99    4.06
   1   8  -5   82.84    2.67
  -1  -8   5   82.10    2.75
  -1  -8   5   88.93    3.70
   0   8  -5  138.88    5.70
   0   8  -5  135.21    4.10
   0  -8   5  132.17    4.19
   0  -8   5  144.15    5.40
  -1   8  -5   20.82    1.67
  -1   8  -5   15.95    0.88
  -1   8  -5   17.81    0.95
   1  -8   5   17.79    1.00
  -2   8  -5   60.47    3.41
  -2   8  -5   60.73    2.83
  -2   8  -5   54.54    1.93
   2  -8   5   54.20    2.08
   2  -8   5   64.80    2.96
  -3   8  -5  105.75    4.17
  -3   8  -5   99.55    4.50
  -3   8  -5   97.24    3.08
   3  -8   5   99.45    3.24
   3  -8   5  100.51    4.28
  -4   8  -5   22.28    1.03
  -4   8  -5   26.22    2.65
  -4   8  -5   21.91    1.75
   4  -8   5   21.01    1.08
   4  -8   5   21.67    1.16
  -5   8  -5    2.52    1.44
  -5   8  -5    1.92    0.47
  -5   8  -5    1.83    0.94
   5  -8   5    1.65    0.66
   5  -8   5    1.26    0.57
  -6   8  -5    7.79    1.67
  -6   8  -5    6.37    1.16
   6  -8   5    5.28    0.69
   6  -8   5    4.63    0.74
  -7   8  -5    2.87    1.64
   7  -8   5    2.86    0.76
   7  -8   5    1.30    0.62
  -8   8  -5   12.36    1.93
   8  -8   5   10.27    1.02
   8  -8   5    9.98    0.89
  -9   8  -5   12.11    2.15
   9  -8   5   10.94    1.08
   9  -8   5   10.52    0.94
   9   7  -5    2.81    0.64
  -9  -7   5    2.44    1.15
  -9  -7   5   -2.89    2.22
   8   7  -5   12.10    0.94
  -8  -7   5    8.12    2.33
  -8  -7   5   13.01    1.36
   7   7  -5   29.24    1.27
  -7  -7   5   26.36    3.39
  -7  -7   5   34.26    1.91
   6   7  -5   10.73    0.80
  -6  -7   5   12.14    1.23
  -6  -7   5    7.80    2.25
   5   7  -5   28.55    1.22
  -5  -7   5   33.09    1.89
  -5  -7   5   27.48    3.57
   4   7  -5   77.65    2.58
  -4  -7   5   78.82    2.52
  -4  -7   5   89.76    3.47
   3   7  -5   28.46    1.20
  -3  -7   5   29.25    1.19
  -3  -7   5   30.82    1.87
   2   7  -5    4.28    0.53
  -2  -7   5    4.58    1.02
  -2  -7   5    5.55    0.60
   1   7  -5   -0.21    0.36
   1   7  -5    1.31    1.21
  -1  -7   5   -0.12    0.46
  -1  -7   5    0.92    0.85
   0   7  -5   37.97    1.43
   0   7  -5   38.99    2.13
   0   7  -5   40.78    2.46
   0  -7   5   39.11    1.54
   0  -7   5   39.91    2.18
  -1   7  -5   77.15    3.21
  -1   7  -5   71.01    2.33
   1  -7   5   72.43    2.45
  -2   7  -5  131.34    4.05
  -2   7  -5  136.59    5.55
  -2   7  -5  144.46    5.36
   2  -7   5  138.78    5.32
   2  -7   5  133.59    4.18
  -3   7  -5  255.87    7.50
  -3   7  -5  266.89    9.81
  -3   7  -5  273.56    9.66
   3  -7   5  259.63    6.67
   3  -7   5  256.29    7.64
   3  -7   5  268.15    9.65
  -4   7  -5  114.54    3.43
  -4   7  -5  117.28    5.07
  -4   7  -5  114.77    4.60
   4  -7   5  111.14    3.57
   4  -7   5  112.67    3.13
  -5   7  -5   10.82    1.66
  -5   7  -5    9.53    0.73
  -5   7  -5   11.47    1.23
   5  -7   5   10.44    0.76
   5  -7   5   11.21    0.93
  -6   7  -5   33.61    2.74
  -6   7  -5   28.62    1.14
  -6   7  -5   31.04    1.94
   6  -7   5   29.63    1.24
   6  -7   5   32.15    1.44
  -7   7  -5    7.16    1.18
  -7   7  -5    8.36    1.74
   7  -7   5    9.51    0.78
   7  -7   5    8.79    0.90
  -8   7  -5   -0.12    1.64
   8  -7   5    0.62    0.62
   8  -7   5    0.00    0.68
  -9   7  -5    0.86    1.81
   9  -7   5    0.07    0.72
   9  -7   5    1.09    0.69
 -10   7  -5   -0.46    1.75
  10  -7   5   -1.08    0.71
   9   6  -5   -0.31    0.52
  -9  -6   5   -2.14    1.91
  -9  -6   5    0.74    0.94
   8   6  -5    1.26    0.52
  -8  -6   5    1.21    1.97
  -8  -6   5    1.02    0.89
   7   6  -5   10.25    0.79
  -7  -6   5   11.09    1.14
  -7  -6   5   10.11    2.28
   6   6  -5    6.06    0.57
  -6  -6   5    5.70    0.95
  -6  -6   5    4.03    1.94
   5   6  -5   28.41    1.15
  -5  -6   5   28.13    1.71
  -5  -6   5   23.86    3.43
   4   6  -5  106.29    3.19
  -4  -6   5  114.60    4.17
  -4  -6   5  107.99    3.10
  -4  -6   5   88.17    6.62
   3   6  -5   68.16    2.21
  -3  -6   5   70.69    2.20
  -3  -6   5   70.60    2.98
   2   6  -5    3.61    0.45
  -2  -6   5    4.77    0.52
  -2  -6   5    3.60    0.81
   1   6  -5   37.79    1.35
   1   6  -5   35.79    2.34
  -1  -6   5   36.37    1.42
  -1  -6   5   39.52    2.02
   0   6  -5   26.34    1.63
   0   6  -5   24.60    1.05
   0   6  -5   27.05    2.12
   0  -6   5   27.27    1.71
   0  -6   5   27.27    1.17
  -1   6  -5    1.53    0.37
  -1   6  -5    0.87    0.75
  -1   6  -5    2.23    0.64
   1  -6   5    2.02    0.47
  -2   6  -5   -0.02    0.34
  -2   6  -5   -0.44    0.74
  -2   6  -5    0.66    1.10
   2  -6   5   -0.76    0.90
   2  -6   5   -0.06    0.38
   2  -6   5    0.52    0.43
  -3   6  -5    2.14    1.36
  -3   6  -5    3.69    0.91
  -3   6  -5    3.55    0.48
   3  -6   5    3.21    0.57
   3  -6   5    3.92    0.51
   3  -6   5    1.87    1.04
  -4   6  -5   17.80    0.87
  -4   6  -5   16.25    1.81
  -4   6  -5   19.07    1.53
   4  -6   5   17.78    0.96
   4  -6   5   17.93    0.90
  -5   6  -5    9.88    1.09
  -5   6  -5   10.50    1.72
  -5   6  -5   10.33    0.71
   5  -6   5    9.92    0.80
   5  -6   5   10.98    0.78
  -6   6  -5   59.90    2.78
  -6   6  -5   55.68    1.88
  -6   6  -5   66.93    3.43
   6  -6   5   61.00    1.86
   6  -6   5   59.04    2.11
  -7   6  -5   79.66    3.47
  -7   6  -5   82.75    4.00
   7  -6   5   75.39    2.29
   7  -6   5   74.19    2.63
  -8   6  -5   13.71    1.98
   8  -6   5   13.34    1.03
   8  -6   5   12.87    0.89
  -9   6  -5    5.03    1.82
   9  -6   5    4.86    0.74
   9  -6   5    3.95    0.85
 -10   6  -5    9.66    1.99
  10  -6   5    7.33    1.02
  10  -6   5    5.79    0.82
  10   5  -5    4.05    0.62
  10   5  -5    4.31    0.52
 -10  -5   5    5.22    1.04
 -10  -5   5    3.40    2.46
   9   5  -5    0.24    0.48
  -9  -5   5   -0.33    1.88
  -9  -5   5    0.11    0.80
   8   5  -5    1.11    0.44
  -8  -5   5   -0.13    1.70
  -8  -5   5    0.76    0.81
   7   5  -5    0.20    0.43
  -7  -5   5   -0.37    1.56
  -7  -5   5   -0.03    0.77
   6   5  -5    0.39    0.39
  -6  -5   5    1.06    1.65
  -6  -5   5    0.74    0.72
   5   5  -5    0.22    0.37
   5   5  -5   -0.05    0.32
  -5  -5   5    1.36    0.77
  -5  -5   5    0.44    1.64
   4   5  -5    3.99    0.44
   4   5  -5    2.97    0.44
  -4  -5   5    3.71    0.33
  -4  -5   5    3.40    1.79
  -4  -5   5    2.88    0.76
   3   5  -5   15.31    0.73
   3   5  -5   15.05    0.78
  -3  -5   5    8.86    2.09
  -3  -5   5   14.40    0.71
  -3  -5   5   13.95    1.23
  -3  -5   5   16.40    1.68
   2   5  -5   11.82    0.62
  -2  -5   5   13.79    1.45
  -2  -5   5   14.38    1.21
  -2  -5   5   10.79    0.69
   1   5  -5   32.07    2.06
   1   5  -5   32.86    1.16
  -1  -5   5   33.88    1.78
  -1  -5   5   30.31    1.24
  -1  -5   5   32.42    2.12
   0   5  -5  126.83    5.01
   0   5  -5  129.03    4.84
   0   5  -5  123.18    3.71
   0  -5   5  128.83    5.05
   0  -5   5  128.09    4.87
   0  -5   5  125.74    3.81
  -1   5  -5   15.15    1.30
  -1   5  -5   13.70    0.69
  -1   5  -5   14.54    1.25
   1  -5   5   14.43    1.39
   1  -5   5   14.44    0.85
   1  -5   5   14.01    0.71
  -2   5  -5    3.49    0.42
  -2   5  -5    3.63    1.15
  -2   5  -5    3.81    0.74
   2  -5   5    4.36    0.84
   2  -5   5    3.69    0.48
   2  -5   5    3.34    0.42
   2  -5   5    1.81    1.21
  -3   5  -5   29.51    2.45
  -3   5  -5   26.77    1.57
  -3   5  -5   28.96    1.10
   3  -5   5   27.85    1.16
   3  -5   5   28.79    1.04
   3  -5   5   26.34    1.84
  -4   5  -5   -0.64    0.78
  -4   5  -5    0.42    0.37
  -4   5  -5    0.68    1.32
   4  -5   5    1.08    0.40
   4  -5   5    0.10    0.46
  -5   5  -5    1.85    0.43
  -5   5  -5    2.90    1.50
  -5   5  -5    2.35    0.90
   5  -5   5    2.53    0.48
   5  -5   5    1.65    0.54
  -6   5  -5    0.23    1.34
  -6   5  -5    0.35    0.35
  -6   5  -5   -0.21    0.84
   6  -5   5    0.53    0.55
   6  -5   5    0.25    0.45
  -7   5  -5    6.52    1.65
  -7   5  -5    5.52    1.12
   7  -5   5    7.15    0.77
   7  -5   5    7.30    0.66
  -8   5  -5   -1.61    0.93
  -8   5  -5    1.59    1.57
   8  -5   5    0.83    0.58
   8  -5   5    0.53    0.64
  -9   5  -5    0.42    1.59
   9  -5   5   -0.40    0.60
   9  -5   5    0.08    0.73
 -10   5  -5    7.70    1.87
  10  -5   5    7.77    1.00
  10  -5   5    7.82    0.87
  10   4  -5    9.18    0.75
 -10  -4   5    9.30    1.07
 -10  -4   5    7.26    2.58
   9   4  -5    1.38    0.44
  -9  -4   5   -0.71    1.90
  -9  -4   5    1.14    0.76
   8   4  -5    6.25    0.53
  -8  -4   5    6.80    0.86
  -8  -4   5    5.56    1.88
   7   4  -5   37.33    1.33
  -7  -4   5   39.10    3.58
  -7  -4   5   39.96    1.83
   6   4  -5    1.95    0.38
   6   4  -5    2.46    0.37
  -6  -4   5    2.03    1.67
  -6  -4   5    1.76    0.71
   5   4  -5    0.60    0.33
   5   4  -5    1.13    0.32
  -5  -4   5    0.32    0.65
  -5  -4   5    1.19    1.32
  -5  -4   5   -0.28    1.51
   4   4  -5   -0.32    0.28
   4   4  -5   -0.16    0.28
  -4  -4   5    0.01    0.05
  -4  -4   5   -0.35    0.60
  -4  -4   5    0.02    0.17
  -4  -4   5   -0.49    1.33
  -4  -4   5   -0.09    1.22
   3   4  -5   14.24    0.66
   3   4  -5   15.97    0.65
   3   4  -5   15.01    0.74
  -3  -4   5   14.99    1.18
  -3  -4   5   14.54    0.63
  -3  -4   5    8.42    1.81
  -3  -4   5   13.34    1.41
  -3  -4   5   14.38    0.62
   2   4  -5    1.37    0.31
   2   4  -5    0.97    0.35
   2   4  -5    0.71    0.28
   2   4  -5    1.09    0.28
  -2  -4   5    0.55    0.34
  -2  -4   5    1.08    0.64
  -2  -4   5    1.09    0.98
   1   4  -5   12.44    0.72
   1   4  -5   11.93    0.59
   1   4  -5   12.24    0.58
   1   4  -5   12.00    1.10
  -1  -4   5    9.63    1.14
  -1  -4   5   12.74    0.72
  -1  -4   5   12.91    1.08
   0   4  -5   15.90    0.67
   0   4  -5   14.93    0.65
   0   4  -5   14.57    1.17
   0   4  -5   12.55    1.20
   0  -4   5   13.47    0.65
   0  -4   5   14.32    0.76
   0  -4   5   14.65    1.14
   0  -4   5   13.05    1.30
  -1   4  -5    0.21    0.27
  -1   4  -5    0.33    0.28
  -1   4  -5   -0.10    0.69
  -1   4  -5    0.19    0.59
   1  -4   5    0.41    0.92
   1  -4   5    0.40    0.34
   1  -4   5    0.76    0.37
   1  -4   5    0.05    0.28
  -2   4  -5   66.38    2.78
  -2   4  -5   64.52    3.15
  -2   4  -5   67.42    2.09
   2  -4   5   66.51    1.85
   2  -4   5   68.98    2.85
   2  -4   5   68.30    3.21
   2  -4   5   65.02    2.12
  -3   4  -5   29.65    1.66
  -3   4  -5   30.06    1.13
  -3   4  -5   28.99    2.04
   3  -4   5   29.41    1.03
   3  -4   5   28.90    1.89
   3  -4   5   30.70    1.20
  -4   4  -5   42.06    1.45
  -4   4  -5   42.32    2.09
  -4   4  -5   47.01    2.79
   4  -4   5   40.34    1.31
   4  -4   5   42.23    1.55
  -5   4  -5    9.08    1.56
  -5   4  -5    9.81    0.68
  -5   4  -5    9.21    1.09
   5  -4   5   10.04    0.81
   5  -4   5    9.68    0.70
  -6   4  -5    8.98    1.09
  -6   4  -5   10.20    1.55
  -6   4  -5    9.33    0.64
   6  -4   5   10.84    0.86
   6  -4   5   10.61    0.74
  -7   4  -5   14.27    1.36
  -7   4  -5   16.14    1.78
   7  -4   5   16.28    0.93
   7  -4   5   15.77    1.03
  -8   4  -5    0.86    1.05
  -8   4  -5    1.72    1.40
   8  -4   5    0.83    0.54
   8  -4   5    0.85    0.67
  -9   4  -5    1.92    1.53
   9  -4   5   -0.62    0.59
   9  -4   5   -0.64    0.66
 -10   4  -5    6.28    1.70
  10  -4   5    4.22    0.75
 -11  -3   5   -1.42    2.52
 -11  -3   5    0.08    0.79
  10   3  -5    1.56    0.43
 -10  -3   5   -1.01    2.09
 -10  -3   5    1.65    0.77
   9   3  -5    0.47    0.36
  -9  -3   5   -0.58    1.84
  -9  -3   5    0.18    0.67
   8   3  -5    4.18    0.43
  -8  -3   5    3.27    1.85
  -8  -3   5    3.77    0.70
   7   3  -5   40.37    1.39
  -7  -3   5   42.60    1.86
  -7  -3   5   47.18    3.92
   6   3  -5   23.02    0.90
   6   3  -5   24.73    0.91
  -6  -3   5   26.38    2.88
  -6  -3   5   24.19    2.26
  -6  -3   5   23.42    1.30
   5   3  -5    2.13    0.31
   5   3  -5    2.12    0.30
  -5  -3   5    2.92    1.50
  -5  -3   5    0.96    0.60
  -5  -3   5    1.26    1.13
   4   3  -5  100.51    2.94
   4   3  -5   99.09    2.94
   4   3  -5  106.48    2.97
  -4  -3   5  101.41    4.06
  -4  -3   5  102.10    3.79
  -4  -3   5   95.93    6.00
   3   3  -5  108.94    2.76
   3   3  -5  107.97    3.10
   3   3  -5  111.49    3.17
  -3  -3   5   93.20    6.22
  -3  -3   5  106.66    4.16
  -3  -3   5  104.13    4.02
  -3  -3   5  113.82    3.05
  -3  -3   5  105.93    3.06
   2   3  -5   61.40    1.65
   2   3  -5   63.60    1.90
   2   3  -5   57.54    2.46
   2   3  -5   58.44    1.79
  -2  -3   5   57.64    2.62
  -2  -3   5   59.60    2.46
  -2  -3   5   53.06    1.83
  -2  -3   5   60.05    1.77
   1   3  -5   32.57    1.10
   1   3  -5   32.56    1.61
   1   3  -5   32.97    1.05
   1   3  -5   35.94    1.24
   1   3  -5   33.85    1.78
  -1  -3   5   33.69    1.69
  -1  -3   5   32.45    1.20
  -1  -3   5   31.45    1.94
  -1  -3   5   33.89    1.09
  -1  -3   5   34.79    1.12
   0   3  -5    4.45    0.43
   0   3  -5    2.73    0.78
   0   3  -5    2.91    0.62
   0   3  -5    3.49    0.34
   0  -3   5    2.84    0.39
   0  -3   5    3.83    0.67
   0  -3   5    2.96    0.88
   0  -3   5    2.64    0.33
  -1   3  -5    1.42    0.56
  -1   3  -5    1.52    0.72
  -1   3  -5    1.52    0.31
   1  -3   5    1.86    0.35
   1  -3   5    1.64    0.90
   1  -3   5    1.50    0.28
   1  -3   5   -0.36    0.40
  -2   3  -5   10.11    1.08
  -2   3  -5    9.73    0.60
  -2   3  -5   11.68    1.05
   2  -3   5   11.07    1.22
   2  -3   5    8.61    0.61
   2  -3   5    9.17    0.52
   2  -3   5    8.67    0.96
  -3   3  -5   56.53    2.42
  -3   3  -5   54.46    1.77
  -3   3  -5   54.76    1.78
  -3   3  -5   58.28    2.70
   3  -3   5   51.84    2.56
   3  -3   5   55.45    1.57
   3  -3   5   54.55    1.81
  -4   3  -5   98.50    3.05
  -4   3  -5  105.44    4.42
  -4   3  -5  107.03    4.02
   4  -3   5  100.65    3.11
   4  -3   5   98.69    2.71
  -5   3  -5    0.69    0.86
  -5   3  -5    0.54    1.29
  -5   3  -5    0.75    0.39
   5  -3   5    0.80    0.41
   5  -3   5    0.89    0.51
  -6   3  -5    5.32    1.32
  -6   3  -5    5.03    0.46
  -6   3  -5    3.65    0.94
   6  -3   5    4.57    0.64
   6  -3   5    5.22    0.54
  -7   3  -5   23.30    2.20
  -7   3  -5   17.66    1.59
   7  -3   5   19.70    0.96
   7  -3   5   19.61    1.11
  -8   3  -5    6.15    1.51
   8  -3   5    6.34    0.78
   8  -3   5    5.99    0.66
  -9   3  -5    1.05    1.44
   9  -3   5    0.37    0.59
   9  -3   5    0.43    0.71
 -11  -2   5   11.29    1.10
 -11  -2   5    7.69    2.63
  10   2  -5   19.37    0.81
 -10  -2   5   16.17    2.80
 -10  -2   5   19.20    1.20
   9   2  -5   14.31    0.68
  -9  -2   5   14.40    0.99
  -9  -2   5   10.61    2.22
   8   2  -5   13.91    0.66
  -8  -2   5   13.55    2.28
  -8  -2   5   15.10    0.96
   7   2  -5    3.29    0.31
   7   2  -5    3.20    0.34
  -7  -2   5    2.29    0.56
  -7  -2   5    3.44    1.09
  -7  -2   5    3.15    1.65
   6   2  -5    9.80    0.48
   6   2  -5    9.79    0.49
  -6  -2   5    8.90    1.79
  -6  -2   5    8.17    1.09
  -6  -2   5    9.41    0.83
   5   2  -5    6.63    0.40
   5   2  -5    7.50    0.45
  -5  -2   5    7.20    0.90
  -5  -2   5    7.41    0.77
  -5  -2   5    5.70    1.41
   4   2  -5  152.24    4.37
   4   2  -5  161.93    4.43
   4   2  -5  158.81    3.88
  -4  -2   5  156.38    5.66
  -4  -2   5  154.26    5.59
  -4  -2   5  146.03    8.47
   3   2  -5  479.65   13.10
   3   2  -5  498.84   13.04
   3   2  -5  494.70   11.41
  -3  -2   5  429.65   23.88
  -3  -2   5  445.52   13.01
  -3  -2   5  467.74   16.38
  -3  -2   5  459.44   12.99
  -3  -2   5  469.64   16.38
   2   2  -5   84.50    2.49
   2   2  -5   89.43    2.58
   2   2  -5   88.77    2.24
   2   2  -5   81.80    3.23
  -2  -2   5   90.66    2.49
  -2  -2   5   84.58    3.30
  -2  -2   5   82.23    2.24
  -2  -2   5   87.23    3.39
  -2  -2   5   82.37    2.56
   1   2  -5  103.70    2.60
   1   2  -5   98.68    2.91
   1   2  -5  101.80    3.81
   1   2  -5  102.73    2.98
   1   2  -5   96.46    3.81
  -1  -2   5  100.61    3.88
  -1  -2   5   98.79    2.98
  -1  -2   5  104.49    2.92
  -1  -2   5  100.47    3.79
  -1  -2   5   98.69    2.60
   0   2  -5  184.77    5.32
   0   2  -5  189.64    6.79
   0   2  -5  193.05    5.37
   0  -2   5  180.04    6.87
   0  -2   5  195.07    6.80
   0  -2   5  183.37    4.69
   0  -2   5  182.57    5.36
   0  -2   5  195.71    5.33
  -1   2  -5   56.87    2.50
  -1   2  -5   54.28    1.73
  -1   2  -5   55.06    2.33
   1  -2   5   58.42    1.80
   1  -2   5   55.32    1.55
   1  -2   5   55.33    2.59
  -2   2  -5   12.06    1.15
  -2   2  -5   13.19    0.62
  -2   2  -5   12.58    1.01
   2  -2   5   12.74    1.34
   2  -2   5   14.42    0.64
   2  -2   5   12.99    0.69
   2  -2   5   13.36    1.38
  -3   2  -5   12.24    0.68
  -3   2  -5   12.36    1.20
  -3   2  -5   13.20    1.29
   3  -2   5   13.17    0.72
   3  -2   5   11.97    0.65
   3  -2   5   11.39    1.27
  -4   2  -5    1.26    0.38
  -4   2  -5    0.31    0.38
  -4   2  -5    0.73    0.82
  -4   2  -5    0.82    1.12
   4  -2   5    0.80    0.38
   4  -2   5    0.66    0.47
  -5   2  -5    1.09    1.24
  -5   2  -5    3.23    0.47
  -5   2  -5    2.00    0.91
   5  -2   5    2.42    0.51
   5  -2   5    2.91    0.46
  -6   2  -5    6.04    0.50
  -6   2  -5    7.89    1.32
  -6   2  -5    4.54    0.97
   6  -2   5    6.19    0.57
   6  -2   5    6.31    0.68
  -7   2  -5   52.61    2.85
  -7   2  -5   46.47    2.47
   7  -2   5   51.34    1.63
   7  -2   5   52.07    1.92
  -8   2  -5   29.09    2.25
   8  -2   5   27.11    1.42
   8  -2   5   28.58    1.23
  -9   2  -5    8.02    1.50
   9  -2   5    5.72    0.71
   9  -2   5    4.09    0.87
 -11  -1   5    9.27    0.94
 -11  -1   5    5.29    2.42
 -10  -1   5   38.36    4.03
 -10  -1   5   41.99    1.72
   9   1  -5   19.57    0.75
  -9  -1   5   22.04    3.01
  -9  -1   5   20.20    1.03
   8   1  -5   15.02    0.60
  -8  -1   5   16.41    0.84
  -8  -1   5   15.45    1.38
  -8  -1   5   15.98    2.28
   7   1  -5   81.76    2.25
   7   1  -5   77.42    2.24
  -7  -1   5   79.65    5.30
  -7  -1   5   75.12    3.02
  -7  -1   5   78.40    2.86
   6   1  -5   53.90    1.53
   6   1  -5   50.51    1.51
  -6  -1   5   53.53    3.93
  -6  -1   5   51.78    2.11
  -6  -1   5   51.33    1.99
   5   1  -5   65.90    1.90
   5   1  -5   66.76    1.73
   5   1  -5   65.97    1.93
  -5  -1   5   62.39    4.17
  -5  -1   5   66.61    2.49
  -5  -1   5   66.99    2.55
   4   1  -5   22.98    0.87
   4   1  -5   24.50    0.77
   4   1  -5   23.69    0.78
  -4  -1   5   23.59    1.22
  -4  -1   5   24.00    2.16
  -4  -1   5   24.35    1.23
   3   1  -5   19.24    0.70
   3   1  -5   20.14    0.71
   3   1  -5   19.98    0.81
  -3  -1   5   20.02    1.91
  -3  -1   5   19.76    1.15
  -3  -1   5   21.70    0.67
  -3  -1   5   22.30    1.21
   2   1  -5   14.30    0.97
   2   1  -5   14.11    0.57
   2   1  -5   14.09    0.57
   2   1  -5   15.62    0.68
  -2  -1   5   16.84    1.06
  -2  -1   5   14.03    0.60
  -2  -1   5   15.92    0.60
  -2  -1   5   13.58    1.79
  -2  -1   5   13.20    1.06
  -2  -1   5   15.28    0.70
   1   1  -5   96.79    3.80
   1   1  -5  103.49    2.61
   1   1  -5  104.05    2.95
   1   1  -5  101.32    3.83
   1   1  -5  103.08    3.00
  -1  -1   5  106.23    3.83
  -1  -1   5   99.04    2.60
  -1  -1   5   98.82    2.99
  -1  -1   5  104.06    3.86
  -1  -1   5  104.94    2.96
   0   1  -5  522.16   14.41
   0   1  -5  496.96   14.35
   0   1  -5  525.11   17.93
   0  -1   5  507.87   14.66
   0  -1   5  525.25   17.93
   0  -1   5  504.96   12.55
   0  -1   5  515.24   14.22
   0  -1   5  504.66   17.97
  -1   1  -5  534.00   18.11
  -1   1  -5  506.31   14.69
  -1   1  -5  521.84   18.14
   1  -1   5  517.59   12.94
   1  -1   5  504.73   14.61
   1  -1   5  517.65   18.17
  -2   1  -5  145.91    5.37
  -2   1  -5  141.96    5.26
  -2   1  -5  142.76    4.09
   2  -1   5  145.72    5.37
   2  -1   5  139.86    4.14
   2  -1   5  138.31    3.60
   2  -1   5  137.96    5.38
  -3   1  -5   82.60    3.29
  -3   1  -5   81.37    2.47
  -3   1  -5   85.31    3.48
   3  -1   5   76.84    3.52
   3  -1   5   80.63    2.18
   3  -1   5   79.59    2.50
  -4   1  -5   51.19    2.69
  -4   1  -5   52.30    2.42
  -4   1  -5   51.01    1.70
   4  -1   5   51.42    1.78
   4  -1   5   52.23    1.52
  -5   1  -5    3.20    0.49
  -5   1  -5    2.56    1.17
  -5   1  -5    1.69    0.92
   5  -1   5    3.04    0.44
   5  -1   5    2.74    0.57
  -6   1  -5    0.15    0.89
  -6   1  -5    0.07    1.08
   6  -1   5    0.43    0.44
   6  -1   5   -0.06    0.53
  -7   1  -5    6.26    1.29
  -7   1  -5    4.27    1.10
   7  -1   5    6.05    0.77
   7  -1   5    4.73    0.63
  -8   1  -5    3.60    1.26
   8  -1   5    1.77    0.70
   8  -1   5    3.37    0.61
  -9   1  -5    2.05    1.42
   9  -1   5    0.61    0.65
   9  -1   5   -0.29    0.77
 -11   0   5   -1.93    2.15
 -11   0   5    0.34    0.48
 -10   0   5   15.69    2.66
  -9   0   5    5.15    1.86
  -8   0   5    4.86    1.63
  -7   0   5   88.59    5.55
   6   0  -5  121.30    2.96
   6   0  -5  119.53    3.33
   6   0  -5  118.87    3.31
  -6   0   5  115.65    4.20
  -6   0   5  118.60    4.20
  -6   0   5  120.39    6.83
   5   0  -5   30.18    0.89
   5   0  -5   29.33    0.96
   5   0  -5   28.74    0.86
  -5   0   5   29.98    2.51
  -5   0   5   28.95    1.29
  -5   0   5   28.97    1.26
   4   0  -5   50.73    1.54
   4   0  -5   51.24    1.34
   4   0  -5   49.24    1.47
  -4   0   5   49.84    1.97
  -4   0   5   49.55    3.18
  -4   0   5   49.65    1.99
   3   0  -5   10.96    0.47
   3   0  -5   10.22    0.47
   3   0  -5   11.54    0.56
  -3   0   5   10.76    0.49
  -3   0   5   10.09    0.89
  -3   0   5   11.74    0.87
  -3   0   5   11.80    1.52
  -3   0   5   11.53    0.43
   2   0  -5    1.53    0.22
   2   0  -5    1.35    0.46
   2   0  -5    1.52    0.28
   2   0  -5    0.98    0.22
  -2   0   5    1.11    0.68
  -2   0   5    1.33    0.22
  -2   0   5    1.46    0.55
  -2   0   5    1.63    0.28
  -2   0   5    1.92    0.24
  -2   0   5    0.91    0.51
   1   0  -5    4.87    0.31
   1   0  -5    3.83    0.31
   1   0  -5    3.74    0.62
   1   0  -5    2.93    0.58
   1   0  -5    4.83    0.39
  -1   0   5    4.19    0.70
  -1   0   5    4.69    0.34
  -1   0   5    3.94    0.38
  -1   0   5    4.22    0.85
  -1   0   5    4.46    0.32
  -1   0   5    3.48    0.65
   0   0  -5   32.94    1.12
   0   0  -5   30.66    1.63
   0   0  -5   35.07    1.17
   0   0   5   34.53    1.02
   0   0   5   36.01    1.75
   0   0   5   34.80    1.20
   0   0   5   33.96    1.77
  -1   0  -5   43.21    1.42
  -1   0  -5   44.78    2.03
  -1   0  -5   43.59    2.07
   1   0   5   46.26    1.50
   1   0   5   44.12    1.27
   1   0   5   44.17    2.16
  -2   0  -5    0.33    0.30
  -2   0  -5    0.50    0.73
  -2   0  -5    0.60    0.70
   2   0   5    0.51    0.38
   2   0   5    0.22    0.28
   2   0   5    0.04    1.00
  -3   0  -5   13.19    0.73
  -3   0  -5   12.43    1.15
  -3   0  -5   13.95    1.29
   3   0   5   14.24    0.82
   3   0   5   13.67    0.64
  -4   0  -5  126.73    3.70
  -4   0  -5  128.62    4.98
  -4   0  -5  127.18    4.85
   4   0   5  120.80    3.25
   4   0   5  120.17    3.73
  -5   0  -5   52.62    2.49
  -5   0  -5   52.33    1.75
  -5   0  -5   53.32    2.67
   5   0   5   47.58    1.76
   5   0   5   48.43    1.55
  -6   0  -5   11.90    1.35
  -6   0  -5   14.27    1.48
   6   0   5   13.34    0.81
   6   0   5   14.34    0.95
  -7   0  -5   20.07    1.88
   7   0   5   14.54    0.91
   7   0   5   15.86    1.08
  -8   0  -5    4.59    1.31
   8   0   5    5.16    0.68
   8   0   5    3.99    0.79
  -9   0  -5    0.85    1.30
   9   0   5   -0.05    0.81
   9   0   5   -0.58    0.61
 -11   1   5    0.85    2.05
 -10   1   5    1.61    2.01
  -9   1   5    0.90    1.69
  -8   1   5    1.12    1.51
   7  -1  -5   23.46    0.69
  -7   1   5   26.27    2.81
   6  -1  -5   83.52    2.37
   6  -1  -5   82.93    2.33
   6  -1  -5   84.12    2.09
  -6   1   5   81.85    5.17
  -6   1   5   82.30    2.96
   5  -1  -5    5.07    0.38
   5  -1  -5    4.81    0.29
   5  -1  -5    5.13    0.33
  -5   1   5    5.39    0.56
  -5   1   5    4.20    0.46
  -5   1   5    4.65    1.22
   4  -1  -5    1.02    0.25
   4  -1  -5    0.72    0.18
   4  -1  -5    1.16    0.21
  -4   1   5    1.43    0.88
  -4   1   5    1.20    0.44
  -4   1   5    1.58    0.49
   3  -1  -5  104.29    2.61
   3  -1  -5  100.37    2.95
   3  -1  -5  101.67    2.99
  -3   1   5  100.32    2.59
  -3   1   5  110.25    2.94
  -3   1   5  101.48    3.81
  -3   1   5  107.29    5.59
  -3   1   5  102.67    2.96
  -3   1   5  102.16    3.81
   2  -1  -5   75.05    2.25
   2  -1  -5   76.36    2.28
   2  -1  -5   77.34    1.98
   2  -1  -5   73.76    2.89
  -2   1   5   75.73    2.28
  -2   1   5   77.97    4.18
  -2   1   5   76.22    2.98
  -2   1   5   81.70    2.27
  -2   1   5   74.17    1.99
  -2   1   5   78.47    2.98
   1  -1  -5   30.03    1.55
   1  -1  -5   33.39    1.11
   1  -1  -5   33.35    0.99
   1  -1  -5   31.78    1.13
   1  -1  -5   32.88    1.59
  -1   1   5   35.30    1.13
  -1   1   5   34.43    1.15
  -1   1   5   33.54    1.01
  -1   1   5   36.01    2.02
  -1   1   5   31.71    1.66
  -1   1   5   33.79    1.63
   0  -1  -5   25.05    0.90
   0  -1  -5   23.76    1.46
   0   1   5   24.98    1.51
   0   1   5   25.58    0.96
   0   1   5   25.64    1.60
   0   1   5   25.48    0.85
  -1  -1  -5    0.80    0.67
  -1  -1  -5   -0.37    0.64
  -1  -1  -5    0.00    0.28
   1   1   5    0.97    0.75
   1   1   5   -0.04    0.52
   1   1   5   -0.30    0.87
   1   1   5    0.26    0.28
   1   1   5    0.20    0.35
  -2  -1  -5   -0.42    0.76
  -2  -1  -5   -0.16    0.79
  -2  -1  -5   -0.08    0.31
   2   1   5   -0.33    1.11
   2   1   5    0.01    0.36
   2   1   5    0.43    0.29
   2   1   5   -0.71    0.59
  -3  -1  -5    4.99    0.99
  -3  -1  -5    4.54    0.47
  -3  -1  -5    3.96    1.03
   3   1   5    4.37    0.44
   3   1   5    4.22    0.55
   3   1   5    3.75    0.87
  -4  -1  -5   47.79    1.65
  -4  -1  -5   49.04    2.33
  -4  -1  -5   45.75    2.40
   4   1   5   46.87    1.66
   4   1   5   45.26    1.45
  -5  -1  -5   11.23    1.27
  -5  -1  -5   14.88    0.90
  -5  -1  -5   12.74    1.38
   5   1   5   11.62    0.75
   5   1   5   13.27    0.91
  -6  -1  -5   -0.31    1.08
   6   1   5   -0.07    0.46
   6   1   5   -0.37    0.57
  -7  -1  -5    4.51    1.32
   7   1   5    3.05    0.59
   7   1   5    3.89    0.73
  -8  -1  -5   11.54    1.56
   8   1   5    8.04    0.80
   8   1   5    7.98    0.92
 -10   2   5   13.60    2.35
  -9   2   5   10.15    2.03
  -8   2   5    4.36    1.66
   7  -2  -5    0.43    0.18
  -7   2   5    0.51    1.52
   6  -2  -5   38.79    1.03
   6  -2  -5   37.55    1.17
   6  -2  -5   38.16    1.14
  -6   2   5   38.81    3.03
  -6   2   5   38.18    1.56
  -6   2   5   36.48    1.51
   5  -2  -5    5.34    0.35
   5  -2  -5    5.23    0.35
   5  -2  -5    5.55    0.34
  -5   2   5    4.54    1.18
  -5   2   5    4.88    0.54
  -5   2   5    5.69    0.61
   4  -2  -5    3.49    0.26
   4  -2  -5    4.68    0.34
   4  -2  -5    3.71    0.33
  -4   2   5    3.79    0.52
  -4   2   5    3.73    0.99
  -4   2   5    3.99    0.67
   3  -2  -5  132.89    3.89
   3  -2  -5  137.96    3.92
   3  -2  -5  142.53    3.42
  -3   2   5  133.46    3.88
  -3   2   5  136.68    7.16
  -3   2   5  135.76    4.98
  -3   2   5  135.10    4.99
  -3   2   5  133.32    3.41
  -3   2   5  143.12    3.88
   2  -2  -5   39.73    1.14
   2  -2  -5   43.12    2.43
   2  -2  -5   38.12    1.76
   2  -2  -5   39.87    1.32
   2  -2  -5   39.54    1.28
  -2   2   5   41.73    2.38
  -2   2   5   38.44    1.14
  -2   2   5   41.37    1.30
  -2   2   5   38.88    1.32
  -2   2   5   39.79    1.81
  -2   2   5   38.51    1.91
   1  -2  -5   29.69    1.71
   1  -2  -5   33.13    1.62
   1  -2  -5   32.30    1.11
  -1   2   5   32.52    1.69
  -1   2   5   33.89    1.81
  -1   2   5   34.78    1.89
  -1   2   5   33.41    0.99
  -1   2   5   33.60    1.19
   0  -2  -5    0.51    0.29
   0  -2  -5    0.76    0.51
   0  -2  -5    0.33    0.68
   0   2   5    0.86    0.35
   0   2   5    0.41    0.83
   0   2   5    0.46    0.63
   0   2   5    1.04    0.27
  -1  -2  -5   10.84    1.07
  -1  -2  -5   10.78    1.01
  -1  -2  -5   13.12    0.66
   1   2   5   10.84    0.61
   1   2   5   11.59    0.73
   1   2   5    8.42    1.16
   1   2   5   12.59    1.11
  -2  -2  -5    7.04    1.07
  -2  -2  -5    6.83    0.54
  -2  -2  -5    6.53    0.97
   2   2   5    4.98    1.41
   2   2   5    6.72    0.49
   2   2   5    7.27    0.90
   2   2   5    5.79    0.56
  -3  -2  -5    3.32    1.07
  -3  -2  -5    3.95    0.50
  -3  -2  -5    4.40    1.00
   3   2   5    3.92    0.53
   3   2   5    3.14    0.42
   3   2   5    3.94    0.77
  -4  -2  -5    5.33    0.57
  -4  -2  -5    5.58    1.13
  -4  -2  -5    5.36    1.15
   4   2   5    5.27    0.50
   4   2   5    4.51    0.60
  -5  -2  -5    4.74    0.60
  -5  -2  -5    2.91    1.12
  -5  -2  -5    5.00    1.17
   5   2   5    4.23    0.54
   5   2   5    4.57    0.66
  -6  -2  -5    1.69    1.15
   6   2   5    2.75    0.67
   6   2   5    1.95    0.54
  -7  -2  -5    0.23    1.19
   7   2   5    0.95    0.57
   7   2   5    1.10    0.69
   8   2   5    8.36    0.97
   8   2   5    8.44    0.80
  -9   3   5   38.37    3.85
   8  -3  -5    7.82    0.43
   8  -3  -5    8.28    0.37
   8  -3  -5    7.73    0.39
  -8   3   5    7.23    1.88
  -8   3   5    7.29    0.61
  -8   3   5    7.58    0.72
   7  -3  -5   26.27    0.86
   7  -3  -5   26.72    0.90
   7  -3  -5   26.95    0.78
  -7   3   5   29.23    3.28
  -7   3   5   25.60    1.21
  -7   3   5   27.25    1.32
   6  -3  -5   44.85    1.20
   6  -3  -5   45.30    1.37
   6  -3  -5   42.86    1.34
  -6   3   5   42.01    3.30
  -6   3   5   46.14    1.91
  -6   3   5   42.35    1.80
   5  -3  -5   18.90    0.71
   5  -3  -5   18.85    0.66
   5  -3  -5   20.02    0.77
  -5   3   5   20.02    1.30
  -5   3   5   21.79    2.42
  -5   3   5   19.44    1.11
   4  -3  -5   59.94    1.82
   4  -3  -5   61.11    1.59
   4  -3  -5   61.21    1.83
  -4   3   5   63.22    2.51
  -4   3   5   58.74    1.56
  -4   3   5   59.11    2.40
  -4   3   5   58.66    1.76
  -4   3   5   59.46    3.66
   3  -3  -5    0.38    0.24
   3  -3  -5    0.65    0.30
   3  -3  -5    0.27    0.22
  -3   3   5    0.97    0.81
  -3   3   5    0.63    0.81
  -3   3   5    0.45    0.29
  -3   3   5    0.34    0.24
  -3   3   5    0.59    0.26
  -3   3   5    0.79    0.54
   2  -3  -5    1.19    0.52
   2  -3  -5    0.76    0.30
   2  -3  -5    0.65    0.25
   2  -3  -5    1.19    0.57
  -2   3   5    1.04    0.35
  -2   3   5    1.16    0.28
  -2   3   5    0.64    0.61
  -2   3   5    0.85    0.84
   1  -3  -5    0.82    0.61
   1  -3  -5    0.39    0.28
  -1   3   5   -0.08    0.64
  -1   3   5    0.34    0.29
  -1   3   5   -0.15    0.84
  -1   3   5    0.49    0.37
   0  -3  -5   30.44    1.09
   0  -3  -5   30.14    1.70
   0   3   5   29.65    0.96
   0   3   5   29.73    1.68
   0   3   5   29.88    1.95
   0   3   5   29.56    1.14
  -1  -3  -5  164.32    5.91
  -1  -3  -5  154.23    4.55
  -1  -3  -5  158.12    5.89
   1   3   5  154.27    4.56
   1   3   5  152.45    3.97
   1   3   5  152.42    5.98
   1   3   5  156.70    5.94
  -2  -3  -5   60.25    2.71
  -2  -3  -5   58.56    2.74
  -2  -3  -5   57.68    1.87
   2   3   5   54.95    1.90
   2   3   5   52.41    3.09
   2   3   5   51.69    1.61
  -3  -3  -5    9.05    1.29
  -3  -3  -5    9.40    0.73
  -3  -3  -5    8.34    1.15
   3   3   5    7.52    0.68
   3   3   5    9.21    0.62
  -4  -3  -5   12.87    1.36
  -4  -3  -5   12.16    0.87
   4   3   5   11.94    0.91
   4   3   5   11.67    0.76
  -5  -3  -5    5.25    0.65
  -5  -3  -5    4.86    1.11
   5   3   5    4.95    0.72
   5   3   5    4.53    0.58
  -6  -3  -5    2.06    1.17
   6   3   5    0.98    0.61
   6   3   5    0.81    0.54
   7   3   5   -0.56    0.58
   7   3   5   -0.72    0.70
 -10   4   5    0.33    0.46
 -10   4   5   -0.01    0.64
   9  -4  -5    3.60    0.33
  -9   4   5    3.00    0.70
  -9   4   5    3.23    0.52
   8  -4  -5    1.25    0.27
  -8   4   5    1.18    0.49
  -8   4   5    0.97    0.68
   7  -4  -5   20.72    0.67
   7  -4  -5   19.49    0.77
   7  -4  -5   20.79    0.80
  -7   4   5   19.84    1.13
  -7   4   5   20.39    1.34
   6  -4  -5  174.36    4.87
   6  -4  -5  168.83    4.87
   6  -4  -5  172.19    4.25
  -6   4   5  172.26    6.24
  -6   4   5  171.72    6.19
   5  -4  -5  139.32    3.95
   5  -4  -5  142.31    3.45
   5  -4  -5  133.86    3.94
  -5   4   5  136.65    5.05
  -5   4   5  133.52    3.37
  -5   4   5  140.12    5.12
   4  -4  -5   76.60    1.97
   4  -4  -5   75.94    2.28
   4  -4  -5   73.88    2.27
  -4   4   5   72.46    2.22
  -4   4   5   74.81    1.97
  -4   4   5   73.20    2.99
  -4   4   5   78.27    3.14
  -4   4   5   77.15    2.26
   3  -4  -5  101.62    2.96
   3  -4  -5   97.32    2.97
  -3   4   5  101.00    2.97
  -3   4   5  101.62    3.88
  -3   4   5   98.62    2.59
  -3   4   5  103.56    4.01
   2  -4  -5   21.77    1.47
   2  -4  -5   19.36    1.29
   2  -4  -5   19.86    0.84
  -2   4   5   20.37    0.91
  -2   4   5   20.58    1.41
  -2   4   5   20.46    0.78
  -2   4   5   22.75    1.77
   1  -4  -5   58.01    1.87
   1  -4  -5   58.00    2.53
  -1   4   5   60.29    2.62
  -1   4   5   57.92    1.88
  -1   4   5   57.04    1.65
  -1   4   5   59.17    2.88
   0  -4  -5   14.15    1.27
   0  -4  -5   13.95    0.73
   0   4   5   12.37    1.25
   0   4   5   14.30    1.26
   0   4   5   15.02    0.68
   0   4   5   14.19    0.79
  -1  -4  -5    3.33    0.95
  -1  -4  -5    2.97    0.48
  -1  -4  -5    3.33    1.06
   1   4   5    4.13    1.46
   1   4   5    2.97    0.42
   1   4   5    2.76    0.54
   1   4   5    4.10    1.02
  -2  -4  -5    0.89    1.00
  -2  -4  -5    0.56    0.40
  -2  -4  -5   -0.76    1.17
   2   4   5    0.59    0.53
   2   4   5    0.54    0.42
  -3  -4  -5    2.07    0.51
  -3  -4  -5    2.17    1.02
   3   4   5    1.12    0.56
   3   4   5    1.42    0.43
  -4  -4  -5   18.87    1.81
  -4  -4  -5   20.21    1.03
   4   4   5   16.51    0.91
   4   4   5   18.22    1.03
   5   4   5   32.14    1.46
   5   4   5   29.36    1.23
   6   4   5   12.65    1.04
   6   4   5   13.50    0.93
   7   4   5    4.12    0.73
   7   4   5    5.40    0.91
 -12   5   5    8.68    0.88
 -11   5   5   14.08    0.98
  10  -5  -5   15.95    0.72
 -10   5   5   14.33    1.02
   9  -5  -5    4.76    0.41
  -9   5   5    4.31    0.65
  -9   5   5    3.98    0.89
   8  -5  -5   27.71    1.01
  -8   5   5   26.81    1.60
  -8   5   5   27.97    1.38
   7  -5  -5   23.83    0.90
   7  -5  -5   23.08    0.88
  -7   5   5   22.63    1.52
  -7   5   5   21.76    1.32
   6  -5  -5   12.39    0.66
   6  -5  -5   13.46    0.68
   6  -5  -5   13.45    0.57
  -6   5   5   11.67    1.19
  -6   5   5   11.57    1.14
   5  -5  -5   10.06    0.55
   5  -5  -5    8.78    0.59
   5  -5  -5    9.33    0.61
  -5   5   5   10.05    1.02
  -5   5   5   10.02    1.20
  -5   5   5    9.71    0.49
   4  -5  -5    1.91    0.35
  -4   5   5    2.27    0.39
  -4   5   5    2.28    0.34
  -4   5   5    2.64    1.07
  -4   5   5    0.71    0.70
   3  -5  -5   83.31    2.59
  -3   5   5   86.42    2.61
  -3   5   5   84.49    2.26
  -3   5   5   88.15    3.55
  -3   5   5   83.45    3.44
   2  -5  -5  208.89    7.80
   2  -5  -5  220.87   10.88
   2  -5  -5  205.08    6.14
  -2   5   5  218.44    5.38
  -2   5   5  218.21    7.97
  -2   5   5  219.42    6.16
  -2   5   5  213.70    7.85
   1  -5  -5  122.49    3.77
   1  -5  -5  130.46    4.91
  -1   5   5  128.75    4.97
  -1   5   5  123.76    3.78
  -1   5   5  133.51    5.07
  -1   5   5  126.14    3.29
   0  -5  -5   92.66    3.94
   0  -5  -5   86.09    2.80
   0   5   5   96.70    3.87
   0   5   5   89.34    2.82
   0   5   5   92.52    2.48
  -1  -5  -5   44.53    2.48
  -1  -5  -5   44.70    1.61
  -1  -5  -5   49.60    2.33
   1   5   5   46.81    2.80
   1   5   5   46.79    1.46
   1   5   5   44.05    1.64
  -2  -5  -5   16.80    1.52
  -2  -5  -5   16.59    0.94
   2   5   5   15.93    0.99
   2   5   5   15.41    0.79
  -3  -5  -5    1.83    0.54
   3   5   5    1.77    0.47
   3   5   5    1.41    0.56
  -4  -5  -5    5.43    0.71
   4   5   5    4.69    0.61
   4   5   5    4.72    0.70
   5   5   5    8.77    0.87
   5   5   5    7.69    0.75
   6   5   5    2.25    0.81
   6   5   5    2.82    0.68
 -12   6   5    5.33    0.80
 -11   6   5    1.74    0.70
  10  -6  -5   17.23    0.80
 -10   6   5   16.20    1.17
   9  -6  -5   33.36    1.20
  -9   6   5   32.92    1.66
   8  -6  -5   39.21    1.35
  -8   6   5   40.58    2.06
  -8   6   5   38.06    1.87
   7  -6  -5   46.13    1.55
  -7   6   5   47.26    2.12
  -7   6   5   46.95    2.32
   6  -6  -5    8.67    0.61
   6  -6  -5    8.57    0.62
  -6   6   5    8.07    0.91
  -6   6   5    6.82    1.19
   5  -6  -5   -0.18    0.33
  -5   6   5   -0.60    0.74
  -5   6   5    0.16    1.13
  -5   6   5    0.19    0.31
  -5   6   5    0.04    0.30
   4  -6  -5    5.83    0.52
  -4   6   5    6.82    0.56
  -4   6   5    5.32    0.92
  -4   6   5    6.85    0.47
  -4   6   5    5.66    1.29
   3  -6  -5    8.65    0.66
  -3   6   5   11.02    0.76
  -3   6   5    9.10    1.34
  -3   6   5    8.15    1.05
  -3   6   5    8.04    0.55
   2  -6  -5   46.00    2.75
   2  -6  -5   46.58    1.65
  -2   6   5   48.82    1.70
  -2   6   5   48.75    1.46
  -2   6   5   47.70    2.34
  -2   6   5   50.23    2.81
   1  -6  -5    4.86    0.55
   1  -6  -5    6.05    1.02
  -1   6   5    3.46    1.39
  -1   6   5    4.67    0.99
  -1   6   5    5.48    0.64
  -1   6   5    4.95    0.52
   0  -6  -5    2.10    0.46
   0   6   5    2.55    0.49
   0   6   5    2.34    0.58
  -1  -6  -5   17.79    1.01
   1   6   5   20.81    1.02
   1   6   5   18.42    0.86
  -2  -6  -5   26.46    1.24
   2   6   5   26.79    1.29
   2   6   5   27.24    1.07
  -3  -6  -5   18.37    1.07
   3   6   5   17.60    0.97
   3   6   5   15.82    1.11
  -4  -6  -5   11.63    0.93
   4   6   5   11.01    0.92
   4   6   5   10.88    0.82
   5   6   5    4.22    0.84
   5   6   5    3.58    0.70
   6   6   5    2.35    0.73
   6   6   5    2.36    0.88
 -11   7   5    0.92    0.79
  10  -7  -5    6.12    0.58
 -10   7   5    5.86    0.88
   9  -7  -5   37.23    1.39
  -9   7   5   39.69    1.92
   8  -7  -5    8.74    0.66
  -8   7   5    7.60    0.93
   7  -7  -5    5.77    0.54
  -7   7   5    5.69    0.88
  -7   7   5    5.78    1.20
   6  -7  -5   12.84    0.75
  -6   7   5   13.31    1.33
  -6   7   5   13.98    1.31
   5  -7  -5   10.23    0.71
  -5   7   5   10.09    1.08
  -5   7   5   10.67    0.68
  -5   7   5    9.30    1.34
  -5   7   5   10.26    0.62
   4  -7  -5   19.34    0.97
  -4   7   5   24.12    0.92
  -4   7   5   21.20    1.03
  -4   7   5   20.84    1.58
  -4   7   5   19.89    1.99
   3  -7  -5   12.11    0.80
  -3   7   5   12.93    0.74
  -3   7   5   12.13    1.20
  -3   7   5   13.33    1.60
  -3   7   5   12.97    0.88
   2  -7  -5    0.42    0.43
  -2   7   5    0.58    0.43
  -2   7   5    0.24    0.90
  -2   7   5    0.29    0.53
   1  -7  -5   -0.30    0.42
  -1   7   5   -0.10    0.49
  -1   7   5    0.14    0.40
   0  -7  -5    2.77    0.54
   0   7   5    2.73    0.52
   0   7   5    3.05    0.59
  -1  -7  -5   17.62    1.05
   1   7   5   18.21    1.04
   1   7   5   17.24    0.88
  -2  -7  -5   23.51    1.22
   2   7   5   22.69    1.01
   2   7   5   20.46    1.17
  -3  -7  -5    4.62    0.72
   3   7   5    3.94    0.66
   3   7   5    5.42    0.82
   4   7   5    1.47    0.60
   4   7   5    1.31    0.72
   5   7   5    1.85    0.86
   5   7   5    2.50    0.72
  11  -8  -5    9.35    0.73
 -11   8   5    8.59    1.10
  10  -8  -5    3.58    0.57
 -10   8   5    2.85    0.93
   9  -8  -5    4.43    0.57
  -9   8   5    5.10    0.92
   8  -8  -5    2.26    0.51
  -8   8   5    2.28    0.85
   7  -8  -5    0.16    0.43
  -7   8   5    0.13    0.84
   6  -8  -5   31.58    1.28
  -6   8   5   34.06    1.96
   5  -8  -5   60.25    2.06
  -5   8   5   60.66    1.99
  -5   8   5   63.13    2.84
  -5   8   5   62.26    1.76
   4  -8  -5   10.77    0.81
  -4   8   5   12.85    0.89
  -4   8   5   13.79    1.43
  -4   8   5   11.38    0.77
   3  -8  -5    6.97    0.67
  -3   8   5    6.03    0.56
  -3   8   5    7.88    0.70
   2  -8  -5    1.21    0.48
  -2   8   5    1.73    0.48
  -2   8   5    1.10    0.57
   1  -8  -5    1.38    0.52
  -1   8   5    1.34    0.48
  -1   8   5    1.18    0.57
   0  -8  -5    1.58    0.61
   0   8   5    1.76    0.51
   0   8   5    1.69    0.67
  -1  -8  -5   -0.44    0.59
   1   8   5   -0.08    0.55
   1   8   5   -0.79    0.60
  -2  -8  -5   -0.23    0.60
   2   8   5   -0.38    0.69
   2   8   5   -0.70    0.57
  -3  -8  -5    3.07    0.74
   3   8   5    2.56    0.80
   3   8   5    1.47    0.61
   4   8   5   -0.36    0.73
   4   8   5    0.06    0.68
  10  -9  -5   12.00    0.92
 -10   9   5   10.76    1.26
   9  -9  -5    1.70    0.56
  -9   9   5    2.96    0.96
   8  -9  -5    1.85    0.54
  -8   9   5    1.37    0.95
   7  -9  -5   16.98    0.97
  -7   9   5   18.10    1.55
   6  -9  -5    1.88    0.54
  -6   9   5    1.86    1.00
   5  -9  -5    2.79    0.54
  -5   9   5    3.13    0.48
   4  -9  -5    0.96    0.53
  -4   9   5    1.01    0.59
  -4   9   5    0.44    0.46
   3  -9  -5    0.01    0.52
  -3   9   5   -0.45    0.57
  -3   9   5    1.12    0.50
   2  -9  -5   16.65    1.06
  -2   9   5   18.43    1.11
  -2   9   5   18.31    0.95
   1  -9  -5   26.11    1.26
  -1   9   5   27.11    1.29
  -1   9   5   26.27    1.10
   0  -9  -5   12.43    1.03
   0   9   5   10.88    0.97
   0   9   5   11.59    0.82
  -1  -9  -5    9.60    0.92
   1   9   5   10.57    0.83
   1   9   5   10.03    0.93
  -2  -9  -5    2.79    0.77
   2   9   5    2.67    0.69
   2   9   5    2.43    0.82
   3   9   5    2.12    0.67
   3   9   5    0.96    0.86
  10 -10  -5    1.47    0.63
   9 -10  -5   11.15    0.90
   8 -10  -5   16.95    1.03
   7 -10  -5   27.09    1.27
   6 -10  -5   25.55    1.25
   5 -10  -5    4.86    0.70
   4 -10  -5    8.90    0.84
  -4  10   5   11.80    0.83
  -4  10   5   10.71    0.86
   3 -10  -5    4.62    0.72
  -3  10   5    4.12    0.62
  -3  10   5    4.27    0.77
   2 -10  -5    1.46    0.65
  -2  10   5    0.47    0.67
  -2  10   5    1.24    0.59
   1 -10  -5    4.87    0.78
  -1  10   5    4.64    0.65
  -1  10   5    4.71    0.81
   0 -10  -5   -0.56    0.61
   0  10   5    0.00    0.73
   0  10   5    0.62    0.58
  -1 -10  -5    1.12    0.69
   1  10   5    1.19    0.63
   1  10   5    1.63    0.82
  -2 -10  -5    2.75    0.85
   2  10   5    4.10    0.93
   2  10   5    4.41    0.74
   9 -11  -5    1.04    0.67
   8 -11  -5    1.31    0.64
   7 -11  -5   -0.16    0.61
   6 -11  -5    4.03    0.72
   5 -11  -5    9.59    0.87
   4 -11  -5   14.23    1.02
   3 -11  -5   22.25    1.33
  -3  11   5   22.83    1.34
  -3  11   5   26.32    1.18
   2 -11  -5   11.65    1.03
  -2  11   5   11.86    0.86
  -2  11   5   12.81    1.05
   1 -11  -5    2.87    0.81
  -1  11   5    3.14    0.71
  -1  11   5    4.57    0.83
   0 -11  -5    3.25    0.85
   0  11   5    3.84    0.72
   0  11   5    3.20    0.86
   7 -12  -5    0.99    0.73
   6 -12  -5   -0.07    0.67
   5 -12  -5    6.19    0.83
   4 -12  -5    5.95    0.89
   3 -12  -5    5.38    0.87
  -3  12   5    5.44    0.75
   2 -12  -5    1.19    0.80
  -2  12   5    3.07    0.89
   1  14  -6    7.04    0.96
   0  14  -6    2.24    0.86
   0 -14   6    0.89    0.93
  -1  14  -6    0.02    0.80
   1 -14   6   -0.24    0.87
  -2  14  -6    0.31    0.72
   2 -14   6    1.33    0.89
  -3  14  -6    1.71    0.81
   3 -14   6    1.87    0.92
   4 -14   6    7.54    1.09
   5 -14   6    4.60    1.01
   3  13  -6    9.20    1.00
  -3 -13   6    8.59    2.66
   2  13  -6   10.24    1.05
   1  13  -6   24.12    1.46
  -1 -13   6   26.03    1.60
   0  13  -6   11.92    1.06
   0 -13   6   11.96    1.16
  -1  13  -6    3.63    0.77
   1 -13   6    3.32    0.91
  -2  13  -6    9.75    0.97
   2 -13   6   10.79    1.13
  -3  13  -6    3.56    0.80
   3 -13   6    3.65    0.91
  -4  13  -6    1.71    0.77
   4 -13   6    0.68    0.83
   5 -13   6    0.35    0.77
   6 -13   6    1.93    0.91
   4  12  -6    1.70    0.80
  -4 -12   6    2.10    2.34
   3  12  -6    1.15    0.75
  -3 -12   6   -0.05    1.98
   2  12  -6    2.29    0.74
  -2 -12   6    0.95    0.84
   1  12  -6   10.20    0.96
  -1 -12   6   10.25    1.06
   0  12  -6   29.04    1.44
   0 -12   6   29.03    1.60
  -1  12  -6   29.89    1.40
   1 -12   6   30.88    1.63
  -2  12  -6   41.31    1.72
   2 -12   6   41.42    1.90
  -3  12  -6   52.83    2.01
   3 -12   6   54.39    2.21
  -4  12  -6    6.04    0.79
   4 -12   6    4.87    0.86
   5 -12   6    1.06    0.75
   6 -12   6    3.32    0.91
   7 -12   6    2.51    0.91
   5  11  -6    9.54    0.95
  -5 -11   6    3.78    2.42
   4  11  -6   16.39    1.16
   3  11  -6    1.31    0.66
  -3 -11   6    0.38    2.10
   2  11  -6    0.54    0.60
  -2 -11   6    0.35    0.70
   1  11  -6    4.49    0.69
  -1 -11   6    5.14    0.84
   0  11  -6    1.83    0.60
   0 -11   6    1.51    0.68
  -1  11  -6   10.12    0.86
   1 -11   6    8.00    0.93
  -2  11  -6    0.28    0.59
   2 -11   6    0.73    0.67
  -3  11  -6   14.81    1.04
   3 -11   6   15.10    1.10
  -4  11  -6   12.05    0.97
   4 -11   6   10.68    1.03
  -5  11  -6    9.98    0.85
   5 -11   6    9.76    1.02
   6 -11   6   27.31    1.58
   7 -11   6   15.42    1.31
   8 -11   6    0.35    0.88
   6  10  -6    1.49    0.70
  -6 -10   6   -0.28    2.17
   5  10  -6   -0.18    0.62
  -5 -10   6    0.64    1.87
   4  10  -6    5.62    0.75
  -4 -10   6    3.91    2.16
   3  10  -6    1.12    0.60
  -3 -10   6    0.70    0.61
   2  10  -6    1.22    0.55
  -2 -10   6    1.19    0.65
   1  10  -6   20.21    1.13
  -1 -10   6   20.10    1.17
   0  10  -6   24.08    1.21
   0 -10   6   25.13    1.31
  -1  10  -6    0.70    0.55
   1 -10   6    0.46    0.65
  -2  10  -6    8.13    0.76
   2 -10   6    8.72    0.88
  -3  10  -6    3.69    0.63
   3 -10   6    3.54    0.74
  -4  10  -6    2.83    0.59
   4 -10   6    2.38    0.74
  -5  10  -6    1.47    0.59
   5 -10   6    1.80    0.75
   6 -10   6    2.87    0.83
   7 -10   6    5.99    0.83
   7 -10   6    4.72    0.88
   8 -10   6    0.89    0.73
   8 -10   6    0.58    0.90
   7   9  -6    2.66    0.70
  -7  -9   6    4.69    1.28
  -7  -9   6    2.24    2.32
   6   9  -6    0.63    0.58
  -6  -9   6    0.86    1.11
  -6  -9   6   -0.46    2.03
   5   9  -6    0.70    0.58
  -5  -9   6   -0.47    1.08
  -5  -9   6   -0.19    1.86
   4   9  -6   -0.45    0.53
  -4  -9   6   -0.92    1.71
  -4  -9   6   -0.21    1.06
   3   9  -6    3.70    0.63
  -3  -9   6    5.18    1.17
   2   9  -6   -0.31    0.49
  -2  -9   6    0.05    0.55
  -2  -9   6    0.40    1.03
   1   9  -6    8.21    0.74
  -1  -9   6    9.60    1.32
  -1  -9   6    8.22    0.83
   0   9  -6    4.25    0.62
   0  -9   6    3.79    0.70
   0  -9   6    5.28    1.20
  -1   9  -6    3.29    0.59
   1  -9   6    3.44    0.65
  -2   9  -6    1.06    1.24
  -2   9  -6   -0.13    0.50
   2  -9   6    0.82    0.60
  -3   9  -6   46.80    2.81
  -3   9  -6   42.79    1.62
   3  -9   6   40.22    1.77
  -4   9  -6    8.40    1.62
  -4   9  -6    4.28    0.61
   4  -9   6    4.22    0.78
  -5   9  -6    5.56    0.62
  -5   9  -6    5.57    1.62
   5  -9   6    4.11    0.68
   5  -9   6    4.05    0.75
  -6   9  -6   19.24    2.11
   6  -9   6   19.38    1.17
   6  -9   6   18.37    1.30
  -7   9  -6    3.83    1.72
   7  -9   6    1.01    0.69
   7  -9   6    0.47    0.79
   8  -9   6    1.18    0.73
   8  -9   6   -0.34    0.81
   9  -9   6    1.61    0.82
   9  -9   6    1.69    0.93
   8   8  -6    8.59    0.85
  -8  -8   6    8.27    1.37
  -8  -8   6    6.01    2.60
   7   8  -6   13.75    0.98
  -7  -8   6   19.03    1.66
  -7  -8   6   12.27    2.73
   6   8  -6    1.74    0.57
  -6  -8   6    1.43    2.02
  -6  -8   6    1.59    1.05
   5   8  -6    7.97    0.73
  -5  -8   6    4.70    1.99
  -5  -8   6    8.52    1.25
   4   8  -6   35.06    1.44
  -4  -8   6   38.29    2.18
  -4  -8   6   35.06    1.40
   3   8  -6    4.98    0.62
  -3  -8   6    5.00    0.62
  -3  -8   6    4.67    1.10
   2   8  -6    0.91    0.50
  -2  -8   6    0.62    0.54
  -2  -8   6    2.03    1.06
   1   8  -6    3.16    0.53
  -1  -8   6    3.50    0.66
  -1  -8   6    3.66    1.09
   0   8  -6    4.52    1.44
   0   8  -6    3.38    0.56
   0  -8   6    2.76    0.64
   0  -8   6    3.97    1.08
  -1   8  -6   26.76    1.17
  -1   8  -6   31.57    1.86
   1  -8   6   27.22    1.29
  -2   8  -6   14.69    1.45
  -2   8  -6   12.49    0.87
  -2   8  -6   13.55    1.79
   2  -8   6   12.87    0.95
   2  -8   6   12.31    1.51
  -3   8  -6   81.22    2.65
  -3   8  -6   86.06    4.00
  -3   8  -6   89.89    3.68
   3  -8   6   78.46    2.80
   3  -8   6   81.83    2.46
  -4   8  -6   29.83    2.43
  -4   8  -6   29.19    1.24
   4  -8   6   29.35    1.44
   4  -8   6   28.08    1.27
  -5   8  -6    2.42    0.52
  -5   8  -6    2.23    1.50
   5  -8   6    2.36    0.71
   5  -8   6    2.97    0.64
  -6   8  -6   16.21    2.01
   6  -8   6   14.71    0.95
   6  -8   6   12.84    1.08
  -7   8  -6   14.60    1.99
   7  -8   6   11.49    0.93
   7  -8   6   10.66    1.04
  -8   8  -6    1.48    1.81
   8  -8   6   -0.11    0.69
   8  -8   6    0.09    0.77
   9  -8   6   -0.21    0.88
   9  -8   6    0.80    0.77
   9   7  -6    0.47    0.60
  -9  -7   6    0.65    1.07
  -9  -7   6   -2.08    2.28
   8   7  -6    1.06    0.57
  -8  -7   6    0.68    1.06
  -8  -7   6   -0.72    2.12
   7   7  -6    8.44    0.75
  -7  -7   6   10.47    1.25
  -7  -7   6    8.11    2.37
   6   7  -6   17.11    0.95
  -6  -7   6   13.65    2.65
  -6  -7   6   19.33    1.52
   5   7  -6   22.29    1.04
  -5  -7   6   15.86    2.61
  -5  -7   6   24.51    1.65
   4   7  -6  142.57    4.34
  -4  -7   6  141.88    4.26
  -4  -7   6  153.66    5.66
   3   7  -6   95.25    2.96
  -3  -7   6   97.95    3.98
  -3  -7   6   92.58    2.97
   2   7  -6   22.64    1.03
  -2  -7   6   20.21    1.08
  -2  -7   6   23.63    1.76
   1   7  -6   47.39    1.66
   1   7  -6   48.00    2.86
  -1  -7   6   47.81    1.79
  -1  -7   6   48.02    2.40
   0   7  -6   24.31    2.38
   0   7  -6   23.41    1.06
   0  -7   6   21.52    1.10
   0  -7   6   22.71    1.84
  -1   7  -6    0.95    0.42
  -1   7  -6    0.98    0.82
   1  -7   6    1.53    0.53
  -2   7  -6    1.84    1.25
  -2   7  -6    1.95    0.85
  -2   7  -6    1.14    0.44
   2  -7   6    2.08    0.55
   2  -7   6    1.61    0.51
   2  -7   6    1.15    1.10
  -3   7  -6    7.13    1.14
  -3   7  -6    7.56    0.65
  -3   7  -6    8.60    1.54
   3  -7   6    6.58    1.39
   3  -7   6    7.41    0.75
   3  -7   6    6.69    0.63
  -4   7  -6   27.76    1.92
  -4   7  -6   29.74    2.78
  -4   7  -6   27.93    1.19
   4  -7   6   28.13    1.16
   4  -7   6   28.78    1.38
  -5   7  -6   12.84    1.77
  -5   7  -6   13.04    1.32
  -5   7  -6   11.54    0.80
   5  -7   6   15.38    0.93
   5  -7   6   14.02    1.04
  -6   7  -6   45.00    3.16
   6  -7   6   39.61    1.75
   6  -7   6   41.53    1.54
  -7   7  -6   73.77    3.91
   7  -7   6   65.93    2.14
   7  -7   6   63.16    2.44
  -8   7  -6   13.89    2.10
   8  -7   6   10.44    0.90
   8  -7   6   10.92    1.05
  -9   7  -6    7.02    2.00
   9  -7   6    5.26    0.95
   9  -7   6    4.39    0.83
   9   6  -6    3.52    0.60
  -9  -6   6    1.23    2.12
  -9  -6   6    3.13    1.06
   8   6  -6    7.91    0.69
  -8  -6   6    8.24    1.11
  -8  -6   6    7.96    2.27
   7   6  -6    7.38    0.68
  -7  -6   6    9.09    1.10
  -7  -6   6    7.21    2.08
   6   6  -6    0.83    0.46
  -6  -6   6    0.42    0.79
  -6  -6   6    1.13    1.89
   5   6  -6    0.97    0.44
  -5  -6   6    1.05    0.88
  -5  -6   6    1.92    1.67
   4   6  -6   32.79    1.27
  -4  -6   6   30.64    1.17
  -4  -6   6   31.19    1.87
   3   6  -6   66.10    2.17
  -3  -6   6   70.80    3.71
  -3  -6   6   66.77    3.04
  -3  -6   6   68.84    2.19
   2   6  -6   50.10    1.69
  -2  -6   6   51.75    3.22
  -2  -6   6   48.49    1.76
  -2  -6   6   48.59    2.45
   1   6  -6  192.12    7.26
   1   6  -6  190.07    5.52
  -1  -6   6  192.57    7.13
  -1  -6   6  182.66    5.59
  -1  -6   6  196.89    7.47
   0   6  -6  440.58   15.40
   0   6  -6  439.14   15.29
   0   6  -6  417.03   12.04
   0  -6   6  438.79   15.29
   0  -6   6  415.35   12.13
   0  -6   6  424.11   15.42
  -1   6  -6  119.85    3.58
  -1   6  -6  125.79    4.75
   1  -6   6  117.63    3.21
   1  -6   6  119.33    5.03
   1  -6   6  115.47    3.69
  -2   6  -6   34.35    1.29
  -2   6  -6   37.24    2.75
  -2   6  -6   35.15    1.94
   2  -6   6   33.39    1.46
   2  -6   6   33.94    1.24
   2  -6   6   37.64    2.21
  -3   6  -6   34.40    2.80
  -3   6  -6   32.97    1.30
  -3   6  -6   33.48    2.00
   3  -6   6   33.69    1.25
   3  -6   6   33.11    1.38
   3  -6   6   32.54    2.26
  -4   6  -6    0.03    0.45
  -4   6  -6   -0.37    1.47
  -4   6  -6   -0.27    0.88
   4  -6   6   -0.26    0.42
   4  -6   6    0.25    0.52
  -5   6  -6   21.83    1.98
  -5   6  -6   20.64    1.01
  -5   6  -6   19.70    1.64
   5  -6   6   22.66    1.03
   5  -6   6   20.75    1.16
  -6   6  -6   17.38    1.96
  -6   6  -6   16.59    1.61
   6  -6   6   16.51    0.98
   6  -6   6   17.25    1.12
  -7   6  -6   28.48    2.87
   7  -6   6   27.29    1.24
   7  -6   6   28.14    1.43
  -8   6  -6   10.40    1.89
   8  -6   6    7.94    0.81
   8  -6   6    8.34    0.94
  -9   6  -6    4.43    1.81
   9  -6   6    2.12    0.76
   9  -6   6    3.15    0.87
  10   5  -6    9.18    0.74
 -10  -5   6    8.18    1.15
 -10  -5   6    7.02    2.76
   9   5  -6    1.85    0.51
  -9  -5   6    1.79    0.89
  -9  -5   6    0.69    2.11
   8   5  -6   10.37    0.75
  -8  -5   6    8.78    2.36
  -8  -5   6   10.07    1.09
   7   5  -6   48.23    1.68
  -7  -5   6   46.20    4.25
  -7  -5   6   52.02    2.30
   6   5  -6    8.09    0.67
  -6  -5   6   10.21    2.18
  -6  -5   6    9.46    1.01
   5   5  -6    5.93    0.54
   5   5  -6    4.36    0.48
  -5  -5   6    5.58    0.96
  -5  -5   6    3.35    1.77
  -5  -5   6    6.14    1.61
   4   5  -6    8.45    0.60
  -4  -5   6    7.59    0.99
  -4  -5   6   10.82    1.60
  -4  -5   6    8.74    0.54
  -4  -5   6    5.33    1.92
   3   5  -6    1.32    0.38
  -3  -5   6    2.11    0.40
  -3  -5   6    1.72    0.83
  -3  -5   6    1.54    1.36
   2   5  -6    8.10    0.60
  -2  -5   6    7.20    1.42
  -2  -5   6    8.33    1.03
  -2  -5   6    8.01    0.64
   1   5  -6   10.23    1.16
   1   5  -6    9.10    0.62
  -1  -5   6    9.61    1.45
  -1  -5   6   10.53    1.11
  -1  -5   6    9.10    0.74
   0   5  -6   88.19    2.72
   0   5  -6   88.95    3.76
   0   5  -6   91.61    3.64
   0  -5   6   91.32    3.68
   0  -5   6   87.64    2.47
   0  -5   6   88.04    2.83
   0  -5   6   89.19    3.94
  -1   5  -6   22.30    1.42
  -1   5  -6   28.82    1.07
  -1   5  -6   29.19    1.63
   1  -5   6   28.83    1.19
   1  -5   6   28.71    2.24
   1  -5   6   27.51    1.02
  -2   5  -6    4.19    1.29
  -2   5  -6    3.58    0.83
  -2   5  -6    3.49    0.48
   2  -5   6    3.12    0.44
   2  -5   6    4.05    0.97
   2  -5   6    3.33    0.53
  -3   5  -6   92.19    4.21
  -3   5  -6   91.74    3.68
  -3   5  -6   91.43    2.80
   3  -5   6   94.29    3.88
   3  -5   6   86.60    2.85
   3  -5   6   87.49    2.48
  -4   5  -6   81.34    3.47
  -4   5  -6   82.45    2.57
  -4   5  -6   82.64    3.88
   4  -5   6   80.02    2.29
   4  -5   6   80.10    2.63
  -5   5  -6   10.27    1.65
  -5   5  -6   10.45    0.78
  -5   5  -6    9.01    1.12
   5  -5   6    9.78    0.70
   5  -5   6    9.44    0.81
  -6   5  -6   12.21    1.32
  -6   5  -6   15.95    1.85
   6  -5   6   14.94    0.89
   6  -5   6   12.90    1.00
  -7   5  -6    9.57    1.72
   7  -5   6    7.03    0.84
   7  -5   6    7.23    0.72
  -8   5  -6   -0.41    1.58
   8  -5   6   -0.01    0.62
   8  -5   6    0.14    0.69
  -9   5  -6    3.25    1.82
   9  -5   6    2.65    0.71
   9  -5   6    1.90    0.82
  10   4  -6    3.56    0.53
 -10  -4   6    1.56    2.23
 -10  -4   6    2.60    0.91
   9   4  -6    0.34    0.43
  -9  -4   6   -0.06    0.77
  -9  -4   6    1.33    1.91
   8   4  -6    2.05    0.44
  -8  -4   6    1.92    0.76
  -8  -4   6    2.27    1.81
   7   4  -6   32.74    1.22
  -7  -4   6   33.32    1.72
  -7  -4   6   35.20    3.73
   6   4  -6    7.20    0.59
   6   4  -6    9.51    0.68
  -6  -4   6    8.42    1.49
  -6  -4   6    8.16    0.87
  -6  -4   6    9.53    2.06
   5   4  -6   11.84    0.63
   5   4  -6    9.73    0.60
   5   4  -6   10.60    0.70
  -5  -4   6    8.73    1.93
  -5  -4   6   11.79    1.20
  -5  -4   6   11.56    1.56
   4   4  -6   23.84    0.96
   4   4  -6   25.15    1.02
   4   4  -6   23.30    0.94
   4   4  -6   25.48    0.91
  -4  -4   6   19.15    2.98
  -4  -4   6   26.72    0.84
  -4  -4   6   21.50    2.08
  -4  -4   6   22.51    1.53
   3   4  -6   35.33    1.15
   3   4  -6   36.73    1.34
   3   4  -6   34.14    1.21
   3   4  -6   36.78    1.23
  -3  -4   6   25.70    3.35
  -3  -4   6   34.91    2.35
  -3  -4   6   38.13    1.85
  -3  -4   6   35.44    1.23
   2   4  -6    2.18    0.35
   2   4  -6    2.19    0.35
   2   4  -6    2.45    0.45
  -2  -4   6    2.23    1.09
  -2  -4   6    2.28    0.42
  -2  -4   6    2.34    0.80
   1   4  -6   16.65    1.58
   1   4  -6   16.67    0.73
   1   4  -6   16.95    0.73
  -1  -4   6   16.78    1.28
  -1  -4   6   15.30    0.78
  -1  -4   6   15.32    1.44
  -1  -4   6   17.91    0.90
   0   4  -6    6.00    0.47
   0   4  -6    5.77    0.48
   0   4  -6    5.08    0.83
   0   4  -6    4.67    0.99
   0  -4   6    7.96    1.22
   0  -4   6    5.96    0.87
   0  -4   6    5.78    0.57
   0  -4   6    5.23    0.46
  -1   4  -6    5.83    0.51
  -1   4  -6    6.05    0.51
  -1   4  -6    5.76    0.75
  -1   4  -6    5.80    0.85
   1  -4   6    7.59    1.27
   1  -4   6    5.63    0.46
   1  -4   6    5.20    0.53
  -2   4  -6    1.09    1.12
  -2   4  -6   -0.42    0.66
  -2   4  -6    0.56    0.37
  -2   4  -6    0.78    0.37
   2  -4   6   -0.61    0.91
   2  -4   6    1.03    0.37
   2  -4   6    0.20    0.39
  -3   4  -6   40.95    2.01
  -3   4  -6   42.08    1.40
  -3   4  -6   38.98    2.74
  -3   4  -6   40.63    1.45
   3  -4   6   39.57    2.40
   3  -4   6   38.57    1.48
   3  -4   6   40.44    1.29
  -4   4  -6   51.87    2.47
  -4   4  -6   53.50    1.78
  -4   4  -6   50.71    3.18
   4  -4   6   49.21    1.79
   4  -4   6   47.73    1.54
  -5   4  -6    4.69    0.90
  -5   4  -6    4.17    0.54
  -5   4  -6    3.29    1.41
   5  -4   6    3.70    0.64
   5  -4   6    3.58    0.54
  -6   4  -6    1.20    1.38
  -6   4  -6   -0.01    0.92
   6  -4   6    0.31    0.48
   6  -4   6    0.47    0.59
  -7   4  -6   18.29    1.94
   7  -4   6   14.91    1.09
   7  -4   6   16.99    0.98
  -8   4  -6    4.78    1.58
   8  -4   6    2.62    0.66
   8  -4   6    2.78    0.79
  -9   4  -6    2.00    1.64
   9  -4   6    0.14    0.78
   9  -4   6   -0.05    0.68
 -11  -3   6    4.02    0.88
 -11  -3   6    2.83    2.60
  10   3  -6    5.56    0.51
 -10  -3   6    3.44    2.38
 -10  -3   6    4.46    0.83
   9   3  -6    0.66    0.39
  -9  -3   6    0.82    1.85
  -9  -3   6    0.29    0.68
   8   3  -6   -0.03    0.35
  -8  -3   6    1.37    1.73
  -8  -3   6    0.45    0.63
   7   3  -6    5.61    0.47
  -7  -3   6    7.54    1.94
  -7  -3   6    5.60    0.74
  -7  -3   6    6.54    1.29
   6   3  -6   22.46    0.90
   6   3  -6   24.56    0.94
   6   3  -6   22.84    0.90
  -6  -3   6   23.45    1.37
  -6  -3   6   25.72    2.95
  -6  -3   6   24.97    2.12
   5   3  -6    1.65    0.31
   5   3  -6    1.21    0.32
   5   3  -6    0.96    0.34
  -5  -3   6    1.35    1.42
  -5  -3   6    1.28    1.15
  -5  -3   6    0.67    0.70
   4   3  -6   44.02    1.45
   4   3  -6   46.36    1.35
   4   3  -6   46.40    1.53
  -4  -3   6   45.10    2.44
  -4  -3   6   45.29    2.09
  -4  -3   6   45.47    3.62
   3   3  -6   70.50    2.14
   3   3  -6   64.34    2.01
   3   3  -6   69.13    1.86
  -3  -3   6   66.49    2.79
  -3  -3   6   56.77    4.44
  -3  -3   6   63.67    2.04
  -3  -3   6   71.73    1.99
  -3  -3   6   68.16    2.93
   2   3  -6    5.96    0.44
   2   3  -6    6.16    0.51
   2   3  -6    6.18    0.46
  -2  -3   6    6.25    0.84
  -2  -3   6    7.07    0.92
  -2  -3   6    6.30    0.46
  -2  -3   6    6.15    0.51
   1   3  -6   19.81    1.47
   1   3  -6   18.59    0.78
  -1  -3   6   19.37    0.80
  -1  -3   6   19.77    1.70
  -1  -3   6   18.45    0.91
  -1  -3   6   19.97    1.38
   0   3  -6   11.94    0.60
   0   3  -6   11.70    1.12
   0   3  -6   12.12    1.14
   0  -3   6   12.51    0.76
   0  -3   6   13.01    0.61
   0  -3   6   13.95    1.27
   0  -3   6   11.82    1.19
  -1   3  -6    2.30    0.36
  -1   3  -6    2.42    0.71
  -1   3  -6    2.35    0.61
   1  -3   6    2.56    0.45
   1  -3   6    0.73    0.97
   1  -3   6    2.06    0.34
  -2   3  -6    3.50    1.00
  -2   3  -6    2.66    0.41
  -2   3  -6    2.52    0.72
   2  -3   6    2.46    0.46
   2  -3   6    3.39    0.41
   2  -3   6    1.89    0.97
  -3   3  -6    9.11    0.69
  -3   3  -6    9.54    1.00
  -3   3  -6    9.24    1.43
   3  -3   6    9.65    0.61
   3  -3   6    8.06    1.30
   3  -3   6    9.20    0.71
  -4   3  -6    3.03    1.36
  -4   3  -6    3.23    0.50
  -4   3  -6    2.27    0.85
  -4   3  -6    3.21    0.49
   4  -3   6    3.00    0.49
   4  -3   6    3.12    0.58
  -5   3  -6    6.67    1.06
  -5   3  -6    7.98    0.65
  -5   3  -6    8.44    1.46
   5  -3   6    7.62    0.62
   5  -3   6    7.23    0.72
  -6   3  -6   -0.87    0.90
  -6   3  -6    1.45    1.39
   6  -3   6    0.37    0.59
   6  -3   6    0.78    0.49
  -7   3  -6   19.80    1.90
   7  -3   6   18.94    1.17
   7  -3   6   18.36    1.01
  -8   3  -6   14.25    1.78
   8  -3   6   12.21    1.02
   8  -3   6   11.60    0.85
  -9   3  -6    2.70    1.54
   9  -3   6    1.20    0.85
   9  -3   6    1.47    0.68
 -11  -2   6    7.72    0.85
 -11  -2   6    5.44    2.76
 -10  -2   6   21.23    3.14
 -10  -2   6   30.10    1.44
   9   2  -6    8.12    0.56
  -9  -2   6    7.59    0.74
  -9  -2   6    4.88    2.12
   8   2  -6    8.71    0.56
  -8  -2   6   10.40    0.88
  -8  -2   6    8.90    1.23
  -8  -2   6    8.17    1.96
   7   2  -6   29.40    1.01
   7   2  -6   28.23    0.99
  -7  -2   6   29.45    1.39
  -7  -2   6   28.06    3.06
  -7  -2   6   26.41    1.90
   6   2  -6    2.95    0.33
   6   2  -6    2.45    0.35
   6   2  -6    2.49    0.30
  -6  -2   6    2.70    0.66
  -6  -2   6    2.28    0.94
  -6  -2   6    2.93    1.63
   5   2  -6   10.60    0.50
   5   2  -6   10.79    0.64
   5   2  -6   10.25    0.56
  -5  -2   6   11.04    1.04
  -5  -2   6    9.94    1.05
  -5  -2   6    9.74    1.69
   4   2  -6    1.78    0.31
   4   2  -6    2.24    0.27
   4   2  -6    2.03    0.37
  -4  -2   6    1.74    0.69
  -4  -2   6    2.18    0.78
  -4  -2   6    2.58    1.21
   3   2  -6   25.52    1.02
   3   2  -6   26.03    0.88
   3   2  -6   25.59    0.90
  -3  -2   6   24.66    0.94
  -3  -2   6   26.27    1.50
  -3  -2   6   24.50    1.65
  -3  -2   6   25.88    2.49
  -3  -2   6   28.58    0.89
   2   2  -6   16.33    0.68
   2   2  -6   16.08    0.76
   2   2  -6   15.71    0.66
  -2  -2   6   16.28    1.39
  -2  -2   6   17.36    1.21
  -2  -2   6   15.19    0.71
  -2  -2   6   15.21    0.77
   1   2  -6    0.74    0.25
   1   2  -6    1.17    0.35
   1   2  -6    0.76    0.66
  -1  -2   6    0.76    0.29
  -1  -2   6    1.93    0.66
  -1  -2   6    1.03    0.70
  -1  -2   6    1.08    0.37
   0   2  -6  238.24    6.80
   0   2  -6  236.04    8.71
   0   2  -6  237.26    8.66
   0  -2   6  242.13    6.86
   0  -2   6  246.47    8.78
   0  -2   6  249.98    8.66
   0  -2   6  237.32    5.99
  -1   2  -6  169.19    6.31
  -1   2  -6  169.72    4.94
  -1   2  -6  177.01    6.41
   1  -2   6  171.90    4.36
   1  -2   6  174.87    4.99
   1  -2   6  170.47    6.44
  -2   2  -6   18.41    1.76
  -2   2  -6   16.13    1.34
  -2   2  -6   15.96    0.79
   2  -2   6   16.38    0.71
   2  -2   6   14.82    1.34
   2  -2   6   16.24    0.87
  -3   2  -6   26.23    1.59
  -3   2  -6   26.53    1.06
  -3   2  -6   28.46    2.16
   3  -2   6   24.29    0.94
   3  -2   6   22.41    2.07
   3  -2   6   25.71    1.10
  -4   2  -6   16.85    1.52
  -4   2  -6   16.88    1.64
  -4   2  -6   14.76    0.92
   4  -2   6   15.75    0.77
   4  -2   6   16.44    0.96
  -5   2  -6   -0.34    0.86
  -5   2  -6    0.13    0.45
  -5   2  -6    0.12    0.46
  -5   2  -6    1.55    1.14
   5  -2   6    0.29    0.41
   5  -2   6    0.56    0.54
  -6   2  -6    2.26    1.27
  -6   2  -6    0.33    0.93
   6  -2   6    1.27    0.62
   6  -2   6    2.26    0.52
  -7   2  -6    0.17    1.33
   7  -2   6    0.56    0.64
   7  -2   6    0.38    0.56
  -8   2  -6    3.30    1.41
   8  -2   6   -0.06    0.69
   8  -2   6    0.22    0.59
  -9   2  -6   -0.21    1.50
   9  -2   6    0.59    0.69
   9  -2   6   -0.61    0.76
 -11  -1   6    0.17    0.59
 -11  -1   6   -1.19    2.15
 -10  -1   6   12.17    0.88
 -10  -1   6   11.17    2.43
   9   1  -6    6.06    0.47
  -9  -1   6    5.41    1.97
  -9  -1   6    6.38    0.61
  -9  -1   6    5.32    1.04
   8   1  -6    6.18    0.41
  -8  -1   6    4.77    1.83
  -8  -1   6    4.08    0.79
  -8  -1   6    4.93    0.57
   7   1  -6  131.03    3.28
   7   1  -6  131.74    3.70
   7   1  -6  128.78    3.66
  -7  -1   6  130.84    7.72
  -7  -1   6  127.32    4.76
  -7  -1   6  128.48    4.69
   6   1  -6  218.75    6.12
   6   1  -6  225.95    5.43
   6   1  -6  227.73    6.19
  -6  -1   6  219.40    7.82
  -6  -1   6  213.44    7.80
  -6  -1   6  210.70   11.88
   5   1  -6   79.71    2.44
   5   1  -6   81.74    2.14
   5   1  -6   81.85    2.36
  -5  -1   6   81.40    3.18
  -5  -1   6   79.92    3.16
  -5  -1   6   83.99    5.15
   4   1  -6  101.20    2.97
   4   1  -6  104.12    3.06
   4   1  -6  106.57    2.67
  -4  -1   6  102.50    6.01
  -4  -1   6  104.18    3.91
  -4  -1   6  102.91    3.91
   3   1  -6   60.35    1.85
   3   1  -6   58.85    1.60
   3   1  -6   56.54    1.76
  -3  -1   6   56.25    1.80
  -3  -1   6   60.80    1.74
  -3  -1   6   57.83    1.61
  -3  -1   6   57.53    2.39
  -3  -1   6   60.01    2.49
  -3  -1   6   57.62    3.78
   2   1  -6    4.78    0.36
   2   1  -6    4.34    0.43
   2   1  -6    4.02    0.34
  -2  -1   6    3.52    0.34
  -2  -1   6    3.45    0.75
  -2  -1   6    5.19    0.36
  -2  -1   6    4.27    1.15
  -2  -1   6    4.15    0.43
  -2  -1   6    4.49    0.73
   1   1  -6   10.73    0.55
   1   1  -6   11.98    1.11
   1   1  -6   10.85    0.70
  -1  -1   6   11.09    0.66
  -1  -1   6   10.32    1.00
  -1  -1   6   10.92    1.14
  -1  -1   6   10.25    0.56
   0   1  -6   35.39    1.89
   0   1  -6   36.23    1.75
   0   1  -6   36.35    1.25
   0  -1   6   35.81    1.12
   0  -1   6   38.49    1.84
   0  -1   6   38.23    1.31
   0  -1   6   37.32    2.03
  -1   1  -6   45.95    2.13
  -1   1  -6   41.38    2.08
  -1   1  -6   45.28    1.47
   1  -1   6   44.16    1.33
   1  -1   6   43.76    1.51
   1  -1   6   41.62    2.33
  -2   1  -6    7.97    1.11
  -2   1  -6    7.19    0.55
  -2   1  -6    7.74    0.91
   2  -1   6    9.38    0.63
   2  -1   6    8.41    0.66
   2  -1   6    6.25    1.22
  -3   1  -6   29.11    2.12
  -3   1  -6   30.16    1.81
  -3   1  -6   28.75    1.15
   3  -1   6   28.39    1.05
   3  -1   6   29.35    1.23
   3  -1   6   26.58    2.35
  -4   1  -6  121.64    4.85
  -4   1  -6  116.45    4.58
  -4   1  -6  119.05    3.49
   4  -1   6  110.14    3.54
   4  -1   6  112.24    3.07
  -5   1  -6   47.62    2.40
  -5   1  -6   51.52    1.74
  -5   1  -6   48.10    2.70
   5  -1   6   43.95    1.72
   5  -1   6   47.99    1.50
  -6   1  -6   27.41    2.13
   6  -1   6   22.59    1.04
   6  -1   6   23.54    1.24
  -7   1  -6   13.41    1.61
   7  -1   6   11.17    0.95
   7  -1   6    9.90    0.80
  -8   1  -6    4.63    1.46
   8  -1   6    2.77    0.80
   8  -1   6    3.98    0.68
 -11   0   6    5.19    2.48
 -10   0   6    0.95    2.09
   9   0  -6    1.19    0.21
  -9   0   6    0.83    0.55
  -9   0   6    0.77    1.71
   8   0  -6   13.40    0.50
  -8   0   6   12.79    0.79
  -8   0   6   10.64    1.97
  -8   0   6   13.07    0.89
   7   0  -6   21.35    0.71
   7   0  -6   20.27    0.72
   7   0  -6   21.98    0.80
  -7   0   6   22.19    2.73
  -7   0   6   20.20    1.12
  -7   0   6   21.21    1.15
   6   0  -6   76.76    2.22
   6   0  -6   75.80    1.93
   6   0  -6   73.83    2.13
  -6   0   6   70.90    2.81
  -6   0   6   72.68    4.85
  -6   0   6   72.93    2.86
   5   0  -6   15.36    0.61
   5   0  -6   15.22    0.58
   5   0  -6   14.65    0.72
  -5   0   6   14.35    1.10
  -5   0   6   19.77    2.12
  -5   0   6   15.95    1.12
   4   0  -6   71.97    1.88
   4   0  -6   69.11    2.09
   4   0  -6   73.68    2.17
  -4   0   6   71.53    4.34
  -4   0   6   71.44    2.82
  -4   0   6   70.69    2.79
   3   0  -6  396.49   11.41
   3   0  -6  423.13   11.30
   3   0  -6  423.08    9.88
  -3   0   6  402.36   14.22
  -3   0   6  384.68   11.27
  -3   0   6  402.17   20.59
  -3   0   6  403.89   11.22
  -3   0   6  404.81    9.87
  -3   0   6  404.50   14.20
   2   0  -6  209.92    7.82
   2   0  -6  222.40    6.23
   2   0  -6  228.43    5.45
   2   0  -6  217.63    6.19
  -2   0   6  221.95    6.22
  -2   0   6  216.06    5.44
  -2   0   6  216.57    7.85
  -2   0   6  220.73    7.91
  -2   0   6  222.64   11.35
   1   0  -6  186.03    6.85
   1   0  -6  186.05    5.37
  -1   0   6  191.44    6.90
  -1   0   6  186.43    5.40
  -1   0   6  189.19    6.88
  -1   0   6  185.11    4.72
  -1   0   6  198.22    9.84
   0   0  -6   96.20    4.21
   0   0  -6  112.96    4.22
   0   0  -6  110.48    3.24
   0   0   6  112.62    4.29
   0   0   6  115.02    2.88
   0   0   6  112.81    4.25
   0   0   6  113.50    3.29
  -1   0  -6    8.59    0.95
  -1   0  -6    8.09    0.54
  -1   0  -6    9.27    0.98
   1   0   6    8.35    1.08
   1   0   6    8.72    0.54
   1   0   6    8.98    0.71
  -2   0  -6    1.82    0.40
  -2   0  -6    1.66    0.88
  -2   0  -6    1.66    0.87
   2   0   6    2.24    0.46
   2   0   6    1.43    1.28
   2   0   6    1.63    0.37
  -3   0  -6   22.41    1.70
  -3   0  -6   23.52    1.00
  -3   0  -6   22.91    1.90
   3   0   6   20.76    1.02
   3   0   6   21.37    0.92
  -4   0  -6   88.34    3.77
  -4   0  -6   94.15    3.98
  -4   0  -6   93.52    2.84
   4   0   6   89.09    2.50
   4   0   6   88.10    2.88
  -5   0  -6   46.33    1.61
  -5   0  -6   43.14    2.53
  -5   0  -6   40.03    2.31
   5   0   6   42.57    1.44
   5   0   6   41.93    1.66
  -6   0  -6    3.68    1.27
   6   0   6    2.52    0.69
   6   0   6    3.56    0.58
  -7   0  -6   12.53    1.58
   7   0   6   10.79    0.82
   7   0   6   11.02    0.96
   8   0   6   10.08    0.85
   8   0   6    9.51    1.01
 -12   1   6   -1.50    2.45
 -11   1   6    3.77    2.17
 -10   1   6   23.36    3.31
  -9   1   6   14.11    2.43
   8  -1  -6   23.09    0.83
   8  -1  -6   25.83    0.76
  -8   1   6   23.19    1.04
  -8   1   6   22.92    2.88
   7  -1  -6   17.83    0.71
   7  -1  -6   17.13    0.60
   7  -1  -6   17.47    0.60
  -7   1   6   15.31    0.93
  -7   1   6   17.60    1.04
  -7   1   6   15.30    2.18
   6  -1  -6    9.20    0.48
   6  -1  -6    9.27    0.57
   6  -1  -6    8.90    0.44
  -6   1   6   10.65    1.72
  -6   1   6   10.32    0.94
  -6   1   6    9.24    0.84
   5  -1  -6   -0.23    0.23
   5  -1  -6   -0.23    0.29
   5  -1  -6    0.01    0.20
  -5   1   6    0.93    0.64
  -5   1   6   -0.28    0.54
  -5   1   6    0.57    1.18
   4  -1  -6    5.45    0.39
   4  -1  -6    6.43    0.44
   4  -1  -6    6.08    0.43
  -4   1   6    5.82    0.73
  -4   1   6    4.39    0.32
  -4   1   6    5.32    0.70
  -4   1   6    5.59    1.11
   3  -1  -6  146.20    3.68
   3  -1  -6  142.56    4.17
   3  -1  -6  148.09    4.22
  -3   1   6  141.68    5.37
  -3   1   6  144.42    3.67
  -3   1   6  146.73    4.20
  -3   1   6  150.39    7.75
  -3   1   6  149.62    5.37
  -3   1   6  149.12    4.16
   2  -1  -6  136.11    3.93
   2  -1  -6  131.60    5.00
   2  -1  -6  139.65    3.96
  -2   1   6  141.57    7.15
  -2   1   6  135.99    3.96
  -2   1   6  135.80    3.45
  -2   1   6  134.72    5.07
  -2   1   6  136.53    5.07
   1  -1  -6    1.67    0.30
   1  -1  -6    1.39    0.63
  -1   1   6    1.58    0.30
  -1   1   6    1.55    0.85
  -1   1   6    1.49    0.39
  -1   1   6    1.01    0.65
  -1   1   6    1.32    0.59
   0  -1  -6   49.63    1.60
   0  -1  -6   48.34    2.29
   0  -1  -6   42.26    2.21
   0   1   6   46.51    1.41
   0   1   6   56.40    2.77
   0   1   6   50.00    1.67
   0   1   6   47.90    2.37
   0   1   6   46.60    2.39
  -1  -1  -6   74.62    2.28
  -1  -1  -6   72.53    3.08
  -1  -1  -6   72.18    3.11
   1   1   6   72.22    3.14
   1   1   6   72.66    2.33
   1   1   6   72.30    2.00
  -2  -1  -6   42.23    2.26
  -2  -1  -6   40.65    2.16
  -2  -1  -6   38.69    1.39
   2   1   6   35.82    2.52
   2   1   6   37.32    2.36
   2   1   6   37.78    1.46
   2   1   6   37.50    1.22
  -3  -1  -6   27.73    2.04
  -3  -1  -6   26.48    1.90
  -3  -1  -6   24.96    1.06
   3   1   6   23.95    2.02
   3   1   6   25.38    0.96
   3   1   6   26.87    1.20
  -4  -1  -6    8.45    0.68
  -4  -1  -6    8.41    1.28
  -4  -1  -6    8.43    1.19
   4   1   6    7.54    0.61
   4   1   6    7.66    0.71
  -5  -1  -6    4.33    0.62
  -5  -1  -6    4.48    1.22
   5   1   6    3.10    0.66
   5   1   6    3.32    0.51
  -6  -1  -6    1.14    1.21
   6   1   6    0.45    0.54
   6   1   6    0.55    0.59
   7   1   6    6.00    0.71
   7   1   6    6.24    0.87
   8   1   6   12.06    1.12
   8   1   6   11.94    0.94
 -11   2   6   -0.36    1.98
 -10   2   6   29.78    3.73
  -9   2   6   26.15    3.55
   8  -2  -6    1.38    0.21
  -8   2   6    0.92    0.40
  -8   2   6    0.74    0.48
  -8   2   6    2.10    1.71
   7  -2  -6    4.98    0.31
   7  -2  -6    4.87    0.36
   7  -2  -6    4.55    0.38
  -7   2   6    5.70    0.63
  -7   2   6    4.30    1.77
  -7   2   6    4.48    0.55
   6  -2  -6    5.96    0.42
   6  -2  -6    5.49    0.39
   6  -2  -6    6.26    0.52
  -6   2   6    5.99    0.74
  -6   2   6    6.05    1.59
  -6   2   6    5.45    0.63
   5  -2  -6    3.58    0.31
   5  -2  -6    4.08    0.38
   5  -2  -6    4.12    0.33
  -5   2   6    3.26    1.28
  -5   2   6    4.07    0.66
  -5   2   6    4.26    0.77
   4  -2  -6   11.43    0.56
   4  -2  -6   11.04    0.52
   4  -2  -6   11.45    0.66
  -4   2   6   11.12    1.08
  -4   2   6   11.81    0.50
  -4   2   6   11.73    0.51
  -4   2   6   13.11    1.21
  -4   2   6   12.43    1.77
   3  -2  -6    3.39    0.32
   3  -2  -6    3.26    0.39
   3  -2  -6    3.19    0.33
  -3   2   6    3.26    0.32
  -3   2   6    2.90    0.38
  -3   2   6    3.36    0.88
  -3   2   6    2.91    0.86
  -3   2   6    2.87    0.69
   2  -2  -6   11.50    0.60
   2  -2  -6   12.43    1.05
  -2   2   6   11.73    0.69
  -2   2   6   12.28    0.59
  -2   2   6   10.57    0.99
  -2   2   6   13.50    1.38
  -2   2   6   12.95    1.31
   1  -2  -6    9.71    0.93
   1  -2  -6    9.12    0.58
  -1   2   6   10.17    0.96
  -1   2   6   10.30    0.66
  -1   2   6    8.67    1.15
  -1   2   6    8.33    0.53
  -1   2   6    8.70    0.98
   0  -2  -6   13.64    1.33
   0  -2  -6   12.90    1.18
   0  -2  -6   14.91    0.75
   0   2   6   14.70    1.42
   0   2   6   16.05    0.73
   0   2   6   15.94    0.81
   0   2   6   16.68    1.57
  -1  -2  -6  102.31    3.97
  -1  -2  -6  102.51    3.98
  -1  -2  -6   95.42    2.96
   1   2   6   97.04    4.00
   1   2   6   97.96    2.62
   1   2   6   95.18    3.00
  -2  -2  -6   27.98    1.93
  -2  -2  -6   26.13    1.78
  -2  -2  -6   25.85    1.10
   2   2   6   25.67    0.95
   2   2   6   25.14    2.06
   2   2   6   24.51    1.12
  -3  -2  -6    8.42    1.25
  -3  -2  -6    5.59    1.18
  -3  -2  -6    7.28    0.63
   3   2   6    7.14    0.56
   3   2   6    7.02    0.71
  -4  -2  -6    7.41    0.67
  -4  -2  -6    8.96    1.30
   4   2   6    6.83    0.74
   4   2   6    6.44    0.60
  -5  -2  -6    3.87    1.23
  -5  -2  -6    4.35    0.66
   5   2   6    5.13    0.60
   5   2   6    4.27    0.72
   6   2   6    1.37    0.69
   6   2   6    0.89    0.56
   7   2   6   -0.36    0.59
   7   2   6    0.56    0.76
 -10   3   6    3.04    2.09
   9  -3  -6   26.06    0.83
  -9   3   6   25.02    1.24
  -9   3   6   23.07    1.13
  -9   3   6   23.81    3.10
   8  -3  -6    0.05    0.23
  -8   3   6    0.62    0.47
  -8   3   6   -0.62    1.62
  -8   3   6   -0.26    0.60
   7  -3  -6   22.58    0.87
   7  -3  -6   22.83    0.82
   7  -3  -6   23.32    0.76
  -7   3   6   21.75    1.20
  -7   3   6   22.72    1.35
  -7   3   6   24.40    3.11
   6  -3  -6  117.57    3.40
   6  -3  -6  120.65    2.99
   6  -3  -6  121.36    3.44
  -6   3   6  114.77    4.37
  -6   3   6  117.41    6.78
  -6   3   6  119.01    4.43
   5  -3  -6   42.16    1.21
   5  -3  -6   42.13    1.40
   5  -3  -6   40.33    1.34
  -5   3   6   42.96    3.22
  -5   3   6   40.56    1.87
  -5   3   6   43.78    2.08
   4  -3  -6    4.57    0.36
   4  -3  -6    4.51    0.38
   4  -3  -6    4.53    0.44
  -4   3   6    4.44    0.78
  -4   3   6    4.94    0.36
  -4   3   6    6.47    0.99
  -4   3   6    4.15    0.37
  -4   3   6    5.09    1.23
  -4   3   6    5.04    0.38
   3  -3  -6    1.87    0.33
  -3   3   6    2.86    0.98
  -3   3   6    1.39    0.33
  -3   3   6    1.67    0.40
  -3   3   6    2.73    0.94
  -3   3   6    1.71    0.75
   2  -3  -6    1.77    0.66
   2  -3  -6    1.16    0.33
  -2   3   6    0.93    0.75
  -2   3   6    1.72    0.44
  -2   3   6    1.80    0.98
  -2   3   6    1.64    0.35
   1  -3  -6    0.25    0.73
   1  -3  -6    0.32    0.31
  -1   3   6    0.28    0.41
  -1   3   6    0.73    0.34
  -1   3   6   -1.14    1.11
  -1   3   6   -0.28    0.81
   0  -3  -6    0.52    0.98
   0  -3  -6    1.25    0.81
   0  -3  -6   -0.19    0.36
   0   3   6    0.34    0.35
   0   3   6    0.29    1.14
   0   3   6    0.94    0.49
   0   3   6    1.55    0.95
  -1  -3  -6   13.73    1.31
  -1  -3  -6   14.42    0.81
  -1  -3  -6   11.74    1.27
   1   3   6   13.06    1.27
   1   3   6   14.02    0.77
   1   3   6   12.74    0.86
   1   3   6   15.06    1.76
  -2  -3  -6    2.19    1.03
  -2  -3  -6    3.12    0.51
  -2  -3  -6    3.24    1.00
   2   3   6    2.66    0.57
   2   3   6    2.69    0.45
  -3  -3  -6    4.69    0.59
  -3  -3  -6    4.87    1.03
   3   3   6    4.21    0.51
   3   3   6    4.56    0.63
  -4  -3  -6    4.95    0.64
  -4  -3  -6    5.63    1.22
   4   3   6    5.26    0.61
   4   3   6    5.87    0.75
   5   3   6   14.65    0.86
   5   3   6   14.62    1.10
   6   3   6    6.08    0.84
   6   3   6    6.08    0.72
   7   3   6    4.22    0.90
   7   3   6    3.48    0.71
 -11   4   6   12.13    1.07
 -11   4   6    9.88    0.81
 -10   4   6    6.85    0.84
 -10   4   6    7.83    0.77
   9  -4  -6    0.10    0.28
  -9   4   6    0.21    0.52
  -9   4   6   -0.24    0.75
   8  -4  -6   12.48    0.61
  -8   4   6   12.60    0.95
  -8   4   6   12.90    1.29
   7  -4  -6    6.21    0.46
   7  -4  -6    6.11    0.50
  -7   4   6    5.79    0.71
  -7   4   6    5.70    0.96
   6  -4  -6   22.74    0.93
   6  -4  -6   22.55    0.80
   6  -4  -6   22.68    0.87
  -6   4   6   20.71    1.32
  -6   4   6   26.65    1.66
   5  -4  -6    6.92    0.53
   5  -4  -6    6.53    0.49
   5  -4  -6    7.01    0.41
  -5   4   6    8.62    1.16
  -5   4   6    6.71    0.86
  -5   4   6    4.60    0.35
   4  -4  -6    0.34    0.30
  -4   4   6    0.95    0.31
  -4   4   6    0.32    0.35
  -4   4   6    0.56    0.71
  -4   4   6    1.04    1.03
   3  -4  -6   46.07    1.60
   3  -4  -6   53.09    2.97
  -3   4   6   50.00    2.33
  -3   4   6   50.19    1.65
  -3   4   6   48.95    2.51
  -3   4   6   46.09    1.42
   2  -4  -6   99.35    3.11
  -2   4   6  107.52    2.75
  -2   4   6  104.99    4.31
  -2   4   6  104.83    4.17
  -2   4   6  104.68    3.16
   1  -4  -6   50.41    1.74
   1  -4  -6   54.75    2.50
  -1   4   6   54.35    1.84
  -1   4   6   50.96    1.54
  -1   4   6   56.25    2.65
  -1   4   6   52.61    2.87
   0  -4  -6   42.61    1.54
   0  -4  -6   42.72    2.27
   0  -4  -6   41.51    2.29
   0   4   6   45.14    2.44
   0   4   6   44.44    1.38
   0   4   6   43.22    1.57
   0   4   6   41.14    2.56
  -1  -4  -6   10.97    0.79
  -1  -4  -6    8.75    1.27
  -1  -4  -6   11.86    1.20
   1   4   6   11.60    0.84
   1   4   6   10.36    0.74
   1   4   6    9.98    1.72
  -2  -4  -6    2.19    0.94
  -2  -4  -6    2.72    0.51
   2   4   6    2.91    0.58
   2   4   6    3.35    0.51
  -3  -4  -6    0.77    0.51
   3   4   6    1.10    0.49
   3   4   6    0.73    0.55
  -4  -4  -6    5.65    0.72
   4   4   6    3.29    0.69
   4   4   6    5.15    0.63
   5   4   6    5.62    0.70
   5   4   6    7.49    0.89
   6   4   6    0.40    0.64
   6   4   6    0.03    0.78
 -12   5   6    3.59    0.64
 -11   5   6    1.13    0.61
  10  -5  -6   21.40    0.85
 -10   5   6   20.44    1.20
 -10   5   6   20.40    1.45
   9  -5  -6   41.02    1.36
  -9   5   6   40.31    2.04
  -9   5   6   41.85    1.85
   8  -5  -6   52.30    1.67
  -8   5   6   52.96    2.22
  -8   5   6   52.72    2.41
   7  -5  -6   75.20    2.32
  -7   5   6   76.26    3.05
  -7   5   6   77.79    3.18
   6  -5  -6   23.11    0.97
   6  -5  -6   23.26    0.82
   6  -5  -6   21.74    0.91
  -6   5   6   21.58    1.40
  -6   5   6   20.74    1.72
   5  -5  -6    5.49    0.48
  -5   5   6    7.59    1.24
  -5   5   6    5.85    0.92
  -5   5   6    5.92    0.41
  -5   5   6    5.57    0.44
   4  -5  -6   19.87    0.89
  -4   5   6   22.55    1.90
  -4   5   6   20.91    1.51
  -4   5   6   19.90    0.79
  -4   5   6   21.07    0.96
   3  -5  -6    7.60    0.64
   3  -5  -6    8.30    0.97
  -3   5   6    7.88    0.54
  -3   5   6    8.71    1.41
  -3   5   6    7.33    0.99
  -3   5   6    9.00    0.75
   2  -5  -6   54.78    1.94
  -2   5   6   62.68    1.74
  -2   5   6   59.56    2.81
  -2   5   6   61.00    2.96
  -2   5   6   58.90    2.01
   1  -5  -6   28.35    1.81
   1  -5  -6   23.27    1.06
  -1   5   6   25.14    1.12
  -1   5   6   23.86    1.75
  -1   5   6   22.60    0.97
  -1   5   6   24.32    2.33
   0  -5  -6    2.73    0.51
   0   5   6    2.56    0.58
   0   5   6    2.38    0.49
  -1  -5  -6   27.03    1.22
   1   5   6   27.09    1.05
   1   5   6   27.90    1.24
  -2  -5  -6   26.72    1.21
   2   5   6   23.79    1.20
   2   5   6   24.92    1.04
  -3  -5  -6   25.73    1.24
   3   5   6   24.85    1.13
   3   5   6   24.38    1.25
  -4  -5  -6    7.37    0.82
   4   5   6    6.38    0.87
   4   5   6    6.28    0.67
   5   5   6    2.62    0.82
   5   5   6    2.04    0.67
   6   5   6    2.87    0.75
   6   5   6    3.51    0.92
 -11   6   6    4.79    0.79
  10  -6  -6    0.98    0.40
 -10   6   6    1.53    0.72
   9  -6  -6   23.76    0.97
  -9   6   6   22.12    1.73
  -9   6   6   23.14    1.43
   8  -6  -6    7.25    0.56
  -8   6   6    7.19    1.16
  -8   6   6    7.82    0.89
   7  -6  -6   11.34    0.71
  -7   6   6   13.62    1.20
  -7   6   6   11.68    1.26
   6  -6  -6   33.04    1.22
  -6   6   6   33.14    1.75
  -6   6   6   33.26    1.98
   5  -6  -6   68.17    2.19
  -5   6   6   70.97    1.88
  -5   6   6   71.07    2.95
  -5   6   6   70.00    3.20
  -5   6   6   63.62    2.09
   4  -6  -6   92.62    2.90
  -4   6   6   93.85    2.88
  -4   6   6   94.88    3.87
  -4   6   6   96.40    2.53
  -4   6   6   94.78    4.02
   3  -6  -6   65.12    2.16
  -3   6   6   66.90    2.20
  -3   6   6   67.96    1.91
  -3   6   6   68.74    3.27
  -3   6   6   66.10    3.05
   2  -6  -6    9.47    0.74
  -2   6   6   10.79    1.62
  -2   6   6    9.50    1.14
  -2   6   6    9.35    0.62
  -2   6   6    8.55    0.75
   1  -6  -6   21.79    1.07
  -1   6   6   21.00    1.94
  -1   6   6   24.05    1.00
  -1   6   6   22.89    1.17
   0  -6  -6    0.56    0.49
   0   6   6    0.90    0.60
   0   6   6    0.12    0.44
  -1  -6  -6   21.76    1.10
   1   6   6   23.08    1.04
   1   6   6   22.54    1.23
  -2  -6  -6   31.86    1.43
   2   6   6   33.54    1.25
   2   6   6   32.46    1.46
  -3  -6  -6   13.61    1.02
   3   6   6   10.94    0.83
   3   6   6   11.57    1.00
   4   6   6    7.64    0.80
   4   6   6    7.38    0.97
   5   6   6    5.96    0.99
   5   6   6    4.82    0.73
 -11   7   6   10.46    1.06
  10  -7  -6    9.84    0.75
 -10   7   6    8.50    1.01
   9  -7  -6    4.17    0.52
  -9   7   6    3.25    0.84
   8  -7  -6    0.12    0.40
  -8   7   6    0.91    1.19
  -8   7   6    1.27    0.78
   7  -7  -6    0.43    0.40
  -7   7   6   -0.55    1.16
  -7   7   6    0.26    0.77
   6  -7  -6   32.76    1.28
  -6   7   6   33.38    1.87
  -6   7   6   34.02    2.25
   5  -7  -6   43.18    1.57
  -5   7   6   45.60    2.30
  -5   7   6   43.74    2.58
  -5   7   6   40.53    1.48
  -5   7   6   44.07    1.33
   4  -7  -6   30.69    1.28
  -4   7   6   30.87    1.95
  -4   7   6   31.06    1.31
  -4   7   6   32.30    1.12
  -4   7   6   34.63    2.28
   3  -7  -6   14.49    0.85
  -3   7   6   18.76    1.73
  -3   7   6   15.86    0.83
  -3   7   6   17.12    0.99
   2  -7  -6   12.37    0.82
  -2   7   6   15.90    1.72
  -2   7   6   13.90    0.96
  -2   7   6   13.16    0.75
   1  -7  -6    6.43    0.70
  -1   7   6    7.05    0.77
  -1   7   6    8.20    0.66
   0  -7  -6    9.25    0.81
   0   7   6    9.21    0.69
   0   7   6   10.82    0.90
  -1  -7  -6    0.38    0.59
   1   7   6    0.57    0.51
   1   7   6    0.63    0.68
  -2  -7  -6    0.35    0.62
   2   7   6    0.66    0.55
   2   7   6   -0.66    0.63
  -3  -7  -6    2.10    0.70
   3   7   6    1.56    0.61
   3   7   6    1.58    0.79
   4   7   6   -0.47    0.62
   4   7   6    0.23    0.84
  11  -8  -6    9.47    0.79
 -11   8   6    9.26    1.14
  10  -8  -6    9.73    0.75
   9  -8  -6    2.01    0.51
  -9   8   6    1.70    0.87
   8  -8  -6    0.38    0.48
  -8   8   6    1.15    0.87
   7  -8  -6    6.72    0.64
  -7   8   6    6.94    1.10
   6  -8  -6    0.18    0.46
  -6   8   6    0.50    1.31
  -6   8   6   -0.05    0.91
   5  -8  -6    4.95    0.62
  -5   8   6    6.01    0.56
  -5   8   6    5.79    1.45
   4  -8  -6    0.09    0.48
  -4   8   6   -0.27    0.44
  -4   8   6   -0.75    0.54
   3  -8  -6    0.49    0.50
  -3   8   6    0.41    0.58
  -3   8   6    0.55    0.49
   2  -8  -6   13.53    0.91
  -2   8   6   15.78    1.07
  -2   8   6   14.87    0.89
   1  -8  -6   26.19    1.26
  -1   8   6   27.93    1.38
  -1   8   6   27.19    1.17
   0  -8  -6   16.74    1.12
   0   8   6   17.65    0.94
   0   8   6   17.76    1.12
  -1  -8  -6    6.41    0.81
   1   8   6    4.97    0.81
   1   8   6    5.05    0.70
  -2  -8  -6    2.56    0.74
   2   8   6    1.05    0.66
   2   8   6    2.17    0.82
   3   8   6    2.82    0.70
   3   8   6    2.02    0.88
  10  -9  -6    4.04    0.63
 -10   9   6    3.73    1.03
   9  -9  -6   15.29    0.97
  -9   9   6   15.22    1.57
   8  -9  -6   15.53    0.94
  -8   9   6   16.14    1.54
   7  -9  -6   18.11    1.02
   6  -9  -6    5.69    0.69
   5  -9  -6   -0.08    0.52
   4  -9  -6    0.09    0.55
  -4   9   6   -0.21    0.48
  -4   9   6    0.08    0.59
   3  -9  -6    0.65    0.57
  -3   9   6   -0.74    0.62
  -3   9   6    0.35    0.53
   2  -9  -6    8.89    0.86
  -2   9   6    9.51    0.75
  -2   9   6   10.22    0.93
   1  -9  -6    4.09    0.73
  -1   9   6    2.65    0.76
  -1   9   6    2.58    0.62
   0  -9  -6    0.79    0.68
   0   9   6   -0.10    0.60
   0   9   6   -0.13    0.74
  -1  -9  -6   -0.83    0.67
   1   9   6   -0.49    0.77
   1   9   6    0.47    0.64
  -2  -9  -6    2.77    0.81
   2   9   6    1.76    0.73
   2   9   6    1.20    0.87
   9 -10  -6    2.54    0.64
   8 -10  -6    6.45    0.76
   7 -10  -6    1.26    0.61
   6 -10  -6    4.64    0.71
   5 -10  -6    5.48    0.74
   4 -10  -6   15.92    1.09
  -4  10   6   16.40    0.98
   3 -10  -6   17.05    1.08
  -3  10   6   17.47    1.28
  -3  10   6   17.03    1.02
   2 -10  -6    4.65    0.79
  -2  10   6    5.89    0.68
  -2  10   6    6.02    0.88
   1 -10  -6    3.11    0.78
  -1  10   6    4.30    0.81
  -1  10   6    3.00    0.70
   0 -10  -6    1.32    0.75
   0  10   6    0.35    0.67
   0  10   6    1.52    0.85
  -1 -10  -6   -0.13    0.76
   1  10   6   -0.38    0.79
   1  10   6   -0.64    0.64
   8 -11  -6    0.45    0.63
   7 -11  -6    3.72    0.76
   6 -11  -6   -0.98    0.61
   5 -11  -6    5.06    0.80
   4 -11  -6    7.40    0.83
   3 -11  -6    3.87    0.76
  -3  11   6    4.53    0.74
   2 -11  -6    2.56    0.81
  -2  11   6    2.02    0.87
  -2  11   6    2.81    0.71
   1 -11  -6    3.75    0.81
  -1  11   6    1.63    0.91
  -1  11   6    2.75    0.74
   6 -12  -6    7.15    0.91
   5 -12  -6    1.62    0.76
   4 -12  -6    0.39    0.70
   1  14  -7    2.74    0.89
   0  14  -7    1.91    0.86
   0 -14   7    2.65    0.99
  -1  14  -7    0.97    0.82
   1 -14   7    0.20    0.88
  -2  14  -7    4.75    0.91
   2 -14   7    4.53    1.02
  -3  14  -7    3.17    0.85
   3 -14   7    4.60    0.97
   4 -14   7    1.48    0.92
   3  13  -7    0.84    0.82
  -3 -13   7    1.17    2.09
   2  13  -7    0.65    0.78
   1  13  -7    2.76    0.77
  -1 -13   7    2.18    0.90
   0  13  -7    8.20    0.95
   0 -13   7    6.69    1.03
  -1  13  -7    6.61    0.88
   1 -13   7    4.99    0.98
  -2  13  -7   17.75    1.24
   2 -13   7   17.74    1.40
  -3  13  -7   20.57    1.29
   3 -13   7   19.40    1.36
  -4  13  -7    3.14    0.78
   4 -13   7    3.39    0.94
   5 -13   7    2.40    0.91
   6 -13   7    5.63    1.00
   4  12  -7   16.16    1.22
  -4 -12   7    9.97    2.75
   3  12  -7    3.75    0.80
  -3 -12   7    3.16    2.17
   2  12  -7    1.75    0.74
  -2 -12   7    1.33    0.80
   1  12  -7    2.56    0.75
  -1 -12   7    2.65    0.84
   0  12  -7    3.39    0.71
   0 -12   7    4.68    0.90
  -1  12  -7    6.60    0.84
   1 -12   7    6.11    0.91
  -2  12  -7    7.20    0.84
   2 -12   7    8.23    1.01
  -3  12  -7   21.58    1.27
   3 -12   7   21.63    1.44
  -4  12  -7   15.44    1.12
   4 -12   7   15.19    1.21
   5 -12   7   10.45    1.13
   6 -12   7   23.80    1.56
   5  11  -7    5.45    0.83
  -5 -11   7    2.40    2.30
   4  11  -7   20.26    1.22
  -4 -11   7   11.60    2.74
   3  11  -7   15.89    1.13
   2  11  -7   22.61    1.29
  -2 -11   7   25.15    1.50
   1  11  -7   53.06    2.09
  -1 -11   7   60.32    2.26
   0  11  -7   30.19    1.42
   0 -11   7   34.17    1.64
  -1  11  -7    2.15    0.66
   1 -11   7    2.15    0.79
  -2  11  -7    2.23    0.67
   2 -11   7    1.36    0.69
  -3  11  -7    1.49    0.64
   3 -11   7    2.40    0.79
  -4  11  -7   24.30    1.31
   4 -11   7   22.85    1.44
   5 -11   7   18.69    1.29
   6 -11   7   23.17    1.55
   7 -11   7   19.90    1.53
   6  10  -7    0.52    0.66
  -6 -10   7    0.85    2.21
   5  10  -7    0.25    0.58
  -5 -10   7   -0.20    1.83
   4  10  -7    0.56    0.62
  -4 -10   7    1.11    1.82
   3  10  -7    5.01    0.69
  -3 -10   7    5.16    0.78
   2  10  -7    6.66    0.74
  -2 -10   7    6.42    0.83
   1  10  -7   18.01    1.05
  -1 -10   7   20.96    1.26
   0  10  -7   27.67    1.31
   0 -10   7   26.71    1.45
  -1  10  -7    3.84    0.63
   1 -10   7    3.33    0.76
  -2  10  -7   16.20    1.03
   2 -10   7   15.47    1.18
  -3  10  -7   23.95    1.16
   3 -10   7   23.33    1.30
  -4  10  -7    2.66    0.64
   4 -10   7    2.90    0.79
  -5  10  -7    2.13    0.61
   5 -10   7    0.97    0.72
   6 -10   7    1.98    0.78
   6 -10   7    2.33    0.73
   7 -10   7    0.57    0.73
   7 -10   7    0.63    0.88
   8 -10   7    3.90    1.02
   8 -10   7    2.77    0.86
   7   9  -7    5.37    0.76
  -7  -9   7    4.70    2.53
  -7  -9   7    5.32    1.39
   6   9  -7    0.15    0.59
  -6  -9   7    0.71    1.17
  -6  -9   7    0.64    2.03
   5   9  -7    1.53    0.61
  -5  -9   7    0.38    1.94
  -5  -9   7    1.74    1.18
   4   9  -7    5.34    0.70
  -4  -9   7    7.46    1.32
  -4  -9   7    1.61    1.86
   3   9  -7    1.67    0.58
  -3  -9   7    1.24    0.57
  -3  -9   7    0.78    1.10
   2   9  -7    0.39    0.52
  -2  -9   7    1.31    0.61
  -2  -9   7    0.05    1.10
   1   9  -7    4.45    0.64
  -1  -9   7    4.43    0.73
  -1  -9   7    4.51    1.20
   0   9  -7    3.08    0.57
   0  -9   7    4.43    0.74
  -1   9  -7    0.83    0.52
   1  -9   7    0.58    0.58
  -2   9  -7    7.59    0.71
   2  -9   7    5.44    0.74
  -3   9  -7   29.01    1.29
   3  -9   7   28.17    1.49
  -4   9  -7   12.53    0.92
   4  -9   7   11.15    0.98
   4  -9   7   10.46    0.84
  -5   9  -7    0.34    0.57
   5  -9   7    0.61    0.63
   5  -9   7   -0.94    0.69
   6  -9   7    7.82    0.87
   6  -9   7    7.92    1.00
   7  -9   7    4.43    0.96
   7  -9   7    4.97    0.84
   8  -9   7   -0.14    0.88
   8  -9   7    0.58    0.76
   8   8  -7    0.64    0.62
  -8  -8   7    1.65    1.25
  -8  -8   7   -0.69    2.30
   7   8  -7    5.34    0.73
  -7  -8   7    6.25    1.32
  -7  -8   7    2.57    2.10
   6   8  -7    2.21    0.60
  -6  -8   7    2.63    2.11
  -6  -8   7    1.54    1.09
   5   8  -7    2.06    0.58
  -5  -8   7    2.35    1.09
  -5  -8   7    1.03    1.95
   4   8  -7   23.59    1.15
  -4  -8   7   25.24    1.90
   3   8  -7    3.60    0.56
  -3  -8   7    3.77    0.64
  -3  -8   7    4.77    1.05
   2   8  -7    2.86    0.55
  -2  -8   7    2.73    0.62
  -2  -8   7    2.29    1.08
   1   8  -7    1.64    0.52
  -1  -8   7    1.41    0.61
  -1  -8   7    2.79    1.16
   0   8  -7    6.07    0.65
   0  -8   7    6.84    0.77
   0  -8   7    6.53    1.27
  -1   8  -7    0.50    0.50
   1  -8   7    0.26    0.54
  -2   8  -7    3.09    1.32
  -2   8  -7    4.93    0.62
   2  -8   7    3.47    0.68
  -3   8  -7    5.51    1.39
  -3   8  -7    3.31    0.55
   3  -8   7    3.96    0.62
   3  -8   7    3.42    0.68
  -4   8  -7    1.14    0.53
  -4   8  -7    2.71    1.46
   4  -8   7    0.65    0.58
   4  -8   7    0.88    0.62
  -5   8  -7    1.55    0.57
  -5   8  -7    1.48    1.57
   5  -8   7    1.29    0.73
   5  -8   7    1.57    0.59
   6  -8   7    6.93    0.82
   6  -8   7    7.59    0.95
   7  -8   7   17.74    1.17
   7  -8   7   19.70    1.37
   8  -8   7    5.50    0.85
   8  -8   7    3.61    0.96
   9   7  -7    1.79    0.63
  -9  -7   7    0.95    1.11
  -9  -7   7    0.10    2.46
   8   7  -7    3.54    0.62
  -8  -7   7    3.18    2.38
  -8  -7   7    2.37    1.12
   7   7  -7    1.51    0.56
  -7  -7   7    1.61    1.98
  -7  -7   7    2.89    1.09
   6   7  -7    0.16    0.49
  -6  -7   7    0.10    1.95
  -6  -7   7   -0.68    0.94
   5   7  -7    0.64    0.48
  -5  -7   7    1.71    0.98
  -5  -7   7    1.16    1.89
   4   7  -7   10.56    0.72
  -4  -7   7    4.24    2.08
  -4  -7   7    8.75    1.19
  -4  -7   7    9.20    0.66
   3   7  -7   24.54    1.09
  -3  -7   7   21.74    1.09
  -3  -7   7   24.70    1.85
   2   7  -7    3.59    0.54
  -2  -7   7    4.62    0.65
  -2  -7   7    2.75    1.72
  -2  -7   7    3.79    1.14
   1   7  -7   66.76    3.43
   1   7  -7   62.58    2.16
  -1  -7   7   67.62    3.16
  -1  -7   7   65.65    2.29
  -1  -7   7   66.88    3.91
   0   7  -7   98.03    3.08
   0   7  -7  101.63    4.52
   0  -7   7   98.58    4.85
   0  -7   7  102.67    4.16
   0  -7   7   95.29    3.16
  -1   7  -7   26.65    1.90
  -1   7  -7   27.39    1.16
   1  -7   7   27.23    1.33
   1  -7   7   24.13    1.15
   1  -7   7   22.04    2.29
  -2   7  -7   14.41    1.77
  -2   7  -7   14.52    1.47
  -2   7  -7   14.06    0.89
   2  -7   7   14.11    0.98
   2  -7   7   13.89    0.89
  -3   7  -7   18.68    1.71
  -3   7  -7   19.28    1.92
  -3   7  -7   17.52    0.98
   3  -7   7   17.44    1.02
   3  -7   7   17.71    1.10
  -4   7  -7    0.54    0.50
  -4   7  -7    1.59    1.29
   4  -7   7    0.74    0.53
   4  -7   7    0.89    0.59
  -5   7  -7    3.57    1.42
  -5   7  -7    2.26    0.57
   5  -7   7    1.53    0.54
   5  -7   7    1.67    0.66
  -6   7  -7    3.90    1.68
   6  -7   7    2.78    0.77
   6  -7   7    2.38    0.66
  -7   7  -7    7.36    1.85
   7  -7   7    6.43    0.93
   7  -7   7    5.54    0.76
   8  -7   7    0.70    0.82
   8  -7   7    0.51    0.69
   9   6  -7    3.88    0.62
  -9  -6   7    0.05    2.16
  -9  -6   7    4.32    1.09
   8   6  -7   20.89    1.07
  -8  -6   7   15.83    2.99
  -8  -6   7   24.71    1.70
   7   6  -7   56.88    1.98
  -7  -6   7   51.66    4.77
  -7  -6   7   62.96    2.78
   6   6  -7   31.36    1.28
  -6  -6   7   30.44    3.97
  -6  -6   7   35.12    1.91
   5   6  -7   20.12    0.95
  -5  -6   7   22.22    1.64
  -5  -6   7   13.74    2.57
   4   6  -7   14.11    0.80
  -4  -6   7    7.17    2.25
  -4  -6   7   15.03    1.47
  -4  -6   7   12.44    0.74
  -4  -6   7   13.63    1.83
   3   6  -7    0.88    0.39
  -3  -6   7    0.25    1.58
  -3  -6   7    0.79    0.98
  -3  -6   7    1.18    0.47
   2   6  -7   11.68    0.77
  -2  -6   7   13.95    0.91
  -2  -6   7   12.51    1.31
  -2  -6   7   12.56    1.82
   1   6  -7   20.59    2.13
   1   6  -7   19.31    0.97
  -1  -6   7   20.59    1.90
  -1  -6   7   21.65    1.11
  -1  -6   7   21.53    1.83
   0   6  -7  163.34    6.32
   0   6  -7  156.77    4.69
   0  -6   7  162.88    6.16
   0  -6   7  161.68    6.56
   0  -6   7  154.34    4.17
   0  -6   7  158.37    4.81
  -1   6  -7   43.31    2.31
  -1   6  -7   42.71    1.52
   1  -6   7   41.37    1.44
   1  -6   7   40.10    1.67
   1  -6   7   44.52    2.89
  -2   6  -7   39.22    2.82
  -2   6  -7   36.34    1.40
  -2   6  -7   33.69    2.05
   2  -6   7   35.28    1.30
   2  -6   7   37.15    1.52
   2  -6   7   38.22    2.40
  -3   6  -7   82.94    3.62
  -3   6  -7   89.28    2.73
  -3   6  -7   92.08    4.10
   3  -6   7   82.38    2.81
   3  -6   7   83.62    2.45
  -4   6  -7   84.18    2.66
  -4   6  -7   88.31    4.20
  -4   6  -7   82.86    3.62
   4  -6   7   79.22    2.42
   4  -6   7   82.86    2.80
  -5   6  -7   15.17    1.87
  -5   6  -7   15.83    0.96
   5  -6   7   13.44    0.94
   5  -6   7   12.70    1.06
  -6   6  -7   14.08    1.94
   6  -6   7   13.25    0.96
   6  -6   7   12.21    1.02
  -7   6  -7    5.96    1.77
   7  -6   7    4.35    0.70
   7  -6   7    4.31    0.84
   8  -6   7   -1.10    0.64
   8  -6   7    0.56    0.79
  10   5  -7    0.84    0.53
 -10  -5   7    0.34    2.56
 -10  -5   7    0.29    0.99
   9   5  -7    1.48    0.52
  -9  -5   7    0.93    0.93
  -9  -5   7   -0.59    2.21
   8   5  -7    1.66    0.49
  -8  -5   7   -0.32    1.86
  -8  -5   7    1.81    0.88
   7   5  -7   45.92    1.68
  -7  -5   7   51.43    2.35
  -7  -5   7   49.27    4.62
   6   5  -7   36.10    1.35
  -6  -5   7   35.94    2.79
  -6  -5   7   37.92    1.97
  -6  -5   7   35.41    4.03
   5   5  -7   26.52    1.04
  -5  -5   7   25.49    2.61
  -5  -5   7   25.70    1.69
  -5  -5   7   20.18    2.83
   4   5  -7  119.07    3.59
  -4  -5   7  121.16    4.76
  -4  -5   7  127.59    5.19
  -4  -5   7  116.60    3.50
   3   5  -7  146.96    4.37
  -3  -5   7  156.69    5.72
  -3  -5   7  157.72    6.10
  -3  -5   7  137.59    4.37
   2   5  -7   47.89    1.63
   2   5  -7   47.63    1.60
  -2  -5   7   47.38    3.01
  -2  -5   7   51.10    2.47
  -2  -5   7   48.50    1.73
   1   5  -7   35.95    2.36
   1   5  -7   34.87    1.32
   1   5  -7   35.64    1.34
  -1  -5   7   38.63    2.79
  -1  -5   7   37.73    1.30
  -1  -5   7   38.03    1.50
  -1  -5   7   38.80    2.17
   0   5  -7    0.32    0.35
   0   5  -7   -0.82    0.99
   0   5  -7    0.15    0.36
   0  -5   7    0.24    0.52
   0  -5   7    0.56    0.41
   0  -5   7    1.99    1.37
   0  -5   7    1.40    1.01
  -1   5  -7    8.56    0.62
  -1   5  -7    9.00    0.65
  -1   5  -7    7.41    1.08
   1  -5   7    8.89    0.77
   1  -5   7    8.61    1.50
   1  -5   7    7.85    0.60
  -2   5  -7   39.75    1.46
  -2   5  -7   39.47    2.20
  -2   5  -7   44.99    2.63
   2  -5   7   43.67    2.48
   2  -5   7   38.32    1.59
   2  -5   7   39.30    1.35
  -3   5  -7  124.38    3.82
  -3   5  -7  130.80    5.49
  -3   5  -7  128.01    4.98
   3  -5   7  127.80    5.21
   3  -5   7  122.40    3.88
   3  -5   7  127.86    3.40
  -4   5  -7  149.63    5.71
  -4   5  -7  144.54    6.05
  -4   5  -7  151.70    4.42
   4  -5   7  144.45    4.50
   4  -5   7  148.72    3.93
  -5   5  -7   27.10    2.38
  -5   5  -7   24.10    1.16
   5  -5   7   25.91    1.30
   5  -5   7   22.68    1.05
  -6   5  -7   18.79    2.07
   6  -5   7   18.10    1.03
   6  -5   7   17.59    1.17
  -7   5  -7   18.70    2.12
   7  -5   7   18.76    1.08
   7  -5   7   17.11    1.23
   8  -5   7    3.88    0.86
   8  -5   7    3.39    0.77
  10   4  -7    5.96    0.60
 -10  -4   7    4.43    0.97
 -10  -4   7    2.29    2.34
   9   4  -7    2.44    0.49
  -9  -4   7    2.48    0.87
  -9  -4   7    2.34    2.19
   8   4  -7    3.33    0.49
  -8  -4   7    1.39    1.85
  -8  -4   7    1.90    0.86
   7   4  -7    3.45    0.46
  -7  -4   7    3.11    0.86
  -7  -4   7    3.31    1.94
  -7  -4   7    2.64    1.42
   6   4  -7    5.84    0.50
  -6  -4   7    5.37    1.44
  -6  -4   7    6.14    2.00
  -6  -4   7    6.45    0.94
   5   4  -7    6.43    0.51
   5   4  -7    6.60    0.50
   5   4  -7    7.31    0.61
   5   4  -7    5.29    0.48
  -5  -4   7    5.21    1.46
  -5  -4   7    5.22    0.98
  -5  -4   7    4.78    1.96
   4   4  -7   52.10    1.73
   4   4  -7   57.74    1.88
   4   4  -7   52.12    1.74
  -4  -4   7   54.70    1.65
  -4  -4   7   55.51    3.11
  -4  -4   7   54.00    2.49
  -4  -4   7   47.49    4.54
   3   4  -7  149.93    4.18
  -3  -4   7  156.10    5.49
  -3  -4   7  121.51    8.39
  -3  -4   7  136.04    4.19
  -3  -4   7  151.01    5.73
   2   4  -7   18.97    0.80
  -2  -4   7   18.09    0.94
  -2  -4   7   18.71    1.62
  -2  -4   7   18.64    1.58
   1   4  -7   20.28    0.89
   1   4  -7   20.71    1.76
  -1  -4   7   22.39    1.06
  -1  -4   7   20.01    1.65
  -1  -4   7   22.43    2.17
  -1  -4   7   20.02    0.93
   0   4  -7   64.05    2.04
   0   4  -7   64.70    2.87
   0   4  -7   62.41    3.05
   0  -4   7   68.35    2.86
   0  -4   7   61.02    3.29
   0  -4   7   62.88    2.17
   0  -4   7   65.45    1.88
  -1   4  -7   13.42    1.23
  -1   4  -7   13.50    0.75
   1  -4   7   14.31    1.63
   1  -4   7   15.41    0.80
   1  -4   7   15.36    0.87
  -2   4  -7    8.60    0.65
  -2   4  -7    7.98    1.07
  -2   4  -7    8.32    1.34
  -2   4  -7    8.85    0.71
   2  -4   7    7.40    0.71
   2  -4   7    8.90    0.65
   2  -4   7    7.83    1.28
  -3   4  -7    3.53    1.37
  -3   4  -7    4.03    0.53
  -3   4  -7    3.90    1.00
  -3   4  -7    4.76    0.55
   3  -4   7    4.21    0.52
   3  -4   7    2.92    1.38
   3  -4   7    3.97    0.61
  -4   4  -7   -1.49    0.87
  -4   4  -7   -0.71    0.46
  -4   4  -7   -0.07    1.38
   4  -4   7   -1.01    0.45
   4  -4   7   -0.13    0.52
  -5   4  -7   -0.06    1.37
  -5   4  -7   -0.10    0.52
   5  -4   7    0.36    0.59
   5  -4   7    0.29    0.50
  -6   4  -7    9.77    1.73
   6  -4   7    7.72    0.86
   6  -4   7    8.56    0.74
  -7   4  -7   39.17    2.91
   7  -4   7   33.51    1.40
   7  -4   7   33.48    1.61
   8  -4   7   17.41    1.31
   8  -4   7   19.14    1.14
 -11  -3   7    4.97    0.93
 -11  -3   7    1.85    2.70
  10   3  -7   16.74    0.86
 -10  -3   7   11.00    2.82
 -10  -3   7   15.34    1.30
   9   3  -7    1.28    0.42
  -9  -3   7    0.91    0.75
  -9  -3   7    1.81    2.08
   8   3  -7    0.91    0.38
  -8  -3   7   -0.68    1.83
  -8  -3   7    1.15    1.28
  -8  -3   7    1.08    0.72
   7   3  -7    0.51    0.35
   7   3  -7    0.80    0.35
  -7  -3   7    2.24    1.66
  -7  -3   7    0.90    0.72
  -7  -3   7   -0.17    1.12
   6   3  -7    0.64    0.36
   6   3  -7    0.77    0.34
   6   3  -7    0.88    0.39
  -6  -3   7    0.27    0.75
  -6  -3   7    1.11    1.56
  -6  -3   7    1.59    1.16
   5   3  -7   -0.29    0.33
   5   3  -7   -0.08    0.39
   5   3  -7   -0.11    0.29
  -5  -3   7    0.19    0.81
  -5  -3   7   -0.99    1.60
  -5  -3   7    0.57    1.10
   4   3  -7    0.04    0.32
   4   3  -7    0.38    0.30
   4   3  -7    0.29    0.40
  -4  -3   7    0.39    1.58
  -4  -3   7    0.39    0.22
  -4  -3   7    0.18    0.11
  -4  -3   7   -0.03    1.01
  -4  -3   7    0.28    0.80
   3   3  -7   22.41    0.88
   3   3  -7   23.13    1.06
  -3  -3   7   23.48    1.57
  -3  -3   7   22.36    2.88
  -3  -3   7   21.23    0.94
  -3  -3   7   24.42    1.94
   2   3  -7    0.74    0.31
  -2  -3   7    1.39    0.43
  -2  -3   7    2.22    0.86
  -2  -3   7    1.70    0.42
  -2  -3   7    0.55    1.00
   1   3  -7    0.33    0.81
   1   3  -7    0.78    0.32
  -1  -3   7    0.49    0.85
  -1  -3   7    1.79    1.04
  -1  -3   7    0.98    0.45
  -1  -3   7    0.67    0.36
   0   3  -7   72.64    2.32
   0   3  -7   76.69    3.33
   0   3  -7   70.94    3.10
   0  -3   7   81.72    3.17
   0  -3   7   75.42    2.10
   0  -3   7   76.25    3.51
   0  -3   7   73.96    2.40
  -1   3  -7   42.84    1.49
  -1   3  -7   45.66    2.14
   1  -3   7   44.06    2.51
   1  -3   7   44.85    1.37
   1  -3   7   42.55    1.58
  -2   3  -7    7.18    1.04
  -2   3  -7    7.14    1.24
  -2   3  -7    7.64    0.60
   2  -3   7    4.43    1.16
   2  -3   7    6.59    0.66
   2  -3   7    6.56    0.53
  -3   3  -7   10.85    1.56
  -3   3  -7   10.78    0.80
  -3   3  -7    9.90    1.13
   3  -3   7   10.58    1.51
   3  -3   7   10.96    0.89
   3  -3   7   11.05    0.76
  -4   3  -7    8.46    0.70
  -4   3  -7    7.78    1.47
  -4   3  -7    7.26    0.69
  -4   3  -7    7.14    1.10
   4  -3   7    7.52    0.63
   4  -3   7    8.00    0.76
  -5   3  -7    0.29    1.30
  -5   3  -7    0.20    0.51
   5  -3   7   -0.39    0.56
   5  -3   7   -0.16    0.44
  -6   3  -7   -0.18    1.36
   6  -3   7   -0.05    0.52
   6  -3   7   -1.28    0.59
  -7   3  -7    3.66    1.51
   7  -3   7    0.27    0.71
   7  -3   7    1.09    0.62
   8  -3   7    0.04    0.65
   8  -3   7   -0.06    0.77
 -11  -2   7    0.07    0.74
 -11  -2   7   -1.12    2.30
 -10  -2   7   10.28    2.68
 -10  -2   7   14.70    1.16
   9   2  -7    5.41    0.47
  -9  -2   7    4.89    0.77
  -9  -2   7    6.03    1.27
  -9  -2   7    3.85    2.01
   8   2  -7    0.93    0.34
  -8  -2   7    1.26    1.05
  -8  -2   7    1.13    1.69
  -8  -2   7    1.13    0.68
   7   2  -7   46.66    1.49
  -7  -2   7   49.59    2.30
  -7  -2   7   46.04    3.93
  -7  -2   7   46.36    2.08
   6   2  -7   34.77    1.30
   6   2  -7   34.85    1.16
   6   2  -7   33.83    1.11
  -6  -2   7   33.32    1.78
  -6  -2   7   34.30    2.01
  -6  -2   7   35.51    3.62
   5   2  -7    1.62    0.30
   5   2  -7    1.68    0.43
   5   2  -7    1.03    0.36
  -5  -2   7    1.16    0.83
  -5  -2   7    0.14    0.88
  -5  -2   7    1.42    1.40
   4   2  -7    0.54    0.41
   4   2  -7    0.42    0.33
   4   2  -7    0.26    0.27
  -4  -2   7    0.11    0.82
  -4  -2   7    1.06    0.20
  -4  -2   7    0.13    0.09
  -4  -2   7    1.32    0.93
  -4  -2   7    1.28    1.43
   3   2  -7    1.53    0.34
   3   2  -7    1.39    0.29
   3   2  -7    0.83    0.41
  -3  -2   7    1.47    1.36
  -3  -2   7    1.18    0.38
  -3  -2   7    1.87    0.81
  -3  -2   7    0.14    0.35
  -3  -2   7    1.89    0.90
   2   2  -7    5.50    0.44
  -2  -2   7    6.54    1.03
  -2  -2   7    5.95    0.55
  -2  -2   7    5.62    0.90
  -2  -2   7    5.67    0.46
   1   2  -7    2.23    0.77
   1   2  -7    2.27    0.33
  -1  -2   7    2.06    0.94
  -1  -2   7    1.86    0.84
  -1  -2   7    2.92    0.47
  -1  -2   7    2.26    0.37
   0   2  -7    9.71    0.97
   0   2  -7   10.66    0.65
   0   2  -7   11.38    1.07
   0  -2   7   10.59    0.72
   0  -2   7   10.23    0.59
   0  -2   7    8.80    1.20
   0  -2   7   12.22    1.16
  -1   2  -7   13.14    0.74
  -1   2  -7   11.94    0.89
  -1   2  -7   11.80    1.13
   1  -2   7   11.49    1.39
   1  -2   7   12.16    0.71
   1  -2   7   12.65    0.84
  -2   2  -7   21.38    1.67
  -2   2  -7   22.99    1.00
  -2   2  -7   25.42    2.08
   2  -2   7   22.97    2.05
   2  -2   7   23.49    1.13
   2  -2   7   25.66    0.95
  -3   2  -7    0.15    1.20
  -3   2  -7   -0.04    0.43
  -3   2  -7    0.36    0.92
   3  -2   7   -2.48    1.32
   3  -2   7    0.09    0.44
   3  -2   7    0.45    0.54
  -4   2  -7   26.07    1.18
  -4   2  -7   23.99    1.78
  -4   2  -7   27.63    2.27
   4  -2   7   24.02    0.99
   4  -2   7   22.67    1.20
  -5   2  -7   17.67    1.04
  -5   2  -7   17.47    1.05
  -5   2  -7   19.09    1.79
   5  -2   7   14.74    0.98
   5  -2   7   14.81    0.91
  -6   2  -7    4.28    1.47
   6  -2   7    4.67    0.65
   6  -2   7    3.48    0.72
  -7   2  -7    9.74    1.64
   7  -2   7    7.61    0.77
   7  -2   7    7.11    0.89
   8  -2   7    2.32    0.73
   8  -2   7    3.93    0.88
 -11  -1   7    5.10    0.77
 -11  -1   7    4.24    2.69
 -10  -1   7    0.52    1.08
 -10  -1   7   -0.32    0.60
 -10  -1   7   -0.65    2.06
   9   1  -7   -0.16    0.29
  -9  -1   7   -0.23    0.87
  -9  -1   7   -0.47    0.61
  -9  -1   7   -1.27    1.83
   8   1  -7    2.02    0.30
  -8  -1   7    2.38    0.67
  -8  -1   7    2.25    1.65
  -8  -1   7    2.38    0.80
   7   1  -7   11.76    0.55
   7   1  -7   10.90    0.74
  -7  -1   7   11.75    2.05
  -7  -1   7   11.38    1.00
  -7  -1   7   11.28    1.10
   6   1  -7   45.53    1.35
   6   1  -7   46.56    1.42
   6   1  -7   45.57    1.55
  -6  -1   7   44.92    2.23
  -6  -1   7   46.42    3.69
  -6  -1   7   44.77    2.09
   5   1  -7    5.03    0.38
   5   1  -7    5.45    0.52
   5   1  -7    5.22    0.41
  -5  -1   7    4.88    0.92
  -5  -1   7    4.76    0.88
  -5  -1   7    4.80    1.42
   4   1  -7   23.82    0.90
   4   1  -7   24.50    0.87
   4   1  -7   23.72    1.05
  -4  -1   7   26.93    2.52
  -4  -1   7   25.75    0.79
  -4  -1   7   22.50    1.65
  -4  -1   7   27.27    1.57
   3   1  -7  128.57    3.78
   3   1  -7  135.09    3.37
   3   1  -7  135.82    3.88
  -3  -1   7  129.07    3.37
  -3  -1   7  129.29    4.99
  -3  -1   7  132.50    7.34
  -3  -1   7  135.01    4.96
  -3  -1   7  125.20    3.83
   2   1  -7   94.84    2.90
  -2  -1   7  101.94    3.87
  -2  -1   7   96.25    3.94
  -2  -1   7   99.47    2.98
  -2  -1   7  100.12    5.75
  -2  -1   7   98.10    2.59
   1   1  -7   51.89    2.33
   1   1  -7   48.03    1.61
  -1  -1   7   49.41    1.48
  -1  -1   7   50.66    2.53
  -1  -1   7   52.38    2.37
  -1  -1   7   51.03    1.69
   0   1  -7   23.38    1.64
   0   1  -7   20.30    1.55
   0   1  -7   22.45    0.93
   0  -1   7   22.69    1.73
   0  -1   7   24.89    1.75
   0  -1   7   23.44    1.05
   0  -1   7   22.62    0.90
  -1   1  -7    3.62    0.92
  -1   1  -7    3.70    0.59
  -1   1  -7    3.31    0.45
   1  -1   7    3.55    0.43
   1  -1   7    4.48    1.17
   1  -1   7    4.07    0.54
  -2   1  -7   -0.32    0.87
  -2   1  -7    0.49    1.05
  -2   1  -7    0.01    0.39
   2  -1   7   -0.99    1.26
   2  -1   7    0.07    0.38
   2  -1   7    0.29    0.50
  -3   1  -7    4.40    0.53
  -3   1  -7    5.09    1.21
  -3   1  -7    3.76    1.03
   3  -1   7    4.35    0.50
   3  -1   7    5.10    0.66
  -4   1  -7   52.28    2.62
  -4   1  -7   48.73    1.72
  -4   1  -7   45.69    2.41
   4  -1   7   45.18    1.78
   4  -1   7   46.63    1.54
  -5   1  -7    4.60    1.23
  -5   1  -7    7.13    0.71
   5  -1   7    3.99    0.56
   5  -1   7    4.94    0.73
  -6   1  -7    2.89    1.36
   6  -1   7    1.30    0.57
   6  -1   7    1.62    0.69
   7  -1   7    3.47    0.68
   7  -1   7    3.01    0.80
   8  -1   7    4.99    0.94
   8  -1   7    4.75    0.78
 -11   0   7    5.82    0.71
 -11   0   7    4.71    2.59
 -11   0   7    5.26    1.10
 -10   0   7   31.40    1.64
 -10   0   7   33.12    3.96
 -10   0   7   30.78    1.48
   9   0  -7   29.90    0.99
  -9   0   7   29.08    1.51
  -9   0   7   31.08    1.48
  -9   0   7   32.71    3.42
   8   0  -7   55.93    1.66
  -8   0   7   53.64    4.37
  -8   0   7   55.19    2.28
  -8   0   7   56.40    2.29
   7   0  -7   15.79    0.65
   7   0  -7   15.69    0.61
   7   0  -7   15.39    0.77
  -7   0   7   13.70    1.13
  -7   0   7   12.24    1.99
  -7   0   7   13.73    1.14
   6   0  -7    0.95    0.26
   6   0  -7    0.88    0.39
   6   0  -7    0.50    0.29
  -6   0   7    1.86    0.76
  -6   0   7    1.20    1.50
  -6   0   7    0.38    0.71
   5   0  -7    0.44    0.24
   5   0  -7   -0.13    0.29
   5   0  -7    0.30    0.36
  -5   0   7    0.64    1.27
  -5   0   7    1.17    0.74
  -5   0   7    0.28    0.69
   4   0  -7    1.92    0.30
   4   0  -7    1.59    0.32
   4   0  -7    1.70    0.40
  -4   0   7    1.85    0.32
  -4   0   7    2.01    1.13
  -4   0   7    2.45    0.80
  -4   0   7    2.10    0.22
  -4   0   7    3.11    0.79
   3   0  -7  232.24    6.83
   3   0  -7  248.11    6.03
   3   0  -7  249.53    6.90
  -3   0   7  243.70   12.66
  -3   0   7  244.32    8.78
  -3   0   7  243.15    8.73
  -3   0   7  242.59    6.02
  -3   0   7  239.61    6.88
   2   0  -7  124.16    3.76
  -2   0   7  132.71    7.02
  -2   0   7  129.21    4.97
  -2   0   7  128.12    3.33
  -2   0   7  131.50    3.83
  -2   0   7  132.87    4.93
   1   0  -7   48.35    2.27
   1   0  -7   45.61    1.57
  -1   0   7   47.63    1.64
  -1   0   7   50.98    2.45
  -1   0   7   47.77    1.45
  -1   0   7   50.72    2.30
  -1   0   7   51.80    3.14
   0   0  -7   81.94    3.32
   0   0  -7   76.11    2.40
   0   0  -7   74.89    3.30
   0   0   7   80.15    2.50
   0   0   7   76.94    2.14
   0   0   7   79.14    3.48
   0   0   7   81.03    3.41
  -1   0  -7   78.91    3.35
  -1   0  -7   77.25    3.21
  -1   0  -7   77.47    2.46
   1   0   7   80.62    3.61
   1   0   7   80.00    2.18
   1   0   7   79.66    2.52
  -2   0  -7   32.87    2.16
  -2   0  -7   29.47    1.83
  -2   0  -7   30.34    1.20
   2   0   7   32.77    1.30
   2   0   7   32.53    1.14
   2   0   7   26.85    2.48
  -3   0  -7   25.46    1.12
  -3   0  -7   26.17    2.10
  -3   0  -7   23.64    1.84
   3   0   7   23.74    1.21
   3   0   7   24.17    1.03
  -4   0  -7    5.50    0.64
  -4   0  -7    6.97    1.30
   4   0   7    5.13    0.59
   4   0   7    5.04    0.70
  -5   0  -7    1.12    1.25
  -5   0  -7    0.48    0.56
   5   0   7   -0.05    0.51
   5   0   7   -0.05    0.61
   6   0   7    0.04    0.68
   6   0   7    0.51    0.56
   7   0   7    5.19    0.89
   7   0   7    3.98    0.70
 -11   1   7   -1.03    2.09
 -10   1   7   25.53    1.28
 -10   1   7   27.01    1.27
 -10   1   7   25.47    3.48
   9  -1  -7   37.47    1.12
  -9   1   7   34.44    1.56
  -9   1   7   34.47    1.60
  -9   1   7   36.55    3.84
   8  -1  -7   10.79    0.50
  -8   1   7   10.40    0.96
  -8   1   7   10.63    0.92
  -8   1   7    9.52    1.92
   7  -1  -7   56.58    1.76
   7  -1  -7   60.29    1.60
   7  -1  -7   60.92    1.85
  -7   1   7   57.16    2.37
  -7   1   7   60.07    2.40
  -7   1   7   59.02    4.31
   6  -1  -7   79.85    2.39
   6  -1  -7   83.41    2.15
   6  -1  -7   82.29    2.47
  -6   1   7   81.13    3.18
  -6   1   7   82.83    5.10
  -6   1   7   81.83    3.22
   5  -1  -7   91.72    2.69
   5  -1  -7   87.08    2.61
   5  -1  -7   89.95    2.34
  -5   1   7   87.28    3.46
  -5   1   7   90.33    3.50
  -5   1   7   89.52    5.26
   4  -1  -7   99.34    2.98
   4  -1  -7  105.73    3.05
   4  -1  -7  102.04    2.65
  -4   1   7  102.15    3.97
  -4   1   7   92.34    2.95
  -4   1   7  107.99    2.93
  -4   1   7  105.50    2.64
  -4   1   7  102.85    3.96
  -4   1   7  102.43    5.77
   3  -1  -7   13.73    0.73
   3  -1  -7   14.05    0.66
  -3   1   7   14.60    0.68
  -3   1   7   14.22    0.74
  -3   1   7   12.54    1.19
  -3   1   7   12.55    1.12
  -3   1   7   14.16    1.77
   2  -1  -7    0.97    0.31
  -2   1   7    1.74    0.36
  -2   1   7    1.59    0.82
  -2   1   7    1.45    0.42
  -2   1   7    1.69    0.76
  -2   1   7    1.89    0.95
   1  -1  -7    0.57    0.76
   1  -1  -7    0.71    0.32
  -1   1   7   -0.79    0.94
  -1   1   7   -0.15    0.63
  -1   1   7    0.02    0.35
  -1   1   7    0.83    0.45
  -1   1   7    1.12    0.81
   0  -1  -7   48.65    1.71
   0  -1  -7   51.93    2.50
   0  -1  -7   48.12    2.51
   0   1   7   49.43    2.68
   0   1   7   52.71    1.77
   0   1   7   49.62    1.52
   0   1   7   51.21    2.55
   0   1   7   56.99    2.95
  -1  -1  -7  210.47    7.77
  -1  -1  -7  207.21    7.71
  -1  -1  -7  207.97    6.03
   1   1   7  210.41   10.62
   1   1   7  205.31    6.09
   1   1   7  212.01    5.32
   1   1   7  215.64    7.90
  -2  -1  -7   93.60    3.98
  -2  -1  -7   94.79    2.95
  -2  -1  -7  103.32    4.13
   2   1   7   94.19    3.03
   2   1   7   96.62    5.06
   2   1   7   93.66    2.61
  -3  -1  -7   41.42    2.34
  -3  -1  -7   36.24    1.43
   3   1   7   34.77    1.45
   3   1   7   35.61    1.25
  -4  -1  -7   29.72    1.31
  -4  -1  -7   33.85    2.25
   4   1   7   28.79    1.32
   4   1   7   28.17    1.17
  -5  -1  -7   13.99    0.98
   5   1   7   11.72    0.95
   5   1   7   10.88    0.79
   6   1   7    2.66    0.60
   6   1   7    2.97    0.79
   7   1   7    0.40    0.79
   7   1   7    0.09    0.65
 -11   2   7    3.04    2.41
 -10   2   7    3.49    0.54
 -10   2   7    1.92    0.58
 -10   2   7    2.19    1.95
   9  -2  -7   14.05    0.58
  -9   2   7   13.11    0.91
  -9   2   7   11.59    2.33
  -9   2   7   11.87    0.98
   8  -2  -7    0.68    0.25
  -8   2   7   -0.08    1.69
  -8   2   7    0.57    0.55
  -8   2   7    0.31    0.62
   7  -2  -7   19.00    0.74
   7  -2  -7   19.23    0.84
  -7   2   7   18.35    1.16
  -7   2   7   19.67    1.23
  -7   2   7   19.10    2.72
   6  -2  -7  101.20    2.96
   6  -2  -7  102.02    3.01
   6  -2  -7  104.16    2.63
  -6   2   7   99.08    3.86
  -6   2   7  104.32    3.91
  -6   2   7   98.34    6.06
   5  -2  -7   58.73    1.86
   5  -2  -7   63.57    1.67
   5  -2  -7   62.98    1.94
  -5   2   7   57.93    1.56
  -5   2   7   62.64    2.63
  -5   2   7   57.22    2.55
  -5   2   7   61.85    4.00
   4  -2  -7   38.56    1.32
   4  -2  -7   39.72    1.19
   4  -2  -7   38.69    1.38
  -4   2   7   41.11    1.29
  -4   2   7   40.46    2.91
  -4   2   7   37.40    1.30
  -4   2   7   41.00    2.01
  -4   2   7   38.61    1.16
  -4   2   7   38.40    1.94
   3  -2  -7   24.33    0.97
  -3   2   7   26.99    0.94
  -3   2   7   25.94    1.66
  -3   2   7   27.35    2.10
  -3   2   7   25.61    1.06
  -3   2   7   25.56    1.75
   2  -2  -7   10.77    0.63
  -2   2   7   11.14    0.66
  -2   2   7   10.20    1.11
  -2   2   7   10.17    0.76
  -2   2   7    9.84    1.28
  -2   2   7   11.29    1.36
   1  -2  -7   11.23    0.68
   1  -2  -7   12.34    1.14
  -1   2   7   10.81    1.40
  -1   2   7   12.46    0.85
  -1   2   7   12.14    0.72
  -1   2   7   12.15    1.12
  -1   2   7    9.45    1.13
   0  -2  -7    0.50    0.36
   0  -2  -7   -0.45    0.86
   0  -2  -7    0.58    0.79
   0   2   7    1.15    0.40
   0   2   7    1.49    1.02
   0   2   7   -0.44    1.26
   0   2   7    0.84    0.50
  -1  -2  -7    7.30    1.24
  -1  -2  -7    8.12    0.87
  -1  -2  -7    5.65    0.58
   1   2   7    8.36    0.75
   1   2   7    7.67    1.29
   1   2   7    5.39    1.42
   1   2   7    7.92    0.61
  -2  -2  -7   -1.05    0.99
  -2  -2  -7    0.14    0.42
   2   2   7   -0.04    0.57
   2   2   7    0.29    0.41
  -3  -2  -7    0.83    1.08
  -3  -2  -7    0.72    0.50
   3   2   7    0.62    0.59
   3   2   7    1.12    0.46
  -4  -2  -7   16.77    1.02
   4   2   7   13.59    0.90
   4   2   7   14.94    1.00
   5   2   7   22.17    1.10
   5   2   7   21.61    1.29
   6   2   7    8.06    0.76
   6   2   7    7.91    0.96
   7   2   7    5.70    0.98
   7   2   7    5.32    0.81
 -10   3   7   -0.55    0.69
 -10   3   7   -0.32    1.84
 -10   3   7    1.36    0.53
   9  -3  -7    1.91    0.31
  -9   3   7    1.74    0.57
  -9   3   7    2.31    1.92
  -9   3   7    1.55    0.74
   8  -3  -7    0.73    0.29
  -8   3   7    0.73    0.56
  -8   3   7    0.31    1.54
  -8   3   7    0.67    0.77
   7  -3  -7    0.11    0.28
  -7   3   7    0.03    0.81
  -7   3   7   -0.38    0.58
  -7   3   7    0.21    1.40
   6  -3  -7   47.54    1.56
   6  -3  -7   50.28    1.41
   6  -3  -7   49.48    1.63
  -6   3   7   46.89    2.20
  -6   3   7   50.56    3.84
  -6   3   7   49.83    2.33
   5  -3  -7    7.88    0.58
   5  -3  -7    8.75    0.60
   5  -3  -7    8.18    0.53
  -5   3   7    9.11    1.19
  -5   3   7    8.63    1.61
  -5   3   7    6.33    0.93
   4  -3  -7    1.51    0.35
  -4   3   7    1.10    0.37
  -4   3   7    1.68    1.06
  -4   3   7    0.07    0.77
  -4   3   7    2.07    1.18
  -4   3   7    1.22    0.34
   3  -3  -7   19.44    0.85
  -3   3   7   19.89    1.61
  -3   3   7   22.58    1.00
  -3   3   7   24.37    2.15
  -3   3   7   19.03    1.83
  -3   3   7   21.82    0.84
   2  -3  -7   60.25    1.99
  -2   3   7   62.13    2.88
  -2   3   7   61.62    2.93
  -2   3   7   64.79    1.80
  -2   3   7   64.07    2.07
   1  -3  -7   39.12    2.12
   1  -3  -7   37.89    1.40
  -1   3   7   39.75    2.33
  -1   3   7   37.07    1.28
  -1   3   7   39.94    2.30
  -1   3   7   39.90    1.50
   0  -3  -7   20.53    1.77
   0  -3  -7   22.18    1.01
   0   3   7   22.48    1.14
   0   3   7   22.71    2.02
   0   3   7   19.38    1.87
   0   3   7   21.92    0.95
  -1  -3  -7    6.84    0.60
   1   3   7    7.16    0.70
   1   3   7    5.51    0.55
  -2  -3  -7    1.24    0.51
   2   3   7    0.84    0.48
   2   3   7    0.79    0.58
  -3  -3  -7    1.25    0.55
   3   3   7    0.84    0.51
   3   3   7    1.08    0.60
  -4  -3  -7    4.53    0.69
   4   3   7    4.25    0.78
   4   3   7    5.12    0.65
   5   3   7    5.06    0.86
   5   3   7    5.97    0.72
   6   3   7   -0.51    0.58
   6   3   7    0.08    0.81
 -11   4   7    0.45    0.84
 -11   4   7    1.57    0.59
 -10   4   7   13.62    1.27
 -10   4   7   14.52    1.02
   9  -4  -7   25.07    0.91
  -9   4   7   22.33    1.30
  -9   4   7   22.88    1.58
   8  -4  -7   14.37    0.68
  -8   4   7   12.63    1.10
  -8   4   7   14.97    1.40
   7  -4  -7   12.56    0.67
  -7   4   7   13.98    1.42
  -7   4   7   10.53    1.89
  -7   4   7   12.70    1.13
   6  -4  -7    2.99    0.43
   6  -4  -7    3.49    0.36
   6  -4  -7    2.35    0.38
  -6   4   7    2.39    1.43
  -6   4   7    2.43    1.05
  -6   4   7    2.48    0.76
   5  -4  -7    5.17    0.47
  -5   4   7    5.06    0.39
  -5   4   7    3.18    0.30
  -5   4   7    5.17    0.94
  -5   4   7    5.75    1.28
  -5   4   7    4.97    0.35
   4  -4  -7    0.23    0.34
  -4   4   7   -0.22    0.85
  -4   4   7    0.21    0.36
  -4   4   7    0.39    1.26
  -4   4   7    0.00    0.42
   3  -4  -7   26.83    1.05
  -3   4   7   26.32    1.15
  -3   4   7   25.94    1.85
  -3   4   7   27.87    2.12
  -3   4   7   26.45    0.99
   2  -4  -7   51.53    1.81
  -2   4   7   54.17    1.89
  -2   4   7   54.76    2.71
  -2   4   7   54.94    1.63
  -2   4   7   54.96    2.79
   1  -4  -7    1.11    0.42
  -1   4   7    1.54    0.46
  -1   4   7    2.02    1.47
  -1   4   7    2.35    0.57
  -1   4   7    2.67    1.07
   0  -4  -7    0.43    0.46
   0   4   7   -0.27    0.56
   0   4   7   -0.07    0.41
   0   4   7   -3.56    1.18
  -1  -4  -7    3.66    0.55
   1   4   7    4.08    0.56
   1   4   7    4.49    0.68
  -2  -4  -7    7.78    0.72
   2   4   7    6.70    0.64
   2   4   7    6.63    0.80
  -3  -4  -7    4.38    0.68
   3   4   7    3.34    0.71
   3   4   7    2.92    0.60
  -4  -4  -7    3.73    0.71
   4   4   7    3.01    0.76
   4   4   7    3.50    0.62
   5   4   7    2.03    0.68
   5   4   7    1.42    0.76
   6   4   7    1.66    0.90
   6   4   7    1.24    0.73
 -11   5   7    3.04    1.05
 -11   5   7    3.23    0.72
  10  -5  -7    2.81    0.42
 -10   5   7    2.20    1.00
 -10   5   7    2.38    0.70
   9  -5  -7   30.25    1.11
  -9   5   7   28.53    1.57
  -9   5   7   28.15    1.86
   8  -5  -7   12.56    0.71
  -8   5   7   12.51    1.20
  -8   5   7   11.24    1.27
   7  -5  -7   10.25    0.65
  -7   5   7   10.93    1.14
  -7   5   7    8.28    1.18
   6  -5  -7   31.63    1.16
  -6   5   7   29.78    1.99
  -6   5   7   31.27    1.75
   5  -5  -7   19.88    0.90
  -5   5   7   18.23    0.81
  -5   5   7   19.76    0.80
  -5   5   7   22.24    1.91
  -5   5   7   23.22    1.55
   4  -5  -7   48.41    1.70
  -4   5   7   51.90    2.49
  -4   5   7   52.33    1.53
  -4   5   7   47.74    1.70
  -4   5   7   53.23    2.71
   3  -5  -7   19.41    0.95
  -3   5   7   21.66    1.75
  -3   5   7   20.55    1.10
  -3   5   7   20.71    2.09
  -3   5   7   19.99    0.90
   2  -5  -7    2.63    0.50
  -2   5   7    4.22    0.65
  -2   5   7    3.59    0.96
  -2   5   7    3.45    1.48
  -2   5   7    3.16    0.50
   1  -5  -7    1.35    0.48
  -1   5   7    0.16    1.36
  -1   5   7    1.53    0.48
  -1   5   7    1.63    0.59
   0  -5  -7    0.28    0.49
   0   5   7    0.56    0.45
   0   5   7    0.35    0.60
  -1  -5  -7   22.27    1.15
   1   5   7   22.61    1.05
   1   5   7   23.56    1.26
  -2  -5  -7   29.13    1.34
   2   5   7   29.10    1.45
   2   5   7   28.26    1.22
  -3  -5  -7    8.67    0.84
   3   5   7    6.80    0.74
   3   5   7    8.17    0.93
   4   5   7    4.73    0.74
   4   5   7    4.32    0.88
   5   5   7    2.91    0.88
   5   5   7    2.30    0.76
 -11   6   7   20.14    1.42
  10  -6  -7   13.93    0.79
 -10   6   7   12.13    1.38
 -10   6   7   14.00    1.28
   9  -6  -7    0.11    0.41
  -9   6   7   -0.82    1.09
  -9   6   7    0.78    0.75
   8  -6  -7    0.38    0.41
  -8   6   7    1.80    0.82
  -8   6   7    0.36    1.10
   7  -6  -7    2.18    0.46
  -7   6   7    2.12    0.83
  -7   6   7    2.37    1.20
   6  -6  -7   22.74    1.04
  -6   6   7   23.47    1.67
  -6   6   7   23.96    1.91
   5  -6  -7   53.90    1.88
  -5   6   7   56.91    2.84
  -5   6   7   58.29    2.66
  -5   6   7   56.56    1.64
   4  -6  -7   33.40    1.33
  -4   6   7   34.98    1.37
  -4   6   7   35.60    2.35
  -4   6   7   34.15    1.17
  -4   6   7   34.32    2.07
   3  -6  -7   33.74    1.37
  -3   6   7   35.28    1.43
  -3   6   7   32.80    2.40
  -3   6   7   36.62    1.22
  -3   6   7   34.86    2.15
   2  -6  -7   13.21    0.86
  -2   6   7   11.61    0.95
  -2   6   7   13.24    1.68
  -2   6   7   12.47    0.81
   1  -6  -7   22.18    1.09
  -1   6   7   23.88    0.99
  -1   6   7   23.90    1.25
   0  -6  -7   14.74    0.94
   0   6   7   17.85    0.96
   0   6   7   16.50    1.13
  -1  -6  -7    1.44    0.57
   1   6   7    2.76    0.60
   1   6   7    1.85    0.67
  -2  -6  -7    1.08    0.65
   2   6   7   -0.36    0.72
   2   6   7   -0.98    0.52
  -3  -6  -7    3.56    0.75
   3   6   7    2.39    0.68
   3   6   7    1.46    0.76
   4   6   7    0.12    0.85
   4   6   7    0.37    0.64
 -11   7   7    9.38    1.08
  10  -7  -7   17.04    0.92
 -10   7   7   16.61    1.49
   9  -7  -7    7.91    0.64
  -9   7   7    7.42    1.03
  -9   7   7    8.34    1.39
   8  -7  -7   11.45    0.79
  -8   7   7   10.52    1.45
  -8   7   7   10.72    1.14
   7  -7  -7   32.25    1.32
  -7   7   7   36.47    2.36
  -7   7   7   35.09    2.01
   6  -7  -7    2.97    0.55
  -6   7   7    3.15    1.31
  -6   7   7    2.58    0.95
   5  -7  -7    1.41    0.49
  -5   7   7    1.62    1.34
  -5   7   7    1.62    0.95
   4  -7  -7    2.93    0.55
  -4   7   7    3.03    0.52
  -4   7   7    4.13    1.45
   3  -7  -7    0.52    0.50
  -3   7   7    0.38    0.48
  -3   7   7    0.42    0.61
  -3   7   7   -0.19    1.40
   2  -7  -7   28.73    1.36
  -2   7   7   34.24    1.24
  -2   7   7   32.18    1.39
   1  -7  -7   39.30    1.59
  -1   7   7   41.58    1.70
  -1   7   7   40.59    1.45
   0  -7  -7   27.91    1.33
   0   7   7   32.14    1.27
   0   7   7   28.09    1.48
  -1  -7  -7   17.32    1.16
   1   7   7   17.05    0.97
   1   7   7   19.26    1.27
  -2  -7  -7    7.97    0.85
   2   7   7    9.43    1.03
   2   7   7    9.48    0.79
   3   7   7    2.92    0.75
   3   7   7    4.63    0.95
  10  -8  -7    2.16    0.54
 -10   8   7    3.17    1.03
   9  -8  -7   14.01    0.93
  -9   8   7   16.14    1.60
   8  -8  -7   21.10    1.10
  -8   8   7   20.99    2.13
  -8   8   7   22.44    1.73
   7  -8  -7   27.49    1.27
  -7   8   7   30.21    2.22
  -7   8   7   27.03    1.86
   6  -8  -7   15.78    0.96
  -6   8   7   15.01    1.71
   5  -8  -7    1.57    0.54
  -5   8   7    1.49    1.44
   4  -8  -7    4.60    0.62
  -4   8   7    4.45    0.71
  -4   8   7    3.57    1.55
  -4   8   7    3.72    0.59
   3  -8  -7    1.14    0.54
  -3   8   7    1.66    0.67
  -3   8   7    0.74    0.56
   2  -8  -7    3.75    0.65
  -2   8   7    3.12    0.78
  -2   8   7    4.08    0.64
   1  -8  -7    2.15    0.63
  -1   8   7    3.36    0.64
  -1   8   7    1.95    0.76
   0  -8  -7    0.32    0.60
   0   8   7   -0.85    0.59
   0   8   7    1.30    0.77
  -1  -8  -7    0.16    0.69
   1   8   7    0.18    0.80
   1   8   7    0.01    0.65
  -2  -8  -7    3.72    0.82
   2   8   7    4.40    0.79
   2   8   7    3.91    0.95
  10  -9  -7    0.01    0.58
   9  -9  -7    7.24    0.73
   8  -9  -7   10.08    0.82
   7  -9  -7    4.12    0.66
   6  -9  -7    5.72    0.72
   5  -9  -7    4.57    0.68
   4  -9  -7    9.37    0.85
  -4   9   7    9.63    0.78
   3  -9  -7   13.49    1.05
  -3   9   7   14.40    0.98
  -3   9   7   14.22    1.14
   2  -9  -7    2.58    0.68
  -2   9   7    2.64    0.65
  -2   9   7    2.39    0.79
   1  -9  -7    0.01    0.62
  -1   9   7   -0.03    0.76
  -1   9   7    0.40    0.58
   0  -9  -7    3.02    0.77
   0   9   7    1.88    0.85
   0   9   7    1.91    0.71
  -1  -9  -7    0.03    0.69
   1   9   7   -1.12    0.69
   1   9   7   -1.20    0.83
   9 -10  -7    2.46    0.65
   8 -10  -7    0.42    0.60
   7 -10  -7   -0.23    0.60
   6 -10  -7    0.52    0.62
   5 -10  -7   14.09    1.06
   4 -10  -7    9.56    0.90
   3 -10  -7    5.02    0.82
  -3  10   7    4.21    0.72
   2 -10  -7    2.25    0.73
  -2  10   7    2.32    0.70
  -2  10   7    2.11    0.87
   1 -10  -7    1.64    0.78
  -1  10   7    0.91    0.72
  -1  10   7    2.40    0.90
   0 -10  -7    2.08    0.84
   0  10   7    1.64    0.72
   7 -11  -7    6.39    0.85
   6 -11  -7    6.39    0.85
   5 -11  -7   -0.33    0.67
   4 -11  -7    0.25    0.71
   3 -11  -7    0.77    0.75
   0  14  -8    1.78    0.84
  -1  14  -8    2.27    0.84
   1 -14   8    1.01    0.92
  -2  14  -8    4.06    0.88
   2 -14   8    4.47    1.04
   2  13  -8    1.15    0.78
   1  13  -8    2.47    0.81
  -1 -13   8    2.47    0.93
   0  13  -8    0.84    0.75
   0 -13   8    1.73    0.86
  -1  13  -8    0.74    0.74
   1 -13   8   -0.35    0.82
  -2  13  -8    1.59    0.70
   2 -13   8    0.75    0.85
  -3  13  -8    0.70    0.73
   3 -13   8    0.49    0.88
   4 -13   8    1.15    0.87
   5 -13   8   -1.08    0.87
   4  12  -8    7.51    0.94
  -4 -12   8    5.12    2.32
   3  12  -8    6.71    0.88
  -3 -12   8    4.49    2.21
   2  12  -8    3.79    0.75
   1  12  -8   22.89    1.35
  -1 -12   8   23.76    1.50
   0  12  -8   10.38    0.94
   0 -12   8   12.30    1.13
  -1  12  -8    1.13    0.70
   1 -12   8    0.59    0.80
  -2  12  -8    4.68    0.78
   2 -12   8    3.28    0.89
  -3  12  -8    0.75    0.67
   3 -12   8    0.32    0.72
  -4  12  -8    5.37    0.81
   4 -12   8    5.86    0.97
   5 -12   8    2.73    0.92
   6 -12   8    4.69    0.98
   5  11  -8    1.16    0.72
  -5 -11   8   -0.38    1.93
   4  11  -8    1.27    0.71
  -4 -11   8   -0.40    1.85
   3  11  -8   11.66    0.98
   2  11  -8   10.16    0.91
  -2 -11   8   12.46    1.07
   1  11  -8   40.48    1.73
  -1 -11   8   41.41    1.86
   0  11  -8   44.04    1.78
   0 -11   8   46.80    1.99
  -1  11  -8   13.05    1.05
   1 -11   8   13.54    1.13
  -2  11  -8   18.79    1.10
   2 -11   8   17.27    1.22
  -3  11  -8   26.90    1.36
   3 -11   8   24.24    1.43
  -4  11  -8    3.13    0.73
   4 -11   8    3.09    0.87
   5 -11   8    0.34    0.83
   6 -11   8    0.63    0.84
   6  10  -8    6.02    0.81
  -6 -10   8    1.63    2.11
   5  10  -8   10.90    0.92
  -5 -10   8    4.84    2.17
   4  10  -8   22.27    1.19
   3  10  -8    2.51    0.62
   2  10  -8    0.46    0.56
  -2 -10   8    0.98    0.68
   1  10  -8    0.81    0.60
  -1 -10   8    0.74    0.69
   0  10  -8   19.63    1.10
   0 -10   8   21.52    1.32
  -1  10  -8   30.23    1.35
   1 -10   8   30.11    1.48
  -2  10  -8   43.01    1.67
   2 -10   8   37.66    1.79
  -3  10  -8   87.85    2.91
   3 -10   8   88.46    3.10
  -4  10  -8   35.97    1.57
   4 -10   8   36.86    1.74
   5 -10   8    5.40    0.95
   5 -10   8    5.50    0.83
   6 -10   8   10.44    0.95
   6 -10   8    8.42    1.12
   7 -10   8    1.91    0.99
   7 -10   8    0.56    0.82
   7   9  -8    4.15    0.77
  -7  -9   8    4.33    1.46
  -7  -9   8    1.76    2.42
   6   9  -8    2.22    0.66
  -6  -9   8    3.00    1.36
  -6  -9   8    2.24    1.99
   5   9  -8    6.83    0.73
  -5  -9   8    7.39    1.39
  -5  -9   8    2.38    2.08
   4   9  -8   33.83    1.49
  -4  -9   8   36.91    2.42
   3   9  -8   16.70    0.99
  -3  -9   8   18.40    1.18
  -3  -9   8   20.73    1.80
   2   9  -8    1.40    0.52
  -2  -9   8    1.78    0.66
  -2  -9   8   -0.08    1.14
   1   9  -8   17.60    1.05
  -1  -9   8   18.71    1.21
   0   9  -8    4.66    0.67
   0  -9   8    4.05    0.71
  -1   9  -8    2.93    0.61
   1  -9   8    2.72    0.71
  -2   9  -8    0.30    0.55
   2  -9   8    0.50    0.68
  -3   9  -8    1.93    0.62
   3  -9   8    1.80    0.60
   3  -9   8    1.46    0.75
  -4   9  -8   10.31    0.85
   4  -9   8    9.05    0.96
   4  -9   8    8.80    0.87
  -5   9  -8    5.07    0.73
   5  -9   8    3.80    0.74
   5  -9   8    4.60    0.90
   6  -9   8   16.89    1.20
   6  -9   8   14.43    1.25
   7  -9   8   26.14    1.67
   7  -9   8   26.10    1.45
   8   8  -8   -0.75    0.57
  -8  -8   8    0.46    2.42
  -8  -8   8    1.07    1.28
   7   8  -8   -0.66    0.56
  -7  -8   8   -0.57    2.02
  -7  -8   8   -0.77    1.13
   6   8  -8    0.54    0.55
  -6  -8   8   -0.05    1.11
  -6  -8   8    0.06    1.80
   5   8  -8    0.18    0.53
  -5  -8   8    0.50    1.16
  -5  -8   8   -0.10    1.72
   4   8  -8    2.46    0.58
  -4  -8   8    0.34    1.77
  -4  -8   8    2.23    1.14
   3   8  -8    5.09    0.64
  -3  -8   8    3.67    1.19
  -3  -8   8    4.67    0.67
   2   8  -8    2.64    0.56
  -2  -8   8    2.39    1.12
  -2  -8   8    2.07    0.65
   1   8  -8    3.84    0.57
  -1  -8   8    4.04    0.70
  -1  -8   8    2.39    1.17
   0   8  -8   38.41    1.49
   0  -8   8   39.38    1.66
  -1   8  -8    3.08    0.58
   1  -8   8    3.40    0.71
  -2   8  -8    3.46    0.58
   2  -8   8    3.13    0.73
   2  -8   8    2.84    0.60
  -3   8  -8   12.09    0.93
   3  -8   8   10.77    1.00
   3  -8   8   12.06    0.91
  -4   8  -8    0.87    0.59
   4  -8   8    0.63    0.73
   4  -8   8   -0.34    0.60
  -5   8  -8    1.74    0.60
   5  -8   8    0.80    0.71
   5  -8   8    1.22    0.63
   6  -8   8   -0.60    0.75
   6  -8   8    0.38    0.61
   7  -8   8    2.50    0.78
   7  -8   8    2.76    0.93
   8  -8   8    0.76    0.94
   8  -8   8    1.34    0.79
   9   7  -8    1.67    0.63
   8   7  -8    5.35    0.71
  -8  -7   8    3.86    2.51
  -8  -7   8    6.51    1.30
   7   7  -8   10.43    0.81
  -7  -7   8   11.73    1.41
  -7  -7   8    5.55    2.40
   6   7  -8    1.63    0.54
  -6  -7   8    1.11    2.00
  -6  -7   8    0.35    1.09
   5   7  -8   -0.15    0.48
  -5  -7   8    0.58    1.01
  -5  -7   8    0.58    1.76
   4   7  -8    0.98    0.49
  -4  -7   8    0.79    0.45
  -4  -7   8   -0.31    1.00
  -4  -7   8    1.23    1.75
  -4  -7   8   -3.39    1.57
   3   7  -8    5.18    0.58
  -3  -7   8    6.33    0.68
  -3  -7   8    5.05    1.68
  -3  -7   8    4.97    1.16
   2   7  -8    0.59    0.46
  -2  -7   8   -0.02    1.05
  -2  -7   8   -1.49    1.53
  -2  -7   8    0.46    0.54
   1   7  -8    2.44    0.52
  -1  -7   8    3.38    1.53
  -1  -7   8    2.49    1.20
  -1  -7   8    2.42    0.64
   0   7  -8    9.56    0.72
   0  -7   8    8.79    1.42
   0  -7   8    9.53    1.84
   0  -7   8    9.86    0.87
  -1   7  -8    0.10    0.44
   1  -7   8   -0.47    0.58
   1  -7   8   -0.42    0.53
  -2   7  -8   11.17    0.85
   2  -7   8   10.26    0.78
   2  -7   8   11.81    0.97
  -3   7  -8   19.64    1.01
   3  -7   8   19.33    1.10
   3  -7   8   20.52    1.26
  -4   7  -8   15.30    0.96
   4  -7   8   12.05    0.87
   4  -7   8   12.44    1.03
  -5   7  -8    2.53    0.64
   5  -7   8    2.74    0.80
   5  -7   8    3.42    0.68
   6  -7   8   10.39    0.91
   6  -7   8   10.63    1.06
   7  -7   8    4.99    0.97
   7  -7   8    7.31    0.86
   8  -7   8   -0.25    0.74
   8  -7   8   -0.40    0.88
   9   6  -8   -0.11    0.54
  -9  -6   8   -0.23    2.28
  -9  -6   8    0.93    1.11
   8   6  -8    3.21    0.59
  -8  -6   8    1.79    2.25
  -8  -6   8    2.59    1.08
   7   6  -8   29.24    1.25
  -7  -6   8   32.12    2.00
  -7  -6   8   27.83    3.96
   6   6  -8   12.76    0.81
  -6  -6   8   12.67    1.34
  -6  -6   8   10.51    2.48
   5   6  -8    5.49    0.59
  -5  -6   8    3.90    1.91
  -5  -6   8    3.97    1.57
  -5  -6   8    5.80    1.15
   4   6  -8   54.93    1.92
  -4  -6   8   53.06    1.86
  -4  -6   8   60.58    2.77
  -4  -6   8   63.07    3.41
   3   6  -8   43.42    1.60
  -3  -6   8   44.94    3.17
  -3  -6   8   48.47    2.45
  -3  -6   8   42.05    1.65
   2   6  -8    6.85    0.59
  -2  -6   8   10.55    1.34
  -2  -6   8    7.43    1.62
  -2  -6   8    7.10    0.74
   1   6  -8   16.24    0.92
   1   6  -8   18.88    1.68
  -1  -6   8   17.34    1.08
  -1  -6   8   20.93    2.08
  -1  -6   8   18.11    1.86
   0   6  -8    5.04    1.27
   0   6  -8    4.85    0.57
   0  -6   8    4.45    0.70
   0  -6   8    5.06    1.18
   0  -6   8    6.08    1.74
   0  -6   8    5.04    0.60
  -1   6  -8   13.54    1.39
  -1   6  -8   13.01    0.86
   1  -6   8   14.69    0.96
   1  -6   8   13.51    1.06
   1  -6   8   16.22    2.00
  -2   6  -8    1.31    0.49
  -2   6  -8    1.14    1.37
   2  -6   8    1.74    0.66
   2  -6   8    1.06    0.52
  -3   6  -8   39.95    2.92
  -3   6  -8   38.32    1.49
   3  -6   8   36.89    1.37
   3  -6   8   35.98    1.58
  -4   6  -8   44.38    1.65
  -4   6  -8   43.58    2.90
   4  -6   8   41.54    1.50
   4  -6   8   41.83    1.79
  -5   6  -8    6.33    0.72
   5  -6   8    4.72    0.77
   5  -6   8    4.92    0.71
   6  -6   8    4.03    0.82
   6  -6   8    3.91    0.72
   7  -6   8    9.03    1.04
   7  -6   8    9.80    0.91
   8  -6   8    2.47    0.78
   8  -6   8    1.31    0.89
  10   5  -8    7.92    0.74
 -10  -5   8    6.01    2.88
 -10  -5   8    8.18    1.23
   9   5  -8    5.33    0.63
  -9  -5   8    3.98    2.53
  -9  -5   8    5.67    1.13
   8   5  -8    4.30    0.57
  -8  -5   8    2.12    2.06
  -8  -5   8    3.16    0.99
   7   5  -8    0.28    0.45
  -7  -5   8    0.39    1.85
  -7  -5   8   -0.40    0.90
  -7  -5   8   -0.49    1.53
   6   5  -8   12.49    0.80
  -6  -5   8   11.79    1.23
  -6  -5   8    9.55    2.39
  -6  -5   8   12.83    1.75
   5   5  -8    5.76    0.55
  -5  -5   8    5.04    1.91
  -5  -5   8    6.28    1.06
  -5  -5   8    7.86    1.59
   4   5  -8   90.08    2.72
   4   5  -8   86.79    2.74
  -4  -5   8   72.06    5.97
  -4  -5   8   85.32    2.68
  -4  -5   8  101.48    4.39
  -4  -5   8   95.92    3.81
   3   5  -8  192.06    5.64
   3   5  -8  187.58    5.65
  -3  -5   8  182.87    5.67
  -3  -5   8  208.56    7.69
  -3  -5   8  208.43    7.37
   2   5  -8   64.90    2.17
   2   5  -8   66.95    2.19
  -2  -5   8   68.31    2.30
  -2  -5   8   68.61    3.70
  -2  -5   8   70.02    3.15
   1   5  -8   61.35    2.02
   1   5  -8   60.66    3.12
   1   5  -8   59.63    2.02
  -1  -5   8   65.48    2.92
  -1  -5   8   61.28    3.53
  -1  -5   8   62.81    2.18
  -1  -5   8   61.52    1.91
   0   5  -8   77.48    2.54
   0   5  -8   76.31    2.55
   0   5  -8   81.72    3.81
   0  -5   8   83.74    2.69
   0  -5   8   85.58    3.63
   0  -5   8   82.70    4.14
   0  -5   8   81.05    2.36
  -1   5  -8   19.01    0.99
  -1   5  -8   18.95    0.99
  -1   5  -8   16.51    1.72
   1  -5   8   20.21    0.94
   1  -5   8   20.49    1.15
   1  -5   8   20.97    2.05
  -2   5  -8    3.90    0.56
  -2   5  -8    2.75    1.03
  -2   5  -8    4.45    1.47
  -2   5  -8    3.15    0.55
   2  -5   8    3.16    0.52
   2  -5   8    3.78    0.68
  -3   5  -8    3.87    0.59
  -3   5  -8    2.67    1.46
   3  -5   8    2.02    0.64
   3  -5   8    2.11    0.56
  -4   5  -8    4.56    1.52
  -4   5  -8    4.15    0.63
   4  -5   8    3.82    0.57
   4  -5   8    2.90    0.70
  -5   5  -8    1.29    1.40
  -5   5  -8    2.64    0.59
   5  -5   8    1.76    0.69
   5  -5   8    2.18    0.60
   6  -5   8    6.32    0.72
   6  -5   8    5.20    0.86
   7  -5   8   29.08    1.35
   7  -5   8   25.92    1.45
   8  -5   8   14.22    1.06
   8  -5   8   13.42    1.24
  10   4  -8   19.62    1.02
 -10  -4   8   23.26    1.67
 -10  -4   8   13.95    3.03
   9   4  -8    8.94    0.68
  -9  -4   8    7.57    1.07
  -9  -4   8    5.67    2.49
   8   4  -8   16.97    0.88
  -8  -4   8   16.56    1.82
  -8  -4   8   15.29    1.49
  -8  -4   8   13.81    2.71
   7   4  -8   32.73    1.23
  -7  -4   8   32.61    1.92
  -7  -4   8   29.41    3.61
  -7  -4   8   36.05    2.68
   6   4  -8   11.49    0.73
   6   4  -8   12.90    0.73
  -6  -4   8    8.26    2.22
  -6  -4   8   11.86    1.53
  -6  -4   8   11.19    1.17
   5   4  -8   26.18    1.06
  -5  -4   8   25.96    1.76
  -5  -4   8   25.11    2.44
  -5  -4   8   22.86    3.52
   4   4  -8    2.69    0.43
  -4  -4   8    3.62    1.05
  -4  -4   8    2.88    1.43
  -4  -4   8    2.38    0.39
  -4  -4   8    2.13    1.83
   3   4  -8   23.57    0.99
  -3  -4   8   19.04    2.84
  -3  -4   8   25.87    1.80
  -3  -4   8   24.50    1.08
  -3  -4   8   23.54    2.34
   2   4  -8   13.96    0.77
  -2  -4   8   15.92    0.94
  -2  -4   8   13.31    1.36
  -2  -4   8   13.91    1.61
  -2  -4   8   13.66    0.83
   1   4  -8   44.16    2.47
   1   4  -8   40.60    1.48
  -1  -4   8   39.94    1.42
  -1  -4   8   43.96    2.87
  -1  -4   8   43.42    2.37
  -1  -4   8   41.86    1.63
   0   4  -8  259.90    7.61
   0   4  -8  268.43    9.82
   0  -4   8  257.74    6.72
   0  -4   8  271.91    9.79
   0  -4   8  278.55   10.01
   0  -4   8  266.97    7.72
  -1   4  -8  216.49    6.35
  -1   4  -8  219.15    8.18
   1  -4   8  216.04    5.61
   1  -4   8  225.48    8.49
   1  -4   8  223.61    6.45
  -2   4  -8   53.56    3.08
  -2   4  -8   45.65    2.46
  -2   4  -8   52.98    1.78
   2  -4   8   47.94    1.82
   2  -4   8   49.18    1.59
   2  -4   8   50.16    2.74
  -3   4  -8   57.60    2.00
  -3   4  -8   57.65    1.98
  -3   4  -8   61.46    3.36
   3  -4   8   58.66    1.83
   3  -4   8   57.34    2.08
  -4   4  -8   22.02    1.11
  -4   4  -8   21.56    1.09
  -4   4  -8   21.60    2.01
   4  -4   8   20.25    1.04
   4  -4   8   18.05    1.11
  -5   4  -8    0.24    1.46
  -5   4  -8    0.52    0.55
   5  -4   8    0.51    0.61
   5  -4   8   -0.69    0.53
   6  -4   8    0.72    0.72
   6  -4   8    0.71    0.56
   7  -4   8    3.35    0.87
   7  -4   8    3.64    0.73
   8  -4   8    2.26    0.90
   8  -4   8    1.06    0.74
 -10  -3   8    7.85    2.75
 -10  -3   8   10.57    1.13
   9   3  -8    4.15    0.49
  -9  -3   8    3.76    0.93
  -9  -3   8    2.80    2.19
  -9  -3   8    1.55    1.40
   8   3  -8    2.25    0.42
  -8  -3   8    1.06    1.88
  -8  -3   8    3.19    1.28
  -8  -3   8    1.97    0.86
   7   3  -8   49.61    1.69
  -7  -3   8   52.77    2.83
  -7  -3   8   51.81    4.39
  -7  -3   8   52.41    2.42
   6   3  -8   37.94    1.34
  -6  -3   8   38.85    2.36
  -6  -3   8   38.24    3.70
  -6  -3   8   39.42    2.05
   5   3  -8   10.07    0.83
   5   3  -8   10.74    0.64
  -5  -3   8    9.98    1.18
  -5  -3   8    8.15    1.97
  -5  -3   8   10.73    1.33
   4   3  -8   25.15    0.96
  -4  -3   8   26.23    1.82
  -4  -3   8   24.75    2.24
  -4  -3   8   22.26    0.91
  -4  -3   8   22.50    3.05
   3   3  -8    4.67    0.45
  -3  -3   8    4.92    0.54
  -3  -3   8    4.17    1.06
  -3  -3   8    3.17    1.80
  -3  -3   8    3.93    1.22
   2   3  -8    0.48    0.34
  -2  -3   8   -0.70    1.14
  -2  -3   8    0.61    0.41
  -2  -3   8   -0.05    0.49
  -2  -3   8    1.10    1.01
   1   3  -8    0.04    0.35
   1   3  -8    0.68    0.94
  -1  -3   8   -1.03    1.04
  -1  -3   8   -0.10    1.03
  -1  -3   8    0.47    0.49
  -1  -3   8    0.38    0.41
   0   3  -8   12.40    0.78
   0   3  -8   12.77    1.30
   0  -3   8   13.25    1.58
   0  -3   8   11.67    1.37
   0  -3   8   14.54    0.82
   0  -3   8   13.90    0.93
  -1   3  -8   33.82    2.06
  -1   3  -8   31.69    1.26
   1  -3   8   33.26    1.37
   1  -3   8   33.29    1.23
   1  -3   8   34.32    2.43
  -2   3  -8    1.25    1.28
  -2   3  -8    0.29    0.45
  -2   3  -8   -0.49    0.87
   2  -3   8   -2.08    1.28
   2  -3   8    0.60    0.53
   2  -3   8    0.79    0.45
  -3   3  -8   13.95    1.63
  -3   3  -8   13.31    0.90
   3  -3   8   12.68    0.92
   3  -3   8   11.91    0.85
  -4   3  -8   56.75    1.97
  -4   3  -8   58.21    3.18
  -4   3  -8   56.17    1.95
   4  -3   8   50.74    1.73
   4  -3   8   50.12    1.97
  -5   3  -8   20.52    1.12
  -5   3  -8   21.74    1.12
  -5   3  -8   24.99    2.49
   5  -3   8   17.69    1.19
   5  -3   8   17.12    1.03
   6  -3   8    9.95    0.83
   6  -3   8    9.50    0.95
   7  -3   8    8.50    0.84
   7  -3   8    8.34    0.95
   8  -3   8    1.38    0.74
   8  -3   8    2.27    0.89
 -11  -2   8   -1.27    2.33
 -11  -2   8    0.37    0.86
 -10  -2   8   -1.58    2.04
 -10  -2   8    2.35    1.34
 -10  -2   8    1.87    0.86
   9   2  -8    1.43    0.40
   9   2  -8    2.10    0.39
  -9  -2   8    0.61    2.09
  -9  -2   8    2.72    1.16
  -9  -2   8    1.04    0.81
   8   2  -8    0.30    0.34
  -8  -2   8    0.57    1.92
  -8  -2   8    2.05    1.05
  -8  -2   8    0.48    0.81
   7   2  -8   16.45    0.76
  -7  -2   8   17.28    1.40
  -7  -2   8   17.39    1.59
  -7  -2   8   14.95    2.32
   6   2  -8   43.98    1.59
   6   2  -8   41.22    1.39
   6   2  -8   42.44    1.35
  -6  -2   8   40.75    3.65
  -6  -2   8   42.74    2.14
  -6  -2   8   43.06    2.25
   5   2  -8    4.72    0.48
   5   2  -8    4.85    0.59
   5   2  -8    4.69    0.43
  -5  -2   8    5.55    1.04
  -5  -2   8    4.04    1.79
  -5  -2   8    3.86    1.09
   4   2  -8    1.61    0.52
   4   2  -8    2.38    0.36
  -4  -2   8    2.61    1.00
  -4  -2   8    2.42    1.44
  -4  -2   8    1.75    0.33
  -4  -2   8    2.99    1.10
   3   2  -8   39.17    1.36
  -3  -2   8   37.68    3.57
  -3  -2   8   41.96    2.38
  -3  -2   8   39.60    1.47
  -3  -2   8   40.62    1.33
  -3  -2   8   41.15    2.13
   2   2  -8   16.20    0.75
  -2  -2   8   17.23    1.49
  -2  -2   8   17.68    1.57
  -2  -2   8   16.83    0.81
  -2  -2   8   14.55    2.16
  -2  -2   8   16.54    0.93
   1   2  -8   11.26    0.65
   1   2  -8   10.07    1.17
  -1  -2   8   11.30    0.73
  -1  -2   8   11.92    0.85
  -1  -2   8   10.50    1.33
  -1  -2   8   10.66    1.29
   0   2  -8   19.20    0.92
   0   2  -8   19.56    1.84
   0  -2   8   19.59    0.90
   0  -2   8   20.67    1.70
   0  -2   8   20.92    1.71
   0  -2   8   18.91    0.99
  -1   2  -8   -1.25    0.90
  -1   2  -8   -0.26    0.41
   1  -2   8   -0.47    0.39
   1  -2   8    0.59    0.54
   1  -2   8    0.81    1.26
  -2   2  -8   -1.65    0.92
  -2   2  -8   -0.22    0.45
  -2   2  -8    0.97    1.12
   2  -2   8    0.67    0.45
   2  -2   8    0.14    0.52
  -3   2  -8    4.56    1.29
  -3   2  -8    3.25    0.56
   3  -2   8    3.65    0.66
   3  -2   8    3.21    0.52
  -4   2  -8   24.65    2.06
  -4   2  -8   24.08    1.15
   4  -2   8   20.56    1.22
   4  -2   8   20.16    1.04
  -5   2  -8   12.90    1.05
  -5   2  -8   12.53    0.93
   5  -2   8   10.18    0.76
   5  -2   8   11.18    0.96
   6  -2   8   -0.23    0.70
   6  -2   8   -0.46    0.53
   7  -2   8    3.39    0.87
   7  -2   8    3.04    0.73
 -11  -1   8    3.39    0.88
 -11  -1   8    1.66    2.56
 -11  -1   8    0.45    1.34
 -10  -1   8   12.92    1.31
 -10  -1   8   11.61    1.21
 -10  -1   8    9.76    2.49
   9   1  -8    4.57    0.41
  -9  -1   8    4.76    0.98
  -9  -1   8    4.03    0.86
  -9  -1   8    1.64    1.85
   8   1  -8    2.54    0.35
  -8  -1   8    2.76    0.85
  -8  -1   8    2.31    1.79
  -8  -1   8    3.00    0.89
   7   1  -8    0.92    0.31
  -7  -1   8    0.63    1.61
  -7  -1   8   -0.13    0.79
  -7  -1   8    0.76    0.83
   6   1  -8   29.73    1.06
   6   1  -8   30.30    1.05
   6   1  -8   30.08    1.26
  -6  -1   8   29.37    3.04
  -6  -1   8   30.34    1.75
  -6  -1   8   28.65    1.90
   5   1  -8   -0.06    0.29
   5   1  -8   -0.65    0.33
   5   1  -8   -0.48    0.44
  -5  -1   8    1.07    1.33
  -5  -1   8    0.25    0.94
  -5  -1   8    0.29    0.90
   4   1  -8    7.93    0.56
   4   1  -8    8.49    0.65
  -4  -1   8    6.31    0.53
  -4  -1   8    8.45    0.52
  -4  -1   8    7.59    1.64
  -4  -1   8    9.31    0.53
  -4  -1   8    8.67    1.11
  -4  -1   8    8.06    1.09
   3   1  -8   68.09    2.18
  -3  -1   8   71.71    2.00
  -3  -1   8   70.43    3.16
  -3  -1   8   71.57    2.29
  -3  -1   8   73.98    3.05
  -3  -1   8   70.83    4.54
   2   1  -8   18.95    0.85
  -2  -1   8   21.38    1.68
  -2  -1   8   21.63    2.46
  -2  -1   8   22.95    1.73
  -2  -1   8   19.94    0.99
  -2  -1   8   18.59    0.85
   1   1  -8    6.77    1.03
   1   1  -8    5.63    0.49
  -1  -1   8    7.30    0.65
  -1  -1   8    5.81    1.20
  -1  -1   8    7.11    0.55
  -1  -1   8    6.93    1.20
   0   1  -8    0.29    0.98
   0   1  -8    1.22    0.38
   0  -1   8    1.37    1.15
   0  -1   8    1.78    0.51
   0  -1   8    1.24    0.41
   0  -1   8    1.77    1.06
  -1   1  -8    5.97    1.04
  -1   1  -8    7.48    0.62
   1  -1   8    6.79    0.69
   1  -1   8    7.30    0.61
   1  -1   8    6.68    1.39
  -2   1  -8    1.60    0.50
  -2   1  -8    0.44    1.02
  -2   1  -8    2.21    1.16
   2  -1   8    2.15    0.62
   2  -1   8    1.98    0.50
  -3   1  -8    5.69    1.18
  -3   1  -8    4.74    0.61
   3  -1   8    4.49    0.69
   3  -1   8    5.23    0.57
  -4   1  -8    2.03    0.59
   4  -1   8    1.62    0.66
   4  -1   8    1.98    0.52
  -5   1  -8    2.22    0.64
   5  -1   8    1.86    0.69
   5  -1   8    2.27    0.60
   6  -1   8    1.87    0.65
   6  -1   8    2.79    0.78
   7  -1   8   -0.39    0.79
   7  -1   8    0.91    0.68
 -11   0   8   -0.76    0.75
 -11   0   8   -2.06    2.21
 -11   0   8    2.02    1.02
 -10   0   8   24.32    3.45
 -10   0   8   23.40    1.48
 -10   0   8   23.14    1.42
   9   0  -8   23.98    0.87
  -9   0   8   23.08    1.41
  -9   0   8   21.69    1.50
  -9   0   8   21.11    3.09
   8   0  -8   10.85    0.57
  -8   0   8    8.69    2.12
  -8   0   8   11.18    1.16
  -8   0   8   11.53    1.17
   7   0  -8   39.23    1.31
  -7   0   8   40.74    1.92
  -7   0   8   40.08    1.98
  -7   0   8   39.85    3.47
   6   0  -8   19.55    0.82
   6   0  -8   20.75    0.99
   6   0  -8   18.90    0.77
  -6   0   8   18.78    2.50
  -6   0   8   19.59    1.44
  -6   0   8   18.57    1.38
   5   0  -8   21.93    1.03
   5   0  -8   22.21    0.85
   5   0  -8   20.68    0.85
  -5   0   8   23.85    2.72
  -5   0   8   21.79    1.66
  -5   0   8   23.24    1.60
   4   0  -8   32.21    1.17
   4   0  -8   36.65    1.34
  -4   0   8   32.91    1.19
  -4   0   8   33.24    2.83
  -4   0   8   34.64    1.13
  -4   0   8   34.79    1.87
  -4   0   8   34.74    1.95
   3   0  -8   -0.03    0.31
  -3   0   8    0.48    0.43
  -3   0   8    0.34    0.95
  -3   0   8    0.20    1.04
  -3   0   8    0.15    0.34
  -3   0   8   -0.39    0.90
   2   0  -8    6.19    0.51
  -2   0   8    6.86    0.51
  -2   0   8    7.47    1.17
  -2   0   8    7.18    1.06
  -2   0   8    6.16    0.60
  -2   0   8    6.60    1.21
   1   0  -8    3.04    0.43
   1   0  -8    3.63    0.93
  -1   0   8    3.35    0.47
  -1   0   8    3.65    1.18
  -1   0   8    3.66    0.57
  -1   0   8    3.27    1.09
  -1   0   8    2.25    0.99
   0   0  -8   36.33    2.14
   0   0  -8   31.23    1.27
   0   0   8   32.45    1.21
   0   0   8   34.20    1.41
   0   0   8   37.28    2.25
   0   0   8   34.44    2.15
  -1   0  -8  112.87    3.52
  -1   0  -8  117.13    4.73
   1   0   8  117.36    3.62
   1   0   8  120.85    3.15
   1   0   8  117.21    4.85
  -2   0  -8   34.77    2.23
  -2   0  -8   31.50    1.25
   2   0   8   30.24    1.18
   2   0   8   29.52    1.38
  -3   0  -8   13.52    0.92
   3   0   8   13.11    0.79
   3   0   8   12.55    1.00
  -4   0  -8   13.67    0.98
   4   0   8   13.11    1.04
   4   0   8   11.18    0.80
   5   0   8    3.11    0.63
   5   0   8    3.80    0.73
   6   0   8    0.15    0.61
   6   0   8   -0.75    0.72
   7   0   8   -1.28    0.82
   7   0   8   -0.02    0.67
 -11   1   8    9.92    1.03
 -11   1   8    7.56    2.73
 -11   1   8   12.60    1.15
 -10   1   8   -1.05    0.67
 -10   1   8   -0.38    2.11
 -10   1   8    1.13    0.68
   9  -1  -8    5.17    0.40
  -9   1   8    5.95    0.79
  -9   1   8    5.42    0.82
  -9   1   8    1.42    1.95
   8  -1  -8    0.33    0.29
  -8   1   8    0.31    0.76
  -8   1   8    0.11    0.69
  -8   1   8   -0.18    1.51
   7  -1  -8   19.03    0.77
  -7   1   8   18.38    2.45
  -7   1   8   18.70    1.33
  -7   1   8   18.47    1.34
   6  -1  -8  168.44    4.13
   6  -1  -8  154.71    4.66
   6  -1  -8  170.17    4.75
  -6   1   8  160.67    9.05
  -6   1   8  159.77    6.03
  -6   1   8  165.37    6.03
   5  -1  -8   79.62    2.47
   5  -1  -8   85.06    2.56
   5  -1  -8   83.12    2.22
  -5   1   8   80.73    5.05
  -5   1   8   84.12    3.38
  -5   1   8   80.36    3.39
   4  -1  -8   80.04    2.52
  -4   1   8   86.02    3.53
  -4   1   8   85.01    3.47
  -4   1   8   86.99    5.03
  -4   1   8   84.18    2.24
  -4   1   8   81.15    2.54
   3  -1  -8   70.43    2.25
  -3   1   8   72.40    4.32
  -3   1   8   73.92    2.32
  -3   1   8   71.11    3.17
  -3   1   8   74.17    3.20
  -3   1   8   77.11    2.05
   2  -1  -8   27.73    1.08
  -2   1   8   27.08    1.20
  -2   1   8   26.79    1.99
  -2   1   8   26.80    1.82
  -2   1   8   28.94    2.16
  -2   1   8   30.47    1.05
   1  -1  -8   30.10    1.89
   1  -1  -8   27.78    1.14
  -1   1   8   29.21    1.09
  -1   1   8   29.23    1.28
  -1   1   8   28.90    2.04
  -1   1   8   31.15    2.16
  -1   1   8   29.62    2.08
   0  -1  -8    2.80    1.03
   0  -1  -8    3.04    0.49
   0   1   8    2.94    1.39
   0   1   8    2.06    1.07
   0   1   8    2.27    0.46
   0   1   8    3.03    0.63
   0   1   8    2.60    0.70
  -1  -1  -8    4.27    0.54
   1   1   8    4.69    0.67
   1   1   8    3.66    0.55
   1   1   8    5.81    0.77
  -2  -1  -8    2.26    0.53
   2   1   8    0.80    0.56
   2   1   8    1.52    0.47
  -3  -1  -8   -0.22    0.50
   3   1   8   -0.30    0.61
   3   1   8   -0.30    0.50
  -4  -1  -8   14.46    1.05
   4   1   8   15.60    0.89
   4   1   8   15.32    1.06
   5   1   8   18.88    1.19
   5   1   8   19.04    1.00
   6   1   8   10.66    0.89
   6   1   8    9.82    1.06
 -11   2   8   10.09    0.91
 -11   2   8   11.18    1.05
 -11   2   8    7.55    2.63
 -10   2   8   10.05    2.37
 -10   2   8   10.22    0.94
 -10   2   8   12.59    1.04
   9  -2  -8    3.33    0.37
  -9   2   8    2.55    0.77
  -9   2   8    1.90    1.85
  -9   2   8    3.52    0.71
   8  -2  -8   24.51    0.90
  -8   2   8   22.38    1.47
  -8   2   8   24.19    1.42
  -8   2   8   22.20    3.09
   7  -2  -8    6.98    0.52
  -7   2   8    5.94    0.86
  -7   2   8    6.69    0.94
  -7   2   8    6.23    1.71
   6  -2  -8   20.92    0.97
   6  -2  -8   20.15    0.83
  -6   2   8   19.74    1.42
  -6   2   8   20.19    1.51
  -6   2   8   20.74    2.54
   5  -2  -8    5.03    0.44
  -5   2   8    4.77    0.95
  -5   2   8    4.77    0.37
  -5   2   8    6.30    1.51
  -5   2   8    6.61    1.12
   4  -2  -8    1.61    0.36
  -4   2   8    2.40    1.16
  -4   2   8    1.86    0.39
  -4   2   8    1.92    1.16
  -4   2   8    2.08    0.43
  -4   2   8    1.72    0.95
   3  -2  -8   85.98    2.75
  -3   2   8   90.43    2.80
  -3   2   8   92.63    3.82
  -3   2   8   90.81    3.84
  -3   2   8   91.09    2.46
  -3   2   8   95.46    5.10
   2  -2  -8  123.77    3.85
  -2   2   8  132.57    5.15
  -2   2   8  129.74    3.42
  -2   2   8  131.69    3.93
  -2   2   8  132.64    5.19
  -2   2   8  134.28    6.85
   1  -2  -8   99.34    3.19
   1  -2  -8  104.96    4.29
  -1   2   8  106.82    4.51
  -1   2   8  110.43    5.43
  -1   2   8  104.93    2.86
  -1   2   8  105.69    4.43
  -1   2   8  107.55    3.30
   0  -2  -8   84.07    2.61
   0   2   8   80.21    2.30
   0   2   8   83.62    3.67
   0   2   8   79.18    2.65
   0   2   8   84.01    3.70
  -1  -2  -8   29.19    1.23
   1   2   8   27.40    1.27
   1   2   8   27.38    1.13
  -2  -2  -8   12.78    0.91
   2   2   8   12.40    0.92
   2   2   8   11.67    0.78
  -3  -2  -8    1.14    0.57
   3   2   8    1.36    0.52
   3   2   8    1.15    0.62
  -4  -2  -8    6.13    0.77
   4   2   8    5.85    0.72
   4   2   8    6.83    0.87
   5   2   8   13.32    0.93
   5   2   8   13.29    1.11
   6   2   8   -0.69    0.68
   6   2   8    1.37    0.85
 -11   3   8   -0.21    0.87
 -11   3   8   -1.70    2.33
 -11   3   8    2.21    0.70
 -10   3   8   14.94    2.55
 -10   3   8   13.82    1.31
 -10   3   8   17.39    1.17
   9  -3  -8   23.60    0.87
  -9   3   8   17.09    2.62
  -9   3   8   20.84    1.32
  -9   3   8   20.34    1.48
   8  -3  -8   22.10    0.87
  -8   3   8   21.12    1.56
  -8   3   8   18.60    2.49
  -8   3   8   20.91    1.38
   7  -3  -8   43.71    1.45
  -7   3   8   43.45    3.78
  -7   3   8   42.19    2.05
  -7   3   8   43.20    2.17
   6  -3  -8    0.84    0.36
  -6   3   8    0.39    1.48
  -6   3   8    0.97    0.77
  -6   3   8    0.76    0.97
   5  -3  -8    0.17    0.33
  -5   3   8   -0.94    0.82
  -5   3   8    0.08    1.07
  -5   3   8    0.11    0.32
  -5   3   8   -1.03    1.22
   4  -3  -8    2.33    0.41
  -4   3   8    3.10    1.28
  -4   3   8    2.78    0.44
  -4   3   8    3.44    0.98
  -4   3   8    2.92    1.29
  -4   3   8    2.36    0.48
   3  -3  -8    7.43    0.58
  -3   3   8    6.50    1.19
  -3   3   8    8.86    1.43
  -3   3   8    7.08    0.57
  -3   3   8    7.73    1.17
  -3   3   8    8.00    0.67
   2  -3  -8   59.92    2.06
  -2   3   8   64.72    2.16
  -2   3   8   64.79    3.07
  -2   3   8   65.22    1.87
  -2   3   8   63.42    3.08
   1  -3  -8    2.65    0.47
  -1   3   8    2.13    0.63
  -1   3   8    1.69    1.42
  -1   3   8    3.02    0.53
  -1   3   8    3.10    1.11
   0  -3  -8    3.45    0.52
   0   3   8    3.59    0.68
   0   3   8    3.41    0.51
  -1  -3  -8   17.61    1.00
   1   3   8   15.76    0.86
   1   3   8   15.86    1.09
  -2  -3  -8   18.54    1.07
   2   3   8   20.19    1.01
   2   3   8   18.18    1.19
  -3  -3  -8   12.80    0.98
   3   3   8   13.35    0.87
   3   3   8   13.63    1.13
  -4  -3  -8    7.99    0.87
   4   3   8    5.90    0.71
   4   3   8    6.96    0.93
   5   3   8    4.16    0.71
   5   3   8    2.62    0.89
 -11   4   8   -2.27    0.94
 -11   4   8    0.66    0.70
  10  -4  -8    8.12    0.61
 -10   4   8    7.72    0.89
 -10   4   8    5.79    1.08
   9  -4  -8   34.44    1.21
  -9   4   8   33.16    1.73
  -9   4   8   33.08    1.95
   8  -4  -8   10.16    0.65
  -8   4   8    9.47    1.20
  -8   4   8    7.25    2.00
  -8   4   8    8.31    0.96
   7  -4  -8    5.18    0.49
  -7   4   8    4.35    1.67
  -7   4   8    4.84    1.17
  -7   4   8    5.31    0.92
   6  -4  -8   10.64    0.65
  -6   4   8    9.93    1.67
  -6   4   8   10.29    1.05
  -6   4   8    8.61    1.24
   5  -4  -8    5.85    0.53
  -5   4   8    5.79    0.98
  -5   4   8    5.82    0.45
  -5   4   8    6.50    1.33
   4  -4  -8   14.49    0.79
  -4   4   8   12.70    1.48
  -4   4   8   15.82    1.51
  -4   4   8   14.49    0.79
  -4   4   8   13.67    0.84
   3  -4  -8    6.96    0.59
  -3   4   8    5.95    0.56
  -3   4   8    5.45    1.12
  -3   4   8    6.79    0.69
  -3   4   8    6.49    1.29
   2  -4  -8    2.19    0.49
  -2   4   8    3.42    0.52
  -2   4   8    0.85    1.35
  -2   4   8    3.67    0.63
  -2   4   8    3.41    1.05
   1  -4  -8    2.21    0.49
  -1   4   8    1.39    1.39
  -1   4   8    2.15    0.52
  -1   4   8    3.24    0.65
   0  -4  -8    0.02    0.45
   0   4   8   -0.09    0.44
   0   4   8    0.29    0.62
  -1  -4  -8   15.25    0.92
   1   4   8   14.24    0.92
   1   4   8   15.25    1.12
  -2  -4  -8   22.35    1.18
   2   4   8   19.89    1.01
   2   4   8   19.66    1.27
  -3  -4  -8    5.29    0.77
   3   4   8    5.61    0.72
   3   4   8    5.42    0.88
   4   4   8    1.69    0.85
   4   4   8    1.31    0.67
   5   4   8    1.31    0.68
   5   4   8    1.53    0.86
 -11   5   8    6.38    1.20
 -11   5   8    6.99    0.93
  10  -5  -8    3.72    0.47
 -10   5   8    2.67    0.81
 -10   5   8    0.77    1.13
   9  -5  -8    8.51    0.67
  -9   5   8    7.71    1.25
  -9   5   8    9.01    0.98
   8  -5  -8    0.89    0.40
  -8   5   8    1.16    0.82
  -8   5   8   -0.06    1.13
   7  -5  -8    0.48    0.41
  -7   5   8    0.57    0.85
  -7   5   8    0.16    1.14
   6  -5  -8   38.60    1.42
  -6   5   8   39.74    2.39
  -6   5   8   41.45    2.19
   5  -5  -8   47.55    1.69
  -5   5   8   50.18    2.54
  -5   5   8   47.91    1.47
  -5   5   8   50.42    2.61
   4  -5  -8   15.65    0.87
  -4   5   8   17.04    1.62
  -4   5   8   14.72    0.84
  -4   5   8   15.17    1.64
  -4   5   8   14.54    0.91
   3  -5  -8    6.80    0.63
  -3   5   8    6.61    0.59
  -3   5   8    6.05    1.47
  -3   5   8    6.07    0.72
   2  -5  -8    2.29    0.53
  -2   5   8    0.02    1.42
  -2   5   8    1.66    0.51
  -2   5   8    2.00    0.63
   1  -5  -8    1.53    0.53
  -1   5   8    1.06    0.52
  -1   5   8    1.21    0.66
   0  -5  -8    2.50    0.60
   0   5   8    0.87    0.69
   0   5   8    2.39    0.58
  -1  -5  -8    0.27    0.59
   1   5   8   -0.18    0.69
   1   5   8    0.90    0.53
  -2  -5  -8   -0.28    0.61
   2   5   8   -0.86    0.58
   2   5   8   -0.97    0.70
  -3  -5  -8    1.88    0.71
   3   5   8    2.33    0.83
   3   5   8    0.65    0.65
   4   5   8   -0.25    0.84
   4   5   8   -0.58    0.69
 -11   6   8    9.58    1.07
 -11   6   8    9.67    1.40
  10  -6  -8   14.84    0.84
 -10   6   8   12.72    1.32
 -10   6   8   11.22    1.43
   9  -6  -8    2.22    0.48
  -9   6   8    0.83    1.24
  -9   6   8    2.04    0.87
   8  -6  -8    6.14    0.59
  -8   6   8    6.47    1.01
  -8   6   8    4.78    1.31
   7  -6  -8   16.44    0.93
  -7   6   8   19.11    1.63
  -7   6   8   16.81    1.78
   6  -6  -8    0.03    0.44
  -6   6   8    0.93    0.93
  -6   6   8   -0.72    1.25
   5  -6  -8    2.47    0.53
  -5   6   8    2.68    1.39
  -5   6   8    2.03    1.01
   4  -6  -8   -0.14    0.47
  -4   6   8   -0.23    0.55
  -4   6   8    0.84    1.41
  -4   6   8    0.18    0.46
   3  -6  -8    0.80    0.46
  -3   6   8   -0.02    1.43
  -3   6   8    2.05    0.66
  -3   6   8    1.12    0.51
   2  -6  -8   22.55    1.11
  -2   6   8   24.83    1.08
  -2   6   8   23.19    1.27
   1  -6  -8   22.76    1.15
  -1   6   8   24.50    1.33
  -1   6   8   23.55    1.11
   0  -6  -8   20.55    1.19
   0   6   8   22.15    1.32
   0   6   8   21.03    1.11
  -1  -6  -8    8.91    0.85
   1   6   8    8.26    0.79
   1   6   8    8.19    0.94
  -2  -6  -8    3.76    0.71
   2   6   8    3.46    0.72
   2   6   8    3.89    0.88
  -3  -6  -8    2.39    0.78
   3   6   8    1.71    0.73
   3   6   8    1.56    0.90
  10  -7  -8    1.98    0.54
 -10   7   8    2.26    1.38
 -10   7   8    2.99    1.01
   9  -7  -8   13.70    0.93
  -9   7   8   13.54    1.34
  -9   7   8   12.49    1.59
   8  -7  -8   21.17    1.05
  -8   7   8   21.99    2.09
  -8   7   8   24.58    1.74
   7  -7  -8   37.71    1.51
  -7   7   8   42.62    2.33
  -7   7   8   37.99    2.46
   6  -7  -8   27.63    1.24
  -6   7   8   29.46    2.28
   5  -7  -8    6.06    0.67
  -5   7   8    6.44    1.56
   4  -7  -8   12.60    0.92
  -4   7   8   12.90    0.85
  -4   7   8   11.47    1.73
   3  -7  -8    4.63    0.64
  -3   7   8    4.75    0.80
  -3   7   8    6.42    0.68
   2  -7  -8    1.91    0.58
  -2   7   8    3.38    0.63
  -2   7   8    2.09    0.74
   1  -7  -8    5.96    0.74
  -1   7   8    6.43    0.88
  -1   7   8    5.27    0.67
   0  -7  -8    0.55    0.64
   0   7   8   -0.42    0.61
   0   7   8    0.06    0.75
  -1  -7  -8    1.19    0.68
   1   7   8    1.04    0.83
   1   7   8    1.01    0.68
  -2  -7  -8    4.11    0.82
   2   7   8    4.77    0.99
   2   7   8    4.08    0.80
  10  -8  -8    2.56    0.62
 -10   8   8    4.11    1.14
   9  -8  -8    2.67    0.60
  -9   8   8    2.31    1.53
   8  -8  -8    3.10    0.63
  -8   8   8    4.14    1.56
   7  -8  -8    1.48    0.56
  -7   8   8    1.77    1.53
   6  -8  -8    3.66    0.64
  -6   8   8    3.52    1.55
   5  -8  -8   13.96    0.97
   4  -8  -8   21.21    1.17
   3  -8  -8   27.56    1.31
  -3   8   8   30.36    1.25
  -3   8   8   26.88    1.44
   2  -8  -8    8.08    0.82
  -2   8   8    7.86    0.93
  -2   8   8    8.84    0.79
   1  -8  -8    7.92    0.87
  -1   8   8    7.19    0.94
  -1   8   8    8.65    0.82
   0  -8  -8    3.27    0.74
   0   8   8    4.46    0.94
   0   8   8    3.81    0.71
  -1  -8  -8   -0.64    0.70
   1   8   8   -0.27    0.65
   1   8   8   -1.21    0.87
   9  -9  -8    0.08    0.60
   8  -9  -8   -0.31    0.56
   7  -9  -8    1.51    0.61
   6  -9  -8   -0.02    0.54
   5  -9  -8    8.33    0.81
   4  -9  -8   10.68    0.93
   3  -9  -8    4.82    0.75
  -3   9   8    4.45    0.75
   2  -9  -8    5.56    0.79
  -2   9   8    3.50    0.89
  -2   9   8    5.05    0.76
   1  -9  -8    1.10    0.75
  -1   9   8    1.62    0.72
  -1   9   8    1.65    0.89
   0  -9  -8    3.09    0.85
   0   9   8    2.61    0.78
   0   9   8    2.96    1.00
   7 -10  -8    3.76    0.73
   6 -10  -8    2.81    0.73
   5 -10  -8    0.41    0.62
   4 -10  -8   -0.72    0.67
   3 -10  -8    0.42    0.72
   2 -10  -8    0.24    0.75
  -2  10   8   -0.52    0.70
   2  13  -9    1.85    0.80
   1  13  -9    7.11    0.90
   0  13  -9    2.96    0.81
   0 -13   9    3.65    0.96
  -1  13  -9    1.24    0.76
   1 -13   9    1.31    0.88
  -2  13  -9    5.06    0.87
   2 -13   9    4.27    0.99
  -3  13  -9    0.95    0.76
   3 -13   9   -0.57    0.85
   4  12  -9    0.41    0.75
  -4 -12   9   -0.69    1.87
   3  12  -9    0.93    0.73
   2  12  -9    0.88    0.72
   1  12  -9    3.03    0.78
  -1 -12   9    3.48    0.91
   0  12  -9    3.80    0.75
   0 -12   9    4.59    0.94
  -1  12  -9    0.92    0.67
   1 -12   9   -0.24    0.78
  -2  12  -9    1.93    0.73
   2 -12   9    0.70    0.81
  -3  12  -9   10.26    0.98
   3 -12   9    8.53    1.09
  -4  12  -9    2.57    0.77
   4 -12   9    2.07    0.91
   5 -12   9    2.41    0.96
   5  11  -9    4.46    0.81
  -5 -11   9    1.74    2.17
   4  11  -9    8.15    0.91
  -4 -11   9    4.35    2.13
   3  11  -9    0.92    0.63
   2  11  -9    0.88    0.68
  -2 -11   9    0.40    0.78
   1  11  -9    0.57    0.62
  -1 -11   9    0.20    0.77
   0  11  -9    5.07    0.75
   0 -11   9    5.68    0.94
  -1  11  -9    7.30    0.81
   1 -11   9    6.77    0.95
  -2  11  -9    9.97    0.93
   2 -11   9   10.03    1.07
  -3  11  -9   29.01    1.37
   3 -11   9   27.20    1.60
  -4  11  -9   12.56    1.00
   4 -11   9    9.80    1.09
   5 -11   9    3.26    1.01
   6 -11   9    8.48    1.21
   6  10  -9    6.31    0.85
  -6 -10   9    1.86    2.29
   5  10  -9   13.21    1.05
  -5 -10   9    3.89    2.13
   4  10  -9   45.06    1.83
   3  10  -9   32.69    1.49
   2  10  -9    9.34    0.87
  -2 -10   9   11.10    1.01
   1  10  -9   15.39    1.03
  -1 -10   9   19.22    1.29
   0  10  -9    3.71    0.67
   0 -10   9    3.59    0.77
  -1  10  -9    2.53    0.67
   1 -10   9    2.48    0.80
  -2  10  -9    1.24    0.61
   2 -10   9    1.11    0.76
  -3  10  -9    7.14    0.79
   3 -10   9    8.82    1.05
  -4  10  -9   16.96    1.13
   4 -10   9   15.16    1.08
   4 -10   9   11.03    1.18
   5 -10   9    9.53    1.15
   5 -10   9    8.77    0.97
   6 -10   9   18.40    1.33
   6 -10   9   17.37    1.46
   7   9  -9    2.50    0.74
  -7  -9   9    2.79    1.40
  -7  -9   9    0.79    2.39
   6   9  -9    0.33    0.62
  -6  -9   9    1.27    1.40
  -6  -9   9    0.62    2.07
   5   9  -9    0.30    0.59
  -5  -9   9    0.44    1.27
  -5  -9   9   -0.02    1.94
   4   9  -9   14.16    1.01
  -4  -9   9   13.38    1.67
   3   9  -9   24.05    1.19
  -3  -9   9   26.17    1.36
   2   9  -9   22.68    1.20
  -2  -9   9   22.57    1.31
   1   9  -9   59.35    2.21
  -1  -9   9   66.21    2.37
   0   9  -9  103.56    3.31
   0  -9   9  103.15    3.44
  -1   9  -9   30.98    1.35
   1  -9   9   28.89    1.47
  -2   9  -9   12.06    0.99
   2  -9   9   13.33    1.11
  -3   9  -9    8.09    0.83
   3  -9   9    8.17    0.86
   3  -9   9    7.29    0.94
  -4   9  -9    1.84    0.67
   4  -9   9    0.57    0.81
   4  -9   9    0.88    0.73
   5  -9   9    7.21    0.92
   5  -9   9    7.45    1.02
   6  -9   9    9.18    1.19
   6  -9   9    9.70    1.02
   7  -9   9   14.38    1.13
   7  -9   9   11.92    1.33
   8   8  -9    4.40    0.76
  -8  -8   9    2.20    2.34
  -8  -8   9    4.87    1.43
   7   8  -9   11.10    0.91
  -7  -8   9    5.50    2.44
  -7  -8   9   12.29    1.57
   6   8  -9    3.36    0.67
  -6  -8   9    0.60    1.85
  -6  -8   9    3.43    1.27
   5   8  -9    2.44    0.60
  -5  -8   9    2.01    1.23
  -5  -8   9    1.23    1.84
   4   8  -9    2.60    0.59
  -4  -8   9    1.48    1.17
  -4  -8   9   -0.29    1.69
   3   8  -9    0.70    0.49
  -3  -8   9    1.20    0.60
  -3  -8   9    0.11    1.05
   2   8  -9    2.46    0.57
  -2  -8   9    3.48    0.69
  -2  -8   9    1.28    1.19
   1   8  -9    4.38    0.60
  -1  -8   9    4.38    0.70
   0   8  -9   27.09    1.27
   0  -8   9   27.50    1.41
  -1   8  -9    9.00    0.80
   1  -8   9    9.45    0.91
  -2   8  -9    4.12    0.63
   2  -8   9    3.50    0.75
   2  -8   9    3.80    0.67
  -3   8  -9   25.59    1.26
   3  -8   9   25.57    1.24
   3  -8   9   24.05    1.39
  -4   8  -9   18.01    1.13
   4  -8   9   17.34    1.16
   4  -8   9   15.85    1.33
  -5   8  -9    4.54    0.73
   5  -8   9    3.42    0.75
   5  -8   9    3.43    0.92
   6  -8   9    4.31    0.99
   6  -8   9    5.07    0.85
   7  -8   9    0.90    0.96
   7  -8   9    1.64    0.82
   8   7  -9    0.57    0.59
  -8  -7   9   -1.84    2.26
  -8  -7   9    1.70    1.22
   7   7  -9   13.70    0.96
  -7  -7   9    7.09    2.59
  -7  -7   9   12.97    1.53
   6   7  -9    1.74    0.55
  -6  -7   9    1.19    1.13
  -6  -7   9    0.96    1.86
   5   7  -9    1.18    0.52
  -5  -7   9   -0.67    1.14
  -5  -7   9   -3.92    1.76
  -5  -7   9    0.43    1.77
   4   7  -9    6.08    0.61
  -4  -7   9    4.88    1.21
  -4  -7   9    4.09    1.74
  -4  -7   9    1.00    1.86
   3   7  -9    4.38    0.60
  -3  -7   9    4.90    1.23
  -3  -7   9    6.27    0.69
   2   7  -9    0.38    0.47
  -2  -7   9    0.86    0.57
  -2  -7   9    0.03    1.10
   1   7  -9    7.78    0.69
  -1  -7   9    8.93    1.38
  -1  -7   9    8.66    0.83
   0   7  -9    0.98    0.49
   0  -7   9   -0.18    0.49
   0  -7   9    0.06    0.62
  -1   7  -9   -0.18    0.51
   1  -7   9   -0.03    0.52
   1  -7   9    0.40    0.60
  -2   7  -9    0.44    0.54
   2  -7   9    0.29    0.60
   2  -7   9    0.60    0.69
  -3   7  -9   11.01    0.91
   3  -7   9    9.87    1.02
   3  -7   9    9.94    0.83
  -4   7  -9   19.83    1.14
   4  -7   9   19.27    1.08
   4  -7   9   19.67    1.34
  -5   7  -9    1.68    0.65
   5  -7   9    0.63    0.68
   5  -7   9    2.07    0.80
   6  -7   9    2.17    0.75
   6  -7   9    2.05    0.89
   7  -7   9    5.73    1.01
   7  -7   9    6.32    0.90
   9   6  -9    0.79    0.56
  -9  -6   9   -2.12    2.40
  -9  -6   9    0.90    1.19
   8   6  -9    0.71    0.55
  -8  -6   9    0.30    1.08
  -8  -6   9    0.61    2.31
   7   6  -9    4.11    0.61
  -7  -6   9    3.42    2.20
  -7  -6   9    4.18    1.14
   6   6  -9    7.21    0.66
  -6  -6   9    6.29    2.27
  -6  -6   9    4.38    1.77
  -6  -6   9    7.13    1.23
   5   6  -9   -0.10    0.47
  -5  -6   9    0.33    1.00
  -5  -6   9   -1.58    1.83
  -5  -6   9    0.85    1.52
   4   6  -9   15.35    0.87
  -4  -6   9   18.15    1.70
  -4  -6   9   19.68    1.97
  -4  -6   9   13.84    0.85
  -4  -6   9    8.97    2.32
   3   6  -9   20.95    1.05
  -3  -6   9   26.45    2.68
  -3  -6   9   23.42    1.15
  -3  -6   9   21.33    1.87
   2   6  -9    0.31    0.41
   2   6  -9   -0.33    0.39
  -2  -6   9   -1.24    0.96
  -2  -6   9    1.50    0.56
  -2  -6   9    2.67    1.54
   1   6  -9    1.79    0.47
   1   6  -9    2.35    0.49
  -1  -6   9    1.68    1.19
  -1  -6   9    1.08    0.55
  -1  -6   9    1.55    0.63
  -1  -6   9    1.57    1.51
   0   6  -9    8.91    0.74
   0   6  -9    8.89    0.71
   0  -6   9    9.61    0.75
   0  -6   9    9.07    1.35
   0  -6   9   10.44    0.88
  -1   6  -9    1.20    0.51
   1  -6   9    1.79    0.54
   1  -6   9    0.55    0.60
  -2   6  -9    0.82    0.53
   2  -6   9   -0.16    0.65
   2  -6   9    0.67    0.51
  -3   6  -9    3.43    0.65
   3  -6   9    3.09    0.71
   3  -6   9    2.49    0.64
  -4   6  -9    2.05    0.60
   4  -6   9    1.09    0.62
   4  -6   9    2.31    0.77
  -5   6  -9    1.65    0.65
   5  -6   9    1.42    0.67
   5  -6   9    1.64    0.77
   6  -6   9   -1.68    0.75
   6  -6   9   -0.84    0.59
   7  -6   9    6.32    0.85
   7  -6   9    6.35    1.05
   9   5  -9    6.29    0.66
  -9  -5   9    5.03    1.21
  -9  -5   9    4.42    2.46
   8   5  -9    6.22    0.64
  -8  -5   9    4.01    2.19
  -8  -5   9    6.02    1.16
  -8  -5   9    2.63    1.69
   7   5  -9   15.33    0.89
  -7  -5   9   11.94    2.68
  -7  -5   9   14.49    1.89
  -7  -5   9   14.48    1.43
   6   5  -9    3.10    0.50
  -6  -5   9    2.57    1.09
  -6  -5   9    2.32    2.08
  -6  -5   9    1.90    1.55
   5   5  -9    1.79    0.47
   5   5  -9    1.86    0.46
  -5  -5   9    2.50    1.03
  -5  -5   9    1.44    1.91
  -5  -5   9    2.27    1.48
   4   5  -9    0.37    0.43
   4   5  -9    0.21    0.43
  -4  -5   9   -0.78    1.04
  -4  -5   9   -0.63    0.40
  -4  -5   9   -0.25    1.69
  -4  -5   9    0.67    1.34
   3   5  -9   14.78    0.85
   3   5  -9   13.82    0.84
  -3  -5   9    8.31    2.33
  -3  -5   9   18.52    1.86
  -3  -5   9   15.45    0.95
  -3  -5   9   15.36    1.47
   2   5  -9    5.24    0.57
  -2  -5   9    4.08    1.15
  -2  -5   9    7.15    1.64
  -2  -5   9    5.52    0.70
   1   5  -9   16.49    0.93
  -1  -5   9   17.00    1.11
  -1  -5   9   18.48    1.98
  -1  -5   9   17.82    1.74
  -1  -5   9   18.39    1.04
   0   5  -9   74.17    2.53
   0   5  -9   77.69    2.53
   0  -5   9   81.48    2.72
   0  -5   9   77.22    2.35
   0  -5   9   82.45    3.69
   0  -5   9   84.05    3.98
  -1   5  -9   63.85    2.18
  -1   5  -9   63.84    2.19
   1  -5   9   66.98    2.35
   1  -5   9   66.90    2.04
  -2   5  -9   16.40    0.99
  -2   5  -9   15.27    0.98
   2  -5   9   17.69    0.93
   2  -5   9   17.50    1.16
  -3   5  -9   18.42    1.03
  -3   5  -9   19.73    1.03
   3  -5   9   19.34    1.22
   3  -5   9   22.11    1.10
  -4   5  -9    4.70    0.70
   4  -5   9    4.54    0.69
   4  -5   9    4.30    0.79
  -5   5  -9    0.20    0.61
   5  -5   9    0.13    0.62
   5  -5   9    0.02    0.72
   6  -5   9   -0.07    0.72
   6  -5   9    1.60    0.70
   7  -5   9    1.35    0.90
   7  -5   9    1.52    0.76
  10   4  -9    8.42    0.71
 -10  -4   9    6.71    1.22
 -10  -4   9    4.17    2.59
   9   4  -9    5.11    0.59
  -9  -4   9    3.57    1.13
  -9  -4   9    3.68    2.52
  -9  -4   9   -0.19    1.62
   8   4  -9    6.96    0.62
  -8  -4   9    7.33    2.33
  -8  -4   9    8.95    1.65
  -8  -4   9    8.14    1.20
   7   4  -9   69.77    2.24
   7   4  -9   70.08    2.25
  -7  -4   9   73.10    3.70
  -7  -4   9   62.99    5.50
  -7  -4   9   72.11    3.18
   6   4  -9   82.37    2.54
   6   4  -9   80.25    2.52
  -6  -4   9   79.60    3.42
  -6  -4   9   74.41    5.72
  -6  -4   9   82.36    3.89
   5   4  -9   47.56    1.66
  -5  -4   9   42.23    4.10
  -5  -4   9   51.57    2.47
  -5  -4   9   52.56    2.84
   4   4  -9   55.95    1.81
  -4  -4   9   51.87    4.71
  -4  -4   9   46.39    1.75
  -4  -4   9   57.01    2.74
  -4  -4   9   59.72    3.10
   3   4  -9   20.77    0.96
  -3  -4   9   22.40    1.10
  -3  -4   9   21.92    1.91
  -3  -4   9   16.58    2.74
  -3  -4   9   21.00    1.86
   2   4  -9    0.17    0.39
  -2  -4   9    0.82    1.38
  -2  -4   9    0.41    0.56
  -2  -4   9    0.55    0.51
  -2  -4   9    0.66    1.07
   1   4  -9    1.90    0.45
   1   4  -9    1.60    1.13
  -1  -4   9    2.64    1.45
  -1  -4   9    1.68    1.26
  -1  -4   9    2.31    0.65
  -1  -4   9    2.25    0.55
   0   4  -9   32.92    1.38
   0  -4   9   37.79    2.27
   0  -4   9   36.10    1.34
   0  -4   9   37.02    2.66
   0  -4   9   35.20    1.49
  -1   4  -9   26.87    1.19
   1  -4   9   30.71    1.16
   1  -4   9   28.38    1.33
  -2   4  -9   14.80    0.96
   2  -4   9   15.38    0.87
   2  -4   9   14.70    1.07
  -3   4  -9   18.28    1.09
  -3   4  -9   19.72    1.11
   3  -4   9   19.32    1.04
   3  -4   9   18.15    1.19
  -4   4  -9   62.02    2.06
  -4   4  -9   56.39    2.05
   4  -4   9   52.49    1.85
   4  -4   9   53.13    2.14
  -5   4  -9   24.30    1.27
   5  -4   9   21.55    1.29
   5  -4   9   23.24    1.19
   6  -4   9   10.05    0.90
   6  -4   9   10.43    1.02
   7  -4   9    6.49    1.03
   7  -4   9    7.26    0.89
 -10  -3   9   -0.17    2.49
 -10  -3   9   -3.14    1.59
 -10  -3   9   -0.24    1.02
   9   3  -9    0.50    0.43
  -9  -3   9   -1.32    0.94
  -9  -3   9    0.53    1.40
  -9  -3   9   -1.12    2.12
   8   3  -9    3.23    0.47
   8   3  -9    3.36    0.50
  -8  -3   9    3.56    1.04
  -8  -3   9    3.15    2.15
  -8  -3   9    4.54    1.35
   7   3  -9   12.56    0.74
  -7  -3   9    9.77    2.39
  -7  -3   9   11.58    1.22
  -7  -3   9   13.10    1.53
   6   3  -9   44.77    1.57
  -6  -3   9   48.38    2.38
  -6  -3   9   47.63    2.63
  -6  -3   9   45.19    4.05
   5   3  -9   13.19    0.76
  -5  -3   9   10.52    2.11
  -5  -3   9   12.19    1.25
  -5  -3   9   11.69    1.41
   4   3  -9   49.45    1.64
  -4  -3   9   41.68    1.60
  -4  -3   9   52.95    2.81
  -4  -3   9   50.03    2.51
  -4  -3   9   50.43    4.08
   3   3  -9  158.67    4.76
  -3  -3   9  157.26    9.55
  -3  -3   9  165.57    4.85
  -3  -3   9  164.32    4.26
  -3  -3   9  168.07    6.47
  -3  -3   9  165.81    6.28
   2   3  -9  105.47    3.30
  -2  -3   9  108.96    4.53
  -2  -3   9  115.33    4.79
  -2  -3   9  108.44    2.99
  -2  -3   9  109.00    3.42
   1   3  -9   71.27    2.32
   1   3  -9   72.26    3.34
  -1  -3   9   74.65    2.46
  -1  -3   9   70.42    3.52
  -1  -3   9   71.32    2.11
  -1  -3   9   71.18    3.35
   0   3  -9   31.04    1.30
   0   3  -9   37.17    2.50
   0  -3   9   34.14    1.29
   0  -3   9   33.77    1.43
   0  -3   9   35.90    2.22
   0  -3   9   35.86    2.87
  -1   3  -9    9.13    0.72
   1  -3   9    7.85    0.65
   1  -3   9    8.82    0.78
  -2   3  -9    0.48    0.51
   2  -3   9    0.20    0.47
   2  -3   9    0.64    0.61
  -3   3  -9   14.30    0.98
   3  -3   9   12.85    0.99
   3  -3   9   13.75    0.86
  -4   3  -9   54.04    2.01
  -4   3  -9   56.95    2.01
   4  -3   9   52.72    2.08
   4  -3   9   50.24    1.78
  -5   3  -9   20.24    1.19
  -5   3  -9   21.79    1.21
   5  -3   9   16.61    1.17
   5  -3   9   18.28    1.08
   6  -3   9    5.51    0.77
   6  -3   9    5.35    0.93
   7  -3   9    6.03    0.80
   7  -3   9    5.80    1.01
 -10  -2   9   12.39    1.59
 -10  -2   9    6.13    2.50
 -10  -2   9    9.53    1.18
   9   2  -9    7.01    0.57
  -9  -2   9    7.31    1.29
  -9  -2   9    3.93    2.29
  -9  -2   9    5.22    1.06
   8   2  -9    9.21    0.66
  -8  -2   9    9.35    1.14
  -8  -2   9   10.15    1.29
  -8  -2   9    8.96    2.23
   7   2  -9    2.16    0.41
  -7  -2   9    1.60    0.98
  -7  -2   9    2.24    1.75
  -7  -2   9    3.02    1.08
   6   2  -9    2.27    0.41
  -6  -2   9    2.65    0.97
  -6  -2   9    2.21    1.56
  -6  -2   9    2.21    1.04
   5   2  -9    0.84    0.36
  -5  -2   9    0.43    1.59
  -5  -2   9   -0.21    1.05
  -5  -2   9    0.61    0.98
   4   2  -9    2.56    0.44
  -4  -2   9    2.53    0.45
  -4  -2   9    1.80    1.16
  -4  -2   9    2.23    1.52
  -4  -2   9    4.00    1.09
   3   2  -9   75.68    2.46
  -3  -2   9   79.37    2.57
  -3  -2   9   77.23    5.32
  -3  -2   9   85.62    2.27
  -3  -2   9   78.13    3.47
  -3  -2   9   78.66    3.68
   2   2  -9   39.63    1.46
  -2  -2   9   41.48    2.40
  -2  -2   9   40.49    1.38
  -2  -2   9   40.28    2.68
  -2  -2   9   42.97    1.61
  -2  -2   9   43.38    3.91
   1   2  -9    5.67    1.15
   1   2  -9    5.10    0.55
  -1  -2   9    4.65    1.21
  -1  -2   9    5.96    0.69
  -1  -2   9    5.78    0.55
  -1  -2   9    4.62    1.24
   0   2  -9   25.26    2.14
   0   2  -9   25.44    1.10
   0  -2   9   25.77    1.12
   0  -2   9   27.59    2.06
   0  -2   9   26.70    1.29
   0  -2   9   30.71    2.58
  -1   2  -9   24.59    1.15
   1  -2   9   25.37    1.10
   1  -2   9   24.61    1.21
  -2   2  -9   15.55    0.98
   2  -2   9   17.01    1.11
   2  -2   9   14.98    0.86
  -3   2  -9    7.90    0.75
   3  -2   9    8.23    0.70
   3  -2   9    7.05    0.78
  -4   2  -9    4.33    0.72
   4  -2   9    3.82    0.77
   4  -2   9    3.85    0.67
   5  -2   9    1.73    0.75
   5  -2   9    1.05    0.62
   6  -2   9   -0.03    0.64
   6  -2   9   -0.38    0.74
   7  -2   9    3.92    0.94
   7  -2   9    3.94    0.80
 -11  -1   9   -0.13    0.93
 -11  -1   9    3.61    1.33
 -11  -1   9   -2.45    2.48
 -10  -1   9   20.09    1.84
 -10  -1   9   18.15    1.49
 -10  -1   9   13.79    2.79
   9   1  -9   12.03    0.72
  -9  -1   9    9.90    2.49
  -9  -1   9   12.42    1.19
  -9  -1   9   13.13    1.26
   8   1  -9    0.81    0.36
  -8  -1   9    0.09    0.90
  -8  -1   9    0.21    1.87
  -8  -1   9    1.83    0.93
   7   1  -9    3.32    0.42
  -7  -1   9    1.82    1.73
  -7  -1   9    1.09    0.95
  -7  -1   9    3.32    1.00
   6   1  -9    3.39    0.42
  -6  -1   9    3.65    1.05
  -6  -1   9    3.61    1.03
  -6  -1   9    3.74    1.66
   5   1  -9    0.19    0.32
  -5  -1   9   -0.36    1.38
  -5  -1   9    0.38    1.01
  -5  -1   9    0.78    0.96
   4   1  -9    3.27    0.43
  -4  -1   9    3.58    0.49
  -4  -1   9    2.82    1.13
  -4  -1   9    3.13    1.52
  -4  -1   9    3.19    0.48
  -4  -1   9    2.61    1.17
   3   1  -9    2.97    0.41
  -3  -1   9    3.41    1.42
  -3  -1   9    4.57    1.19
  -3  -1   9    3.87    0.50
  -3  -1   9    3.85    1.21
  -3  -1   9    3.03    0.59
   2   1  -9    3.14    0.44
  -2  -1   9    5.04    1.29
  -2  -1   9    3.96    0.61
  -2  -1   9    3.63    0.51
  -2  -1   9    2.34    1.22
  -2  -1   9    4.77    1.51
   1   1  -9    3.67    0.49
   1   1  -9    2.57    1.06
  -1  -1   9    2.98    1.50
  -1  -1   9    2.90    1.15
  -1  -1   9    2.98    1.20
  -1  -1   9    2.94    0.51
  -1  -1   9    3.47    0.64
   0   1  -9   10.51    0.72
   0  -1   9   11.10    1.56
   0  -1   9   11.32    1.56
   0  -1   9   11.56    0.81
   0  -1   9   12.68    1.00
  -1   1  -9   33.01    1.37
   1  -1   9   35.87    1.30
   1  -1   9   33.69    1.49
  -2   1  -9   19.29    1.01
   2  -1   9   20.59    1.02
   2  -1   9   20.73    1.18
  -3   1  -9    3.93    0.67
   3  -1   9    3.75    0.75
   3  -1   9    3.53    0.58
  -4   1  -9    8.46    0.83
   4  -1   9    6.24    0.86
   4  -1   9    6.04    0.72
   5  -1   9    1.72    0.78
   5  -1   9    1.38    0.59
   6  -1   9    0.79    0.67
   6  -1   9    1.13    0.83
 -11   0   9    2.48    1.06
 -11   0   9   -0.42    2.47
 -11   0   9    1.31    0.89
 -10   0   9    1.61    2.11
 -10   0   9    5.43    0.98
 -10   0   9    2.37    0.91
   9   0  -9   13.48    0.71
  -9   0   9   11.55    2.46
  -9   0   9   14.73    1.47
  -9   0   9   12.64    1.33
   8   0  -9    0.12    0.33
  -8   0   9   -0.24    0.83
  -8   0   9   -0.76    1.74
  -8   0   9   -0.35    0.84
   7   0  -9   16.74    0.79
  -7   0   9   20.25    2.70
  -7   0   9   17.98    1.53
  -7   0   9   18.16    1.52
   6   0  -9   58.13    1.86
  -6   0   9   60.07    2.70
  -6   0   9   59.35    2.64
  -6   0   9   56.31    4.25
   5   0  -9   20.98    0.92
  -5   0   9   22.32    2.65
  -5   0   9   22.02    1.70
  -5   0   9   22.00    1.80
   4   0  -9    3.19    0.43
  -4   0   9    4.77    0.49
  -4   0   9    4.09    1.35
  -4   0   9    4.06    0.54
  -4   0   9    4.69    1.11
  -4   0   9    3.59    1.09
   3   0  -9    3.25    0.42
  -3   0   9    3.22    0.58
  -3   0   9    3.89    1.29
  -3   0   9    2.87    1.21
  -3   0   9    4.31    1.16
  -3   0   9    3.93    0.50
   2   0  -9    0.11    0.35
  -2   0   9    0.38    1.10
  -2   0   9   -0.30    1.21
  -2   0   9    0.43    0.45
  -2   0   9    0.69    1.12
  -2   0   9    0.29    0.52
   1   0  -9   -0.47    0.40
  -1   0   9    1.51    1.32
  -1   0   9    0.49    0.47
  -1   0   9    0.68    1.05
  -1   0   9    0.72    0.53
  -1   0   9   -0.41    0.99
   0   0  -9    0.65    0.42
   0   0   9   -0.99    1.34
   0   0   9    1.23    1.02
   0   0   9    0.47    0.59
   0   0   9    1.09    0.46
  -1   0  -9    7.13    0.64
   1   0   9    8.28    0.82
   1   0   9    5.98    0.63
  -2   0  -9    0.88    0.54
   2   0   9    0.96    0.60
   2   0   9    0.30    0.52
  -3   0  -9    1.42    0.61
   3   0   9    2.04    0.54
   3   0   9    2.34    0.71
  -4   0  -9    2.87    0.69
   4   0   9    2.94    0.64
   4   0   9    2.68    0.78
   5   0   9   11.08    1.01
   5   0   9   10.44    0.87
   6   0   9    2.32    0.69
   6   0   9    2.91    0.89
 -11   1   9    9.78    1.09
 -11   1   9    8.51    1.01
 -11   1   9    7.43    2.65
 -10   1   9    4.64    0.94
 -10   1   9    6.52    0.95
 -10   1   9    5.43    2.29
   9  -1  -9    0.57    0.36
  -9   1   9    1.58    1.82
  -9   1   9    0.03    0.82
  -9   1   9    1.06    0.83
   8  -1  -9    6.57    0.50
  -8   1   9    5.24    1.82
  -8   1   9    7.09    0.96
  -8   1   9    6.20    1.00
   7  -1  -9    2.71    0.39
  -7   1   9    1.82    1.56
  -7   1   9    2.40    0.86
  -7   1   9    3.19    0.91
   6  -1  -9   14.57    0.72
  -6   1   9   11.03    1.84
  -6   1   9   14.57    1.43
  -6   1   9   15.62    1.47
   5  -1  -9   11.98    0.67
  -5   1   9   12.58    0.67
  -5   1   9   11.70    1.19
  -5   1   9   11.80    1.73
  -5   1   9   12.94    1.32
   4  -1  -9    1.63    0.39
  -4   1   9    1.59    1.21
  -4   1   9    0.80    0.45
  -4   1   9    1.45    1.10
  -4   1   9    0.85    0.41
  -4   1   9    1.12    0.93
   3  -1  -9   37.50    1.39
  -3   1   9   40.09    1.52
  -3   1   9   40.48    2.39
  -3   1   9   38.02    2.34
  -3   1   9   40.17    2.94
  -3   1   9   40.65    1.32
   2  -1  -9   70.33    2.32
  -2   1   9   73.51    2.11
  -2   1   9   73.43    3.45
  -2   1   9   73.35    3.31
  -2   1   9   74.02    4.25
  -2   1   9   75.26    2.43
   1  -1  -9   40.87    1.60
  -1   1   9   44.85    2.57
  -1   1   9   50.39    2.72
  -1   1   9   47.18    2.80
  -1   1   9   44.64    1.70
  -1   1   9   47.07    1.52
   0  -1  -9   22.25    1.09
   0   1   9   24.40    1.25
   0   1   9   24.28    1.71
   0   1   9   23.59    1.06
  -1  -1  -9   11.39    0.85
   1   1   9   12.30    0.93
   1   1   9   11.21    0.77
  -2  -1  -9    2.73    0.57
   2   1   9    2.28    0.54
   2   1   9    2.93    0.73
  -3  -1  -9    0.31    0.59
   3   1   9   -0.24    0.63
   3   1   9    0.22    0.56
  -4  -1  -9    7.74    0.85
   4   1   9    5.11    0.68
   4   1   9    6.12    0.89
   5   1   9    2.70    0.67
   5   1   9    2.18    0.86
   6   1   9    0.16    0.65
 -11   2   9    1.85    0.87
 -11   2   9    0.05    2.22
 -11   2   9   -1.02    0.90
 -10   2   9   14.61    2.79
 -10   2   9   14.69    1.42
 -10   2   9   17.45    1.36
   9  -2  -9   29.39    1.09
  -9   2   9   30.27    1.69
  -9   2   9   29.64    3.87
  -9   2   9   28.30    1.73
   8  -2  -9   53.16    1.70
  -8   2   9   52.33    2.41
  -8   2   9   54.41    2.48
  -8   2   9   49.77    4.22
   7  -2  -9   40.70    1.40
  -7   2   9   40.20    2.19
  -7   2   9   41.86    2.10
  -7   2   9   42.46    3.54
   6  -2  -9   20.79    0.90
  -6   2   9   22.81    2.61
  -6   2   9   24.47    1.74
  -6   2   9   22.01    1.59
   5  -2  -9    3.30    0.44
  -5   2   9    3.24    0.42
  -5   2   9    2.92    1.29
  -5   2   9    2.78    1.13
  -5   2   9    3.73    0.95
   4  -2  -9   16.25    0.82
  -4   2   9   18.31    1.74
  -4   2   9   16.32    1.61
  -4   2   9   17.17    0.88
  -4   2   9   17.70    2.08
  -4   2   9   16.54    0.84
   3  -2  -9   16.87    0.87
  -3   2   9   16.54    0.97
  -3   2   9   16.70    1.91
  -3   2   9   17.95    1.75
  -3   2   9   18.63    1.92
  -3   2   9   17.91    0.87
   2  -2  -9   48.34    1.73
  -2   2   9   49.97    1.84
  -2   2   9   49.68    1.59
  -2   2   9   50.69    2.69
  -2   2   9   50.65    3.02
  -2   2   9   51.49    2.81
   1  -2  -9   19.55    0.97
  -1   2   9   20.27    1.13
  -1   2   9   14.78    1.79
  -1   2   9   18.52    0.88
   0  -2  -9   12.70    0.87
   0   2   9   11.20    0.78
   0   2   9   12.39    0.94
  -1  -2  -9   20.21    1.10
   1   2   9   21.44    1.16
   1   2   9   20.66    0.98
  -2  -2  -9   23.42    1.12
   2   2   9   20.12    1.08
   2   2   9   20.49    1.28
  -3  -2  -9   13.76    1.05
   3   2   9   14.26    0.99
   3   2   9   13.80    1.09
  -4  -2  -9    7.23    0.87
   4   2   9    6.96    0.76
   4   2   9    7.11    0.96
   5   2   9    1.71    0.74
   5   2   9    1.91    0.91
 -11   3   9    0.16    1.04
 -11   3   9    3.35    0.88
 -11   3   9   -0.71    2.43
  10  -3  -9    1.92    0.42
 -10   3   9   -1.31    1.01
 -10   3   9    0.31    2.19
 -10   3   9    1.74    0.81
   9  -3  -9   24.25    0.97
  -9   3   9   22.87    1.52
  -9   3   9   19.97    2.74
  -9   3   9   21.50    1.68
   8  -3  -9    6.70    0.54
  -8   3   9    4.98    1.94
  -8   3   9    5.92    1.15
  -8   3   9    5.54    0.95
   7  -3  -9   13.20    0.73
  -7   3   9   13.25    1.22
  -7   3   9   11.79    1.36
  -7   3   9   10.56    2.01
   6  -3  -9   38.30    1.37
  -6   3   9   39.52    2.13
  -6   3   9   38.70    3.60
  -6   3   9   40.57    2.32
   5  -3  -9   46.24    1.63
  -5   3   9   49.19    3.58
  -5   3   9   50.97    2.41
  -5   3   9   46.05    2.60
   4  -3  -9   62.34    2.07
  -4   3   9   61.94    2.08
  -4   3   9   64.07    1.85
  -4   3   9   63.07    3.06
  -4   3   9   63.43    4.02
  -4   3   9   65.42    2.96
   3  -3  -9   39.28    1.48
  -3   3   9   38.78    2.52
  -3   3   9   38.61    1.53
  -3   3   9   42.21    1.36
  -3   3   9   43.21    2.35
  -3   3   9   37.76    2.72
   2  -3  -9    8.49    0.69
  -2   3   9   10.90    0.84
  -2   3   9   12.02    0.81
  -2   3   9    9.00    1.51
   1  -3  -9    4.76    0.61
  -1   3   9    5.38    0.75
  -1   3   9    5.86    0.61
   0  -3  -9    0.85    0.53
   0   3   9    0.58    0.66
   0   3   9    1.21    0.51
  -1  -3  -9   20.22    1.13
   1   3   9   19.81    1.18
   1   3   9   20.89    1.01
  -2  -3  -9   33.22    1.42
   2   3   9   31.88    1.34
   2   3   9   31.21    1.57
  -3  -3  -9   11.77    0.96
   3   3   9   10.09    0.83
   3   3   9   12.58    1.05
   4   3   9    5.82    0.93
   4   3   9    5.64    0.77
 -11   4   9    8.88    1.04
 -11   4   9    6.26    1.25
  10  -4  -9    3.59    0.48
 -10   4   9    3.19    0.88
 -10   4   9    2.43    1.21
   9  -4  -9    3.73    0.50
  -9   4   9    3.43    0.92
  -9   4   9    2.92    1.16
   8  -4  -9    0.71    0.43
  -8   4   9    0.71    1.77
  -8   4   9    0.45    1.11
  -8   4   9    1.24    0.87
   7  -4  -9    0.12    0.41
  -7   4   9   -0.99    1.63
  -7   4   9    0.29    0.87
  -7   4   9   -1.33    1.21
   6  -4  -9   18.29    0.90
  -6   4   9   21.37    2.00
  -6   4   9   18.93    1.57
   5  -4  -9   45.44    1.66
  -5   4   9   46.02    2.45
  -5   4   9   51.36    2.66
   4  -4  -9   21.20    1.02
  -4   4   9   22.97    1.00
  -4   4   9   20.61    1.07
  -4   4   9   19.68    2.02
  -4   4   9   24.09    1.84
   3  -4  -9   15.53    0.86
  -3   4   9   15.24    0.88
  -3   4   9   17.16    1.09
  -3   4   9   14.47    1.59
   2  -4  -9    8.24    0.69
  -2   4   9    8.07    0.81
  -2   4   9    8.11    0.67
   1  -4  -9    7.38    0.70
  -1   4   9    8.00    0.71
  -1   4   9    7.77    0.85
   0  -4  -9    4.35    0.63
   0   4   9    4.52    0.76
   0   4   9    5.51    0.68
  -1  -4  -9   -0.11    0.60
   1   4   9   -0.93    0.71
   1   4   9    0.12    0.58
  -2  -4  -9   -0.01    0.57
   2   4   9   -0.19    0.62
   2   4   9   -0.63    0.76
  -3  -4  -9    1.33    0.70
   3   4   9    0.90    0.85
   3   4   9    1.25    0.70
   4   4   9   -1.09    0.79
   4   4   9   -0.39    0.66
 -11   5   9    8.79    1.10
  10  -5  -9    8.66    0.66
 -10   5   9    7.85    1.05
 -10   5   9    5.58    1.38
   9  -5  -9    1.07    0.45
  -9   5   9    0.74    0.90
  -9   5   9   -0.23    1.21
   8  -5  -9    0.31    0.45
  -8   5   9    0.43    0.89
  -8   5   9   -0.40    1.19
   7  -5  -9    3.88    0.56
  -7   5   9    2.08    1.23
  -7   5   9    5.67    1.08
   6  -5  -9    1.36    0.48
  -6   5   9    0.15    1.33
  -6   5   9    1.96    1.04
   5  -5  -9    9.10    0.75
  -5   5   9   10.28    1.54
  -5   5   9    8.91    1.29
   4  -5  -9    0.11    0.47
  -4   5   9   -0.08    0.54
  -4   5   9   -0.39    0.49
  -4   5   9    0.21    1.42
   3  -5  -9    0.73    0.47
  -3   5   9    1.02    0.64
  -3   5   9   -0.58    1.46
  -3   5   9    0.12    0.50
   2  -5  -9   14.48    0.97
  -2   5   9   15.34    0.96
  -2   5   9   15.32    1.11
   1  -5  -9   21.77    1.19
  -1   5   9   24.41    1.15
  -1   5   9   23.17    1.34
   0  -5  -9   11.92    0.92
   0   5   9   13.37    0.90
   0   5   9   12.27    1.01
  -1  -5  -9    5.24    0.77
   1   5   9    7.43    0.78
   1   5   9    5.30    0.87
  -2  -5  -9    1.68    0.71
   2   5   9    1.61    0.86
   2   5   9    1.70    0.70
  -3  -5  -9    2.52    0.83
   3   5   9    1.02    0.91
   3   5   9    0.31    0.67
  10  -6  -9    5.10    0.61
 -10   6   9    4.60    1.09
 -10   6   9    3.46    1.44
   9  -6  -9   17.44    0.98
  -9   6   9   17.89    1.60
  -9   6   9   14.57    1.74
   8  -6  -9   16.43    0.95
  -8   6   9   17.27    1.65
  -8   6   9   12.72    1.62
   7  -6  -9   15.93    0.93
  -7   6   9   16.38    1.63
  -7   6   9   15.93    1.67
   6  -6  -9    6.08    0.65
  -6   6   9    5.28    1.46
   5  -6  -9    0.42    0.46
  -5   6   9    0.04    1.43
   4  -6  -9    1.01    0.50
  -4   6   9    1.64    1.54
  -4   6   9    0.84    0.55
   3  -6  -9    0.10    0.53
  -3   6   9   -0.16    0.56
  -3   6   9   -0.79    0.64
   2  -6  -9    7.46    0.79
  -2   6   9    9.21    0.78
  -2   6   9    9.65    0.97
   1  -6  -9    6.16    0.77
  -1   6   9    6.24    0.84
  -1   6   9    5.43    0.72
   0  -6  -9   -0.34    0.57
   0   6   9   -0.84    0.61
   0   6   9   -0.12    0.72
  -1  -6  -9   -0.78    0.64
   1   6   9    0.60    0.84
   1   6   9    0.49    0.67
  -2  -6  -9    1.92    0.78
   2   6   9    2.68    0.78
   2   6   9    1.13    0.91
  10  -7  -9    1.88    0.57
 -10   7   9    1.00    1.51
 -10   7   9    3.44    1.08
   9  -7  -9    4.09    0.63
  -9   7   9    4.55    1.60
  -9   7   9    5.06    1.17
   8  -7  -9    7.29    0.73
  -8   7   9    6.21    1.60
   7  -7  -9    2.15    0.58
  -7   7   9    2.79    1.54
   6  -7  -9    6.67    0.72
  -6   7   9    6.50    1.59
   5  -7  -9    7.80    0.78
  -5   7   9   10.34    1.72
   4  -7  -9   17.41    1.06
   3  -7  -9   16.80    1.09
  -3   7   9   17.03    1.05
  -3   7   9   15.57    1.14
   2  -7  -9    8.67    0.84
  -2   7   9    9.67    0.99
  -2   7   9    9.28    0.82
   1  -7  -9    1.27    0.64
  -1   7   9    2.09    0.85
  -1   7   9    0.66    0.66
   0  -7  -9    2.93    0.76
   0   7   9    1.98    0.73
   0   7   9    1.86    0.83
  -1  -7  -9   -0.16    0.71
   1   7   9   -0.19    0.72
   1   7   9   -0.13    0.89
   9  -8  -9    5.39    0.73
  -9   8   9    5.06    1.69
   8  -8  -9    1.00    0.58
  -8   8   9    2.61    1.60
   7  -8  -9    4.00    0.68
  -7   8   9    3.16    1.74
   6  -8  -9   -0.04    0.57
   5  -8  -9    8.30    0.85
   4  -8  -9    9.60    0.88
   3  -8  -9    8.75    0.88
  -3   8   9    7.37    0.80
   2  -8  -9    2.57    0.74
  -2   8   9    2.95    0.72
  -2   8   9    2.20    0.88
   1  -8  -9    4.70    0.79
  -1   8   9    3.49    0.93
  -1   8   9    3.71    0.79
   0  -8  -9    5.25    0.89
   0   8   9    5.63    0.85
   0   8   9    5.15    1.04
   8  -9  -9    3.95    0.72
   7  -9  -9    9.82    0.92
   6  -9  -9    7.52    0.86
   4  -9  -9    0.53    0.68
   3  -9  -9    1.40    0.69
   2  -9  -9   -0.22    0.73
  -2   9   9   -0.71    0.72
   0  13 -10    7.65    0.97
   0 -13  10    7.31    1.09
  -1  13 -10    2.15    0.80
   1 -13  10    0.31    0.83
   3  12 -10    0.59    0.75
   2  12 -10    0.56    0.72
   1  12 -10    0.46    0.66
  -1 -12  10    0.05    0.82
   0  12 -10    0.80    0.67
   0 -12  10    0.04    0.83
  -1  12 -10    1.41    0.74
   1 -12  10    0.21    0.78
  -2  12 -10    0.90    0.73
   2 -12  10    0.22    0.82
  -3  12 -10    9.72    0.98
   3 -12  10    7.20    1.10
   4 -12  10    2.16    0.96
   4  11 -10    6.53    0.87
  -4 -11  10    5.34    2.21
   3  11 -10    0.86    0.64
   2  11 -10    1.34    0.68
   1  11 -10    3.49    0.76
  -1 -11  10    3.74    0.89
   0  11 -10    1.18    0.64
   0 -11  10    1.03    0.81
  -1  11 -10    0.89    0.67
   1 -11  10   -0.11    0.77
  -2  11 -10    2.58    0.72
   2 -11  10    2.81    0.89
  -3  11 -10    0.75    0.71
   3 -11  10    0.50    0.84
  -4  11 -10    1.84    0.78
   4 -11  10    0.12    0.84
   5 -11  10    1.20    0.91
   6  10 -10    1.10    0.70
  -6 -10  10    0.09    2.12
   5  10 -10   -0.14    0.65
  -5 -10  10   -0.09    2.00
   4  10 -10    7.15    0.83
  -4 -10  10    3.37    1.97
   3  10 -10   13.31    1.05
   2  10 -10    5.61    0.77
  -2 -10  10    5.38    0.88
   1  10 -10   19.91    1.13
  -1 -10  10   19.63    1.35
   0  10 -10   33.32    1.54
   0 -10  10   35.71    1.70
  -1  10 -10    7.72    0.83
   1 -10  10    7.79    0.95
  -2  10 -10    6.09    0.79
   2 -10  10    3.88    0.84
  -3  10 -10    7.79    0.86
   3 -10  10    5.93    1.03
  -4  10 -10    0.22    0.69
   4 -10  10    0.69    0.77
   4 -10  10   -0.22    0.87
   5 -10  10    0.80    0.96
   5 -10  10    0.34    0.76
   7   9 -10   21.80    1.28
   6   9 -10    9.62    0.89
  -6  -9  10    1.86    2.21
   5   9 -10    6.54    0.74
  -5  -9  10    2.49    2.11
   4   9 -10    3.18    0.68
  -4  -9  10   -0.22    1.77
   2   9 -10    4.66    0.68
  -2  -9  10    4.82    0.85
   1   9 -10   16.22    1.09
  -1  -9  10   17.93    1.25
   0   9 -10   47.97    1.87
   0  -9  10   52.29    2.09
  -1   9 -10   27.72    1.30
   1  -9  10   26.16    1.53
  -2   9 -10   17.75    1.14
   2  -9  10   15.50    1.26
   2  -9  10   16.51    1.07
  -3   9 -10   34.92    1.56
   3  -9  10   33.46    1.49
   3  -9  10   34.49    1.79
  -4   9 -10   22.25    1.26
   4  -9  10   17.91    1.23
   4  -9  10   19.78    1.52
   5  -9  10    4.69    0.91
   5  -9  10    3.53    0.97
   6  -9  10    6.10    1.15
   6  -9  10    4.33    0.96
   7   8 -10   17.94    1.17
  -7  -8  10   16.67    1.86
   6   8 -10   14.99    1.02
  -6  -8  10   14.63    1.70
   5   8 -10   11.18    0.93
  -5  -8  10   11.78    1.56
   4   8 -10   43.98    1.75
  -4  -8  10   48.37    2.77
   3   8 -10   29.59    1.38
  -3  -8  10   31.75    1.51
  -3  -8  10   32.60    2.37
   2   8 -10    9.77    0.81
  -2  -8  10   10.03    0.96
   1   8 -10    9.03    0.81
  -1  -8  10    8.66    0.92
   0   8 -10   -0.32    0.56
   0  -8  10   -0.62    0.68
  -1   8 -10    7.18    0.75
   1  -8  10    7.69    0.97
   1  -8  10    8.65    0.85
  -2   8 -10   14.67    1.05
   2  -8  10   11.54    1.11
   2  -8  10   12.92    1.00
  -3   8 -10   43.11    1.75
   3  -8  10   40.99    1.91
   3  -8  10   42.42    1.72
  -4   8 -10   55.58    2.04
   4  -8  10   48.93    2.26
   4  -8  10   52.34    1.99
   5  -8  10   10.09    0.98
   5  -8  10   10.74    1.22
   6  -8  10    8.77    1.20
   6  -8  10    7.99    0.99
   8   7 -10    1.59    0.63
  -8  -7  10   -0.39    2.17
  -8  -7  10    0.50    1.28
   7   7 -10    2.15    0.63
  -7  -7  10    1.78    1.32
  -7  -7  10    0.88    2.30
   6   7 -10    4.65    0.67
  -6  -7  10    0.97    2.04
  -6  -7  10    2.99    1.23
   5   7 -10    1.12    0.53
  -5  -7  10    0.07    1.97
  -5  -7  10    1.85    1.19
   4   7 -10   19.26    1.06
  -4  -7  10   18.99    1.95
   3   7 -10   38.18    1.57
  -3  -7  10   41.08    1.66
  -3  -7  10   38.37    2.49
   2   7 -10    3.05    0.57
  -2  -7  10    4.38    0.72
  -2  -7  10    4.23    1.32
   1   7 -10   13.04    0.88
  -1  -7  10   13.92    1.09
   0   7 -10   16.67    1.05
   0  -7  10   16.65    1.24
   0  -7  10   17.85    1.03
  -1   7 -10    1.42    0.61
   1  -7  10    1.93    0.68
   1  -7  10    1.58    0.75
  -2   7 -10    1.45    0.63
   2  -7  10    0.47    0.61
   2  -7  10    1.02    0.79
  -3   7 -10    1.25    0.63
   3  -7  10    2.34    0.86
   3  -7  10    0.57    0.68
  -4   7 -10    1.47    0.66
   4  -7  10    1.35    0.83
   4  -7  10    0.18    0.69
   5  -7  10    0.16    0.86
   5  -7  10    0.40    0.74
   6  -7  10    1.17    0.94
   6  -7  10    2.25    0.76
   9   6 -10    1.06    0.59
  -9  -6  10   -0.76    2.33
  -9  -6  10   -0.18    1.19
   8   6 -10    0.77    0.56
  -8  -6  10    0.57    1.21
  -8  -6  10   -0.45    2.13
   7   6 -10    2.23    0.58
  -7  -6  10    1.13    1.18
  -7  -6  10   -0.06    1.99
  -7  -6  10   -2.23    1.70
   6   6 -10    1.25    0.52
  -6  -6  10    1.54    1.72
  -6  -6  10    0.60    1.11
  -6  -6  10    0.51    1.89
   5   6 -10    0.36    0.47
  -5  -6  10   -0.75    1.74
  -5  -6  10   -0.25    1.10
  -5  -6  10    0.68    1.55
   4   6 -10    0.27    0.47
  -4  -6  10    1.38    1.58
  -4  -6  10    0.66    1.14
  -4  -6  10    0.26    1.86
   3   6 -10    6.75    0.66
   3   6 -10    6.85    0.67
  -3  -6  10    6.88    1.35
  -3  -6  10    7.56    0.75
  -3  -6  10    4.61    2.12
   2   6 -10    0.02    0.48
   2   6 -10   -0.11    0.47
  -2  -6  10   -0.38    0.55
  -2  -6  10   -1.74    1.12
   1   6 -10    1.56    0.50
   1   6 -10    0.78    0.48
  -1  -6  10    0.85    0.57
  -1  -6  10    1.09    0.61
  -1  -6  10   -0.22    1.20
   0   6 -10   22.26    1.10
   0   6 -10   23.33    1.12
   0  -6  10   24.09    1.23
   0  -6  10   24.98    1.37
  -1   6 -10   10.01    0.81
  -1   6 -10    9.68    0.83
   1  -6  10   12.41    0.90
   1  -6  10   10.00    0.96
  -2   6 -10    2.89    0.64
   2  -6  10    3.22    0.80
   2  -6  10    3.41    0.68
  -3   6 -10    6.93    0.79
   3  -6  10    5.94    0.87
   3  -6  10    5.22    0.72
  -4   6 -10    4.20    0.75
   4  -6  10    3.25    0.75
   4  -6  10    2.79    0.86
   5  -6  10   -0.24    0.74
   5  -6  10   -1.11    0.67
   6  -6  10   -0.19    0.87
   6  -6  10   -0.14    0.74
   9   5 -10    3.17    0.61
  -9  -5  10    1.57    1.22
  -9  -5  10    2.16    2.60
   8   5 -10    2.17    0.54
  -8  -5  10   -0.12    2.12
  -8  -5  10    0.91    1.11
  -8  -5  10    0.69    1.65
   7   5 -10   17.35    0.97
  -7  -5  10   20.24    2.06
  -7  -5  10   13.53    2.74
  -7  -5  10   17.35    1.78
   6   5 -10   12.27    0.86
   6   5 -10   11.14    0.84
  -6  -5  10    9.17    2.51
  -6  -5  10   13.90    1.85
  -6  -5  10   11.36    1.43
   5   5 -10    0.68    0.48
   5   5 -10    0.22    0.46
  -5  -5  10    1.28    1.54
  -5  -5  10   -0.63    1.05
  -5  -5  10   -0.57    1.73
   4   5 -10    3.43    0.55
   4   5 -10    2.68    0.54
  -4  -5  10    3.10    1.50
  -4  -5  10    1.79    2.03
  -4  -5  10    1.91    1.14
   3   5 -10    1.18    0.49
  -3  -5  10    2.06    0.58
  -3  -5  10    0.58    1.44
  -3  -5  10   -0.83    1.72
  -3  -5  10   -0.46    1.11
   2   5 -10    0.07    0.47
  -2  -5  10    0.49    0.53
  -2  -5  10   -0.33    1.06
  -2  -5  10    1.32    0.61
   1   5 -10   -0.08    0.44
  -1  -5  10   -0.15    0.53
  -1  -5  10    1.15    0.58
  -1  -5  10   -1.77    1.18
   0   5 -10    5.87    0.68
   0  -5  10    7.15    0.69
   0  -5  10    6.97    0.82
  -1   5 -10    4.27    0.66
  -1   5 -10    3.42    0.59
   1  -5  10    3.49    0.78
   1  -5  10    4.20    0.66
  -2   5 -10    5.71    0.71
  -2   5 -10    4.93    0.70
   2  -5  10    5.61    0.84
   2  -5  10    5.11    0.69
  -3   5 -10    2.26    0.61
  -3   5 -10    1.75    0.60
   3  -5  10    0.92    0.59
   3  -5  10    1.80    0.71
  -4   5 -10   12.08    0.96
   4  -5  10   10.63    0.86
   4  -5  10   10.37    1.05
   5  -5  10    3.78    0.72
   5  -5  10    3.02    0.83
   6  -5  10    3.10    0.80
   6  -5  10    3.40    0.95
  10   4 -10    0.87    0.54
 -10  -4  10   -6.43    1.74
   9   4 -10    0.34    0.51
  -9  -4  10    0.14    1.10
  -9  -4  10   -0.19    1.61
  -9  -4  10   -1.29    2.19
   8   4 -10    1.07    0.48
  -8  -4  10    2.57    1.53
  -8  -4  10    1.55    1.07
  -8  -4  10    1.73    2.10
   7   4 -10   12.32    0.85
   7   4 -10   11.86    0.83
  -7  -4  10    8.96    2.40
  -7  -4  10   12.45    1.40
  -7  -4  10   12.68    1.70
   6   4 -10   25.17    1.14
  -6  -4  10   26.58    1.97
  -6  -4  10   18.78    3.02
  -6  -4  10   31.05    2.58
   5   4 -10    5.48    0.59
  -5  -4  10    4.98    1.17
  -5  -4  10    4.29    2.02
  -5  -4  10    5.04    1.42
   4   4 -10   28.10    1.15
  -4  -4  10   24.87    1.16
  -4  -4  10   31.25    2.48
  -4  -4  10   27.70    2.00
  -4  -4  10   24.05    3.52
   3   4 -10   69.29    2.33
  -3  -4  10   75.04    2.43
  -3  -4  10   75.73    3.40
  -3  -4  10   81.39    3.78
  -3  -4  10   65.33    5.24
   2   4 -10   22.63    1.08
  -2  -4  10   24.41    2.07
  -2  -4  10   22.81    1.23
  -2  -4  10   23.60    1.14
  -2  -4  10   26.35    2.51
   1   4 -10   22.92    1.10
  -1  -4  10   24.17    1.14
  -1  -4  10   23.14    2.12
  -1  -4  10   25.06    1.31
   0   4 -10   21.79    1.10
   0  -4  10   20.21    1.02
   0  -4  10   22.11    1.28
  -1   4 -10    0.36    0.48
   1  -4  10   -0.21    0.50
   1  -4  10    0.76    0.67
  -2   4 -10    0.38    0.58
   2  -4  10    0.26    0.62
   2  -4  10   -0.33    0.54
  -3   4 -10    4.00    0.71
  -3   4 -10    5.08    0.74
   3  -4  10    3.16    0.74
   3  -4  10    3.70    0.65
  -4   4 -10   20.98    1.24
  -4   4 -10   21.04    1.23
   4  -4  10   17.64    1.31
   4  -4  10   17.96    1.14
   5  -4  10    6.91    0.84
   5  -4  10    6.74    0.98
   6  -4  10    0.19    0.86
   6  -4  10    0.96    0.73
  10   3 -10   17.43    0.95
 -10  -3  10   11.27    3.05
 -10  -3  10   16.84    1.99
 -10  -3  10   17.56    1.74
   9   3 -10   14.42    0.86
   9   3 -10   13.93    0.87
  -9  -3  10   12.40    1.43
  -9  -3  10   15.21    1.75
  -9  -3  10    9.39    2.81
   8   3 -10   19.99    1.02
  -8  -3  10   23.80    2.21
  -8  -3  10   15.90    2.97
  -8  -3  10   21.61    1.80
   7   3 -10   11.77    0.79
  -7  -3  10    9.84    2.32
  -7  -3  10   12.02    1.54
  -7  -3  10   11.44    1.34
   6   3 -10    0.54    0.44
  -6  -3  10    0.35    1.24
  -6  -3  10    0.31    1.02
  -6  -3  10    1.29    1.90
   5   3 -10    0.27    0.43
  -5  -3  10   -0.02    1.03
  -5  -3  10   -0.47    1.16
  -5  -3  10   -0.63    1.68
   4   3 -10    5.47    0.56
  -4  -3  10    5.42    1.91
  -4  -3  10    7.01    1.37
  -4  -3  10    5.94    1.21
  -4  -3  10    5.87    0.59
   3   3 -10  106.69    3.40
  -3  -3  10  108.87    7.13
  -3  -3  10  113.67    4.67
  -3  -3  10  114.09    3.52
  -3  -3  10  114.92    3.12
  -3  -3  10  117.04    4.89
   2   3 -10   73.70    2.48
  -2  -3  10   79.26    2.63
  -2  -3  10   74.08    5.53
  -2  -3  10   78.16    3.57
  -2  -3  10   78.23    2.29
  -2  -3  10   82.23    3.88
   1   3 -10   35.24    1.38
  -1  -3  10   36.76    1.58
  -1  -3  10   37.27    1.37
  -1  -3  10   34.11    2.39
   0   3 -10   48.43    1.82
   0  -3  10   53.53    1.98
   0  -3  10   51.72    1.71
  -1   3 -10   36.16    1.47
   1  -3  10   38.57    1.65
   1  -3  10   38.14    1.44
  -2   3 -10   13.63    0.98
   2  -3  10   13.73    1.04
   2  -3  10   13.77    0.89
  -3   3 -10   10.63    0.88
   3  -3  10    8.52    0.80
   3  -3  10   10.67    1.00
  -4   3 -10    1.34    0.70
  -4   3 -10    1.63    0.70
   4  -3  10    0.74    0.76
   4  -3  10    0.59    0.59
   5  -3  10   -0.36    0.77
   5  -3  10    0.19    0.67
   6  -3  10   -0.26    0.83
   6  -3  10   -0.61    0.69
 -10  -2  10   16.56    1.77
 -10  -2  10   14.27    1.44
 -10  -2  10   11.08    3.00
   9   2 -10   15.06    0.84
  -9  -2  10   11.70    2.83
  -9  -2  10   12.31    1.36
  -9  -2  10   15.71    1.58
   8   2 -10   13.29    0.77
  -8  -2  10   12.56    1.46
  -8  -2  10   10.90    2.38
  -8  -2  10   11.01    1.33
   7   2 -10   31.70    1.28
  -7  -2  10   34.53    2.08
  -7  -2  10   34.98    3.96
  -7  -2  10   34.93    2.37
   6   2 -10   31.49    1.22
  -6  -2  10   31.63    2.26
  -6  -2  10   30.98    2.06
  -6  -2  10   29.98    3.46
   5   2 -10   36.86    1.40
  -5  -2  10   38.37    3.68
  -5  -2  10   39.68    2.38
  -5  -2  10   39.29    2.31
   4   2 -10   39.06    1.47
  -4  -2  10   39.58    1.48
  -4  -2  10   42.35    2.57
  -4  -2  10   43.39    1.40
  -4  -2  10   42.06    3.65
  -4  -2  10   42.38    2.42
   3   2 -10    0.39    0.43
  -3  -2  10    0.35    1.13
  -3  -2  10    0.52    0.56
  -3  -2  10    0.47    1.48
  -3  -2  10    0.08    0.51
  -3  -2  10    1.23    1.18
   2   2 -10   -0.68    0.41
  -2  -2  10    0.42    0.48
  -2  -2  10    0.37    1.18
  -2  -2  10    0.02    0.56
  -2  -2  10    0.00    1.44
  -2  -2  10   -0.39    1.16
   1   2 -10   -0.20    0.44
  -1  -2  10   -1.36    1.23
  -1  -2  10   -0.10    0.49
  -1  -2  10   -0.36    0.57
   0   2 -10   38.20    1.51
   0  -2  10   43.67    1.49
   0  -2  10   40.83    1.69
  -1   2 -10  103.59    3.32
   1  -2  10  105.64    2.95
   1  -2  10  107.59    3.43
  -2   2 -10   38.12    1.57
   2  -2  10   38.58    1.69
   2  -2  10   36.64    1.44
  -3   2 -10   28.87    1.37
   3  -2  10   26.85    1.46
   3  -2  10   27.17    1.20
  -4   2 -10   22.73    1.28
   4  -2  10   18.93    1.06
   4  -2  10   17.19    1.30
   5  -2  10    2.80    0.83
   5  -2  10    3.97    0.72
   6  -2  10    0.07    0.73
   6  -2  10    1.19    0.89
 -10  -1  10    0.62    2.25
 -10  -1  10    4.31    1.23
 -10  -1  10    2.00    1.08
   9   1 -10    8.41    0.62
  -9  -1  10    4.68    2.33
  -9  -1  10    7.76    1.20
  -9  -1  10    9.76    1.25
   8   1 -10    0.54    0.39
  -8  -1  10    0.73    1.81
  -8  -1  10   -1.07    0.99
  -8  -1  10    1.40    1.08
   7   1 -10   14.87    0.80
  -7  -1  10   14.64    1.39
  -7  -1  10   16.80    1.72
  -7  -1  10   13.05    2.25
   6   1 -10   46.00    1.60
  -6  -1  10   47.12    2.60
  -6  -1  10   45.38    3.98
  -6  -1  10   47.44    2.41
   5   1 -10   18.77    0.92
  -5  -1  10   19.79    1.82
  -5  -1  10   19.73    2.64
  -5  -1  10   20.06    2.03
   4   1 -10   19.60    0.92
  -4  -1  10   20.05    2.62
  -4  -1  10   20.46    1.78
  -4  -1  10   18.60    1.00
  -4  -1  10   22.04    2.18
  -4  -1  10   21.07    0.97
   3   1 -10   14.70    0.80
  -3  -1  10   17.77    0.90
  -3  -1  10   16.55    2.49
  -3  -1  10   15.30    1.56
  -3  -1  10   15.33    1.03
  -3  -1  10   18.03    1.62
   2   1 -10    2.37    0.46
  -2  -1  10    4.79    1.27
  -2  -1  10    2.61    0.53
  -2  -1  10    2.36    1.34
  -2  -1  10    4.23    1.33
   1   1 -10    2.79    0.50
  -1  -1  10    1.11    1.29
  -1  -1  10    1.59    0.64
  -1  -1  10    3.56    1.41
  -1  -1  10    3.31    0.55
   0   1 -10   -0.21    0.45
   0  -1  10    0.13    0.63
   0  -1  10    0.30    0.49
  -1   1 -10    8.32    0.76
   1  -1  10    8.46    0.75
   1  -1  10    7.73    0.87
  -2   1 -10    0.65    0.58
   2  -1  10   -0.65    0.61
   2  -1  10    0.17    0.53
  -3   1 -10   -0.65    0.60
   3  -1  10   -0.20    0.65
   3  -1  10    0.45    0.56
  -4   1 -10    8.72    0.91
   4  -1  10    8.88    1.01
   4  -1  10    9.11    0.85
   5  -1  10    7.97    1.05
   5  -1  10    9.58    0.91
 -10   0  10   -1.02    1.00
 -10   0  10   -1.60    2.23
 -10   0  10    2.05    1.05
   9   0 -10    1.56    0.44
  -9   0  10    0.77    1.00
  -9   0  10    0.88    1.01
  -9   0  10    0.09    2.04
   8   0 -10    0.87    0.41
  -8   0  10   -0.59    0.98
  -8   0  10    0.52    0.97
  -8   0  10   -0.15    1.80
   7   0 -10    0.55    0.39
  -7   0  10    0.30    1.54
  -7   0  10   -0.16    1.05
  -7   0  10    1.43    0.98
   6   0 -10   30.48    1.19
  -6   0  10   31.38    3.17
  -6   0  10   30.76    2.02
  -6   0  10   31.34    2.04
   5   0 -10    3.11    0.47
  -5   0  10    3.51    1.45
  -5   0  10    2.18    1.01
  -5   0  10    1.81    1.13
   4   0 -10    0.25    0.39
  -4   0  10   -0.89    1.09
  -4   0  10    0.84    1.18
  -4   0  10    1.15    1.03
  -4   0  10    0.09    0.47
  -4   0  10    0.27    0.43
   3   0 -10   12.89    0.80
  -3   0  10   14.02    1.52
  -3   0  10   13.39    1.48
  -3   0  10   14.65    0.91
  -3   0  10   15.75    0.96
  -3   0  10   13.78    2.09
   2   0 -10   22.74    1.06
  -2   0  10   22.92    1.05
  -2   0  10   23.24    2.22
  -2   0  10   23.39    1.20
  -2   0  10   21.81    1.89
  -2   0  10   23.84    2.11
   1   0 -10   12.76    0.83
  -1   0  10   12.26    1.01
  -1   0  10    8.70    1.53
  -1   0  10   12.03    0.86
  -1   0  10   13.77    1.83
   0   0 -10   17.61    1.01
   0   0  10   18.13    1.01
   0   0  10   17.24    1.17
   0   0  10   20.40    2.07
  -1   0 -10    1.17    0.56
   1   0  10    2.00    0.66
   1   0  10    1.19    0.54
  -2   0 -10    1.15    0.61
   2   0  10    1.88    0.74
   2   0  10    1.33    0.60
  -3   0 -10    0.43    0.59
   3   0  10   -0.47    0.53
   3   0  10    0.07    0.69
  -4   0 -10    2.30    0.78
   4   0  10    1.33    0.81
   4   0  10    1.79    0.69
   5   0  10    5.30    0.82
   5   0  10    5.04    0.97
 -11   1  10   -1.62    2.40
 -11   1  10   -0.55    0.97
 -11   1  10    2.79    1.04
 -10   1  10    9.85    1.22
 -10   1  10   14.56    1.50
 -10   1  10    9.81    2.79
   9  -1 -10   13.08    0.76
  -9   1  10   12.27    1.25
  -9   1  10   11.63    1.25
  -9   1  10    9.45    2.40
   8  -1 -10    6.95    0.56
  -8   1  10    4.40    1.95
  -8   1  10    6.81    1.16
  -8   1  10    7.01    1.08
   7  -1 -10    9.77    0.67
  -7   1  10    9.78    1.21
  -7   1  10    7.51    1.88
  -7   1  10    7.95    1.28
   6  -1 -10    2.45    0.45
  -6   1  10    4.16    1.00
  -6   1  10    3.75    1.19
  -6   1  10    0.87    1.44
   5  -1 -10    0.54    0.41
  -5   1  10   -0.19    0.93
  -5   1  10    0.20    1.16
  -5   1  10    0.01    1.25
   4  -1 -10   -0.17    0.39
  -4   1  10   -0.47    1.13
  -4   1  10   -0.33    0.43
  -4   1  10   -0.50    0.96
  -4   1  10   -0.31    0.48
  -4   1  10   -0.34    1.12
   3  -1 -10   15.06    0.83
  -3   1  10   17.37    0.89
  -3   1  10   19.68    1.90
  -3   1  10   13.77    2.01
  -3   1  10   17.26    1.05
  -3   1  10   15.79    1.61
   2  -1 -10   30.89    1.25
  -2   1  10   32.15    1.23
  -2   1  10   30.68    2.36
  -2   1  10   32.60    1.43
  -2   1  10   32.67    2.39
   1  -1 -10    2.37    0.54
  -1   1  10    2.55    0.68
  -1   1  10    2.55    0.57
   0  -1 -10   -0.13    0.47
   0   1  10    0.18    0.50
   0   1  10   -0.41    0.64
  -1  -1 -10    5.22    0.70
   1   1  10    5.22    0.82
   1   1  10    4.48    0.67
  -2  -1 -10    2.07    0.65
   2   1  10    1.15    0.75
   2   1  10    0.82    0.62
  -3  -1 -10    4.29    0.75
   3   1  10    3.38    0.65
   3   1  10    2.89    0.78
   4   1  10    0.38    0.67
   4   1  10    0.88    0.78
   5   1  10    1.21    0.85
   5   1  10    1.39    0.75
 -11   2  10    2.96    1.00
 -11   2  10   -1.02    2.28
 -11   2  10   -1.60    1.04
  10  -2 -10    3.53    0.49
 -10   2  10    2.85    1.01
 -10   2  10    1.52    1.12
 -10   2  10    0.75    2.36
   9  -2 -10   17.95    0.86
  -9   2  10   16.22    2.75
  -9   2  10   18.38    1.52
  -9   2  10   15.74    1.66
   8  -2 -10    9.57    0.70
  -8   2  10    8.69    1.29
  -8   2  10    8.85    1.13
  -8   2  10    7.46    2.15
   7  -2 -10   17.41    0.86
  -7   2  10   20.26    1.64
  -7   2  10   13.34    2.13
  -7   2  10   16.60    1.71
   6  -2 -10   19.49    0.92
  -6   2  10   17.70    1.85
  -6   2  10   19.03    1.75
  -6   2  10   19.29    2.73
   5  -2 -10   18.03    0.88
  -5   2  10   17.10    1.80
  -5   2  10   16.63    2.43
  -5   2  10   18.68    1.71
   4  -2 -10   33.82    1.34
  -4   2  10   34.84    2.78
  -4   2  10   36.01    1.28
  -4   2  10   37.61    2.22
  -4   2  10   34.99    1.42
  -4   2  10   37.10    2.37
   3  -2 -10   13.35    0.79
  -3   2  10   16.30    1.05
  -3   2  10   14.49    0.87
  -3   2  10   12.66    1.61
  -3   2  10   12.06    1.46
   2  -2 -10   -0.10    0.46
  -2   2  10   -0.01    0.64
  -2   2  10   -0.38    0.50
  -2   2  10   -1.02    1.25
   1  -2 -10    2.16    0.56
  -1   2  10    1.97    0.69
  -1   2  10    2.82    0.60
   0  -2 -10   -0.06    0.49
   0   2  10    0.24    0.56
   0   2  10   -0.19    0.67
  -1  -2 -10   26.23    1.26
   1   2  10   21.24    1.09
   1   2  10   25.01    1.39
  -2  -2 -10   16.75    1.12
   2   2  10   16.84    1.18
   2   2  10   14.51    1.03
  -3  -2 -10    8.46    0.89
   3   2  10    6.68    0.93
   3   2  10    7.74    0.79
   4   2  10    4.97    1.01
   4   2  10    5.04    0.82
  10  -3 -10    8.02    0.62
 -10   3  10    5.92    1.36
 -10   3  10    3.15    2.41
 -10   3  10    7.92    1.12
   9  -3 -10    0.21    0.41
  -9   3  10   -0.14    1.19
  -9   3  10    0.04    0.88
  -9   3  10   -2.09    1.94
   8  -3 -10    0.80    0.43
  -8   3  10    0.61    0.93
  -8   3  10   -0.63    1.13
  -8   3  10   -0.60    1.77
   7  -3 -10    1.06    0.43
  -7   3  10   -0.60    1.23
  -7   3  10   -0.05    1.64
  -7   3  10    0.71    0.95
   6  -3 -10   30.33    1.21
  -6   3  10   29.80    1.95
  -6   3  10   30.37    3.30
  -6   3  10   30.32    2.26
   5  -3 -10   33.72    1.36
  -5   3  10   39.54    2.22
  -5   3  10   33.77    3.10
  -5   3  10   36.63    2.37
   4  -3 -10   36.56    1.38
  -4   3  10   33.22    1.41
  -4   3  10   32.56    2.77
  -4   3  10   37.10    1.31
  -4   3  10   34.25    2.43
   3  -3 -10   25.15    1.19
  -3   3  10   30.35    1.39
  -3   3  10   28.45    1.16
  -3   3  10   27.52    2.42
   2  -3 -10   18.95    1.03
  -2   3  10   20.80    1.03
  -2   3  10   18.83    1.19
   1  -3 -10   13.54    0.95
  -1   3  10   14.45    1.11
  -1   3  10   14.22    0.97
   0  -3 -10    8.69    0.81
   0   3  10   11.22    0.83
   0   3  10    8.04    0.94
  -1  -3 -10    0.88    0.59
   1   3  10    0.90    0.72
   1   3  10    0.54    0.61
  -2  -3 -10    0.09    0.59
   2   3  10    0.33    0.60
   2   3  10   -0.42    0.78
  -3  -3 -10    0.37    0.71
   3   3  10   -0.34    0.83
   3   3  10    0.27    0.64
  10  -4 -10   14.12    0.84
 -10   4  10   12.87    1.59
 -10   4  10   13.50    1.30
   9  -4 -10    6.69    0.62
  -9   4  10    6.00    1.10
  -9   4  10    3.72    1.38
   8  -4 -10   11.70    0.80
  -8   4  10   11.77    1.52
  -8   4  10   11.59    1.25
   7  -4 -10   21.36    1.02
  -7   4  10   22.93    1.80
  -7   4  10   15.84    1.69
   6  -4 -10    0.44    0.47
  -6   4  10    0.62    1.05
  -6   4  10   -2.20    1.39
   5  -4 -10   -0.28    0.45
  -5   4  10   -0.37    1.36
   4  -4 -10    0.81    0.48
  -4   4  10    0.47    0.53
  -4   4  10    0.04    1.42
   3  -4 -10    2.36    0.57
  -3   4  10    3.43    0.70
  -3   4  10    1.63    0.57
   2  -4 -10   21.80    1.10
  -2   4  10   23.12    1.30
  -2   4  10   22.07    1.11
   1  -4 -10   28.54    1.33
  -1   4  10   33.54    1.34
  -1   4  10   30.65    1.54
   0  -4 -10   30.04    1.39
   0   4  10   31.41    1.58
   0   4  10   31.15    1.35
  -1  -4 -10   13.75    1.09
   1   4  10   14.82    1.17
   1   4  10   13.72    0.97
  -2  -4 -10    7.42    0.90
   2   4  10    7.08    0.86
   2   4  10    6.39    0.97
  -3  -4 -10    2.52    0.82
   3   4  10    4.40    0.84
   3   4  10    4.23    1.01
  10  -5 -10    4.22    0.59
 -10   5  10    2.30    1.42
 -10   5  10    5.68    1.13
   9  -5 -10   14.86    0.87
  -9   5  10   10.82    1.35
  -9   5  10    9.88    1.62
   8  -5 -10   11.24    0.85
  -8   5  10   13.34    1.38
  -8   5  10    9.13    1.57
   7  -5 -10   29.36    1.27
  -7   5  10   28.27    2.36
  -7   5  10   33.42    2.17
   6  -5 -10    7.46    0.69
  -6   5  10    6.66    1.53
   5  -5 -10    1.81    0.51
  -5   5  10    0.73    1.46
   4  -5 -10    2.89    0.60
   3  -5 -10    1.20    0.54
  -3   5  10    0.13    0.69
  -3   5  10    1.28    0.62
   2  -5 -10    6.76    0.77
  -2   5  10    6.73    0.93
  -2   5  10    7.64    0.75
   1  -5 -10    2.46    0.64
  -1   5  10    2.52    0.63
  -1   5  10    0.93    0.77
   0  -5 -10    0.27    0.60
   0   5  10   -0.10    0.80
   0   5  10    0.19    0.65
  -1  -5 -10    1.25    0.72
   1   5  10    1.71    0.67
   1   5  10    0.60    0.87
  -2  -5 -10    2.80    0.81
   2   5  10    1.48    0.96
   2   5  10    2.53    0.80
   9  -6 -10    8.39    0.76
  -9   6  10    8.84    1.70
  -9   6  10    6.97    1.33
   8  -6 -10   11.85    0.86
  -8   6  10    9.77    1.71
   7  -6 -10    4.38    0.65
  -7   6  10    2.70    1.59
   6  -6 -10    5.87    0.70
  -6   6  10    5.67    1.68
   5  -6 -10    4.25    0.66
   4  -6 -10    8.87    0.83
   3  -6 -10    8.66    0.84
  -3   6  10   10.27    0.82
   2  -6 -10    1.40    0.67
  -2   6  10    0.79    0.66
  -2   6  10    0.60    0.78
   1  -6 -10    1.51    0.65
  -1   6  10    1.32    0.69
  -1   6  10    1.36    0.85
   0  -6 -10    1.60    0.68
   0   6  10    0.59    0.67
   0   6  10    1.25    0.83
  -1  -6 -10    0.45    0.76
   1   6  10    0.20    0.92
   1   6  10   -0.49    0.73
   9  -7 -10   -0.08    0.55
  -9   7  10   -0.18    1.59
   8  -7 -10    0.43    0.60
  -8   7  10   -0.57    1.61
   7  -7 -10    0.99    0.61
  -7   7  10   -0.90    1.58
   6  -7 -10    2.59    0.64
   5  -7 -10   11.90    0.99
   4  -7 -10   10.40    0.91
   3  -7 -10    4.14    0.77
   2  -7 -10    3.24    0.77
  -2   7  10    3.09    0.76
  -2   7  10    2.03    0.89
   1  -7 -10    1.76    0.70
  -1   7  10    0.40    0.91
  -1   7  10    0.54    0.73
   0  -7 -10    1.93    0.74
   0   7  10    1.75    0.79
   7  -8 -10    9.02    0.88
   6  -8 -10    6.03    0.80
   5  -8 -10    0.19    0.60
   4  -8 -10    0.15    0.66
   3  -8 -10   -0.42    0.64
   2  -8 -10    0.96    0.71
  -2   8  10    1.54    0.78
   2  12 -11    1.94    0.78
   1  12 -11    3.68    0.83
   0  12 -11    0.82    0.70
   0 -12  11   -0.23    0.85
  -1  12 -11    1.41    0.77
   1 -12  11   -0.63    0.85
  -2  12 -11    0.12    0.70
   2 -12  11    0.88    0.91
   4  11 -11    1.57    0.68
  -4 -11  11    1.36    2.11
   3  11 -11    1.38    0.67
   2  11 -11    0.88    0.70
   1  11 -11    3.58    0.78
  -1 -11  11    2.59    0.89
   0  11 -11    6.07    0.82
   0 -11  11    6.55    1.00
  -1  11 -11    0.85    0.72
   1 -11  11    0.40    0.83
  -2  11 -11    4.48    0.83
   2 -11  11    4.56    0.99
  -3  11 -11    4.11    0.84
   3 -11  11    2.99    1.00
   5  10 -11    0.91    0.68
  -5 -10  11    0.00    2.04
   4  10 -11    0.81    0.66
  -4 -10  11    2.13    2.00
   3  10 -11    1.39    0.63
   2  10 -11    1.59    0.68
   1  10 -11    0.28    0.65
  -1 -10  11   -0.62    0.75
   0  10 -11    5.26    0.81
   0 -10  11    5.90    0.95
  -1  10 -11    1.22    0.70
   1 -10  11    0.56    0.81
  -2  10 -11    0.27    0.69
   2 -10  11   -0.07    0.84
  -3  10 -11    5.05    0.83
   3 -10  11    5.98    1.07
  -4  10 -11    5.43    0.87
   4 -10  11    4.63    0.92
   4 -10  11    4.17    1.07
   6   9 -11    7.41    0.82
  -6  -9  11    1.10    2.19
   5   9 -11    5.78    0.78
  -5  -9  11    1.87    2.13
   4   9 -11   21.48    1.23
   3   9 -11    9.69    0.89
   2   9 -11    2.97    0.66
  -2  -9  11    4.57    0.83
   1   9 -11    5.98    0.77
  -1  -9  11    4.43    0.85
   0   9 -11   -0.18    0.61
   0  -9  11   -0.36    0.68
  -1   9 -11    2.49    0.67
   1  -9  11    3.39    0.89
  -2   9 -11    2.71    0.73
   2  -9  11    3.88    0.83
   2  -9  11    2.19    0.91
  -3   9 -11   14.78    1.16
   3  -9  11   14.75    1.11
   3  -9  11   13.02    1.27
  -4   9 -11   16.06    1.20
   4  -9  11   12.26    1.15
   4  -9  11   13.69    1.36
   5  -9  11    3.88    1.11
   5  -9  11    4.21    0.96
   7   8 -11    1.18    0.64
  -7  -8  11   -0.20    2.31
  -7  -8  11    1.43    1.48
   6   8 -11    4.71    0.73
  -6  -8  11    2.28    2.06
  -6  -8  11    2.47    1.49
   5   8 -11    5.31    0.72
  -5  -8  11    2.37    2.16
  -5  -8  11    5.10    1.52
   4   8 -11   31.39    1.38
   3   8 -11   65.64    2.32
   2   8 -11   22.89    1.24
  -2  -8  11   25.75    1.39
   1   8 -11   29.63    1.42
  -1  -8  11   31.76    1.58
   0   8 -11   27.64    1.37
   0  -8  11   27.38    1.56
  -1   8 -11    2.46    0.69
   1  -8  11    2.97    0.88
   1  -8  11    3.78    0.78
  -2   8 -11    1.32    0.67
   2  -8  11    1.22    0.76
   2  -8  11    2.17    0.89
  -3   8 -11    0.34    0.68
   3  -8  11   -0.49    0.79
   3  -8  11   -0.19    0.76
  -4   8 -11    3.14    0.77
   4  -8  11    1.58    0.90
   4  -8  11    2.56    0.88
   5  -8  11    2.24    1.07
   5  -8  11    2.41    0.82
  -8  -7  11    2.96    2.59
   7   7 -11   10.83    0.88
  -7  -7  11    7.77    2.59
  -7  -7  11    9.26    1.60
   6   7 -11    3.91    0.66
  -6  -7  11    1.26    2.02
  -6  -7  11    4.28    1.43
   5   7 -11    3.63    0.64
  -5  -7  11    1.11    1.29
  -5  -7  11    0.65    1.89
   4   7 -11   -0.41    0.55
  -4  -7  11   -1.01    1.95
  -4  -7  11   -1.44    1.26
   3   7 -11   11.32    0.90
  -3  -7  11    8.87    2.42
   2   7 -11    8.08    0.76
  -2  -7  11    9.46    0.92
   1   7 -11   20.28    1.15
  -1  -7  11   19.86    1.32
   0   7 -11   80.79    2.75
   0  -7  11   81.49    2.52
   0  -7  11   83.27    2.94
  -1   7 -11   53.98    2.10
   1  -7  11   59.75    2.06
   1  -7  11   57.92    2.34
  -2   7 -11   22.52    1.22
   2  -7  11   22.88    1.53
   2  -7  11   22.70    1.25
  -3   7 -11   19.09    1.22
   3  -7  11   19.81    1.19
   3  -7  11   19.16    1.48
  -4   7 -11    5.74    0.85
   4  -7  11    5.34    0.89
   5  -7  11   -0.69    0.90
   5  -7  11   -0.82    0.72
   8   6 -11    2.40    0.63
  -8  -6  11    2.00    1.32
  -8  -6  11   -0.39    2.43
  -7  -6  11   14.77    1.66
  -7  -6  11    9.56    2.79
   6   6 -11    9.70    0.80
  -6  -6  11    8.52    1.44
  -6  -6  11    4.94    2.37
   5   6 -11    2.97    0.58
  -5  -6  11    2.15    1.27
  -5  -6  11    2.52    1.95
   4   6 -11    8.14    0.76
   4   6 -11    8.19    0.74
  -4  -6  11    7.45    1.53
  -4  -6  11    4.11    2.11
   3   6 -11    0.68    0.54
   3   6 -11    1.84    0.56
  -3  -6  11    0.20    2.09
  -3  -6  11   -0.03    1.28
  -3  -6  11    1.70    0.63
   2   6 -11    0.59    0.54
   2   6 -11    0.80    0.54
  -2  -6  11    0.60    0.63
   1   6 -11   -0.67    0.53
   1   6 -11    0.28    0.57
  -1  -6  11    0.43    0.69
  -1  -6  11    0.25    0.62
   0   6 -11    6.00    0.70
   0   6 -11    5.11    0.69
   0  -6  11    5.44    0.90
   0  -6  11    4.06    0.75
  -1   6 -11    9.64    0.86
  -1   6 -11    9.78    0.88
   1  -6  11    9.22    0.90
   1  -6  11   10.12    1.06
  -2   6 -11    0.94    0.65
   2  -6  11    0.81    0.63
   2  -6  11    1.39    0.82
  -3   6 -11    6.25    0.82
   3  -6  11    6.09    0.95
   3  -6  11    5.36    0.84
  -4   6 -11   16.75    1.20
   4  -6  11   10.28    1.18
   4  -6  11   13.29    1.06
   5  -6  11    6.55    1.04
   5  -6  11    7.33    0.96
   9   5 -11    1.41    0.57
  -9  -5  11    0.10    1.28
  -9  -5  11   -0.20    2.48
  -9  -5  11   -2.07    1.88
   8   5 -11    0.04    0.54
  -8  -5  11   -0.69    1.21
  -8  -5  11    0.18    2.42
  -8  -5  11    0.73    1.72
   7   5 -11    8.10    0.74
  -7  -5  11    5.46    2.35
  -7  -5  11    6.12    1.38
  -7  -5  11   10.08    1.79
   6   5 -11    8.36    0.76
   6   5 -11    9.49    0.76
  -6  -5  11    7.14    2.32
  -6  -5  11   11.23    1.86
  -6  -5  11   10.63    1.43
   5   5 -11   -0.48    0.49
   5   5 -11    0.45    0.50
  -5  -5  11    0.96    2.02
  -5  -5  11   -0.20    1.20
   4   5 -11    0.54    0.51
  -4  -5  11    0.25    1.29
  -4  -5  11    0.08    2.03
   3   5 -11    9.19    0.77
  -3  -5  11    6.44    2.27
  -3  -5  11    9.79    0.84
  -3  -5  11    7.16    1.48
   2   5 -11    2.28    0.57
  -2  -5  11    0.20    1.36
  -2  -5  11    2.39    0.63
  -2  -5  11    2.45    0.71
   1   5 -11    4.44    0.67
  -1  -5  11    4.78    0.72
  -1  -5  11    4.53    0.81
   0   5 -11    3.37    0.66
   0  -5  11    2.82    0.76
   0  -5  11    2.77    0.67
  -1   5 -11    0.18    0.59
  -1   5 -11   -0.33    0.53
   1  -5  11    0.10    0.68
   1  -5  11    0.19    0.59
  -2   5 -11    0.27    0.63
  -2   5 -11   -0.06    0.63
   2  -5  11   -0.66    0.74
   2  -5  11    0.56    0.65
  -3   5 -11    1.07    0.66
  -3   5 -11    0.65    0.66
   3  -5  11    0.52    0.68
   3  -5  11    0.88    0.81
  -4   5 -11    7.94    0.92
   4  -5  11    6.58    0.88
   4  -5  11    7.79    1.00
   5  -5  11    3.59    0.97
   5  -5  11    1.11    0.78
   9   4 -11    1.00    0.54
  -9  -4  11    0.65    1.26
  -9  -4  11    1.57    1.73
  -9  -4  11    0.24    2.59
   8   4 -11    2.51    0.56
   8   4 -11    2.00    0.56
  -8  -4  11    1.11    2.42
  -8  -4  11    0.30    1.19
  -8  -4  11    3.54    1.59
   7   4 -11    0.31    0.52
  -7  -4  11   -1.19    1.15
  -7  -4  11    0.23    1.91
  -7  -4  11    1.62    1.50
   6   4 -11    7.97    0.70
  -6  -4  11   12.40    1.73
  -6  -4  11    7.02    2.43
  -6  -4  11    7.85    1.43
   5   4 -11    0.49    0.48
  -5  -4  11    0.45    1.47
  -5  -4  11    0.18    1.19
  -5  -4  11    1.40    1.96
   4   4 -11    2.81    0.55
  -4  -4  11    1.86    1.28
  -4  -4  11    4.27    1.54
  -4  -4  11    2.91    2.02
   3   4 -11   23.89    1.11
  -3  -4  11   24.05    3.59
  -3  -4  11   26.39    2.21
  -3  -4  11   26.17    1.19
  -3  -4  11   26.06    1.31
   2   4 -11   10.09    0.77
  -2  -4  11   12.16    0.85
  -2  -4  11   10.09    1.60
  -2  -4  11   11.75    0.96
   1   4 -11    1.99    0.56
  -1  -4  11    0.82    0.59
  -1  -4  11    1.85    0.73
   0   4 -11    4.07    0.66
   0  -4  11    4.78    0.84
   0  -4  11    4.71    0.66
  -1   4 -11    3.18    0.67
   1  -4  11    3.76    0.83
   1  -4  11    2.02    0.64
  -2   4 -11    1.20    0.66
   2  -4  11    0.60    0.75
   2  -4  11    0.15    0.58
  -3   4 -11    1.24    0.70
  -3   4 -11    0.96    0.69
   3  -4  11    0.70    0.79
   3  -4  11    1.01    0.67
  -4   4 -11    2.80    0.78
  -4   4 -11    1.91    0.76
   4  -4  11    0.70    0.86
   4  -4  11    2.06    0.75
   5  -4  11    0.72    0.76
   5  -4  11   -0.05    0.81
   9   3 -11   13.58    0.91
   9   3 -11   12.34    0.91
  -9  -3  11   15.27    1.86
  -9  -3  11   12.89    1.52
  -9  -3  11    7.55    2.71
   8   3 -11    8.39    0.70
  -8  -3  11    6.46    1.39
  -8  -3  11    6.99    2.53
  -8  -3  11    9.95    1.58
   7   3 -11   22.25    1.08
  -7  -3  11   26.25    2.42
  -7  -3  11   23.13    1.95
  -7  -3  11   16.95    2.96
   6   3 -11   14.56    0.88
  -6  -3  11   14.89    1.56
  -6  -3  11   13.74    2.57
  -6  -3  11   18.88    1.82
   5   3 -11    8.16    0.68
  -5  -3  11    8.72    1.59
  -5  -3  11    6.68    1.38
  -5  -3  11    7.50    2.19
   4   3 -11   10.00    0.79
  -4  -3  11   10.60    1.57
  -4  -3  11    8.88    2.10
  -4  -3  11    8.91    1.47
   3   3 -11    0.94    0.49
  -3  -3  11    0.54    1.71
  -3  -3  11    0.62    0.58
  -3  -3  11   -1.14    1.23
  -3  -3  11   -0.04    0.58
   2   3 -11    1.33    0.51
  -2  -3  11    1.75    0.71
  -2  -3  11    1.57    1.23
  -2  -3  11    1.02    0.56
  -2  -3  11    2.10    1.77
   1   3 -11    1.92    0.53
  -1  -3  11    2.14    0.60
  -1  -3  11    1.73    0.71
   0   3 -11   14.68    0.99
   0  -3  11   16.62    1.04
   0  -3  11   14.17    1.08
  -1   3 -11   46.92    1.79
   1  -3  11   47.29    1.92
   1  -3  11   48.22    1.72
  -2   3 -11   18.06    1.08
   2  -3  11   16.86    1.03
   2  -3  11   17.10    1.29
  -3   3 -11   13.13    1.09
   3  -3  11   10.54    1.07
   3  -3  11   10.75    0.87
  -4   3 -11    7.02    0.90
  -4   3 -11    5.66    0.92
   4  -3  11    5.73    0.83
   4  -3  11    5.33    0.91
   5  -3  11    2.71    0.80
   5  -3  11    0.80    0.88
  10   2 -11    0.53    0.52
 -10  -2  11    2.02    1.49
 -10  -2  11   -0.90    1.18
 -10  -2  11   -1.93    2.33
   9   2 -11    3.17    0.55
  -9  -2  11    1.38    1.26
  -9  -2  11    0.31    2.37
  -9  -2  11    5.14    1.43
   8   2 -11    0.23    0.46
  -8  -2  11   -1.49    2.01
  -8  -2  11   -0.63    1.19
  -8  -2  11    0.95    1.20
   7   2 -11   20.08    1.00
  -7  -2  11   19.92    1.88
  -7  -2  11   23.23    2.16
  -7  -2  11   15.36    2.60
   6   2 -11   64.61    2.17
  -6  -2  11   73.72    3.47
  -6  -2  11   57.85    4.99
  -6  -2  11   69.93    3.29
   5   2 -11   46.96    1.68
  -5  -2  11   50.83    2.99
  -5  -2  11   43.82    4.04
  -5  -2  11   49.62    2.73
   4   2 -11   49.92    1.79
  -4  -2  11   48.36    4.10
  -4  -2  11   51.79    3.13
  -4  -2  11   53.25    2.80
  -4  -2  11   53.16    1.74
   3   2 -11   40.24    1.57
  -3  -2  11   46.87    3.72
  -3  -2  11   43.08    2.62
  -3  -2  11   42.67    1.72
  -3  -2  11   47.23    1.61
   2   2 -11    9.98    0.76
  -2  -2  11    8.81    1.58
  -2  -2  11   12.31    2.07
  -2  -2  11   12.52    1.04
  -2  -2  11   14.39    0.99
   1   2 -11   12.68    0.85
  -1  -2  11   13.49    0.99
  -1  -2  11   13.61    1.12
  -1  -2  11   14.94    2.16
   0   2 -11    0.02    0.53
   0  -2  11    0.41    0.59
   0  -2  11   -0.73    0.62
  -1   2 -11    3.09    0.68
   1  -2  11    3.58    0.78
   1  -2  11    3.78    0.68
  -2   2 -11    3.17    0.67
   2  -2  11    2.63    0.69
   2  -2  11    3.04    0.82
  -3   2 -11    1.62    0.70
   3  -2  11    0.26    0.65
   3  -2  11   -0.44    0.78
  -4   2 -11   10.13    1.01
   4  -2  11    8.94    0.90
   4  -2  11    8.22    1.06
   5  -2  11    8.97    1.13
   5  -2  11   10.66    0.98
  10   1 -11    8.09    0.67
 -10  -1  11    6.56    1.35
 -10  -1  11    5.11    2.74
 -10  -1  11    9.48    1.45
   9   1 -11    0.66    0.48
  -9  -1  11   -1.67    2.16
  -9  -1  11    3.43    1.26
  -9  -1  11   -0.89    1.16
   8   1 -11    8.83    0.68
  -8  -1  11    5.55    2.23
  -8  -1  11    8.82    1.37
  -8  -1  11    9.17    1.32
   7   1 -11    2.01    0.49
  -7  -1  11    1.43    1.23
  -7  -1  11    0.82    1.82
  -7  -1  11    1.67    1.19
   6   1 -11   13.12    0.80
  -6  -1  11   14.23    1.55
  -6  -1  11    9.85    2.01
  -6  -1  11   13.00    1.53
   5   1 -11    5.66    0.58
  -5  -1  11    5.08    1.31
  -5  -1  11    6.00    1.36
  -5  -1  11    3.83    1.72
   4   1 -11    3.50    0.55
  -4  -1  11    2.85    1.34
  -4  -1  11    5.24    1.30
  -4  -1  11    4.20    0.61
  -4  -1  11    3.97    1.54
   3   1 -11   41.61    1.60
  -3  -1  11   45.06    3.58
  -3  -1  11   46.19    2.57
  -3  -1  11   45.14    1.78
  -3  -1  11   42.46    1.52
   2   1 -11   67.59    2.37
  -2  -1  11   77.18    4.79
  -2  -1  11   72.43    3.58
  -2  -1  11   74.44    2.54
  -2  -1  11   74.02    2.21
   1   1 -11   42.98    1.73
  -1  -1  11   56.27    3.75
  -1  -1  11   47.84    1.68
  -1  -1  11   49.66    1.94
   0   1 -11   30.98    1.37
   0  -1  11   30.72    1.37
   0  -1  11   32.17    1.58
   0  -1  11   38.61    3.09
  -1   1 -11   20.78    1.19
   1  -1  11   21.54    1.36
   1  -1  11   22.69    1.16
  -2   1 -11    3.53    0.73
   2  -1  11    2.77    0.69
   2  -1  11    3.98    0.80
  -3   1 -11    0.47    0.69
   3  -1  11   -0.22    0.79
   3  -1  11   -0.02    0.60
   4  -1  11    4.63    0.77
   4  -1  11    6.50    1.01
  10   0 -11    9.79    0.80
 -10   0  11    6.88    1.30
 -10   0  11   12.04    1.41
 -10   0  11    6.89    2.51
   9   0 -11   10.21    0.77
  -9   0  11    7.38    2.46
  -9   0  11   11.24    1.38
  -9   0  11    8.10    1.32
   8   0 -11    9.95    0.77
  -8   0  11    6.85    2.17
  -8   0  11   10.52    1.37
  -8   0  11   10.03    1.39
   7   0 -11   12.62    0.81
  -7   0  11   11.70    1.45
  -7   0  11   11.45    1.38
  -7   0  11   10.34    2.16
   6   0 -11    0.13    0.43
  -6   0  11   -2.19    1.14
  -6   0  11   -0.13    1.55
  -6   0  11    0.02    1.05
   5   0 -11   -0.20    0.42
  -5   0  11    0.91    1.24
  -5   0  11   -2.05    1.39
  -5   0  11   -0.23    1.09
   4   0 -11    0.84    0.43
  -4   0  11   -1.64    1.25
  -4   0  11    1.87    1.19
  -4   0  11    0.64    1.32
  -4   0  11    0.54    0.52
   3   0 -11    6.64    0.65
  -3   0  11    7.01    0.80
  -3   0  11    5.67    1.47
  -3   0  11    5.18    1.35
  -3   0  11    7.63    0.68
   2   0 -11   21.60    1.06
  -2   0  11   24.19    2.35
  -2   0  11   24.28    1.31
  -2   0  11   25.03    1.16
   1   0 -11    4.69    0.64
  -1   0  11    2.66    0.71
  -1   0  11    3.41    0.65
   0   0 -11    3.80    0.66
   0   0  11    4.64    0.84
   0   0  11    4.54    0.69
  -1   0 -11    8.76    0.84
   1   0  11    7.97    0.76
   1   0  11    8.51    0.96
  -2   0 -11   10.63    0.92
   2   0  11    8.43    0.99
   2   0  11    8.59    0.80
  -3   0 -11    6.25    0.87
   3   0  11    4.33    0.92
   3   0  11    3.67    0.72
   4   0  11    2.69    0.94
   4   0  11    3.31    0.79
  10  -1 -11    5.54    0.59
 -10   1  11    2.73    1.26
 -10   1  11    7.37    1.28
 -10   1  11    1.73    2.63
   9  -1 -11   20.91    0.99
  -9   1  11   21.91    1.81
  -9   1  11   18.68    1.83
  -9   1  11   15.41    2.76
   8  -1 -11    4.56    0.55
  -8   1  11    2.65    1.23
  -8   1  11    1.70    1.91
  -8   1  11    5.64    1.14
   7  -1 -11    4.22    0.55
  -7   1  11    2.50    1.73
  -7   1  11    2.13    1.28
  -7   1  11    4.66    1.17
   6  -1 -11    7.13    0.64
  -6   1  11    5.44    1.36
  -6   1  11    8.40    1.31
  -6   1  11    6.53    1.72
   5  -1 -11    2.13    0.50
  -5   1  11    0.20    1.41
  -5   1  11    3.89    1.17
  -5   1  11    0.66    1.28
   4  -1 -11    5.14    0.59
  -4   1  11    4.48    0.61
  -4   1  11    4.17    1.40
  -4   1  11    3.34    1.33
   3  -1 -11    1.08    0.47
  -3   1  11    1.49    0.66
  -3   1  11    0.30    1.40
  -3   1  11   -0.39    1.13
  -3   1  11    1.17    0.55
   2  -1 -11    1.03    0.52
  -2   1  11    0.38    0.70
  -2   1  11    0.54    0.56
   1  -1 -11    1.41    0.57
  -1   1  11    1.10    0.61
  -1   1  11    0.70    0.73
   0  -1 -11   -0.25    0.55
   0   1  11    0.31    0.73
   0   1  11    0.15    0.60
  -1  -1 -11    5.97    0.78
   1   1  11    6.41    0.77
   1   1  11    6.44    0.87
  -2  -1 -11   15.05    1.14
   2   1  11   13.79    1.17
   2   1  11   13.17    0.97
  -3  -1 -11    3.89    0.84
   3   1  11    3.00    0.88
   3   1  11    3.10    0.77
  10  -2 -11    1.22    0.49
 -10   2  11   -4.46    2.31
 -10   2  11    2.82    1.15
 -10   2  11   -0.53    1.21
   9  -2 -11    5.95    0.60
  -9   2  11    3.03    1.34
  -9   2  11    5.90    1.20
  -9   2  11    2.16    2.24
   8  -2 -11    0.68    0.46
  -8   2  11   -3.03    1.81
  -8   2  11   -1.57    1.25
  -8   2  11    1.08    1.06
   7  -2 -11    1.17    0.48
  -7   2  11   -0.65    1.26
  -7   2  11   -0.89    1.59
  -7   2  11    1.61    1.06
   6  -2 -11   23.50    1.08
  -6   2  11   25.40    1.92
  -6   2  11   19.00    2.84
  -6   2  11   20.62    2.10
   5  -2 -11   26.37    1.15
  -5   2  11   25.46    2.87
  -5   2  11   28.15    2.25
   4  -2 -11    8.03    0.68
  -4   2  11    5.96    1.43
  -4   2  11    6.86    1.54
   3  -2 -11    7.41    0.71
  -3   2  11    8.41    0.73
  -3   2  11    8.53    0.83
   2  -2 -11    1.56    0.56
  -2   2  11    1.77    0.62
  -2   2  11    1.99    0.74
   1  -2 -11    0.92    0.58
  -1   2  11    0.72    0.72
  -1   2  11    1.17    0.63
   0  -2 -11    1.06    0.58
   0   2  11    1.17    0.64
   0   2  11    0.66    0.77
  -1  -2 -11   -0.36    0.62
   1   2  11   -0.26    0.64
   1   2  11   -0.01    0.80
  -2  -2 -11   -0.13    0.67
   2   2  11   -1.39    0.65
   2   2  11   -0.51    0.81
  -3  -2 -11    0.94    0.77
   3   2  11   -0.54    0.88
   3   2  11    0.53    0.69
  10  -3 -11   11.46    0.81
 -10   3  11   10.97    1.31
 -10   3  11    9.58    1.55
 -10   3  11    3.55    2.63
   9  -3 -11    3.61    0.55
  -9   3  11    1.56    1.40
  -9   3  11    0.45    2.14
  -9   3  11    4.91    1.15
   8  -3 -11    2.98    0.55
  -8   3  11    5.02    1.18
  -8   3  11    0.92    1.41
  -8   3  11    0.08    1.99
   7  -3 -11   13.47    0.87
  -7   3  11    9.58    1.60
  -7   3  11   13.41    1.43
  -7   3  11   11.35    2.10
   6  -3 -11    0.35    0.47
  -6   3  11   -3.41    1.58
  -6   3  11   -1.75    1.30
   5  -3 -11    3.83    0.58
  -5   3  11    2.05    1.48
   4  -3 -11   -0.13    0.50
  -4   3  11   -1.98    1.49
   3  -3 -11    1.79    0.53
  -3   3  11    1.79    0.70
  -3   3  11    1.03    0.60
   2  -3 -11   18.51    1.10
  -2   3  11   20.09    1.12
  -2   3  11   18.77    1.26
   1  -3 -11   20.74    1.20
  -1   3  11   22.33    1.18
  -1   3  11   23.02    1.39
   0  -3 -11   12.06    0.95
   0   3  11   10.89    1.07
   0   3  11   11.41    0.90
  -1  -3 -11    9.10    0.91
   1   3  11    8.72    0.83
   1   3  11    8.32    1.03
  -2  -3 -11    3.56    0.77
   2   3  11    4.03    0.82
   2   3  11    3.26    0.97
  10  -4 -11    2.89    0.58
 -10   4  11    3.93    1.16
   9  -4 -11   11.12    0.87
  -9   4  11    9.34    1.66
  -9   4  11   11.77    1.42
   8  -4 -11   23.20    1.08
  -8   4  11   22.40    1.92
  -8   4  11   21.68    2.30
   7  -4 -11   25.46    1.18
  -7   4  11   21.55    2.06
   6  -4 -11   23.67    1.14
  -6   4  11   22.15    2.24
   5  -4 -11    5.34    0.66
  -5   4  11    3.49    1.56
   4  -4 -11   13.82    0.95
   3  -4 -11    1.84    0.61
  -3   4  11    2.00    0.63
   2  -4 -11    3.71    0.69
  -2   4  11    3.78    0.88
  -2   4  11    3.20    0.71
   1  -4 -11    3.19    0.69
  -1   4  11    4.17    0.69
  -1   4  11    4.91    0.91
   0  -4 -11    2.01    0.66
   0   4  11    2.30    0.88
   0   4  11    1.60    0.71
  -1  -4 -11    1.53    0.75
   1   4  11    1.09    0.85
   1   4  11    0.07    0.67
   9  -5 -11    3.43    0.63
  -9   5  11    0.98    1.51
   8  -5 -11    2.82    0.59
  -8   5  11    0.56    1.57
   7  -5 -11    1.46    0.59
  -7   5  11    1.21    1.59
   6  -5 -11    6.38    0.71
  -6   5  11    2.65    1.68
   5  -5 -11   12.75    0.96
   4  -5 -11   17.19    1.08
   3  -5 -11   18.95    1.15
  -3   5  11   20.07    1.14
   2  -5 -11    8.89    0.88
  -2   5  11    8.28    1.04
  -2   5  11    8.29    0.85
   1  -5 -11    3.70    0.72
  -1   5  11    4.02    0.76
  -1   5  11    3.97    0.94
   0  -5 -11    3.66    0.82
   0   5  11    1.79    0.94
   0   5  11    2.38    0.76
   8  -6 -11    0.40    0.56
  -8   6  11   -1.18    1.64
   7  -6 -11   -0.22    0.57
  -7   6  11   -0.48    1.61
   6  -6 -11   -0.61    0.58
   5  -6 -11   11.50    0.94
   4  -6 -11    7.98    0.86
   3  -6 -11    5.68    0.77
   2  -6 -11    3.24    0.77
  -2   6  11    3.83    0.78
   1  -6 -11    3.73    0.80
  -1   6  11    1.62    0.97
  -1   6  11    2.27    0.78
   7  -7 -11    4.03    0.72
   6  -7 -11    2.30    0.70
   5  -7 -11   -0.04    0.64
   4  -7 -11   -0.19    0.61
   3  -7 -11   -0.35    0.69
   2  11 -12    0.90    0.72
   1  11 -12    1.19    0.73
   0  11 -12    6.67    0.87
   0 -11  12    7.16    1.07
  -1  11 -12    3.09    0.81
   1 -11  12    2.13    0.97
   4  10 -12    3.16    0.75
  -4 -10  12    2.49    2.22
   3  10 -12    2.05    0.73
  -3 -10  12    0.93    2.18
   2  10 -12    0.62    0.65
   1  10 -12    1.51    0.72
  -1 -10  12    1.27    0.83
   0  10 -12    0.89    0.67
   0 -10  12    1.46    0.88
  -1  10 -12    1.87    0.72
   1 -10  12    1.15    0.89
  -2  10 -12    0.73    0.76
   2 -10  12    0.63    0.95
  -3  10 -12    4.39    0.85
   3 -10  12    2.83    0.90
   5   9 -12    0.72    0.65
  -5  -9  12    0.15    2.12
   4   9 -12    5.70    0.80
  -4  -9  12    2.83    2.26
   3   9 -12    5.96    0.76
  -3  -9  12    5.35    2.40
   2   9 -12    0.86    0.62
   1   9 -12    1.22    0.63
  -1  -9  12    1.08    0.82
   0   9 -12    3.36    0.77
   0  -9  12    3.03    0.88
  -1   9 -12    0.16    0.65
   1  -9  12    0.35    0.86
  -2   9 -12    1.47    0.74
   2  -9  12    1.01    0.75
   2  -9  12    0.74    0.93
  -3   9 -12    1.29    0.77
   3  -9  12    1.81    0.93
   3  -9  12    2.11    0.84
   6   8 -12    0.94    0.64
  -6  -8  12   -1.28    1.95
   5   8 -12    0.42    0.61
  -5  -8  12    0.96    1.99
   4   8 -12    1.08    0.63
  -4  -8  12   -1.26    2.02
   3   8 -12    9.32    0.88
  -3  -8  12    8.74    2.54
   2   8 -12    5.29    0.74
   1   8 -12    7.00    0.86
  -1  -8  12    7.81    0.98
   0   8 -12   30.04    1.44
   0  -8  12   31.47    1.72
  -1   8 -12   20.29    1.19
   1  -8  12   19.76    1.24
   1  -8  12   19.83    1.51
  -2   8 -12    6.43    0.81
   2  -8  12    5.59    1.01
   2  -8  12    6.12    0.96
  -3   8 -12   11.67    1.05
   3  -8  12   11.65    1.24
   3  -8  12   10.08    1.05
   4  -8  12   -0.28    1.01
   4  -8  12    0.08    0.87
   7   7 -12   28.19    1.40
  -7  -7  12   27.21    2.50
   6   7 -12   22.42    1.19
  -6  -7  12   12.81    2.82
  -6  -7  12   23.10    2.22
   5   7 -12   17.64    1.09
  -5  -7  12    8.80    2.64
   4   7 -12   19.08    1.12
  -4  -7  12   13.34    2.88
   3   7 -12    5.39    0.75
  -3  -7  12    4.37    2.13
   2   7 -12    0.63    0.61
  -2  -7  12   -0.45    0.69
   1   7 -12    0.22    0.61
  -1  -7  12    0.96    0.79
   0   7 -12    9.84    0.93
   0  -7  12   11.25    1.13
   0  -7  12   10.77    0.95
  -1   7 -12   20.79    1.26
   1  -7  12   21.81    1.52
   1  -7  12   20.22    1.37
  -2   7 -12    8.80    0.94
   2  -7  12    7.70    1.12
   2  -7  12    7.61    0.97
  -3   7 -12   13.86    1.11
   3  -7  12   13.25    1.33
   3  -7  12   14.21    1.13
   4  -7  12   16.20    1.18
   4  -7  12   18.13    1.46
   8   6 -12    0.84    0.58
  -8  -6  12   -0.34    2.49
   7   6 -12    6.78    0.76
  -7  -6  12    4.48    1.45
  -7  -6  12    2.77    2.34
   6   6 -12   15.38    1.01
  -6  -6  12   12.01    2.89
  -6  -6  12   14.84    1.82
   5   6 -12    5.68    0.72
   5   6 -12    4.47    0.69
  -5  -6  12    4.99    2.31
  -5  -6  12    4.38    1.46
   4   6 -12   24.49    1.22
   4   6 -12   25.23    1.25
  -4  -6  12   27.30    2.36
  -4  -6  12   17.45    3.12
   3   6 -12   47.67    1.75
   3   6 -12   43.90    1.75
  -3  -6  12   35.47    4.12
   2   6 -12   24.32    1.31
   2   6 -12   25.89    1.30
  -2  -6  12   28.96    1.48
   1   6 -12   19.65    1.12
   1   6 -12   19.36    1.13
  -1  -6  12   22.00    1.42
  -1  -6  12   21.19    1.32
   0   6 -12   10.74    0.95
   0   6 -12   11.66    0.94
   0  -6  12   12.44    1.12
   0  -6  12   11.69    1.00
  -1   6 -12    0.08    0.65
  -1   6 -12    0.50    0.65
   1  -6  12    0.67    0.86
   1  -6  12    0.75    0.69
  -2   6 -12    0.86    0.70
  -2   6 -12    0.01    0.66
   2  -6  12    1.17    0.91
   2  -6  12   -0.06    0.74
   3  -6  12    5.53    1.08
   3  -6  12    4.99    0.91
  -4   6 -12   23.55    1.43
   4  -6  12   20.69    1.60
   4  -6  12   19.09    1.27
   8   5 -12    1.92    0.61
  -8  -5  12    0.84    2.34
  -8  -5  12   -0.26    1.37
   7   5 -12    1.64    0.59
   7   5 -12    1.50    0.57
  -7  -5  12    1.13    2.41
  -7  -5  12   -0.50    1.28
   6   5 -12    2.46    0.64
   6   5 -12    2.02    0.60
  -6  -5  12    2.07    2.26
  -6  -5  12    1.78    1.35
   5   5 -12    0.17    0.54
  -5  -5  12   -1.82    1.31
  -5  -5  12    0.96    2.07
   4   5 -12    2.42    0.61
  -4  -5  12    2.15    2.13
  -4  -5  12   -0.31    1.38
   3   5 -12   21.76    1.16
  -3  -5  12   18.62    2.95
   2   5 -12    8.64    0.79
  -2  -5  12    9.99    0.88
  -2  -5  12    8.12    0.98
   1   5 -12    4.32    0.69
  -1  -5  12    4.75    0.91
  -1  -5  12    4.65    0.79
   0   5 -12   11.26    0.94
   0  -5  12   10.79    0.96
   0  -5  12   10.97    1.08
  -1   5 -12    7.77    0.86
  -1   5 -12    8.41    0.89
   1  -5  12    7.03    0.88
   1  -5  12    7.79    1.04
  -2   5 -12    2.42    0.76
  -2   5 -12    2.64    0.76
   2  -5  12    1.85    0.76
   2  -5  12    3.34    0.94
  -3   5 -12    4.62    0.83
  -3   5 -12    3.31    0.81
   3  -5  12    2.96    0.91
   3  -5  12    3.48    0.78
   4  -5  12    0.23    0.74
   4  -5  12    0.06    0.91
   9   4 -12    3.35    0.65
   9   4 -12    3.61    0.64
   8   4 -12    1.04    0.59
   8   4 -12    0.72    0.57
  -8  -4  12    0.25    1.33
  -8  -4  12   -0.77    2.24
   7   4 -12    3.99    0.66
  -7  -4  12    3.12    1.42
  -7  -4  12    3.25    2.19
   6   4 -12    0.43    0.53
  -6  -4  12   -1.01    1.89
  -6  -4  12   -0.31    1.28
   5   4 -12    0.22    0.53
  -5  -4  12   -0.42    1.96
  -5  -4  12   -2.67    1.31
   4   4 -12    0.67    0.49
  -4  -4  12   -0.93    1.38
  -4  -4  12    0.23    1.94
   3   4 -12    1.16    0.51
  -3  -4  12    2.09    0.67
  -3  -4  12    1.18    2.01
   2   4 -12    2.25    0.60
  -2  -4  12    1.79    0.68
  -2  -4  12    2.35    0.77
  -2  -4  12    1.95    1.96
   1   4 -12    1.25    0.60
  -1  -4  12    0.14    0.60
  -1  -4  12    1.34    0.80
   0   4 -12    3.47    0.67
   0  -4  12    3.30    0.75
   0  -4  12    4.12    0.91
  -1   4 -12   11.60    0.96
   1  -4  12   10.06    0.94
   1  -4  12   11.52    1.14
  -2   4 -12    5.18    0.84
   2  -4  12    4.11    0.89
   2  -4  12    5.15    0.77
  -3   4 -12    3.20    0.83
  -3   4 -12    3.16    0.82
   3  -4  12    2.59    0.87
   3  -4  12    2.29    0.72
   4  -4  12    2.56    0.84
   4  -4  12    3.14    0.98
   9   3 -12    6.15    0.70
  -9  -3  12    4.84    1.46
  -9  -3  12    5.13    2.61
  -9  -3  12    7.11    1.82
   8   3 -12    0.52    0.55
  -8  -3  12   -1.08    1.37
  -8  -3  12    0.42    2.20
  -8  -3  12    4.31    1.66
   7   3 -12    9.22    0.77
  -7  -3  12    8.50    1.56
  -7  -3  12    7.47    2.48
  -7  -3  12   10.68    1.68
   6   3 -12   24.91    1.18
  -6  -3  12   25.46    2.32
  -6  -3  12   23.73    3.34
   5   3 -12    5.60    0.66
  -5  -3  12    3.42    1.41
  -5  -3  12    5.36    2.13
   4   3 -12    5.50    0.67
  -4  -3  12    4.81    1.50
  -4  -3  12    5.71    2.03
   3   3 -12    1.05    0.55
  -3  -3  12    1.11    1.79
  -3  -3  12    1.08    0.68
  -3  -3  12   -0.03    1.43
  -3  -3  12    2.46    0.68
   2   3 -12    0.08    0.54
  -2  -3  12    0.73    0.74
  -2  -3  12    1.76    1.79
  -2  -3  12    0.14    0.60
   1   3 -12    0.01    0.52
  -1  -3  12    0.10    1.85
  -1  -3  12   -0.02    0.61
  -1  -3  12    0.42    0.76
   0   3 -12   -0.07    0.60
   0  -3  12    0.64    0.68
   0  -3  12    0.09    0.73
  -1   3 -12    2.34    0.66
   1  -3  12    2.63    0.68
   1  -3  12    3.19    0.81
  -2   3 -12    0.50    0.70
   2  -3  12    0.24    0.65
   2  -3  12   -0.27    0.80
  -3   3 -12   -0.30    0.74
   3  -3  12   -1.10    0.85
   3  -3  12   -0.18    0.73
   4  -3  12    1.45    0.80
   4  -3  12    2.21    0.97
   9   2 -12    0.73    0.55
  -9  -2  12   -1.67    2.43
  -9  -2  12   -2.15    1.27
  -9  -2  12    2.17    1.46
   8   2 -12    3.37    0.60
  -8  -2  12    3.14    1.47
  -8  -2  12    5.29    1.55
  -8  -2  12    1.33    2.12
   7   2 -12    0.23    0.52
  -7  -2  12   -1.79    1.27
  -7  -2  12   -0.43    1.32
  -7  -2  12   -0.87    1.96
   6   2 -12    9.85    0.80
  -6  -2  12    9.87    1.63
  -6  -2  12    8.47    2.24
   5   2 -12    4.87    0.64
  -5  -2  12    3.74    1.96
  -5  -2  12    4.47    1.54
   4   2 -12    3.54    0.59
  -4  -2  12    3.06    1.46
  -4  -2  12    3.88    1.78
   3   2 -12   29.90    1.33
  -3  -2  12   33.79    3.48
  -3  -2  12   33.61    1.45
  -3  -2  12   33.95    2.59
  -3  -2  12   36.04    1.56
   2   2 -12   23.56    1.18
  -2  -2  12   26.40    1.44
  -2  -2  12   29.09    3.17
  -2  -2  12   28.28    1.28
   1   2 -12   18.38    1.06
  -1  -2  12   19.79    1.19
  -1  -2  12   23.44    3.15
  -1  -2  12   20.04    1.35
   0   2 -12   20.08    1.18
   0  -2  12   20.51    1.20
   0  -2  12   18.32    1.25
  -1   2 -12    3.25    0.74
   1  -2  12    3.18    0.88
   1  -2  12    2.93    0.73
  -2   2 -12    1.12    0.70
   2  -2  12    0.24    0.83
   2  -2  12    0.98    0.72
  -3   2 -12   -0.28    0.73
   3  -2  12   -0.23    0.73
   3  -2  12   -0.74    0.85
   4  -2  12    1.56    0.75
   9   1 -12   15.87    0.99
  -9  -1  12   13.84    1.70
  -9  -1  12   18.54    1.82
  -9  -1  12   12.13    2.72
   8   1 -12   18.40    1.02
  -8  -1  12   18.70    1.77
  -8  -1  12   15.95    2.82
  -8  -1  12   20.86    2.15
   7   1 -12   29.55    1.28
  -7  -1  12   28.08    2.29
  -7  -1  12   32.88    2.33
  -7  -1  12   24.21    3.58
   6   1 -12    6.69    0.68
  -6  -1  12    7.89    1.47
  -6  -1  12    6.19    1.97
   5   1 -12    2.95    0.55
  -5  -1  12   -0.98    1.45
  -5  -1  12    1.67    1.72
   4   1 -12    4.25    0.60
  -4  -1  12    3.23    1.55
  -4  -1  12    0.19    1.48
   3   1 -12    8.71    0.76
  -3  -1  12    8.99    0.80
  -3  -1  12   11.98    0.97
  -3  -1  12    7.98    1.75
   2   1 -12   25.67    1.22
  -2  -1  12   30.33    2.94
  -2  -1  12   26.99    1.29
  -2  -1  12   27.12    1.48
   1   1 -12   13.91    0.94
  -1  -1  12   15.21    1.23
  -1  -1  12   14.36    0.98
   0   1 -12   10.85    0.91
   0  -1  12   11.92    0.92
   0  -1  12   11.09    1.08
  -1   1 -12   15.54    1.14
   1  -1  12   14.57    1.20
   1  -1  12   15.12    1.02
  -2   1 -12    9.94    0.97
   2  -1  12    9.76    1.10
   2  -1  12    9.67    0.93
  -3   1 -12    8.77    0.94
   3  -1  12    7.29    1.04
   3  -1  12    6.57    0.88
   9   0 -12   10.54    0.87
  -9   0  12   11.18    1.59
  -9   0  12    8.44    1.56
  -9   0  12    6.69    2.54
   8   0 -12    6.04    0.65
  -8   0  12    5.87    1.38
  -8   0  12    4.31    1.45
  -8   0  12    3.71    2.16
   7   0 -12   10.59    0.83
  -7   0  12    8.05    2.14
  -7   0  12    7.99    1.58
  -7   0  12   12.47    1.56
   6   0 -12   20.47    1.02
  -6   0  12   23.52    2.12
  -6   0  12   17.92    2.46
   5   0 -12   22.11    1.08
  -5   0  12   22.18    2.96
  -5   0  12   22.80    2.24
   4   0 -12   33.66    1.36
  -4   0  12   30.91    2.51
  -4   0  12   29.94    3.18
   3   0 -12   11.92    0.83
  -3   0  12   14.06    1.06
  -3   0  12   13.23    0.88
  -3   0  12   10.36    1.70
   2   0 -12    2.35    0.60
  -2   0  12    0.68    0.77
  -2   0  12    1.26    0.65
   1   0 -12    3.51    0.68
  -1   0  12    5.53    0.90
  -1   0  12    3.00    0.71
   0   0 -12   -0.16    0.56
   0   0  12   -0.72    0.78
   0   0  12    0.67    0.61
  -1   0 -12   13.17    1.12
   1   0  12   14.61    1.22
   1   0  12   15.61    1.12
  -2   0 -12   15.07    1.21
   2   0  12   13.01    1.22
   2   0  12   12.92    1.02
  -3   0 -12    7.79    1.00
   3   0  12    6.74    0.91
   3   0  12    7.05    1.10
   9  -1 -12    3.14    0.60
  -9   1  12   -0.27    2.17
  -9   1  12    3.80    1.31
  -9   1  12    0.13    1.39
   8  -1 -12    0.61    0.51
  -8   1  12   -2.42    1.97
  -8   1  12    1.37    1.21
  -8   1  12   -3.06    1.39
   7  -1 -12    1.35    0.50
  -7   1  12   -0.16    1.39
  -7   1  12   -2.39    1.65
   6  -1 -12   15.65    0.89
  -6   1  12   11.46    2.00
  -6   1  12   11.16    1.74
   5  -1 -12   17.03    0.96
  -5   1  12   17.41    1.83
  -5   1  12   13.10    2.00
   4  -1 -12   10.73    0.85
  -4   1  12    8.50    1.71
   3  -1 -12   11.58    0.91
  -3   1  12   13.46    0.92
   2  -1 -12    4.68    0.69
  -2   1  12    3.68    0.72
  -2   1  12    4.99    0.87
   1  -1 -12    3.63    0.69
  -1   1  12    3.13    0.86
  -1   1  12    2.64    0.69
   0  -1 -12    1.97    0.68
   0   1  12    1.36    0.84
   0   1  12    2.47    0.73
  -1  -1 -12    0.37    0.64
   1   1  12   -0.25    0.69
   1   1  12   -1.27    0.83
  -2  -1 -12   -0.64    0.74
   2   1  12   -1.17    0.66
   2   1  12   -0.62    0.81
   9  -2 -12    0.64    0.52
  -9   2  12   -3.47    1.32
  -9   2  12    0.71    1.25
  -9   2  12   -3.96    2.22
   8  -2 -12    0.19    0.53
  -8   2  12   -4.08    2.05
  -8   2  12   -2.69    1.37
   7  -2 -12    0.92    0.54
  -7   2  12   -2.59    1.85
  -7   2  12   -1.00    1.36
   6  -2 -12    2.17    0.57
  -6   2  12   -0.43    1.54
  -6   2  12   -0.54    1.60
   5  -2 -12    5.20    0.66
  -5   2  12    1.54    1.56
   4  -2 -12   -0.06    0.53
   3  -2 -12    1.86    0.56
  -3   2  12    1.20    0.64
   2  -2 -12    8.01    0.80
  -2   2  12    7.10    0.80
  -2   2  12    8.21    1.01
   1  -2 -12    8.01    0.82
  -1   2  12    9.39    1.04
  -1   2  12    9.37    0.88
   0  -2 -12   10.67    0.94
   0   2  12   10.79    0.94
   0   2  12   10.38    1.05
  -1  -2 -12    2.70    0.79
   1   2  12    1.92    0.76
   1   2  12    2.10    0.94
  -2  -2 -12    1.82    0.83
   2   2  12    2.96    0.84
   9  -3 -12   10.62    0.85
  -9   3  12    7.46    1.71
   8  -3 -12    8.80    0.76
  -8   3  12    7.26    1.69
   7  -3 -12   12.14    0.87
  -7   3  12    8.21    1.70
   6  -3 -12    2.82    0.59
  -6   3  12   -0.85    1.52
   5  -3 -12    0.07    0.53
   4  -3 -12    0.11    0.55
   3  -3 -12    0.11    0.55
   2  -3 -12    6.20    0.74
  -2   3  12    5.93    0.80
  -2   3  12    6.25    0.97
   1  -3 -12    3.37    0.73
  -1   3  12    2.75    0.91
  -1   3  12    2.92    0.75
   0  -3 -12    0.17    0.70
   0   3  12   -0.27    0.71
   0   3  12   -1.38    0.83
  -1  -3 -12    0.77    0.75
   1   3  12    1.08    0.73
   1   3  12   -0.85    0.92
   8  -4 -12    5.42    0.67
  -8   4  12    5.99    1.75
   7  -4 -12    4.64    0.69
  -7   4  12    0.63    1.64
   6  -4 -12    4.97    0.69
  -6   4  12    5.66    1.75
   5  -4 -12    7.65    0.78
   4  -4 -12   16.30    1.06
   3  -4 -12   10.63    0.90
   2  -4 -12    3.38    0.75
  -2   4  12    4.42    0.79
   1  -4 -12    1.87    0.74
  -1   4  12    1.13    0.74
  -1   4  12   -0.34    0.88
   0  -4 -12    1.57    0.78
   0   4  12    1.16    0.79
   0   4  12    2.21    0.99
   8  -5 -12   -0.24    0.60
  -8   5  12   -3.03    1.55
   7  -5 -12    3.50    0.67
  -7   5  12    1.75    1.71
   6  -5 -12    0.21    0.61
   5  -5 -12    4.90    0.74
   4  -5 -12    9.28    0.89
   3  -5 -12    6.03    0.82
   2  -5 -12    5.23    0.84
   6  -6 -12    3.97    0.76
   5  -6 -12    1.04    0.68
   4  -6 -12    0.31    0.68
   2  10 -13    2.82    0.79
   1  10 -13    4.05    0.83
   0  10 -13    4.11    0.85
   0 -10  13    5.35    1.07
   4   9 -13    1.17    0.71
  -4  -9  13    0.32    2.04
   3   9 -13    1.56    0.71
  -3  -9  13    3.35    2.35
   2   9 -13    1.18    0.66
   1   9 -13    0.59    0.71
   0   9 -13    4.88    0.85
   0  -9  13    4.56    1.02
  -1   9 -13    2.20    0.75
   1  -9  13    1.41    1.00
   5   8 -13    1.40    0.68
  -5  -8  13    0.00    2.23
   4   8 -13    2.46    0.73
  -4  -8  13   -0.03    2.20
   3   8 -13    0.63    0.68
  -3  -8  13    0.85    2.18
   2   8 -13    0.81    0.70
   1   8 -13    0.36    0.71
  -1  -8  13    0.26    0.81
   0   8 -13    3.85    0.83
   0  -8  13    3.16    0.84
   0  -8  13    4.07    1.02
  -1   8 -13    2.41    0.80
   1  -8  13    2.35    0.82
   1  -8  13    0.70    0.94
  -2   8 -13    1.07    0.76
   2  -8  13   -0.01    0.91
   2  -8  13    1.54    0.91
   6   7 -13   10.91    0.96
  -6  -7  13    6.72    2.69
   5   7 -13    5.55    0.78
  -5  -7  13    1.72    2.16
   4   7 -13   14.84    1.08
  -4  -7  13   10.58    2.82
   3   7 -13   20.17    1.21
  -3  -7  13   14.67    2.95
   2   7 -13    8.16    0.89
   1   7 -13    8.79    0.91
  -1  -7  13   11.81    1.01
  -1  -7  13   11.59    1.17
   0   7 -13    3.99    0.81
   0  -7  13    2.76    0.96
   0  -7  13    3.11    0.87
  -1   7 -13   -0.23    0.65
   1  -7  13   -0.07    0.86
   1  -7  13    0.76    0.83
  -2   7 -13    1.20    0.78
   2  -7  13    1.79    1.04
   2  -7  13    0.95    0.81
   7   6 -13    1.89    0.69
  -7  -6  13   -0.62    1.46
  -7  -6  13    1.08    2.52
   6   6 -13    0.27    0.62
   6   6 -13    0.04    0.61
  -6  -6  13   -1.50    2.31
   5   6 -13    0.38    0.61
   5   6 -13    0.76    0.63
  -5  -6  13   -0.81    1.98
   4   6 -13    4.82    0.73
   4   6 -13    4.10    0.69
  -4  -6  13    3.12    2.33
   3   6 -13   39.02    1.67
   3   6 -13   40.04    1.69
  -3  -6  13   33.48    4.32
   2   6 -13   22.17    1.25
   2   6 -13   23.77    1.29
  -2  -6  13   29.46    1.39
  -2  -6  13   26.29    3.94
   1   6 -13   19.32    1.24
   1   6 -13   18.95    1.25
  -1  -6  13   18.82    1.52
  -1  -6  13   22.19    1.38
   0   6 -13   23.65    1.38
   0   6 -13   24.42    1.40
   0  -6  13   27.15    1.40
   0  -6  13   27.37    1.58
  -1   6 -13   12.29    1.06
  -1   6 -13   10.12    1.01
   1  -6  13   11.89    1.10
   1  -6  13   13.28    1.30
  -2   6 -13    4.80    0.86
  -2   6 -13    5.72    0.90
   2  -6  13    5.16    0.93
   2  -6  13    4.52    1.05
  -3   6 -13    3.10    0.86
   3  -6  13    1.72    1.07
   3  -6  13    1.41    0.88
   7   5 -13   14.37    1.03
   7   5 -13   13.70    1.02
  -7  -5  13   11.30    1.87
  -7  -5  13    8.64    2.78
   6   5 -13   11.54    0.94
   6   5 -13   11.92    0.98
  -6  -5  13    9.31    1.83
  -6  -5  13    9.40    2.79
   5   5 -13    8.16    0.83
  -5  -5  13    6.44    2.33
   4   5 -13    9.37    0.88
  -4  -5  13    8.08    2.48
   3   5 -13   -0.58    0.55
  -3  -5  13    0.97    2.11
   2   5 -13   -0.07    0.63
  -2  -5  13    2.11    0.79
  -2  -5  13   -0.11    0.78
  -2  -5  13    0.36    2.01
   1   5 -13    0.73    0.69
  -1  -5  13    1.34    0.76
  -1  -5  13    1.57    0.88
   0   5 -13   16.81    1.14
   0  -5  13   17.42    1.36
   0  -5  13   19.91    1.22
  -1   5 -13   32.07    1.59
  -1   5 -13   30.50    1.57
   1  -5  13   28.96    1.78
   1  -5  13   28.37    1.46
  -2   5 -13   16.47    1.29
  -2   5 -13   16.85    1.27
   2  -5  13   14.56    1.37
   2  -5  13   17.11    1.20
  -3   5 -13   11.32    1.09
  -3   5 -13   10.49    1.07
   3  -5  13    9.86    1.06
   3  -5  13    8.23    1.23
   8   4 -13    1.22    0.65
   8   4 -13    0.50    0.63
  -8  -4  13   -2.51    1.45
  -8  -4  13   -2.10    2.28
   7   4 -13    6.47    0.79
  -7  -4  13    2.70    1.63
  -7  -4  13    3.10    2.49
   6   4 -13   12.27    1.03
  -6  -4  13   13.26    1.85
  -6  -4  13   10.91    2.72
   5   4 -13    5.42    0.73
  -5  -4  13    3.05    2.25
  -5  -4  13    1.24    1.61
   4   4 -13    5.46    0.73
  -4  -4  13    5.01    2.20
   3   4 -13    5.20    0.69
  -3  -4  13    7.59    2.23
   2   4 -13   -0.39    0.58
  -2  -4  13   -0.23    0.69
  -2  -4  13    0.42    0.84
  -2  -4  13    1.40    1.92
   1   4 -13    0.68    0.64
  -1  -4  13    1.02    0.86
  -1  -4  13    3.35    2.14
  -1  -4  13    0.68    0.73
   0   4 -13   -0.26    0.66
   0  -4  13    0.10    0.73
   0  -4  13   -0.96    0.82
  -1   4 -13    1.17    0.74
   1  -4  13    1.20    0.93
   1  -4  13    1.75    0.78
  -2   4 -13    0.57    0.72
   2  -4  13    0.02    0.77
   2  -4  13   -0.66    0.85
  -3   4 -13    0.14    0.82
  -3   4 -13    0.55    0.82
   3  -4  13   -0.23    0.80
   3  -4  13   -1.05    0.95
   8   3 -13    0.03    0.59
  -8  -3  13   -1.64    2.41
  -8  -3  13   -3.50    1.47
   7   3 -13    1.26    0.59
  -7  -3  13   -1.54    1.50
  -7  -3  13    0.18    2.30
   6   3 -13    8.20    0.78
  -6  -3  13    8.06    1.72
  -6  -3  13    6.50    2.37
   5   3 -13    1.73    0.62
  -5  -3  13    1.05    1.53
  -5  -3  13    1.29    1.98
   4   3 -13    0.24    0.56
  -4  -3  13    0.78    1.82
   3   3 -13    4.70    0.72
  -3  -3  13    5.78    2.05
   2   3 -13    5.45    0.77
  -2  -3  13    7.41    0.85
  -2  -3  13    6.76    2.12
  -2  -3  13    6.11    0.96
   1   3 -13    5.17    0.76
  -1  -3  13    4.91    0.82
  -1  -3  13    3.90    0.92
  -1  -3  13    6.26    2.02
   0   3 -13    3.89    0.73
   0  -3  13    4.18    0.98
   0  -3  13    3.25    0.80
  -1   3 -13    1.69    0.75
   1  -3  13    0.26    0.89
   1  -3  13    0.49    0.69
  -2   3 -13    0.24    0.75
   2  -3  13   -1.73    0.88
   2  -3  13   -0.37    0.76
   8   2 -13    5.25    0.72
  -8  -2  13    2.76    2.52
  -8  -2  13    3.27    1.59
   7   2 -13    2.91    0.62
  -7  -2  13   -0.92    1.54
  -7  -2  13    0.72    2.20
   6   2 -13    0.39    0.55
  -6  -2  13   -0.34    2.00
  -6  -2  13   -1.93    1.53
   5   2 -13    0.30    0.55
  -5  -2  13   -3.27    1.56
  -5  -2  13   -0.37    1.72
   4   2 -13   -0.42    0.54
  -4  -2  13   -0.62    1.73
   3   2 -13    6.77    0.75
  -3  -2  13    6.08    1.92
   2   2 -13   14.66    1.05
  -2  -2  13   16.04    1.17
  -2  -2  13   18.86    2.78
  -2  -2  13   14.63    1.23
   1   2 -13    0.15    0.64
  -1  -2  13    0.63    0.85
  -1  -2  13    0.89    0.71
   0   2 -13    1.82    0.73
   0  -2  13    0.79    0.87
   0  -2  13    0.38    0.66
  -1   2 -13    2.44    0.78
   1  -2  13    1.93    0.79
   1  -2  13    2.20    0.87
  -2   2 -13    2.23    0.81
   2  -2  13    1.34    0.90
   2  -2  13    1.06    0.79
  -8  -1  13    1.82    2.29
  -8  -1  13    1.92    1.55
   7   1 -13   11.37    0.89
  -7  -1  13    9.56    2.42
  -7  -1  13    8.20    1.72
   6   1 -13   16.35    0.99
  -6  -1  13   13.66    2.42
  -6  -1  13   15.02    1.91
   5   1 -13    8.69    0.79
  -5  -1  13    7.76    2.05
  -5  -1  13    8.08    1.78
   4   1 -13   14.02    0.97
  -4  -1  13   11.60    2.05
   3   1 -13    5.30    0.72
   2   1 -13   -0.20    0.60
  -2  -1  13   -0.29    0.84
  -2  -1  13    1.15    0.70
   1   1 -13   -0.56    0.61
  -1  -1  13    0.23    0.83
  -1  -1  13   -0.65    0.66
   0   1 -13   -0.77    0.59
   0  -1  13   -0.41    0.83
   0  -1  13   -0.05    0.70
  -1   1 -13    9.20    0.99
   1  -1  13    8.73    0.94
   1  -1  13    8.62    1.13
  -2   1 -13    8.04    0.95
   2  -1  13    7.83    0.97
   2  -1  13    8.56    1.15
   8   0 -13   -0.14    0.55
  -8   0  13   -2.65    2.01
  -8   0  13   -3.25    1.51
   7   0 -13    0.28    0.54
  -7   0  13   -1.54    1.83
  -7   0  13   -3.42    1.44
   6   0 -13   14.64    0.99
  -6   0  13   10.55    2.24
  -6   0  13   10.91    1.92
   5   0 -13   20.93    1.09
  -5   0  13   18.61    2.07
  -5   0  13   16.08    2.31
   4   0 -13   17.14    1.00
   3   0 -13   20.45    1.16
   2   0 -13    9.73    0.89
  -2   0  13   11.20    0.93
  -2   0  13   10.23    1.09
   1   0 -13    8.28    0.87
  -1   0  13    8.68    1.09
  -1   0  13   10.14    0.92
   0   0 -13    4.15    0.76
   0   0  13    4.40    0.82
   0   0  13    4.28    1.00
  -1   0 -13   -0.02    0.68
   1   0  13   -0.51    0.74
   1   0  13   -0.02    0.92
  -8   1  13   -0.31    1.61
  -8   1  13    0.90    2.14
   7  -1 -13    9.13    0.80
  -7   1  13    5.09    1.78
  -7   1  13    4.58    2.03
   6  -1 -13    0.05    0.54
  -6   1  13   -2.84    1.51
   5  -1 -13    0.28    0.55
   4  -1 -13   -0.74    0.54
   3  -1 -13    1.53    0.63
   2  -1 -13   17.23    1.13
  -2   1  13   16.22    1.19
   1  -1 -13   16.59    1.16
  -1   1  13   17.00    1.22
  -1   1  13   16.43    1.31
   0  -1 -13   11.53    1.02
   0   1  13   11.93    0.97
   0   1  13   10.52    1.20
  -1  -1 -13   10.86    1.05
   1   1  13    9.41    1.20
   1   1  13    9.11    1.00
  -8   2  13    2.77    1.73
   7  -2 -13    9.92    0.81
  -7   2  13    6.56    1.92
  -6   2  13   -0.16    1.71
   5  -2 -13    1.20    0.59
   4  -2 -13    1.15    0.62
   3  -2 -13   -0.25    0.56
   2  -2 -13    3.05    0.73
  -2   2  13    1.57    0.76
   1  -2 -13    1.95    0.74
  -1   2  13    1.58    0.78
  -1   2  13    1.51    0.95
   0  -2 -13    0.85    0.75
   0   2  13   -0.77    0.94
   0   2  13   -0.26    0.77
   7  -3 -13    2.93    0.66
  -7   3  13    0.81    1.73
   6  -3 -13    4.95    0.73
   5  -3 -13    4.80    0.74
   4  -3 -13    4.30    0.73
   3  -3 -13    5.25    0.79
   2  -3 -13    0.73    0.64
   1  -3 -13    0.91    0.73
  -1   3  13    0.52    0.79
   6  -4 -13    1.96    0.67
   5  -4 -13    8.05    0.82
   4  -4 -13    6.69    0.84
   3  -4 -13    4.20    0.81
   3   8 -14    2.54    0.75
  -3  -8  14    4.01    2.48
   2   8 -14    0.83    0.75
   1   8 -14    2.06    0.80
   0   8 -14    2.67    0.86
   4   7 -14    2.35    0.75
  -4  -7  14    1.23    2.34
   3   7 -14    8.02    0.93
  -3  -7  14    6.53    2.57
   2   7 -14    2.36    0.73
   2   7 -14    1.87    0.71
  -2  -7  14    5.42    2.50
   1   7 -14    0.65    0.75
  -1  -7  14    1.64    0.81
   0   7 -14    3.50    0.86
   0  -7  14    2.67    1.06
   0  -7  14    2.74    0.87
   5   6 -14    2.94    0.73
   5   6 -14    3.02    0.74
  -5  -6  14    1.22    2.20
   4   6 -14    4.09    0.80
   4   6 -14    3.64    0.78
  -4  -6  14    1.47    2.36
   3   6 -14    0.60    0.66
   3   6 -14   -0.54    0.63
  -3  -6  14    1.08    2.33
   2   6 -14    1.42    0.70
   2   6 -14    0.97    0.70
  -2  -6  14    4.01    2.31
   1   6 -14    0.47    0.69
   1   6 -14    1.44    0.71
  -1  -6  14    1.68    0.86
   0   6 -14    8.21    0.97
   0   6 -14    8.76    0.95
   0  -6  14    8.65    1.08
   0  -6  14    9.38    1.24
  -1   6 -14   15.11    1.21
  -1   6 -14   17.60    1.33
   1  -6  14   16.26    1.28
   1  -6  14   15.40    1.49
   6   5 -14   23.92    1.36
   6   5 -14   23.61    1.30
  -6  -5  14   14.65    3.25
   5   5 -14   16.20    1.15
  -5  -5  14   12.89    2.94
   4   5 -14   20.73    1.27
  -4  -5  14   18.75    3.06
   3   5 -14   16.53    1.18
  -3  -5  14   16.37    2.89
   2   5 -14    4.92    0.84
  -2  -5  14    7.28    2.43
   1   5 -14    2.72    0.79
  -1  -5  14    2.69    2.35
  -1  -5  14    0.75    0.96
  -1  -5  14    3.14    0.90
   0   5 -14    0.19    0.76
   0  -5  14   -0.53    0.82
   0  -5  14   -1.14    0.97
  -1   5 -14    1.97    0.82
  -1   5 -14    2.69    0.83
   1  -5  14    3.32    0.92
   1  -5  14    3.69    1.13
   7   4 -14   -0.25    0.65
   6   4 -14    5.73    0.80
  -6  -4  14    3.63    2.51
   5   4 -14    2.29    0.70
  -5  -4  14    0.12    2.22
   4   4 -14    4.78    0.76
  -4  -4  14    3.90    2.31
   3   4 -14   19.37    1.20
  -3  -4  14   18.58    2.86
   2   4 -14   20.15    1.28
  -2  -4  14   25.84    3.86
   1   4 -14   13.75    1.16
  -1  -4  14   15.26    1.36
  -1  -4  14   13.39    1.12
   0   4 -14   14.18    1.13
   0  -4  14   14.67    1.18
   0  -4  14   16.20    1.42
  -1   4 -14    5.35    0.89
   1  -4  14    3.85    1.12
   1  -4  14    3.76    0.92
   7   3 -14    5.09    0.76
  -7  -3  14    2.87    2.50
  -7  -3  14    0.66    1.78
   6   3 -14   -0.63    0.60
  -6  -3  14   -0.55    2.14
   5   3 -14    0.18    0.62
  -5  -3  14   -1.33    1.97
   4   3 -14   -0.71    0.62
  -4  -3  14   -0.32    1.91
   3   3 -14    3.13    0.68
  -3  -3  14    1.84    1.99
   2   3 -14    7.17    0.87
   1   3 -14    2.65    0.71
  -1  -3  14    2.80    1.01
  -1  -3  14    2.71    0.86
   0   3 -14    3.30    0.81
   0  -3  14    2.98    0.86
   0  -3  14    2.11    1.02
  -1   3 -14    5.47    0.95
   1  -3  14    3.42    1.03
   1  -3  14    5.00    0.94
   7   2 -14    5.16    0.75
  -7  -2  14   -0.28    1.80
  -7  -2  14    1.58    2.33
   6   2 -14    2.39    0.68
  -6  -2  14   -1.58    2.02
   5   2 -14    0.74    0.61
  -5  -2  14   -1.50    1.97
   4   2 -14    0.73    0.63
  -4  -2  14   -0.50    1.82
   3   2 -14    0.43    0.64
   2   2 -14    0.85    0.64
   1   2 -14    0.40    0.65
  -1  -2  14   -1.06    0.90
  -1  -2  14   -0.63    0.76
   0   2 -14   -0.30    0.72
   0  -2  14   -1.50    0.93
   0  -2  14   -0.64    0.79
   7   1 -14    1.03    0.65
  -7  -1  14   -5.64    1.64
  -7  -1  14   -1.34    2.06
   6   1 -14   13.14    1.05
  -6  -1  14    7.90    2.40
   5   1 -14    9.88    0.87
   4   1 -14    5.75    0.78
   3   1 -14    2.80    0.70
   2   1 -14    2.09    0.68
   1   1 -14    0.43    0.71
  -1  -1  14    1.05    0.83
  -1  -1  14    0.30    0.94
   0   1 -14   -0.27    0.74
   0  -1  14   -0.10    0.74
   0  -1  14   -1.20    0.91
  -7   0  14    0.31    2.18
  -7   0  14    1.55    1.78
   6   0 -14   -0.23    0.59
   5   0 -14    0.79    0.63
   4   0 -14    1.16    0.64
   3   0 -14    3.94    0.75
   2   0 -14    7.65    0.89
   1   0 -14    7.79    0.89
  -1   0  14    8.17    0.98
   7  -1 -14   16.59    1.07
   6  -1 -14   10.96    0.91
   5  -1 -14    3.92    0.71
   4  -1 -14    5.17    0.72
   3  -1 -14    0.71    0.67
   2  -1 -14    2.47    0.76
   6  -2 -14    4.58    0.74
   5  -2 -14    7.29    0.83
   4  -2 -14   10.19    0.94
   3  -2 -14    8.17    0.90
   3   5 -15   10.80    1.01
   4   4 -15    0.51    0.72
  -4  -4  15   -1.12    2.28
   3   4 -15    3.76    0.82
   2   4 -15    9.73    0.98
   4   3 -15    8.77    0.93
   3   3 -15    3.43    0.75
   2   3 -15    0.79    0.74
   4   2 -15    3.43    0.79
   3   2 -15    5.39    0.86
   0   0   0    0.00    0.00
;
_shelx_hkl_checksum              21162
loop_
_space_group_symop_operation_xyz
'x, y, z'
'-x, -y, -z'
loop_
_atom_site_label
_atom_site_type_symbol
_atom_site_fract_x
_atom_site_fract_y
_atom_site_fract_z
_atom_site_U_iso_or_equiv
_atom_site_adp_type
_atom_site_occupancy
_atom_site_site_symmetry_order
_atom_site_calc_flag
_atom_site_refinement_flags_posn
_atom_site_refinement_flags_adp
_atom_site_refinement_flags_occupancy
_atom_site_disorder_assembly
_atom_site_disorder_group
C1 C 0.3278(4) 0.3595(3) 0.3570(3) 0.0397(9) Uani 1 1 d . . . . .
H1 H 0.2510 0.3835 0.3041 0.048 Uiso 1 1 calc R U . . .
C2 C 0.2977(4) 0.3098(4) 0.4525(3) 0.0377(9) Uani 1 1 d . . . . .
C3 C 0.4131(5) 0.2751(4) 0.5307(4) 0.0473(10) Uani 1 1 d . . . . .
H3 H 0.3929 0.2412 0.5950 0.057 Uiso 1 1 calc R U . . .
C4 C 0.5584(5) 0.2907(4) 0.5130(4) 0.0545(11) Uani 1 1 d . . . . .
H4 H 0.6360 0.2675 0.5660 0.065 Uiso 1 1 calc R U . . .
C5 C 0.5899(5) 0.3401(4) 0.4185(4) 0.0490(11) Uani 1 1 d . . . . .
H5 H 0.6882 0.3511 0.4068 0.059 Uiso 1 1 calc R U . . .
C6 C 0.4726(5) 0.3727(4) 0.3414(3) 0.0423(9) Uani 1 1 d . . . . .
C7 C 0.7092(5) 0.1322(4) 0.1512(3) 0.0402(9) Uani 1 1 d . . . . .
H7 H 0.7674 0.1815 0.1128 0.048 Uiso 1 1 calc R U . . .
C8 C 0.5513(5) 0.1218(4) 0.1319(3) 0.0448(10) Uani 1 1 d . . . . .
C9 C 0.4663(5) 0.0482(4) 0.1880(4) 0.0536(11) Uani 1 1 d . . . . .
H9 H 0.3593 0.0400 0.1729 0.064 Uiso 1 1 calc R U . . .
C10 C 0.5390(6) -0.0136(4) 0.2665(4) 0.0582(12) Uani 1 1 d . . . . .
H10 H 0.4811 -0.0627 0.3052 0.070 Uiso 1 1 calc R U . . .
C11 C 0.6966(5) -0.0034(4) 0.2883(4) 0.0487(10) Uani 1 1 d . . . . .
H11 H 0.7467 -0.0440 0.3424 0.058 Uiso 1 1 calc R U . . .
C12 C 0.7780(4) 0.0677(4) 0.2286(3) 0.0389(9) Uani 1 1 d . . . . .
N1 N 0.1451(4) 0.2899(3) 0.4651(3) 0.0606(10) Uani 1 1 d . . . . .
H1A H 0.1109 0.3554 0.4528 0.091 Uiso 1 1 calc R U . . .
H1B H 0.1513 0.2850 0.5439 0.091 Uiso 1 1 calc R U . . .
H1C H 0.0773 0.2166 0.4066 0.091 Uiso 0.5 1 calc R U P . .
N2 N 0.5011(5) 0.4172(3) 0.2339(3) 0.0640(11) Uani 1 1 d . . . . .
H2A H 0.5019 0.3515 0.1735 0.096 Uiso 0.5 1 calc R U P . .
H2B H 0.5946 0.4795 0.2628 0.096 Uiso 1 1 calc R U . . .
H2C H 0.4240 0.4476 0.2004 0.096 Uiso 1 1 calc R U . . .
N3 N 0.4820(5) 0.1951(4) 0.0583(3) 0.0615(10) Uani 1 1 d . . . . .
H3A H 0.3772 0.1562 0.0226 0.092 Uiso 1 1 calc R U . . .
H3B H 0.5241 0.2009 -0.0035 0.092 Uiso 1 1 calc R U . . .
H3C H 0.5015 0.2739 0.1098 0.092 Uiso 0.5 1 calc R U P . .
N4 N 0.9470(4) 0.0797(3) 0.2506(3) 0.0519(9) Uani 1 1 d . . . . .
H4A H 1.0076 0.1444 0.3220 0.078 Uiso 0.5 1 calc R U P . .
H4B H 0.9725 0.0955 0.1835 0.078 Uiso 1 1 calc R U . . .
H4C H 0.9631 0.0065 0.2596 0.078 Uiso 1 1 calc R U . . .
Br1 Br 0.67185(4) -0.33322(4) 0.15737(4) 0.04743(11) Uani 1 1 d . . . . .
Br2 Br 0.94686(5) -0.51247(4) 0.30289(4) 0.05341(12) Uani 1 1 d . . . . .
Br3 Br 0.75927(4) -0.58796(4) -0.09277(4) 0.04829(11) Uani 1 1 d . . . . .
Br4 Br 1.11600(5) -0.13879(4) 0.35379(4) 0.05907(13) Uani 1 1 d . . . . .
Br5 Br 0.93566(5) -0.18140(4) -0.01332(4) 0.05309(12) Uani 1 1 d . . . . .
Bi1 Bi 0.95346(2) -0.35497(2) 0.14101(2) 0.03091(6) Uani 1 1 d . . . . .
loop_
_atom_site_aniso_label
_atom_site_aniso_U_11
_atom_site_aniso_U_22
_atom_site_aniso_U_33
_atom_site_aniso_U_23
_atom_site_aniso_U_13
_atom_site_aniso_U_12
C1 0.047(2) 0.034(2) 0.035(2) 0.0072(17) 0.0075(17) 0.0173(18)
C2 0.040(2) 0.035(2) 0.037(2) 0.0068(17) 0.0154(17) 0.0121(17)
C3 0.066(3) 0.048(3) 0.037(2) 0.0219(19) 0.020(2) 0.024(2)
C4 0.051(3) 0.061(3) 0.049(3) 0.015(2) 0.006(2) 0.026(2)
C5 0.042(2) 0.046(3) 0.056(3) 0.007(2) 0.020(2) 0.0106(19)
C6 0.059(3) 0.031(2) 0.039(2) 0.0115(17) 0.0221(19) 0.0112(19)
C7 0.053(2) 0.037(2) 0.032(2) 0.0091(17) 0.0153(17) 0.0151(19)
C8 0.053(2) 0.045(2) 0.032(2) 0.0040(18) 0.0064(18) 0.024(2)
C9 0.042(2) 0.053(3) 0.055(3) 0.004(2) 0.014(2) 0.012(2)
C10 0.070(3) 0.045(3) 0.060(3) 0.021(2) 0.031(2) 0.005(2)
C11 0.063(3) 0.040(2) 0.045(2) 0.0172(19) 0.015(2) 0.020(2)
C12 0.046(2) 0.035(2) 0.033(2) 0.0065(17) 0.0094(17) 0.0147(18)
N1 0.058(2) 0.064(3) 0.062(2) 0.010(2) 0.0293(19) 0.0224(19)
N2 0.094(3) 0.046(2) 0.066(3) 0.0281(19) 0.046(2) 0.016(2)
N3 0.075(3) 0.071(3) 0.041(2) 0.0139(18) 0.0065(18) 0.045(2)
N4 0.051(2) 0.060(2) 0.049(2) 0.0160(18) 0.0158(16) 0.0276(18)
Br1 0.0433(2) 0.0610(3) 0.0661(3) 0.0375(2) 0.0339(2) 0.0323(2)
Br2 0.0644(3) 0.0577(3) 0.0608(3) 0.0378(2) 0.0295(2) 0.0320(2)
Br3 0.03070(19) 0.0562(3) 0.0520(2) 0.0040(2) 0.01367(18) 0.01520(18)
Br4 0.0643(3) 0.0486(3) 0.0456(2) 0.0026(2) -0.0048(2) 0.0221(2)
Br5 0.0663(3) 0.0594(3) 0.0503(3) 0.0330(2) 0.0290(2) 0.0242(2)
Bi1 0.03204(8) 0.03464(9) 0.03192(8) 0.01244(6) 0.01409(6) 0.01519(6)
loop_
_atom_type_symbol
_atom_type_description
_atom_type_scat_dispersion_real
_atom_type_scat_dispersion_imag
_atom_type_scat_source
C C 0.0033 0.0016 'International Tables Vol C Tables 4.2.6.8 and 6.1.1.4'
H H 0.0000 0.0000 'International Tables Vol C Tables 4.2.6.8 and 6.1.1.4'
N N 0.0061 0.0033 'International Tables Vol C Tables 4.2.6.8 and 6.1.1.4'
Br Br -0.2901 2.4595 'International Tables Vol C Tables 4.2.6.8 and 6.1.1.4'
Bi Bi -4.1077 10.2566 'International Tables Vol C Tables 4.2.6.8 and 6.1.1.4'
loop_
_geom_angle_atom_site_label_1
_geom_angle_atom_site_label_2
_geom_angle_atom_site_label_3
_geom_angle
_geom_angle_site_symmetry_1
_geom_angle_site_symmetry_3
C6 C1 C2 118.7(4) . .
C6 C1 H1 120.6 . .
C2 C1 H1 120.6 . .
C1 C2 C3 120.0(4) . .
C1 C2 N1 119.0(3) . .
C3 C2 N1 120.9(4) . .
C2 C3 C4 119.7(4) . .
C2 C3 H3 120.1 . .
C4 C3 H3 120.1 . .
C5 C4 C3 120.9(4) . .
C5 C4 H4 119.6 . .
C3 C4 H4 119.6 . .
C6 C5 C4 118.2(4) . .
C6 C5 H5 120.9 . .
C4 C5 H5 120.9 . .
C1 C6 C5 122.5(4) . .
C1 C6 N2 118.9(4) . .
C5 C6 N2 118.6(4) . .
C12 C7 C8 118.2(4) . .
C12 C7 H7 120.9 . .
C8 C7 H7 120.9 . .
C9 C8 C7 120.5(4) . .
C9 C8 N3 121.0(4) . .
C7 C8 N3 118.4(4) . .
C8 C9 C10 120.0(4) . .
C8 C9 H9 120.0 . .
C10 C9 H9 120.0 . .
C11 C10 C9 120.5(4) . .
C11 C10 H10 119.8 . .
C9 C10 H10 119.8 . .
C12 C11 C10 118.5(4) . .
C12 C11 H11 120.8 . .
C10 C11 H11 120.8 . .
C11 C12 C7 122.3(4) . .
C11 C12 N4 119.3(4) . .
C7 C12 N4 118.4(4) . .
C2 N1 H1A 109.5 . .
C2 N1 H1B 109.5 . .
H1A N1 H1B 109.5 . .
C2 N1 H1C 109.5 . .
H1A N1 H1C 109.5 . .
H1B N1 H1C 109.5 . .
C6 N2 H2A 109.5 . .
C6 N2 H2B 109.5 . .
H2A N2 H2B 109.5 . .
C6 N2 H2C 109.5 . .
H2A N2 H2C 109.5 . .
H2B N2 H2C 109.5 . .
C8 N3 H3A 109.5 . .
C8 N3 H3B 109.5 . .
H3A N3 H3B 109.5 . .
C8 N3 H3C 109.5 . .
H3A N3 H3C 109.5 . .
H3B N3 H3C 109.5 . .
C12 N4 H4A 109.5 . .
C12 N4 H4B 109.5 . .
H4A N4 H4B 109.5 . .
C12 N4 H4C 109.5 . .
H4A N4 H4C 109.5 . .
H4B N4 H4C 109.5 . .
Bi1 Br3 Bi1 94.426(11) 2_745 .
Br1 Bi1 Br4 90.324(15) . .
Br1 Bi1 Br2 88.456(13) . .
Br4 Bi1 Br2 90.310(14) . .
Br1 Bi1 Br5 85.454(12) . .
Br4 Bi1 Br5 87.243(14) . .
Br2 Bi1 Br5 173.422(13) . .
Br1 Bi1 Br3 172.233(12) . 2_745
Br4 Bi1 Br3 97.433(13) . 2_745
Br2 Bi1 Br3 91.093(13) . 2_745
Br5 Bi1 Br3 95.276(13) . 2_745
Br1 Bi1 Br3 86.674(12) . .
Br4 Bi1 Br3 176.918(12) . .
Br2 Bi1 Br3 90.307(13) . .
Br5 Bi1 Br3 91.818(13) . .
Br3 Bi1 Br3 85.574(11) 2_745 .
loop_
_geom_bond_atom_site_label_1
_geom_bond_atom_site_label_2
_geom_bond_distance
_geom_bond_site_symmetry_2
C1 C6 1.366(5) .
C1 C2 1.376(5) .
C1 H1 0.9300 .
C2 C3 1.380(5) .
C2 N1 1.417(5) .
C3 C4 1.378(6) .
C3 H3 0.9300 .
C4 C5 1.369(6) .
C4 H4 0.9300 .
C5 C6 1.372(6) .
C5 H5 0.9300 .
C6 N2 1.470(5) .
C7 C12 1.374(5) .
C7 C8 1.380(5) .
C7 H7 0.9300 .
C8 C9 1.369(6) .
C8 N3 1.429(5) .
C9 C10 1.374(6) .
C9 H9 0.9300 .
C10 C11 1.375(6) .
C10 H10 0.9300 .
C11 C12 1.366(5) .
C11 H11 0.9300 .
C12 N4 1.474(4) .
N1 H1A 0.8900 .
N1 H1B 0.8900 .
N1 H1C 0.8900 .
N2 H2A 0.8900 .
N2 H2B 0.8900 .
N2 H2C 0.8900 .
N3 H3A 0.8900 .
N3 H3B 0.8900 .
N3 H3C 0.8900 .
N4 H4A 0.8900 .
N4 H4B 0.8900 .
N4 H4C 0.8900 .
Br1 Bi1 2.7087(4) .
Br2 Bi1 2.8072(4) .
Br3 Bi1 3.0189(4) 2_745
Br3 Bi1 3.0269(4) .
Br4 Bi1 2.7640(4) .
Br5 Bi1 2.8868(4) .
Bi1 Br3 3.0188(4) 2_745
loop_
_geom_hbond_atom_site_label_D
_geom_hbond_atom_site_label_H
_geom_hbond_atom_site_label_A
_geom_hbond_distance_DH
_geom_hbond_distance_HA
_geom_hbond_distance_DA
_geom_hbond_angle_DHA
_geom_hbond_site_symmetry_A
C3 H3 Br1 0.93 3.02 3.760(4) 137.2 2_656
N1 H1A Br2 0.89 2.85 3.678(4) 154.8 1_465
N1 H1A Br2 0.89 3.18 3.624(3) 113.5 2_656
N1 H1C N4 0.89 1.92 2.790(4) 165.5 1_455
N2 H2A N3 0.89 1.87 2.755(5) 170.1 .
N2 H2B Br1 0.89 2.67 3.271(3) 125.3 1_565
N2 H2C Br3 0.89 2.79 3.666(4) 166.6 2_655
N3 H3A Br5 0.89 2.93 3.696(4) 144.7 2_655
N3 H3C N2 0.89 1.89 2.755(5) 164.8 .
N4 H4A N1 0.89 1.90 2.790(4) 174.9 1_655
N4 H4B Br5 0.89 2.57 3.453(3) 170.3 2_755
N4 H4C Br4 0.89 2.61 3.448(3) 156.7 .
C3 H3 Br1 0.93 3.02 3.760(4) 137.2 2_656
N1 H1A Br2 0.89 2.85 3.678(4) 154.8 1_465
N1 H1C N4 0.89 1.92 2.790(4) 165.5 1_455
N2 H2A N3 0.89 1.87 2.755(5) 170.1 .
N2 H2B Br1 0.89 2.67 3.271(3) 125.3 1_565
N2 H2B Br2 0.89 3.12 3.806(4) 135.1 1_565
N2 H2C Br3 0.89 2.79 3.666(4) 166.6 2_655
N3 H3A Br5 0.89 2.93 3.696(4) 144.7 2_655
N3 H3C N2 0.89 1.89 2.755(5) 164.8 .
N4 H4A N1 0.89 1.90 2.790(4) 174.9 1_655
N4 H4B Br5 0.89 2.57 3.453(3) 170.3 2_755
N4 H4C Br4 0.89 2.61 3.448(3) 156.7 .
loop_
_geom_torsion_atom_site_label_1
_geom_torsion_atom_site_label_2
_geom_torsion_atom_site_label_3
_geom_torsion_atom_site_label_4
_geom_torsion
_geom_torsion_site_symmetry_1
_geom_torsion_site_symmetry_2
_geom_torsion_site_symmetry_3
_geom_torsion_site_symmetry_4
C6 C1 C2 C3 0.3(5) . . . .
C6 C1 C2 N1 -176.9(3) . . . .
C1 C2 C3 C4 0.2(6) . . . .
N1 C2 C3 C4 177.4(4) . . . .
C2 C3 C4 C5 -0.2(6) . . . .
C3 C4 C5 C6 -0.4(6) . . . .
C2 C1 C6 C5 -0.9(6) . . . .
C2 C1 C6 N2 175.8(3) . . . .
C4 C5 C6 C1 0.9(6) . . . .
C4 C5 C6 N2 -175.8(3) . . . .
C12 C7 C8 C9 -0.5(5) . . . .
C12 C7 C8 N3 176.1(3) . . . .
C7 C8 C9 C10 1.5(6) . . . .
N3 C8 C9 C10 -175.0(4) . . . .
C8 C9 C10 C11 -0.7(6) . . . .
C9 C10 C11 C12 -1.0(6) . . . .
C10 C11 C12 C7 2.0(6) . . . .
C10 C11 C12 N4 -180.0(3) . . . .
C8 C7 C12 C11 -1.3(5) . . . .
C8 C7 C12 N4 -179.4(3) . . . .
