#------------------------------------------------------------------------------
#$Date: 2021-09-07 10:22:53 +0300 (Tue, 07 Sep 2021) $
#$Revision: 269011 $
#$URL: file:///home/coder/svn-repositories/cod/cif/1/56/45/1564568.cif $
#------------------------------------------------------------------------------
#
# This file is available in the Crystallography Open Database (COD),
# http://www.crystallography.net/
#
# All data on this site have been placed in the public domain by the
# contributors.
#
data_1564568
loop_
_publ_author_name
'Sahu, Meman'
'Kumar Manna, Amit'
'Rout, Kalyani'
'Mondal, Jahangir'
'Patra, Goutam K.'
_publ_section_title
;
 A highly selective thiosemicarbazone based Schiff base chemosensor for
 colorimetric detection of Cu2+ and Ag+ ions and turn-on fluorometric
 detection of Ag+ ions
;
_journal_name_full               'Inorganica Chimica Acta'
_journal_page_first              119633
_journal_paper_doi               10.1016/j.ica.2020.119633
_journal_volume                  508
_journal_year                    2020
_chemical_formula_moiety         'C7 H8 N4 S'
_chemical_formula_sum            'C7 H8 N4 S'
_chemical_formula_weight         180.23
_space_group_crystal_system      monoclinic
_space_group_IT_number           14
_space_group_name_Hall           '-P 2yn'
_space_group_name_H-M_alt        'P 1 21/n 1'
_symmetry_Int_Tables_number      14
_atom_sites_solution_primary     iterative
_cell_angle_alpha                90
_cell_angle_beta                 90.180(7)
_cell_angle_gamma                90
_cell_formula_units_Z            4
_cell_length_a                   7.1349(12)
_cell_length_b                   13.9708(19)
_cell_length_c                   8.3593(15)
_cell_measurement_temperature    109(2)
_cell_volume                     833.3(2)
_computing_molecular_graphics    'Olex2 (Dolomanov et al., 2009)'
_computing_publication_material  'Olex2 (Dolomanov et al., 2009)'
_computing_structure_refinement  'olex2.refine (Bourhis et al., 2015)'
_computing_structure_solution    'olex2.solve (Bourhis et al., 2015)'
_diffrn_ambient_temperature      109.38
_diffrn_measured_fraction_theta_full 0.9965
_diffrn_measured_fraction_theta_max 0.9965
_diffrn_radiation_type           'Mo K\a'
_diffrn_radiation_wavelength     0.71073
_diffrn_reflns_av_R_equivalents  0.0847
_diffrn_reflns_av_unetI/netI     0.0612
_diffrn_reflns_limit_h_max       8
_diffrn_reflns_limit_h_min       -8
_diffrn_reflns_limit_k_max       17
_diffrn_reflns_limit_k_min       -17
_diffrn_reflns_limit_l_max       10
_diffrn_reflns_limit_l_min       -10
_diffrn_reflns_number            8148
_diffrn_reflns_theta_full        26.4184
_diffrn_reflns_theta_max         26.42
_diffrn_reflns_theta_min         2.84
_exptl_absorpt_coefficient_mu    0.334
_exptl_crystal_density_diffrn    1.4366
_exptl_crystal_F_000             376.5879
_refine_diff_density_max         0.3406
_refine_diff_density_min         -0.3999
_refine_diff_density_rms         0.0924
_refine_ls_d_res_high            0.7987
_refine_ls_d_res_low             7.1733
_refine_ls_goodness_of_fit_ref   1.0814
_refine_ls_hydrogen_treatment    constr
_refine_ls_matrix_type           full
_refine_ls_number_constraints    15
_refine_ls_number_parameters     109
_refine_ls_number_reflns         1707
_refine_ls_number_restraints     0
_refine_ls_restrained_S_all      1.0814
_refine_ls_R_factor_all          0.0502
_refine_ls_R_factor_gt           0.0449
_refine_ls_shift/su_max          0.0000
_refine_ls_shift/su_mean         0.0000
_refine_ls_structure_factor_coef Fsqd
_refine_ls_weighting_details
'w=1/[\s^2^(Fo^2^)+(0.0643P)^2^+0.3841P] where P=(Fo^2^+2Fc^2^)/3'
_refine_ls_weighting_scheme      calc
_refine_ls_wR_factor_gt          0.1162
_refine_ls_wR_factor_ref         0.1263
_reflns_Friedel_coverage         0.0
_reflns_limit_h_max              6
_reflns_limit_h_min              -8
_reflns_limit_k_max              17
_reflns_limit_k_min              0
_reflns_limit_l_max              10
_reflns_limit_l_min              -6
_reflns_number_gt                1521
_reflns_number_total             1707
_reflns_threshold_expression     I>=2u(I)
_iucr_refine_instructions_details
;
TITL TEST8888_a.res in P2(1)/n
CELL 0.71073 7.1349 13.9708 8.3593 90 90.18 90
ZERR 4 0.0012 0.0019 0.0015 0 0.007 0
LATT 1
SYMM 0.5-X,0.5+Y,0.5-Z
SFAC C H N S
UNIT 28 32 16 4

L.S. 10
PLAN  20
TEMP -163.77
ACTA 
BOND $H
FMAP 2
WGHT 0.064297 0.384052
FVAR 1.301332
REM <olex2.extras>
REM <HklSrc "%.\\TEST8888_a.hkl">
REM </olex2.extras>

S1    4     0.26727  0.57186  0.86135  11.00000  0.02485  0.01958  0.01411 =
 -0.00429 -0.00258  0.00315 
N002  3     0.32774  0.39539  0.50360  11.00000  0.01966  0.01334  0.01436 =
 -0.00233 -0.00013 -0.00163 
N003  3     0.27753  0.47411  0.59155  11.00000  0.02108  0.01364  0.01299 =
 -0.00141 -0.00242  0.00219 
AFIX 43
H003  2     0.20315  0.51816  0.55094  11.00000 -1.20000 
AFIX 0
N2    3     0.37220  0.14030  0.08045  11.00000  0.01946  0.01801  0.01681 =
 -0.00225 -0.00124 -0.00156 
N1    3     0.46863  0.41719  0.79052  11.00000  0.02598  0.02235  0.01451 =
 -0.00309 -0.00556  0.00682 
AFIX 93
H1a   2     0.51412  0.41906  0.88844  11.00000 -1.20000 
H1b   2     0.50485  0.37202  0.72409  11.00000 -1.20000 
AFIX 0
C006  1     0.37682  0.22159  0.33469  11.00000  0.01785  0.01809  0.01335 =
 0.00063 -0.00295 -0.00281 
AFIX 43
H006  2     0.40545  0.21974  0.44571  11.00000 -1.20000 
AFIX 0
C007  1     0.25847  0.38919  0.36257  11.00000  0.02016  0.01383  0.01547 =
 -0.00040 -0.00160 -0.00078 
AFIX 43
H007  2     0.18185  0.43897  0.32092  11.00000 -1.20000 
AFIX 0
C008  1     0.29942  0.30373  0.26601  11.00000  0.01701  0.01522  0.01481 =
 -0.00074 -0.00112 -0.00206 
C009  1     0.34549  0.48245  0.74308  11.00000  0.01941  0.01752  0.01186 =
 0.00017 -0.00036 -0.00407 
C00A  1     0.29833  0.21965  0.01566  11.00000  0.02197  0.02103  0.01359 =
 -0.00156 -0.00198 -0.00054 
AFIX 43
H00A  2     0.27091  0.21954 -0.09562  11.00000 -1.20000 
AFIX 0
C00B  1     0.25950  0.30259  0.10329  11.00000  0.02291  0.01764  0.01589 =
 0.00081 -0.00285  0.00063 
AFIX 43
H00B  2     0.20678  0.35715  0.05241  11.00000 -1.20000 
AFIX 0
C00C  1     0.41121  0.14282  0.23843  11.00000  0.01819  0.01561  0.01773 =
 0.00043 -0.00091 -0.00073 
AFIX 43
H00C  2     0.46518  0.08759  0.28627  11.00000 -1.20000 
AFIX 0
HKLF 4

END
Q1 1 0.541667 0.1 0.166667 11 0.05 0.34
Q2 1 0.291667 0.477778 0.685185 11 0.05 0.33
Q3 1 0.208333 0.6 0.777778 11 0.05 0.32
Q4 1 0.291667 0.577778 0.962963 11 0.05 0.32
Q5 1 0.583333 0 0.259259 11 0.05 0.31
Q6 1 0.333333 0.266667 0.296296 11 0.05 0.31
Q7 1 0.25 0.3 0.203704 11 0.05 0.3
Q8 1 0.083333 0.644444 0.777778 11 0.05 0.29
Q9 1 0.25 0.266667 0.074074 11 0.05 0.27
Q10 1 0.375 0.522222 0.388889 11 0.05 0.26
Q11 1 0.583333 0.044444 0.37037 11 0.05 0.26
Q12 1 0.25 0.122222 0.351852 11 0.05 0.25
Q13 1 0.416667 0.433333 1.092593 11 0.05 0.25
Q14 1 0.291667 0.422222 0 11 0.05 0.25
Q15 1 0.625 0.211111 0.203704 11 0.05 0.25
Q16 1 0.666667 0.144444 0.092593 11 0.05 0.25
Q17 1 0.666667 0.344444 0.981481 11 0.05 0.24
Q18 1 0.25 0.344444 0.314815 11 0.05 0.23
Q19 1 0.5 0.5 0.5 11 0.05 0.22
Q20 1 0.583333 0.433333 0.87037 11 0.05 0.21

  REM The information below was added by Olex2.
  REM
  REM R1 = 0.0449 for 1521 Fo > 4sig(Fo) and 0.0502 for all 1707 data
  REM 109 parameters refined using 0 restraints
  REM Highest difference peak 0.3406, deepest hole -0.3999
  REM Mean Shift 0.0000, Max Shift 0.0000.

  REM +++ Tabular Listing of Refinement Information +++
  REM R1_all = 0.0502
  REM R1_gt = 0.0449
  REM wR_ref = 0.1263
  REM GOOF = 1.0814
  REM Shift_max = 0.0000
  REM Shift_mean = 0.0000
  REM Reflections_all = 1707
  REM Reflections_gt = 1521
  REM Parameters = 109
  REM Hole = -0.3999
  REM Peak = 0.3406
  REM Flack = n/a

  
;
_cod_data_source_file            ICA-2020-508-119633.cif
_cod_data_source_block           TEST8888_a
_cod_original_sg_symbol_Hall     '-P 2ybc (x-z,y,z)'
_cod_database_code               1564568
_olex2_refinement_description
;
1. Fixed Uiso
 At 1.2 times of:
  All C(H) groups, All N(H) groups, All N(H,H) groups
2.a Aromatic/amide H refined with riding coordinates:
 N003(H003), C006(H006), C007(H007), C00A(H00A), C00B(H00B), C00C(H00C)
2.b X=CH2 refined with riding coordinates:
 N1(H1a,H1b)
;
_iucr_refine_fcf_details
;
data_TEST8888_a
_computing_structure_refinement   'olex2.refine (Bourhis et al., 2015)'
_shelx_refln_list_code            4
loop_
  _space_group_symop_id
  _space_group_symop_operation_xyz
  1  x,y,z
  2  -x+1/2,y+1/2,-z+1/2
  3  -x,-y,-z
  4  x-1/2,-y-1/2,z-1/2

_space_group_crystal_system       monoclinic
_space_group_IT_number            14
_space_group_name_H-M_alt         'P 1 21/n 1'
_space_group_name_Hall            '-P 2ybc (x-z,y,z)'
_symmetry_space_group_name_H-M    'P 1 21/n 1'
_symmetry_space_group_name_Hall   '-P 2ybc (x-z,y,z)'
_symmetry_Int_Tables_number       14
_cell_length_a                    7.1349(12)
_cell_length_b                    13.9708(19)
_cell_length_c                    8.3593(15)
_cell_angle_alpha                 90
_cell_angle_beta                  90.180(7)
_cell_angle_gamma                 90
_cell_volume                      833.3(2)
loop_
  _refln_index_h
  _refln_index_k
  _refln_index_l
  _refln_F_squared_calc
  _refln_F_squared_meas
  _refln_F_squared_sigma
  _refln_F_squared_weight
  _refln_observed_status
-8 0 -4 1008.510 813.693 81.484 0.060 o
-8 0 -2 12.999 8.397 4.606 24.594 o
-8 0 0 232.610 215.554 27.928 0.596 o
-8 0 2 77.042 84.482 9.984 4.115 o
-8 0 4 399.877 376.548 30.000 0.382 o
-8 1 -4 97.717 114.447 9.100 3.862 o
-8 1 -3 70.023 85.887 7.478 5.942 o
-8 1 -2 5.117 5.010 2.209 92.719 o
-8 1 -1 63.895 58.928 8.175 6.028 o
-8 1 0 4.737 1.293 2.082 111.576 o
-8 1 1 5.129 5.552 2.501 76.631 o
-8 1 2 30.424 23.641 3.873 22.117 o
-8 1 3 199.047 215.782 21.021 0.928 o
-8 1 4 0.776 -1.613 1.536 251.338 o
-8 2 -4 0.217 -1.298 1.385 326.103 o
-8 2 -3 313.285 368.705 21.686 0.611 o
-8 2 -2 4.270 7.400 2.469 77.980 o
-8 2 -1 0.995 0.469 1.379 290.075 o
-8 2 0 23.096 14.492 4.866 19.417 o
-8 2 1 96.278 101.803 10.857 3.294 o
-8 2 2 23.491 21.250 3.650 26.593 o
-8 2 3 78.031 79.304 7.460 5.785 o
-8 2 4 15.453 13.540 3.448 34.808 o
-8 3 -4 2.518 -2.032 1.756 172.082 o
-8 3 -3 87.861 88.338 7.462 5.295 o
-8 3 -2 115.382 117.216 8.977 3.560 o
-8 3 -1 0.451 1.535 2.114 134.528 o
-8 3 0 325.317 326.809 24.146 0.561 o
-8 3 1 0.028 -0.896 1.247 411.886 o
-8 3 2 55.691 44.705 5.561 10.361 o
-8 3 3 146.817 128.157 19.103 1.285 o
-8 3 4 7.279 5.240 2.360 77.665 o
-8 4 -3 205.442 214.638 14.057 1.407 o
-8 4 -2 65.976 55.380 5.447 9.222 o
-8 4 -1 5.489 3.874 2.242 91.559 o
-8 4 0 10.523 11.510 2.189 68.102 o
-8 4 1 317.415 397.577 25.601 0.504 o
-8 4 2 17.020 10.337 2.145 57.528 o
-8 4 3 147.451 147.587 16.216 1.571 o
-8 4 4 82.515 110.236 21.376 1.221 o
-8 5 -3 0.587 -4.777 1.746 201.087 o
-8 5 -2 216.171 217.836 13.235 1.422 o
-8 5 -1 11.755 19.578 3.833 30.554 o
-8 5 0 106.919 127.043 7.830 4.064 o
-8 5 1 85.900 82.812 8.965 4.508 o
-8 5 2 79.824 57.597 10.056 4.272 o
-8 5 3 50.261 44.668 5.026 12.019 o
-8 6 -2 2.455 0.504 2.247 111.822 o
-8 6 -1 104.658 93.872 13.162 2.530 o
-8 6 0 35.230 30.273 3.434 21.925 o
-8 6 1 15.024 14.952 3.691 31.678 o
-8 6 2 311.991 366.421 26.889 0.495 o
-8 7 -2 99.222 99.093 13.933 2.358 o
-8 7 -1 278.125 300.623 18.832 0.803 o
-8 7 0 45.606 37.631 4.824 13.577 o
-8 7 1 182.410 169.468 11.571 1.930 o
-8 7 2 15.803 6.963 5.248 19.400 o
-7 0 -5 240.636 237.069 21.462 0.815 o
-7 0 -3 148.109 154.178 15.347 1.665 o
-7 0 -1 176.085 149.105 20.488 1.074 o
-7 0 1 0.805 2.283 1.780 175.194 o
-7 0 3 2.528 0.773 1.673 180.636 o
-7 0 5 0.804 3.541 3.100 62.575 o
-7 1 -6 188.440 179.921 12.058 1.792 o
-7 1 -5 29.364 29.527 4.067 20.480 o
-7 1 -4 429.796 472.579 26.280 0.384 o
-7 1 -3 226.641 232.320 20.532 0.887 o
-7 1 -2 46.094 41.400 5.914 10.675 o
-7 1 -1 115.683 113.479 7.879 4.000 o
-7 1 0 157.982 151.086 10.335 2.412 o
-7 1 1 57.604 47.903 4.711 11.637 o
-7 1 2 247.333 274.634 14.329 1.118 o
-7 1 3 18.841 20.337 3.237 33.079 o
-7 1 4 471.376 489.693 26.469 0.352 o
-7 1 5 0.009 -1.251 1.270 398.547 o
-7 1 6 64.353 67.988 6.104 8.021 o
-7 2 -6 43.431 38.004 4.813 13.893 o
-7 2 -5 166.897 169.122 11.537 2.051 o
-7 2 -4 84.259 92.649 7.495 5.320 o
-7 2 -3 335.655 387.088 21.985 0.568 o
-7 2 -2 41.662 45.800 5.278 12.362 o
-7 2 -1 94.122 80.981 6.697 5.713 o
-7 2 0 428.572 409.609 25.823 0.411 o
-7 2 1 3.799 3.083 2.103 110.100 o
-7 2 2 265.380 267.513 13.697 1.105 o
-7 2 3 50.929 52.275 4.140 13.465 o
-7 2 4 2.633 1.447 3.290 54.974 o
-7 2 5 131.124 133.032 8.961 3.175 o
-7 2 6 107.964 117.090 9.013 3.681 o
-7 3 -6 34.879 24.406 3.606 22.084 o
-7 3 -5 562.355 566.481 31.015 0.258 o
-7 3 -4 1.802 1.652 1.209 299.511 o
-7 3 -3 427.669 422.216 23.802 0.435 o
-7 3 -2 17.278 15.639 2.646 44.110 o
-7 3 -1 245.274 266.939 16.474 1.018 o
-7 3 0 5.597 6.145 1.799 115.051 o
-7 3 1 50.200 51.597 6.567 8.790 o
-7 3 2 76.986 77.871 6.502 6.657 o
-7 3 3 341.297 365.992 33.728 0.362 o
-7 3 4 25.680 25.200 3.847 23.572 o
-7 3 5 15.603 18.150 2.827 41.699 o
-7 3 6 8.396 5.919 2.139 83.331 o
-7 4 -6 7.605 5.497 1.406 133.335 o
-7 4 -5 12.404 12.983 2.602 52.466 o
-7 4 -4 183.866 190.729 12.502 1.734 o
-7 4 -3 0.071 -1.031 1.013 616.282 o
-7 4 -2 267.189 285.630 13.962 1.057 o
-7 4 -1 2.794 1.620 1.214 265.851 o
-7 4 0 195.104 203.198 11.435 1.746 o
-7 4 1 37.105 36.103 4.660 15.530 o
-7 4 2 103.794 116.554 7.486 4.413 o
-7 4 3 11.254 10.676 2.268 64.993 o
-7 4 4 0.912 -2.092 3.159 62.983 o
-7 4 5 35.030 35.869 8.454 7.134 o
-7 4 6 96.824 106.680 9.854 3.636 o
-7 5 -5 24.558 34.586 5.947 13.049 o
-7 5 -4 23.534 23.306 3.585 26.654 o
-7 5 -3 10.140 7.945 1.850 86.910 o
-7 5 -2 263.565 248.468 12.762 1.195 o
-7 5 -1 266.687 277.431 14.432 1.048 o
-7 5 0 9.064 9.453 1.448 107.641 o
-7 5 1 82.208 76.085 5.925 6.959 o
-7 5 2 355.622 319.552 18.001 0.682 o
-7 5 3 187.366 163.147 14.526 1.559 o
-7 5 4 9.638 12.520 5.728 17.230 o
-7 5 5 4.903 7.723 3.507 43.809 o
-7 6 -5 0.051 1.710 2.071 142.249 o
-7 6 -4 52.333 45.599 5.247 11.260 o
-7 6 -3 161.655 166.829 8.635 2.598 o
-7 6 -2 45.780 38.158 3.559 17.390 o
-7 6 -1 45.773 48.148 6.066 10.110 o
-7 6 0 0.435 -0.964 0.703 1062.480 o
-7 6 1 298.655 306.550 25.117 0.574 o
-7 6 2 255.849 256.041 18.767 0.892 o
-7 6 3 0.314 -1.151 1.035 558.903 o
-7 6 4 76.213 61.909 7.732 5.940 o
-7 6 5 49.553 58.058 9.371 5.394 o
-7 7 -4 17.619 15.184 2.627 44.302 o
-7 7 -3 2.863 3.949 1.642 161.772 o
-7 7 -2 234.629 238.403 12.794 1.329 o
-7 7 -1 10.566 3.669 1.909 90.605 o
-7 7 0 152.502 156.198 10.612 2.389 o
-7 7 1 4.414 0.275 1.297 222.956 o
-7 7 2 217.652 194.220 35.900 0.415 o
-7 7 3 313.648 294.437 26.354 0.535 o
-7 7 4 20.141 13.763 4.065 25.959 o
-7 8 -4 45.083 44.164 4.821 13.204 o
-7 8 -3 77.713 70.778 5.887 7.386 o
-7 8 -2 17.975 10.835 3.571 32.585 o
-7 8 -1 16.779 15.646 2.967 39.687 o
-7 8 0 31.221 25.290 3.712 22.538 o
-7 8 1 427.348 389.535 53.034 0.175 o
-7 8 2 3.533 4.692 2.941 62.985 o
-7 8 3 20.705 12.079 3.775 28.712 o
-7 8 4 22.199 13.334 4.087 25.110 o
-7 9 -3 26.315 14.389 2.180 41.796 o
-7 9 -2 4.186 4.884 3.205 53.404 o
-7 9 -1 148.827 160.734 10.197 2.483 o
-7 9 0 29.938 36.571 3.903 20.199 o
-7 9 1 37.212 31.459 4.149 17.915 o
-7 9 2 106.954 106.944 11.743 2.844 o
-7 9 3 463.435 457.490 24.910 0.383 o
-7 10 -2 55.477 74.279 19.596 1.519 o
-7 10 -1 61.236 58.296 5.681 9.136 o
-7 10 0 81.097 92.232 7.311 5.558 o
-7 10 1 0.003 -0.571 1.897 178.682 o
-7 10 2 75.496 81.989 6.543 6.595 o
-6 0 -4 1807.110 1464.520 153.280 0.018 o
-6 0 -2 46.639 35.480 5.740 11.280 o
-6 0 0 350.720 326.874 20.214 0.627 o
-6 0 2 284.109 314.408 19.272 0.764 o
-6 0 4 632.000 736.073 52.585 0.132 o
-6 0 6 1.599 -2.612 1.572 222.920 o
-6 1 -5 102.330 98.024 8.691 4.115 o
-6 1 -4 190.593 186.791 15.485 1.397 o
-6 1 -3 9.275 8.096 1.888 88.112 o
-6 1 -2 95.155 101.878 7.649 4.762 o
-6 1 -1 385.371 372.669 18.822 0.584 o
-6 1 0 0.041 -0.277 0.648 1497.190 o
-6 1 1 12.613 14.922 1.927 67.056 o
-6 1 2 59.287 65.615 3.877 11.872 o
-6 1 3 97.594 102.085 7.021 5.029 o
-6 1 4 314.157 303.898 54.667 0.183 o
-6 1 5 125.651 93.587 7.294 4.233 o
-6 1 6 0.776 1.444 1.305 307.846 o
-6 1 7 124.689 117.667 8.209 3.650 o
-6 2 -5 299.810 257.563 22.993 0.659 o
-6 2 -4 545.388 518.947 28.012 0.295 o
-6 2 -3 446.486 485.409 26.266 0.370 o
-6 2 -2 179.627 167.939 12.349 1.851 o
-6 2 -1 39.497 34.047 4.789 14.867 o
-6 2 0 8.627 6.206 1.399 123.434 o
-6 2 1 361.530 379.495 23.301 0.518 o
-6 2 2 30.200 30.802 3.235 24.783 o
-6 2 3 77.065 71.802 4.688 8.654 o
-6 2 4 21.656 24.139 3.074 31.891 o
-6 2 5 243.513 214.880 18.008 1.005 o
-6 2 6 89.238 78.071 11.214 3.407 o
-6 2 7 211.493 185.240 28.859 0.595 o
-6 3 -5 5.019 6.655 1.916 108.376 o
-6 3 -4 1.718 2.626 1.271 267.129 o
-6 3 -3 2.744 1.429 1.174 281.518 o
-6 3 -2 56.940 57.801 5.026 10.587 o
-6 3 -1 88.097 116.848 6.606 5.335 o
-6 3 0 96.827 112.967 6.637 5.087 o
-6 3 1 365.994 388.683 19.249 0.590 o
-6 3 2 277.566 258.556 13.608 1.084 o
-6 3 3 233.506 253.592 14.298 1.202 o
-6 3 4 93.135 86.403 8.967 4.305 o
-6 3 5 6.049 5.744 1.683 122.233 o
-6 3 6 39.538 35.573 4.107 17.119 o
-6 3 7 75.513 82.582 5.885 7.180 o
-6 4 -5 83.716 86.034 7.371 5.533 o
-6 4 -4 2.517 -1.748 1.481 225.724 o
-6 4 -3 2.229 1.782 0.816 434.200 o
-6 4 -2 10.587 12.222 3.390 39.528 o
-6 4 -1 95.632 84.507 5.115 6.674 o
-6 4 0 50.697 54.952 5.785 9.944 o
-6 4 1 631.997 568.421 29.539 0.243 o
-6 4 2 1172.390 1276.590 55.346 0.067 o
-6 4 3 88.888 84.235 6.847 5.747 o
-6 4 4 5.241 2.030 1.377 180.250 o
-6 4 5 657.953 719.946 42.395 0.162 o
-6 4 6 8.587 2.836 1.979 96.566 o
-6 4 7 36.565 33.011 6.624 10.271 o
-6 5 -5 11.981 13.565 2.698 50.551 o
-6 5 -4 42.980 41.285 4.339 15.119 o
-6 5 -3 45.008 32.247 2.967 20.542 o
-6 5 -2 639.506 668.285 47.300 0.152 o
-6 5 -1 534.664 553.358 25.935 0.308 o
-6 5 0 1.404 -0.463 0.561 948.607 o
-6 5 1 165.179 168.353 9.178 2.453 o
-6 5 2 41.165 39.303 3.243 19.566 o
-6 5 3 188.706 212.589 12.111 1.684 o
-6 5 4 92.591 93.157 7.386 5.116 o
-6 5 5 47.257 42.236 5.438 11.557 o
-6 5 6 0.612 0.666 2.523 97.345 o
-6 5 7 110.386 117.685 10.533 3.110 o
-6 6 -5 1.967 4.109 4.093 36.129 o
-6 6 -4 449.940 474.109 24.091 0.396 o
-6 6 -3 5.226 8.628 2.983 55.906 o
-6 6 -2 16.263 16.131 2.818 42.174 o
-6 6 -1 47.721 55.484 3.889 14.326 o
-6 6 0 60.033 61.723 3.912 11.969 o
-6 6 1 494.741 597.681 31.663 0.272 o
-6 6 2 301.250 295.907 16.825 0.837 o
-6 6 3 48.195 60.133 7.618 7.203 o
-6 6 4 84.811 98.173 6.379 5.962 o
-6 6 5 0.921 -1.388 1.119 432.165 o
-6 6 6 117.199 125.470 8.489 3.622 o
-6 7 -5 63.143 69.964 6.079 8.066 o
-6 7 -4 5.757 6.662 1.666 122.494 o
-6 7 -3 37.957 34.087 4.425 16.404 o
-6 7 -2 95.349 87.255 6.136 5.918 o
-6 7 -1 557.101 578.260 35.263 0.232 o
-6 7 0 17.793 17.004 2.409 46.602 o
-6 7 1 29.596 32.853 3.497 23.056 o
-6 7 2 90.224 103.724 7.338 5.053 o
-6 7 3 321.529 334.349 18.608 0.707 o
-6 7 4 67.538 64.475 4.334 10.275 o
-6 7 5 18.360 18.059 2.332 46.533 o
-6 7 6 0.116 -1.815 1.385 330.294 o
-6 8 -5 104.753 103.039 8.134 4.260 o
-6 8 -4 341.688 341.091 17.367 0.703 o
-6 8 -3 103.764 100.955 7.621 4.554 o
-6 8 -2 117.368 113.721 8.065 3.889 o
-6 8 -1 0.081 -0.906 1.327 361.343 o
-6 8 0 167.660 173.928 10.748 2.146 o
-6 8 1 384.750 392.163 45.673 0.225 o
-6 8 2 3.904 1.175 1.512 185.200 o
-6 8 3 24.389 25.091 3.361 27.663 o
-6 8 4 1.959 4.959 2.268 101.840 o
-6 8 5 2.808 5.313 2.084 110.962 o
-6 8 6 40.454 41.923 4.144 16.155 o
-6 9 -5 411.081 438.690 24.629 0.429 o
-6 9 -4 142.297 138.547 7.056 3.455 o
-6 9 -3 168.204 161.090 7.765 2.707 o
-6 9 -2 31.557 33.486 2.813 26.191 o
-6 9 -1 124.018 132.174 9.758 3.060 o
-6 9 0 30.755 24.663 3.060 27.026 o
-6 9 1 51.819 52.964 3.910 13.806 o
-6 9 2 322.813 323.315 25.594 0.532 o
-6 9 3 223.464 236.409 11.831 1.456 o
-6 9 4 355.151 369.888 19.898 0.601 o
-6 9 5 0.238 -2.116 2.199 131.406 o
-6 10 -4 405.433 427.564 23.933 0.448 o
-6 10 -3 131.652 144.804 13.341 2.098 o
-6 10 -2 0.618 -0.372 2.378 110.673 o
-6 10 -1 131.709 123.530 8.043 3.516 o
-6 10 0 57.900 58.164 5.055 10.424 o
-6 10 1 40.672 43.172 3.461 18.360 o
-6 10 2 36.231 34.409 3.062 22.730 o
-6 10 3 7.284 6.105 1.943 97.202 o
-6 10 4 35.418 24.566 3.766 21.045 o
-6 11 -4 0.191 -1.600 1.484 285.822 o
-6 11 -3 2.559 1.637 1.107 304.719 o
-6 11 -2 59.907 78.525 7.742 6.223 o
-6 11 -1 140.508 137.214 10.727 2.584 o
-6 11 0 292.889 286.183 16.569 0.875 o
-6 11 1 13.100 9.600 1.587 83.661 o
-6 11 2 215.956 243.445 13.007 1.383 o
-6 11 3 9.365 0.475 5.905 17.159 o
-6 11 4 261.322 258.954 23.942 0.675 o
-6 12 -2 94.725 101.078 7.821 4.692 o
-6 12 -1 5.210 6.486 2.276 86.084 o
-6 12 0 0.260 -0.492 1.245 397.967 o
-6 12 1 0.712 -1.294 0.954 588.620 o
-6 12 2 61.531 54.959 9.832 4.801 o
-5 0 -3 924.962 823.747 47.811 0.109 o
-5 0 -1 132.990 142.099 10.585 2.672 o
-5 0 1 363.905 397.854 28.417 0.420 o
-5 0 3 19.763 22.273 2.789 36.879 o
-5 0 5 206.293 247.621 24.946 0.709 o
-5 0 7 524.866 534.771 39.383 0.221 o
-5 1 -4 176.167 191.238 11.778 1.870 o
-5 1 -3 28.851 27.523 2.685 29.989 o
-5 1 -2 583.695 575.483 21.071 0.312 o
-5 1 -1 0.750 0.713 0.649 910.931 o
-5 1 0 1587.730 1715.430 67.711 0.040 o
-5 1 1 10.948 7.321 1.033 123.734 o
-5 1 2 128.384 119.430 5.799 4.383 o
-5 1 3 43.755 48.775 2.738 19.222 o
-5 1 4 648.200 607.054 70.263 0.094 o
-5 1 5 63.152 68.616 5.005 9.539 o
-5 1 6 147.717 133.723 11.505 2.366 o
-5 1 7 39.096 37.240 3.719 18.528 o
-5 1 8 385.170 377.306 24.089 0.483 o
-5 2 -4 67.957 73.757 6.000 7.748 o
-5 2 -3 754.759 834.226 37.532 0.152 o
-5 2 -2 170.198 181.406 9.845 2.228 o
-5 2 -1 300.723 331.567 22.687 0.622 o
-5 2 0 7.173 3.358 0.965 192.562 o
-5 2 1 1.660 5.253 0.994 303.658 o
-5 2 2 130.855 151.302 6.080 3.825 o
-5 2 3 39.370 48.526 2.804 20.364 o
-5 2 4 1.391 1.428 0.939 450.399 o
-5 2 5 114.249 120.209 7.610 4.062 o
-5 2 6 397.054 354.351 53.477 0.178 o
-5 2 7 42.666 40.310 9.105 6.057 o
-5 2 8 156.962 176.980 11.102 2.168 o
-5 3 -4 153.671 151.594 8.676 2.788 o
-5 3 -3 368.650 379.330 17.101 0.638 o
-5 3 -2 45.174 54.917 3.853 14.915 o
-5 3 -1 363.737 363.927 19.001 0.614 o
-5 3 0 139.861 140.056 8.264 3.170 o
-5 3 1 420.261 458.870 19.041 0.493 o
-5 3 2 286.371 318.721 11.817 1.040 o
-5 3 3 1180.330 1260.600 54.307 0.068 o
-5 3 4 11.362 12.895 1.828 75.824 o
-5 3 5 1.400 0.985 0.904 491.767 o
-5 3 6 11.651 13.245 2.109 66.047 o
-5 3 7 158.820 141.100 12.537 2.058 o
-5 3 8 30.922 29.941 3.668 22.129 o
-5 4 -4 482.419 468.206 24.313 0.375 o
-5 4 -3 14.816 12.366 1.826 67.571 o
-5 4 -2 270.807 266.091 12.494 1.151 o
-5 4 -1 235.266 234.073 12.438 1.360 o
-5 4 0 704.885 657.577 69.537 0.091 o
-5 4 1 63.529 53.521 3.221 13.275 o
-5 4 2 158.894 176.630 9.645 2.395 o
-5 4 3 140.233 155.741 9.094 2.848 o
-5 4 4 194.492 213.906 25.874 0.704 o
-5 4 5 0.535 1.492 1.102 416.602 o
-5 4 6 143.582 148.189 9.259 2.815 o
-5 4 7 51.941 50.848 6.724 8.464 o
-5 4 8 21.234 19.266 3.020 34.267 o
-5 5 -4 9.839 8.276 3.051 48.567 o
-5 5 -3 27.526 24.216 2.699 31.663 o
-5 5 -2 173.130 152.576 8.487 2.572 o
-5 5 -1 164.183 156.206 10.035 2.378 o
-5 5 0 91.267 85.152 4.656 7.241 o
-5 5 1 0.113 -0.339 0.459 2681.240 o
-5 5 2 1186.470 1202.770 58.438 0.066 o
-5 5 3 80.787 82.134 5.332 7.403 o
-5 5 4 1.498 1.607 0.908 451.814 o
-5 5 5 53.684 55.031 4.166 12.801 o
-5 5 6 0.857 0.328 1.222 366.242 o
-5 5 7 209.322 216.279 12.721 1.502 o
-5 5 8 47.336 36.064 11.818 3.917 o
-5 6 -4 13.131 12.468 1.899 69.542 o
-5 6 -3 101.566 92.442 6.896 5.126 o
-5 6 -2 20.856 19.548 2.259 43.862 o
-5 6 -1 93.875 116.211 8.301 4.282 o
-5 6 0 22.408 24.711 1.967 42.918 o
-5 6 1 1232.120 1419.170 70.356 0.052 o
-5 6 2 59.720 67.865 5.226 9.545 o
-5 6 3 406.087 440.395 22.523 0.463 o
-5 6 4 112.812 111.687 6.780 4.550 o
-5 6 5 116.753 125.917 6.742 4.266 o
-5 6 6 128.610 130.402 10.310 2.860 o
-5 6 7 12.697 8.115 2.017 72.494 o
-5 7 -4 42.542 47.021 3.707 16.638 o
-5 7 -3 0.182 -0.304 0.823 888.569 o
-5 7 -2 1137.210 1210.690 53.807 0.072 o
-5 7 -1 34.555 35.513 2.715 24.944 o
-5 7 0 44.508 46.705 3.981 15.436 o
-5 7 1 0.885 1.771 0.827 562.776 o
-5 7 2 159.434 153.988 9.509 2.536 o
-5 7 3 221.779 247.111 13.774 1.294 o
-5 7 4 360.957 372.235 34.783 0.339 o
-5 7 5 12.247 14.908 1.785 71.949 o
-5 7 6 0.924 0.336 1.764 189.649 o
-5 7 7 1.546 2.375 1.512 214.432 o
-5 8 -4 64.059 58.889 4.327 10.956 o
-5 8 -3 23.079 22.503 2.595 36.376 o
-5 8 -2 72.582 62.941 5.159 8.796 o
-5 8 -1 8.502 7.645 1.648 104.607 o
-5 8 0 1.900 0.435 0.934 452.148 o
-5 8 1 893.932 851.928 47.954 0.110 o
-5 8 2 552.262 557.907 25.363 0.303 o
-5 8 3 114.030 120.001 7.539 4.097 o
-5 8 4 18.859 20.795 2.322 44.513 o
-5 8 5 262.989 245.865 17.283 0.959 o
-5 8 6 117.247 120.916 11.106 2.836 o
-5 8 7 10.326 11.791 3.726 34.748 o
-5 9 -4 4.521 2.368 1.072 241.085 o
-5 9 -3 9.239 6.761 1.232 127.626 o
-5 9 -2 0.905 1.204 0.597 862.549 o
-5 9 -1 217.897 227.226 12.340 1.465 o
-5 9 0 0.681 -0.884 1.364 315.958 o
-5 9 1 544.244 519.222 27.213 0.302 o
-5 9 2 20.634 19.543 1.862 49.678 o
-5 9 3 185.672 197.882 11.079 1.868 o
-5 9 4 1.390 -0.441 1.078 422.590 o
-5 9 5 0.440 -0.192 2.091 143.424 o
-5 9 6 40.183 38.983 5.918 11.318 o
-5 10 -4 1109.110 1269.470 57.465 0.069 o
-5 10 -3 118.249 120.067 6.971 4.215 o
-5 10 -2 111.761 111.081 7.244 4.385 o
-5 10 -1 86.270 75.544 14.271 2.440 o
-5 10 0 272.064 300.975 14.960 0.975 o
-5 10 1 51.242 47.819 2.909 16.896 o
-5 10 2 5.978 3.857 1.074 195.407 o
-5 10 3 174.480 198.726 12.629 1.751 o
-5 10 4 402.591 403.679 33.095 0.335 o
-5 10 5 0.462 0.001 2.575 95.312 o
-5 10 6 241.076 245.819 16.309 1.068 o
-5 11 -4 18.918 29.576 2.699 35.743 o
-5 11 -3 26.905 19.953 1.871 41.660 o
-5 11 -2 1.712 0.970 2.011 139.340 o
-5 11 -1 144.162 176.548 16.140 1.535 o
-5 11 0 15.104 9.752 1.623 75.835 o
-5 11 1 111.009 94.655 6.288 5.101 o
-5 11 2 75.056 79.919 10.614 3.866 o
-5 11 3 272.508 272.251 24.255 0.644 o
-5 11 4 24.685 18.598 5.135 17.300 o
-5 11 5 81.051 57.509 23.027 1.108 o
-5 12 -4 539.953 610.662 29.780 0.266 o
-5 12 -3 132.216 140.010 8.144 3.330 o
-5 12 -2 0.271 -0.872 1.182 438.946 o
-5 12 -1 39.846 29.778 3.314 21.095 o
-5 12 0 77.611 83.620 6.667 6.356 o
-5 12 1 157.016 149.287 16.090 1.544 o
-5 12 2 21.179 21.526 5.945 14.175 o
-5 12 3 31.038 30.447 6.811 10.349 o
-5 12 4 231.763 197.123 67.784 0.132 o
-5 13 -3 17.352 11.492 2.246 53.889 o
-5 13 -2 420.122 372.504 65.440 0.126 o
-5 13 -1 13.512 12.151 2.204 60.825 o
-5 13 0 14.385 15.774 3.303 36.715 o
-5 13 1 22.769 15.768 5.515 16.088 o
-5 13 2 39.649 45.645 8.622 6.598 o
-5 13 3 9.720 -0.347 3.484 43.472 o
-5 14 -2 0.556 -1.212 4.222 35.806 o
-5 14 -1 3.968 1.192 1.258 230.628 o
-5 14 0 9.630 6.186 4.722 24.890 o
-5 14 1 601.219 632.594 50.339 0.149 o
-5 14 2 0.992 -1.196 2.894 74.557 o
-4 0 -2 0.029 -0.493 0.524 2283.830 o
-4 0 0 1359.520 1458.660 71.230 0.047 o
-4 0 2 14.492 12.397 1.459 78.350 o
-4 0 4 764.032 724.315 40.825 0.150 o
-4 0 6 369.564 422.692 31.150 0.370 o
-4 0 8 112.634 108.067 9.582 3.468 o
-4 1 -3 0.043 0.433 0.418 2661.660 o
-4 1 -2 842.126 858.509 32.383 0.148 o
-4 1 -1 522.655 541.941 20.949 0.358 o
-4 1 0 132.177 152.092 6.480 3.677 o
-4 1 1 188.282 192.580 7.952 2.258 o
-4 1 2 13.930 15.440 1.219 81.547 o
-4 1 3 1052.360 1159.960 39.209 0.094 o
-4 1 4 301.219 273.833 32.476 0.423 o
-4 1 5 69.261 70.747 4.934 9.031 o
-4 1 6 183.294 192.422 12.265 1.760 o
-4 1 7 116.455 126.193 6.884 4.217 o
-4 1 8 18.562 14.084 2.559 44.968 o
-4 1 9 1.338 3.056 1.739 170.578 o
-4 2 -3 660.786 631.485 28.795 0.227 o
-4 2 -2 7.211 7.320 1.021 159.129 o
-4 2 -1 57.279 69.761 3.873 11.871 o
-4 2 0 657.193 659.755 41.074 0.172 o
-4 2 1 3524.090 3679.180 166.753 0.008 o
-4 2 2 24.998 22.263 1.351 47.751 o
-4 2 3 443.530 448.663 21.723 0.440 o
-4 2 4 798.012 898.257 43.922 0.126 o
-4 2 5 42.218 37.200 3.144 19.948 o
-4 2 6 314.510 335.027 15.937 0.800 o
-4 2 7 0.869 -0.122 0.659 978.112 o
-4 2 8 193.113 193.774 9.257 2.046 o
-4 2 9 427.221 418.892 21.730 0.466 o
-4 3 -3 407.817 415.190 15.653 0.586 o
-4 3 -2 470.994 436.308 20.732 0.435 o
-4 3 -1 200.189 218.040 9.970 1.816 o
-4 3 0 406.421 341.547 18.100 0.592 o
-4 3 1 1271.340 1446.780 61.994 0.055 o
-4 3 2 219.977 263.223 12.601 1.352 o
-4 3 3 0.053 2.998 2.494 97.176 o
-4 3 4 13.562 14.082 1.752 70.508 o
-4 3 5 27.403 25.309 1.989 37.491 o
-4 3 6 253.836 278.349 12.329 1.199 o
-4 3 7 733.463 697.532 32.030 0.186 o
-4 3 8 131.752 128.270 6.635 3.907 o
-4 3 9 50.638 45.145 3.619 15.432 o
-4 4 -3 330.806 301.675 11.872 0.932 o
-4 4 -2 166.455 166.332 7.093 2.813 o
-4 4 -1 169.393 201.600 9.205 2.234 o
-4 4 0 2.288 1.550 0.611 547.928 o
-4 4 1 110.506 100.546 4.591 5.863 o
-4 4 2 921.597 866.078 63.005 0.084 o
-4 4 3 56.973 67.259 4.304 11.326 o
-4 4 4 99.162 108.273 5.809 5.538 o
-4 4 5 639.451 665.497 42.960 0.168 o
-4 4 6 298.295 310.115 15.141 0.890 o
-4 4 7 48.137 50.946 3.536 15.576 o
-4 4 8 12.447 9.907 1.549 86.820 o
-4 4 9 493.984 508.183 23.669 0.361 o
-4 5 -3 40.812 37.500 2.649 22.353 o
-4 5 -2 1409.900 1503.330 65.340 0.048 o
-4 5 -1 354.542 344.402 12.994 0.791 o
-4 5 0 2.598 4.483 0.677 369.683 o
-4 5 1 341.937 342.062 20.847 0.613 o
-4 5 2 1058.550 1127.940 50.322 0.083 o
-4 5 3 173.814 151.008 10.661 2.206 o
-4 5 4 100.403 100.097 6.041 5.518 o
-4 5 5 209.992 219.245 10.709 1.675 o
-4 5 6 40.717 44.265 3.553 17.885 o
-4 5 7 44.521 47.472 3.511 16.770 o
-4 5 8 23.855 22.475 2.622 35.500 o
-4 6 -3 0.657 0.851 0.684 861.285 o
-4 6 -2 24.681 22.875 2.144 39.614 o
-4 6 -1 6.119 3.722 1.193 179.550 o
-4 6 0 1008.760 1026.430 41.430 0.101 o
-4 6 1 179.638 176.468 9.119 2.269 o
-4 6 2 564.147 573.162 29.064 0.269 o
-4 6 3 110.732 115.894 6.722 4.574 o
-4 6 4 197.794 231.808 12.288 1.561 o
-4 6 5 116.845 110.972 6.960 4.373 o
-4 6 6 292.511 307.576 21.538 0.681 o
-4 6 7 16.778 16.026 2.330 49.849 o
-4 6 8 45.318 46.332 4.749 13.211 o
-4 7 -3 138.680 118.303 9.551 3.010 o
-4 7 -2 0.913 0.543 0.637 904.438 o
-4 7 -1 75.083 75.060 3.989 9.455 o
-4 7 0 52.871 45.987 4.058 13.846 o
-4 7 1 100.460 86.722 5.019 6.433 o
-4 7 2 925.476 843.495 78.517 0.065 o
-4 7 3 728.882 773.165 30.633 0.183 o
-4 7 4 73.218 82.658 4.952 8.254 o
-4 7 5 0.471 -0.490 0.658 1161.030 o
-4 7 6 37.600 36.527 3.390 20.406 o
-4 7 7 122.970 132.000 8.507 3.452 o
-4 7 8 5.421 5.435 1.605 134.564 o
-4 8 -3 238.727 216.367 28.934 0.561 o
-4 8 -2 0.009 -0.977 0.427 3477.420 o
-4 8 -1 18.924 21.833 2.650 39.477 o
-4 8 0 1302.870 1355.290 66.191 0.053 o
-4 8 1 397.813 382.036 19.787 0.546 o
-4 8 2 181.546 164.553 9.405 2.266 o
-4 8 3 314.522 329.824 18.909 0.713 o
-4 8 4 78.748 80.221 6.663 6.384 o
-4 8 5 33.230 39.105 2.684 24.901 o
-4 8 6 0.873 0.659 0.882 590.747 o
-4 8 7 103.578 107.362 6.235 5.165 o
-4 8 8 74.031 76.254 14.488 2.458 o
-4 9 -3 267.162 239.464 14.249 1.115 o
-4 9 -2 390.373 425.773 16.905 0.580 o
-4 9 -1 320.678 367.183 27.184 0.482 o
-4 9 0 46.445 38.666 3.265 18.149 o
-4 9 1 160.715 169.371 7.758 2.754 o
-4 9 2 327.102 347.998 17.596 0.715 o
-4 9 3 557.823 602.898 35.380 0.227 o
-4 9 4 164.568 182.451 8.621 2.474 o
-4 9 5 24.291 18.885 2.062 42.946 o
-4 9 6 96.554 86.693 7.213 5.197 o
-4 9 7 190.971 207.024 12.131 1.685 o
-4 10 -3 850.494 884.186 39.651 0.129 o
-4 10 -2 20.272 28.233 3.030 31.919 o
-4 10 -1 26.426 20.046 2.599 34.729 o
-4 10 0 136.147 146.573 8.862 3.024 o
-4 10 1 18.810 18.143 1.342 62.052 o
-4 10 2 0.000 0.381 1.507 277.389 o
-4 10 3 1.146 1.370 1.887 159.442 o
-4 10 4 5.870 15.504 4.313 28.683 o
-4 10 5 169.322 189.402 27.790 0.665 o
-4 10 6 52.680 52.566 5.148 11.061 o
-4 10 7 3.822 -0.044 1.980 130.630 o
-4 11 -3 75.229 74.433 4.961 8.396 o
-4 11 -2 175.109 187.883 8.192 2.392 o
-4 11 -1 30.981 30.349 2.943 26.375 o
-4 11 0 949.120 1075.700 53.075 0.089 o
-4 11 1 28.193 28.282 3.952 21.627 o
-4 11 2 48.428 53.429 7.860 7.041 o
-4 11 3 36.966 33.170 6.501 10.505 o
-4 11 4 32.651 28.875 5.982 12.393 o
-4 11 5 68.463 79.633 11.305 3.634 o
-4 11 6 205.697 163.847 29.854 0.576 o
-4 12 -3 210.672 215.495 14.778 1.323 o
-4 12 -2 0.879 -0.299 0.824 711.053 o
-4 12 -1 137.369 142.428 10.504 2.640 o
-4 12 0 98.749 97.733 9.503 3.827 o
-4 12 1 61.956 64.699 6.364 7.945 o
-4 12 2 119.165 150.611 35.811 0.459 o
-4 12 3 78.732 98.573 12.844 2.824 o
-4 12 4 81.428 77.960 9.863 4.158 o
-4 12 5 178.677 203.107 19.447 1.083 o
-4 12 6 183.655 149.853 25.451 0.769 o
-4 13 -3 151.805 160.978 8.698 2.746 o
-4 13 -2 53.260 59.333 5.718 9.666 o
-4 13 -1 232.876 233.309 16.931 1.071 o
-4 13 0 70.972 91.088 8.639 4.972 o
-4 13 1 10.848 7.982 4.465 26.649 o
-4 13 2 29.542 21.267 5.454 14.962 o
-4 13 3 318.285 293.899 25.832 0.543 o
-4 13 4 62.646 59.368 8.629 5.655 o
-4 13 5 0.042 -0.629 2.233 128.728 o
-4 14 -3 67.935 67.833 4.560 9.759 o
-4 14 -2 42.324 50.654 5.233 12.114 o
-4 14 -1 94.443 102.767 8.158 4.500 o
-4 14 0 8.097 5.452 2.660 63.953 o
-4 14 1 9.906 7.146 3.215 45.556 o
-4 14 2 29.965 31.742 7.070 9.811 o
-4 14 3 65.613 62.398 16.416 2.066 o
-4 14 4 2.552 1.324 2.619 83.547 o
-4 15 -2 235.724 216.657 15.524 1.177 o
-4 15 -1 182.303 197.491 20.789 0.991 o
-4 15 0 23.677 25.542 5.195 16.597 o
-4 15 1 356.469 351.941 23.871 0.524 o
-4 15 2 6.420 8.463 3.942 34.821 o
-3 0 -1 943.365 996.436 56.486 0.087 o
-3 0 1 655.790 649.761 31.695 0.213 o
-3 0 3 742.639 866.338 41.520 0.141 o
-3 0 5 1351.160 1433.890 79.133 0.044 o
-3 0 7 8.600 11.393 2.497 62.641 o
-3 0 9 0.126 0.122 1.712 215.883 o
-3 1 -2 206.745 153.782 9.387 2.085 o
-3 1 -1 1271.400 1347.830 71.109 0.051 o
-3 1 0 424.307 472.369 17.794 0.500 o
-3 1 1 899.081 948.596 59.256 0.088 o
-3 1 2 385.319 394.313 13.705 0.670 o
-3 1 3 359.868 394.061 14.659 0.694 o
-3 1 4 276.578 280.075 10.758 1.189 o
-3 1 5 16.547 17.000 1.452 66.510 o
-3 1 6 457.975 467.022 23.557 0.400 o
-3 1 7 0.434 0.150 0.933 642.299 o
-3 1 8 1570.260 1708.820 129.781 0.023 o
-3 1 9 0.009 0.445 0.912 721.960 o
-3 2 -2 62.016 60.223 2.979 13.388 o
-3 2 -1 867.371 968.872 38.837 0.123 o
-3 2 0 329.874 374.947 22.450 0.570 o
-3 2 1 9.740 10.843 0.952 123.465 o
-3 2 2 82.662 64.538 3.768 9.477 o
-3 2 3 89.896 90.966 4.256 7.442 o
-3 2 4 5.295 7.751 0.820 202.607 o
-3 2 5 94.647 88.794 4.172 7.268 o
-3 2 6 601.683 604.206 24.273 0.277 o
-3 2 7 28.076 30.547 3.498 24.017 o
-3 2 8 0.389 1.087 0.890 623.455 o
-3 2 9 1.529 -0.152 1.008 455.833 o
-3 3 -2 17.410 15.209 1.455 66.537 o
-3 3 -1 3817.720 3833.120 136.674 0.008 o
-3 3 0 529.728 577.796 28.931 0.282 o
-3 3 1 2399.010 2676.610 113.667 0.016 o
-3 3 2 20.023 27.884 1.550 48.678 o
-3 3 3 1781.440 2051.210 86.424 0.028 o
-3 3 4 4.089 4.325 0.665 304.219 o
-3 3 5 0.625 -0.260 0.376 2127.440 o
-3 3 6 133.288 159.267 9.167 2.900 o
-3 3 7 576.150 547.594 27.704 0.278 o
-3 3 8 25.972 27.038 3.859 23.087 o
-3 3 9 32.161 28.737 3.140 24.986 o
-3 4 -2 18.059 28.764 2.910 34.387 o
-3 4 -1 51.335 42.500 2.474 18.713 o
-3 4 0 2782.120 2688.710 117.681 0.014 o
-3 4 1 1.924 2.045 0.418 680.913 o
-3 4 2 1864.030 2006.960 86.167 0.028 o
-3 4 3 860.445 954.671 37.480 0.128 o
-3 4 4 295.373 299.662 16.602 0.854 o
-3 4 5 18.907 16.142 1.920 53.934 o
-3 4 6 5.266 7.509 1.135 171.686 o
-3 4 7 231.256 237.927 11.596 1.431 o
-3 4 8 308.919 311.788 23.581 0.600 o
-3 4 9 0.305 -2.806 1.007 589.158 o
-3 5 -2 1.052 3.974 0.925 389.997 o
-3 5 -1 51.378 35.333 2.147 20.723 o
-3 5 0 1.018 3.768 1.026 355.078 o
-3 5 1 63.007 55.165 8.493 5.828 o
-3 5 2 3775.750 4172.260 196.679 0.006 o
-3 5 3 207.828 172.386 23.972 0.796 o
-3 5 4 0.120 0.652 0.559 1504.630 o
-3 5 5 2.978 3.099 0.704 380.065 o
-3 5 6 0.034 -0.660 0.517 2330.000 o
-3 5 7 14.123 11.260 1.471 81.067 o
-3 5 8 81.715 74.920 10.946 3.647 o
-3 5 9 19.209 16.770 2.745 40.220 o
-3 6 -2 376.980 415.656 18.287 0.578 o
-3 6 -1 228.951 213.285 7.793 1.820 o
-3 6 0 210.905 210.406 20.257 0.953 o
-3 6 1 28.151 28.570 1.971 35.626 o
-3 6 2 353.298 326.541 13.505 0.799 o
-3 6 3 11.780 14.930 1.457 83.215 o
-3 6 4 2.420 0.679 0.367 752.051 o
-3 6 5 978.061 982.000 39.094 0.110 o
-3 6 6 182.906 165.941 6.778 2.638 o
-3 6 7 16.590 14.518 1.497 68.509 o
-3 6 8 203.830 179.235 10.857 1.832 o
-3 6 9 175.252 187.225 11.634 1.909 o
-3 7 -2 826.392 799.804 30.446 0.161 o
-3 7 -1 163.502 145.440 6.654 3.104 o
-3 7 0 2.702 3.126 0.772 373.605 o
-3 7 1 60.096 51.957 4.552 11.414 o
-3 7 2 1527.050 1597.890 68.465 0.042 o
-3 7 3 60.506 65.645 3.513 12.317 o
-3 7 4 293.202 247.525 11.668 1.144 o
-3 7 5 0.642 0.064 0.504 1503.680 o
-3 7 6 261.425 274.882 14.386 1.070 o
-3 7 7 48.371 48.108 3.987 14.597 o
-3 7 8 171.614 158.966 7.686 2.690 o
-3 8 -2 147.015 132.904 6.733 3.502 o
-3 8 -1 5.258 5.002 0.913 219.519 o
-3 8 0 383.902 402.012 23.067 0.491 o
-3 8 1 128.151 154.067 11.914 2.367 o
-3 8 2 57.232 59.522 3.824 12.665 o
-3 8 3 96.089 101.895 5.892 5.740 o
-3 8 4 35.994 28.059 2.009 30.005 o
-3 8 5 819.151 759.162 30.308 0.166 o
-3 8 6 10.082 7.653 1.144 123.143 o
-3 8 7 294.486 300.787 24.298 0.602 o
-3 8 8 0.058 -0.573 0.942 713.173 o
-3 9 -2 32.078 28.491 2.005 32.455 o
-3 9 -1 348.102 328.873 25.124 0.517 o
-3 9 0 1.781 5.833 0.849 327.610 o
-3 9 1 522.169 585.407 29.573 0.279 o
-3 9 2 15.037 11.851 3.838 30.775 o
-3 9 3 33.407 35.014 3.741 20.238 o
-3 9 4 83.813 77.910 5.189 7.477 o
-3 9 5 76.550 73.458 5.391 7.881 o
-3 9 6 8.179 6.319 1.636 110.646 o
-3 9 7 497.143 425.517 19.972 0.427 o
-3 9 8 27.413 20.239 2.975 30.564 o
-3 10 -2 3.201 3.366 0.895 306.982 o
-3 10 -1 128.860 139.942 6.912 3.756 o
-3 10 0 1450.990 1374.000 66.694 0.048 o
-3 10 1 1100.920 1178.670 149.727 0.023 o
-3 10 2 211.270 155.343 25.950 0.714 o
-3 10 3 21.306 29.797 5.575 15.047 o
-3 10 4 667.000 662.787 38.710 0.179 o
-3 10 5 76.496 62.917 4.603 9.160 o
-3 10 6 35.200 33.050 3.197 22.670 o
-3 10 7 190.028 169.498 10.990 1.951 o
-3 11 -2 1.530 2.888 0.800 453.827 o
-3 11 -1 432.182 419.890 19.831 0.489 o
-3 11 0 393.919 449.192 28.267 0.388 o
-3 11 1 8.590 8.731 2.551 63.485 o
-3 11 2 92.191 122.569 12.424 2.716 o
-3 11 3 270.317 238.410 37.524 0.360 o
-3 11 4 29.384 22.298 2.576 32.118 o
-3 11 5 6.289 3.302 1.560 140.434 o
-3 11 6 0.016 -1.623 1.117 514.382 o
-3 11 7 242.952 198.040 11.946 1.445 o
-3 12 -2 42.008 37.188 4.445 15.311 o
-3 12 -1 59.134 60.792 5.463 9.532 o
-3 12 0 388.578 458.924 35.160 0.307 o
-3 12 1 54.412 51.840 5.701 9.910 o
-3 12 2 26.783 30.908 4.147 20.561 o
-3 12 3 3.328 6.246 2.137 102.209 o
-3 12 4 81.557 83.808 5.918 6.798 o
-3 12 5 200.615 212.773 19.294 1.031 o
-3 12 6 94.612 90.470 10.797 3.417 o
-3 13 -2 303.411 285.403 14.278 0.941 o
-3 13 -1 71.650 69.978 5.018 8.768 o
-3 13 0 201.653 189.081 18.070 1.142 o
-3 13 1 175.530 217.898 15.799 1.366 o
-3 13 2 226.712 277.818 19.181 0.910 o
-3 13 3 32.276 18.868 11.541 4.375 o
-3 13 4 93.603 77.095 28.873 0.715 o
-3 13 5 70.332 53.021 3.827 11.353 o
-3 13 6 145.642 126.953 22.584 0.999 o
-3 14 -2 5.825 4.722 1.466 147.297 o
-3 14 -1 46.980 49.561 3.907 14.929 o
-3 14 0 70.374 72.269 10.211 4.222 o
-3 14 1 1236.550 1451.610 114.482 0.031 o
-3 14 2 124.830 135.618 11.148 2.661 o
-3 14 3 113.424 119.022 13.120 2.371 o
-3 14 4 59.126 70.978 10.006 4.570 o
-3 14 5 236.477 239.707 16.008 1.108 o
-3 15 -2 236.057 221.928 12.555 1.376 o
-3 15 -1 30.008 19.528 4.585 18.864 o
-3 15 0 0.038 1.453 2.039 147.732 o
-3 15 1 0.016 0.918 2.597 93.735 o
-3 15 2 1.823 -1.587 2.136 127.736 o
-3 15 3 79.284 97.762 25.182 0.923 o
-3 15 4 54.522 50.099 9.596 5.185 o
-3 16 -2 1.286 1.744 1.517 224.754 o
-3 16 -1 17.554 9.219 3.658 32.236 o
-3 16 0 20.493 10.871 3.795 28.879 o
-3 16 1 12.312 10.700 3.703 34.217 o
-3 16 2 38.876 34.098 7.438 8.534 o
-2 0 2 969.988 1201.380 65.938 0.069 o
-2 0 4 207.660 187.474 10.355 1.832 o
-2 0 6 217.129 218.928 16.059 1.197 o
-2 0 8 405.907 367.010 34.984 0.320 o
-2 0 10 65.381 37.314 8.267 6.257 o
-2 1 -1 1247.700 1250.990 48.772 0.069 o
-2 1 0 6723.870 5076.830 614.625 0.001 o
-2 1 1 3745.460 2045.480 194.259 0.008 o
-2 1 2 935.421 886.762 37.898 0.122 o
-2 1 3 291.796 232.169 10.292 1.247 o
-2 1 4 111.540 122.596 4.903 5.223 o
-2 1 5 587.460 671.358 26.877 0.255 o
-2 1 6 17.093 13.914 1.494 68.068 o
-2 1 7 945.015 812.048 45.609 0.111 o
-2 1 8 0.143 1.017 0.667 1050.060 o
-2 1 9 123.283 126.583 7.772 3.738 o
-2 1 10 6.245 3.211 1.423 155.062 o
-2 2 -1 1333.600 1214.410 43.920 0.069 o
-2 2 0 214.608 189.382 7.349 2.082 o
-2 2 2 83.834 92.037 5.791 6.581 o
-2 2 3 273.613 291.638 12.041 1.118 o
-2 2 4 1387.070 1467.570 56.848 0.053 o
-2 2 5 569.798 592.629 23.349 0.300 o
-2 2 6 27.979 29.141 2.096 34.570 o
-2 2 7 73.226 68.679 5.971 7.619 o
-2 2 8 28.680 28.473 2.897 28.260 o
-2 2 9 597.295 594.718 29.971 0.248 o
-2 2 10 191.383 212.897 14.104 1.468 o
-2 3 -1 17.135 17.265 1.443 65.003 o
-2 3 0 43.082 40.075 3.378 18.438 o
-2 3 1 2.083 0.995 0.406 767.841 o
-2 3 2 886.774 818.751 39.123 0.130 o
-2 3 3 243.076 263.961 13.964 1.171 o
-2 3 4 1230.270 1383.020 49.829 0.066 o
-2 3 5 223.707 216.595 13.284 1.387 o
-2 3 6 3.793 5.684 0.895 249.286 o
-2 3 7 489.573 385.132 40.657 0.240 o
-2 3 8 0.346 0.611 1.415 296.568 o
-2 3 9 27.166 21.591 4.576 19.317 o
-2 3 10 0.137 0.221 1.047 554.845 o
-2 4 -1 181.805 135.898 5.700 3.049 o
-2 4 0 313.716 291.210 13.381 0.940 o
-2 4 1 910.485 851.291 63.960 0.083 o
-2 4 2 491.101 542.809 23.200 0.357 o
-2 4 3 0.155 0.120 0.229 5980.460 o
-2 4 4 155.890 180.041 6.403 2.992 o
-2 4 5 1280.390 1156.840 68.706 0.056 o
-2 4 6 439.773 415.995 36.056 0.288 o
-2 4 7 572.400 588.396 31.524 0.248 o
-2 4 8 12.542 18.141 2.308 54.914 o
-2 4 9 198.652 199.626 21.419 0.921 o
-2 5 -1 69.723 57.130 2.455 13.146 o
-2 5 0 86.953 103.000 4.823 6.850 o
-2 5 1 16.698 14.476 1.348 71.508 o
-2 5 2 1827.110 2004.550 89.466 0.027 o
-2 5 3 15.672 13.452 1.043 83.087 o
-2 5 4 165.968 179.950 6.366 2.842 o
-2 5 5 47.432 43.075 4.448 13.931 o
-2 5 6 490.021 493.572 20.233 0.403 o
-2 5 7 99.338 93.370 5.349 6.117 o
-2 5 8 31.680 31.997 3.352 23.294 o
-2 5 9 3.102 4.220 1.353 200.129 o
-2 6 -1 421.496 516.651 18.252 0.474 o
-2 6 0 207.227 201.967 8.082 2.018 o
-2 6 1 74.619 82.853 3.536 9.609 o
-2 6 2 112.564 100.899 5.773 5.194 o
-2 6 3 9.205 7.094 0.960 143.481 o
-2 6 4 327.353 244.423 13.897 0.947 o
-2 6 5 70.466 62.822 3.293 11.489 o
-2 6 6 664.766 610.470 24.615 0.249 o
-2 6 7 25.784 23.383 2.074 39.054 o
-2 6 8 427.277 409.145 19.410 0.506 o
-2 6 9 51.799 47.448 4.757 12.268 o
-2 7 -1 96.623 72.636 4.877 7.126 o
-2 7 0 19.605 20.330 1.187 60.359 o
-2 7 1 561.983 595.852 25.914 0.286 o
-2 7 2 1023.950 1084.030 46.400 0.091 o
-2 7 3 962.282 1005.570 36.568 0.114 o
-2 7 4 148.301 138.730 6.678 3.434 o
-2 7 5 25.793 27.188 1.807 39.717 o
-2 7 6 0.003 0.230 0.571 1804.550 o
-2 7 7 20.713 17.843 1.930 49.776 o
-2 7 8 17.020 11.927 2.137 56.322 o
-2 7 9 45.436 48.267 4.590 13.468 o
-2 8 -1 1168.160 1329.250 45.109 0.074 o
-2 8 0 479.377 455.266 18.714 0.444 o
-2 8 1 922.194 956.979 62.839 0.081 o
-2 8 2 418.645 407.733 16.912 0.556 o
-2 8 3 749.702 803.520 34.987 0.163 o
-2 8 4 414.015 412.960 22.150 0.474 o
-2 8 5 29.898 30.762 2.254 31.476 o
-2 8 6 2.799 2.890 0.768 376.312 o
-2 8 7 15.084 19.363 2.588 45.424 o
-2 8 8 327.010 340.267 25.378 0.525 o
-2 8 9 29.953 33.945 3.958 20.279 o
-2 9 -1 475.800 488.841 17.463 0.446 o
-2 9 0 301.313 322.132 12.425 0.967 o
-2 9 1 1025.240 948.213 58.146 0.081 o
-2 9 2 383.745 409.958 17.005 0.598 o
-2 9 3 111.946 104.537 6.929 4.609 o
-2 9 4 358.119 350.185 33.288 0.364 o
-2 9 5 1.353 -1.061 0.821 628.431 o
-2 9 6 525.501 483.247 21.364 0.371 o
-2 9 7 599.688 582.700 28.880 0.255 o
-2 9 8 126.600 133.331 7.133 3.807 o
-2 10 -1 1244.720 1274.820 50.112 0.068 o
-2 10 0 285.170 304.657 12.158 1.052 o
-2 10 1 489.342 503.757 22.622 0.376 o
-2 10 2 46.142 52.229 3.290 16.532 o
-2 10 3 0.387 0.147 0.808 834.193 o
-2 10 4 73.837 64.578 4.688 9.213 o
-2 10 5 122.202 135.857 9.800 3.047 o
-2 10 6 53.480 40.699 4.584 12.885 o
-2 10 7 17.867 19.257 2.338 46.297 o
-2 10 8 203.128 199.390 12.862 1.564 o
-2 11 -1 18.675 18.904 1.750 54.911 o
-2 11 0 460.912 479.754 20.048 0.434 o
-2 11 1 237.809 252.015 12.855 1.283 o
-2 11 2 338.110 369.276 19.604 0.631 o
-2 11 3 25.692 20.688 2.371 37.332 o
-2 11 4 215.653 204.666 11.716 1.591 o
-2 11 5 13.297 12.305 2.062 64.814 o
-2 11 6 88.671 88.237 6.534 5.898 o
-2 11 7 54.877 41.684 6.085 9.610 o
-2 12 -1 123.010 126.014 5.339 4.605 o
-2 12 0 26.153 27.647 2.901 29.802 o
-2 12 1 92.960 74.077 9.288 4.272 o
-2 12 2 35.224 41.039 5.090 14.020 o
-2 12 3 33.582 36.198 3.378 21.775 o
-2 12 4 169.535 169.200 11.840 1.986 o
-2 12 5 218.804 219.514 19.963 0.945 o
-2 12 6 74.676 68.022 6.730 6.785 o
-2 12 7 79.310 77.085 7.252 5.942 o
-2 13 -1 768.875 801.393 28.039 0.179 o
-2 13 0 4.698 5.778 1.117 195.213 o
-2 13 1 12.028 13.564 1.712 76.639 o
-2 13 2 36.280 33.632 5.821 12.217 o
-2 13 3 178.456 188.183 13.840 1.617 o
-2 13 4 16.797 17.332 2.878 40.227 o
-2 13 5 38.412 28.463 4.030 18.483 o
-2 13 6 57.994 46.341 5.670 9.894 o
-2 14 -1 75.921 81.555 4.861 8.193 o
-2 14 0 36.348 36.069 3.362 20.984 o
-2 14 1 38.193 32.480 3.382 20.877 o
-2 14 2 4.081 3.829 1.602 154.352 o
-2 14 3 1.467 -0.315 1.230 339.983 o
-2 14 4 33.023 36.486 4.137 18.347 o
-2 14 5 33.771 40.019 7.601 8.371 o
-2 15 -1 452.205 378.500 32.139 0.329 o
-2 15 0 176.745 199.305 10.704 1.975 o
-2 15 1 372.230 328.361 28.442 0.436 o
-2 15 2 461.798 457.359 24.587 0.388 o
-2 15 3 206.636 214.562 14.047 1.402 o
-2 15 4 103.889 106.096 12.787 2.585 o
-2 16 -1 94.546 86.859 6.188 5.925 o
-2 16 0 53.645 47.659 4.353 12.916 o
-2 16 1 250.374 118.191 100.377 0.062 o
-2 16 2 78.161 64.134 9.852 4.359 o
-2 16 3 62.714 67.121 8.173 5.931 o
-2 17 0 3.044 4.386 4.788 26.459 o
-1 0 1 12.836 13.786 0.913 97.483 o
-1 0 3 1.053 1.024 0.807 608.891 o
-1 0 5 750.429 793.335 52.672 0.117 o
-1 0 7 306.259 315.125 23.028 0.616 o
-1 0 9 256.487 253.108 19.444 0.863 o
-1 1 0 850.331 796.262 30.661 0.156 o
-1 1 1 738.624 750.607 28.921 0.189 o
-1 1 2 638.455 639.890 27.240 0.241 o
-1 1 3 1709.520 1652.200 106.262 0.027 o
-1 1 4 266.587 297.691 11.284 1.168 o
-1 1 5 37.339 49.951 2.785 20.858 o
-1 1 6 296.283 295.844 12.730 1.008 o
-1 1 7 419.112 439.727 25.425 0.412 o
-1 1 8 526.540 562.356 32.376 0.262 o
-1 1 9 63.892 59.337 4.457 10.741 o
-1 1 10 250.542 267.906 14.742 1.095 o
-1 2 0 2.146 5.916 0.624 368.890 o
-1 2 2 25.208 28.378 1.421 43.019 o
-1 2 3 2.502 1.330 0.339 681.251 o
-1 2 4 657.345 664.405 28.939 0.223 o
-1 2 5 38.036 65.539 3.339 16.717 o
-1 2 6 252.253 233.781 12.366 1.293 o
-1 2 7 189.119 177.179 9.905 2.069 o
-1 2 8 121.555 126.330 8.578 3.505 o
-1 2 9 103.435 92.992 9.505 3.784 o
-1 2 10 130.414 138.565 8.551 3.258 o
-1 3 0 1642.550 1555.110 65.848 0.041 o
-1 3 2 385.973 363.854 15.791 0.652 o
-1 3 3 808.322 983.369 35.166 0.138 o
-1 3 4 65.172 60.924 2.830 13.051 o
-1 3 5 85.930 99.374 4.647 7.140 o
-1 3 6 529.701 529.670 29.827 0.286 o
-1 3 7 2017.010 1888.640 133.485 0.019 o
-1 3 8 152.062 153.351 10.077 2.511 o
-1 3 9 64.686 57.262 4.966 9.967 o
-1 3 10 25.868 22.516 3.004 30.552 o
-1 4 0 136.852 170.790 7.317 3.198 o
-1 4 1 157.420 150.396 5.815 3.337 o
-1 4 2 444.649 479.934 20.426 0.443 o
-1 4 3 959.486 1072.600 39.628 0.106 o
-1 4 4 2110.950 2125.400 71.430 0.026 o
-1 4 5 358.221 335.320 12.158 0.814 o
-1 4 6 39.480 45.387 2.875 20.567 o
-1 4 7 30.149 30.722 3.295 24.448 o
-1 4 8 214.945 204.208 12.799 1.497 o
-1 4 9 18.665 11.385 2.158 53.688 o
-1 4 10 221.279 236.257 15.246 1.212 o
-1 5 0 433.369 451.576 15.489 0.533 o
-1 5 1 3178.850 2259.660 352.910 0.004 o
-1 5 2 5119.010 4477.950 423.351 0.002 o
-1 5 3 1734.650 1894.020 67.346 0.035 o
-1 5 4 9.608 10.118 0.908 129.320 o
-1 5 5 23.002 25.425 1.790 43.794 o
-1 5 6 131.280 132.740 7.441 3.620 o
-1 5 7 20.055 21.103 2.176 45.023 o
-1 5 8 0.120 -1.724 0.760 1056.860 o
-1 5 9 15.178 17.837 2.712 44.101 o
-1 6 0 13.781 14.928 0.775 93.668 o
-1 6 1 361.578 368.899 15.194 0.701 o
-1 6 2 15.697 24.473 1.741 55.392 o
-1 6 3 0.034 1.090 0.334 2470.100 o
-1 6 4 71.548 59.049 2.642 12.463 o
-1 6 5 173.036 162.800 7.921 2.607 o
-1 6 6 1835.170 1737.360 67.874 0.034 o
-1 6 7 75.916 70.967 4.024 9.530 o
-1 6 8 119.733 123.231 7.140 4.076 o
-1 6 9 238.236 266.773 16.716 1.024 o
-1 7 0 367.453 353.988 12.342 0.769 o
-1 7 1 122.652 123.938 5.072 4.744 o
-1 7 2 136.719 108.829 4.924 4.586 o
-1 7 3 7.024 8.260 0.787 173.703 o
-1 7 4 64.769 61.088 2.824 13.113 o
-1 7 5 30.514 27.496 1.881 34.832 o
-1 7 6 502.989 523.502 19.829 0.387 o
-1 7 7 358.858 250.367 34.174 0.374 o
-1 7 8 189.055 195.303 10.258 1.952 o
-1 7 9 13.649 13.893 3.559 34.369 o
-1 8 0 186.449 193.123 7.115 2.381 o
-1 8 1 299.154 306.103 11.765 1.021 o
-1 8 2 48.610 51.065 2.628 17.877 o
-1 8 3 239.242 280.494 11.930 1.276 o
-1 8 4 256.075 297.440 14.642 1.039 o
-1 8 5 559.911 595.630 29.148 0.266 o
-1 8 6 129.472 144.240 7.230 3.603 o
-1 8 7 58.691 62.645 4.001 11.927 o
-1 8 8 11.989 12.169 1.875 73.600 o
-1 8 9 225.130 235.797 14.956 1.219 o
-1 9 0 0.074 0.362 0.280 4478.360 o
-1 9 1 356.379 354.824 12.696 0.783 o
-1 9 2 271.220 305.225 11.937 1.107 o
-1 9 3 238.006 199.560 8.222 1.769 o
-1 9 4 179.607 193.149 9.130 2.187 o
-1 9 5 133.141 104.813 9.869 3.091 o
-1 9 6 14.616 14.897 1.846 64.663 o
-1 9 7 233.136 239.559 18.315 0.983 o
-1 9 8 2.195 0.184 0.899 458.368 o
-1 10 0 653.380 714.627 24.601 0.235 o
-1 10 1 308.464 312.150 11.365 0.998 o
-1 10 2 8.791 7.848 1.062 137.481 o
-1 10 3 96.081 105.081 7.199 4.932 o
-1 10 4 1230.560 1133.980 71.868 0.056 o
-1 10 5 106.089 101.793 5.469 5.576 o
-1 10 6 51.373 48.299 3.488 15.326 o
-1 10 7 42.873 50.039 3.770 16.058 o
-1 10 8 185.997 183.390 16.395 1.336 o
-1 11 0 735.907 755.651 26.032 0.198 o
-1 11 1 4.596 3.657 0.723 286.872 o
-1 11 2 2.120 0.397 0.665 615.266 o
-1 11 3 238.529 245.261 12.062 1.347 o
-1 11 4 39.750 42.506 3.899 17.084 o
-1 11 5 150.479 152.149 12.050 2.163 o
-1 11 6 42.652 39.958 3.340 18.703 o
-1 11 7 442.724 449.316 26.226 0.384 o
-1 11 8 56.899 73.619 5.792 8.733 o
-1 12 0 3916.650 3949.560 132.473 0.008 o
-1 12 1 657.490 683.512 27.685 0.225 o
-1 12 2 0.088 0.249 0.661 1308.630 o
-1 12 3 7.239 5.148 1.247 151.612 o
-1 12 4 17.304 21.696 3.519 30.567 o
-1 12 5 22.138 30.454 8.737 7.274 o
-1 12 6 7.563 5.541 2.070 90.302 o
-1 12 7 14.609 17.813 2.083 56.559 o
-1 13 0 33.129 36.500 2.158 28.390 o
-1 13 1 656.404 667.622 33.739 0.201 o
-1 13 2 277.892 315.363 21.236 0.706 o
-1 13 3 115.376 96.413 6.732 4.718 o
-1 13 4 1.954 -0.917 1.118 366.061 o
-1 13 5 36.610 43.354 5.335 12.966 o
-1 13 6 102.074 90.206 9.652 3.771 o
-1 14 0 26.054 25.350 1.581 42.407 o
-1 14 1 305.925 322.048 14.072 0.896 o
-1 14 2 14.044 13.967 2.480 52.116 o
-1 14 3 37.873 42.574 6.325 10.448 o
-1 14 4 13.235 11.199 2.409 57.043 o
-1 14 5 446.615 458.316 43.228 0.223 o
-1 14 6 60.009 58.978 6.085 8.618 o
-1 15 0 10.171 7.374 1.332 113.348 o
-1 15 1 0.811 -2.383 0.893 639.699 o
-1 15 2 172.519 202.888 18.023 1.207 o
-1 15 3 258.187 290.188 24.032 0.657 o
-1 15 4 41.764 41.341 6.065 10.736 o
-1 15 5 16.011 8.798 3.394 36.738 o
-1 16 0 149.117 120.376 5.935 3.800 o
-1 16 1 17.129 15.310 2.517 46.589 o
-1 16 2 62.432 62.650 10.829 4.087 o
-1 16 3 0.667 -3.406 3.202 61.721 o
-1 16 4 160.520 187.725 14.953 1.578 o
-1 17 0 0.268 1.238 1.887 169.871 o
-1 17 1 20.297 16.163 4.089 25.270 o
-1 17 2 106.914 98.889 13.524 2.402 o
0 0 2 766.377 766.640 36.600 0.158 o
0 0 4 166.040 134.468 7.531 2.973 o
0 0 6 23.522 35.721 3.203 26.811 o
0 0 8 1354.480 1520.050 220.415 0.011 o
0 0 10 54.659 53.518 7.027 7.808 o
0 1 1 697.720 650.866 25.149 0.228 o
0 1 2 476.621 507.212 28.846 0.322 o
0 1 3 2543.270 2359.800 302.722 0.005 o
0 1 4 1223.950 1378.200 53.798 0.064 o
0 1 5 0.254 0.932 0.402 1855.320 o
0 1 6 132.749 127.266 6.391 3.972 o
0 1 7 373.868 434.517 22.431 0.496 o
0 1 8 0.360 1.030 1.217 376.953 o
0 1 9 47.886 34.436 5.006 12.994 o
0 1 10 30.056 30.091 3.914 21.023 o
0 2 0 572.649 613.564 28.848 0.260 o
0 2 1 9.135 3.553 0.266 208.690 o
0 2 2 342.958 311.548 12.743 0.861 o
0 2 3 846.710 802.852 29.101 0.160 o
0 2 4 395.669 411.008 17.066 0.580 o
0 2 5 2286.460 2057.410 87.378 0.022 o
0 2 6 15.676 18.995 1.815 59.011 o
0 2 7 26.763 26.469 3.331 26.505 o
0 2 8 101.815 120.545 8.498 3.972 o
0 2 9 521.267 536.940 27.516 0.306 o
0 2 10 37.323 39.137 4.580 15.509 o
0 3 1 147.633 197.386 6.863 2.903 o
0 3 2 1843.640 1878.080 79.842 0.030 o
0 3 3 51.995 65.116 2.683 15.326 o
0 3 4 0.518 0.354 0.280 2498.120 o
0 3 5 205.148 238.727 10.496 1.664 o
0 3 6 565.621 554.567 23.034 0.314 o
0 3 7 49.727 48.767 3.979 14.331 o
0 3 8 145.061 168.788 13.493 1.906 o
0 3 9 26.143 24.976 2.985 29.867 o
0 3 10 0.910 2.966 2.502 93.470 o
0 4 0 779.698 788.834 33.414 0.163 o
0 4 1 10.647 9.920 0.677 131.269 o
0 4 2 0.537 -0.033 0.147 4032.420 o
0 4 3 870.667 993.840 36.163 0.126 o
0 4 4 3.539 2.266 0.422 454.880 o
0 4 5 1686.570 1575.520 57.231 0.042 o
0 4 6 48.006 58.717 3.245 15.565 o
0 4 7 169.734 170.540 8.917 2.435 o
0 4 8 27.650 31.797 3.286 25.297 o
0 4 9 609.495 593.366 41.181 0.187 o
0 4 10 2.223 1.944 1.432 222.730 o
0 5 1 0.091 2.643 0.349 1321.580 o
0 5 2 212.070 236.038 8.529 1.800 o
0 5 3 367.047 349.850 13.071 0.758 o
0 5 4 1.532 0.600 0.276 1166.930 o
0 5 5 20.794 17.437 1.297 59.363 o
0 5 6 738.937 702.412 28.563 0.196 o
0 5 7 40.426 36.358 3.179 20.476 o
0 5 8 180.203 189.836 11.930 1.829 o
0 5 9 26.919 29.349 3.526 24.503 o
0 5 10 158.169 176.972 17.386 1.348 o
0 6 0 1527.900 1605.350 76.115 0.039 o
0 6 1 276.432 293.714 10.918 1.156 o
0 6 2 2.741 8.104 0.770 266.161 o
0 6 3 2.000 2.380 0.431 630.273 o
0 6 4 535.308 489.273 21.183 0.364 o
0 6 5 30.548 35.627 2.037 30.888 o
0 6 6 1883.950 1863.130 72.755 0.031 o
0 6 7 218.357 223.036 9.348 1.731 o
0 6 8 134.935 165.375 10.272 2.592 o
0 6 9 2.398 3.306 1.361 220.304 o
0 7 1 1975.810 1978.650 76.591 0.028 o
0 7 2 827.995 904.656 35.422 0.140 o
0 7 3 3056.000 3234.970 108.500 0.012 o
0 7 4 1.338 0.346 0.591 869.052 o
0 7 5 397.250 411.911 18.582 0.551 o
0 7 6 104.928 102.737 5.410 5.635 o
0 7 7 35.747 37.223 2.802 23.658 o
0 7 8 50.474 47.506 3.827 14.699 o
0 7 9 0.202 -0.591 1.004 607.064 o
0 8 0 160.987 169.317 9.983 2.353 o
0 8 1 725.985 805.070 25.858 0.195 o
0 8 2 234.768 254.901 9.333 1.529 o
0 8 3 232.383 255.407 8.880 1.572 o
0 8 4 601.329 605.188 22.587 0.287 o
0 8 5 0.134 -0.633 0.433 2899.630 o
0 8 6 71.080 73.591 4.477 9.318 o
0 8 7 732.351 797.294 35.310 0.166 o
0 8 8 80.224 90.951 8.008 5.133 o
0 8 9 49.851 46.132 4.660 12.829 o
0 9 1 909.354 929.425 29.798 0.137 o
0 9 2 9.605 4.451 0.497 182.119 o
0 9 3 3.496 6.094 0.685 289.418 o
0 9 4 19.202 18.439 1.411 59.841 o
0 9 5 1.073 1.102 0.864 551.168 o
0 9 6 799.412 807.512 35.386 0.152 o
0 9 7 442.192 497.411 29.409 0.335 o
0 9 8 657.672 720.528 41.161 0.167 o
0 10 0 416.222 439.314 25.901 0.408 o
0 10 1 1257.140 1345.090 42.820 0.070 o
0 10 2 0.135 -0.143 0.315 4815.480 o
0 10 3 371.977 389.193 14.956 0.671 o
0 10 4 112.399 119.209 5.751 4.894 o
0 10 5 89.695 109.004 5.802 5.915 o
0 10 6 63.757 70.384 5.310 8.997 o
0 10 7 69.935 90.169 10.940 3.710 o
0 10 8 64.337 79.666 6.149 7.622 o
0 11 1 149.988 144.095 5.195 3.689 o
0 11 2 372.469 355.147 11.497 0.776 o
0 11 3 29.208 36.125 1.654 33.961 o
0 11 4 241.569 214.730 10.617 1.511 o
0 11 5 29.604 22.798 2.072 35.983 o
0 11 6 330.482 360.353 18.274 0.682 o
0 11 7 46.547 55.069 5.243 11.381 o
0 11 8 289.701 330.107 19.997 0.718 o
0 12 0 2.356 4.447 0.955 303.154 o
0 12 1 2.335 2.071 0.698 469.076 o
0 12 2 107.455 111.326 4.436 5.832 o
0 12 3 46.532 37.515 2.430 21.127 o
0 12 4 34.455 37.224 2.317 26.663 o
0 12 5 129.842 133.823 7.734 3.548 o
0 12 6 80.310 83.757 9.858 4.127 o
0 12 7 10.549 8.050 1.758 89.205 o
0 13 1 299.983 294.632 10.394 1.090 o
0 13 2 109.745 114.375 5.478 5.191 o
0 13 3 643.507 639.787 28.429 0.233 o
0 13 4 3.270 0.245 1.035 327.983 o
0 13 5 11.388 8.946 2.255 66.971 o
0 13 6 17.606 17.965 3.750 29.026 o
0 14 0 737.122 802.476 40.373 0.150 o
0 14 1 460.334 459.757 16.945 0.480 o
0 14 2 131.814 115.131 6.265 4.188 o
0 14 3 7.250 4.857 1.030 173.414 o
0 14 4 100.614 85.761 17.264 1.727 o
0 14 5 46.757 32.716 4.674 14.196 o
0 14 6 2.079 8.019 2.208 98.933 o
0 15 1 379.280 360.977 19.851 0.578 o
0 15 2 142.439 150.768 10.235 2.597 o
0 15 3 49.592 54.331 7.779 7.071 o
0 15 4 21.086 18.781 3.003 34.725 o
0 15 5 75.238 68.356 6.543 6.932 o
0 16 0 7.264 5.771 2.276 80.764 o
0 16 1 4.121 3.148 1.129 230.373 o
0 16 2 34.861 30.324 3.003 24.349 o
0 16 3 55.523 44.691 6.568 8.669 o
0 16 4 124.893 124.225 11.267 2.691 o
0 17 1 12.223 11.216 2.791 49.716 o
0 17 2 566.549 606.939 38.595 0.207 o
1 0 1 189.692 167.623 6.965 2.513 o
1 0 3 436.520 375.422 23.283 0.454 o
1 0 5 436.578 356.049 21.176 0.495 o
1 0 7 36.109 28.550 4.417 17.355 o
1 0 9 40.980 56.670 12.194 3.671 o
1 1 1 674.031 644.528 21.859 0.252 o
1 1 2 2989.490 2775.850 131.529 0.012 o
1 1 3 780.690 828.659 28.425 0.172 o
1 1 4 1220.950 1113.430 48.066 0.075 o
1 1 5 140.099 171.902 7.580 3.075 o
1 1 6 621.520 551.910 22.952 0.288 o
1 1 7 279.541 278.405 15.445 0.963 o
1 1 8 177.386 196.271 12.707 1.732 o
1 1 9 0.100 -0.633 2.214 130.535 o
1 1 10 115.409 130.798 8.992 3.437 o
1 2 2 489.292 479.651 17.893 0.434 o
1 2 3 1879.160 1833.240 71.267 0.032 o
1 2 4 700.233 632.939 22.218 0.242 o
1 2 5 30.572 25.404 1.993 34.791 o
1 2 6 38.969 41.026 2.869 21.476 o
1 2 7 212.840 187.081 11.067 1.723 o
1 2 8 164.835 204.990 12.077 1.862 o
1 2 9 328.517 353.812 25.648 0.512 o
1 2 10 240.667 216.348 22.697 0.777 o
1 3 1 2426.640 2461.060 122.409 0.016 o
1 3 2 0.024 0.364 0.371 3381.690 o
1 3 3 11.901 5.613 0.598 142.319 o
1 3 4 155.983 165.640 6.197 3.149 o
1 3 5 183.180 202.689 8.596 2.178 o
1 3 6 1.472 0.173 0.678 745.756 o
1 3 7 1039.990 1075.670 112.057 0.037 o
1 3 8 94.937 91.723 8.070 4.676 o
1 3 9 182.726 147.773 17.831 1.275 o
1 3 10 6.921 5.445 1.563 126.554 o
1 4 1 1076.350 1116.960 43.859 0.089 o
1 4 2 687.338 668.987 19.656 0.251 o
1 4 3 145.557 157.151 5.914 3.484 o
1 4 4 566.523 505.624 18.062 0.364 o
1 4 5 134.263 112.352 4.646 4.697 o
1 4 6 6.689 4.064 0.921 199.810 o
1 4 7 858.402 884.225 104.543 0.045 o
1 4 8 270.107 270.273 18.372 0.866 o
1 4 9 38.387 35.157 3.573 19.588 o
1 4 10 110.804 115.596 9.392 3.504 o
1 5 1 173.634 154.478 5.783 3.016 o
1 5 2 3558.330 4032.770 221.434 0.006 o
1 5 3 776.707 768.146 23.739 0.193 o
1 5 4 15.379 16.465 1.349 72.380 o
1 5 5 1416.450 1302.550 39.850 0.065 o
1 5 6 2154.370 1995.560 72.257 0.026 o
1 5 7 243.051 277.058 15.031 1.088 o
1 5 8 20.561 20.927 2.513 40.140 o
1 5 9 6.304 2.274 1.338 169.429 o
1 6 1 632.494 516.078 25.803 0.274 o
1 6 2 1547.190 1932.090 115.119 0.025 o
1 6 3 503.393 481.211 18.270 0.417 o
1 6 4 41.436 36.798 3.002 20.816 o
1 6 5 516.120 540.722 22.292 0.351 o
1 6 6 1619.280 1620.190 63.930 0.041 o
1 6 7 0.817 0.420 0.761 762.316 o
1 6 8 45.146 45.623 6.252 9.904 o
1 6 9 59.969 64.663 6.332 8.106 o
1 7 1 131.451 124.781 4.574 4.609 o
1 7 2 849.282 853.907 49.801 0.111 o
1 7 3 30.108 36.275 1.859 32.032 o
1 7 4 208.302 187.935 6.816 2.205 o
1 7 5 13.918 12.274 1.599 76.308 o
1 7 6 0.121 -1.235 1.062 554.905 o
1 7 7 244.064 287.585 23.096 0.708 o
1 7 8 156.680 172.302 10.222 2.340 o
1 7 9 0.032 -1.012 1.526 275.440 o
1 8 1 127.702 109.353 3.895 5.232 o
1 8 2 13.419 16.282 1.360 78.238 o
1 8 3 564.653 609.781 21.815 0.308 o
1 8 4 100.907 105.242 4.468 6.272 o
1 8 5 1212.470 1241.390 53.680 0.068 o
1 8 6 2.489 2.516 1.153 278.091 o
1 8 7 1.652 -0.323 0.879 536.215 o
1 8 8 43.814 44.415 4.117 15.371 o
1 8 9 151.076 214.367 12.752 1.832 o
1 9 1 7.464 5.694 0.585 202.513 o
1 9 2 324.708 328.027 16.305 0.775 o
1 9 3 124.915 111.586 4.882 4.945 o
1 9 4 5.631 6.284 0.929 197.981 o
1 9 5 0.223 -0.645 0.467 2336.820 o
1 9 6 198.150 200.829 11.738 1.702 o
1 9 7 219.481 244.764 13.427 1.333 o
1 9 8 28.546 20.671 2.685 32.266 o
1 10 1 3.960 2.973 0.561 364.780 o
1 10 2 91.774 99.032 5.020 6.562 o
1 10 3 25.291 34.060 2.012 35.399 o
1 10 4 345.957 363.972 16.922 0.689 o
1 10 5 121.764 133.583 7.701 3.721 o
1 10 6 15.543 13.409 3.563 33.340 o
1 10 7 28.094 21.807 2.748 31.651 o
1 10 8 323.676 252.505 58.666 0.164 o
1 11 1 28.512 29.257 2.095 34.125 o
1 11 2 135.254 128.172 5.069 4.297 o
1 11 3 154.210 166.294 7.252 2.967 o
1 11 4 337.356 322.379 15.063 0.793 o
1 11 5 47.259 44.744 3.232 17.304 o
1 11 6 7.854 8.492 1.547 111.686 o
1 11 7 139.156 152.920 8.931 2.920 o
1 11 8 24.853 28.579 3.142 28.329 o
1 12 1 467.681 494.327 16.658 0.460 o
1 12 2 2.466 2.655 0.677 442.046 o
1 12 3 194.956 188.887 8.912 2.093 o
1 12 4 295.239 283.891 15.385 0.919 o
1 12 5 232.045 228.827 12.692 1.368 o
1 12 6 26.210 27.124 2.659 31.918 o
1 12 7 2.285 1.052 1.176 303.821 o
1 13 1 4.421 5.624 1.201 189.764 o
1 13 2 535.782 521.566 18.700 0.374 o
1 13 3 228.129 221.789 9.469 1.660 o
1 13 4 56.579 46.605 2.993 15.642 o
1 13 5 36.249 32.005 2.733 24.875 o
1 13 6 146.691 155.546 10.254 2.521 o
1 14 1 0.592 0.224 0.603 1181.760 o
1 14 2 0.101 0.801 0.567 1429.900 o
1 14 3 7.283 7.052 0.933 167.042 o
1 14 4 1.588 1.429 0.577 690.578 o
1 14 5 596.067 600.825 31.414 0.239 o
1 14 6 9.110 5.844 1.347 124.672 o
1 15 1 0.680 -0.441 0.815 767.113 o
1 15 2 390.137 367.956 17.243 0.613 o
1 15 3 48.779 46.821 4.274 13.890 o
1 15 4 0.194 -0.114 0.650 1364.330 o
1 15 5 72.959 71.384 6.127 7.391 o
1 16 1 0.012 1.051 0.858 735.514 o
1 16 2 2.975 2.205 1.312 230.215 o
1 16 3 20.262 17.663 3.230 33.101 o
1 16 4 110.960 113.411 9.767 3.387 o
1 17 1 0.709 -3.040 1.578 240.728 o
1 17 2 35.872 25.679 4.788 16.183 o
2 0 2 1350.770 1222.810 74.213 0.049 o
2 0 4 5268.450 5476.460 299.124 0.003 o
2 0 6 7.586 16.948 3.838 33.306 o
2 0 8 2049.270 2038.100 202.703 0.011 o
2 0 10 75.048 68.788 9.684 4.474 o
2 1 2 747.556 719.994 31.434 0.182 o
2 1 3 390.325 290.372 10.554 0.830 o
2 1 4 542.135 589.426 19.827 0.340 o
2 1 5 17.572 6.285 0.922 92.691 o
2 1 6 93.318 77.481 13.840 2.500 o
2 1 7 241.242 269.344 15.023 1.106 o
2 1 8 54.179 45.724 4.368 12.943 o
2 1 9 11.938 5.531 1.538 98.578 o
2 1 10 24.297 21.928 3.528 27.082 o
2 2 2 41.107 40.413 1.930 24.436 o
2 2 3 110.249 155.257 6.310 4.211 o
2 2 4 497.613 479.475 17.340 0.432 o
2 2 5 403.688 352.947 13.235 0.683 o
2 2 6 3.204 1.911 0.890 340.606 o
2 2 7 153.934 159.417 16.379 1.502 o
2 2 8 79.824 79.796 5.996 6.923 o
2 2 9 87.976 96.998 7.818 4.938 o
2 2 10 40.090 44.064 4.418 15.133 o
2 3 2 1875.170 1684.000 61.017 0.036 o
2 3 3 225.653 247.500 9.026 1.628 o
2 3 4 0.005 0.500 0.646 1330.820 o
2 3 5 195.410 175.584 7.035 2.389 o
2 3 6 479.851 551.563 35.904 0.254 o
2 3 7 45.606 33.153 3.758 17.319 o
2 3 8 5.692 4.939 1.773 120.151 o
2 3 9 9.025 9.326 2.059 79.564 o
2 3 10 244.598 287.883 21.347 0.773 o
2 4 2 3.042 4.647 0.706 334.290 o
2 4 3 157.543 126.449 5.047 3.751 o
2 4 4 397.882 372.130 17.036 0.603 o
2 4 5 758.704 718.799 37.021 0.163 o
2 4 6 293.357 239.014 44.437 0.269 o
2 4 7 5.288 6.707 1.595 131.455 o
2 4 8 26.522 26.695 3.912 22.627 o
2 4 9 530.356 617.518 47.533 0.171 o
2 5 2 1609.160 1680.320 72.605 0.038 o
2 5 3 18.699 16.134 1.388 63.722 o
2 5 4 22.669 23.298 1.805 45.282 o
2 5 5 15.717 18.776 2.773 42.121 o
2 5 6 20.483 23.073 2.804 35.861 o
2 5 7 16.398 14.345 2.889 41.770 o
2 5 8 1.507 1.998 1.213 302.884 o
2 5 9 29.513 29.620 3.246 25.238 o
2 6 2 1019.400 1157.670 37.358 0.099 o
2 6 3 1.579 2.489 0.520 638.349 o
2 6 4 767.561 743.198 26.424 0.191 o
2 6 5 59.578 63.152 4.648 10.687 o
2 6 6 547.845 515.548 27.331 0.300 o
2 6 7 20.418 20.352 2.507 40.623 o
2 6 8 227.455 263.715 15.162 1.151 o
2 6 9 2.288 4.028 1.301 227.423 o
2 7 2 10.262 10.268 1.022 118.672 o
2 7 3 424.456 461.219 14.915 0.546 o
2 7 4 70.084 63.798 5.945 7.986 o
2 7 5 2847.940 2756.150 222.294 0.008 o
2 7 6 887.327 908.883 44.727 0.114 o
2 7 7 1576.150 1421.670 104.663 0.030 o
2 7 8 8.395 8.496 1.837 93.166 o
2 7 9 0.583 -0.403 1.210 398.940 o
2 8 2 6.693 8.790 0.989 159.168 o
2 8 3 31.501 35.323 2.170 29.602 o
2 8 4 351.218 351.551 15.224 0.734 o
2 8 5 356.641 317.468 60.291 0.151 o
2 8 6 9.503 8.756 1.533 102.826 o
2 8 7 612.299 653.994 33.130 0.217 o
2 8 8 59.177 57.155 4.449 11.406 o
2 8 9 21.671 25.037 5.551 15.425 o
2 9 2 671.936 711.390 29.285 0.210 o
2 9 3 46.412 46.440 2.401 19.795 o
2 9 4 54.339 63.934 3.584 13.231 o
2 9 5 2.698 1.690 0.783 416.762 o
2 9 6 1.385 1.570 1.042 390.055 o
2 9 7 200.289 261.842 23.703 0.759 o
2 9 8 32.227 32.555 3.640 21.455 o
2 10 2 74.128 76.459 4.722 8.664 o
2 10 3 557.611 503.978 18.163 0.369 o
2 10 4 34.368 33.261 2.675 25.748 o
2 10 5 81.082 78.440 5.418 7.417 o
2 10 6 0.034 -1.155 0.867 846.531 o
2 10 7 207.546 234.797 13.044 1.438 o
2 10 8 9.727 12.061 2.498 59.954 o
2 11 2 330.544 304.972 15.634 0.808 o
2 11 3 16.915 17.149 1.654 61.542 o
2 11 4 448.572 421.395 19.832 0.473 o
2 11 5 168.923 164.779 8.950 2.470 o
2 11 6 265.940 275.640 15.463 1.002 o
2 11 7 90.430 103.267 16.144 1.926 o
2 12 2 14.288 15.935 1.873 63.610 o
2 12 3 45.524 49.684 2.942 17.988 o
2 12 4 52.319 52.233 4.082 13.390 o
2 12 5 1.298 0.616 1.098 396.925 o
2 12 6 68.293 74.970 5.233 8.576 o
2 12 7 0.074 -1.577 1.162 469.730 o
2 13 2 32.748 34.129 2.502 27.295 o
2 13 3 338.104 322.506 14.720 0.802 o
2 13 4 12.504 13.293 2.133 63.547 o
2 13 5 39.654 42.138 4.144 16.291 o
2 13 6 110.474 113.496 12.188 2.651 o
2 14 2 14.910 14.186 1.648 69.630 o
2 14 3 124.855 119.073 5.217 4.700 o
2 14 4 360.773 380.244 18.164 0.626 o
2 14 5 6.022 8.754 1.675 113.572 o
2 15 2 84.601 75.727 4.999 7.669 o
2 15 3 58.472 63.664 3.908 12.054 o
2 15 4 0.003 0.230 0.955 683.213 o
2 16 2 108.742 120.964 8.990 3.640 o
2 16 3 41.882 41.178 3.041 19.849 o
3 0 3 516.549 413.461 35.394 0.268 o
3 0 5 3.893 4.103 1.556 160.583 o
3 0 7 145.287 133.383 21.494 1.074 o
3 0 9 257.580 317.201 25.984 0.585 o
3 1 3 283.894 263.769 10.738 1.193 o
3 1 4 519.727 522.024 18.291 0.389 o
3 1 5 2.058 -1.128 0.656 666.535 o
3 1 6 653.098 653.873 34.499 0.201 o
3 1 7 0.264 0.085 0.834 830.085 o
3 1 8 52.252 64.888 6.192 8.788 o
3 1 9 43.357 33.796 4.362 15.645 o
3 2 3 1903.400 1889.400 81.018 0.029 o
3 2 4 585.812 571.948 22.064 0.305 o
3 2 5 31.735 39.405 9.734 5.705 o
3 2 6 325.794 332.397 20.643 0.645 o
3 2 7 322.739 309.785 17.429 0.761 o
3 2 8 58.453 69.997 5.782 8.765 o
3 2 9 270.286 228.822 13.959 1.138 o
3 3 3 1250.860 1270.390 43.572 0.072 o
3 3 4 59.213 57.996 3.351 13.373 o
3 3 5 397.646 380.269 32.854 0.345 o
3 3 6 18.953 19.184 2.538 42.194 o
3 3 7 364.048 309.315 17.519 0.689 o
3 3 8 12.616 11.081 2.161 64.827 o
3 3 9 2.942 -1.070 1.240 278.833 o
3 4 3 110.050 111.685 4.789 5.548 o
3 4 4 561.935 545.604 21.312 0.330 o
3 4 5 773.472 885.274 44.193 0.129 o
3 4 6 52.400 57.760 4.852 11.390 o
3 4 7 21.193 18.103 2.589 39.900 o
3 4 8 88.659 91.447 8.914 4.376 o
3 4 9 155.489 164.779 10.814 2.283 o
3 5 3 385.916 353.582 12.803 0.723 o
3 5 4 128.783 144.157 6.804 3.744 o
3 5 5 597.576 579.345 39.818 0.197 o
3 5 6 3311.110 3464.540 166.061 0.009 o
3 5 7 504.680 489.703 26.000 0.339 o
3 5 8 0.142 -0.440 1.257 398.095 o
3 5 9 70.123 69.245 6.025 7.726 o
3 6 3 246.117 240.131 9.022 1.526 o
3 6 4 2.828 4.343 0.899 301.435 o
3 6 5 239.485 234.917 13.926 1.239 o
3 6 6 0.336 0.167 1.253 383.562 o
3 6 7 38.233 38.518 3.942 17.707 o
3 6 8 71.383 74.692 6.065 7.452 o
3 6 9 260.319 292.417 15.200 1.007 o
3 7 3 21.907 17.017 1.914 48.929 o
3 7 4 60.571 68.813 4.208 10.980 o
3 7 5 0.027 0.280 0.723 1138.690 o
3 7 6 42.922 46.797 3.696 16.617 o
3 7 7 19.657 17.912 2.927 36.983 o
3 7 8 93.898 93.559 14.634 2.246 o
3 8 3 144.609 157.597 6.711 3.318 o
3 8 4 61.646 65.618 4.098 11.215 o
3 8 5 688.278 716.653 32.374 0.193 o
3 8 6 41.437 40.667 3.453 18.516 o
3 8 7 85.414 87.982 5.980 6.456 o
3 8 8 25.209 15.613 5.747 14.795 o
3 9 3 551.609 504.042 18.417 0.372 o
3 9 4 136.312 127.297 11.868 2.423 o
3 9 5 171.284 182.068 9.039 2.337 o
3 9 6 215.688 236.541 18.936 0.991 o
3 9 7 111.359 111.612 11.370 2.880 o
3 9 8 1.412 -0.330 1.651 208.159 o
3 10 3 15.418 16.268 1.610 66.726 o
3 10 4 881.106 1016.660 41.443 0.114 o
3 10 5 14.448 18.372 2.162 54.752 o
3 10 6 15.596 19.969 2.669 43.246 o
3 10 7 119.041 140.355 9.990 3.006 o
3 11 3 112.180 117.985 5.514 5.024 o
3 11 4 1.513 2.690 0.970 381.163 o
3 11 5 5.022 4.707 1.695 132.397 o
3 11 6 35.663 38.214 3.465 20.397 o
3 11 7 48.697 52.674 4.662 12.544 o
3 12 3 174.860 179.240 8.336 2.421 o
3 12 4 998.095 989.041 44.279 0.100 o
3 12 5 53.112 49.567 3.961 13.753 o
3 12 6 0.971 0.236 1.220 363.818 o
3 13 3 0.170 -0.432 0.849 841.760 o
3 13 4 110.324 112.771 6.608 4.682 o
3 13 5 12.447 8.292 2.618 55.437 o
3 13 6 227.397 245.521 13.648 1.284 o
3 14 3 0.055 -1.453 0.893 793.489 o
3 14 4 4.717 2.298 1.683 146.258 o
3 14 5 170.813 184.248 11.240 2.006 o
3 15 3 0.207 0.380 1.415 305.938 o
3 15 4 0.110 -3.584 1.013 610.366 o
4 0 4 2135.350 2248.120 153.862 0.015 o
4 0 6 16.337 15.818 3.494 33.005 o
4 0 8 502.437 435.912 34.268 0.278 o
4 1 4 57.888 48.661 3.576 13.909 o
4 1 5 40.672 43.067 3.898 16.831 o
4 1 6 98.287 79.851 6.801 5.512 o
4 1 7 24.331 25.710 3.343 27.689 o
4 1 8 286.437 242.786 26.020 0.592 o
4 1 9 127.441 141.323 9.720 2.961 o
4 2 4 493.505 420.293 21.961 0.409 o
4 2 5 651.204 640.438 33.252 0.208 o
4 2 6 10.886 8.776 2.190 70.415 o
4 2 7 373.973 372.482 20.892 0.556 o
4 2 8 153.322 144.182 12.800 2.043 o
4 2 9 88.172 87.499 8.709 4.544 o
4 3 4 8.619 3.051 0.989 170.955 o
4 3 5 447.443 429.465 23.130 0.426 o
4 3 6 368.242 325.548 18.252 0.652 o
4 3 7 0.777 0.171 0.624 1051.630 o
4 3 8 22.748 16.483 2.827 36.374 o
4 3 9 0.327 -1.844 1.235 399.633 o
4 4 4 11.355 7.615 1.474 99.327 o
4 4 5 288.169 237.952 24.843 0.627 o
4 4 6 138.575 129.239 13.437 2.086 o
4 4 7 13.254 9.141 3.900 31.606 o
4 4 8 24.367 24.947 3.511 26.532 o
4 4 9 382.851 443.259 24.765 0.447 o
4 5 4 209.066 194.623 11.394 1.690 o
4 5 5 0.084 -0.106 1.466 296.410 o
4 5 6 619.380 656.751 51.575 0.141 o
4 5 7 15.614 14.092 2.753 44.918 o
4 5 8 54.267 52.094 5.216 10.791 o
4 6 4 62.811 60.069 4.629 10.542 o
4 6 5 143.162 149.392 9.514 2.756 o
4 6 6 161.271 167.782 10.677 2.240 o
4 6 7 16.511 13.158 2.475 49.430 o
4 6 8 290.470 303.857 17.828 0.814 o
4 7 4 11.162 9.913 2.172 69.014 o
4 7 5 405.646 429.733 27.790 0.393 o
4 7 6 477.477 512.588 32.708 0.286 o
4 7 7 363.690 316.635 29.639 0.425 o
4 7 8 63.112 61.368 4.888 10.041 o
4 8 4 128.833 128.383 7.349 3.743 o
4 8 5 1532.170 1556.130 89.383 0.035 o
4 8 6 56.463 65.689 4.821 10.589 o
4 8 7 50.350 59.114 4.680 11.895 o
4 8 8 185.824 196.935 11.037 1.875 o
4 9 4 250.565 252.765 12.074 1.278 o
4 9 5 196.635 206.570 10.267 1.852 o
4 9 6 280.881 353.115 17.503 0.796 o
4 9 7 136.814 144.907 9.915 2.769 o
4 10 4 10.536 6.944 1.444 106.658 o
4 10 5 168.666 153.628 9.833 2.381 o
4 10 6 118.927 140.243 13.926 2.089 o
4 10 7 26.656 30.578 3.622 23.751 o
4 11 4 189.707 191.013 9.691 2.033 o
4 11 5 10.441 7.780 1.584 98.121 o
4 11 6 140.870 157.730 11.162 2.387 o
4 12 4 0.990 2.042 1.022 410.691 o
4 12 5 12.145 13.857 2.738 49.317 o
4 13 4 83.818 98.115 6.396 5.993 o
4 13 5 88.378 91.543 5.947 6.260 o
4 14 4 16.025 13.766 3.000 40.640 o
5 0 5 495.292 471.353 47.471 0.188 o
5 0 7 131.817 126.330 13.088 2.210 o
5 1 5 166.715 166.075 13.644 1.764 o
5 1 6 25.792 28.435 3.647 24.291 o
5 1 7 13.842 11.374 3.304 38.721 o
5 1 8 4.802 4.984 1.987 108.769 o
5 2 5 109.294 104.612 14.832 2.080 o
5 2 6 9.441 7.659 3.768 35.908 o
5 2 7 8.328 7.953 4.600 26.172 o
5 2 8 178.408 228.683 17.384 1.203 o
5 3 5 2135.400 2061.270 100.614 0.022 o
5 3 6 69.796 71.766 10.926 3.854 o
5 3 7 476.767 391.586 38.104 0.262 o
5 3 8 6.424 4.016 1.686 125.364 o
5 4 5 240.948 218.238 13.356 1.305 o
5 4 6 1.108 3.218 1.178 306.865 o
5 4 7 0.058 1.042 1.125 454.852 o
5 4 8 491.626 510.902 36.408 0.253 o
5 5 5 33.730 28.659 3.612 21.739 o
5 5 6 667.739 617.070 33.506 0.206 o
5 5 7 89.772 87.390 7.084 5.495 o
5 5 8 41.258 37.024 6.434 10.170 o
5 6 5 75.857 83.302 6.475 6.607 o
5 6 6 158.731 162.246 14.589 1.693 o
5 6 7 10.672 10.100 2.557 58.398 o
5 7 5 105.028 101.098 7.506 4.575 o
5 7 6 332.323 371.203 24.045 0.535 o
5 7 7 4.111 4.144 1.732 138.269 o
5 8 5 45.304 46.544 6.921 8.683 o
5 8 6 35.895 32.257 4.104 18.314 o
5 8 7 42.757 47.969 4.565 13.954 o
5 9 5 42.068 42.262 3.546 17.826 o
5 9 6 23.993 23.650 2.921 32.072 o
5 10 5 48.097 56.026 4.613 12.515 o
5 10 6 0.644 -1.636 0.931 622.661 o
5 11 5 172.998 191.607 10.014 2.131 o
6 0 6 3.186 5.005 2.646 75.540 o
6 1 6 51.385 49.885 5.106 11.425 o
6 1 7 229.310 243.037 15.204 1.176 o
6 2 6 24.868 20.651 3.259 29.365 o
6 2 7 309.385 312.373 18.759 0.740 o
6 3 6 20.742 21.099 3.353 30.559 o
6 3 7 19.853 10.974 2.280 50.007 o
6 4 6 22.084 19.241 3.184 32.003 o
6 4 7 110.164 112.196 8.655 3.824 o
6 5 6 494.492 485.689 27.076 0.335 o
6 5 7 70.466 79.422 6.657 6.785 o
6 6 6 12.881 20.609 3.043 39.756 o
6 7 6 125.841 143.820 9.855 2.930 o
6 8 6 5.022 3.431 1.793 128.054 o
;
loop_
_space_group_symop_id
_space_group_symop_operation_xyz
1 x,y,z
2 -x+1/2,y+1/2,-z+1/2
3 -x,-y,-z
4 x-1/2,-y-1/2,z-1/2
loop_
_atom_site_label
_atom_site_type_symbol
_atom_site_fract_x
_atom_site_fract_y
_atom_site_fract_z
_atom_site_U_iso_or_equiv
_atom_site_adp_type
_atom_site_occupancy
_atom_site_refinement_flags_posn
S1 S 0.26727(7) 0.57186(3) 0.86135(5) 0.0195(2) Uani 1.000000 .
N002 N 0.3277(2) 0.39539(10) 0.50360(17) 0.0158(3) Uani 1.000000 .
N003 N 0.2775(2) 0.47411(10) 0.59155(17) 0.0159(3) Uani 1.000000 .
H003 H 0.2031(2) 0.51816(10) 0.55094(17) 0.0191(4) Uiso 1.000000 R
N2 N 0.3722(2) 0.14030(11) 0.08045(18) 0.0181(4) Uani 1.000000 .
N1 N 0.4686(2) 0.41719(11) 0.7905(2) 0.0210(4) Uani 1.000000 .
H1a H 0.5141(2) 0.41906(11) 0.8884(2) 0.0252(5) Uiso 1.000000 R
H1b H 0.5048(2) 0.37202(11) 0.7241(2) 0.0252(5) Uiso 1.000000 R
C006 C 0.3768(3) 0.22159(12) 0.3347(2) 0.0164(4) Uani 1.000000 .
H006 H 0.4055(3) 0.21974(12) 0.4457(2) 0.0197(5) Uiso 1.000000 R
C007 C 0.2585(2) 0.38919(13) 0.3626(2) 0.0165(4) Uani 1.000000 .
H007 H 0.1818(2) 0.43897(13) 0.3209(2) 0.0198(5) Uiso 1.000000 R
C008 C 0.2994(3) 0.30373(12) 0.2660(2) 0.0157(4) Uani 1.000000 .
C009 C 0.3455(3) 0.48245(12) 0.7431(2) 0.0163(4) Uani 1.000000 .
C00A C 0.2983(3) 0.21965(13) 0.0157(2) 0.0189(4) Uani 1.000000 .
H00A H 0.2709(3) 0.21954(13) -0.0956(2) 0.0226(5) Uiso 1.000000 R
C00B C 0.2595(3) 0.30259(13) 0.1033(2) 0.0188(4) Uani 1.000000 .
H00B H 0.2068(3) 0.35715(13) 0.0524(2) 0.0226(5) Uiso 1.000000 R
C00C C 0.4112(3) 0.14282(12) 0.2384(2) 0.0172(4) Uani 1.000000 .
H00C H 0.4652(3) 0.08759(12) 0.2863(2) 0.0206(5) Uiso 1.000000 R
loop_
_atom_site_aniso_label
_atom_site_aniso_U_11
_atom_site_aniso_U_22
_atom_site_aniso_U_33
_atom_site_aniso_U_12
_atom_site_aniso_U_13
_atom_site_aniso_U_23
S1 0.0248(3) 0.0196(3) 0.0141(3) 0.00315(17) -0.0026(2) -0.00429(15)
N002 0.0197(8) 0.0133(7) 0.0144(7) -0.0016(6) -0.0001(6) -0.0023(5)
N003 0.0211(8) 0.0136(7) 0.0130(7) 0.0022(6) -0.0024(6) -0.0014(6)
N2 0.0195(8) 0.0180(8) 0.0168(8) -0.0016(6) -0.0012(6) -0.0022(6)
N1 0.0260(9) 0.0224(8) 0.0145(8) 0.0068(6) -0.0056(7) -0.0031(6)
C006 0.0179(9) 0.0181(9) 0.0133(8) -0.0028(7) -0.0029(7) 0.0006(6)
C007 0.0202(9) 0.0138(9) 0.0155(9) -0.0008(6) -0.0016(7) -0.0004(6)
C008 0.0170(9) 0.0152(8) 0.0148(8) -0.0021(7) -0.0011(7) -0.0007(6)
C009 0.0194(9) 0.0175(9) 0.0119(8) -0.0041(7) -0.0004(7) 0.0002(6)
C00A 0.0220(10) 0.0210(9) 0.0136(8) -0.0005(7) -0.0020(7) -0.0016(7)
C00B 0.0229(10) 0.0176(9) 0.0159(9) 0.0006(7) -0.0028(7) 0.0008(7)
C00C 0.0182(9) 0.0156(8) 0.0177(9) -0.0007(7) -0.0009(7) 0.0004(6)
loop_
_atom_type_symbol
_atom_type_scat_dispersion_real
_atom_type_scat_dispersion_imag
_atom_type_scat_Cromer_Mann_a1
_atom_type_scat_Cromer_Mann_a2
_atom_type_scat_Cromer_Mann_a3
_atom_type_scat_Cromer_Mann_a4
_atom_type_scat_Cromer_Mann_b1
_atom_type_scat_Cromer_Mann_b2
_atom_type_scat_Cromer_Mann_b3
_atom_type_scat_Cromer_Mann_b4
_atom_type_scat_Cromer_Mann_c
_atom_type_scat_source
_atom_type_scat_dispersion_source
H 0.00000 0.00000 0.49300 0.32291 0.14019 0.04081 10.51090 26.12570 3.14236
57.79970 0.0030380000826
'International Tables Volume C Table 6.1.1.4 (pp. 500-502)'
'Henke, Gullikson and Davis, At. Data and Nucl. Data Tables, 1993, 54, 2'
C 0.00347 0.00161 2.31000 1.02000 1.58860 0.86500 20.84390 10.20750 0.56870
51.65120 0.215599998832
'International Tables Volume C Table 6.1.1.4 (pp. 500-502)'
'Henke, Gullikson and Davis, At. Data and Nucl. Data Tables, 1993, 54, 2'
S 0.12424 0.12443 6.90530 5.20340 1.43790 1.58630 1.46790 22.21510 0.25360
56.17200 0.866900026798
'International Tables Volume C Table 6.1.1.4 (pp. 500-502)'
'Henke, Gullikson and Davis, At. Data and Nucl. Data Tables, 1993, 54, 2'
N 0.00653 0.00323 12.21260 3.13220 2.01250 1.16630 0.00570 9.89330 28.99750
0.58260 -11.5290002823
'International Tables Volume C Table 6.1.1.4 (pp. 500-502)'
'Henke, Gullikson and Davis, At. Data and Nucl. Data Tables, 1993, 54, 2'
loop_
_geom_angle_atom_site_label_1
_geom_angle_atom_site_label_2
_geom_angle_atom_site_label_3
_geom_angle
_geom_angle_site_symmetry_1
_geom_angle_site_symmetry_3
C007 N002 N003 116.57(15) . .
H003 N003 N002 120.82(9) . .
C009 N003 N002 118.37(14) . .
C009 N003 H003 120.82(10) . .
C00C N2 C00A 116.96(15) . .
H1b N1 H1a 120.0 . .
C009 N1 H1a 120.0 . .
C009 N1 H1b 120.0 . .
C008 C006 H006 120.51(10) . .
C00C C006 H006 120.51(10) . .
C00C C006 C008 118.98(16) . .
H007 C007 N002 120.54(11) . .
C008 C007 N002 118.92(16) . .
C008 C007 H007 120.54(10) . .
C007 C008 C006 121.36(16) . .
C00B C008 C006 118.22(16) . .
C00B C008 C007 120.41(16) . .
N003 C009 S1 119.41(13) . .
N1 C009 S1 123.59(13) . .
N1 C009 N003 116.98(16) . .
H00A C00A N2 118.27(10) . .
C00B C00A N2 123.46(17) . .
C00B C00A H00A 118.27(11) . .
C00A C00B C008 118.82(16) . .
H00B C00B C008 120.59(10) . .
H00B C00B C00A 120.59(11) . .
C006 C00C N2 123.55(16) . .
H00C C00C N2 118.22(10) . .
H00C C00C C006 118.22(10) . .
loop_
_geom_bond_atom_site_label_1
_geom_bond_atom_site_label_2
_geom_bond_distance
_geom_bond_site_symmetry_2
S1 C009 1.6890(18) .
N002 N003 1.371(2) .
N002 C007 1.280(2) .
N003 H003 0.8800 .
N003 C009 1.360(2) .
N2 C00A 1.341(2) .
N2 C00C 1.349(2) .
N1 H1a 0.8800 .
N1 H1b 0.8800 .
N1 C009 1.326(2) .
C006 H006 0.9500 .
C006 C008 1.396(2) .
C006 C00C 1.386(2) .
C007 H007 0.9500 .
C007 C008 1.471(2) .
C008 C00B 1.389(2) .
C00A H00A 0.9500 .
C00A C00B 1.399(3) .
C00B H00B 0.9500 .
C00C H00C 0.9500 .
loop_
_refln_index_h
_refln_index_k
_refln_index_l
_refln_F_squared_meas
_refln_F_squared_sigma
-1 0 0 -0.2 0.3
-1 0 0 0 0.8
1 0 0 0.2 0.4
1 0 0 0.5 0.8
-3 0 0 1.6 2.3
-3 0 0 0.6 1.5
3 0 0 1.4 1.2
3 0 0 0.4 1.8
-4 0 0 2071.59 233.58
-4 0 0 2406.56 240.78
4 0 0 2675.33 233.78
4 0 0 2638.54 239.68
-5 0 0 6.5 3.5
-5 0 0 6.5 6.4
5 0 0 7.6 4.9
5 0 0 4.2 3.2
-6 0 0 613.14 58.99
6 0 0 514.75 63.19
6 0 0 520.05 56.29
-7 0 0 -1.1 6.8
-7 0 0 11.2 5.6
-8 0 0 420.16 55.99
-8 0 0 325.57 41.7
-8 0 1 -5 3.3
-8 0 1 -9.8 6.9
-7 0 1 0.2 7.4
-7 0 1 5.5 3.3
6 0 -1 -1.5 1.7
6 0 -1 -0.4 4.5
-6 0 1 -1.6 7
5 0 -1 733.63 66.79
5 0 -1 552.84 70.59
-5 0 1 697.13 67.59
4 0 -1 -0.2 1.5
4 0 -1 0.4 2.3
-4 0 1 0.5 2.8
-4 0 1 0.2 1.5
3 0 -1 1185.18 105.69
3 0 -1 1005.1 108.39
-3 0 1 1084.09 105.79
-3 0 1 1108.19 109.69
2 0 -1 -0.2 0.9
2 0 -1 0.6 0.9
-2 0 1 0.9 0.9
-2 0 1 0 1.7
1 0 -1 25.4 3.2
1 0 -1 21.2 2.9
-1 0 1 19.6 3.2
-1 0 1 26.1 3.1
0 0 -1 -0.2 0.2
0 0 -1 1.4 1.1
0 0 1 0 0.3
0 0 1 0 0.5
-1 0 -1 325.67 30.7
-1 0 -1 270.47 27.3
1 0 1 314.77 30.4
1 0 1 280.57 30.5
1 0 1 258.57 27.2
1 0 1 251.87 28
-2 0 -1 0.2 1.1
-2 0 -1 0 1.7
-2 0 -1 1 2.6
2 0 1 0.3 1.8
2 0 1 2.5 1.6
-3 0 -1 1618.34 167.88
3 0 1 1723.13 167.28
3 0 1 1714.53 162.08
-4 0 -1 -3 2.3
-4 0 -1 -1.8 1.5
4 0 1 -1.5 1.5
4 0 1 -0.1 3.7
-5 0 -1 203.28 33.6
5 0 1 240.58 27.1
5 0 1 269.57 34
-6 0 -1 3.5 7.4
-6 0 -1 -0.9 2.7
6 0 1 2.7 3.2
-7 0 -1 224.88 30.5
-7 0 -1 294.27 42.9
-8 0 -1 -5.5 4.1
-8 0 -1 4.2 7.6
-8 0 2 161.38 29.9
-8 0 2 132.59 20.5
-7 0 2 -2.4 3.6
-7 0 2 -1.9 7.6
6 0 -2 601.84 61.29
6 0 -2 494.25 53.89
-6 0 2 504.55 55.19
5 0 -2 0.9 1.5
5 0 -2 -1.2 1.8
5 0 -2 -5.5 3
-5 0 2 0.3 3.8
4 0 -2 21.5 4.8
4 0 -2 20.5 5
4 0 -2 24.6 7.3
-4 0 2 24.6 7.8
-4 0 2 16.8 4.7
3 0 -2 1.4 1.5
3 0 -2 -1.9 0.7
-3 0 2 -0.9 0.7
-3 0 2 -0.3 1.2
2 0 -2 1900.51 192.78
2 0 -2 2047.8 192.68
-2 0 2 2142.79 194.78
1 0 -2 0.2 0.6
-1 0 2 -0.4 0.5
-1 0 2 -0.2 0.5
0 0 -2 1247.38 122.49
0 0 -2 1185.28 124.99
0 0 2 1314.07 122.49
0 0 2 1425.46 125.99
-1 0 -2 -1.8 1.6
-1 0 -2 -0.3 0.7
1 0 2 -0.3 0.3
1 0 2 -1.9 3.1
-2 0 -2 1721.63 198.08
2 0 2 2363.26 200.18
2 0 2 2327.57 195.58
2 0 2 1826.22 193.08
2 0 2 1957 199.88
-3 0 -2 -2.1 2.6
3 0 2 0.5 1.6
3 0 2 0.3 3.4
3 0 2 0.4 1.4
-4 0 -2 -2.7 4.5
4 0 2 -0.3 1.9
4 0 2 -0.7 1.1
4 0 2 -0.8 2.9
-5 0 -2 0.2 4.7
5 0 2 -0.9 1.1
5 0 2 -1.4 2.8
5 0 2 -6.2 3.5
-6 0 -2 56.29 18.6
6 0 2 61.39 11.4
-7 0 -2 3 5.8
7 0 2 -0.6 2.8
-8 0 -2 4.6 11.1
8 0 2 20.2 6.9
-8 0 3 -2.3 4.3
-8 0 3 -6.5 8.6
-7 0 3 -0.2 6.1
-7 0 3 2.1 3.2
-6 0 3 1.2 2.9
-6 0 3 -2 5.7
5 0 -3 40.4 6.9
-5 0 3 40.6 12
-5 0 3 32 7.7
4 0 -3 -1.6 1
4 0 -3 -0.4 1.6
-4 0 3 -0.2 1.4
-4 0 3 1.1 2.7
3 0 -3 1540.75 139.79
3 0 -3 1306.37 139.89
-3 0 3 1397.56 142.59
-3 0 3 1587.44 140.29
2 0 -3 -0.2 0.9
-2 0 3 6.3 2.2
-2 0 3 -0.6 0.8
1 0 -3 1.3 1
-1 0 3 9.1 3.5
-1 0 3 0.7 1
-1 0 3 1.1 1
0 0 -3 -0.2 0.5
0 0 -3 -1.1 1.7
0 0 3 -1.7 1.9
0 0 3 -0.3 0.4
-1 0 -3 597.64 65.89
-1 0 -3 719.03 61.39
1 0 3 509.25 65.29
1 0 3 661.03 61.09
-2 0 -3 1.9 2.3
2 0 3 1.7 2.2
2 0 3 -0.5 0.9
-3 0 -3 604.34 74.69
3 0 3 815.32 79.29
3 0 3 769.12 67.59
3 0 3 564.84 68.79
-4 0 -3 -2.6 3.7
4 0 3 1.4 1.6
4 0 3 0.1 4.6
4 0 3 0 2.8
-5 0 -3 1436.96 149.09
5 0 3 1468.65 137.89
5 0 3 1275.07 134.89
6 0 3 -1.8 2.3
-7 0 -3 271.97 46
7 0 3 255.67 31.5
-8 0 -3 5.4 11.9
8 0 3 4.4 5.2
-8 0 4 595.44 75.89
-8 0 4 668.23 68.39
-7 0 4 0.3 8.2
-7 0 4 -0.5 3.1
-6 0 4 1315.97 123.09
-6 0 4 1159.98 128.99
5 0 -4 2 2
-5 0 4 1.6 2.5
-5 0 4 -0.2 4.3
4 0 -4 1216.48 117.99
-4 0 4 1091.59 118.09
-4 0 4 1355.26 123.39
3 0 -4 -2.1 1.3
-3 0 4 -0.6 1.4
-3 0 4 1.9 2
2 0 -4 260.97 31.3
-2 0 4 321.97 32
-2 0 4 306.17 35.7
-2 0 4 366.66 33.2
1 0 -4 0.2 1
-1 0 4 -1.9 1.7
-1 0 4 2.1 1.2
0 0 -4 229.48 28
0 0 -4 192.88 23.1
0 0 4 237.18 23.3
0 0 4 254.67 29.4
-1 0 -4 -1.8 1
-1 0 -4 2.9 4.2
1 0 4 -0.6 2.1
1 0 4 -0.4 1.2
-2 0 -4 9999 881.11
-2 0 -4 9154.48 871.61
2 0 4 8561.04 879.51
-3 0 -4 -2.3 4.9
3 0 4 -0.7 4.5
3 0 4 -1.6 2.3
3 0 4 -2.1 1.9
3 0 4 -1.4 1.5
-4 0 -4 3824.02 375.16
4 0 4 3791.22 362.16
-5 0 -4 6.9 7.8
-6 0 -4 2734.33 254.97
6 0 4 2215.18 234.28
-7 0 -4 -11.9 7.2
7 0 4 -1.3 1.8
8 0 4 1377.96 137.99
-7 0 5 2.6 4.4
-7 0 5 13.1 9.2
-6 0 5 2.3 6.1
-6 0 5 -0.7 2.9
-5 0 5 462.65 49.8
-5 0 5 378.16 43.9
-4 0 5 3.3 2.8
-4 0 5 -0.1 2.3
3 0 -5 2468.55 231.58
-3 0 5 2481.65 232.78
-3 0 5 2328.87 231.98
2 0 -5 0.3 2.3
-2 0 5 0.1 0.9
-2 0 5 -3.1 2.1
-2 0 5 0.3 1.6
1 0 -5 1134.79 127.09
-1 0 5 1464.95 127.49
-1 0 5 1391.76 134.49
0 0 -5 4.5 3.8
0 0 5 4.7 1.9
0 0 5 -1.2 3.2
-1 0 -5 644.64 61.09
1 0 5 633.14 67.99
1 0 5 530.05 58.39
-2 0 -5 1.4 1.7
-2 0 -5 0.7 3.7
2 0 5 -1.2 1.4
2 0 5 -4 2.8
-3 0 -5 5.1 6.3
3 0 5 7.8 2.9
-4 0 -5 -4.5 3.7
4 0 5 -2.7 1.6
5 0 5 798.22 80.39
-6 0 -5 -3.3 8.4
6 0 5 -0.9 1.8
-7 0 -5 423.76 62.99
7 0 5 389.36 44.5
-7 0 6 -9.1 4.9
-7 0 6 -10.2 6.5
-6 0 6 -4.8 5.2
-6 0 6 -4.2 3.1
-5 0 6 -0.9 2.6
-5 0 6 2.9 5
-4 0 6 736.43 76.79
-4 0 6 696.33 72.59
-3 0 6 4.3 2.3
-2 0 6 423.06 40.1
-2 0 6 357.06 44.4
-2 0 6 321.37 37.5
1 0 -6 -2.4 1.9
-1 0 6 -6.6 3.2
-1 0 6 1.5 1.5
0 0 -6 58.59 14.9
0 0 -6 46.4 8.9
0 0 6 58.09 15.9
0 0 6 70.69 8.8
-1 0 -6 -1.3 2.4
1 0 6 -0.6 5.5
1 0 6 -2.7 1.2
2 0 6 28.7 6.5
-3 0 -6 -2.5 3.4
3 0 6 -0.1 2.1
-4 0 -6 20.6 11.5
4 0 6 29.4 6.9
-5 0 -6 1.7 6.3
5 0 6 -1 2.3
-6 0 -6 11.8 12.5
6 0 6 7.2 4.8
-7 0 -6 7.2 10.2
7 0 6 1.8 3.4
-6 0 7 0.7 6.9
-6 0 7 -1.2 3.5
-5 0 7 928.01 97.19
-5 0 7 884.71 91.69
-4 0 7 1 2.6
-4 0 7 3.4 2.2
-4 0 7 -3.9 3.1
-3 0 7 17.2 5.4
-3 0 7 21.9 6.8
-2 0 7 -0.3 2.3
-2 0 7 -3.5 1.7
-1 0 7 540.05 56.39
-1 0 7 527.65 53.99
0 0 -7 -4.2 4.2
-1 0 -7 52.19 14.2
1 0 7 46.7 8.8
2 0 7 -1.2 1.7
-3 0 -7 225.88 36.4
-4 0 -7 -3.9 4.2
4 0 7 1.2 3.3
-5 0 -7 195.88 42.4
5 0 7 219.98 26
-6 0 -7 -5.6 8.3
6 0 7 -2 3.6
-5 0 8 -2.7 6.2
-5 0 8 -1.4 2.4
-4 0 8 192.68 23.1
-4 0 8 172.48 22.8
-3 0 8 5 3
-3 0 8 2.5 2.8
-2 0 8 555.64 63.89
-2 0 8 674.13 62.89
-1 0 8 -1.2 1.9
-1 0 8 2 2.4
0 0 -8 2913.51 252.77
0 0 8 2166.98 238.78
1 0 8 -1.6 1.7
-2 0 -8 3451.45 343.27
-3 0 -8 4.5 5.2
3 0 8 1.2 2.8
-4 0 -8 729.43 90.39
4 0 8 744.23 75.69
-5 0 -8 -5.8 8.3
5 0 8 0.7 3.4
-4 0 9 -5.8 2.8
-4 0 9 -2 3.5
-3 0 9 3.4 3.8
-3 0 9 -2.4 3.1
-2 0 9 0.1 3
-1 0 9 395.36 47.6
-1 0 9 455.15 45.6
0 0 9 -5.2 2.2
-1 0 -9 123.19 22
1 0 9 81.89 12.9
-2 0 -9 2.7 8.2
2 0 9 3.5 3.1
-3 0 -9 523.45 69.79
3 0 9 545.85 56.69
-4 0 -9 7.4 8.1
4 0 9 -5.4 3
-2 0 10 63.19 14
-1 0 10 7.4 3.3
-1 0 10 -2.5 2.7
0 0 10 98.69 13.8
0 0 10 74.89 16.8
-1 0 -10 -1.4 7.6
1 0 10 -0.3 1.5
2 0 10 116.49 16.4
2 1 10 30.4 7.3
-2 -1 -10 64.49 19.5
1 1 10 207.28 26.6
-1 -1 -10 270.07 40.1
0 1 10 52.29 10.4
-1 1 10 416.46 51.29
-1 1 10 497.15 49.5
-2 1 10 7.7 4.7
-2 1 10 1.7 4
4 1 9 222.48 27.7
-4 -1 -9 249.78 41.9
3 1 9 41.8 9.6
-3 -1 -9 47.7 17.7
2 1 9 6.8 4.5
-2 -1 -9 9.5 8.3
1 1 9 1 2.1
-1 -1 -9 -6.5 5.5
0 1 9 65.29 12.3
-1 1 9 97.59 14.8
-1 1 9 115.99 17.3
-2 1 9 195.18 26.7
-2 1 9 228.18 25.7
-3 1 9 -4.3 2.9
-3 1 9 4 2.6
-4 1 9 2.8 3.9
-4 1 9 -1 3.4
5 1 8 12 4.9
-5 -1 -8 -3.3 8.8
4 1 8 393.36 38.2
-4 -1 -8 258.17 46.8
3 1 8 107.29 21.9
-3 -1 -8 110.29 25.7
2 1 8 78.09 11.5
-2 -1 -8 75.19 21.3
1 1 8 307.07 36
-1 -1 -8 395.16 48
0 -1 -8 6.4 5.8
-1 1 8 1016.6 100.29
-2 1 8 0.4 1.8
-2 1 8 2.2 2.8
-3 1 8 3623.24 301.27
-3 1 8 2619.34 298.07
-4 1 8 28 8
-4 1 8 22.3 8.7
-5 1 8 636.64 73.09
6 1 7 462.75 49.6
-6 -1 -7 440.86 64.19
5 1 7 19.3 5.9
-5 -1 -7 4.3 10
4 1 7 38.8 8.9
-4 -1 -7 57.79 17.9
3 1 7 2.5 2
-3 -1 -7 -0.7 5.6
2 1 7 466.95 47.9
-2 -1 -7 452.35 57.39
1 1 7 438.86 47.2
-1 -1 -7 493.05 57.09
0 1 7 719.33 71.89
0 -1 -7 726.73 80.29
-1 1 7 710.83 70.79
-2 1 7 1105.19 122.59
-2 1 7 1402.26 122.19
-3 1 7 1 2.4
-3 1 7 -0.4 2.1
-4 1 7 226.08 26.2
-4 1 7 240.78 26.6
-4 1 7 187.18 29.6
-5 1 7 42 14.3
-5 1 7 64.49 10.8
-6 1 7 212.28 24
-6 1 7 141.29 27.3
7 1 6 306.67 34.6
-7 -1 -6 263.57 48.4
6 1 6 63.49 12.6
-6 -1 -6 85.29 26.1
5 1 6 46.9 9.6
-5 -1 -6 56.19 20.1
4 1 6 151.28 17.3
-4 -1 -6 89.59 25.5
3 1 6 1120.89 104.89
-3 -1 -6 990.3 115.69
2 1 6 107.49 12.8
-2 -1 -6 67.79 18.8
1 1 6 850.81 88.89
1 1 6 841.52 98.29
-1 -1 -6 1064.89 99.49
0 1 6 217.18 22.9
0 1 6 186.98 29.1
0 -1 -6 216.78 32
-1 1 6 508.95 56.99
-1 1 6 474.35 49.2
-2 1 6 24.2 5.6
-2 1 6 19.7 8.7
-2 1 6 25.9 6.8
-3 1 6 686.53 74.49
-3 1 6 765.92 74.59
-3 1 6 794.12 80.59
-4 1 6 350.76 44.6
-4 1 6 330.27 39.8
-4 1 6 438.36 41.1
-5 1 6 277.17 27.8
-5 1 6 182.58 30.2
-6 1 6 -3.3 3.2
-6 1 6 4.3 5.1
-7 1 6 115.19 17.4
-7 1 6 123.59 24.7
7 1 5 49.8 11.2
-7 -1 -5 46.8 20.9
6 1 5 156.78 20.2
5 1 5 228.58 27.5
-5 -1 -5 278.57 41.4
4 1 5 68.99 10.1
-4 -1 -5 69.59 19.7
3 1 5 -0.8 1.6
-3 -1 -5 -4.7 3.9
2 1 5 15.7 7.4
2 1 5 15 4.3
-2 -1 -5 9.6 3.3
1 1 5 291.57 37.1
-1 -1 -5 298.67 30
-1 -1 -5 252.47 35.2
0 1 5 5.6 4.1
0 1 5 1.1 1.3
0 -1 -5 1 2.7
0 -1 -5 -0.5 1.5
-1 1 5 81.29 10
-1 1 5 74.69 13.9
-2 1 5 1232.98 114.89
-2 1 5 1049.79 115.09
2 -1 -5 1163.18 110.69
-3 1 5 30.1 6.5
-3 1 5 26.5 6.2
-3 1 5 30.9 9
3 -1 -5 35.6 6.9
-4 1 5 139.49 19.6
-4 1 5 101.99 14.5
-5 1 5 101.09 19.5
-5 1 5 137.49 16.4
-6 1 5 179.68 22.3
-7 1 5 -1.8 3.5
-7 1 5 -6.4 6.9
8 1 4 188.18 24.3
-8 -1 -4 157.48 40.6
7 1 4 878.11 85.69
-7 -1 -4 770.72 101.49
6 1 4 256.07 30.6
-6 -1 -4 299.37 44.8
5 1 4 315.07 35
-5 -1 -4 344.57 48.2
4 1 4 88.49 23.2
4 1 4 82.19 11.2
-4 -1 -4 84.39 22
3 1 4 997 99.79
3 1 4 1019.7 102.59
3 1 4 921.81 89.49
3 1 4 806.02 91.89
-3 -1 -4 872.11 89.19
-3 -1 -4 873.71 112.49
2 1 4 1079.29 105.99
2 1 4 1032.3 96.99
-2 -1 -4 906.51 104.09
-2 -1 -4 979.1 97.09
1 1 4 1687.63 170.38
1 1 4 1684.13 163.28
-1 -1 -4 1756.12 163.68
0 1 4 2411.16 225.28
0 1 4 2298.27 230.98
0 -1 -4 2497.75 230.58
0 -1 -4 2281.67 225.38
-1 1 4 473.45 51.09
-1 1 4 483.35 46.9
1 -1 -4 463.95 46.8
-2 1 4 236.68 21.9
-2 1 4 192.18 24.2
-2 1 4 162.38 21.2
2 -1 -4 216.78 21.3
-3 1 4 473.25 47.6
-3 1 4 418.56 50.69
3 -1 -4 528.75 48.1
-4 1 4 577.74 61.59
-4 1 4 477.05 55.69
4 -1 -4 646.34 56.79
-5 1 4 1244.68 121.49
5 -1 -4 1099.29 113.99
-6 1 4 365.86 39.8
-7 1 4 819.12 92.09
-7 1 4 797.32 82.39
-8 1 4 5 9.8
-8 1 4 -1.9 4.4
8 1 3 158.88 21.5
-8 -1 -3 142.19 37.6
7 1 3 390.86 43.2
6 1 3 15.4 4.8
-6 -1 -3 7.6 7.9
5 1 3 28.9 6.8
-5 -1 -3 49.1 16.5
4 1 3 1.6 1.5
4 1 3 2.8 5.5
4 1 3 0.3 2.3
-4 -1 -3 -0.1 4.5
3 1 3 340.77 42
3 1 3 447.86 40.4
2 1 3 589.34 55.69
2 1 3 440.06 47.1
2 1 3 401.96 49.2
-2 -1 -3 519.85 47.7
1 1 3 1503.25 127.49
1 1 3 1218.98 132.19
-1 -1 -3 1296.67 132.39
-1 -1 -3 1291.37 127.29
0 1 3 2946.51 313.17
0 -1 -3 3601.44 313.67
-1 1 3 2254.97 216.88
-2 1 3 379.26 37.4
2 -1 -3 364.76 37.1
-3 1 3 696.53 69.69
-3 1 3 622.84 65.39
3 -1 -3 693.73 65.79
-4 1 3 1747.63 184.18
-4 1 3 1998.8 179.38
4 -1 -3 1647.64 178.78
4 -1 -3 2099.49 179.98
-5 1 3 78.49 11.3
-5 1 3 78.59 15
5 -1 -3 80.69 10.9
-6 1 3 188.88 22.6
-6 1 3 183.58 29.3
-7 1 3 31.9 9.4
-7 1 3 38.4 14.9
-8 1 3 442.66 59.19
8 1 2 10.6 6.4
-8 -1 -2 0.9 10.5
7 1 2 61.19 12.2
-7 -1 -2 82.79 24.8
6 1 2 179.58 20
-6 -1 -2 147.99 27.7
-6 -1 -2 134.89 21.2
5 1 2 949.11 94.69
5 1 2 1049.2 93.29
5 1 2 873.61 101.99
-5 -1 -2 999.2 105.29
-5 -1 -2 842.92 95.29
4 1 2 1534.95 135.09
4 1 2 1348.47 143.79
-4 -1 -2 1224.58 137.09
-4 -1 -2 1495.25 145.59
3 1 2 216.48 25
3 1 2 345.77 35.4
-3 -1 -2 206.78 27
2 1 2 1122.49 118.29
-2 -1 -2 1301.57 116.89
-2 -1 -2 1231.28 122.59
1 1 2 4271.07 451.45
-1 -1 -2 5214.28 452.05
0 1 2 662.83 72.49
0 1 2 825.72 70.29
0 -1 -2 707.13 72.49
-1 1 2 1048.1 99.99
-2 1 2 1251.27 142.79
-2 1 2 1618.24 142.79
2 -1 -2 1619.34 142.99
-3 1 2 653.93 63.89
-3 1 2 582.64 67.49
3 -1 -2 658.93 63.89
3 -1 -2 729.43 64.79
-4 1 2 25.3 5.4
-4 1 2 22.9 8.7
4 -1 -2 34.3 9.8
4 -1 -2 28.3 5.6
4 -1 -2 27 6
-5 1 2 133.29 24.6
-5 1 2 206.98 21.2
5 -1 -2 181.28 20
-6 1 2 98.29 24.2
-6 1 2 116.49 15.8
6 -1 -2 129.59 20.7
6 -1 -2 116.89 14.7
-7 1 2 440.76 56.89
-7 1 2 414.46 46.2
-8 1 2 39.5 10.6
-8 1 2 30.6 16
-8 -1 -1 130.69 31.8
-8 -1 -1 82.09 18.4
-7 -1 -1 184.28 26
-7 -1 -1 205.48 35.4
6 1 1 608.94 70.79
-6 -1 -1 519.75 59.79
5 1 1 5.3 5.7
5 1 1 -3.8 2
-5 -1 -1 1.3 2.6
4 1 1 874.41 90.99
4 1 1 873.81 85.19
-4 -1 -1 826.42 85.99
3 1 1 2061.29 199.58
-3 -1 -1 2002.2 195.28
2 1 1 2179.08 205.68
2 1 1 2218.08 204.38
-2 -1 -1 2068.69 205.88
1 1 1 1064.09 103.99
1 1 1 914.31 102.69
-1 -1 -1 1094.69 102.99
-1 -1 -1 1121.19 105.99
-1 -1 -1 1239.78 104.39
0 1 1 1143.19 95.79
0 1 1 871.41 96.69
0 -1 -1 1017.5 95.79
-1 1 1 1229.38 122.09
-1 1 1 1273.87 123.79
1 -1 -1 1357.66 122.19
3 -1 -1 1357.66 134.29
-4 1 1 402.56 43
-4 1 1 309.17 35.3
4 -1 -1 339.97 35
4 -1 -1 352.46 40.5
-5 1 1 9 7.3
-5 1 1 13.1 4.6
5 -1 -1 18.4 8.5
5 -1 -1 10 3.2
-6 1 1 14.9 5.7
-6 1 1 42.9 15.3
6 -1 -1 28.7 9.8
-7 1 1 83.99 22.6
-7 1 1 64.39 11.5
-8 1 1 9 6
-8 1 1 12.3 12
-8 -1 0 2 5.4
-7 -1 0 265.77 33
6 1 0 2 4
6 1 0 -1.8 2.3
-6 -1 0 0.9 2.7
-6 -1 0 0.4 4.3
5 1 0 3060.29 292.87
5 1 0 3346.17 299.67
-5 -1 0 3045.6 301.37
-5 -1 0 2807.72 293.47
4 1 0 192.98 29.1
4 1 0 257.57 26.9
-4 -1 0 261.97 32.4
-4 -1 0 276.07 28
3 1 0 685.73 70.49
-3 -1 0 787.42 75.49
-3 -1 0 694.73 70.99
2 1 0 9511.15 801.02
-2 -1 0 7429.46 800.42
1 1 0 1268.47 130.69
1 1 0 1439.06 130.09
-1 -1 0 1401.16 130.29
-1 1 0 1127.89 123.29
1 -1 0 1485.85 126.19
1 -1 0 1318.77 123.29
-3 1 0 799.32 89.19
-3 1 0 829.52 83.99
3 -1 0 931.71 86.99
3 -1 0 907.51 88.89
-4 1 0 285.27 28.7
4 -1 0 215.38 31.7
4 -1 0 275.77 27.7
-5 1 0 2618.24 250.87
-5 1 0 2603.24 260.37
-6 1 0 -3.5 6.7
-6 1 0 -1.8 2.2
6 -1 0 0.3 2.5
-7 1 0 284.87 41
-7 1 0 233.88 39.3
-7 1 0 240.78 30.1
-8 1 0 1.7 11.5
-8 1 0 0.6 8.4
-8 1 0 3.9 6.4
-8 -1 1 8.2 6.9
-7 -1 1 95.59 15.3
-7 -1 1 91.19 22.8
6 1 -1 28.7 6.7
-6 -1 1 26 12.1
-6 -1 1 21.9 7.2
5 1 -1 14.9 4.8
5 1 -1 12.1 5.7
-5 -1 1 15.7 7.4
-5 -1 1 10.1 4.2
4 1 -1 300.17 31.6
-4 -1 1 308.97 32.3
-4 -1 1 285.77 35.7
3 1 -1 1804.42 162.28
-3 -1 1 1517.55 162.08
-3 -1 1 1766.02 165.48
-2 -1 1 3463.95 328.97
1 1 -1 1234.98 117.19
-1 -1 1 1415.46 117.49
-1 -1 1 1059.69 117.59
0 1 -1 1097.79 109.49
0 -1 1 1042.5 109.49
0 -1 1 1225.48 111.49
0 -1 1 1288.57 111.69
-1 1 -1 1017.3 106.09
-1 1 -1 1092.59 105.79
1 -1 1 1135.79 105.89
-2 1 -1 2006.6 201.08
-2 1 -1 2289.67 201.18
2 -1 1 1915.41 196.18
-3 1 -1 2408.06 240.88
-3 1 -1 2192.48 240.98
3 -1 1 2769.62 235.38
-4 1 -1 840.12 101.89
-4 1 -1 884.21 101.49
4 -1 1 1018.4 101.79
4 -1 1 1079.49 94.99
-5 1 -1 4.8 6.2
-5 1 -1 2.4 2.5
5 -1 1 3 4.3
5 -1 1 1.9 2.5
-6 1 -1 639.74 80.39
-6 1 -1 656.33 82.09
6 -1 1 735.93 70.39
-7 1 -1 237.08 35.5
-7 1 -1 207.38 36.5
-7 1 -1 152.58 23.6
-8 1 -1 102.09 28
-8 -1 2 44.7 12
-8 -1 2 42.9 16.9
7 1 -2 565.04 59.19
-7 -1 2 466.25 53.09
-7 -1 2 439.36 59.69
6 1 -2 86.89 16.5
-6 -1 2 107.49 15
-6 -1 2 112.59 20.4
5 1 -2 219.08 27.7
5 1 -2 212.78 24.7
-5 -1 2 228.08 25.7
-5 -1 2 222.78 29.9
4 1 -2 18.3 4.8
4 1 -2 27.5 5.8
4 1 -2 26.5 7.3
-4 -1 2 28 6.3
3 1 -2 708.43 66.09
3 1 -2 699.83 65.59
-3 -1 2 676.53 67.99
-3 -1 2 600.84 65.79
2 1 -2 1279.27 140.09
2 1 -2 1608.64 141.19
-2 -1 2 1363.56 140.79
-2 -1 2 1650.03 141.79
1 1 -2 1159.28 103.59
1 1 -2 1078.99 104.59
-1 -1 2 1116.79 103.59
-1 -1 2 1003.1 104.19
0 1 -2 985.6 92.59
0 1 -2 917.81 95.49
0 -1 2 1011.6 96.09
0 -1 2 977.2 92.49
-1 1 -2 4453.85 439.16
1 -1 2 4766.02 439.76
2 -1 2 1302.47 122.79
2 -1 2 1121.79 115.19
-3 1 -2 287.97 36.2
3 -1 2 263.17 29.1
3 -1 2 260.37 27.9
-4 1 -2 1424.06 154.68
-4 1 -2 1401.86 155.78
4 -1 2 1672.93 147.49
-5 1 -2 884.91 108.99
-5 1 -2 930.11 111.09
5 -1 2 1169.68 101.39
-6 1 -2 155.98 30.5
6 -1 2 216.28 24.6
-7 1 -2 84.39 24.8
-8 1 -2 15.3 9.5
8 -1 2 6.5 6.1
-8 -1 3 294.07 45.1
-8 -1 3 367.86 40.2
-7 -1 3 41.5 9.6
-7 -1 3 21.9 12.3
-6 -1 3 169.18 20.8
-6 -1 3 144.29 24.7
5 1 -3 86.89 11.5
5 1 -3 82.79 11.8
-5 -1 3 77.89 14.6
-5 -1 3 89.59 12.5
4 1 -3 2035.3 195.48
4 1 -3 1973.4 194.68
-4 -1 3 1909.11 197.98
-4 -1 3 2223.98 195.98
3 1 -3 739.43 65.29
3 1 -3 590.04 63.59
-3 -1 3 563.94 65.49
-3 -1 3 727.83 64.99
2 1 -3 445.56 40
2 1 -3 362.56 40.7
-2 -1 3 406.66 40.1
1 1 -3 2887.11 286.37
-1 -1 3 3072.99 286.47
-1 -1 3 3137.49 290.87
0 1 -3 4974.4 480.85
0 -1 3 5125.29 481.65
-1 1 -3 1475.05 140.79
-1 1 -3 1492.75 146.39
1 -1 3 1468.55 140.69
1 -1 3 1462.45 146.79
-2 1 -3 506.65 48.8
-2 1 -3 438.86 54.49
2 -1 3 522.35 48.8
2 -1 3 479.75 55.19
-3 1 -3 436.26 54.69
3 -1 3 456.25 47
3 -1 3 421.86 53.99
3 -1 3 473.25 56.39
3 -1 3 536.65 49.99
-4 1 -3 0.2 5.5
4 -1 3 4.8 5.3
4 -1 3 -0.5 1
4 -1 3 0.7 2.2
-5 1 -3 49.9 17.1
5 -1 3 49.4 9.8
5 -1 3 61.69 10.4
-6 1 -3 19.1 12.4
6 -1 3 13.5 5.6
-7 1 -3 398.06 58.59
-8 1 -3 124.99 34
8 -1 3 139.49 20
-8 -1 4 -5.2 3.7
-8 -1 4 -5.5 8.9
-7 -1 4 809.72 98.39
-7 -1 4 885.01 87.99
-6 -1 4 671.43 66.59
-6 -1 4 601.84 70.29
-5 -1 4 811.12 85.09
4 1 -4 382.26 37.2
-4 -1 4 305.17 38
3 1 -4 435.06 46.5
-3 -1 4 518.25 48.3
-3 -1 4 443.26 47.1
-3 -1 4 480.35 49.5
2 1 -4 224.18 21.7
-2 -1 4 217.28 22
-2 -1 4 213.18 22.9
-2 -1 4 162.58 24.9
1 1 -4 450.45 50.79
-1 -1 4 507.15 50.89
-1 -1 4 522.55 56.39
-1 -1 4 615.44 52.99
0 1 -4 2310.77 214.48
0 -1 4 2202.38 214.18
-1 1 -4 2165.38 192.48
-1 1 -4 2275.67 200.18
1 -1 4 1914.61 191.98
1 -1 4 1717.63 198.68
-2 1 -4 1028.8 95.89
-2 1 -4 1048.7 104.49
2 -1 4 1042.3 104.99
2 -1 4 992.3 95.59
2 -1 4 817.62 103.79
-3 1 -4 982.5 91.59
3 -1 4 732.43 80.39
3 -1 4 734.83 89.49
-4 1 -4 95.89 22.4
4 -1 4 83.49 13.6
4 -1 4 75.29 11.2
-5 1 -4 314.87 46.4
5 -1 4 325.77 35.3
-6 1 -4 362.56 53.29
6 -1 4 374.56 40.8
-7 1 -4 697.93 94.09
7 -1 4 807.92 79.39
-8 1 -4 189.08 43.5
8 -1 4 213.28 26.9
-7 -1 5 -1.2 3.2
-7 -1 5 -0.2 7.9
-6 -1 5 149.59 19.8
-6 -1 5 143.59 22.4
-5 -1 5 114.09 15.3
-5 -1 5 98.19 17.4
-4 -1 5 118.39 17.8
-4 -1 5 124.09 16.2
3 1 -5 24.1 5.3
-3 -1 5 29.3 6.7
-3 -1 5 25.5 8.8
-3 -1 5 27.4 9.3
2 1 -5 1133.49 107.79
-2 -1 5 976.8 112.99
-2 -1 5 1214.28 108.19
1 1 -5 81.79 10.5
-1 -1 5 74.79 11.4
-1 -1 5 99.49 10.7
-1 -1 5 87.99 15.3
0 1 -5 4 3.3
0 1 -5 1.8 1.6
0 -1 5 1.2 1.6
0 -1 5 3.1 4.3
-1 1 -5 283.67 37.4
-1 1 -5 301.17 31.2
1 -1 5 279.17 39.7
1 -1 5 308.97 30.9
-2 1 -5 6.8 6.3
-2 1 -5 14 3.9
2 -1 5 5.7 6.4
2 -1 5 10.7 3.5
2 -1 5 5.2 4.5
-3 1 -5 -4.6 4
3 -1 5 -0.8 1.6
-4 1 -5 62.09 19.1
4 -1 5 80.99 11.3
-5 1 -5 381.06 50.09
5 -1 5 286.17 34.4
-6 1 -5 193.78 46
6 -1 5 169.48 24.3
-7 1 -5 73.79 23.9
7 -1 5 43.6 10.5
-7 -1 6 92.29 22.7
-7 -1 6 122.89 20.1
-6 -1 6 9.9 5.4
-6 -1 6 2.7 4.9
-5 -1 6 187.18 27.4
-5 -1 6 227.58 25.7
-4 -1 6 319.27 32.3
-4 -1 6 276.37 30.8
-4 -1 6 245.08 33.1
-3 -1 6 973.7 84.89
-3 -1 6 707.33 82.19
2 1 -6 27.4 5.6
-2 -1 6 18.4 4.7
-2 -1 6 25 9
1 1 -6 525.35 50.99
-1 -1 6 458.55 52.19
-1 -1 6 525.95 50.59
-1 -1 6 508.35 58.89
0 1 -6 213.58 24
0 -1 6 200.18 31.6
0 -1 6 237.68 24
-1 1 -6 956.4 101.39
-1 1 -6 906.31 92.69
1 -1 6 970.6 92.39
-2 1 -6 155.88 27.2
2 -1 6 181.78 20.2
-3 1 -6 986.2 121.79
3 -1 6 1260.37 112.19
-4 1 -6 118.49 28.4
4 -1 6 136.59 17.2
-5 1 -6 48.4 19.3
5 -1 6 46.9 9.9
-6 1 -6 93.49 28.6
6 -1 6 100.89 15.1
-7 1 -6 262.87 49.9
7 -1 6 338.97 36.9
-6 -1 7 202.88 26.6
-6 -1 7 220.98 30.5
-5 -1 7 71.29 11.9
-5 -1 7 61.29 14.6
-4 -1 7 197.18 24.8
-4 -1 7 207.18 24.1
-2 -1 7 1561.04 144.79
-2 -1 7 1427.36 146.49
-1 -1 7 752.02 77.99
-1 -1 7 773.32 75.49
0 1 -7 867.71 83.09
0 -1 7 630.54 70.79
-1 1 -7 462.55 58.09
1 -1 7 493.15 49.4
-2 1 -7 367.56 53.99
2 -1 7 497.35 46.5
-3 1 -7 -4.4 4.7
3 -1 7 0 2.4
-4 1 -7 46.3 17.2
4 -1 7 42.1 9.1
5 -1 7 28 7.4
-6 1 -7 366.76 58.49
6 -1 7 374.06 42
-5 -1 8 636.94 71.29
-5 -1 8 642.74 67.89
-4 -1 8 21.4 6.4
-3 -1 8 2708.93 255.37
-3 -1 8 2559.94 253.07
-2 -1 8 1.4 2.4
-2 -1 8 3.4 2.4
-1 -1 8 929.61 94.19
-1 -1 8 915.01 91.09
0 1 -8 -2.2 5.5
0 -1 8 1.6 1.7
-1 1 -8 281.77 43
1 -1 8 342.77 34.8
-2 1 -8 103.29 24.4
2 -1 8 67.69 12.1
-3 1 -8 93.29 28.6
3 -1 8 114.79 15.3
-4 1 -8 442.66 64.19
4 -1 8 514.15 52.19
-5 1 -8 16.2 14.1
5 -1 8 8.7 4.5
-4 -1 9 15.9 5.1
-4 -1 9 6.3 4.7
-3 -1 9 2.8 3.3
-3 -1 9 0.4 2.8
-2 -1 9 214.78 25.3
-2 -1 9 215.58 27.8
-1 -1 9 97.29 16
-1 -1 9 93.99 13.2
0 -1 9 50.09 11.7
-2 1 -9 8.8 7.5
2 -1 9 11.8 3.9
-3 1 -9 65.29 21.9
3 -1 9 75.39 13.5
-4 1 -9 194.88 38.9
4 -1 9 268.67 29.4
-2 -1 10 2.5 4.7
-2 -1 10 13.2 7.2
-1 -1 10 433.16 47.8
-1 -1 10 459.25 51.39
0 -1 10 33.8 10.3
0 -1 10 60.59 11
-1 1 -10 214.08 36.2
1 -1 10 212.88 25.7
-2 1 -10 30.8 15.3
2 -1 10 38.1 9.1
2 2 10 78.19 11.2
-2 -2 -10 42.1 17.1
1 2 10 405.96 44.3
0 2 10 75.29 13.8
-1 2 10 213.48 28.3
-1 2 10 208.98 25.6
-2 2 10 384.56 39.1
-2 2 10 301.17 39.6
4 2 9 155.88 19.2
-4 -2 -9 101.09 28.4
3 2 9 429.16 44.3
-3 -2 -9 364.46 55.39
2 2 9 163.38 20.8
1 2 9 528.65 57.19
-1 -2 -9 585.74 69.29
0 2 9 936.91 95.09
0 -2 -9 973.2 106.09
-1 2 9 190.88 23.1
-2 2 9 1034.4 99.49
-2 2 9 885.31 95.49
-3 2 9 -4.1 3.3
-3 2 9 4 3.5
-4 2 9 708.73 73.39
-4 2 9 695.63 73.49
-5 -2 -8 443.76 62.79
4 2 8 257.47 26.9
-4 -2 -8 153.08 37.7
3 2 8 105.79 15.2
-3 -2 -8 124.09 28.6
2 2 8 120.39 16.3
-2 -2 -8 135.89 25
1 2 8 402.76 41
-1 -2 -8 353.16 49.1
0 2 8 170.48 21.3
0 -2 -8 196.58 29.5
-1 2 8 206.38 23.9
-2 2 8 54.19 9.8
-2 2 8 38.7 9.9
-3 2 8 -1.5 3
-3 2 8 4 2.6
-4 2 8 311.07 37
-4 2 8 343.87 44
-4 2 8 331.17 37.2
-5 2 8 284.27 41.4
-5 2 8 312.77 34.9
6 2 7 512.15 55.59
-6 -2 -7 544.35 74.19
5 2 7 20.5 6.2
-5 -2 -7 -7.4 7.5
4 2 7 660.43 65.29
-4 -2 -7 595.34 78.39
3 2 7 460.55 52.19
-3 -2 -7 599.64 67.09
2 2 7 338.27 31.5
-2 -2 -7 212.88 36.3
1 2 7 298.57 33.2
-1 -2 -7 330.57 42.2
0 2 7 50.29 8.8
0 -2 -7 38.9 12.4
-1 2 7 314.37 33.2
-1 2 7 302.27 40.3
-2 2 7 79.19 19.5
-2 2 7 101.99 14.7
-2 2 7 127.39 14.7
-3 2 7 47.4 10.4
-3 2 7 54.39 10.4
-4 2 7 -0.3 2.1
-4 2 7 -1.7 5.5
-4 2 7 2.4 2.3
-5 2 7 27.1 11.3
-6 2 7 364.56 41.2
-6 2 7 382.56 49.4
7 2 6 70.99 13.5
-7 -2 -6 65.59 24.2
6 2 6 42.1 9.3
-6 -2 -6 24.9 16.6
5 2 6 11 4.7
-5 -2 -6 5.9 9.7
4 2 6 19.3 5.3
-4 -2 -6 8.6 7.2
3 2 6 579.64 58.89
2 2 6 6.4 2.6
-2 -2 -6 -0.8 3.5
1 2 6 68.29 16.3
1 2 6 66.79 9.3
-1 -2 -6 67.19 16.8
0 2 6 29.3 5.9
0 2 6 18.1 9.5
0 -2 -6 32.4 10.2
-1 2 6 315.67 44.4
-1 2 6 435.46 39.7
-2 2 6 51.69 8.6
-2 2 6 40.6 11.5
-2 2 6 34.9 7.9
-3 2 6 1027.4 96.59
-3 2 6 1015.7 101.59
-3 2 6 875.41 95.79
-4 2 6 634.44 59.79
-4 2 6 671.13 65.59
-4 2 6 506.35 59.29
-4 2 6 513.35 64.49
-5 2 6 736.03 72.69
-5 2 6 689.43 79.79
-6 2 6 132.59 25.9
-6 2 6 169.28 20.5
-7 2 6 213.98 26.7
7 2 5 294.67 32.6
-7 -2 -5 236.88 45.6
6 2 5 435.06 46.8
5 2 5 145.39 18.2
-5 -2 -5 135.69 31.6
4 2 5 1116.29 110.39
-4 -2 -5 1141.59 124.09
3 2 5 53.69 8.8
-3 -2 -5 118.29 24.5
2 2 5 486.35 57.29
2 2 5 603.14 67.39
-2 -2 -5 672.73 58.89
1 2 5 48.1 13.9
-1 -2 -5 37.4 7.2
-1 -2 -5 48.8 13.1
0 2 5 3701.03 342.67
0 2 5 3946.01 350.96
0 -2 -5 3403.36 347.97
0 -2 -5 3421.46 342.87
-1 2 5 107.09 16.6
-1 2 5 106.29 12.9
1 -2 -5 113.39 13.1
-2 2 5 1010.6 92.19
-2 2 5 826.62 91.99
2 -2 -5 998.3 91.89
-3 2 5 150.68 18.9
-3 2 5 157.98 21.8
-3 2 5 175.08 19.2
-4 2 5 76.09 14.6
-5 2 5 185.78 22.7
-5 2 5 217.48 29.7
-6 2 5 338.17 43.4
-6 2 5 294.17 34.4
-7 2 5 213.38 26.3
-7 2 5 214.78 34.8
8 2 4 2.7 3.9
-8 -2 -4 -8 10.3
7 2 4 149.09 19.3
-7 -2 -4 128.79 35.6
6 2 4 870.51 85.89
-6 -2 -4 824.42 101.49
5 2 4 122.09 14.9
-5 -2 -4 80.79 25
4 2 4 675.13 68.19
-4 -2 -4 695.63 80.29
3 2 4 901.11 92.59
3 2 4 1071.59 89.29
-3 -2 -4 758.92 88.59
2 2 4 830.62 80.39
2 2 4 784.12 87.89
-2 -2 -4 845.42 80.79
1 2 4 948.41 105.29
1 2 4 1083.49 99.39
-1 -2 -4 1057.99 105.89
-1 -2 -4 1016.3 99.49
0 2 4 625.64 65.09
0 2 4 778.62 71.69
0 -2 -4 633.04 65.39
-1 2 4 1107.69 106.29
1 -2 -4 1016 101.89
-2 2 4 2287.37 232.98
-2 2 4 2438.36 233.18
2 -2 -4 2615.54 232.98
-3 2 4 17.5 4.2
-3 2 4 9.8 6.1
3 -2 -4 13.2 3.6
-4 2 4 1319.37 145.29
-4 2 4 1558.54 139.69
-5 2 4 -3.3 4.1
-5 2 4 2.9 2.3
-6 2 4 32.1 11.6
-6 2 4 46 9.5
-7 2 4 -4 3.3
-7 2 4 14.9 10
-8 2 4 22.1 8.2
8 2 3 644.84 65.79
-8 -2 -3 573.64 81.49
7 2 3 665.13 65.49
-7 -2 -3 564.34 79.59
6 2 3 788.32 79.29
-6 -2 -3 784.02 93.69
5 2 3 1505.25 135.69
-5 -2 -3 1245.78 147.09
4 2 3 1110.29 95.49
4 2 3 892.11 105.39
-4 -2 -3 879.11 104.79
3 2 3 3602.44 319.67
3 2 3 3043.4 315.77
-3 -2 -3 3359.36 325.47
2 2 3 289.87 28.1
2 2 3 236.68 30
-2 -2 -3 282.47 28.3
-2 -2 -3 274.67 34.3
-1 -2 -3 2810.92 273.47
-1 -2 -3 2965.3 278.87
0 2 3 1392.76 123.69
0 -2 -3 1121.69 123.49
0 -2 -3 1382.66 127.19
-1 2 3 2.2 1.5
-1 2 3 2.2 2.4
1 -2 -3 1.2 1.4
-2 2 3 414.96 44.3
-2 2 3 413.86 44.7
2 -2 -3 528.15 44.9
-3 2 3 170.38 17.9
-3 2 3 154.28 21.7
3 -2 -3 166.28 18.3
-4 2 3 690.03 67.49
-4 2 3 606.94 73.09
4 -2 -3 761.02 68.79
-5 2 3 80.09 10.8
-5 2 3 65.39 19.8
5 -2 -3 77.19 10.5
-6 2 3 118.79 15.4
-6 2 3 81.79 22.4
6 -2 -3 126.89 15.2
-7 2 3 92.69 14
-7 2 3 94.99 23.3
7 -2 -3 100.79 15
-8 2 3 128.39 18
-8 2 3 106.39 28.2
8 2 2 9.3 5.2
-8 -2 -2 9.8 12.2
7 2 2 86.09 14.4
-7 -2 -2 83.89 25.2
-7 -2 -2 62.79 15.5
6 2 2 241.18 27.7
-6 -2 -2 207.98 30.3
-6 -2 -2 330.37 43.1
5 2 2 320.87 40.8
5 2 2 294.47 30.4
-5 -2 -2 236.88 32.6
4 2 2 11.8 3.4
4 2 2 9.6 8.2
4 2 2 11.3 4.6
-4 -2 -2 10.8 4.4
-4 -2 -2 24.8 11.4
3 2 2 93.09 11.6
3 2 2 88.89 17
3 2 2 101.39 13.6
-3 -2 -2 105.89 17.9
-3 -2 -2 115.49 14.7
2 2 2 64.59 7.9
2 2 2 74.49 9.9
-2 -2 -2 65.19 9.7
-2 -2 -2 75.29 12.7
-2 -2 -2 54.29 7.8
1 2 2 737.53 73.29
1 2 2 730.53 77.09
-1 -2 -2 818.92 73.49
0 2 2 430.56 45.3
0 -2 -2 460.15 43.9
-1 2 2 48.6 6.2
-1 2 2 43.4 6.6
1 -2 -2 65.29 6.4
-2 2 2 138.19 17.6
-2 2 2 140.19 14.9
2 -2 -2 125.79 14.5
-3 2 2 108.39 15.8
3 -2 -2 97.59 11.3
-4 2 2 34.8 10.4
-4 2 2 25.5 5.5
4 -2 -2 38.9 5.5
4 -2 -2 35.6 6.9
-5 2 2 253.27 35.5
-5 2 2 253.37 28
5 -2 -2 237.88 33.3
5 -2 -2 281.67 27.6
-6 2 2 70.19 19.2
-6 2 2 48.9 9.1
6 -2 -2 66.29 9.2
-7 2 2 495.55 61.09
-7 2 2 381.96 48.2
7 -2 -2 512.75 47.8
-8 2 2 43.7 10.3
-8 2 2 38.6 17.6
8 2 1 0.7 3
-8 -2 -1 -0.9 4.7
-8 -2 -1 8 9.5
-7 -2 -1 111.39 17.2
6 2 1 80.79 19.6
-6 -2 -1 41.5 11.4
5 2 1 469.45 55.69
-5 -2 -1 474.65 51.39
4 2 1 121.49 15.2
4 2 1 109.29 18.8
-4 -2 -1 118.79 16.1
3 2 1 1732.73 160.88
3 2 1 1596.34 164.88
2 2 1 2134.89 187.38
2 2 1 2077.09 185.58
-2 -2 -1 1655.53 186.98
0 2 1 3.3 1.5
0 2 1 5.2 1.4
0 -2 -1 7.4 1.9
0 -2 -1 7.1 1.4
-3 2 1 25.5 8.1
-3 2 1 18.9 3.3
3 -2 -1 19.4 6.7
3 -2 -1 21 3.3
-4 2 1 5331.07 538.85
-4 2 1 5887.81 531.35
-5 2 1 8.6 6.6
-5 2 1 9.3 3.5
5 -2 -1 10.4 3.3
5 -2 -1 3.7 5.1
-6 2 1 569.34 68.49
-6 2 1 695.93 80.29
6 -2 -1 777.82 68.09
-7 2 1 -0.8 7.6
-7 2 1 3.1 3.9
7 -2 -1 13.5 4.3
-8 2 1 136.49 33.1
-8 2 1 144.49 21.5
-8 2 1 209.98 35.3
-8 -2 0 21.9 8.4
-7 -2 0 739.23 78.69
6 2 0 13.9 8.2
-6 -2 0 10.6 5.7
5 2 0 11.8 4.2
5 2 0 2.2 4.1
4 2 0 1342.47 128.79
4 2 0 1380.66 124.99
-4 -2 0 1121.89 124.99
3 2 0 712.33 66.09
3 2 0 546.35 69.29
-3 -2 0 730.03 66.79
2 2 0 324.67 33.2
2 2 0 326.17 34.6
-2 -2 0 330.47 33.5
1 2 0 10.3 1.5
1 2 0 9.8 2.4
-1 -2 0 13.1 2.8
0 2 0 1139.79 98.89
0 2 0 888.31 97.19
0 2 0 1074.79 97.59
0 -2 0 1024.3 97.19
-1 2 0 15.9 4.4
-1 2 0 9 2.7
1 -2 0 4.3 2.4
1 -2 0 8.1 2.5
-2 2 0 344.97 34.6
-2 2 0 249.88 34.4
-2 2 0 300.27 30.6
2 -2 0 344.97 30.5
-3 2 0 608.94 56.99
3 -2 0 541.85 61.79
-4 2 0 1019 95.29
-4 2 0 927.91 103.09
4 -2 0 964.9 101.49
-5 2 0 3.1 3
-5 2 0 4.3 7.3
5 -2 0 6 3.1
5 -2 0 7.9 6.4
-6 2 0 11.4 5.7
-6 2 0 8 8.2
-6 2 0 2 4.9
6 -2 0 16.4 4.7
-7 2 0 620.04 68.69
-7 2 0 732.33 81.79
-8 2 0 65.69 32.8
-8 2 0 16.2 6.6
-8 2 0 29.5 15.3
-8 -2 1 198.38 27.4
7 2 -1 -6.8 6.2
-7 -2 1 12.4 5.7
6 2 -1 591.64 64.79
-6 -2 1 560.84 60.99
5 2 -1 13.2 4.5
5 2 -1 9.4 5.6
-5 -2 1 5.9 5.2
4 2 -1 6967 635.04
-4 -2 1 6115.59 635.74
-4 -2 1 6960.8 633.14
3 2 -1 10.2 3.9
-3 -2 1 17.1 4.3
-3 -2 1 15.7 4.8
0 2 -1 9.7 2.8
0 2 -1 5.1 2.2
0 2 -1 4.6 1
0 2 -1 5.6 1.5
0 -2 1 7 2
0 -2 1 5 2.3
0 -2 1 6.7 1.1
0 -2 1 6.8 2.6
-2 2 -1 2245.58 205.68
-2 2 -1 1922.61 205.98
2 -2 1 2096.79 205.68
2 -2 1 2191.38 204.98
-3 2 -1 1805.22 164.28
-3 2 -1 1520.75 160.88
3 -2 1 1528.95 161.18
3 -2 1 1627.14 155.08
-4 2 -1 91.09 20.8
-4 2 -1 104.99 20.4
4 -2 1 112.09 18.8
4 -2 1 136.29 14.6
-5 2 -1 654.53 73.89
-5 2 -1 486.95 68.69
5 -2 1 544.05 68.29
5 -2 1 713.03 61.99
-6 2 -1 51.39 15.8
-6 2 -1 68.29 21.4
-7 2 -1 133.49 33.5
-7 2 -1 139.29 31.2
7 -2 1 161.68 20.1
-8 2 -1 -2.1 7.9
-8 -2 2 25.6 8.6
-7 -2 2 424.66 58.49
-7 -2 2 432.36 48.2
6 2 -2 35.5 10.8
-6 -2 2 42.7 13.3
-6 -2 2 40.2 9.6
5 2 -2 188.98 28
5 2 -2 240.88 26.8
5 2 -2 282.97 28.1
-5 -2 2 279.27 28.7
4 2 -2 48.8 7.2
4 2 -2 35.6 6.5
4 2 -2 38.2 7.5
-4 -2 2 25.6 8
-4 -2 2 46.1 7.4
3 2 -2 136.39 12.7
-3 -2 2 101.89 13.5
-3 -2 2 92.59 12.8
2 2 -2 169.78 18.4
2 2 -2 166.78 19.3
-2 -2 2 199.18 19
1 2 -2 49.7 6.1
1 2 -2 37.6 4.8
-1 -2 2 41.8 5.8
-1 -2 2 47.6 5
0 2 -2 547.65 54.39
0 2 -2 580.54 57.99
0 -2 2 581.84 55.29
0 -2 2 585.84 58.39
0 -2 2 547.65 57.89
-1 2 -2 839.52 86.69
1 -2 2 815.32 81.49
1 -2 2 846.22 86.69
1 -2 2 911.91 86.79
-2 2 -2 85.09 14.5
-2 2 -2 65.19 14.3
2 -2 2 69.29 13.3
2 -2 2 70.49 8.8
2 -2 2 75.49 13
-3 2 -2 119.69 18.6
-3 2 -2 125.89 20.1
3 -2 2 87.59 16.3
3 -2 2 89.49 12.8
-4 2 -2 12.5 7
-4 2 -2 13.9 9.3
4 -2 2 15.5 7.6
4 -2 2 10.5 3.6
-5 2 -2 313.87 46.3
-5 2 -2 265.67 42.6
5 -2 2 385.96 37
-6 2 -2 337.67 47.8
-6 2 -2 281.67 46.7
6 -2 2 343.37 36.5
-7 2 -2 73.99 22.6
-8 2 -2 19.8 8.6
-8 -2 3 154.08 22.4
-7 -2 3 84.29 13.7
-7 -2 3 54.99 16.6
-6 -2 3 135.29 18.2
-6 -2 3 119.39 20.8
5 2 -3 83.49 11.6
5 2 -3 111.79 14.9
-5 -2 3 79.99 14.1
-5 -2 3 67.49 11.8
4 2 -3 911.51 82.49
4 2 -3 844.82 80.79
-4 -2 3 726.83 81.69
3 2 -3 148.39 15.7
-3 -2 3 136.99 16.9
-3 -2 3 147.69 17
2 2 -3 511.45 52.19
2 2 -3 513.85 50.59
-2 -2 3 591.14 52.39
-2 -2 3 472.25 50.69
1 2 -3 0.8 1.1
-1 -2 3 4.7 1.4
-1 -2 3 2.6 2.4
-1 -2 3 2.3 1.6
0 2 -3 1295.27 132.49
0 2 -3 1455.65 137.69
0 -2 3 1357.36 132.39
0 -2 3 1488.95 138.39
-1 2 -3 2926.21 303.57
-1 2 -3 3486.55 310.17
1 -2 3 3230.88 303.67
1 -2 3 3216.88 311.07
-2 2 -3 217.78 31.2
2 -2 3 263.67 32.9
2 -2 3 276.87 34.3
2 -2 3 246.48 26
-3 2 -3 2877.51 293.97
3 -2 3 3100.69 285.17
-4 2 -3 1201.98 121.79
4 -2 3 1071.19 109.79
4 -2 3 1000.6 111.09
4 -2 3 1293.87 123.09
-5 2 -3 1524.95 152.48
5 -2 3 1437.46 139.69
5 -2 3 1309.47 137.69
-6 2 -3 942.81 102.09
6 -2 3 791.42 85.59
-7 2 -3 651.93 85.29
7 -2 3 706.53 71.99
-8 2 -3 610.34 83.29
8 -2 3 642.94 68.09
-8 -2 4 24.9 9.5
-8 -2 4 21.1 17.2
-7 -2 4 12.9 5
-7 -2 4 -6.8 6.7
-6 -2 4 40.9 11.7
-6 -2 4 40.1 9.5
-5 -2 4 3.7 4.5
-5 -2 4 5.3 3.2
4 2 -4 1631.24 149.99
4 2 -4 1705.83 150.38
-4 -2 4 1311.27 149.69
3 2 -4 15.2 3.4
3 2 -4 8.9 3.7
-3 -2 4 15.8 4.8
-3 -2 4 8.7 3.6
-3 -2 4 12.9 3.6
2 2 -4 2619.54 238.18
-2 -2 4 2585.54 238.38
-2 -2 4 2322.37 239.48
1 2 -4 1128.09 111.79
-1 -2 4 1224.78 118.39
-1 -2 4 1161.88 111.69
0 2 -4 700.63 68.19
0 2 -4 801.72 75.09
0 -2 4 634.54 67.69
-1 2 -4 1068.59 107.19
-1 2 -4 1197.58 114.69
1 -2 4 1095.79 107.09
1 -2 4 1106.69 115.89
-2 2 -4 749.82 77.79
-2 2 -4 888.71 87.19
2 -2 4 742.73 77.69
2 -2 4 766.32 87.59
2 -2 4 881.31 87.89
-3 2 -4 908.81 106.69
3 -2 4 975.3 99.79
3 -2 4 984.8 107.69
3 -2 4 1146.39 111.99
4 -2 4 719.13 73.79
4 -2 4 759.12 76.89
-5 2 -4 135.59 30.4
5 -2 4 137.69 17.6
-6 2 -4 1024.8 107.99
6 -2 4 804.92 89.09
-7 2 -4 131.19 35.5
7 -2 4 181.48 22.7
-8 2 -4 -2.9 8.2
8 -2 4 -4.2 3.3
-7 -2 5 237.08 32.8
-7 -2 5 236.18 29.6
-6 -2 5 409.76 48.2
-6 -2 5 433.86 46.8
-5 -2 5 202.28 25.2
-5 -2 5 215.08 27
4 2 -5 62.09 8.8
-4 -2 5 46.4 10.1
-4 -2 5 69.29 11
3 2 -5 162.88 17.9
-3 -2 5 121.99 16
-3 -2 5 135.89 17.4
-3 -2 5 147.99 21.9
2 2 -5 1076.89 101.89
-2 -2 5 956.5 101.69
-2 -2 5 1135.59 104.09
1 2 -5 133.99 13.1
-1 -2 5 90.89 17.5
-1 -2 5 97.09 12.2
0 -2 5 3009.2 285.47
-1 2 -5 35.6 7
-1 2 -5 50.49 15.8
1 -2 5 42.1 13.3
1 -2 5 50.39 15
1 -2 5 46.4 6.6
-2 2 -5 639.54 69.19
-2 2 -5 567.84 59.59
2 -2 5 512.95 68.09
2 -2 5 640.04 71.59
2 -2 5 623.84 60.19
-3 2 -5 101.29 22.4
3 -2 5 51.69 9.8
-4 2 -5 1025.3 115.89
4 -2 5 1058.29 103.19
-5 2 -5 138.99 35.3
5 -2 5 239.78 25.1
-6 2 -5 438.66 70.19
-7 2 -5 299.07 50.59
7 -2 5 294.27 35.2
-7 -2 6 194.98 25.5
-7 -2 6 183.28 27.2
-6 -2 6 89.09 16
-5 -2 6 441.16 49.5
-4 -2 6 551.94 57.19
-4 -2 6 506.55 55.39
3 2 -6 887.31 102.39
-3 -2 6 1154.08 105.39
-3 -2 6 1138.69 103.49
2 2 -6 47.7 7.5
-2 -2 6 58.39 8
-2 -2 6 54.09 10.6
1 2 -6 390.96 40.9
-1 -2 6 409.76 43
0 2 -6 28.3 5.9
0 2 -6 36.9 12.8
0 -2 6 41.9 6.8
-1 2 -6 66.89 9.9
-1 2 -6 62.99 17.4
1 -2 6 77.29 10
-2 2 -6 1.9 5.2
2 -2 6 3.7 2.4
-3 2 -6 584.34 68.49
3 -2 6 530.35 56.19
-4 2 -6 5.1 8.2
4 -2 6 20.1 5.8
-5 2 -6 31 15.7
-6 2 -6 36.7 15.6
6 -2 6 30.1 8.6
-7 2 -6 40.6 20.9
7 -2 6 66.19 13.4
-6 -2 7 226.08 30.2
-5 -2 7 88.69 13.7
-5 -2 7 72.09 14.7
-4 -2 7 4.3 3.6
-4 -2 7 -5.6 3.1
-4 -2 7 -1 2.4
-3 -2 7 52.79 10
-2 -2 7 100.99 15.9
-2 -2 7 139.59 15.2
-1 -2 7 324.57 30.7
-1 -2 7 245.78 32.1
0 2 -7 63.19 16.7
0 -2 7 35.5 7.3
-1 2 -7 322.87 43.5
1 -2 7 321.77 34.3
-2 2 -7 217.28 35.3
2 -2 7 255.87 27.2
-3 2 -7 522.95 66.59
3 -2 7 530.45 54.79
-4 2 -7 635.54 78.79
4 -2 7 619.74 64.49
-5 2 -7 38.9 18
5 -2 7 14.1 5.3
-6 2 -7 514.75 73.49
6 -2 7 545.05 57.69
-5 -2 8 308.67 40.1
-5 -2 8 288.87 35.3
-4 -2 8 285.07 35.4
-4 -2 8 312.37 39.5
-4 -2 8 381.06 38.9
-3 -2 8 0.3 2.9
-3 -2 8 5.1 4
-2 -2 8 43.5 10.8
-2 -2 8 51.59 9
-1 -2 8 216.38 24.5
-1 -2 8 220.28 27.5
0 -2 8 257.07 29
0 -2 8 198.58 24.6
-1 2 -8 307.77 43.6
1 -2 8 318.37 34.2
-2 2 -8 142.09 26.9
2 -2 8 146.99 18.4
-3 2 -8 96.49 27.8
3 -2 8 134.59 16.7
-4 2 -8 224.48 40
4 -2 8 270.27 30
-5 2 -8 364.36 56.19
5 -2 8 370.06 41.4
-4 -2 9 606.64 71.79
-4 -2 9 808.72 75.89
-3 -2 9 -1.1 3.1
-3 -2 9 0.6 3.9
-2 -2 9 1041.9 104.49
-2 -2 9 1068.79 107.89
-1 -2 9 161.08 21.6
-1 -2 9 126.19 17.3
0 -2 9 955.1 86.39
0 -2 9 762.22 88.69
-1 2 -9 765.02 79.59
1 -2 9 548.05 63.29
-2 2 -9 161.28 29.8
2 -2 9 166.58 21
-3 2 -9 361.16 52.99
3 -2 9 374.16 40.9
-4 2 -9 184.68 32.6
4 -2 9 137.29 20.1
-2 -2 10 326.17 42.4
-2 -2 10 408.26 41
-1 -2 10 258.47 33.5
-1 -2 10 263.37 30.1
0 -2 10 46.1 13.2
0 -2 10 69.99 12.1
-1 2 -10 263.97 46
1 -2 10 387.46 42.2
-2 2 -10 74.39 23.3
2 -2 10 83.69 14.7
2 3 10 551.74 58.29
-2 -3 -10 552.04 72.19
1 3 10 6.2 3.9
-1 -3 -10 9.1 9.2
0 3 10 12.2 4.8
-1 3 10 45.7 11.1
-1 3 10 40.1 9.7
-2 3 10 0.9 2.9
-2 3 10 0.6 3.9
4 3 9 -1.4 3.9
-4 -3 -9 1.1 11.7
3 3 9 -1.7 3
-3 -3 -9 -9.7 7.6
2 3 9 20 5.7
-2 -3 -9 2.1 8.7
1 3 9 193.08 23.4
0 3 9 44.2 9.1
0 -3 -9 30.9 12.6
-1 3 9 92.99 13.5
-2 3 9 17.1 6
-2 3 9 26 10.1
-3 3 9 46.4 10.7
-3 3 9 43.4 9.7
-4 3 9 65.09 13.3
-4 3 9 90.39 14.2
5 3 8 7.6 4
-5 -3 -8 7.1 11.9
4 3 8 27.8 7.6
-4 -3 -8 30.6 15.7
3 3 8 15.2 5.4
-3 -3 -8 17.1 11.4
2 3 8 12.5 4.7
-2 -3 -8 1.3 6.9
1 3 8 130.69 17.2
-1 -3 -8 154.98 26
0 3 8 272.17 33.2
0 -3 -8 375.76 43.4
-1 3 8 268.57 30
-2 3 8 4.9 3.2
-2 3 8 -3 2
-3 3 8 45.9 9.9
-4 3 8 231.38 35.1
-4 3 8 239.58 28.5
-4 3 8 245.28 28.8
-5 3 8 32.2 14.6
-5 3 8 59.09 12.3
6 3 7 23.3 6.6
-6 -3 -7 22.3 14.3
5 3 7 693.73 62.59
-5 -3 -7 466.55 71.89
4 3 7 -0.6 1.3
-4 -3 -7 0.4 7.3
3 3 7 478.85 50.99
-3 -3 -7 513.65 63.89
2 3 7 48.7 9.2
-2 -3 -7 52.69 16.3
1 3 7 1774.62 191.28
-1 -3 -7 2266.67 203.18
0 3 7 81.99 19.3
0 3 7 96.39 12.5
0 -3 -7 85.79 19
-1 3 7 3349.06 289.27
-1 3 7 2678.93 296.17
-2 3 7 690.63 81.29
-2 3 7 724.53 75.09
-2 3 7 821.82 76.69
-3 3 7 929.41 98.89
-3 3 7 933.71 93.19
-4 3 7 913.91 107.39
-4 3 7 1162.88 117.19
-4 3 7 1260.07 109.99
-5 3 7 246.48 38.8
-5 3 7 307.27 32.4
-6 3 7 133.49 26.3
-6 3 7 140.39 18.6
7 3 6 46.8 10.3
-7 -3 -6 47.3 19.5
6 3 6 30.3 8.4
-6 -3 -6 40.6 17.2
5 3 6 108.49 14.1
-5 -3 -6 66.49 22.5
4 3 6 549.25 55.29
-4 -3 -6 513.55 67.79
3 3 6 24.8 6.1
-3 -3 -6 42.6 14.9
2 3 6 917.01 84.09
-2 -3 -6 760.22 92.49
1 3 6 1.2 1.9
1 3 6 -2.7 6.7
0 3 6 977.5 93.69
0 -3 -6 932.81 99.59
-1 3 6 823.82 81.19
-2 3 6 13.7 4.2
-2 3 6 10 6.2
-2 3 6 9.4 3.5
-3 3 6 314.17 30.4
-3 3 6 223.18 29.3
-3 3 6 268.47 33.9
-4 3 6 453.95 54.29
-4 3 6 425.36 50.69
-4 3 6 470.45 47.2
-4 3 6 448.96 48
-5 3 6 24.5 10.5
-5 3 6 25.9 6.7
-6 3 6 66.79 10.6
-6 3 6 35.2 15.6
-7 3 6 8.6 4.5
-7 3 6 -1.5 7.7
7 3 5 1042.9 97.19
-7 -3 -5 827.42 113.49
6 3 5 15.3 5
-6 -3 -5 15 9.3
5 3 5 3218.68 309.97
-5 -3 -5 3272.57 327.17
4 3 5 745.03 70.79
-4 -3 -5 643.44 81.99
3 3 5 605.34 57.09
-3 -3 -5 501.95 65.89
2 3 5 291.87 34.9
2 3 5 336.37 40.1
2 3 5 304.37 30.9
-2 -3 -5 298.97 31.4
-2 -3 -5 229.78 36.7
1 3 5 378.96 33.7
1 3 5 344.17 40.7
-1 -3 -5 256.57 38
-1 -3 -5 300.97 33.4
0 -3 -5 464.45 44.6
0 -3 -5 407.16 48.4
-1 3 5 155.38 18.8
1 -3 -5 189.48 19.4
-2 3 5 320.87 37.3
-2 3 5 325.87 34.1
-3 3 5 -1.3 1.6
-3 3 5 0.4 1.5
-3 3 5 -3 2.6
-4 3 5 28.2 9
-4 3 5 41.9 7.1
-4 3 5 43.6 12.6
-5 3 5 2.5 2.2
-5 3 5 1.6 4.7
-6 3 5 2.4 7.2
-6 3 5 14.5 5.3
-7 3 5 38.1 9
-7 3 5 24.6 14.1
8 3 4 -1.6 3.6
-8 -3 -4 -11.6 9.1
7 3 4 5.5 3.1
-7 -3 -4 5.1 8.5
6 3 4 3.3 3.5
-6 -3 -4 4.7 7.4
5 3 4 253.67 28.1
-5 -3 -4 248.38 39.4
4 3 4 5.1 2.8
-4 -3 -4 5.3 5.9
3 3 4 87.99 11.6
3 3 4 91.89 14.8
-3 -3 -4 89.99 25.4
-3 -3 -4 101.99 12.5
2 3 4 4.5 6.1
-2 -3 -4 0.2 1.2
1 3 4 315.67 27.7
1 3 4 280.07 33.2
-1 -3 -4 218.78 31.4
-1 -3 -4 235.88 27.2
0 3 4 -0.6 1
0 3 4 -0.9 2.7
0 -3 -4 1.2 1.4
0 -3 -4 1.9 1.9
-1 3 4 98.49 14.2
-1 3 4 102.89 11.6
1 -3 -4 88.69 11.2
-2 3 4 2345.77 208.88
-2 3 4 2213.88 208.38
-2 3 4 1997 210.38
-3 3 4 5.4 4.1
-3 3 4 5.8 2.3
3 -3 -4 8.4 2.7
-4 3 4 27.3 5.4
-4 3 4 13 8.7
-5 3 4 28.1 6
-5 3 4 15.8 8.1
-6 3 4 158.78 20.1
-6 3 4 190.48 29.5
-7 3 4 52.19 10.4
-7 3 4 36.7 15.6
-8 3 4 10.8 6.4
-8 3 4 11.4 9.4
8 3 3 147.09 19.3
-8 -3 -3 111.09 31.8
7 3 3 638.84 69.79
-7 -3 -3 761.12 89.09
6 3 3 4.1 3.3
-6 -3 -3 3 6.7
5 3 3 666.83 64.69
-5 -3 -3 600.94 76.29
4 3 3 765.52 72.29
4 3 3 696.23 68.39
4 3 3 571.34 77.19
-4 -3 -3 725.93 79.89
3 3 3 1695.63 192.98
3 3 3 2062.89 199.58
-3 -3 -3 2391.16 204.98
-3 -3 -3 2047.6 193.98
2 3 3 418.06 45
2 3 3 433.66 42.1
-2 -3 -3 422.46 48.6
-2 -3 -3 410.06 42.2
1 3 3 4.8 1.8
1 3 3 8.1 4.9
1 3 3 7.9 3.4
-1 -3 -3 12.1 2.9
-1 -3 -3 13 5.2
0 3 3 116.49 14.7
0 3 3 100.39 11.4
0 -3 -3 95.59 13.5
-1 3 3 1390.76 155.18
-1 3 3 1670.53 154.08
1 -3 -3 1785.92 154.08
-2 3 3 471.55 49.8
-2 3 3 516.35 49.3
2 -3 -3 511.55 49.6
-3 3 3 3716.43 343.27
3 -3 -3 3527.25 345.57
4 -3 -3 33.5 7.2
-5 3 3 1882.91 210.18
-5 3 3 2299.07 201.78
-6 3 3 461.85 56.59
6 -3 -3 422.66 44.7
-7 3 3 734.03 82.89
7 -3 -3 647.14 67.89
-8 3 3 235.68 26.6
-8 3 3 170.98 35.6
8 3 2 210.08 24.9
-8 -3 -2 168.48 28
-8 -3 -2 215.98 39.5
7 3 2 31.3 7.3
-7 -3 -2 29.2 15.4
-7 -3 -2 17.3 7.9
6 3 2 82.59 11.9
-6 -3 -2 75.79 16.7
-6 -3 -2 89.69 24.3
5 3 2 86.69 11.7
5 3 2 84.29 17.5
-5 -3 -2 89.19 15.1
4 3 2 641.74 64.99
4 3 2 676.23 74.69
4 3 2 710.83 68.19
-4 -3 -2 607.14 69.39
3 3 2 22.6 4.7
3 3 2 36 7.7
-3 -3 -2 24.7 7
2 3 2 2471.25 257.67
-2 -3 -2 2922.01 262.47
-2 -3 -2 2713.23 255.77
1 3 2 -0.1 0.4
1 3 2 0.7 1.2
-1 -3 -2 6.3 3.6
-1 -3 -2 0.6 0.9
0 3 2 3551.64 326.67
0 -3 -2 3319.77 327.87
-1 3 2 642.64 63.09
1 -3 -2 660.83 62.89
-2 3 2 1551.04 138.79
-2 3 2 1272.07 132.69
-3 3 2 44.1 5.8
-3 3 2 59.39 11.1
3 -3 -2 44.1 6.9
-4 3 2 438.06 39.4
-4 3 2 443.86 47.9
4 -3 -2 361.86 38.8
4 -3 -2 329.67 40.1
-5 3 2 521.15 60.19
-5 3 2 529.85 50.69
5 -3 -2 431.56 49.5
5 -3 -2 560.84 59.49
-6 3 2 363.56 42.5
6 -3 -2 457.05 42.2
-7 3 2 119.09 16
-7 3 2 101.29 25.7
-8 3 2 68.59 11.8
-8 3 2 98.39 27.2
8 3 1 2.4 3.6
-8 -3 -1 9.1 9.2
7 3 1 494.15 46.4
-7 -3 -1 359.96 48.1
6 3 1 164.48 21.5
6 3 1 224.58 30.8
-6 -3 -1 182.48 25.2
5 3 1 502.25 62.49
5 3 1 564.34 55.59
-5 -3 -1 583.34 59.59
4 3 1 314.07 41.2
4 3 1 341.87 35.2
-4 -3 -1 380.66 38.9
3 3 1 6508.75 563.74
3 3 1 5749.32 556.04
-3 -3 -1 5429.96 558.74
2 3 1 30.5 6.2
2 3 1 26.9 4
-2 -3 -1 29.3 6.5
-1 -3 -1 3608.54 342.27
0 3 1 336.17 30.3
0 3 1 330.77 31.2
0 -3 -1 268.87 31
-2 3 1 -0.5 2
-2 3 1 2.9 0.8
2 -3 -1 3.9 1.7
2 -3 -1 -1.4 1.3
-3 3 1 4785.32 430.16
-3 3 1 4227.28 421.86
3 -3 -1 4418.86 428.56
-4 3 1 2295.67 238.48
4 -3 -1 2762.62 247.48
-5 3 1 935.11 90.49
-5 3 1 748.33 77.49
5 -3 -1 807.82 85.99
5 -3 -1 726.33 76.29
-6 3 1 668.93 75.19
-6 3 1 567.94 61.39
6 -3 -1 605.84 59.99
-7 3 1 61.99 19.2
-7 3 1 58.69 11.5
-7 3 1 89.79 24.6
-8 3 1 -11.3 6.2
-8 3 1 2.1 4.2
-8 3 1 3.7 9.6
8 -3 -1 -2.4 3.2
-8 -3 0 552.14 62.59
7 3 0 11.9 9.5
-7 -3 0 14.3 6
6 3 0 220.98 29.3
-6 -3 0 171.78 24.8
5 3 0 171.18 22.9
-5 -3 0 230.98 25.5
4 3 0 451.95 57.09
4 3 0 543.25 55.19
-4 -3 0 639.24 57.09
3 3 0 1024.9 93.39
3 3 0 877.91 95.09
-2 -3 0 44.8 6.8
1 3 0 2478.55 249.28
1 3 0 2777.22 247.88
0 3 0 0.6 0.7
0 3 0 0 0.3
0 3 0 -0.6 1
0 -3 0 0.7 0.7
0 -3 0 -0.1 0.3
-1 3 0 2804.72 251.87
-1 3 0 2630.74 248.88
1 -3 0 2436.06 248.88
-2 3 0 74.89 11.3
-2 3 0 87.29 13.5
2 -3 0 75.09 7.7
2 -3 0 67.39 12
-3 3 0 1024.2 101.89
3 -3 0 976.3 102.59
-4 3 0 595.24 60.99
4 -3 0 645.64 68.79
-5 3 0 266.67 35.4
-5 3 0 224.18 27.1
-5 3 0 278.07 38
5 -3 0 225.78 26
5 -3 0 310.17 36.1
-6 3 0 199.18 33.5
-6 3 0 169.68 29.6
-6 3 0 148.49 21.6
6 -3 0 220.58 21.3
-7 3 0 5.9 9.1
-7 3 0 12.8 7.7
7 -3 0 7.3 5
-8 3 0 591.94 83.39
-8 3 0 523.75 70.89
-8 -3 1 0.1 3.6
7 3 -1 136.99 21.4
-7 -3 1 92.49 16.2
6 3 -1 801.22 80.39
-6 -3 1 687.83 77.09
5 3 -1 659.53 72.89
-5 -3 1 798.92 74.99
4 3 -1 2308.67 230.18
4 3 -1 2462.45 229.28
-4 -3 1 2399.76 229.88
3 3 -1 4809.22 435.96
-3 -3 1 4379.36 436.06
2 3 -1 1.8 1.4
-2 -3 1 2.1 1.7
0 3 -1 303.67 33.6
0 -3 1 361.36 35.9
0 -3 1 377.76 35.8
0 -3 1 338.37 33.7
0 -3 1 350.86 32.9
-1 3 -1 4212.78 409.46
-1 3 -1 4856.61 408.26
1 -3 1 3661.63 407.46
1 -3 1 4441.46 411.46
-2 3 -1 37.2 8.8
-2 3 -1 33.3 9.6
2 -3 1 31.8 8.5
2 -3 1 20.4 7.5
-3 3 -1 7564.74 667.93
-3 3 -1 6585.84 663.93
3 -3 1 6536.25 657.43
3 -3 1 7204.08 665.33
-4 3 -1 385.76 49.8
-4 3 -1 426.36 48.8
4 -3 1 378.06 39.9
-5 3 -1 614.24 79.89
-5 3 -1 581.94 77.09
5 -3 1 812.62 69.39
-6 3 -1 181.98 33.5
-6 3 -1 178.98 31.9
6 -3 1 237.68 24.4
-7 3 -1 453.65 61.09
-7 3 -1 368.06 60.49
7 -3 1 511.25 48.4
-8 3 -1 -9.3 10
-8 3 -1 8.8 11.5
-8 -3 2 77.99 19.1
7 3 -2 138.29 22.2
-7 -3 2 158.38 21.8
6 3 -2 468.45 51.29
-6 -3 2 463.35 50.79
5 3 -2 463.55 55.89
5 3 -2 632.44 58.49
5 3 -2 481.75 58.59
-5 -3 2 537.25 59.89
-5 -3 2 662.03 59.19
4 3 -2 460.35 50.09
4 3 -2 532.15 52.39
-4 -3 2 484.85 52.49
-4 -3 2 547.75 52.59
3 3 -2 60.39 7.8
3 3 -2 41.9 6
-3 -3 2 48.4 7.4
-3 -3 2 40.3 6.4
2 3 -2 1345.77 128.69
-2 -3 2 1365.76 130.49
1 3 -2 525.65 57.79
1 3 -2 671.43 56.49
-1 -3 2 572.24 57.89
-1 -3 2 693.13 56.99
-1 -3 2 495.45 57.59
0 3 -2 2883.21 288.17
0 -3 2 2914.51 288.17
0 -3 2 3257.57 289.37
-1 3 -2 5.2 4
-1 3 -2 -0.3 1.2
1 -3 2 -0.3 0.7
1 -3 2 3.2 2.9
1 -3 2 1.1 2.4
-2 3 -2 2577.94 286.27
-2 3 -2 3209.28 286.37
2 -3 2 2977 286.67
2 -3 2 3040.7 285.97
-3 3 -2 26.4 9.5
-3 3 -2 20.8 9
3 -3 2 30.7 9.4
3 -3 2 19 5.1
3 -3 2 33.1 10.5
-4 3 -2 848.12 95.99
-4 3 -2 899.51 93.19
4 -3 2 814.12 91.39
4 -3 2 817.32 83.39
-5 3 -2 87.99 24.8
-5 3 -2 85.09 22.3
5 -3 2 111.29 14.3
-6 3 -2 74.99 23.1
-6 3 -2 108.09 28.7
6 -3 2 133.39 16.2
-7 3 -2 23.8 12.1
-7 3 -2 30.7 15.9
-8 3 -2 199.18 35.4
-7 -3 3 519.05 57.09
-6 -3 3 421.46 46.5
-6 -3 3 420.16 48.2
5 3 -3 2332.77 204.18
-5 -3 3 2121.19 206.08
-5 -3 3 1938.51 206.28
4 3 -3 3.1 2.2
4 3 -3 2.4 1.9
-4 -3 3 0.3 2.5
-4 -3 3 0.7 2.3
3 3 -3 2985.4 315.37
-3 -3 3 3181.28 315.97
-3 -3 3 3860.21 318.27
2 3 -3 367.26 40.8
2 3 -3 454.45 39.3
-2 -3 3 375.36 39.3
1 3 -3 1728.13 158.68
-1 -3 3 1384.56 157.68
-1 -3 3 1774.22 163.98
-1 -3 3 1814.12 159.98
0 3 -3 107.29 11.9
0 3 -3 138.49 17.4
0 -3 3 129.79 17.2
0 -3 3 100.29 11.7
0 -3 3 108.69 16.3
0 -3 3 111.39 13.1
-1 3 -3 13.1 3
-1 3 -3 9.1 4.8
1 -3 3 8.4 2.5
1 -3 3 13.1 6.2
1 -3 3 8.1 4.9
-2 3 -3 392.26 49.4
-2 3 -3 463.25 49.3
2 -3 3 418.86 41.7
2 -3 3 429.46 49.8
2 -3 3 372.16 47.8
-3 3 -3 2285.47 223.88
-3 3 -3 2241.58 225.88
3 -3 3 2295.57 223.58
3 -3 3 2164.68 214.28
-4 3 -3 669.83 82.39
-4 3 -3 649.24 79.99
4 -3 3 737.23 72.39
4 -3 3 742.83 70.89
-5 3 -3 696.93 78.29
-5 3 -3 525.85 76.49
5 -3 3 707.13 69.49
5 -3 3 609.44 64.49
-6 3 -3 1.6 8.4
6 -3 3 -3.4 2.3
6 -3 3 13.4 5.4
-7 3 -3 725.93 92.19
7 -3 3 752.02 77.49
-8 3 -3 132.39 36.2
8 -3 3 171.78 23.4
-8 -3 4 5.4 6.1
-7 -3 4 32.2 9.9
-6 -3 4 101.69 16.8
-6 -3 4 150.28 19.8
5 3 -4 25.3 5.5
-5 -3 4 25.3 7
-5 -3 4 10.1 4.8
4 3 -4 24.8 4.9
-4 -3 4 23 6.4
3 3 -4 10.7 2.9
3 3 -4 9.4 3.8
-3 -3 4 5.5 3.4
-3 -3 4 5.3 2.8
2 3 -4 2545.35 233.68
-2 -3 4 2346.87 233.68
-2 -3 4 2488.75 240.68
-2 -3 4 2475.15 235.68
1 3 -4 102.29 11.9
-1 -3 4 125.49 13.9
-1 -3 4 104.99 16.9
-1 -3 4 100.79 11.6
0 3 -4 0.1 1.8
0 3 -4 1.3 1.5
0 -3 4 -0.9 2.9
0 -3 4 -1.4 2.8
0 -3 4 0.5 1
0 -3 4 3.1 1.4
-1 3 -4 292.27 35.7
-1 3 -4 255.37 29.3
1 -3 4 287.17 29.4
1 -3 4 339.87 38.4
1 -3 4 292.17 37.3
-2 3 -4 -1 2.7
2 -3 4 5.3 5.1
2 -3 4 0.5 1.4
-3 3 -4 101.69 22.8
3 -3 4 101.89 22.7
3 -3 4 101.29 13.7
3 -3 4 119.89 22.9
-4 3 -4 4.2 5.2
4 -3 4 5.1 4.1
4 -3 4 5.8 3.1
-5 3 -4 217.28 38.1
5 -3 4 228.48 33.2
5 -3 4 298.57 29.8
-6 3 -4 9.5 7.4
6 -3 4 3.2 3.2
-7 3 -4 5.7 7.8
7 -3 4 -1.9 3.1
-8 3 -4 4.8 8.7
8 -3 4 -5.8 4.2
-7 -3 5 34.5 9.7
-7 -3 5 21.3 8
-6 -3 5 12.9 5.1
-6 -3 5 6.8 5.8
-5 -3 5 3.7 3.6
-5 -3 5 -1.3 3.2
4 3 -5 53.09 6.9
-4 -3 5 30.3 7.6
-4 -3 5 44.6 9.4
3 3 -5 -1.4 1.5
-3 -3 5 2.6 2.2
-3 -3 5 -0.2 1.1
2 3 -5 405.46 38.4
-2 -3 5 313.57 39.5
-2 -3 5 457.75 38.8
-2 -3 5 334.67 44.1
1 3 -5 156.78 17.7
-1 -3 5 189.98 25.5
-1 -3 5 142.49 19.1
-1 -3 5 176.28 17.7
0 3 -5 345.47 38.7
0 -3 5 420.16 38.8
0 -3 5 359.06 46.5
0 -3 5 415.66 47.6
-1 3 -5 436.86 45.6
-1 3 -5 339.77 36
1 -3 5 296.37 43.3
1 -3 5 311.67 43.9
1 -3 5 372.66 36
-2 3 -5 311.37 31.9
-2 3 -5 295.87 39.7
2 -3 5 296.97 41.7
2 -3 5 285.77 40.6
-3 3 -5 783.82 85.29
3 -3 5 708.93 73.49
-4 3 -5 781.92 88.89
4 -3 5 727.13 75.19
-5 3 -5 3667.33 376.96
5 -3 5 3869.41 361.36
6 -3 5 5.4 4.8
-7 3 -5 985.2 116.09
7 -3 5 932.21 97.69
-7 -3 6 20.2 6.7
-7 -3 6 12 6.9
-6 -3 6 57.59 11.3
-6 -3 6 74.19 22.1
-5 -3 6 18.2 6.2
-5 -3 6 21.2 6.9
-4 -3 6 533.85 54.59
-4 -3 6 492.85 53.69
3 3 -6 267.17 27.6
-3 -3 6 204.88 27.2
-3 -3 6 318.37 31
2 3 -6 7.1 2.5
-2 -3 6 10.3 4.3
-2 -3 6 8.8 4.2
1 3 -6 915.11 91.39
-1 -3 6 958.9 91.09
0 3 -6 900.31 90.79
0 -3 6 876.91 92.19
0 -3 6 986.7 106.39
0 -3 6 964.7 93.19
-1 3 -6 -0.9 4.4
-1 3 -6 3.2 2.3
1 -3 6 4.9 5.5
1 -3 6 -2.5 1.5
-2 3 -6 1144.79 111.19
2 -3 6 914.41 98.39
-3 3 -6 28.2 12.2
3 -3 6 39.1 7.9
-4 3 -6 488.15 68.89
4 -3 6 613.34 58.59
-5 3 -6 154.98 35.7
5 -3 6 148.19 19.5
-6 3 -6 45.4 20.5
6 -3 6 35.9 9.5
-7 3 -6 23.6 13.7
7 -3 6 42.7 10.3
-6 -3 7 169.88 20.8
-6 -3 7 111.59 17.1
-5 -3 7 173.48 24
-5 -3 7 233.18 29.8
-4 -3 7 1306.17 120.09
-4 -3 7 1309.87 122.49
-4 -3 7 1071.59 121.09
-3 -3 7 972.1 90.99
-3 -3 7 866.31 92.79
-2 -3 7 455.55 49.2
-1 -3 7 2833.62 314.47
-1 -3 7 3729.63 312.57
0 -3 7 73.59 12.1
0 -3 7 59.19 17.3
1 -3 7 1508.55 145.99
-2 3 -7 87.59 21.7
2 -3 7 54.39 10.4
-3 3 -7 588.34 70.39
3 -3 7 535.45 57.29
-4 3 -7 0.1 5.4
4 -3 7 1.7 2
-5 3 -7 574.44 84.89
5 -3 7 794.32 73.29
-6 3 -7 20 16.6
6 -3 7 12.3 5.3
-5 -3 8 52.79 11.8
-5 -3 8 49.99 11.6
-4 -3 8 185.68 23.6
-4 -3 8 209.28 27.1
-4 -3 8 201.58 25.7
-3 -3 8 45.7 8.7
-2 -3 8 3.3 2.8
-1 -3 8 258.97 30.9
-1 -3 8 252.07 28
0 -3 8 273.47 28.7
0 -3 8 243.48 31.4
-1 3 -8 218.08 31.7
1 -3 8 148.39 19.7
-2 3 -8 15.9 10.5
2 -3 8 6.3 3.6
-3 3 -8 32.6 14.3
3 -3 8 17.8 6
-4 3 -8 19.8 13.6
4 -3 8 30.5 7.7
-5 3 -8 4.5 11.3
5 -3 8 6.7 4.7
-4 -3 9 76.59 13.3
-4 -3 9 86.49 14
-4 -3 9 52.79 13.8
-3 -3 9 49.5 10.1
-3 -3 9 56.99 12.7
-2 -3 9 39 10.6
-2 -3 9 57.79 10.1
-1 -3 9 84.99 13
-1 -3 9 116.69 16.9
0 -3 9 43 10.9
0 -3 9 44.9 9
1 -3 9 259.57 35.1
1 -3 9 311.87 32.5
-2 3 -9 18.3 12.5
2 -3 9 18.4 5.6
-3 3 -9 2.6 6.3
3 -3 9 -0.7 3.7
-4 3 -9 -2 7.4
4 -3 9 -5.7 2.7
-2 -3 10 -0.3 3.3
-2 -3 10 0.2 4.9
-1 -3 10 49 11.8
-1 -3 10 23.3 6.8
0 -3 10 8.8 5.4
0 -3 10 -2 3.2
1 -3 10 9.1 4.7
1 -3 10 15 7.1
-2 3 -10 404.26 59.49
2 -3 10 449.06 47.2
1 4 10 169.38 23.6
-1 -4 -10 252.27 36.9
0 4 10 8.3 3.5
-1 4 10 404.26 44.4
4 4 9 679.83 72.49
-4 -4 -9 744.73 90.09
3 4 9 275.67 30.8
-3 -4 -9 239.18 41.4
-2 -4 -9 1247.08 136.29
1 4 9 63.49 12.1
-1 -4 -9 70.29 21.2
0 4 9 1083.39 91.99
0 -4 -9 723.53 97.49
-1 4 9 19.2 5.8
-2 4 9 271.17 31.5
-3 4 9 -8.7 2.9
-3 4 9 -1.8 4.4
-4 4 9 914.21 93.59
-4 4 9 839.52 101.79
-4 4 9 967.8 93.19
5 4 8 692.93 77.69
-5 -4 -8 914.31 100.79
4 4 8 43.9 9.3
-4 -4 -8 44.4 18.8
3 4 8 126.09 16.9
-3 -4 -8 127.99 29.5
2 4 8 37 12.7
-2 -4 -8 39.5 15
1 4 8 535.15 52.99
-1 -4 -8 471.55 60.99
0 4 8 46.2 9.4
0 -4 -8 72.99 18.1
-1 4 8 367.76 39.7
-2 4 8 37.3 7.9
-2 4 8 19.9 7
-3 4 8 493.85 57.99
-3 4 8 615.74 59.29
-4 4 8 13.2 7.9
-4 4 8 18.9 7.2
-4 4 8 28.1 7.8
-5 4 8 37.4 9.1
6 4 7 186.38 22.5
-6 -4 -7 144.29 37.5
5 4 7 1.2 2.6
-5 -4 -7 -6.1 8.6
-4 -4 -7 2.8 5.4
3 4 7 22.9 6.3
-3 -4 -7 33.4 14.8
2 4 7 10.4 3.5
-2 -4 -7 6.7 7.3
1 4 7 1181.68 120.39
-1 -4 -7 1303.37 130.39
0 4 7 318.37 41
0 4 7 256.27 31.7
0 -4 -7 347.97 39.7
-1 4 7 36.1 13.1
-1 4 7 45.4 8.7
-2 4 7 1055.09 114.19
-2 4 7 1139.59 108.59
-3 4 7 357.26 47.1
-3 4 7 395.66 43.4
-3 4 7 449.56 43.8
-4 4 7 59.59 13.5
-4 4 7 90.59 21.7
-4 4 7 80.59 17.3
-4 4 7 102.79 13.2
-5 4 7 88.09 23.6
-5 4 7 85.49 13
-6 4 7 70.19 11.2
-6 4 7 45.5 17.3
7 4 6 10.3 3.9
-7 -4 -6 7 12.4
6 4 6 33.4 8.5
-6 -4 -6 40 15.5
5 4 6 5.3 3.3
4 4 6 207.58 22.3
-4 -4 -6 152.38 30.2
3 4 6 85.89 12.2
-3 -4 -6 111.09 25.2
2 4 6 291.37 31.3
1 4 6 8 5.2
1 4 6 2.9 2.7
-1 -4 -6 5.9 5
0 4 6 86.09 12.3
0 4 6 100.99 21.2
0 -4 -6 120.09 17.8
-1 4 6 68.79 15.5
-1 4 6 72.09 10.1
-2 4 6 531.55 57.29
-2 4 6 605.24 62.59
-3 4 6 12.1 4.5
-3 4 6 13.2 6.5
-3 4 6 9.9 4
-4 4 6 395.86 60.19
-4 4 6 507.65 58.69
-4 4 6 548.45 49.99
-4 4 6 421.36 50.29
-5 4 6 277.47 38.5
-5 4 6 230.08 31.6
-5 4 6 256.37 28.2
-6 4 6 4.5 4.7
-6 4 6 0 7.7
-7 4 6 182.08 22.2
7 4 5 29.3 7.5
-7 -4 -5 21.8 14
6 4 5 135.69 19.6
-6 -4 -5 156.08 36.5
5 4 5 362.76 40.5
-5 -4 -5 427.06 56.09
4 4 5 327.97 38.4
-4 -4 -5 467.25 53.79
3 4 5 1603.84 146.29
-3 -4 -5 1394.16 156.48
2 4 5 1333.07 123.39
-2 -4 -5 1198.28 131.89
1 4 5 174.98 19.8
1 4 5 174.88 23.3
1 4 5 207.88 27.4
-1 -4 -5 170.68 20.2
0 4 5 2505.25 243.48
0 4 5 2522.35 249.68
0 -4 -5 2644.24 248.68
-1 4 5 547.65 56.59
-1 4 5 492.35 51.89
1 -4 -5 518.05 52.09
-2 4 5 1545.95 172.78
-2 4 5 2012.5 171.18
-3 4 5 30.3 6.9
-3 4 5 24.7 7.6
-4 4 5 1201.78 113.39
-4 4 5 930.01 116.39
-4 4 5 1218.88 109.59
-5 4 5 2.4 2.5
-5 4 5 7.4 5.8
-6 4 5 1201.98 117.59
-6 4 5 1198.38 130.09
-7 4 5 23 13.2
-7 4 5 77.49 11.1
7 4 4 306.17 34.8
-7 -4 -4 313.27 51.09
6 4 4 4 3.4
-6 -4 -4 -7.6 7.4
5 4 4 811.72 79.19
-5 -4 -4 762.92 92.89
4 4 4 16.2 4.9
-4 -4 -4 13.2 8
3 4 4 836.12 85.59
-3 -4 -4 934.61 86.59
-3 -4 -4 854.61 95.69
2 4 4 550.84 67.09
2 4 4 648.14 63.99
-2 -4 -4 787.02 73.89
1 4 4 739.73 83.89
1 4 4 872.51 87.49
-1 -4 -4 881.81 81.29
0 4 4 4.9 2.1
0 4 4 5.8 3.8
0 -4 -4 3.6 2
0 -4 -4 10.4 4.7
-1 4 4 3448.85 336.27
-1 4 4 3365.96 338.97
1 -4 -4 3825.02 336.47
-2 4 4 295.67 32.1
-2 4 4 287.17 32.8
2 -4 -4 320.27 31.4
-3 4 4 548.15 57.29
-3 4 4 553.74 55.09
3 -4 -4 570.84 55.99
-4 4 4 156.08 25.3
-4 4 4 174.78 18.7
-5 4 4 262.17 29.8
-5 4 4 333.47 41
-6 4 4 3 8.7
-6 4 4 6.4 3.2
-7 4 4 0.9 4.9
-7 4 4 -9.8 6.9
-8 4 4 186.68 36.2
8 4 3 367.86 40
-8 -4 -3 316.67 54.09
7 4 3 -2 2.1
-7 -4 -3 -1.4 8.7
6 4 3 5 2
-6 -4 -3 3.7 8.3
-6 -4 -3 3.6 4.5
5 4 3 23.8 5.8
-5 -4 -3 17.1 10.9
4 4 3 490.55 47
-4 -4 -3 404.46 50.59
-4 -4 -3 494.45 58.19
3 4 3 198.28 20.3
3 4 3 155.68 22.2
-3 -4 -3 204.88 28.5
-3 -4 -3 185.88 20.6
2 4 3 174.08 24.2
2 4 3 225.38 22.3
-2 -4 -3 252.37 22.9
-2 -4 -3 180.48 27
1 4 3 211.88 28.3
1 4 3 281.77 26.4
-1 -4 -3 283.77 31.3
-1 -4 -3 253.07 26.4
0 4 3 1647.44 156.78
0 4 3 1384.06 155.38
0 4 3 1627.04 153.48
0 -4 -3 1727.43 156.48
0 -4 -3 1666.63 153.68
-1 4 3 2134.79 196.38
-1 4 3 1835.52 196.98
1 -4 -3 2222.18 196.28
-2 4 3 -0.2 0.8
-2 4 3 0.7 1.4
2 -4 -3 -0.6 1
-3 4 3 1563.54 146.49
-3 4 3 1597.44 154.78
3 -4 -3 1449.95 147.69
-4 4 3 110.79 12.6
-5 4 3 235.48 25.7
-5 4 3 264.17 36
-6 4 3 119.89 25.4
-6 4 3 137.99 16.3
-7 4 3 16.1 11.3
-7 4 3 22.2 5.5
-8 4 3 224.38 45.6
8 4 2 101.19 14
-8 -4 -2 93.79 27.4
-8 -4 -2 68.19 18.3
7 4 2 469.85 47.3
-7 -4 -2 373.36 51.09
-7 -4 -2 511.35 67.39
6 4 2 15.3 4.7
-6 -4 -2 5.3 4.7
5 4 2 484.75 46.4
5 4 2 489.75 57.69
-5 -4 -2 379.36 49.7
4 4 2 209.68 27.3
4 4 2 342.97 38.4
4 4 2 297.47 31.2
-4 -4 -2 257.37 31.7
3 4 2 67.09 9.5
3 4 2 46.7 6.5
-3 -4 -2 30.6 8.8
2 4 2 7.3 3.4
2 4 2 8.4 2.4
-2 -4 -2 8.9 3.7
-2 -4 -2 5.8 2.2
1 4 2 1077.69 105.89
1 4 2 1200.68 103.69
-1 -4 -2 1035.1 105.99
-1 -4 -2 1138.79 107.89
-1 -4 -2 972.7 103.49
0 4 2 0.1 0.7
0 4 2 -0.3 0.9
0 -4 -2 0.9 1.7
0 -4 -2 0.4 0.6
-1 4 2 817.22 77.59
-1 4 2 762.72 76.69
1 -4 -2 838.32 77.39
-2 4 2 791.82 82.09
2 -4 -2 951.5 83.79
-3 4 2 3299.97 332.97
3 -4 -2 3781.02 335.37
-4 4 2 1242.08 133.99
-4 4 2 1348.57 124.59
-5 4 2 259.67 39
-5 4 2 294.17 30.5
5 -4 -2 310.27 30
-6 4 2 1908.91 198.38
-6 4 2 2155.18 213.58
6 -4 -2 2166.58 197.78
-7 4 2 210.18 35.4
-7 4 2 172.88 22.8
7 -4 -2 211.98 22
-8 4 2 20.7 6.8
-8 4 2 22.8 12.9
8 -4 -2 18.5 6
8 4 1 20 7
-8 -4 -1 0.4 5.2
7 4 1 -2 3.6
-7 -4 -1 1.5 3.8
6 4 1 139.59 16.9
6 4 1 128.19 22.4
-6 -4 -1 132.29 20.6
5 4 1 431.36 49.7
5 4 1 371.26 40.9
-5 -4 -1 404.16 45.3
4 4 1 278.37 31.2
4 4 1 327.07 34.2
-4 -4 -1 326.07 38.6
3 4 1 81.39 8.8
3 4 1 76.59 10.7
-3 -4 -1 50.29 11.2
2 4 1 249.08 25.9
2 4 1 252.97 23.7
-2 -4 -1 194.58 25.6
-2 -4 -1 239.88 23.9
-1 -4 -1 1892.51 181.28
0 4 1 16.3 2.4
0 4 1 18 3.6
0 -4 -1 16.1 3.6
0 -4 -1 14.5 2.6
-1 4 1 245.78 24.9
-1 4 1 277.67 29
-1 4 1 268.07 24.3
1 -4 -1 199.88 24.4
-2 4 1 1545.75 158.08
2 -4 -1 1759.72 162.48
-3 4 1 6.8 5.2
-3 4 1 4.9 1.4
-3 4 1 3.9 3.1
3 -4 -1 3.2 1.9
3 -4 -1 6 4.5
-4 4 1 192.78 27.5
-4 4 1 165.18 17.9
4 -4 -1 161.98 17.2
4 -4 -1 186.08 25.8
-5 4 1 89.89 11.1
-5 4 1 97.59 17.6
-5 4 1 107.19 20.1
5 -4 -1 76.89 9.8
-6 4 1 950.5 87.29
6 -4 -1 820.92 85.19
-7 4 1 51.19 10.7
-7 4 1 99.79 26.4
-7 4 1 48.6 17
7 -4 -1 70.29 9.1
-8 4 1 784.42 95.59
8 -4 -1 714.73 74.29
8 4 0 21.6 7.6
-8 -4 0 11.2 9.9
7 4 0 340.37 43
-7 -4 0 306.07 39.2
6 4 0 79.29 15.3
-6 -4 0 44.8 12.5
5 4 0 715.93 87.49
-5 -4 0 1009.9 88.29
4 4 0 0.9 2.5
4 4 0 1.9 3.5
-4 -4 0 2 3.6
3 4 0 4082.79 385.76
-3 -4 0 3986.4 384.26
2 4 0 501.85 45.8
2 4 0 443.46 47.7
1 4 0 251.17 24.5
-1 -4 0 242.38 26.5
-1 -4 0 269.47 24.7
0 4 0 1371.56 126.29
0 4 0 1234.78 125.49
0 4 0 1502.65 129.19
0 -4 0 1229.08 126.39
0 -4 0 1312.57 125.39
-1 4 0 324.57 34.9
-1 4 0 276.67 29.7
-1 4 0 353.66 31.7
1 -4 0 290.27 29.9
1 -4 0 333.47 34.6
-2 4 0 527.65 52.29
-2 4 0 538.15 55.79
2 -4 0 448.96 53.89
-3 4 0 5049.79 463.75
-3 4 0 4820.92 466.85
3 -4 0 4306.87 464.35
3 -4 0 5179.08 456.55
-4 4 0 2.1 5
-4 4 0 10.1 6.4
4 -4 0 4.5 4.9
4 -4 0 2.1 1.4
-5 4 0 1250.07 142.59
-5 4 0 1335.57 140.09
5 -4 0 1431.36 129.49
-6 4 0 94.69 24.1
-6 4 0 87.29 25.1
6 -4 0 121.59 13.5
-7 4 0 321.07 52.49
-7 4 0 337.97 49.7
7 -4 0 387.16 37.6
-8 4 0 24.5 15
-8 4 0 9.7 10.6
8 -4 0 24 5.6
8 4 -1 685.63 75.89
-8 -4 1 537.85 66.69
7 4 -1 69.59 16.9
-7 -4 1 34 10.3
6 4 -1 1043.1 108.39
-6 -4 1 1074.89 107.79
5 4 -1 92.09 14.4
-5 -4 1 100.09 14.8
4 4 -1 192.88 21
4 4 -1 161.18 20
-4 -4 1 144.19 20.2
3 4 -1 3 2.2
3 4 -1 -0.1 1.2
-3 -4 1 5.7 2.9
2 4 -1 1208.88 121.09
-2 -4 1 1346.17 123.29
1 4 -1 269.07 26.9
1 4 -1 251.27 26.8
-1 -4 1 266.07 27.1
0 4 -1 16.5 3.2
0 -4 1 17.3 4.7
0 -4 1 18.6 5.1
0 -4 1 19 3.1
-1 4 -1 1895.11 184.28
-1 4 -1 1727.33 181.28
1 -4 1 1859.11 182.28
1 -4 1 2058.39 184.08
1 -4 1 1892.41 178.58
-2 4 -1 194.68 25.8
2 -4 1 222.98 26.4
2 -4 1 236.28 28.3
-3 4 -1 64.79 14.6
-3 4 -1 80.29 16
3 -4 1 67.69 8.6
3 -4 1 69.79 13.8
-4 4 -1 346.37 46.6
4 -4 1 404.06 39.1
4 -4 1 387.76 47.3
-5 4 -1 369.76 52.19
-5 4 -1 406.06 50.19
-6 4 -1 145.79 29.6
-6 4 -1 175.18 28.7
6 -4 1 146.69 17.9
-7 4 -1 6.1 8.3
-7 4 -1 2.1 8.7
7 -4 1 8 4
-8 4 -1 18.7 15.6
-8 4 -1 6.3 11
8 -4 1 0.6 4
-8 -4 2 10.1 7
-7 -4 2 195.98 26.4
6 4 -2 2520.55 220.98
-6 -4 2 2011.4 221.08
5 4 -2 250.47 30.8
-5 -4 2 358.26 35
4 4 -2 1718.53 161.48
4 4 -2 1611.34 159.18
3 4 -2 3702.03 312.17
3 4 -2 3053.79 309.27
-3 -4 2 3068.79 311.67
2 4 -2 970.7 92.49
2 4 -2 902.61 89.99
-2 -4 2 977.2 92.59
1 4 -2 771.52 77.49
-1 -4 2 865.61 77.59
0 4 -2 -0.6 0.7
0 4 -2 2.3 2.5
0 -4 2 -0.7 1.4
0 -4 2 -0.4 0.5
0 -4 2 0.1 0.6
0 -4 2 -1 1.7
-1 4 -2 1212.98 118.19
-1 4 -2 1262.37 116.49
1 -4 2 1146.39 111.39
1 -4 2 1090.79 111.79
1 -4 2 1174.78 117.19
1 -4 2 1139.79 116.79
-2 4 -2 8 4.6
-2 4 -2 6.7 5.6
2 -4 2 12.3 5.6
2 -4 2 7.7 4.5
-3 4 -2 65.59 17.2
-3 4 -2 42.4 12.4
3 -4 2 42.8 12
3 -4 2 31.8 11.2
-4 4 -2 271.67 41.3
-4 4 -2 270.67 38.7
4 -4 2 282.37 31.2
4 -4 2 334.77 40.6
-5 4 -2 488.55 60.99
-5 4 -2 472.25 56.99
5 -4 2 395.46 45.3
-6 4 -2 28.7 14.3
-6 4 -2 30.3 15
6 -4 2 39.7 8.7
-7 4 -2 491.05 71.09
-7 4 -2 575.24 70.49
7 -4 2 508.45 54.29
-8 4 -2 83.99 26.1
-8 4 -2 118.99 34
-8 -4 3 262.37 34.4
-7 -4 3 13 6.1
-6 -4 3 161.98 21.7
5 4 -3 274.57 31.6
-5 -4 3 289.77 32.8
4 4 -3 119.09 15.1
4 4 -3 93.29 12.6
-4 -4 3 135.49 15.9
3 4 -3 1641.64 160.38
3 4 -3 1541.95 162.68
-3 -4 3 1886.31 163.58
2 4 -3 -0.3 1.1
-2 -4 3 -0.1 0.9
-2 -4 3 1.2 1.9
-2 -4 3 1.3 0.9
1 4 -3 1812.82 159.48
-1 -4 3 1681.73 161.38
-1 -4 3 1688.03 165.68
-1 -4 3 1678.23 159.28
-1 -4 3 1544.05 162.38
0 4 -3 1894.21 184.08
0 -4 3 1859.01 184.48
-1 4 -3 276.97 33
-1 4 -3 274.47 34.2
1 -4 3 263.57 27.5
1 -4 3 269.07 33.9
1 -4 3 279.17 34
-2 4 -3 175.28 28.7
-2 4 -3 207.98 28.1
2 -4 3 234.08 30.3
2 -4 3 220.68 29.5
2 -4 3 213.88 22.5
-3 4 -3 143.69 26
-3 4 -3 221.78 31.6
3 -4 3 203.98 29.3
3 -4 3 186.18 27.6
3 -4 3 196.58 21.3
-4 4 -3 543.45 67.99
-4 4 -3 554.14 65.49
4 -4 3 565.24 64.59
4 -4 3 492.55 55.89
4 -4 3 564.34 55.39
-5 4 -3 30.2 14.8
-5 4 -3 17.1 11.8
5 -4 3 22.1 6
5 -4 3 15.7 6.1
-6 4 -3 -0.5 7.4
-6 4 -3 -7.2 6.8
6 -4 3 8.6 4.5
6 -4 3 1.9 2.4
-7 4 -3 -3.8 6.1
7 -4 3 -0.2 3.7
-8 4 -3 386.86 58.89
8 -4 3 371.16 44.3
-6 -4 4 0.2 3.7
5 4 -4 426.96 45.2
-5 -4 4 472.25 48.9
4 4 -4 218.38 20
-4 -4 4 188.98 22.3
-4 -4 4 161.48 18.5
3 4 -4 432.56 46.4
-3 -4 4 451.55 46.4
2 4 -4 280.27 32.7
2 4 -4 295.87 30.4
-2 -4 4 288.57 32.7
-2 -4 4 313.07 30.7
-2 -4 4 328.17 33.6
-2 -4 4 333.67 38
1 4 -4 3457.55 342.17
-1 -4 4 3728.43 347.87
-1 -4 4 3809.52 344.57
-1 -4 4 3613.94 341.97
-1 -4 4 3487.35 349.57
0 4 -4 1.2 1.9
0 4 -4 4.7 1.9
0 -4 4 3.6 2.3
0 -4 4 2.4 3.5
0 -4 4 1.2 3.2
0 -4 4 3.8 1.5
-1 4 -4 947.21 91.59
-1 4 -4 818.62 83.29
1 -4 4 917.51 83.59
1 -4 4 701.33 90.39
1 -4 4 916.61 92.89
-2 4 -4 619.94 67.19
2 -4 4 627.54 58.89
2 -4 4 510.15 66.49
-3 4 -4 1083.09 105.39
3 -4 4 884.01 104.29
3 -4 4 966.5 93.89
3 -4 4 903.01 103.59
-4 4 -4 13.6 8.3
4 -4 4 14.8 4.7
4 -4 4 6.7 4.8
5 -4 4 701.43 79.89
5 -4 4 867.81 79.59
-6 4 -4 -6 8.3
6 -4 4 -5.7 2.6
-7 4 -4 311.07 50.79
7 -4 4 353.56 39.7
-7 -4 5 54.49 13.2
-6 -4 5 1256.97 126.39
-5 -4 5 0 3.2
4 4 -5 1260.97 104.99
-4 -4 5 897.11 106.69
-3 -4 5 24.8 6.4
-3 -4 5 28.2 5.6
2 4 -5 2031.8 202.18
-2 -4 5 2225.88 205.18
1 4 -5 583.74 58.69
-1 -4 5 666.63 68.29
-1 -4 5 619.54 58.39
-1 -4 5 586.84 60.89
-1 -4 5 549.25 64.69
0 4 -5 2674.93 261.47
0 -4 5 2834.32 261.17
0 -4 5 2896.81 263.87
0 -4 5 2586.64 269.87
-1 4 -5 193.68 21.4
-1 4 -5 235.48 30
1 -4 5 197.98 30
1 -4 5 211.08 21.4
1 -4 5 142.49 26.8
-2 4 -5 1098.69 121.49
2 -4 5 1217.18 125.49
-3 4 -5 1601.74 155.08
3 -4 5 1370.76 142.29
-4 4 -5 507.25 57.69
4 -4 5 355.06 42.1
-5 4 -5 367.36 52.49
5 -4 5 343.27 38.8
-6 4 -5 96.39 34.4
6 -4 5 162.48 20.3
-7 4 -5 16.8 15.4
7 -4 5 16.1 6.4
-7 -4 6 178.78 25.3
-6 -4 6 9 6.1
-5 -4 6 244.08 29.7
4 4 -6 529.55 58.09
-4 -4 6 669.53 61.59
-4 -4 6 542.15 58.09
3 4 -6 13.5 4
-3 -4 6 17.2 5.3
-3 -4 6 10.8 5.2
2 4 -6 766.32 81.29
-2 -4 6 888.81 80.29
-2 -4 6 796.72 82.69
1 4 -6 82.39 11.7
-1 -4 6 84.09 12.3
-1 -4 6 72.19 9.8
-1 -4 6 82.59 16
0 4 -6 81.39 12.1
0 -4 6 104.29 14.3
0 -4 6 115.59 20.2
0 -4 6 102.79 12
-1 4 -6 6.6 5.9
-1 4 -6 11.4 3.7
1 -4 6 8.2 3.5
1 -4 6 5.8 8.5
-2 4 -6 496.35 61.69
2 -4 6 519.05 52.19
-3 4 -6 113.09 25.9
3 -4 6 101.69 14.1
-4 4 -6 195.78 37.6
4 -4 6 275.67 28.7
-5 4 -6 6.4 9.3
5 -4 6 5.3 2.6
-6 4 -6 21.8 14.4
6 -4 6 33.7 9.3
7 -4 6 9.1 3.1
-6 -4 7 33 11.1
-4 -4 7 75.49 12.4
-4 -4 7 97.19 14.6
-3 -4 7 390.46 41.5
-3 -4 7 406.66 44.3
-2 -4 7 922.71 92.59
-2 -4 7 902.11 89.39
-1 -4 7 68.69 11.2
-1 -4 7 54.19 7.9
-1 -4 7 37.6 12.8
0 -4 7 216.28 37
0 -4 7 286.57 28.9
0 -4 7 295.37 32.3
-1 4 -7 2062.49 189.48
1 -4 7 1649.13 175.18
-2 4 -7 23.4 10.4
2 -4 7 10.3 4.3
-3 4 -7 41.7 14.2
3 -4 7 33.4 7.6
-4 4 -7 18.7 12.6
4 -4 7 27.6 7.3
-5 4 -7 3.9 6.4
5 -4 7 4.4 3.3
-6 4 -7 188.38 43.3
6 -4 7 210.48 26.4
-5 -4 8 32.8 8.6
-5 -4 8 26 8.9
-4 -4 8 13.1 6.1
-4 -4 8 19.7 5.8
-4 -4 8 8.7 5.2
-3 -4 8 416.96 49.7
-3 -4 8 571.74 54.59
-2 -4 8 34.7 7.2
-2 -4 8 17.7 10.3
-2 -4 8 35.4 9.5
-1 -4 8 301.17 37.9
-1 -4 8 360.56 35.4
0 -4 8 51.49 9.2
0 -4 8 57.19 12.8
-1 4 -8 530.75 58.29
1 -4 8 396.36 43.2
1 -4 8 372.26 46.2
-2 4 -8 56.69 27.9
2 -4 8 48.7 9.6
-3 4 -8 164.38 30.7
3 -4 8 194.28 22.6
-4 4 -8 43.4 18.1
4 -4 8 39 9.6
-5 4 -8 823.72 109.49
5 -4 8 1029.5 96.39
-4 -4 9 867.31 84.19
-4 -4 9 709.63 80.19
-3 -4 9 -10.8 11.7
-3 -4 9 -1.2 3.4
-3 -4 9 -4.2 3.4
-2 -4 9 374.06 40.6
-2 -4 9 389.06 44.3
-1 -4 9 13.9 7.4
-1 -4 9 22.9 6.1
0 -4 9 1107.39 109.79
0 -4 9 1025.6 104.79
-1 4 -9 56.39 18.2
1 -4 9 60.89 10.9
1 -4 9 48.9 12.1
-2 4 -9 1021.8 112.39
2 -4 9 929.51 96.59
-3 4 -9 264.97 45.2
3 -4 9 310.57 34.2
-4 4 -9 743.73 96.19
4 -4 9 834.32 82.49
-1 -4 10 395.16 43.1
-1 -4 10 401.16 46.9
0 -4 10 3.1 3.5
0 -4 10 -1.8 3.7
1 -4 10 206.68 27.6
1 -4 10 179.38 23.3
0 5 10 269.47 31.7
3 5 9 107.69 15.3
-3 -5 -9 99.89 27.5
2 5 9 46.8 9.9
-2 -5 -9 43.1 16.6
1 5 9 -0.7 3.3
-1 -5 -9 0.9 8.4
0 5 9 56.99 11.2
-1 5 9 31.3 7.9
-2 5 9 4.7 3.1
-3 5 9 24.3 8.2
5 5 8 60.09 11.3
-5 -5 -8 26.8 16.1
4 5 8 75.49 13.4
-4 -5 -8 68.79 21.7
3 5 8 0.6 3
2 5 8 4.8 2.8
1 5 8 31.7 7.5
-1 -5 -8 30.6 12.5
0 5 8 253.77 31.2
0 -5 -8 332.57 39.7
-1 5 8 -2.8 1.9
-2 5 8 36.4 13.8
-2 5 8 42.5 9.3
-3 5 8 97.39 14.4
-3 5 8 74.39 19.7
-3 5 8 115.39 15.6
-4 5 8 32.6 8.7
-4 5 8 34.1 15.1
-4 5 8 38.5 9.9
-5 5 8 77.89 12.9
-5 5 8 95.49 23.7
6 5 7 128.49 17.2
-6 -5 -7 101.49 30.3
5 5 7 156.08 19.4
-5 -5 -7 136.19 34.2
4 5 7 32.9 7.7
-4 -5 -7 5.8 9.8
3 5 7 826.52 77.49
-3 -5 -7 684.93 88.39
2 5 7 29 6.4
-2 -5 -7 11.7 8.4
1 5 7 450.75 46.9
-1 -5 -7 453.45 54.79
0 5 7 74.19 10.1
0 5 7 49.1 16.2
0 -5 -7 59.19 15
-1 5 7 40.9 8.5
-2 5 7 147.09 23.2
-2 5 7 153.18 19.1
-3 5 7 27.2 7
-3 5 7 18.4 9.6
-3 5 7 18.8 4.9
-4 5 7 59.89 13
-4 5 7 88.99 12.4
-4 5 7 92.39 22.4
-4 5 7 68.89 16.8
-5 5 7 313.27 41.1
-5 5 7 373.66 37.9
-5 5 7 343.07 47.4
-6 5 7 198.18 23.9
6 5 6 801.72 81.09
-6 -5 -6 792.82 99.29
5 5 6 986.5 99.09
-5 -5 -6 996.2 115.79
-4 -5 -6 1252.47 137.49
3 5 6 6314.57 577.04
-3 -5 -6 5836.02 589.74
2 5 6 43.5 8.1
-2 -5 -6 36.7 13.2
1 5 6 3574.24 313.47
1 5 6 3161.28 302.47
-1 -5 -6 2817.82 309.47
0 5 6 1033.9 118.09
0 5 6 1168.28 112.19
0 -5 -6 1248.78 118.09
-1 5 6 217.78 22.6
-1 5 6 172.78 25.9
-2 5 6 709.83 76.39
-2 5 6 825.02 80.99
-3 5 6 -2.7 4
-3 5 6 0.4 2.4
-3 5 6 -2.3 1.4
-4 5 6 72.49 13.7
-4 5 6 67.29 12.2
-4 5 6 45 14.2
-5 5 6 0.5 6.3
-5 5 6 -1.3 6.1
-5 5 6 0.2 2.9
-6 5 6 13.7 7.8
-6 5 6 -2.9 3.6
7 5 5 61.59 11.9
-7 -5 -5 36.9 19.7
-6 -5 -5 30.2 10.7
5 5 5 48.8 9.4
-5 -5 -5 45 17
4 5 5 1.9 2.7
-4 -5 -5 7 5.8
3 5 5 765.22 85.09
-3 -5 -5 1048.8 99.79
2 5 5 32.6 6.6
-2 -5 -5 33.6 11.1
1 5 5 2206.48 198.38
1 5 5 2074.39 205.98
1 5 5 1773.12 201.88
-1 -5 -5 2160.18 205.88
-1 -5 -5 2137.99 198.78
0 5 5 27.3 5.7
0 5 5 29.6 9.6
0 -5 -5 27 5.7
0 -5 -5 47.9 10.7
-1 5 5 37.4 9.9
-1 5 5 36.8 7.1
-2 5 5 40.3 9.3
-3 5 5 2.4 2.5
-3 5 5 13.4 5.4
-3 5 5 2.2 2.4
-4 5 5 340.67 40.9
-4 5 5 381.16 38.6
-4 5 5 418.16 49
-5 5 5 89.69 11.9
-5 5 5 96.29 23.2
-6 5 5 74.89 10.6
-6 5 5 58.19 18.6
-7 5 5 6.4 12.2
7 5 4 48.3 9.8
-7 -5 -4 28.4 15.7
6 5 4 65.99 10.4
-6 -5 -4 98.99 26.9
-5 -5 -4 38.4 15.7
4 5 4 289.77 31
-4 -5 -4 288.97 41.6
3 5 4 231.78 27
-3 -5 -4 278.57 36.8
-3 -5 -4 268.97 28
2 5 4 47.4 6.3
2 5 4 38.2 9.7
-2 -5 -4 30.3 6.4
-2 -5 -4 26.5 10.5
1 5 4 20.6 4.7
1 5 4 28.1 7.6
-1 -5 -4 28.8 8.9
-1 -5 -4 33.8 6
0 5 4 1.8 2
0 5 4 3.5 3
0 5 4 0.6 1.1
0 -5 -4 0.8 1
0 -5 -4 3.2 2.8
-1 5 4 16.4 5.1
-1 5 4 15 4
1 -5 -4 17.8 4.3
-2 5 4 321.57 32.9
-2 5 4 301.57 32.2
2 -5 -4 288.37 31.6
-3 5 4 -2.5 2.9
-3 5 4 4.8 3.1
-3 5 4 0.8 1.6
-3 5 4 0.5 2.3
-4 5 4 158.08 17.8
-4 5 4 173.88 26.3
-5 5 4 3 2.8
-5 5 4 2.3 5
-6 5 4 151.08 17.6
-6 5 4 140.09 26.6
-7 5 4 34.6 15.4
-8 -5 -3 -12.5 8.1
7 5 3 10.1 5.3
-7 -5 -3 7.6 13.8
-7 -5 -3 9.7 6.3
6 5 3 62.19 10.5
-6 -5 -3 33.1 11.7
-6 -5 -3 63.19 20.5
5 5 3 44.5 8.2
-5 -5 -3 39.7 12.3
-5 -5 -3 42.4 16.2
4 5 3 51.59 7.9
-4 -5 -3 51.29 12.6
-4 -5 -3 58.79 16.7
3 5 3 563.04 57.39
-3 -5 -3 614.14 58.19
-3 -5 -3 512.45 61.29
-3 -5 -3 648.14 67.69
2 5 3 30.2 5.2
2 5 3 25.3 7.3
-2 -5 -3 25.1 5.1
-2 -5 -3 22.8 8.5
1 5 3 1501.65 123.59
1 5 3 1157.98 125.99
-1 -5 -3 1227.58 123.39
-1 -5 -3 1248.68 128.09
0 5 3 561.74 62.29
0 5 3 603.54 60.09
0 -5 -3 681.73 60.49
-1 5 3 2726.33 303.67
-1 5 3 3206.08 303.87
1 -5 -3 3701.43 303.97
-2 5 3 19.7 3.7
-2 5 3 15.7 4.3
2 -5 -3 30.5 5.4
-3 5 3 192.38 19.8
-4 5 3 274.57 28
-4 5 3 284.97 37.8
-5 5 3 150.28 26.1
-5 5 3 145.69 16.3
-6 5 3 362.96 48.1
-6 5 3 321.77 34.5
-7 5 3 275.27 29.7
-8 5 3 65.89 11.9
-8 5 3 73.09 24.1
-8 5 3 98.89 23.4
8 5 2 407.96 42.1
-8 -5 -2 379.96 59.29
-8 -5 -2 334.87 46.4
7 5 2 432.86 44.7
-7 -5 -2 416.86 50.79
-7 -5 -2 380.86 58.59
6 5 2 1123.49 99.69
-6 -5 -2 873.11 103.99
5 5 2 229.18 25.2
-5 -5 -2 231.48 30.1
4 5 2 2405.16 224.28
-4 -5 -2 2293.07 229.28
3 5 2 6.3 2.4
3 5 2 8.5 3.9
-3 -5 -2 8.1 4.5
-2 -5 -2 2311.07 223.18
0 5 2 363.66 42.1
0 5 2 426.36 40.9
0 -5 -2 443.16 43.8
0 -5 -2 433.56 40.9
-2 5 2 3379.56 297.27
-2 5 2 2899.41 289.07
-2 5 2 2918.41 290.37
-3 5 2 7464.25 670.43
-3 5 2 6576.34 659.33
-4 5 2 1571.94 171.78
4 -5 -2 1827.92 166.28
-5 5 2 2197.58 213.08
-5 5 2 2003.6 198.38
-6 5 2 58.39 14.3
-6 5 2 56.99 18.2
-6 5 2 73.79 9.3
-7 5 2 619.84 71.59
-7 5 2 452.65 52.09
-7 5 2 576.84 64.79
-8 5 2 82.79 22.9
-8 5 2 62.49 23.5
-8 -5 -1 23.7 10.3
7 5 1 465.95 48.7
-7 -5 -1 451.95 53.89
6 5 1 916.21 86.79
-6 -5 -1 822.92 91.59
5 5 1 253.87 35.8
-5 -5 -1 293.67 34
4 5 1 604.94 55.29
4 5 1 615.04 63.79
4 5 1 535.95 57.89
-4 -5 -1 472.05 58.49
3 5 1 61.19 7.7
3 5 1 61.19 9.5
-3 -5 -1 64.59 10.5
2 5 1 90.29 12.1
2 5 1 90.49 10.1
-2 -5 -1 97.99 10.5
-2 -5 -1 94.79 13
1 5 1 259.47 25.1
1 5 1 288.97 27.4
-1 -5 -1 248.98 27.5
-1 -5 -1 229.98 25.1
0 5 1 5 1.5
0 5 1 6.9 2.4
0 -5 -1 3.9 1.3
0 -5 -1 5.6 2.3
-1 5 1 4512.85 426.36
-2 5 1 21.4 4
-2 5 1 25.8 8.3
2 -5 -1 19.2 4.3
-3 5 1 50.79 14.1
3 -5 -1 74.29 9.5
3 -5 -1 71.19 13.6
-4 5 1 517.05 65.69
-4 5 1 727.63 73.29
4 -5 -1 594.64 68.99
4 -5 -1 667.83 62.99
-5 5 1 -2.6 5.3
-5 5 1 0.2 5.3
5 -5 -1 0.8 0.9
-6 5 1 286.77 41.7
-6 5 1 292.87 38
6 -5 -1 239.88 26
-7 5 1 98.29 25.5
-7 5 1 172.38 30
7 -5 -1 116.39 13.7
-8 5 1 164.08 39.5
-8 5 1 134.09 31.2
8 -5 -1 163.08 18
8 5 0 234.48 27.5
-8 -5 0 206.28 31.4
7 5 0 15.8 11
7 5 0 11.4 4.1
-7 -5 0 14.7 7.6
6 5 0 3.2 2.9
6 5 0 -0.2 4.7
-6 -5 0 -3 2.2
5 5 0 146.39 20.8
5 5 0 127.69 15.9
-5 -5 0 140.39 19.6
4 5 0 4.6 2.2
4 5 0 7.8 3.6
4 5 0 5.5 4.4
-4 -5 0 7.2 4.3
3 5 0 9.7 2.3
-3 -5 0 1.6 2.1
2 5 0 171.68 16.7
2 5 0 197.98 19.5
-2 -5 0 131.89 18.8
1 5 0 758.92 68.69
1 5 0 625.84 70.49
-1 -5 0 810.42 71.59
-1 -5 0 709.53 68.79
0 5 0 2.2 2.1
0 5 0 1.2 1
0 -5 0 0.7 0.6
0 -5 0 4.2 1.8
-1 5 0 780.62 81.79
1 -5 0 823.42 78.59
1 -5 0 862.81 81.59
1 -5 0 741.93 76.19
-2 5 0 184.78 24.6
-2 5 0 150.48 20
2 -5 0 172.28 20.7
2 -5 0 209.18 24.6
-3 5 0 6.3 5.1
-3 5 0 4 3.1
3 -5 0 13.2 6.6
-4 5 0 10.4 8.1
-4 5 0 9.6 6.7
4 -5 0 8.4 1.8
4 -5 0 10.9 6.3
-5 5 0 145.49 24.1
-5 5 0 117.79 25.1
5 -5 0 165.28 16
-6 5 0 -1.3 7.2
-6 5 0 2.7 6.8
6 -5 0 -1.9 1.2
-7 5 0 28.3 11.9
-7 5 0 28.1 14.3
7 -5 0 14.3 3.8
-8 5 0 184.18 38.5
-8 5 0 189.38 35.3
8 -5 0 223.78 23.1
-8 -5 1 87.89 18.7
7 5 -1 141.69 22.1
-7 -5 1 129.79 20.9
6 5 -1 337.27 38.3
-6 -5 1 295.57 37.5
5 5 -1 -2.2 2
-5 -5 1 -2.1 3.2
4 5 -1 470.25 50.69
-4 -5 1 529.15 52.79
3 5 -1 107.19 13.5
3 5 -1 139.49 15.4
2 5 -1 31.8 5.5
-2 -5 1 26.6 6
-1 -5 1 3317.57 314.87
0 5 -1 4.7 1.7
0 5 -1 9.9 3.9
0 -5 1 3.3 2.4
0 -5 1 1.6 1.2
0 -5 1 4.3 2.3
-1 5 -1 292.37 32.7
1 -5 1 243.58 29.6
1 -5 1 222.58 30.2
1 -5 1 290.97 26.5
-2 5 -1 81.79 13.8
-2 5 -1 71.99 15.4
2 -5 1 116.59 10.7
2 -5 1 106.09 15.4
2 -5 1 94.19 16.2
-3 5 -1 67.19 14.5
-3 5 -1 65.99 17
3 -5 1 56.39 14.3
3 -5 1 62.99 13.3
3 -5 1 50.89 7.1
-4 5 -1 602.54 68.39
-4 5 -1 519.45 70.29
4 -5 1 643.44 59.69
4 -5 1 637.94 69.89
-5 5 -1 327.37 43.3
-5 5 -1 224.18 36.3
5 -5 1 237.58 26.1
-6 5 -1 991.8 110.29
-6 5 -1 952 114.09
6 -5 1 1012.4 96.49
-7 5 -1 439.06 64.39
-7 5 -1 464.45 63.39
7 -5 1 504.95 48.9
-8 5 -1 29.1 15.6
8 -5 1 41.5 9.9
-8 -5 2 119.99 19.9
-7 -5 2 543.45 60.39
6 5 -2 68.89 11.1
-6 -5 2 55.19 13.4
5 5 -2 2049.4 189.68
-5 -5 2 1903.91 192.88
4 5 -2 2176.68 195.98
4 5 -2 1977.2 198.38
-4 -5 2 2008.3 199.08
3 5 -2 7625.04 668.93
-3 -5 2 6464.95 666.03
2 5 -2 3489.85 351.86
2 5 -2 3476.25 354.66
-2 -5 2 4263.97 355.66
1 5 -2 7583.24 716.93
0 5 -2 367.16 38.1
0 5 -2 371.86 41.7
0 -5 2 393.06 42
0 -5 2 390.26 38.3
-1 5 -2 6869.51 648.64
1 -5 2 6655.13 649.64
1 -5 2 6956.5 650.23
-2 5 -2 2906.71 291.77
-2 5 -2 3193.68 296.57
2 -5 2 3079.29 294.27
2 -5 2 2897.61 292.77
-3 5 -2 -0.6 3.6
-3 5 -2 8.1 7
3 -5 2 15.3 6.8
-4 5 -2 2592.84 265.97
-4 5 -2 2941.41 273.07
4 -5 2 2556.74 256.27
-5 5 -2 303.47 41.7
-5 5 -2 252.67 42.5
5 -5 2 292.57 31.1
-6 5 -2 1240.98 139.69
6 -5 2 1310.57 125.59
-7 5 -2 434.16 70.79
-7 5 -2 464.35 61.59
7 -5 2 400.46 44.8
-8 5 -2 307.37 54.69
-8 5 -2 379.86 53.99
-8 -5 3 78.29 17.7
-7 -5 3 278.47 43.9
6 5 -3 407.66 42.1
-6 -5 3 354.36 43
5 5 -3 134.39 15.6
-5 -5 3 129.89 18.5
4 5 -3 267.87 24.4
-4 -5 3 190.88 26.3
3 5 -3 320.97 37.3
3 5 -3 355.86 34.6
-3 -5 3 380.66 38.2
2 5 -3 23.6 5.8
2 5 -3 23.9 3.2
-2 -5 3 21.6 5.6
1 5 -3 2904.21 297.77
1 5 -3 3418.26 300.67
-1 -5 3 3111.79 304.87
-1 -5 3 3197.68 297.67
0 5 -3 578.64 61.29
0 5 -3 556.74 55.19
0 -5 3 550.04 56.79
0 -5 3 601.84 55.19
-1 5 -3 1308.57 131.79
-1 5 -3 1357.26 129.99
1 -5 3 1306.97 130.79
1 -5 3 1335.57 131.49
1 -5 3 1389.96 123.59
1 -5 3 1074.79 123.89
-2 5 -3 34 12.1
-2 5 -3 30.5 9.7
2 -5 3 35.2 11.6
2 -5 3 24.2 5.3
2 -5 3 25.6 9
-3 5 -3 583.24 71.99
-3 5 -3 616.54 69.29
3 -5 3 653.03 71.39
3 -5 3 622.94 75.19
3 -5 3 585.94 60.89
-4 5 -3 79.79 19.8
-4 5 -3 51.89 18.9
4 -5 3 78.99 18.5
4 -5 3 63.69 11.4
4 -5 3 79.09 11.3
-5 5 -3 50.99 16.5
-5 5 -3 47.9 17.5
5 -5 3 29.6 8
-6 5 -3 59.59 20.1
-6 5 -3 44.1 20
6 -5 3 56.19 11.7
6 -5 3 54.89 10.8
-7 5 -3 17.4 11
-7 5 -3 14.5 11.4
7 -5 3 21.8 7.1
-8 5 -3 -7 11.7
8 -5 3 -6.6 3.3
-7 -5 4 15.2 6.9
-6 -5 4 179.28 23.9
5 5 -4 1 2.8
-5 -5 4 4.4 2.8
4 5 -4 183.38 18.8
-4 -5 4 161.98 21.7
3 5 -4 3.6 1.6
-3 -5 4 -0.9 1.9
2 5 -4 337.27 33.5
2 5 -4 310.57 30.1
-2 -5 4 289.07 31.8
-2 -5 4 291.97 32.7
-2 -5 4 322.57 38
-2 -5 4 281.77 30.1
1 5 -4 19.4 3.5
-1 -5 4 14.8 4.7
-1 -5 4 19.6 6.6
-1 -5 4 17.9 3.3
-1 -5 4 11.8 6.2
0 5 -4 -0.9 0.9
0 -5 4 0.4 0.8
0 -5 4 3.2 3.3
0 -5 4 2.1 1.3
-1 5 -4 43.7 11.5
1 -5 4 23.4 5.8
1 -5 4 34.4 11.5
1 -5 4 21.8 4.7
1 -5 4 38.8 11.9
-2 5 -4 40.1 12.7
2 -5 4 37.3 7.2
2 -5 4 35.7 11.8
2 -5 4 53.69 14.1
-3 5 -4 201.18 34.4
-3 5 -4 247.88 33.9
3 -5 4 209.38 33
3 -5 4 248.08 25.7
-4 5 -4 362.36 52.19
-4 5 -4 382.76 49.8
4 -5 4 356.16 39
-5 5 -4 5.7 6.6
5 -5 4 11.9 4.7
5 -5 4 15 6.3
-6 5 -4 58.69 20.4
6 -5 4 70.09 13.5
-7 5 -4 30.6 16.7
7 -5 4 37.3 10.5
-7 -5 5 16.8 6.8
5 5 -5 83.79 11.9
-5 -5 5 109.29 15.6
4 5 -5 357.66 36.7
-4 -5 5 367.56 40.4
3 5 -5 6.9 2
-3 -5 5 5.9 3.2
-3 -5 5 2.9 2.6
-3 -5 5 7 2.7
2 5 -5 71.59 9.4
-2 -5 5 74.69 11.4
-2 -5 5 89.39 9.8
1 5 -5 44.3 6.1
-1 -5 5 33.8 10.1
-1 -5 5 51.89 6.1
-1 -5 5 35.7 8.1
0 5 -5 24.3 5.3
0 -5 5 23 9.2
0 -5 5 24.6 9.5
0 -5 5 32 4.6
0 -5 5 30.7 7
-1 5 -5 2530.55 232.78
-1 5 -5 2177.78 222.38
1 -5 5 2233.68 232.88
1 -5 5 2456.75 222.58
1 -5 5 2287.07 224.38
-2 5 -5 35.3 12.9
2 -5 5 24.8 11
-3 5 -5 1138.69 116.29
3 -5 5 1007.1 104.09
-4 5 -5 -6.8 4.8
4 -5 5 -1.5 2.1
-5 5 -5 60.69 20.7
5 -5 5 45.6 10.2
-6 5 -5 20.7 14.3
6 -5 5 20.8 5.4
-7 5 -5 31.6 17.5
7 -5 5 76.69 14.5
-6 -5 6 -0.4 3.1
-5 -5 6 2.3 4
4 5 -6 92.99 10.4
-4 -5 6 63.39 8.6
-4 -5 6 85.99 13.1
3 5 -6 0.6 2.5
-3 -5 6 -0.7 2.6
-3 -5 6 -1.6 2
2 5 -6 845.42 84.69
-2 -5 6 837.32 84.59
-2 -5 6 923.31 88.29
-2 -5 6 883.11 91.09
1 5 -6 216.78 25.1
-1 -5 6 282.27 28.7
-1 -5 6 223.28 24.6
0 -5 6 1355.86 128.99
0 -5 6 1239.78 116.49
0 -5 6 1056.39 118.89
-1 5 -6 3506.15 333.47
1 -5 6 3219.28 335.27
1 -5 6 3476.55 346.17
1 -5 6 3809.32 333.27
-2 5 -6 24.3 12
2 -5 6 41 7.8
-3 5 -6 5700.83 550.44
3 -5 6 5618.64 537.15
-4 5 -6 919.31 115.89
4 -5 6 1149.58 104.89
-5 5 -6 1081.99 136.99
5 -5 6 1125.89 111.19
-6 5 -6 833.22 104.39
6 -5 6 859.11 87.59
-6 -5 7 200.68 26.8
-5 -5 7 429.46 48.7
-4 -5 7 83.79 11.6
-4 -5 7 83.59 18.6
-3 -5 7 13.3 6.7
-3 -5 7 17.9 4.9
-3 -5 7 17.7 6.4
2 5 -7 152.88 18.2
-2 -5 7 146.09 24.2
-2 -5 7 178.68 18.7
1 5 -7 33.4 6.6
-1 -5 7 29.7 6.1
-1 -5 7 44.1 10
0 -5 7 37.5 15.3
0 -5 7 66.99 8.7
0 -5 7 46.3 10.6
1 -5 7 410.26 47.9
1 -5 7 552.44 52.49
-2 5 -7 14.1 10.3
2 -5 7 30.7 6.9
-3 5 -7 832.02 101.39
3 -5 7 939.31 89.79
-4 5 -7 20.6 13.9
4 -5 7 25.8 6.4
-5 5 -7 136.59 34.1
5 -5 7 146.29 19.7
-6 5 -7 158.38 38.2
6 -5 7 143.89 19.2
-5 -5 8 27.4 8.2
-4 -5 8 33 10.7
-4 -5 8 45 8.4
-3 -5 8 182.38 25.8
-3 -5 8 163.28 20.5
-2 -5 8 51.69 9.5
-2 -5 8 53.09 15.9
-2 -5 8 77.89 12.8
-1 -5 8 -2.4 2.3
-1 -5 8 -3.7 2.7
0 -5 8 368.06 37.3
0 -5 8 336.07 40.5
-1 5 -8 38.5 14.6
1 -5 8 33.3 7.3
1 -5 8 46.7 11.5
-2 5 -8 3.7 6.6
2 -5 8 1.5 3.4
-3 5 -8 -3.3 7.5
3 -5 8 -1.1 3.3
-4 5 -8 104.19 28.4
4 -5 8 101.29 14.7
-5 5 -8 86.79 23.6
5 -5 8 75.59 15.3
-3 -5 9 38 9.8
-3 -5 9 23.8 6.9
-2 -5 9 11.1 5.8
-2 -5 9 7.6 4.2
-1 -5 9 26.6 9.3
-1 -5 9 31.2 7.1
0 -5 9 37.2 11
0 -5 9 50.59 9.2
1 -5 9 6.5 3.5
1 -5 9 9.4 5.7
-2 5 -9 60.19 19.5
2 -5 9 56.99 10.1
2 -5 9 41.2 12.1
-3 5 -9 137.29 32.3
3 -5 9 127.69 18.1
0 -5 10 259.27 37.2
0 -5 10 353.96 35
3 6 9 496.15 51.39
-3 -6 -9 458.15 63.59
2 6 9 8.9 3.8
-2 -6 -9 1.3 10.3
1 6 9 114.69 16.9
-1 -6 -9 152.88 26
0 6 9 7.9 3.9
-1 6 9 457.45 49.4
-2 6 9 84.09 15.1
-3 6 9 323.07 34.6
-3 6 9 236.08 39.5
4 6 8 480.05 50.49
-4 -6 -8 468.65 65.29
3 6 8 125.39 17
-3 -6 -8 143.09 31.3
2 6 8 504.75 49.1
-2 -6 -8 408.26 57.39
1 6 8 49.1 10.2
-1 -6 -8 100.89 21.9
0 6 8 272.27 34.4
0 -6 -8 306.67 38.6
-1 6 8 189.88 29.9
-1 6 8 198.58 23.6
-2 6 8 749.33 72.89
-2 6 8 661.23 77.79
-3 6 8 294.27 42.8
-3 6 8 373.16 38.5
-3 6 8 352.76 39.1
-4 6 8 56.29 19.4
-4 6 8 82.29 11.7
-4 6 8 44.9 15.2
-4 6 8 87.39 15.2
5 6 7 20.6 6.4
-5 -6 -7 2.6 11.6
4 6 7 26.5 7
-4 -6 -7 20.2 10.9
3 6 7 75.29 11
-3 -6 -7 54.99 19
2 6 7 34.2 7.9
-2 -6 -7 31.7 12.7
1 6 7 1.5 1.6
-1 -6 -7 -1.6 5.2
0 6 7 410.56 49.4
0 6 7 386.26 41.4
0 -6 -7 383.46 46.1
-1 6 7 103.19 19.6
-1 6 7 133.09 16
-2 6 7 43.3 8.5
-2 6 7 20.1 9.4
-3 6 7 31.5 9.9
-3 6 7 11.9 5.5
-3 6 7 26.5 6.6
-4 6 7 29.5 8.1
-4 6 7 18.8 11.4
-4 6 7 26 7.2
-4 6 7 33.1 10.5
-5 6 7 4.1 7.7
-5 6 7 19.7 6.1
-5 6 7 10.1 8.7
6 6 6 29.7 7.1
-6 -6 -6 30.9 13.4
-5 -6 -6 225.68 39.7
4 6 6 284.47 30.4
-4 -6 -6 248.58 41.6
3 6 6 0 2
-3 -6 -6 -7.5 4.5
2 6 6 777.82 77.29
1 6 6 3115.59 290.07
-1 -6 -6 2958.8 297.77
0 6 6 3290.47 312.27
0 6 6 3247.07 318.87
0 -6 -6 3291.07 317.07
-1 6 6 2586.74 267.57
-1 6 6 2922.71 263.77
-2 6 6 1047.2 100.19
-2 6 6 975.1 102.49
-3 6 6 291.57 29
-3 6 6 285.37 29.9
-3 6 6 201.08 29.6
-4 6 6 534.95 59.89
-4 6 6 446.86 49.4
-4 6 6 423.26 49.8
-5 6 6 211.48 34.7
-5 6 6 205.58 26.9
-6 6 6 214.28 24.8
-6 6 6 194.58 34.7
-6 6 6 209.98 28.3
7 6 5 7.3 5.3
-7 -6 -5 9.9 10.7
6 6 5 0.1 4.1
-6 -6 -5 -2.2 6.9
5 6 5 140.09 16.9
-5 -6 -5 106.79 30.2
4 6 5 216.48 25.6
-4 -6 -5 280.67 39.2
3 6 5 367.66 37.9
-3 -6 -5 352.86 48.2
2 6 5 105.19 13.2
-2 -6 -5 100.69 22
1 6 5 815.22 88.49
1 6 5 958.1 94.09
-1 -6 -5 979.2 96.39
0 6 5 52.39 12.6
0 6 5 62.69 13.1
0 6 5 58.49 8.5
0 -6 -5 67.79 11.4
-1 6 5 282.67 29
-1 6 5 254.27 31.2
-2 6 5 108.79 13.3
-2 6 5 86.09 14.8
-3 6 5 1627.04 159.28
-3 6 5 1734.23 170.28
-3 6 5 1637.14 161.28
-3 6 5 1649.54 161.28
-4 6 5 182.28 20.8
-4 6 5 206.78 23.3
-4 6 5 184.38 30.1
-5 6 5 209.88 26.9
-5 6 5 227.48 24
-5 6 5 224.48 35.2
-6 6 5 -3.8 6.9
-6 6 5 1.2 3.2
-7 6 5 69.39 23.6
-7 6 5 89.09 12.4
7 6 4 63.69 12.4
-7 -6 -4 76.79 26.9
6 6 4 694.33 74.69
-6 -6 -4 878.41 104.99
5 6 4 19.5 5.5
-5 -6 -4 19.1 11.6
4 6 4 101.89 12.7
-4 -6 -4 78.99 21.5
3 6 4 4 2.3
-3 -6 -4 8.5 3.2
-3 -6 -4 8.7 7
2 6 4 1195.08 120.49
-2 -6 -4 1240.78 116.59
-2 -6 -4 1158.28 123.99
1 6 4 44.2 6.7
-1 -6 -4 50.49 11.8
0 6 4 756.22 72.49
0 6 4 713.33 75.49
0 -6 -4 647.24 72.29
0 -6 -4 850.91 76.09
-1 6 4 70.29 12.4
-1 6 4 91.79 12.3
1 -6 -4 106.29 11.5
-2 6 4 466.55 46.2
-2 6 4 444.26 46.8
-3 6 4 -0.8 2
-3 6 4 2.1 1.5
-3 6 4 2.5 4.1
-3 6 4 1.5 2
-4 6 4 354.86 49.3
-4 6 4 385.76 39.2
-4 6 4 428.16 41.8
-5 6 4 162.18 18.3
-5 6 4 193.58 30.5
-6 6 4 172.68 31.8
-6 6 4 166.08 18.5
-7 6 4 96.89 12.6
-7 6 4 82.99 23.7
7 6 3 246.88 28.9
-7 -6 -3 231.98 35
-7 -6 -3 306.37 47.2
6 6 3 19.4 5.3
-6 -6 -3 30.8 14.5
-6 -6 -3 4.5 5.4
5 6 3 173.58 18.5
-5 -6 -3 119.89 21.4
-5 -6 -3 166.18 29.5
4 6 3 -0.9 1.3
-4 -6 -3 -0.7 2.6
-4 -6 -3 0.2 4.7
3 6 3 425.56 45.7
3 6 3 463.35 42
-3 -6 -3 346.67 48.9
-3 -6 -3 394.36 42.4
2 6 3 0.4 3.8
2 6 3 2.9 2.1
-2 -6 -3 6.2 2.5
-2 -6 -3 2.7 3.4
-2 -6 -3 8.3 4.7
1 6 3 897.61 88.29
-1 -6 -3 860.91 85.09
0 6 3 4.6 2.7
0 6 3 5.2 2
0 -6 -3 4.8 3
0 -6 -3 2.6 1.6
-1 6 3 -0.2 1.2
-1 6 3 1.9 1.9
1 -6 -3 4 1.9
-2 6 3 12.9 6.8
-2 6 3 14.9 4.8
-2 6 3 10.4 3.3
2 -6 -3 10.5 3
-3 6 3 24 3.6
-3 6 3 28.7 10.7
3 -6 -3 23.5 5.3
-4 6 3 174.08 29
-4 6 3 199.48 19.7
-5 6 3 733.73 73.59
-5 6 3 822.82 88.79
-6 6 3 97.29 10.6
-6 6 3 49.2 19.4
-6 6 3 96.09 20.2
-7 6 3 -1.2 2.5
-7 6 3 -2.9 7.5
8 6 2 5.1 3.5
-8 -6 -2 9 6.2
-8 -6 -2 -6.3 8.4
7 6 2 75.79 11.2
-7 -6 -2 62.19 16.9
6 6 2 14.5 4.6
-6 -6 -2 15.6 8.1
5 6 2 28 6
5 6 2 42 14.6
-5 -6 -2 32.3 10.3
4 6 2 41.4 6.3
-4 -6 -2 41.4 11
3 6 2 723.63 65.79
-3 -6 -2 606.44 69.89
2 6 2 1807.72 182.18
2 6 2 1722.73 184.98
-2 -6 -2 1919.11 186.58
-2 -6 -2 2217.98 182.98
1 6 2 2502.45 266.97
1 6 2 2856.21 269.87
-1 -6 -2 3182.68 267.57
-1 -6 -2 2755.22 270.47
0 6 2 15.3 4.4
0 6 2 12.4 2.9
0 -6 -2 13.3 4.8
0 -6 -2 14.4 3
-1 6 2 53.19 6.5
-1 6 2 27.5 5.9
1 -6 -2 43.6 5.7
-2 6 2 177.58 25.3
-2 6 2 176.58 18.6
2 -6 -2 192.58 19.8
-3 6 2 550.04 64.09
-3 6 2 491.15 55.69
3 -6 -2 635.54 56.09
-4 6 2 921.01 93.69
-4 6 2 918.91 100.49
-5 6 2 102.39 17.6
-5 6 2 86.09 23.2
-6 6 2 508.35 60.09
-6 6 2 516.85 66.69
-7 6 2 381.86 53.09
-7 6 2 494.15 62.79
-8 6 2 521.95 70.29
-8 6 2 669.83 81.59
-8 -6 -1 140.19 29.9
7 6 1 80.59 12.3
6 6 1 87.19 12
6 6 1 81.29 21.3
-6 -6 -1 82.89 18
5 6 1 200.18 22.7
-5 -6 -1 177.78 25.3
4 6 1 4.2 2.4
-4 -6 -1 -0.3 2
3 6 1 387.46 37.6
3 6 1 359.06 40.3
-3 -6 -1 386.26 41.9
2 6 1 838.52 86.99
-2 -6 -1 1025.2 88.99
-2 -6 -1 807.22 84.49
0 6 1 509.15 47.4
0 6 1 421.76 48
0 -6 -1 541.55 49.4
-1 6 1 628.94 62.49
-1 6 1 646.04 55.99
1 -6 -1 483.05 56.09
1 -6 -1 531.25 55.69
1 -6 -1 624.94 56.29
-2 6 1 108.59 13.2
-2 6 1 156.78 21
2 -6 -1 138.09 14.4
-3 6 1 30.2 10.8
-3 6 1 39.2 8.6
3 -6 -1 65.29 15
3 -6 -1 52.89 7.4
-4 6 1 269.47 39.4
-4 6 1 283.37 35.4
4 -6 -1 325.47 32.7
-5 6 1 2508.35 243.28
-5 6 1 2409.06 248.98
-6 6 1 941.11 107.69
-6 6 1 1088.89 116.19
-7 6 1 431.06 63.79
-7 6 1 505.25 60.49
-8 6 1 17.5 15.3
-8 6 1 4.8 14.4
8 6 0 64.09 12
-8 -6 0 43.3 14.1
7 6 0 -1.7 2.4
7 6 0 -0.7 7.7
-7 -6 0 -6.5 2.8
6 6 0 104.09 18.1
6 6 0 96.39 13.2
-6 -6 0 102.59 16.8
5 6 0 46 7.9
5 6 0 40.1 10.5
-5 -6 0 48.5 12.2
4 6 0 1769.42 160.38
4 6 0 1482.25 153.48
-4 -6 0 1590.44 158.48
3 6 0 291.87 35.7
3 6 0 322.87 30.9
2 6 0 339.07 31.4
-2 -6 0 299.07 34.6
1 6 0 24.5 2.9
1 6 0 24.6 5.3
-1 -6 0 31.1 6.4
-1 -6 0 24.7 3.1
0 6 0 2723.03 256.97
0 6 0 2808.62 261.07
0 -6 0 2490.15 255.67
0 -6 0 2831.32 257.57
-1 6 0 16.9 6.7
-1 6 0 24 3.4
1 -6 0 17.7 4.9
1 -6 0 29.9 4
1 -6 0 29.6 8
1 -6 0 26 3.8
-2 6 0 385.26 37.1
-2 6 0 344.17 42.1
2 -6 0 337.17 33.4
2 -6 0 355.26 41.3
2 -6 0 333.37 37.4
-3 6 0 460.85 47.6
3 -6 0 391.56 53.59
-4 6 0 1824.02 186.28
-4 6 0 1745.43 191.18
4 -6 0 2081.69 196.78
-5 6 0 56.09 15.2
-5 6 0 36.9 14.8
5 -6 0 38.1 4.5
-6 6 0 101.09 28
-6 6 0 80.49 22.4
6 -6 0 116.09 11.8
-7 6 0 -2.1 6.3
-7 6 0 2.4 7.7
7 -6 0 0.4 1.7
-8 6 0 68.39 23
-8 6 0 51.79 20
8 -6 0 39.1 8.7
8 6 -1 35 9.1
-8 -6 1 30.6 9.7
7 6 -1 597.64 64.59
6 6 -1 1027.7 102.39
-6 -6 1 990.8 104.19
5 6 -1 2356.36 233.48
-5 -6 1 2344.17 228.98
4 6 -1 295.97 32.1
-4 -6 1 303.97 34.4
3 6 -1 37.1 6.9
3 6 -1 47.4 8
3 6 -1 52.09 5.7
-3 -6 1 54.29 8.7
2 6 -1 163.68 17.5
2 6 -1 132.99 14.1
2 6 -1 157.88 17
-2 -6 1 136.29 17.4
1 6 -1 583.04 67.29
1 6 -1 765.42 69.59
-1 -6 1 726.03 68.29
0 -6 1 418.46 46.7
0 -6 1 552.74 51.69
0 -6 1 506.15 51.19
0 -6 1 513.05 48.7
-1 6 -1 812.12 89.89
-1 6 -1 936.11 83.59
1 -6 1 932.11 88.09
1 -6 1 783.22 88.39
-2 6 -1 826.22 91.69
-2 6 -1 876.11 87.19
2 -6 1 871.91 82.39
2 -6 1 865.81 88.29
2 -6 1 858.61 90.49
-3 6 -1 328.97 44.9
-3 6 -1 367.06 41.2
3 -6 1 360.56 34.6
3 -6 1 346.27 43.5
3 -6 1 323.67 34.7
3 -6 1 382.96 41.9
-4 6 -1 8.9 5.9
-4 6 -1 4.8 5.4
4 -6 1 13.7 2.9
-5 6 -1 186.28 35.3
-5 6 -1 228.88 36.4
-6 6 -1 56.19 22.6
-6 6 -1 92.59 23.6
6 -6 1 112.19 11.9
-7 6 -1 83.59 25
-7 6 -1 83.69 28.1
-8 6 -1 203.58 40.4
-8 6 -1 127.79 39
-8 -6 2 665.83 74.39
-7 -6 2 430.06 51.19
6 6 -2 519.55 50.59
-6 -6 2 458.75 54.29
5 6 -2 121.79 14.7
-5 -6 2 127.49 18.1
4 6 -2 1056.09 98.19
-4 -6 2 976.5 101.99
3 6 -2 560.74 55.39
3 6 -2 583.94 51.89
-3 -6 2 456.05 54.99
-2 -6 2 138.69 17
1 6 -2 37 6.1
1 6 -2 45.1 7.4
-1 -6 2 29.6 6.6
-1 -6 2 44.2 6.6
0 6 -2 20.4 6.7
0 6 -2 15.8 3.8
0 -6 2 5.4 4
0 -6 2 15.2 3.7
0 -6 2 12.3 5.3
-1 6 -2 3146.49 365.76
-1 6 -2 3560.74 363.76
1 -6 2 4123.79 366.66
1 -6 2 4340.97 360.06
-2 6 -2 2023.4 199.28
-2 6 -2 2032.6 194.38
2 -6 2 2008 196.98
2 -6 2 1792.22 194.98
2 -6 2 2028.6 188.38
-3 6 -2 763.02 78.69
-3 6 -2 661.63 87.99
3 -6 2 737.03 80.49
3 -6 2 715.63 78.59
-4 6 -2 24 12.4
-4 6 -2 32.2 12.8
4 -6 2 38.7 6.5
4 -6 2 44.1 12.8
-5 6 -2 17.8 12.4
-5 6 -2 42.3 16.9
5 -6 2 39.9 7.8
-6 6 -2 34.2 15.9
-6 6 -2 25.1 15.8
6 -6 2 41.4 6.9
-7 6 -2 73.79 21.3
-7 6 -2 32.1 17.6
7 -6 2 61.29 9.7
-8 6 -2 -14.1 7.7
-8 6 -2 4.4 13.3
-7 -6 3 -2.4 2.6
6 6 -3 128.29 15.9
5 6 -3 727.33 70.89
-5 -6 3 716.33 75.19
4 6 -3 201.58 20.8
-4 -6 3 197.68 24.7
3 6 -3 28.9 7
-3 -6 3 26.6 6.7
2 6 -3 12.8 4.2
-2 -6 3 12.7 4.3
1 6 -3 4.2 2.5
1 6 -3 1.7 1
-1 -6 3 1.2 1.8
-1 -6 3 1.7 2
-1 -6 3 2.3 2.5
0 6 -3 9.1 5.2
0 -6 3 2.7 3.2
0 -6 3 9.3 4.4
0 -6 3 2.8 2.1
0 -6 3 2.3 1.3
-1 6 -3 640.04 82.49
1 -6 3 828.52 75.69
1 -6 3 908.71 84.39
1 -6 3 715.83 82.69
1 -6 3 799.42 76.69
-2 6 -3 5.1 3.9
-2 6 -3 3.6 5.1
2 -6 3 4.7 3.1
2 -6 3 6.2 4.8
2 -6 3 6 2.4
2 -6 3 2.3 1.9
-3 6 -3 437.56 49
-3 6 -3 377.16 51.59
3 -6 3 302.07 47
3 -6 3 426.86 40.7
3 -6 3 408.36 49.1
-4 6 -3 3.2 6.3
-4 6 -3 6.5 4.6
4 -6 3 6.7 6.4
4 -6 3 3.5 3
-5 6 -3 121.19 29.2
-5 6 -3 204.98 35.5
5 -6 3 146.99 19.4
-6 6 -3 10.7 11.3
-7 6 -3 255.57 46.6
-7 6 -3 317.37 53.69
7 -6 3 348.87 35.1
7 -6 3 269.97 35.9
-7 -6 4 130.59 20.4
6 6 -4 177.28 19.5
-6 -6 4 145.39 22.2
5 6 -4 216.98 22.3
-5 -6 4 189.08 25.7
4 6 -4 386.76 38.5
3 6 -4 1.4 0.9
-3 -6 4 0.4 1.7
2 6 -4 434.56 42.1
-2 -6 4 446.96 38
-2 -6 4 343.37 38.4
-2 -6 4 305.37 44.8
1 6 -4 98.99 11.2
-1 -6 4 116.99 14.5
-1 -6 4 85.69 14.2
-1 -6 4 100.39 17.3
-1 -6 4 111.69 11
0 6 -4 821.12 86.19
0 -6 4 983.7 94.29
0 -6 4 744.13 93.69
0 -6 4 910.11 86.19
0 -6 4 1021.9 89.19
-1 6 -4 58.49 21.2
1 -6 4 78.19 18.3
1 -6 4 66.79 8.8
1 -6 4 73.19 10.3
1 -6 4 84.49 15.7
-2 6 -4 1388.66 134.29
2 -6 4 1298.67 125.89
2 -6 4 1178.18 134.59
2 -6 4 1278.07 124.99
2 -6 4 1324.67 135.89
-3 6 -4 10.3 5.3
-3 6 -4 2.4 5.2
3 -6 4 13.1 4.4
-4 6 -4 84.29 25.9
-4 6 -4 101.59 24.5
4 -6 4 112.89 14.5
-5 6 -4 32.7 12.5
-5 6 -4 21 13.8
5 -6 4 18.5 6.6
5 -6 4 21.1 6.8
-6 6 -4 842.72 99.69
-6 6 -4 741.83 102.29
6 -6 4 874.61 86.19
-7 6 -4 80.19 25.7
7 -6 4 94.39 17.5
-7 -6 5 127.49 20.3
-6 -6 5 -4.6 2.5
5 6 -5 229.18 22
-5 -6 5 160.38 24.4
-4 -6 5 175.98 22.7
3 6 -5 1622.44 158.68
-3 -6 5 1711.63 162.98
2 6 -5 108.19 12.3
-2 -6 5 113.79 15.2
-2 -6 5 100.19 12.2
-2 -6 5 117.79 15.3
1 6 -5 277.27 28.5
-1 -6 5 302.37 34.8
-1 -6 5 264.07 27.9
0 6 -5 44.1 7.5
0 -6 5 83.89 15.1
0 -6 5 65.39 7.7
0 -6 5 56.99 9.4
-1 6 -5 956.2 98.39
1 -6 5 926.21 88.49
1 -6 5 857.91 90.39
-2 6 -5 110.69 20.5
2 -6 5 115.39 15
2 -6 5 83.59 25.7
-3 6 -5 456.85 56.09
3 -6 5 427.06 45.7
-4 6 -5 271.17 40.8
4 -6 5 267.07 30.5
-5 6 -5 169.28 31.1
5 -6 5 139.89 19.3
-6 6 -5 -9.1 8.6
6 -6 5 22.9 5
-7 6 -5 -8.2 10.3
7 -6 5 1.1 4.4
-6 -6 6 223.98 29.7
-5 -6 6 243.78 30.6
4 6 -6 568.24 59.59
-4 -6 6 652.53 64.69
3 6 -6 301.17 30.1
-3 -6 6 271.77 30.6
-3 -6 6 316.37 30.6
-3 -6 6 270.07 33.3
2 6 -6 1139.89 99.69
-2 -6 6 849.52 98.79
-2 -6 6 969.6 102.59
-2 -6 6 1166.38 105.69
1 6 -6 2922.21 287.87
-1 -6 6 2849.01 290.87
-1 -6 6 3076.19 296.57
-1 -6 6 3266.47 287.57
0 6 -6 2960.9 288.67
0 -6 6 3299.67 288.27
0 -6 6 2832.42 291.07
-1 6 -6 2826.22 259.87
1 -6 6 2748.72 250.37
1 -6 6 2560.04 247.18
1 -6 6 2241.38 257.97
-2 6 -6 940.71 100.69
2 -6 6 971.8 89.59
2 -6 6 814.02 90.79
-3 6 -6 2.9 6
3 -6 6 4.3 2.8
-4 6 -6 299.77 44.6
4 -6 6 294.17 33.4
-5 6 -6 295.97 47
5 -6 6 300.07 42.6
-6 6 -6 19.6 15.2
6 -6 6 46.1 8.6
-5 -6 7 17.4 5.9
-4 -6 7 26.9 8.8
3 6 -7 29.9 6
-3 -6 7 25.6 8.6
-3 -6 7 29.3 8.5
-3 -6 7 20 5.4
2 6 -7 46 7.3
-2 -6 7 40.5 7.3
-2 -6 7 37.5 9.6
-2 -6 7 34.4 11.5
1 6 -7 112.19 14.7
-1 -6 7 111.09 21.6
-1 -6 7 132.29 17.6
-1 -6 7 118.49 14.1
0 6 -7 328.67 37.4
0 -6 7 392.56 41
0 -6 7 424.46 37.3
0 -6 7 267.27 44.8
-1 6 -7 -5.8 5.5
1 -6 7 1.5 3.2
1 -6 7 3.2 2.8
-2 6 -7 26 11.9
2 -6 7 39.2 8.2
2 -6 7 34.9 9.4
-3 6 -7 65.99 20
3 -6 7 55.59 10.6
-4 6 -7 18.2 13.1
4 -6 7 20.6 6.7
-5 6 -7 28.8 16.5
5 -6 7 16.8 6.8
-4 -6 8 90.39 15.7
-3 -6 8 232.38 33.7
-3 -6 8 292.57 29.5
-3 -6 8 267.07 32.6
-2 -6 8 575.84 66.39
-2 -6 8 724.53 71.69
-2 -6 8 748.93 81.49
-1 -6 8 212.78 33.6
-1 -6 8 232.78 24.2
-1 -6 8 198.28 27.4
0 -6 8 246.78 28.4
0 -6 8 317.37 42.7
1 -6 8 85.09 12.4
1 -6 8 90.99 17.7
-2 6 -8 410.86 56.89
2 -6 8 432.96 45.2
-3 6 -8 99.49 25.5
3 -6 8 131.29 17
-4 6 -8 528.85 72.99
4 -6 8 576.74 59.49
-3 -6 9 320.27 36.6
-3 -6 9 363.36 41.3
-2 -6 9 74.09 11.5
-2 -6 9 87.39 17
-1 -6 9 441.66 51.19
-1 -6 9 454.85 46.8
0 -6 9 5.8 3.7
0 -6 9 2.7 4.5
1 -6 9 99.39 16.7
1 -6 9 93.89 13.3
-2 6 -9 5.4 7.8
2 -6 9 10.1 4.2
2 -6 9 4.2 4.3
-3 6 -9 424.26 64.89
3 -6 9 539.25 53.89
3 -6 9 514.45 57.59
2 7 9 1.8 2.8
-2 -7 -9 7.8 10.3
1 7 9 -4.2 2.7
-1 -7 -9 -8.7 5.5
0 7 9 -2.4 3.2
-1 7 9 13.3 5.5
-2 7 9 69.69 13.1
4 7 8 86.19 13.3
-4 -7 -8 91.89 27.3
3 7 8 108.89 14.7
-3 -7 -8 101.59 25.9
2 7 8 22.5 6.1
-2 -7 -8 8 8.5
1 7 8 300.47 33.8
-1 -7 -8 306.37 41.6
0 7 8 77.79 12.1
0 -7 -8 95.99 17.5
-1 7 8 317.97 42.5
-1 7 8 323.47 35.9
-2 7 8 19.3 10.8
-2 7 8 29.1 8
-3 7 8 257.17 35.5
-3 7 8 270.97 32.1
-3 7 8 273.77 31
-4 7 8 8.2 4.5
-4 7 8 4.9 8.5
-4 7 8 9.4 4.7
5 7 7 9.1 4.8
-5 -7 -7 11.6 10.2
4 7 7 393.06 46.2
-4 -7 -7 563.44 65.09
3 7 7 40 7.9
-3 -7 -7 10 9.8
2 7 7 2311.37 206.38
-2 -7 -7 1937.71 216.08
1 7 7 386.76 44.5
-1 -7 -7 492.05 53.79
0 7 7 67.69 10.2
0 -7 -7 57.59 14.4
-1 7 7 506.75 60.09
-1 7 7 563.24 55.79
-2 7 7 33.8 8
-2 7 7 32.1 9.8
-3 7 7 83.89 11.7
-3 7 7 62.89 13.8
-3 7 7 60.19 12.5
-4 7 7 189.38 27.5
-4 7 7 239.48 25.1
-4 7 7 293.57 39.2
-4 7 7 164.38 25.5
-5 7 7 3.6 3.7
-5 7 7 6.1 6
6 7 6 256.07 27.9
-6 -7 -6 192.68 38.3
5 7 6 640.24 65.49
-4 -7 -6 902.11 104.69
3 7 6 78.69 11.1
-3 -7 -6 69.89 20.3
2 7 6 1328.77 129.29
1 7 6 -1.5 1.8
-1 -7 -6 -6.1 3.2
0 7 6 167.18 19.8
0 -7 -6 170.08 23
-1 7 6 895.91 82.19
-1 7 6 855.61 85.49
-1 7 6 707.13 84.89
-2 7 6 -1.3 2.1
-2 7 6 6.2 4.9
-3 7 6 441.76 49.1
-3 7 6 499.65 50.09
-4 7 6 74.09 9.7
-4 7 6 40.6 11.2
-4 7 6 68.49 19.3
-5 7 6 -11.8 6.2
-5 7 6 -6 5.6
-5 7 6 5.8 2.5
-6 7 6 -5.8 3.2
-6 7 6 1.6 8.2
6 7 5 110.79 15.5
-6 -7 -5 128.99 32.4
5 7 5 169.08 21.2
-5 -7 -5 211.08 35.3
-4 -7 -5 676.23 81.59
3 7 5 -0.7 1.9
-3 -7 -5 -3.5 3.2
2 7 5 4965 484.25
-2 -7 -5 5270.27 494.85
1 7 5 23.6 5.6
0 7 5 701.73 71.69
0 7 5 610.44 67.09
0 -7 -5 733.43 70.99
-1 7 5 37.8 8.6
-1 7 5 37.6 7.5
-2 7 5 44.3 8.6
-2 7 5 38.9 7.3
-3 7 5 -1.3 1.3
-3 7 5 -0.4 2.8
-3 7 5 -1.5 4.2
-3 7 5 3.8 2.7
-4 7 5 1.8 6
-4 7 5 -2.3 1.6
-5 7 5 21.7 5.2
-5 7 5 32.7 6.8
-5 7 5 21.5 10.5
-6 7 5 23.2 8.9
-6 7 5 29.2 5.8
-6 7 5 16.3 12.8
7 7 4 22 5.8
-7 -7 -4 33.1 17.3
6 7 4 10.3 3.9
-6 -7 -4 10.7 10.4
5 7 4 75.29 10.4
-5 -7 -4 74.89 19.5
4 7 4 28.3 5.8
-4 -7 -4 9 9.2
3 7 4 133.49 14.9
-3 -7 -4 95.19 22.6
2 7 4 82.99 9.8
-2 -7 -4 53.09 14.5
1 7 4 342.77 35.2
1 7 4 221.88 32
-1 -7 -4 310.97 30.9
-1 -7 -4 295.87 35.8
0 7 4 -0.7 2.2
0 -7 -4 2.5 2.7
0 -7 -4 2.8 1.7
-1 7 4 118.49 15.5
-1 7 4 103.49 13.5
1 -7 -4 108.59 13.2
-2 7 4 221.18 26.1
-2 7 4 242.78 25.9
-3 7 4 326.77 48.6
-3 7 4 367.96 40.1
-3 7 4 469.35 39.6
-3 7 4 415.16 43
-4 7 4 136.39 14.7
-4 7 4 147.19 25.6
-4 7 4 133.99 16
-5 7 4 507.65 69.59
-5 7 4 614.84 56.49
-6 7 4 96.89 19.6
-6 7 4 106.09 26.4
-6 7 4 95.79 11.8
-7 7 4 13.6 12.1
-7 7 4 18.7 11.2
7 7 3 6 4.3
-7 -7 -3 8.5 9.4
-7 -7 -3 8.8 7.1
6 7 3 60.19 10.2
-6 -7 -3 32.8 14.4
5 7 3 -4.1 2.2
-5 -7 -3 1.7 6.2
-5 -7 -3 2.4 4.4
4 7 3 191.78 20.4
-4 -7 -3 139.09 23.7
-4 -7 -3 229.68 32.2
3 7 3 18 4.2
-3 -7 -3 15.4 7.1
-3 -7 -3 27.1 6.3
2 7 3 800.42 75.09
2 7 3 911.11 79.99
-2 -7 -3 609.74 80.59
-2 -7 -3 760.72 75.39
1 7 3 73.39 10.6
1 7 3 49.1 7
-1 -7 -3 54.99 12.3
-1 -7 -3 51.49 7.2
0 7 3 5595.44 504.75
0 7 3 5467.95 501.95
0 -7 -3 4875.11 503.55
-1 7 3 13.6 3.6
1 -7 -3 12.2 3.5
-2 7 3 1664.73 167.88
-2 7 3 1723.63 162.38
-2 7 3 1622.34 159.88
2 -7 -3 1650.73 159.48
-3 7 3 105.59 13
-3 7 3 126.39 12.3
-3 7 3 112.49 21
-4 7 3 1140.09 118.09
-4 7 3 1235.68 117.89
-4 7 3 1376.86 122.69
-4 7 3 1257.27 132.79
-5 7 3 440.96 45.1
-5 7 3 328.07 50.39
-6 7 3 568.04 62.59
-6 7 3 527.55 69.79
-7 7 3 483.05 55.19
-7 7 3 411.26 62.09
8 7 2 177.38 21.9
-8 -7 -2 130.19 37.2
7 7 2 397.86 41.1
-7 -7 -2 352.26 47.4
6 7 2 132.19 16.5
-6 -7 -2 134.69 21.8
5 7 2 1897.11 195.18
5 7 2 1904.91 182.48
4 7 2 1.9 1.5
-4 -7 -2 -1.8 2.9
3 7 2 1313.47 129.19
-3 -7 -2 1298.37 130.79
2 7 2 17.7 5.5
2 7 2 21.5 3.9
-2 -7 -2 16.9 3.9
-2 -7 -2 12.1 5.8
1 7 2 1570.34 133.49
-1 -7 -2 1161.28 132.99
0 7 2 1487.25 141.49
0 -7 -2 1572.64 141.49
0 -7 -2 1382.26 143.59
-1 7 2 185.58 19.6
-1 7 2 175.58 19.7
1 -7 -2 178.78 19
-2 7 2 1542.05 162.78
-2 7 2 1821.62 173.98
2 -7 -2 1829.22 164.58
-3 7 2 2578.24 249.48
3 -7 -2 2440.66 239.28
-4 7 2 1038 127.19
-4 7 2 1356.26 120.59
-5 7 2 212.68 29.7
-5 7 2 259.47 38.3
-6 7 2 137.99 24.4
-6 7 2 186.08 32.1
-7 7 2 268.57 38.7
-8 7 2 -10.2 12
-8 7 2 13.8 14.2
8 7 1 537.05 54.99
-8 -7 -1 441.76 58.19
7 7 1 8.7 4.4
-7 -7 -1 0.8 6.9
6 7 1 958 96.39
6 7 1 1012.6 107.19
5 7 1 79.99 15.9
5 7 1 52.79 8.3
-5 -7 -1 63.09 14.7
4 7 1 104.59 12.3
-4 -7 -1 108.39 16.8
3 7 1 253.47 27.6
3 7 1 219.98 23.9
-3 -7 -1 240.68 28.7
2 7 1 109.09 13.7
2 7 1 85.59 10.6
-2 -7 -1 107.79 11.3
-2 -7 -1 115.79 14.9
1 7 1 199.98 21.9
1 7 1 266.37 25.1
-1 -7 -1 233.48 25.4
-1 -7 -1 206.18 22.1
0 7 1 3388.56 309.67
0 7 1 3076.79 310.47
0 -7 -1 3356.96 311.67
-1 7 1 232.18 28.1
-1 7 1 204.18 21.2
1 -7 -1 208.68 22.1
1 -7 -1 201.98 21.6
1 -7 -1 205.88 21.4
-2 7 1 1063.79 98.79
2 -7 -1 1024.2 101.19
-3 7 1 45.2 14.5
-3 7 1 75.39 10.5
3 -7 -1 103.29 11.1
-4 7 1 168.48 28
-4 7 1 159.48 22
-5 7 1 7.5 7.5
-5 7 1 2.3 6.1
-6 7 1 33.6 15
-7 7 1 11.1 11.3
-7 7 1 -5.5 7.6
-8 7 1 245.58 40.6
-8 7 1 305.17 50.69
8 7 0 55.79 11.7
-8 -7 0 58.59 15.3
7 7 0 241.38 28
-7 -7 0 259.37 34.2
6 7 0 42 12.9
6 7 0 29.2 6.3
-6 -7 0 22.8 8.2
5 7 0 76.79 15.7
5 7 0 82.99 10.6
-5 -7 0 80.69 16.2
4 7 0 87.89 14.2
4 7 0 78.09 9.6
-4 -7 0 83.39 13.6
3 7 0 7.4 2.1
3 7 0 7.3 3.7
-3 -7 0 5 3.6
2 7 0 32.6 4
2 7 0 41.1 6.8
-2 -7 0 30.2 7.6
1 7 0 615.84 58.29
1 7 0 618.74 59.89
-1 -7 0 568.54 60.39
-1 -7 0 598.44 57.29
0 7 0 -2 1.6
0 7 0 0.2 0.7
0 -7 0 1.7 0.7
0 -7 0 1.8 1.5
-1 7 0 517.75 63.89
-1 7 0 617.24 57.69
1 -7 0 610.44 58.29
1 -7 0 620.14 57.99
-2 7 0 23.9 6
-2 7 0 37.3 11.8
2 -7 0 29.2 9.8
2 -7 0 31.9 7.3
2 -7 0 38.8 4.3
2 -7 0 34.6 6
-3 7 0 5.1 6.4
-3 7 0 -0.7 2.5
3 -7 0 10.5 6.6
-4 7 0 42.3 12.1
-4 7 0 95.29 22.6
-5 7 0 83.89 24
-5 7 0 64.19 16.9
-6 7 0 22.9 11.9
-6 7 0 29 12
-7 7 0 271.87 47.8
-7 7 0 309.67 43.5
-8 7 0 69.39 21.7
-8 7 0 94.19 27.9
8 7 -1 324.37 33.6
-8 -7 1 249.68 37.2
7 7 -1 -0.5 6.6
7 7 -1 2.9 3.9
-7 -7 1 -1.5 3.1
6 7 -1 56.19 9.7
6 7 -1 66.89 11.4
-6 -7 1 49.6 13.2
5 7 -1 1 3
5 7 -1 1.6 1.8
-5 -7 1 7.5 4.7
4 7 -1 127.69 14.9
4 7 -1 147.29 17.1
-4 -7 1 151.98 19.7
3 7 -1 87.09 12.7
3 7 -1 93.49 9.7
2 7 -1 1003.2 96.59
2 7 -1 978.8 96.79
-2 -7 1 973 97.49
1 7 -1 204.18 22.9
-1 -7 1 220.08 23.7
0 7 -1 3529.35 329.57
0 7 -1 3440.86 324.17
0 -7 1 3301.77 322.37
-1 7 -1 185.58 26.6
-1 7 -1 167.68 20
1 -7 1 208.48 25.7
1 -7 1 194.08 24
1 -7 1 225.38 20.8
-2 7 -1 153.48 24
-2 7 -1 156.48 19.5
2 -7 1 150.98 15.7
2 -7 1 156.58 22.2
2 -7 1 133.99 20.5
-3 7 -1 207.18 29.8
-3 7 -1 240.18 36.2
3 -7 1 292.97 35.8
3 -7 1 280.67 32.8
-4 7 -1 120.39 21.7
-4 7 -1 120.09 24.9
4 -7 1 134.79 14.5
4 -7 1 155.08 14.4
-5 7 -1 48.6 17.7
5 -7 1 60.49 6.9
-6 7 -1 970.3 107.99
-7 7 -1 8 8.9
-7 7 -1 6.4 9.8
-8 7 -1 483.65 72.09
-8 7 -1 574.44 77.89
8 7 -2 25.5 8.3
-7 -7 2 390.16 47
6 7 -2 196.18 21.2
-6 -7 2 167.78 25
5 7 -2 273.07 29.1
-5 -7 2 292.07 34.1
4 7 -2 1812.42 158.88
-4 -7 2 1503.05 163.18
3 7 -2 3048.29 272.57
3 7 -2 2804.62 267.87
-3 -7 2 2669.73 272.57
2 7 -2 2004 192.88
2 7 -2 2005.5 191.08
1 7 -2 183.18 22.7
1 7 -2 212.38 21.3
-1 -7 2 166.78 20.9
0 7 -2 1411.06 150.28
0 -7 2 1731.23 151.18
0 -7 2 1572.44 155.28
-1 7 -2 1205.48 144.99
1 -7 2 1339.57 138.29
1 -7 2 1590.54 145.29
1 -7 2 1676.93 146.19
-2 7 -2 17.1 6.9
-2 7 -2 13.7 7.9
2 -7 2 14.9 6.8
2 -7 2 17.4 3.9
2 -7 2 17.1 8.1
-3 7 -2 1429.36 139.19
-3 7 -2 1438.06 146.19
3 -7 2 1365.96 130.99
3 -7 2 1211.98 140.69
3 -7 2 1412.26 140.59
-4 7 -2 6.4 6.9
-4 7 -2 -1.1 7.4
4 -7 2 1.8 5.7
4 -7 2 0.1 2.1
-5 7 -2 2353.76 219.98
-5 7 -2 2068.89 224.68
5 -7 2 2058.79 205.48
-6 7 -2 149.79 37.4
6 -7 2 171.08 19
-7 7 -2 359.36 61.99
-7 7 -2 486.05 60.39
7 -7 2 415.06 42.3
-7 -7 3 585.04 65.49
6 7 -3 569.74 57.89
-6 -7 3 588.94 63.49
5 7 -3 432.36 43.4
-5 -7 3 438.06 48.7
4 7 -3 1374.26 135.39
-4 -7 3 1484.35 141.09
3 7 -3 111.39 10.8
-3 -7 3 88.59 14.3
2 7 -3 1778.92 167.28
2 7 -3 1521.65 162.78
-2 -7 3 1922.61 167.98
1 7 -3 11.8 5.1
-1 -7 3 16.5 5.4
-1 -7 3 14.6 1.9
-1 -7 3 13.4 4.3
0 7 -3 5460.75 533.25
0 -7 3 5746.82 527.75
0 -7 3 5548.84 533.75
0 -7 3 5537.55 525.05
0 -7 3 5553.74 531.65
-1 7 -3 79.89 15.7
-1 7 -3 69.09 14.8
1 -7 3 64.39 15
1 -7 3 72.99 13.5
1 -7 3 56.89 8.8
1 -7 3 67.89 8.4
-2 7 -3 882.41 83.49
-2 7 -3 778.52 87.19
2 -7 3 686.53 75.29
2 -7 3 733.23 84.99
2 -7 3 787.62 75.59
2 -7 3 784.42 84.79
-3 7 -3 28.8 12.8
-3 7 -3 34.2 12.3
3 -7 3 35.3 6.8
3 -7 3 48.6 15.4
3 -7 3 39.8 7.6
-4 7 -3 260.57 34.8
-4 7 -3 197.98 36.9
-5 7 -3 0.8 6.3
-5 7 -3 -1.1 4.7
5 -7 3 0.8 2.5
-6 7 -3 81.49 24
6 -7 3 58.49 10.5
-7 7 -3 -1.1 12.1
-7 7 -3 1.7 9.8
7 -7 3 11.7 6.1
-7 -7 4 38.2 12.5
6 7 -4 135.69 15.2
-6 -7 4 99.99 18.2
5 7 -4 742.03 72.29
4 7 -4 146.19 15.5
3 7 -4 471.35 43.3
-3 -7 4 404.06 47.3
2 7 -4 226.28 23.5
-2 -7 4 249.18 24.2
-2 -7 4 232.08 27.3
1 7 -4 83.49 10.4
1 7 -4 67.99 12.5
-1 -7 4 116.79 15.1
-1 -7 4 97.39 13.3
-1 -7 4 114.59 10.5
-1 -7 4 118.99 19
0 -7 4 0.8 1.1
0 -7 4 2.1 3.2
0 -7 4 -5.7 3
-1 7 -4 308.87 42.7
-1 7 -4 338.47 41.7
1 -7 4 316.77 42.6
1 -7 4 367.96 35.9
1 -7 4 314.77 41.6
1 -7 4 338.77 34
-2 7 -4 144.89 22.1
-2 7 -4 119.89 23.5
2 -7 4 123.59 15.5
2 -7 4 138.99 23.4
2 -7 4 87.89 21.7
2 -7 4 125.79 15
-3 7 -4 99.19 26.7
-3 7 -4 110.89 20.5
3 -7 4 114.79 14.6
3 -7 4 113.99 14.5
-4 7 -4 19.9 11.1
-4 7 -4 9.6 7.9
4 -7 4 9.6 4.1
-5 7 -4 111.19 30.4
-5 7 -4 80.09 23.4
5 -7 4 82.69 13.5
5 -7 4 76.29 14
-6 7 -4 8.3 8.1
-6 7 -4 12.2 13.2
6 -7 4 14.8 5.8
-7 7 -4 37.1 17.8
-7 7 -4 40.6 19.6
7 -7 4 18.6 7
6 7 -5 37.5 8.3
-6 -7 5 40.1 10.8
5 7 -5 26 5.5
-5 -7 5 18.1 10.7
4 7 -5 -0.1 2.1
-4 -7 5 -0.5 2.5
3 7 -5 1.1 1.7
-3 -7 5 -0.8 3
2 7 -5 49.8 6.5
-2 -7 5 53.89 8.1
-2 -7 5 43.1 9.8
-2 -7 5 43 6.3
1 7 -5 41.3 6.4
-1 -7 5 52.29 6.4
-1 -7 5 47.1 11.7
-1 -7 5 59.19 9.5
0 -7 5 734.43 72.89
0 -7 5 703.93 69.59
-1 7 -5 10.4 6.7
1 -7 5 26.1 11.2
1 -7 5 22.8 4.8
1 -7 5 19.3 5.7
2 -7 5 3970.7 378.86
-3 7 -5 0.9 5.2
3 -7 5 3.2 2.7
3 -7 5 2.7 2.9
-4 7 -5 769.82 88.19
4 -7 5 736.13 76.09
-5 7 -5 147.59 34.3
5 -7 5 163.28 20.8
-6 7 -5 86.39 27.7
6 -7 5 133.09 18.2
-6 -7 6 -2 3.8
5 7 -6 5 3.2
-5 -7 6 -0.7 4.1
4 7 -6 62.29 8.4
-4 -7 6 45 13.2
3 7 -6 464.15 45.9
-3 -7 6 453.55 50.19
2 7 -6 2.6 1.8
-2 -7 6 -1.6 1.6
-2 -7 6 0.3 2.6
-2 -7 6 -0.8 3.6
1 7 -6 880.11 90.29
-1 -7 6 976.4 98.29
-1 -7 6 957.6 94.09
-1 -7 6 920.71 89.79
0 7 -6 165.08 19.6
0 -7 6 200.28 19.3
0 -7 6 155.88 21.4
-1 7 -6 -0.9 6.3
1 -7 6 8.8 8.5
1 -7 6 -3.4 2.4
-2 7 -6 1549.05 168.58
2 -7 6 1676.53 160.08
2 -7 6 1647.64 157.58
-3 7 -6 97.19 23.1
3 -7 6 85.49 12.4
3 -7 6 68.69 12.3
-4 7 -6 830.82 99.49
4 -7 6 870.81 86.49
-5 7 -6 645.64 80.19
5 -7 6 601.94 68.29
-6 7 -6 226.78 41.9
6 -7 6 260.77 30.8
-5 -7 7 3 4.4
4 7 -7 235.68 25.1
-4 -7 7 221.68 29.5
3 7 -7 92.89 12
-3 -7 7 95.29 15.5
2 7 -7 29.1 6.1
-2 -7 7 31 6
-2 -7 7 23.4 8.8
-1 -7 7 327.47 38.2
-1 -7 7 341.57 43.1
0 7 -7 54.39 10.1
0 -7 7 53.69 8.4
0 -7 7 82.39 12.5
1 -7 7 452.35 52.49
1 -7 7 618.04 57.59
-2 7 -7 2808.82 276.07
2 -7 7 2668.23 264.67
-3 7 -7 18.1 12.2
3 -7 7 35.9 9.8
3 -7 7 32.1 7.7
-4 7 -7 608.34 78.89
4 -7 7 641.44 65.59
-5 7 -7 11.1 9.3
5 -7 7 1.2 4.4
-4 -7 8 13.4 6.1
-3 -7 8 291.57 33.8
-3 -7 8 233.58 31.1
-3 -7 8 279.97 29
-2 -7 8 25.6 5.8
-2 -7 8 2.9 8.4
-2 -7 8 16.5 6.4
-1 -7 8 337.67 34.8
-1 -7 8 370.76 40
-1 -7 8 283.57 43.3
0 -7 8 58.69 13.5
0 -7 8 85.39 10.9
1 -7 8 313.47 35.8
1 -7 8 255.77 30.1
-2 7 -8 22.7 11.5
2 -7 8 7.4 3.9
2 -7 8 15.7 7.1
-3 7 -8 216.88 36.4
3 -7 8 210.58 27.8
3 -7 8 189.28 24.4
-4 7 -8 124.29 30.3
4 -7 8 116.49 16.7
4 -7 8 110.49 18.5
-2 -7 9 91.89 15.8
-2 -7 9 83.79 12.2
-1 -7 9 38.2 10.4
-1 -7 9 24.2 6.4
0 -7 9 -0.8 3
0 -7 9 0 2.7
1 -7 9 4.8 4
1 -7 9 0.2 3.4
-2 7 -9 1.3 3.8
2 -7 9 -3.8 4.1
2 -7 9 -5.1 3
2 8 9 42.4 9.4
1 8 9 303.27 36.2
-1 -8 -9 359.86 45.3
0 8 9 75.59 13.9
-1 8 9 362.46 40.6
-2 8 9 59.59 12.1
4 8 8 349.17 36
-4 -8 -8 265.27 47.4
3 8 8 11 4.5
-3 -8 -8 17.1 11.8
2 8 8 93.29 13.4
-2 -8 -8 84.19 22.3
1 8 8 71.09 13
-1 -8 -8 78.59 18.8
0 8 8 141.69 20.5
0 -8 -8 208.88 26.9
-1 8 8 19.6 5.6
-2 8 8 492.15 56.79
-2 8 8 528.15 54.79
-3 8 8 -1.1 3.5
-3 8 8 -1.1 2.9
-3 8 8 2.2 8
-4 8 8 111.09 15.3
-4 8 8 177.48 29.7
-4 8 8 76.89 16.2
5 8 7 80.19 14.3
-5 -8 -7 65.49 24.8
4 8 7 117.09 14.7
-4 -8 -7 75.69 22.6
3 8 7 177.88 20.7
-3 -8 -7 123.19 30.8
2 8 7 1048.6 105.69
-2 -8 -7 1102.69 117.09
1 8 7 3.2 2.1
-1 -8 -7 -5 4.4
0 8 7 1336.07 130.79
0 -8 -7 1333.47 134.29
-1 8 7 112.69 15.5
-3 8 7 474.05 47.3
-3 8 7 413.26 48.4
-4 8 7 170.18 31.8
-4 8 7 192.78 21.1
-4 8 7 149.59 22.5
-5 8 7 14 5.6
-5 8 7 38.5 13.2
6 8 6 4.9 4.4
-6 -8 -6 -0.6 10.3
5 8 6 58.09 11
-5 -8 -6 45.8 19.6
4 8 6 120.19 15.4
-4 -8 -6 110.89 27.1
3 8 6 64.79 9.6
-3 -8 -6 44 16.5
2 8 6 19 4.8
-2 -8 -6 15.3 7.9
1 8 6 2 3
-1 -8 -6 1 5.2
0 8 6 111.99 15.1
0 -8 -6 125.09 17.8
-1 8 6 235.68 26.8
-2 8 6 4.9 3.7
-2 8 6 -2.9 5.1
-3 8 6 15 9.1
-3 8 6 11.7 5.8
-3 8 6 17.7 6.1
-3 8 6 10.1 4.1
-4 8 6 4.1 2.9
-4 8 6 1.3 3.3
-5 8 6 201.78 22.3
-5 8 6 211.78 35
-6 8 6 72.79 10
-6 8 6 75.59 23.8
-6 8 6 55.19 13.5
6 8 5 161.48 20.1
-6 -8 -5 157.88 38.4
5 8 5 84.59 11.9
-5 -8 -5 68.09 23.1
-4 -8 -5 2161.38 223.08
3 8 5 1144.09 109.29
-3 -8 -5 1080.69 120.79
2 8 5 653.23 66.79
-2 -8 -5 697.23 76.69
1 8 5 1952 199.88
-1 -8 -5 2243.98 207.58
0 8 5 0.4 2.9
0 8 5 -0.2 2
0 -8 -5 -1.7 2.7
-1 8 5 984.8 96.99
-2 8 5 39.3 8.8
-2 8 5 58.69 9.8
-3 8 5 1172.28 119.89
-3 8 5 1081.29 117.39
-3 8 5 1450.75 133.19
-3 8 5 1265.07 120.79
-4 8 5 67.69 8.8
-4 8 5 64.19 10
-4 8 5 78.49 21.1
-5 8 5 360.86 38.9
-5 8 5 467.85 45.9
-5 8 5 380.26 41.1
-6 8 5 16.9 10.5
-6 8 5 21.5 6
-6 8 5 5.4 7.3
-6 8 5 6.9 2.8
7 8 4 71.39 12.9
-7 -8 -4 65.49 21
6 8 4 551.74 56.89
5 8 4 103.89 13.3
-5 -8 -4 80.79 24.4
4 8 4 157.88 20.1
-4 -8 -4 242.28 34.2
3 8 4 126.39 14.3
-3 -8 -4 86.79 22
2 8 4 478.25 50.19
-2 -8 -4 528.55 51.19
1 8 4 209.78 23.9
1 8 4 156.08 19
-1 -8 -4 176.98 19.7
-1 -8 -4 165.68 23.8
0 8 4 1040.1 99.59
0 8 4 1148.99 103.59
0 -8 -4 940.11 100.99
0 -8 -4 986.1 99.49
-1 8 4 466.95 51.49
-1 8 4 446.26 49.7
1 -8 -4 585.94 52.09
-2 8 4 700.23 66.89
-2 8 4 613.94 66.19
-3 8 4 46.4 6.3
-3 8 4 46.1 15.1
-3 8 4 46.1 7.9
-4 8 4 106.49 12.3
-4 8 4 140.19 24.7
-4 8 4 124.09 13.5
-5 8 4 24.6 6.7
-5 8 4 33.7 13
-6 8 4 17 6.1
-6 8 4 7.6 9.5
-7 8 4 19.7 12.7
-7 8 4 22.2 13.8
7 8 3 126.39 15.9
-7 -8 -3 109.39 31.9
-7 -8 -3 111.09 25.6
6 8 3 171.38 20.6
5 8 3 39.6 7.6
-5 -8 -3 45.7 17.5
-5 -8 -3 32.1 11.1
-4 -8 -3 230.48 31.1
3 8 3 249.28 25.8
-3 -8 -3 269.37 35.7
-3 -8 -3 270.17 26.8
-3 -8 -3 186.48 29.6
2 8 3 70.09 11
-2 -8 -3 48.4 7.5
-2 -8 -3 38 10.7
-2 -8 -3 57.39 14.7
1 8 3 1053.79 93.79
-1 -8 -3 940.21 98.69
-1 -8 -3 907.81 93.69
0 8 3 411.26 42.3
0 8 3 427.36 44.6
0 -8 -3 425.86 42.3
0 -8 -3 419.66 44
-1 8 3 409.66 46.3
-1 8 3 447.46 46.1
1 -8 -3 512.65 46
-2 8 3 1320.97 128.59
-2 8 3 1167.68 136.79
-2 8 3 1360.06 129.89
2 -8 -3 1485.65 129.29
-3 8 3 168.68 27.2
-3 8 3 158.48 16.6
-4 8 3 611.14 54.39
-4 8 3 507.95 53.69
-5 8 3 201.38 23.8
-5 8 3 159.08 30.8
-6 8 3 51.59 13.2
-7 8 3 36.4 16.1
-7 8 3 16.4 17.4
7 8 2 29.8 6.9
-7 -8 -2 16.3 8.5
6 8 2 183.88 21.4
5 8 2 98.89 11.7
5 8 2 64.69 19.3
-5 -8 -2 76.89 17.6
4 8 2 -1.7 1.2
-4 -8 -2 -2.4 2.4
-3 -8 -2 223.18 24.1
-3 -8 -2 225.48 28.7
2 8 2 15 3.3
2 8 2 17.1 5.6
-2 -8 -2 3.3 6.3
-2 -8 -2 19.4 4.1
1 8 2 23.7 4.4
1 8 2 28.2 6.6
-1 -8 -2 25.2 4.6
-1 -8 -2 29.6 7.5
0 8 2 402.86 40.6
0 8 2 327.57 38.7
0 -8 -2 398.06 41.6
0 -8 -2 439.66 39
-1 8 2 93.49 11.4
-1 8 2 99.59 11.8
-1 8 2 94.69 16.7
1 -8 -2 91.49 11
-2 8 2 742.93 80.69
-2 8 2 679.23 69.79
2 -8 -2 811.02 75.99
-3 8 2 100.89 20.2
3 -8 -2 108.29 13.3
-4 8 2 287.17 30.6
-4 8 2 271.47 40.5
-5 8 2 1047.4 108.99
-5 8 2 863.31 95.39
-6 8 2 9.6 11.6
-6 8 2 5.2 7.1
-7 8 2 24.6 9
-7 8 2 -2.4 7.5
7 8 1 27.6 6.6
-7 -8 -1 12.9 8.5
6 8 1 0.8 2.1
6 8 1 -11.2 8.1
-6 -8 -1 2.7 3.8
5 8 1 15.4 3.9
5 8 1 11.9 9.3
-5 -8 -1 9 6.2
4 8 1 38.1 6
-4 -8 -1 45.7 11.9
3 8 1 8.7 4.8
3 8 1 5 2
-3 -8 -1 8.8 4.7
2 8 1 2317.37 222.38
2 8 1 2509.75 229.68
-2 -8 -1 2601.84 228.18
-2 -8 -1 2031.7 222.68
1 8 1 185.58 20.8
1 8 1 203.38 18.5
-1 -8 -1 181.88 18.4
-1 -8 -1 138.29 20.6
0 8 1 1320.57 130.99
0 8 1 1468.75 137.29
0 8 1 1276.77 129.89
0 -8 -1 1547.85 129.79
0 -8 -1 1199.78 131.79
-1 8 1 545.65 57.89
1 -8 -1 563.94 49.8
1 -8 -1 479.75 50.19
1 -8 -1 453.45 50.29
-2 8 1 1535.25 137.79
-2 8 1 1539.75 155.78
2 -8 -1 1309.47 139.69
-3 8 1 230.38 26.1
3 -8 -1 280.27 27.5
-4 8 1 679.33 81.29
-4 8 1 706.03 71.69
-5 8 1 1445.66 162.38
-5 8 1 1589.24 153.38
-6 8 1 590.94 67.89
-7 8 1 337.47 52.39
7 8 0 39.6 8.7
-7 -8 0 34.7 11.6
6 8 0 305.07 38
6 8 0 288.77 31
-6 -8 0 276.47 36.9
5 8 0 2.1 2.2
5 8 0 -0.8 5.9
-5 -8 0 -1.4 2.9
4 8 0 2473.35 229.88
-4 -8 0 2362.76 235.98
3 8 0 879.11 79.79
-3 -8 0 686.23 79.69
2 8 0 819.02 76.09
-2 -8 0 773.52 80.79
1 8 0 300.97 31.3
1 8 0 293.67 33.6
1 8 0 354.76 37.2
-1 -8 0 340.07 31.3
-1 -8 0 333.57 35
0 8 0 289.47 29.6
0 -8 0 281.47 28
0 -8 0 289.87 30.4
-1 8 0 307.57 32.8
-1 8 0 337.07 40.6
1 -8 0 349.07 33.6
-2 8 0 726.73 82.69
2 -8 0 706.63 73.59
2 -8 0 757.92 72.39
2 -8 0 834.82 82.19
-3 8 0 591.34 62.89
-3 8 0 651.63 72.89
3 -8 0 612.54 61.59
-4 8 0 2018.9 210.88
-4 8 0 2323.47 222.38
-5 8 0 4.5 8.3
-5 8 0 0.3 5.7
-6 8 0 312.97 42.6
-7 8 0 61.39 24
-7 8 0 51.89 18.5
7 8 -1 863.71 74.79
7 8 -1 648.04 74.19
-7 -8 1 744.03 81.39
-6 -8 1 745.63 80.49
5 8 -1 1141.19 129.49
5 8 -1 1554.34 128.79
4 8 -1 603.14 61.99
4 8 -1 621.14 59.29
3 8 -1 301.47 28.8
-3 -8 1 211.58 30
2 8 -1 1892.81 184.48
2 8 -1 1935.21 185.08
1 8 -1 557.64 53.19
1 8 -1 500.15 55.59
-1 -8 1 515.05 53.59
0 8 -1 1323.37 129.69
0 8 -1 1397.36 135.89
0 -8 1 1397.36 127.69
0 -8 1 1279.07 130.19
-1 8 -1 169.68 19.5
-1 8 -1 193.68 27.4
1 -8 1 208.08 24.2
1 -8 1 201.18 20.2
1 -8 1 177.68 24.7
1 -8 1 178.88 19.3
-2 8 -1 2085.09 213.08
-2 8 -1 1927.91 205.08
2 -8 1 2258.67 211.38
2 -8 1 2215.98 201.48
-3 8 -1 7.2 6.9
-3 8 -1 9.2 4.9
3 -8 1 21.2 7.7
-4 8 -1 36.8 10.9
-4 8 -1 20.5 12.5
-5 8 -1 13.9 8
-5 8 -1 10.9 10.3
-6 8 -1 -5.3 5.5
-6 8 -1 -4 7.1
-7 8 -1 35.5 17.8
-7 8 -1 37.6 12.9
7 8 -2 10.2 3.9
-7 -8 2 2.7 5
6 8 -2 -0.1 3.6
6 8 -2 -3.1 2.9
-6 -8 2 9.6 6.2
5 8 -2 921.91 90.79
5 8 -2 955.3 90.99
-5 -8 2 945.11 97.19
4 8 -2 263.97 27.2
-4 -8 2 292.97 33.1
3 8 -2 100.39 9.6
-3 -8 2 91.49 14.3
2 8 -2 609.44 68.09
2 8 -2 691.63 65.09
-2 -8 2 615.34 65.19
1 8 -2 80.19 10.4
1 8 -2 51.89 11
-1 -8 2 84.39 10.8
0 8 -2 470.65 52.79
0 8 -2 460.95 46.9
0 -8 2 473.75 51.69
0 -8 2 401.66 49.5
0 -8 2 519.15 47.7
1 -8 2 28.4 5.8
1 -8 2 30 9.4
1 -8 2 41.6 11.3
-2 8 -2 9.7 7.6
-2 8 -2 16 6.2
2 -8 2 16.5 3.9
2 -8 2 11.7 6.9
2 -8 2 15.1 7.4
-3 8 -2 223.68 35.4
-3 8 -2 233.68 29.9
3 -8 2 225.08 23.4
3 -8 2 218.78 31.4
-4 8 -2 -1.7 5.2
4 -8 2 -1.1 1.2
4 -8 2 -1.6 2
4 -8 2 -2.2 4.1
-5 8 -2 84.29 27.3
-5 8 -2 127.09 23.5
5 -8 2 121.39 14
5 -8 2 119.49 13.2
-6 8 -2 176.88 32.4
6 -8 2 205.98 21.2
-7 8 -2 1.1 12.6
-7 8 -2 7.2 14.3
-7 -8 3 14.7 7.6
6 8 -3 41.1 7.7
-6 -8 3 36.8 11
5 8 -3 225.98 22.4
-5 -8 3 194.68 27.5
-4 -8 3 546.25 58.69
3 8 -3 187.18 17.8
-3 -8 3 173.58 22.9
-2 -8 3 1417.56 138.89
1 8 -3 444.36 49.2
1 8 -3 409.06 51.19
-1 -8 3 499.75 54.69
-1 -8 3 569.54 50.69
0 8 -3 470.25 51.79
0 8 -3 385.56 44.8
0 -8 3 451.05 42.5
0 -8 3 457.55 51.49
0 -8 3 450.15 45.5
-1 8 -3 1096.39 114.69
1 -8 3 1020.8 103.49
1 -8 3 1092.29 112.09
1 -8 3 1027.3 125.89
1 -8 3 1132.99 105.19
-2 8 -3 62.39 15
-2 8 -3 86.89 21.5
2 -8 3 54.89 15.8
2 -8 3 59.59 8.7
2 -8 3 43.4 13.7
2 -8 3 72.89 9.3
-3 8 -3 295.17 38.2
-3 8 -3 300.17 43.9
3 -8 3 305.67 30.9
3 -8 3 258.97 38.6
-4 8 -3 431.46 60.29
-4 8 -3 454.75 54.19
4 -8 3 416.56 43.6
-5 8 -3 24 11.5
-5 8 -3 33.1 17.7
5 -8 3 45 9
-6 8 -3 156.78 40.7
-6 8 -3 163.08 36.4
6 -8 3 176.28 20.9
-7 8 -3 122.19 36.8
7 -8 3 117.29 18.7
-7 -8 4 25.2 10.3
-6 -8 4 1.5 5.2
5 8 -4 40.5 6.1
-5 -8 4 36.4 10.2
4 8 -4 149.29 16.4
-4 -8 4 189.78 22.5
3 8 -4 46.7 5.5
-3 -8 4 56.49 11.4
2 8 -4 650.43 68.19
-2 -8 4 824.02 74.19
-1 -8 4 576.84 53.49
-1 -8 4 465.45 47.6
-1 -8 4 458.85 51.39
0 8 -4 933.61 105.09
0 -8 4 955.7 95.89
0 -8 4 1137.69 104.79
-1 8 -4 157.18 27.3
1 -8 4 182.98 19.2
1 -8 4 165.18 21.1
1 -8 4 197.98 27.2
1 -8 4 198.58 32.4
-2 8 -4 612.94 76.19
-2 8 -4 783.72 74.09
2 -8 4 602.84 73.89
2 -8 4 592.84 63.29
2 -8 4 637.54 64.39
-3 8 -4 91.59 27.1
-3 8 -4 114.89 20.8
3 -8 4 108.19 14.1
3 -8 4 107.39 14
-4 8 -4 266.27 37
-4 8 -4 229.38 39.8
4 -8 4 223.08 26.2
4 -8 4 233.48 27.3
-5 8 -4 113.09 27
-5 8 -4 92.69 29.5
5 -8 4 103.19 15.2
5 -8 4 93.09 15
-6 8 -4 489.75 72.29
-6 8 -4 682.23 85.99
6 -8 4 592.74 61.49
6 -8 4 581.84 62.49
-7 8 -4 75.79 24.6
-7 8 -4 58.69 24.6
7 -8 4 89.99 17.1
-6 -8 5 -0.2 4.6
-5 -8 5 476.05 53.49
4 8 -5 71.79 7.8
-4 -8 5 42.1 10.8
3 8 -5 1338.57 130.49
-3 -8 5 1409.36 136.29
2 8 -5 46 6.4
-2 -8 5 54.89 6.6
-2 -8 5 61.99 10.3
-1 -8 5 970.8 95.79
-1 -8 5 920.61 101.49
-1 -8 5 1137.59 100.99
0 -8 5 -1.4 1
0 -8 5 -2.1 1.9
0 -8 5 -0.5 3.6
1 -8 5 2231.58 199.18
1 -8 5 2202.28 201.88
1 -8 5 1794.42 208.38
2 -8 5 379.66 40.9
-3 8 -5 1359.46 136.79
3 -8 5 1264.77 125.89
3 -8 5 1236.78 125.09
-4 8 -5 3170.08 282.57
4 -8 5 2646.24 266.87
4 -8 5 2606.24 266.87
-5 8 -5 121.99 29.7
5 -8 5 57.29 12.4
-6 8 -5 193.88 42
6 -8 5 190.88 25.4
-6 -8 6 82.39 18.1
4 8 -6 -2 2.5
-4 -8 6 1.7 3.6
3 8 -6 15.5 3.5
-3 -8 6 8.1 4.2
2 8 -6 6.9 2.3
-2 -8 6 5 2.2
-2 -8 6 6.6 5.4
-2 -8 6 6.2 4.5
1 8 -6 216.08 25.4
-1 -8 6 227.68 24.8
-1 -8 6 282.27 29.8
-1 -8 6 268.37 32
0 -8 6 118.19 14.3
0 -8 6 123.89 22.5
0 -8 6 147.19 18.3
1 -8 6 3.9 3.1
1 -8 6 11.9 5.1
-2 8 -6 7.6 8.2
2 -8 6 12.3 4.6
2 -8 6 16.2 6.1
-3 8 -6 63.99 19.9
3 -8 6 74.89 14.3
3 -8 6 79.19 11.7
-4 8 -6 89.29 27.8
4 -8 6 110.09 16.1
4 -8 6 108.09 15.3
-5 8 -6 66.39 21.6
5 -8 6 49.4 11.4
-6 8 -6 11.3 10.6
6 -8 6 7.4 5.1
-5 -8 7 17.7 6.7
4 8 -7 204.68 21.4
-4 -8 7 168.68 25.2
3 8 -7 536.55 57.39
-3 -8 7 635.84 63.39
2 8 -7 28.8 6.3
-2 -8 7 35.8 6.1
1 8 -7 107.19 14.6
-1 -8 7 122.39 16.8
-1 -8 7 97.99 19.8
-1 -8 7 92.29 12.1
0 -8 7 1370.96 129.09
0 -8 7 1539.95 143.29
0 -8 7 1141.29 132.39
1 -8 7 -1.2 1.9
1 -8 7 -2 3.4
2 -8 7 1133.39 115.09
2 -8 7 1147.99 111.99
-3 8 -7 158.98 28.7
3 -8 7 150.58 18.2
3 -8 7 113.99 18.8
-4 8 -7 98.89 26.2
4 -8 7 94.59 15.5
4 -8 7 90.49 16.4
-5 8 -7 73.59 22.7
5 -8 7 96.79 15.8
5 -8 7 72.79 15.3
-4 -8 8 180.48 25.6
-3 -8 8 -5.8 3.9
-3 -8 8 1.8 3
-2 -8 8 563.44 62.49
-2 -8 8 729.03 69.39
-1 -8 8 21.3 10.8
-1 -8 8 26.2 5.6
-1 -8 8 12 6.1
0 -8 8 143.09 20.2
0 -8 8 138.19 16.7
1 -8 8 75.29 16.1
1 -8 8 76.79 11.2
-2 8 -8 115.89 29.5
2 -8 8 103.29 14.1
2 -8 8 91.19 16.1
-3 8 -8 73.29 22.4
3 -8 8 48.5 12.2
3 -8 8 22.8 8
-4 8 -8 373.36 52.69
4 -8 8 329.67 38.3
4 -8 8 330.17 40.7
-2 -8 9 70.59 15.6
-2 -8 9 49.1 9.4
-1 -8 9 396.46 48.3
-1 -8 9 436.86 43.7
0 -8 9 71.79 11.3
0 -8 9 93.99 18.1
1 -8 9 443.36 47.6
1 -8 9 356.66 41.2
3 9 8 2.4 2.8
-3 -9 -8 7.6 9.2
2 9 8 51.79 10.7
-2 -9 -8 53.69 17.3
1 9 8 23.1 6
-1 -9 -8 34.7 12.2
0 9 8 1270.47 125.69
-1 9 8 -1.4 3.5
-2 9 8 195.88 24.9
-3 9 8 34.8 14.9
-3 9 8 25.8 8
-3 9 8 41.3 9.3
4 9 7 215.78 26
-4 -9 -7 239.78 39.5
3 9 7 134.89 17.7
-3 -9 -7 157.78 27.9
-2 -9 -7 622.34 73.69
1 9 7 384.26 43.6
-1 -9 -7 450.45 50.99
0 9 7 840.12 85.59
0 -9 -7 864.61 88.09
-2 9 7 1044.7 104.79
-3 9 7 674.43 70.89
-3 9 7 689.23 73.39
-3 9 7 778.52 86.49
-4 9 7 371.96 37.9
-4 9 7 333.37 50.29
5 9 6 42.6 9.1
-5 -9 -6 26.2 13.9
4 9 6 650.83 62.39
-4 -9 -6 538.95 75.09
3 9 6 310.77 35.1
-3 -9 -6 358.56 47.1
2 9 6 5.6 2.4
-2 -9 -6 -4.7 6.1
1 9 6 357.06 34
-1 -9 -6 258.77 37.9
0 9 6 1425.96 136.39
0 -9 -6 1371.86 137.99
-1 9 6 19.5 5.7
-2 9 6 705.73 77.59
-2 9 6 830.32 80.29
-3 9 6 8.8 4.3
-3 9 6 9.1 4.1
-3 9 6 26.3 19.7
-4 9 6 161.28 27.3
-4 9 6 135.69 17.4
-4 9 6 107.09 14.2
-5 9 6 98.09 24.6
-5 9 6 43.1 9.5
-6 -9 -5 692.73 89.59
5 9 5 75.59 10.6
-5 -9 -5 54.89 17.7
4 9 5 263.17 31.2
-4 -9 -5 358.36 46.8
3 9 5 310.47 31.5
-3 -9 -5 256.27 40
2 9 5 3.1 2.5
-2 -9 -5 1.1 6.6
1 9 5 0.7 2.2
-1 -9 -5 -2.4 3.8
0 9 5 -2 3.4
0 9 5 12.5 4
0 -9 -5 0.9 2.5
-1 9 5 136.59 18.6
-2 9 5 -2 3.2
-2 9 5 -2.4 1.8
-3 9 5 118.59 14
-3 9 5 129.89 15.8
-3 9 5 84.09 16.5
-3 9 5 149.88 26
-4 9 5 32.6 4.7
-4 9 5 23.4 6.2
-5 9 5 7.3 7.2
-6 9 5 -4.2 8.9
6 9 4 235.78 26.2
-6 -9 -4 204.58 39.5
5 9 4 5.1 3.1
-5 -9 -4 -2.8 8.9
4 9 4 385.46 40.3
-4 -9 -4 391.36 52.99
3 9 4 149.39 17.4
2 9 4 106.89 13.2
-2 -9 -4 107.79 14.9
-2 -9 -4 112.19 19.9
1 9 4 9.8 3.5
1 9 4 10.8 6
-1 -9 -4 6.5 6.1
-1 -9 -4 12.9 3.7
0 9 4 35 6.8
0 9 4 36.9 9.1
0 -9 -4 31.7 7.5
0 -9 -4 33.4 6.7
-1 9 4 350.26 36.3
-1 9 4 304.47 34.6
-2 9 4 564.94 55.49
-2 9 4 518.15 55.69
-3 9 4 115.09 13.3
-3 9 4 129.09 14.5
-3 9 4 129.79 24.2
-4 9 4 272.47 28.1
-4 9 4 324.17 44.5
-4 9 4 298.77 28.3
-6 9 4 622.64 76.39
-6 9 4 545.35 58.19
7 9 3 25.4 7.6
-7 -9 -3 19 9.6
-7 -9 -3 13.4 13.5
6 9 3 256.27 27
-6 -9 -3 261.27 42.3
-6 -9 -3 195.28 32.7
5 9 3 12.8 3.8
-5 -9 -3 8.3 7
-4 -9 -3 339.87 42.1
3 9 3 856.41 79.99
-3 -9 -3 755.12 78.69
-3 -9 -3 790.42 84.89
2 9 3 73.69 8.9
-2 -9 -3 63.49 9.3
-2 -9 -3 75.99 17
-2 -9 -3 53.49 13.2
1 9 3 202.28 24.3
1 9 3 197.48 21.2
-1 -9 -3 191.78 25.7
0 9 3 12.8 4.4
0 9 3 8.2 2.9
0 -9 -3 11.4 4
-1 9 3 363.56 37
-1 9 3 308.67 37.6
1 -9 -3 368.16 36
-2 9 3 163.08 18
-2 9 3 173.68 19.7
-2 9 3 155.38 25.9
-3 9 3 56.59 6.2
-3 9 3 59.69 6.1
-3 9 3 35.8 14.5
-4 9 3 1128.59 124.19
-5 9 3 330.27 48.2
-6 9 3 350.96 40.8
-6 9 3 384.66 53.79
-7 9 3 845.62 96.69
-7 9 3 657.63 77.59
7 9 2 21.1 5.8
-7 -9 -2 3.3 7.2
6 9 2 53.79 9.8
-6 -9 -2 60.49 16.3
5 9 2 2.3 2.2
-5 -9 -2 -1.8 4.4
4 9 2 813.12 75.39
-4 -9 -2 707.03 81.79
3 9 2 47.1 6.5
-3 -9 -2 54.79 8.4
-3 -9 -2 32.8 10.6
-2 -9 -2 1137.39 108.59
-2 -9 -2 1113.19 113.69
1 9 2 578.94 52.59
1 9 2 556.64 49.3
-1 -9 -2 406.26 48.8
-1 -9 -2 471.05 53.09
0 9 2 10.2 4
0 9 2 8.4 2.8
0 -9 -2 11 2.8
0 -9 -2 3.3 2.3
-1 9 2 411.26 54.09
-1 9 2 503.05 47.5
-1 9 2 422.26 47.4
1 -9 -2 539.75 47.4
-2 9 2 732.23 77.09
-2 9 2 652.73 64.49
2 -9 -2 653.63 66.19
-3 9 2 13.1 8.5
-4 9 2 528.75 69.19
-4 9 2 583.44 54.99
-5 9 2 37.2 8.6
-5 9 2 16.4 10.9
-6 9 2 471.05 49.99
-6 9 2 375.56 58.99
-7 9 2 125.59 31.8
-7 9 2 125.09 27.9
7 9 1 303.77 30.7
7 9 1 276.37 45.1
-7 -9 -1 228.58 36.8
6 9 1 190.78 23
6 9 1 244.18 35.3
5 9 1 374.36 49.9
5 9 1 430.46 41.4
-5 -9 -1 401.76 48.3
4 9 1 626.14 61.29
3 9 1 540.75 46.4
-3 -9 -1 373.16 50.79
2 9 1 863.51 79.69
-2 -9 -1 863.51 80.29
-2 -9 -1 750.42 84.59
1 9 1 15.3 4
1 9 1 9.2 2.2
-1 -9 -1 8.6 4.2
-1 -9 -1 10.1 2.5
0 9 1 1418.96 142.89
0 9 1 1437.86 150.08
0 9 1 1553.94 144.19
0 -9 -1 1689.53 146.09
0 -9 -1 1397.66 142.29
-1 9 1 572.44 55.19
-1 9 1 592.64 65.89
1 -9 -1 576.04 55.09
1 -9 -1 541.95 56.39
1 -9 -1 542.95 56.09
-2 9 1 1621.14 152.58
-2 9 1 1359.96 163.18
2 -9 -1 1828.22 154.98
-3 9 1 999.6 111.09
3 -9 -1 1033 99.79
-4 9 1 299.57 32.4
-4 9 1 284.37 42.7
-5 9 1 864.41 90.29
-5 9 1 891.11 103.09
-6 9 1 85.89 19.5
-6 9 1 73.09 24
-7 9 1 85.49 26
-7 9 1 41.7 14.3
7 9 0 71.89 11.1
7 9 0 43.8 13.5
-7 -9 0 59.19 16.3
6 9 0 48 8
6 9 0 34.4 12.1
-6 -9 0 40 12.3
5 9 0 3 1.8
5 9 0 -7.7 5.5
-5 -9 0 -5.7 3.3
4 9 0 66.59 7.6
-4 -9 0 44.2 11.7
3 9 0 8.8 1.8
-3 -9 0 10.2 4.9
2 9 0 554.64 52.69
2 9 0 634.34 56.79
-2 -9 0 444.16 56.29
1 9 0 1.5 1.5
-1 -9 0 -1.6 1.4
-1 -9 0 0.5 0.7
0 9 0 1.8 2.7
0 -9 0 1.1 0.8
0 -9 0 -1.6 1.9
0 -9 0 1.3 1.8
-1 9 0 3.3 1.5
-1 9 0 0.2 3.3
1 -9 0 -0.4 0.9
1 -9 0 0 1.4
1 -9 0 2.7 2
-2 9 0 565.54 64.09
2 -9 0 513.85 56.29
2 -9 0 548.55 53.49
2 -9 0 528.45 52.39
-3 9 0 5.7 4.6
-3 9 0 8.5 3.5
3 -9 0 17.3 4.4
-4 9 0 66.59 21
-4 9 0 77.49 13.1
-5 9 0 3 7.8
-5 9 0 -5.2 5.5
-6 9 0 22.1 12.8
-6 9 0 58.09 22
-7 9 0 45.3 21.6
-7 9 0 68.29 17.2
7 9 -1 60.59 8.3
7 9 -1 41.9 8.9
-7 -9 1 45.5 13.1
6 9 -1 78.39 11.3
6 9 -1 96.29 11.7
-6 -9 1 104.89 17.4
5 9 -1 880.61 85.29
-5 -9 1 883.41 92.59
4 9 -1 241.08 30.7
4 9 -1 300.47 28
4 9 -1 303.47 30.2
-4 -9 1 277.07 34.1
3 9 -1 907.81 94.29
-3 -9 1 1024.4 97.69
2 9 -1 1777.02 147.99
2 9 -1 1275.97 147.49
1 9 -1 742.73 67.29
1 9 -1 632.14 70.29
-1 -9 1 629.54 67.49
0 9 -1 1716.23 165.48
0 -9 1 1514.05 155.78
0 -9 1 1863.71 163.08
0 -9 1 1549.34 158.78
-1 9 -1 7.2 2.5
-1 9 -1 4.4 5.3
1 -9 1 17.3 6.4
1 -9 1 7 2.3
1 -9 1 9.6 5.5
1 -9 1 10.9 3.3
-2 9 -1 843.12 92.09
2 -9 1 773.32 85.79
2 -9 1 885.81 79.89
2 -9 1 851.11 89.29
2 -9 1 761.52 80.29
-3 9 -1 598.24 75.29
-3 9 -1 679.13 67.39
3 -9 1 618.94 69.19
-4 9 -1 717.73 77.99
-4 9 -1 526.75 64.49
-5 9 -1 337.57 44.2
-5 9 -1 348.07 52.39
-6 9 -1 224.78 35.6
-6 9 -1 283.97 46.9
-7 9 -1 297.57 48.5
-7 9 -1 226.58 39.6
7 9 -2 241.58 24.9
7 9 -2 171.68 21.1
-7 -9 2 163.68 26.6
6 9 -2 692.13 61.19
6 9 -2 587.14 60.59
-6 -9 2 546.75 67.19
5 9 -2 34.2 5.2
5 9 -2 35 5.7
-5 -9 2 30.3 9.6
4 9 -2 622.64 58.29
4 9 -2 599.14 58.49
-3 -9 2 26.1 8
2 9 -2 723.43 72.59
2 9 -2 701.83 72.29
-2 -9 2 715.63 72.99
1 9 -2 638.34 61.59
1 9 -2 537.25 56.69
-1 -9 2 563.44 62.19
-1 -9 2 514.35 57.19
0 9 -2 7 2.8
0 9 -2 9.4 5.7
0 -9 2 6 2.2
0 -9 2 6.8 1.6
0 -9 2 5.6 4.9
0 -9 2 9.4 3.8
0 -9 2 9.4 5
-1 9 -2 738.03 71.89
1 -9 2 580.14 60.09
1 -9 2 627.24 66.79
1 -9 2 508.25 64.89
-2 9 -2 1194.38 132.99
2 -9 2 1284.57 129.09
2 -9 2 1243.88 130.09
2 -9 2 1273.67 120.59
-3 9 -2 54.69 18.5
-3 9 -2 50.79 13.1
3 -9 2 51.99 6.6
3 -9 2 27.9 11
-4 9 -2 728.63 76.79
-4 9 -2 760.82 87.09
4 -9 2 676.13 69.09
4 -9 2 747.13 79.49
4 -9 2 626.54 66.59
-5 9 -2 0.8 4.9
-5 9 -2 5.7 9.1
5 -9 2 2.4 1.9
5 -9 2 2.7 1.6
-6 9 -2 86.29 27.2
-6 9 -2 55.09 17.3
6 -9 2 54.99 6.3
-7 9 -2 -10.9 9.4
-7 9 -2 8.9 13.1
7 9 -3 800.92 79.49
-7 -9 3 803.92 87.49
6 9 -3 433.46 42.6
6 9 -3 443.36 42.2
-6 -9 3 361.16 48.1
5 9 -3 374.36 32.5
5 9 -3 267.57 32.3
-5 -9 3 353.46 39.8
4 9 -3 993.8 93.29
-4 -9 3 971.3 100.59
-3 -9 3 76.59 12.7
-2 -9 3 219.38 26.2
1 9 -3 270.27 37
1 9 -3 371.96 35.5
-1 -9 3 340.07 40.4
-1 -9 3 313.97 35.1
0 9 -3 10.9 6
0 9 -3 8.2 3.3
0 -9 3 10.3 2
0 -9 3 15.2 5.3
0 -9 3 6.8 5.3
0 -9 3 11.1 3.8
-1 9 -3 193.98 29.4
1 -9 3 170.28 26
1 -9 3 185.08 19.3
1 -9 3 205.08 21.2
1 -9 3 142.39 24.6
-2 9 -3 97.69 16.6
-2 9 -3 83.29 22.2
2 -9 3 69.59 18.1
2 -9 3 87.69 11.4
2 -9 3 93.49 17.9
2 -9 3 90.49 11.5
-3 9 -3 892.21 94.99
-3 9 -3 909.91 103.79
3 -9 3 773.12 96.49
3 -9 3 936.21 87.19
3 -9 3 908.91 88.09
-4 9 -3 446.96 53.99
-4 9 -3 385.16 59.09
4 -9 3 442.16 43.7
-5 9 -3 8.5 10.1
-5 9 -3 10.9 8.5
5 -9 3 10.4 3.7
5 -9 3 14.7 4.8
-6 9 -3 251.17 43.3
-6 9 -3 281.07 51.79
6 -9 3 320.57 32.1
6 -9 3 300.97 31
-7 9 -3 45.4 22.5
-7 9 -3 28.4 21.5
7 -9 3 24.7 5.3
6 9 -4 684.33 65.89
-6 -9 4 661.93 73.79
5 9 -4 -1 2.1
-5 -9 4 -0.3 3.7
4 9 -4 296.17 30.8
-4 -9 4 380.26 38.9
-3 -9 4 170.98 22.5
-2 -9 4 729.23 74.99
-1 -9 4 305.57 30.8
-1 -9 4 318.37 36
-1 -9 4 358.76 36.2
0 9 -4 29.9 11
0 -9 4 29 4
0 -9 4 29.9 7.2
0 -9 4 24.6 9.4
-1 9 -4 10.8 8.8
1 -9 4 15.9 8
1 -9 4 9.9 3.1
1 -9 4 9.7 4
-2 9 -4 106.89 19.1
-2 9 -4 100.49 25.8
2 -9 4 112.09 14.8
2 -9 4 107.59 13.4
-3 9 -4 283.77 36.2
-3 9 -4 238.38 40.7
3 -9 4 256.17 27.6
3 -9 4 218.78 27.1
-4 9 -4 438.06 57.19
-4 9 -4 472.65 65.99
4 -9 4 466.05 47.1
4 -9 4 433.66 48
-5 9 -4 10.8 10.4
-5 9 -4 -0.6 10.6
5 -9 4 10.8 5.2
5 -9 4 2 3.3
5 -9 4 1.5 5
-6 9 -4 212.88 44.3
-6 9 -4 273.67 41.2
6 -9 4 200.08 26.6
6 -9 4 247.58 28
6 -9 4 253.27 29.9
-6 -9 5 -3.3 4.1
5 9 -5 -4.6 2.5
-5 -9 5 2.8 4.8
4 9 -5 37.6 7
3 9 -5 113.99 12.7
-3 -9 5 159.38 19.4
-2 -9 5 -0.6 3
-1 -9 5 153.98 23.6
-1 -9 5 207.58 23.9
-1 -9 5 198.78 19
0 -9 5 1 1.3
0 -9 5 3.1 5
0 -9 5 -0.2 2.5
1 -9 5 -4.8 4.9
1 -9 5 -0.2 1.8
1 -9 5 -1.3 1
-2 9 -5 2.7 2.8
2 -9 5 2 2.5
2 -9 5 4.7 3.2
-3 9 -5 258.97 46.3
-3 9 -5 365.46 45.3
3 -9 5 326.27 35
3 -9 5 303.27 34
-4 9 -5 373.86 51.59
-4 9 -5 397.86 59.59
4 -9 5 369.36 41.4
4 -9 5 389.66 41.4
-5 9 -5 65.79 27.7
-5 9 -5 70.09 21.7
5 -9 5 72.59 14.1
5 -9 5 72.89 11.8
-6 9 -5 831.42 94.09
6 -9 5 744.93 78.39
6 -9 5 708.73 75.69
5 9 -6 69.69 9.6
-5 -9 6 76.79 16.7
4 9 -6 178.38 18.9
-4 -9 6 172.08 24.6
3 9 -6 13.5 3.3
-3 -9 6 4.9 5.2
2 9 -6 792.52 80.29
-2 -9 6 970.9 86.99
-2 -9 6 779.32 80.19
-1 -9 6 26.3 7.7
-1 -9 6 31.7 9.4
-1 -9 6 25.8 4.8
0 -9 6 1473.75 127.89
0 -9 6 1129.49 136.19
0 -9 6 1369.06 132.29
1 -9 6 365.86 40.1
1 -9 6 353.76 36.9
-2 9 -6 4.3 5.2
2 -9 6 5.6 3.2
2 -9 6 -0.1 2.2
-3 9 -6 493.45 60.39
3 -9 6 394.56 47.2
3 -9 6 490.55 49.6
-4 9 -6 598.94 73.99
4 -9 6 583.84 61.59
4 -9 6 590.64 62.29
-5 9 -6 38.3 17
5 -9 6 38.9 9.5
5 -9 6 46 10.5
4 9 -7 315.67 37.5
-4 -9 7 372.26 42
3 9 -7 754.32 72.19
-3 -9 7 714.63 78.09
2 9 -7 958.6 94.09
-2 -9 7 975 93.89
-2 -9 7 975 99.69
-1 -9 7 378.46 47.9
-1 -9 7 423.26 40.7
0 -9 7 822.72 85.19
1 -9 7 435.36 46.4
1 -9 7 394.86 42.3
-2 9 -7 442.46 56.39
2 -9 7 408.26 45.6
2 -9 7 380.36 42.2
-3 9 -7 207.78 36.1
3 -9 7 209.38 26.1
3 -9 7 257.07 29.3
-4 9 -7 292.77 44.1
4 -9 7 258.87 33.1
-3 -9 8 34.1 11.4
2 9 -8 202.98 25.7
-2 -9 8 233.88 25.3
-2 -9 8 242.88 30.5
-2 -9 8 257.97 30.3
-1 -9 8 1 2.6
-1 -9 8 3.9 8.9
-1 -9 8 -0.1 2.3
0 -9 8 1132.19 120.99
0 -9 8 1249.97 116.09
1 -9 8 49.3 12.1
1 -9 8 40 8.3
2 -9 8 66.39 15
2 -9 8 52.09 10.1
-3 9 -8 6.1 9.1
3 -9 8 -4.8 3.2
3 -9 8 -6.5 4.4
2 10 8 19.4 5.4
-2 -10 -8 21.3 11.9
1 10 8 554.74 58.29
-1 -10 -8 558.44 63.79
0 10 8 127.39 17.7
-1 10 8 333.87 38.1
-2 10 8 299.97 35.4
4 10 7 53.39 10.6
3 10 7 198.38 24.3
-3 -10 -7 231.58 35.5
2 10 7 438.66 43.1
-2 -10 -7 348.57 49.5
1 10 7 27.6 7.1
0 10 7 136.59 19.9
0 -10 -7 196.18 22.7
-1 10 7 83.69 12.7
-2 10 7 24 6.6
-3 10 7 307.17 33.4
-3 10 7 235.08 29.5
-3 10 7 327.97 45.8
-4 10 7 -1.4 3.5
-4 10 7 -6.1 5.4
5 10 6 -3.4 2.8
-5 -10 -6 -4.4 10.2
-4 -10 -6 164.28 30.2
3 10 6 30.9 6.8
-3 -10 -6 23.6 12
2 10 6 0.1 2.4
-2 -10 -6 -4.3 6.5
1 10 6 29.1 5.8
-1 -10 -6 3.6 6.1
0 10 6 107.59 16.1
0 -10 -6 152.48 17.9
-1 10 6 72.59 11.1
-2 10 6 72.59 14.8
-2 10 6 74.49 13.1
-3 10 6 51.09 8.4
-3 10 6 53.69 11.1
-3 10 6 58.29 19.3
-3 10 6 59.39 15.6
-4 10 6 64.89 11.5
-4 10 6 60.79 20.2
-4 10 6 91.09 10.5
-5 10 6 401.76 39.3
-5 10 6 390.16 56.79
5 10 5 102.19 13.9
4 10 5 174.68 22.3
-4 -10 -5 267.17 38.4
3 10 5 35.3 7.3
-3 -10 -5 22.6 12
2 10 5 119.39 15.2
1 10 5 247.08 26.4
-1 -10 -5 224.68 30.9
0 10 5 191.88 22.2
0 -10 -5 192.98 22.5
-1 10 5 155.08 19.3
-1 10 5 158.88 20.9
-2 10 5 274.07 37.2
-2 10 5 218.98 26.1
-2 10 5 192.58 25.4
-3 10 5 106.69 12.8
-3 10 5 100.89 14.1
-3 10 5 125.39 24.6
-4 10 5 264.27 42.7
-4 10 5 288.97 28.3
-5 10 5 -10.2 7
6 10 4 748.53 67.19
-6 -10 -4 503.25 81.19
-5 -10 -4 2409.86 249.58
4 10 4 17.3 5.1
-4 -10 -4 5.3 9.8
3 10 4 1696.03 161.68
-3 -10 -4 1660.73 173.78
2 10 4 57.99 8.1
-2 -10 -4 35.9 13.5
1 10 4 587.44 55.89
-1 -10 -4 519.15 60.59
0 10 4 188.98 21.7
0 10 4 215.18 24.5
0 -10 -4 181.68 21.8
-1 10 4 1808.42 175.68
-1 10 4 1833.72 176.68
-2 10 4 113.59 21.8
-2 10 4 83.59 13.9
-2 10 4 129.29 14.5
-3 10 4 1160.68 120.39
-3 10 4 1037.6 103.39
-4 10 4 23.9 11.8
-5 10 4 644.04 81.39
-6 10 4 60.59 21.4
-6 -10 -3 171.98 40.3
-6 -10 -3 196.78 30.6
5 10 3 200.78 20.3
-5 -10 -3 128.19 24.5
4 10 3 1524.95 133.29
-4 -10 -3 1194.68 140.09
3 10 3 25.7 5.5
-3 -10 -3 22.7 9.1
-3 -10 -3 31.2 6.3
2 10 3 854.31 77.79
-2 -10 -3 663.43 82.59
-2 -10 -3 895.41 78.69
-2 -10 -3 735.83 85.49
1 10 3 60.59 7.9
1 10 3 52.59 10.7
-1 -10 -3 60.49 10
-1 -10 -3 62.19 13.7
-1 -10 -3 38.7 11
0 10 3 652.43 66.29
0 -10 -3 733.93 64.59
0 -10 -3 578.54 65.19
-1 10 3 165.98 18.9
-1 10 3 168.98 26.8
-1 10 3 151.68 18.7
-2 10 3 1.2 4.9
-2 10 3 -0.7 1.8
-3 10 3 60.19 18.4
-4 10 3 1.1 5.1
-5 10 3 283.97 45.9
-6 10 3 21 14
7 10 2 159.18 19.7
6 10 2 -2.9 2.9
-6 -10 -2 -5 3.6
-5 -10 -2 156.48 25
4 10 2 35.7 6.4
-4 -10 -2 32.2 11.5
3 10 2 6.6 2.3
-3 -10 -2 0.3 4
-3 -10 -2 2.4 2.5
2 10 2 122.99 13.3
-2 -10 -2 107.49 17.5
-2 -10 -2 120.09 13.8
1 10 2 154.38 17.8
1 10 2 181.48 20.9
-1 -10 -2 183.08 18.2
-1 -10 -2 148.49 21.6
0 10 2 -1.5 1.4
0 10 2 -2.1 2.2
0 -10 -2 -2.6 1.2
0 -10 -2 4.6 3
-1 10 2 14.3 3.8
-1 10 2 9.5 6.3
1 -10 -2 11.8 3.1
-2 10 2 83.09 9.5
-2 10 2 68.09 19.4
2 -10 -2 98.89 11.1
-3 10 2 207.08 33.3
-4 10 2 3.4 6.2
-5 10 2 3 3
-5 10 2 8.6 12
-6 10 2 45.9 10.6
-6 10 2 43.4 17.9
-7 10 2 163.78 24.9
-7 10 2 124.39 34.7
7 10 1 111.79 13.9
-7 -10 -1 76.49 20.1
6 10 1 211.78 23.3
6 10 1 228.18 34.5
-6 -10 -1 185.68 30
5 10 1 150.28 16.2
-5 -10 -1 121.89 21.7
4 10 1 30.9 5.4
-4 -10 -1 36.9 10.8
3 10 1 250.07 24.5
-3 -10 -1 226.78 30.1
2 10 1 2180.38 201.98
-2 -10 -1 2268.97 208.58
-2 -10 -1 1963.4 202.28
1 10 1 11.3 2.6
-1 -10 -1 5 1.8
-1 -10 -1 2.9 3.7
0 10 1 2307.47 214.18
0 10 1 2163.18 205.08
0 -10 -1 1891.71 203.18
0 -10 -1 2248.08 207.08
-1 10 1 549.35 50.09
-1 10 1 517.65 59.69
1 -10 -1 492.25 51.49
1 -10 -1 432.76 50.79
1 -10 -1 536.85 49.9
-2 10 1 788.42 78.49
-2 10 1 822.42 91.89
2 -10 -1 870.41 80.89
-3 10 1 1519.75 160.08
-4 10 1 32.6 14.5
-4 10 1 43.8 7
-5 10 1 74.79 23.1
-5 10 1 78.19 13.2
-6 10 1 75.49 25.9
-6 10 1 80.39 16.9
-7 10 1 -9.3 9.6
7 10 0 169.38 18.9
-7 -10 0 143.09 25.1
6 10 0 100.29 14.4
6 10 0 72.19 17.2
-6 -10 0 103.29 21.3
5 10 0 465.35 56.79
5 10 0 497.85 49.7
-5 -10 0 570.04 58.99
4 10 0 244.88 24.8
-4 -10 0 252.97 32
3 10 0 2356.56 227.08
-3 -10 0 2465.85 234.78
2 10 0 543.65 55.49
2 10 0 559.74 58.29
-2 -10 0 498.05 56.59
1 10 0 1214.08 124.59
-1 -10 0 1205.68 116.49
-1 -10 0 1268.97 121.39
0 10 0 753.12 73.39
0 10 0 729.53 80.49
0 -10 0 746.53 74.59
-1 10 0 1302.27 124.99
-1 10 0 1033.4 112.89
1 -10 0 1060.59 112.59
1 -10 0 1171.38 116.89
1 -10 0 1378.46 114.99
-2 10 0 511.85 61.39
2 -10 0 472.05 49.2
2 -10 0 487.35 53.29
2 -10 0 537.85 50.19
-3 10 0 2362.56 229.18
3 -10 0 2129.09 214.08
-4 10 0 259.67 29.5
-4 10 0 227.38 38.1
-5 10 0 552.24 55.99
-5 10 0 424.06 64.99
-6 10 0 140.49 34.6
-6 10 0 96.49 20.4
-7 10 0 155.98 39.7
-7 10 0 140.79 25.8
7 10 -1 -1.2 3.3
-7 -10 1 4.1 5.4
6 10 -1 79.29 9.7
6 10 -1 67.69 10.3
-6 -10 1 54.79 15.7
5 10 -1 69.89 9.7
5 10 -1 92.59 10.8
5 10 -1 85.09 9.7
-5 -10 1 71.39 16.3
4 10 -1 25.6 6.1
4 10 -1 32.7 3.8
4 10 -1 31.7 7.6
4 10 -1 25.5 3.7
-4 -10 1 20 8.4
3 10 -1 2187.58 220.58
-3 -10 1 2403.96 223.48
2 10 -1 816.52 89.69
-2 -10 1 960 89.99
1 10 -1 593.54 62.39
1 10 -1 531.55 57.09
-1 -10 1 574.94 58.69
0 10 -1 2610.74 233.88
0 10 -1 2206.18 224.48
0 -10 1 2085.19 221.98
0 -10 1 2273.37 228.78
0 -10 1 2650.03 226.28
-1 10 -1 3.9 2.1
-1 10 -1 -2.1 6.4
1 -10 1 3.3 4.5
1 -10 1 3.7 2
1 -10 1 4.7 1.8
-2 10 -1 2187.88 221.08
2 -10 1 2127.29 207.68
2 -10 1 2212.18 207.28
-3 10 -1 261.37 28.9
-3 10 -1 221.98 36.7
3 -10 1 190.18 25
3 -10 1 260.97 31.8
-4 10 -1 55.29 19.5
-4 10 -1 30.8 9.9
-5 10 -1 53.79 19.8
-6 10 -1 185.88 39.2
-6 10 -1 223.48 32.5
-7 10 -1 103.59 32.1
-7 10 -1 75.39 21.4
7 10 -2 132.19 16.5
-7 -10 2 131.89 22.2
6 10 -2 53.59 8.5
6 10 -2 66.29 8.2
-6 -10 2 70.19 16.4
5 10 -2 9.8 2.4
-5 -10 2 2.8 4.4
-4 -10 2 -0.6 2.8
3 10 -2 294.97 30
2 10 -2 90.59 14
-2 -10 2 86.79 13.8
1 10 -2 10.8 6.8
1 10 -2 16 5
-1 -10 2 16.8 5.9
-1 -10 2 13.8 7
0 10 -2 -0.3 2.1
0 10 -2 -1.1 5.6
0 -10 2 -0.7 1.7
0 -10 2 1.2 0.8
0 -10 2 0.2 0.6
-1 10 -2 110.19 23.6
1 -10 2 151.38 17
1 -10 2 221.68 26.3
1 -10 2 158.38 18.6
1 -10 2 185.28 24.8
-2 10 -2 176.98 28.7
2 -10 2 137.99 16.6
2 -10 2 142.89 22.8
-3 10 -2 5.8 5.5
-3 10 -2 9.7 8
3 -10 2 16.1 10.1
3 -10 2 7.6 2.6
-4 10 -2 35.3 17.2
-4 10 -2 44.8 13.1
4 -10 2 62.89 6.9
4 -10 2 37.3 13.6
-5 10 -2 204.38 30.3
-5 10 -2 234.98 40
5 -10 2 198.88 18.5
5 -10 2 170.98 18.2
-6 10 -2 10.2 11.9
-6 10 -2 9.8 9.6
-7 10 -2 74.99 22.9
-7 10 -2 69.19 26.4
6 10 -3 9.3 3.8
6 10 -3 6 3.5
-6 -10 3 17.1 9
5 10 -3 339.37 34.8
5 10 -3 356.46 33.6
-4 -10 3 3.3 4.1
-3 -10 3 45.9 11
2 10 -3 -0.4 3.3
-2 -10 3 2 3.3
1 10 -3 161.78 25.6
-1 -10 3 236.48 24.5
0 10 -3 566.94 65.19
0 -10 3 718.63 66.59
0 -10 3 634.64 72.19
0 -10 3 690.43 70.09
1 -10 3 58.59 7.6
1 -10 3 57.19 15.3
1 -10 3 78.89 17.5
1 -10 3 51.89 8.8
-2 10 -3 805.82 101.89
2 -10 3 971.9 89.79
2 -10 3 905.11 89.09
2 -10 3 935.21 99.79
-3 10 -3 32.4 10.7
-3 10 -3 35.9 16.4
3 -10 3 25.3 6.6
3 -10 3 25.8 5.9
-4 10 -3 1665.53 163.08
-4 10 -3 1487.55 172.38
4 -10 3 1584.94 151.98
-5 10 -3 210.08 40.7
-5 10 -3 211.98 33.4
5 -10 3 249.28 23.4
5 -10 3 183.98 24.1
-6 10 -3 222.78 48.3
-6 10 -3 290.57 41.6
6 -10 3 281.67 28.7
6 10 -4 50.09 8.1
6 10 -4 34.3 6.1
-6 -10 4 32.2 11.7
-5 -10 4 715.73 77.29
-4 -10 4 28.1 9.3
-3 -10 4 1184.58 119.39
-2 -10 4 104.29 15.8
-1 -10 4 1658.73 191.78
-1 -10 4 2303.37 193.98
0 10 -4 239.78 32.3
0 -10 4 150.48 25.6
0 -10 4 201.08 20
0 -10 4 232.38 24.7
-1 10 -4 605.54 77.29
1 -10 4 679.73 64.79
1 -10 4 683.23 67.49
-2 10 -4 52.29 19.3
2 -10 4 62.79 8.6
2 -10 4 53.49 9.2
-3 10 -4 1622.54 185.28
-3 10 -4 1932.61 178.48
3 -10 4 1671.63 167.68
3 -10 4 1719.73 167.68
-4 10 -4 9.6 6.3
-4 10 -4 5.9 11.1
4 -10 4 15.3 4.8
4 -10 4 9.4 4.9
-5 10 -4 2089.09 227.78
-5 10 -4 2145.49 215.78
5 -10 4 2092.49 203.98
5 -10 4 2060.89 200.98
-6 10 -4 799.22 99.49
-6 10 -4 608.14 96.39
6 -10 4 784.22 74.59
6 -10 4 771.32 78.99
5 10 -5 4.5 1.7
-5 -10 5 -3.8 3.2
-4 -10 5 432.16 49.5
-3 -10 5 103.59 16.5
-2 -10 5 252.47 30.6
-1 -10 5 169.88 17.9
-1 -10 5 183.98 23.9
-1 -10 5 199.28 23.5
0 -10 5 193.48 22.8
0 -10 5 145.39 26.3
0 -10 5 182.58 18.3
1 -10 5 211.88 22.9
1 -10 5 222.48 25.9
-2 10 -5 164.28 31.3
2 -10 5 129.19 16.8
2 -10 5 140.79 18.3
-3 10 -5 21.6 12.7
-3 10 -5 30.9 11.9
3 -10 5 37.7 7.7
3 -10 5 25.9 7.3
-4 10 -5 262.27 79.69
-4 10 -5 311.77 44
4 -10 5 295.97 34
4 -10 5 301.57 33.4
-5 10 -5 77.89 30.4
-5 10 -5 112.99 27.5
5 -10 5 67.29 16.6
5 -10 5 98.49 13.9
-5 -10 6 459.05 53.19
4 10 -6 92.49 10.3
-4 -10 6 118.29 17.5
-3 -10 6 65.99 14.1
-2 -10 6 58.99 12.7
-1 -10 6 97.49 14.2
-1 -10 6 81.09 9.5
-1 -10 6 77.39 14.9
0 -10 6 105.79 12.3
0 -10 6 115.19 16.7
1 -10 6 31.1 5.8
1 -10 6 14.8 6.1
2 -10 6 -2.9 2.9
2 -10 6 -2.4 2.6
-3 10 -6 63.29 24.6
3 -10 6 33.3 9.2
3 -10 6 35.9 8.2
-4 10 -6 312.07 41.4
4 -10 6 228.88 29.2
4 -10 6 244.48 29.8
-5 10 -6 2.3 8.8
5 -10 6 -3.1 3.3
5 -10 6 -3 2.5
-4 -10 7 6.8 4.6
3 10 -7 317.07 29.6
-3 -10 7 243.98 34.6
-2 -10 7 36.5 5.8
-2 -10 7 34 9.5
-1 -10 7 77.99 13.9
-1 -10 7 86.09 16
-1 -10 7 88.19 10.4
0 -10 7 133.69 15.2
1 -10 7 40.5 7.5
1 -10 7 43.7 10.8
2 -10 7 370.96 40.9
2 -10 7 412.96 44.5
-3 10 -7 312.87 43.1
3 -10 7 216.48 28.5
3 -10 7 265.07 31.5
-4 10 -7 67.49 22.6
4 -10 7 45.6 10.3
4 -10 7 51.19 12.6
-2 -10 8 383.26 43.1
-2 -10 8 336.17 36
-1 -10 8 242.28 34.6
-1 -10 8 336.77 32.3
0 -10 8 134.89 16.3
0 -10 8 144.29 21
1 -10 8 264.07 33.4
2 -10 8 21.7 8.3
1 11 8 52.89 11.9
-1 -11 -8 48.8 13.1
0 11 8 531.35 56.59
-1 11 8 129.29 18.1
3 11 7 94.69 13
-3 -11 -7 55.09 18.7
2 11 7 159.78 19
-2 -11 -7 119.39 26.3
1 11 7 269.87 31.1
-1 -11 -7 284.27 35.7
0 11 7 91.29 13.9
-1 11 7 742.73 76.39
-2 11 7 65.59 13.3
-3 11 7 307.27 37.2
-3 11 7 309.17 34.1
-3 11 7 351.76 49.99
4 11 6 301.37 30.4
-4 -11 -6 208.58 39.3
3 11 6 55.39 10.5
-3 -11 -6 57.19 16.9
2 11 6 501.45 46.2
-2 -11 -6 355.66 51.89
1 11 6 16.4 5.4
-1 -11 -6 13.4 8.1
0 11 6 599.24 65.79
0 -11 -6 683.33 65.19
-1 11 6 69.19 12.4
-2 11 6 146.19 28.1
-2 11 6 143.59 19.5
-2 11 6 130.49 19.7
-3 11 6 -6.7 3.4
-3 11 6 -0.2 2.6
-3 11 6 2.3 7.4
-4 11 6 337.97 51.39
-4 11 6 335.97 34
5 11 5 315.17 32.7
-5 -11 -5 255.07 46.2
4 11 5 8.9 4.3
-4 -11 -5 7.3 10.1
3 11 5 3.6 3
-3 -11 -5 12.2 10.5
2 11 5 273.87 29.7
-2 -11 -5 269.37 38.6
1 11 5 73.99 11.1
-1 -11 -5 92.69 16.2
0 -11 -5 29.2 6.1
-1 11 5 223.28 27.9
-1 11 5 278.07 30.3
-2 11 5 16.4 5.5
-2 11 5 24.6 11.7
-2 11 5 18.7 6.2
-3 11 5 13.7 4
-3 11 5 5.6 2.1
-3 11 5 0.3 6.7
-4 11 5 114.99 11.9
-4 11 5 136.59 32.5
-5 11 5 45.2 20.1
6 11 4 -2.2 3.1
-6 -11 -4 -17.8 9.8
5 11 4 49.4 8.9
-5 -11 -4 44.9 19.3
4 11 4 309.57 33.1
-4 -11 -4 310.77 46.1
3 11 4 3.6 2.9
-3 -11 -4 4.2 6.9
2 11 4 757.12 73.39
-2 -11 -4 721.33 82.09
1 11 4 560.84 50.19
-1 -11 -4 415.76 53.79
0 11 4 367.16 39.4
0 11 4 388.66 41.9
-1 11 4 68.99 10.7
-1 11 4 73.29 11.4
-2 11 4 390.96 48.9
-2 11 4 348.17 35.7
-2 11 4 298.87 36.7
-3 11 4 42.2 16.2
-3 11 4 36.4 5
-4 11 4 59.19 20.8
-5 11 4 22 14.2
-6 11 4 466.25 67.09
6 11 3 9.9 4.4
-6 -11 -3 3.8 12.8
-6 -11 -3 -9.2 4.3
5 11 3 25 6.3
-5 -11 -3 17.8 9.8
4 11 3 125.59 15.1
-4 -11 -3 130.79 21.7
3 11 3 191.58 20
-3 -11 -3 185.18 20.8
-3 -11 -3 153.98 25.4
2 11 3 28.6 6.7
-2 -11 -3 25 10.7
-2 -11 -3 18.1 7.9
-2 -11 -3 33.2 6.2
1 11 3 256.07 29
-1 -11 -3 275.97 28
-1 -11 -3 205.18 30.9
-1 -11 -3 318.97 34.1
0 11 3 70.69 9.1
0 11 3 57.89 9.8
0 -11 -3 52.69 8.1
0 -11 -3 59.99 9.3
-1 11 3 414.36 50.39
-1 11 3 336.67 39.9
-1 11 3 411.76 40.4
-2 11 3 24.5 11.2
-2 11 3 34.5 5.7
-3 11 3 483.25 62.19
-4 11 3 46.3 18.5
-5 11 3 473.65 65.39
-6 11 3 -10.5 9.1
6 11 2 143.69 17.2
5 11 2 3.3 3.1
-5 -11 -2 -4.4 4
4 11 2 367.76 35.1
-4 -11 -2 303.87 41.6
3 11 2 3.2 2.2
-3 -11 -2 7.5 4.2
2 11 2 569.74 48.1
-2 -11 -2 427.46 47.9
-2 -11 -2 438.36 53.39
1 11 2 194.98 22.1
1 11 2 232.98 25.2
-1 -11 -2 222.58 27.3
-1 -11 -2 200.28 22.1
0 11 2 596.44 59.49
0 11 2 619.54 60.89
0 11 2 659.43 69.79
0 -11 -2 613.04 59.09
0 -11 -2 520.55 62.09
-1 11 2 -2.1 4.6
-1 11 2 -1.3 1.9
1 -11 -2 1.4 1.9
-2 11 2 607.34 71.99
-2 11 2 593.74 59.29
-3 11 2 199.78 33.2
-4 11 2 91.89 24.7
-5 11 2 140.09 33.9
-6 11 2 292.97 53.99
-6 11 2 418.46 39.6
6 11 1 221.88 36.9
-6 -11 -1 212.28 32.2
-5 -11 -1 285.17 37.6
4 11 1 45.6 6.4
-4 -11 -1 50.49 12.8
3 11 1 767.32 69.49
-3 -11 -1 649.24 76.29
2 11 1 32.1 4.5
-2 -11 -1 34.5 5.7
-2 -11 -1 20.5 8.4
1 11 1 48.9 6.3
1 11 1 64.09 9.1
-1 -11 -1 34.2 5.7
-1 -11 -1 48.3 10.8
0 11 1 273.07 27.2
0 11 1 252.77 34.2
0 -11 -1 237.48 25.1
0 -11 -1 241.58 28.5
0 -11 -1 230.58 27.7
-1 11 1 6.2 2.7
-1 11 1 9.7 7.9
1 -11 -1 2.2 3.5
1 -11 -1 8.7 2.5
1 -11 -1 2.9 3.5
-2 11 1 334.27 50.09
-2 11 1 414.66 39
2 -11 -1 416.16 40.7
-3 11 1 18.6 11
-4 11 1 51.09 19.4
-5 11 1 188.98 34
-5 11 1 138.49 18
-6 11 1 15.8 14.4
-6 11 1 26.1 8.7
6 11 0 537.05 48.8
6 11 0 465.75 55.09
-6 -11 0 426.26 56.79
5 11 0 18 3.5
5 11 0 15.6 11.3
-5 -11 0 9.4 6.7
4 11 0 1839.02 172.88
-4 -11 0 1807.32 181.98
3 11 0 818.52 81.59
-3 -11 0 729.83 81.39
2 11 0 888.21 83.49
-2 -11 0 673.13 79.89
1 11 0 1223.28 126.09
-1 -11 0 1373.36 128.49
-1 -11 0 1294.67 122.79
0 11 0 1.2 1.7
0 -11 0 0 1.1
0 -11 0 3 2.8
0 -11 0 2.4 3
-1 11 0 1274.07 132.89
-1 11 0 1251.87 121.09
1 -11 0 1212.78 122.39
1 -11 0 1108.89 124.39
1 -11 0 1438.76 120.79
-2 11 0 849.91 93.49
2 -11 0 855.91 84.49
2 -11 0 723.93 79.79
2 -11 0 859.11 80.09
-3 11 0 722.73 85.99
-4 11 0 1571.64 189.28
-4 11 0 1988.4 176.18
-5 11 0 13.1 12.5
-5 11 0 22.3 8.4
-6 11 0 472.55 68.89
6 11 -1 12 4.6
6 11 -1 13.4 4
-6 -11 1 22.3 9.7
5 11 -1 169.48 17.6
-5 -11 1 158.78 24.7
4 11 -1 44.3 8.5
-4 -11 1 53.39 13.1
3 11 -1 10.3 6.2
-3 -11 1 17.5 7.2
2 11 -1 523.15 53.99
-2 -11 1 432.86 51.29
1 11 -1 3.2 2.7
1 11 -1 6.6 6.4
-1 -11 1 15 5.8
0 11 -1 236.18 26.2
0 11 -1 254.77 33.8
0 -11 1 212.88 26.8
0 -11 1 238.28 30.3
0 -11 1 256.37 23.7
-1 11 -1 49.7 7.2
-1 11 -1 68.49 17.9
1 -11 1 34.8 10.6
1 -11 1 61.39 6.7
1 -11 1 36.7 7
-2 11 -1 23.5 12.2
2 -11 1 16.2 7.8
2 -11 1 31.5 5.4
2 -11 1 43.9 7.2
-3 11 -1 716.73 85.49
3 -11 1 724.53 76.89
3 -11 1 680.13 70.39
-4 11 -1 66.99 11.8
-4 11 -1 46.3 19.8
-5 11 -1 313.07 39.8
-6 11 -1 257.47 34.6
-6 11 -1 235.98 44.9
6 11 -2 430.66 42.2
6 11 -2 454.75 42.1
-6 -11 2 378.36 50.59
-5 -11 2 133.39 21.2
-4 -11 2 89.89 15.8
-3 -11 2 212.48 27.2
2 11 -2 723.13 69.39
-2 -11 2 568.04 67.09
1 11 -2 6.3 4.5
-1 -11 2 0.5 5
-1 -11 2 0.8 3.2
0 11 -2 611.24 60.69
0 11 -2 500.45 66.99
0 -11 2 617.54 57.09
0 -11 2 613.24 66.59
0 -11 2 621.24 56.99
-1 11 -2 205.38 33.2
1 -11 2 269.87 32.7
1 -11 2 234.58 22.8
1 -11 2 188.08 29.8
1 -11 2 203.08 24.5
-2 11 -2 561.84 67.29
2 -11 2 653.13 68.59
2 -11 2 496.05 52.49
2 -11 2 485.35 52.59
-3 11 -2 1.3 6.8
-3 11 -2 7.4 4.4
3 -11 2 5 7.2
3 -11 2 5.1 2.3
-4 11 -2 342.57 38.9
-4 11 -2 344.47 50.19
4 -11 2 310.97 30.1
4 -11 2 282.57 41.4
4 -11 2 273.07 30.7
-5 11 -2 -3.3 9.8
-5 11 -2 12.6 7.4
-6 11 -2 110.59 24.5
-6 11 -2 121.49 36
-6 -11 3 9.5 7
-5 -11 3 452.45 52.79
-4 -11 3 61.09 13.7
-3 -11 3 356.16 41.3
2 11 -3 32.6 8.5
-2 -11 3 45.5 10.3
1 11 -3 418.66 52.69
-1 -11 3 500.85 49.9
0 11 -3 55.39 9.8
0 11 -3 68.39 18.1
0 -11 3 66.99 10.7
0 -11 3 57.49 6.3
0 -11 3 64.59 6.4
0 -11 3 60.89 12.6
-1 11 -3 309.97 43.2
1 -11 3 313.17 30.9
1 -11 3 286.17 38.5
-2 11 -3 34.7 16
2 -11 3 29.7 6.1
2 -11 3 29.6 6.5
-3 11 -3 204.38 30.3
-3 11 -3 212.48 37.2
3 -11 3 225.18 24.1
3 -11 3 223.48 25.2
-4 11 -3 119.69 21.5
-4 11 -3 132.89 33.9
4 -11 3 125.69 14.7
-5 11 -3 35.2 13.2
-5 11 -3 29 15.7
5 -11 3 34.6 5.6
5 -11 3 44.1 6.7
-6 11 -3 0.9 8.1
-6 11 -3 3.1 10.8
6 -11 3 5.6 2.2
-6 -11 4 420.86 50.89
-5 -11 4 37.9 11
-4 -11 4 44.4 11.6
-3 -11 4 41 10.7
-2 -11 4 360.16 41
-1 -11 4 74.19 12.4
0 11 -4 302.97 45
0 -11 4 376.26 34.3
0 -11 4 356.66 43.2
-1 11 -4 543.65 70.19
1 -11 4 558.04 56.49
1 -11 4 623.94 59.99
-2 11 -4 693.63 85.29
2 -11 4 751.12 70.49
2 -11 4 634.74 68.39
-3 11 -4 13.7 8.4
-3 11 -4 5.1 6.4
3 -11 4 -0.6 2.9
3 -11 4 8.2 3.7
-4 11 -4 292.47 57.59
-4 11 -4 340.87 45.5
4 -11 4 332.07 36.7
4 -11 4 336.57 35.3
-5 11 -4 29.4 18.7
-5 11 -4 60.29 18.5
5 -11 4 54.69 11.5
5 -11 4 55.49 8.7
5 -11 4 36.7 12.9
-6 11 -4 5.1 10.4
6 -11 4 -2.2 2.9
6 -11 4 -1.5 2.7
-5 -11 5 123.19 20.2
-4 -11 5 194.48 27
-3 -11 5 0.7 3.2
-2 -11 5 26.8 8
-1 -11 5 302.97 31.3
-1 -11 5 216.38 29.4
0 -11 5 41.4 9.8
0 -11 5 41.8 5.2
0 -11 5 42.8 12
-1 11 -5 75.09 22.1
1 -11 5 68.89 9
1 -11 5 77.69 11.9
-2 11 -5 271.17 45
2 -11 5 316.87 31.4
2 -11 5 249.18 31
-3 11 -5 20.1 10.3
-3 11 -5 2.5 11.3
3 -11 5 15.5 5.3
3 -11 5 3.2 4.5
-4 11 -5 2.5 9.1
-4 11 -5 13.6 10.7
4 -11 5 16.3 5.5
4 -11 5 24.8 6.7
-5 11 -5 335.87 59.39
-5 11 -5 333.67 49.8
5 -11 5 330.37 38.7
5 -11 5 353.66 37.3
-4 -11 6 181.98 26.5
-3 -11 6 -4.3 3.1
-2 -11 6 179.58 24.3
-1 -11 6 74.09 7.4
-1 -11 6 41.8 12
-1 -11 6 62.29 13.4
0 -11 6 567.94 56.19
0 -11 6 593.34 61.89
1 -11 6 16.7 6.1
1 -11 6 12.1 3.8
2 -11 6 472.35 49.5
2 -11 6 496.85 52.29
-3 11 -6 72.69 18.9
3 -11 6 80.29 12.8
3 -11 6 57.69 11.5
-4 11 -6 319.27 44.9
4 -11 6 263.97 30.5
4 -11 6 226.18 29.5
-3 -11 7 395.26 46.6
-2 -11 7 76.99 16.3
-1 -11 7 739.43 73.89
-1 -11 7 803.52 80.99
0 -11 7 103.59 11.3
0 -11 7 67.89 15.2
1 -11 7 228.08 29.9
1 -11 7 256.77 26.4
2 -11 7 220.28 24.8
3 -11 7 97.69 13.8
3 -11 7 82.59 16.7
-1 -11 8 120.29 14.3
-1 -11 8 127.09 20.2
0 -11 8 566.64 56.79
0 -11 8 581.44 63.29
1 -11 8 45.6 7.9
1 -11 8 49.2 12.5
2 12 7 -2.7 3
1 12 7 -3.1 3.3
-1 -12 -7 6.9 5.9
0 12 7 10.9 4.9
-1 12 7 21.8 7.6
-2 12 7 110.49 28.1
-2 12 7 132.99 18.1
2 12 6 120.89 16
-2 -12 -6 126.69 22.7
1 12 6 54.29 9.6
-1 -12 -6 35.2 10.6
0 12 6 106.69 14.9
-1 12 6 4 5
-2 12 6 100.09 15.8
-2 12 6 128.99 30.3
-3 12 6 182.98 31.9
-3 12 6 127.19 16.1
-3 12 6 133.79 21.1
-4 12 6 253.77 43.1
4 12 5 31.1 7.2
-4 -12 -5 -1.3 11.3
3 12 5 66.99 11.7
-3 -12 -5 82.09 22
2 12 5 1.6 2.8
-2 -12 -5 2.6 7
1 12 5 418.56 37.9
-1 -12 -5 287.67 39.8
0 12 5 214.08 24.8
-1 12 5 65.49 12.6
-2 12 5 373.66 49.99
-2 12 5 394.46 38
-2 12 5 278.97 35.4
-3 12 5 327.77 33.8
-3 12 5 376.16 51.09
-3 12 5 312.27 33
-4 12 5 333.37 51.39
-5 -12 -4 1255.87 141.39
4 12 4 5.7 3
-4 -12 -4 -1.4 7.6
3 12 4 1607.84 150.08
-3 -12 -4 1485.05 162.18
2 12 4 72.49 10.5
-2 -12 -4 85.49 20.1
1 12 4 477.75 47.1
-1 -12 -4 438.36 51.49
0 12 4 69.99 9.7
0 -12 -4 53.19 7.2
-1 12 4 33.2 8.2
-1 12 4 53.79 16.7
-2 12 4 289.37 30.3
-2 12 4 275.97 41.8
-3 12 4 116.99 29.3
-3 12 4 143.79 14.7
-3 12 4 145.49 15.5
-4 12 4 152.38 31.1
-5 12 4 213.88 38.2
5 12 3 242.38 24.1
-5 -12 -3 166.38 29.9
4 12 3 356.66 34.5
-4 -12 -3 285.27 41.6
3 12 3 340.07 31.4
-3 -12 -3 262.87 31.6
-3 -12 -3 285.37 38.2
2 12 3 87.19 10.8
-2 -12 -3 97.39 11.5
-2 -12 -3 66.29 17.9
-2 -12 -3 76.99 16.4
1 12 3 239.78 30.9
-1 -12 -3 290.67 36.4
-1 -12 -3 329.37 32
-1 -12 -3 377.06 38.4
0 12 3 58.99 10.3
0 12 3 79.19 15
0 12 3 56.19 9
0 -12 -3 72.19 9.4
0 -12 -3 61.99 9.6
-1 12 3 13.7 9.4
-1 12 3 8.2 3.6
-1 12 3 5.9 3.6
-2 12 3 50.59 17.5
-2 12 3 61.29 8
-3 12 3 11.1 7.7
-4 12 3 195.58 35.6
-5 12 3 60.09 22.2
6 12 2 171.38 19.2
-6 -12 -2 152.88 27.3
5 12 2 -3 2.5
-5 -12 -2 -2 4.1
4 12 2 -1 2.1
-4 -12 -2 -6.1 2.7
3 12 2 60.79 7.4
-3 -12 -2 32.6 11.9
2 12 2 17.6 4.4
-2 -12 -2 30.3 5.2
-2 -12 -2 19.7 8.1
1 12 2 5.7 2.7
-1 -12 -2 5.3 2.5
-1 -12 -2 1 3.2
0 12 2 175.78 28.6
0 12 2 169.08 20.7
0 -12 -2 225.58 22.2
0 -12 -2 204.58 20.6
0 -12 -2 155.18 23.3
-1 12 2 -1 4.1
-1 12 2 -1 2.1
1 -12 -2 2.5 1.9
-2 12 2 77.09 20.5
-3 12 2 44.9 17
-4 12 2 184.88 35.6
-5 12 2 29.4 16.1
-6 12 2 91.09 26.7
6 12 1 6.7 4
-6 -12 -1 6.4 6.7
5 12 1 49.7 7
-5 -12 -1 35.6 12.8
4 12 1 244.48 25.1
-4 -12 -1 257.67 33.7
3 12 1 108.99 11.4
-3 -12 -1 82.09 18.7
2 12 1 206.18 22.2
2 12 1 233.18 31
-2 -12 -1 220.28 22.6
-2 -12 -1 223.08 28.8
1 12 1 774.32 83.09
1 12 1 921.91 91.39
-1 -12 -1 797.22 85.39
-1 -12 -1 843.72 80.19
0 12 1 0.1 4.2
0 12 1 -3.9 2
0 -12 -1 7.1 2.3
0 -12 -1 0.5 2.7
0 -12 -1 6.3 4
1 -12 -1 1250.27 111.99
1 -12 -1 1045.3 108.59
1 -12 -1 1100.29 111.29
-2 12 1 160.78 27.7
2 -12 -1 128.49 15.7
-3 12 1 106.89 27.3
-4 12 1 132.89 33
-5 12 1 244.18 43.8
-6 12 1 -3.7 7.8
-6 12 1 -3.1 4.2
6 12 0 -1.9 2.5
-6 -12 0 6.2 5.8
5 12 0 142.19 14.1
5 12 0 113.59 22.7
-5 -12 0 124.99 22.1
4 12 0 201.78 24.3
4 12 0 162.48 16
-4 -12 0 110.69 21.5
3 12 0 887.41 88.69
-3 -12 0 786.92 87.99
2 12 0 39.1 11
-2 -12 0 29.7 9.6
1 12 0 6754.42 682.33
1 12 0 7449.56 670.93
-1 -12 0 6917.21 666.13
-1 -12 0 7158.98 672.23
0 12 0 5.2 3.9
0 -12 0 8.8 2
0 -12 0 10.7 4.7
0 -12 0 3.1 4.4
-1 12 0 6499.45 598.84
-1 12 0 6009.9 611.44
1 -12 0 6372.16 600.44
1 -12 0 6429.86 597.94
-2 12 0 36.8 15.4
2 -12 0 56.19 7.4
2 -12 0 53.89 7.7
2 -12 0 32.2 8.8
-3 12 0 644.54 79.79
-4 12 0 182.88 34.6
-5 12 0 176.08 21.3
-5 12 0 108.39 32.7
-6 12 0 -1.9 9.3
-6 12 0 -5.2 6.5
6 12 -1 -1.1 1.9
-6 -12 1 -3.1 5.5
-5 -12 1 257.97 34.8
4 12 -1 96.29 14.5
-4 -12 1 118.69 18.3
3 12 -1 77.99 14.4
-3 -12 1 90.09 14.8
2 12 -1 97.09 17.5
1 12 -1 1281.57 122.99
-1 -12 1 1194.78 117.19
-1 -12 1 1050.19 118.89
0 12 -1 4.6 3.2
0 12 -1 0.9 5.9
0 -12 1 5.7 1.5
0 -12 1 3.6 4
0 -12 1 12.8 6
-1 12 -1 716.73 80.79
-1 12 -1 809.92 93.39
1 -12 1 947.91 88.59
1 -12 1 829.02 79.79
1 -12 1 873.01 82.49
-2 12 -1 196.58 34.1
2 -12 1 205.88 28.6
2 -12 1 217.08 22.6
2 -12 1 202.88 22.6
-3 12 -1 75.49 24.9
3 -12 1 112.69 18.6
-4 12 -1 206.08 38
-5 12 -1 59.79 15.1
-5 12 -1 64.39 23.8
-6 12 -1 17.4 14.5
-6 12 -1 22.4 8.7
-6 -12 2 94.29 21.3
-5 -12 2 41.7 12.9
-4 -12 2 306.17 39.1
3 12 -2 56.69 9.9
-3 -12 2 48.6 12.3
2 12 -2 75.19 13.8
-2 -12 2 58.89 13.1
1 12 -2 1.7 6
-1 -12 2 -0.2 2.2
0 12 -2 181.38 21.4
0 -12 2 169.38 22
0 -12 2 178.58 17.5
0 -12 2 224.88 27.8
-1 12 -2 0.4 6.7
1 -12 2 5.9 2
1 -12 2 1.5 6.3
1 -12 2 7.2 3.8
-2 12 -2 26 12.9
2 -12 2 22.5 6
2 -12 2 53.29 13.1
2 -12 2 29.6 5.7
-3 12 -2 55.19 20.9
3 -12 2 93.29 19.5
3 -12 2 67.59 9.1
-4 12 -2 -0.1 8.8
-4 12 -2 10 5.6
4 -12 2 -0.1 1.7
4 -12 2 0.8 9
-5 12 -2 3 6.7
-5 12 -2 -0.7 11.2
-6 12 -2 184.08 29.4
-6 12 -2 181.38 45.2
-5 -12 3 47.1 13.5
-4 -12 3 152.08 22.6
-3 -12 3 10.3 4.1
2 12 -3 66.89 12.8
-2 -12 3 59.99 13.4
1 12 -3 5 6.4
-1 -12 3 14 5.4
0 12 -3 65.89 18.8
0 -12 3 52.99 11.3
1 -12 3 332.47 33
1 -12 3 357.96 33.2
1 -12 3 287.77 35.4
-2 12 -3 97.09 26.1
2 -12 3 78.79 10.9
2 -12 3 75.99 11.6
-3 12 -3 279.87 46.5
3 -12 3 314.47 33.4
3 -12 3 309.07 32.3
-4 12 -3 445.86 49.8
4 -12 3 369.46 39.7
-5 12 -3 271.17 36.9
-5 12 -3 261.67 46.9
5 -12 3 240.38 25.1
-5 -12 4 443.46 52.59
-4 -12 4 121.69 19.8
-2 -12 4 289.77 34.8
1 12 -4 46.7 13.6
-1 -12 4 26 8.3
0 -12 4 63.99 11.1
0 -12 4 46.8 13.7
0 -12 4 68.29 6.5
-1 12 -4 460.95 64.49
1 -12 4 526.95 49.7
-2 12 -4 127.29 31.6
2 -12 4 90.89 12
2 -12 4 97.39 13.7
-3 12 -4 1758.82 192.38
3 -12 4 1841.72 171.18
3 -12 4 1692.73 170.78
-4 12 -4 9.6 7.8
-4 12 -4 5.6 11.3
4 -12 4 0.9 3.6
4 -12 4 2.3 3.1
-5 12 -4 1052.79 111.59
-5 12 -4 940.11 124.39
5 -12 4 912.31 103.69
5 -12 4 1039.1 97.49
-4 -12 5 350.96 42.9
-3 -12 5 490.25 55.29
-2 -12 5 488.55 63.49
-1 -12 5 35.9 9.9
0 -12 5 222.68 22.5
0 -12 5 215.38 28
0 -12 5 263.27 32.4
-1 12 -5 358.36 54.09
1 -12 5 418.06 44.5
1 -12 5 411.86 40.2
-2 12 -5 -1.5 8.5
2 -12 5 0.7 2.8
-3 12 -5 78.49 27
3 -12 5 81.79 13.2
3 -12 5 101.49 13.2
-4 12 -5 20.1 13.6
-4 12 -5 37.7 16.5
4 -12 5 29 7
4 -12 5 16.8 6.4
-3 -12 6 204.68 28.2
-2 -12 6 127.59 19.6
-1 -12 6 16.4 6.9
-1 -12 6 9.8 7
0 -12 6 157.38 21.7
0 -12 6 161.98 16.7
1 -12 6 44.4 10.8
1 -12 6 44.9 6.9
2 -12 6 137.09 18.8
2 -12 6 124.99 15.7
3 -12 6 2.1 3.4
3 -12 6 -0.9 2.6
-2 -12 7 136.29 20.8
-1 -12 7 26.3 8.7
-1 -12 7 32.9 4.4
0 -12 7 7.6 6
0 -12 7 17.5 3.8
1 -12 7 1.3 3
1 -12 7 5.1 4.3
2 -12 7 -0.9 4.5
2 -12 7 -3.9 3.2
3 13 6 433.56 42.1
-3 -13 -6 327.97 50.59
-2 -13 -6 140.59 25
-1 -13 -6 248.88 30.3
0 13 6 25 7.1
-1 13 6 138.49 19
-2 13 6 91.29 15.6
-2 13 6 73.19 22.1
-3 13 6 269.37 41.7
-3 13 6 192.88 22.5
4 13 5 157.68 19.3
-4 -13 -5 164.68 28.8
3 13 5 28.9 6.2
-3 -13 -5 -1.9 9.6
2 13 5 71.39 11
-2 -13 -5 73.29 18.1
1 13 5 42.3 9.2
-1 -13 -5 57.99 12.6
0 13 5 15.7 5.4
-1 13 5 66.99 12.2
-1 13 5 55.99 18.3
-2 13 5 55.19 10.3
-2 13 5 54.09 18.9
-3 13 5 90.69 10.5
-3 13 5 76.59 9.9
-3 13 5 95.99 25.9
-4 13 5 -0.5 7.4
4 13 4 175.18 19
-4 -13 -4 120.09 30.7
3 13 4 179.28 19.7
-3 -13 -4 145.49 27.8
2 13 4 31.5 6.7
1 13 4 81.79 10.8
-1 -13 -4 64.19 14.4
0 13 4 1 2.3
-1 13 4 -4.3 3.7
-1 13 4 -1.8 5.4
-1 13 4 3.2 3.4
-2 13 4 24.3 6
-2 13 4 30.2 14.3
-3 13 4 191.38 34.3
-4 13 4 95.09 25.9
5 13 3 14.6 4.6
-5 -13 -3 13.8 8.4
4 13 3 248.78 26.5
-4 -13 -3 247.38 35.2
-3 -13 -3 -0.5 3
-3 -13 -3 2.5 4.8
2 13 3 532.15 52.39
-2 -13 -3 456.75 58.49
-2 -13 -3 561.44 53.09
1 13 3 377.16 39.6
-1 -13 -3 419.66 45.5
-1 -13 -3 362.96 39.4
0 13 3 1231.28 108.79
0 13 3 1161.18 119.49
0 13 3 949.9 106.29
0 -13 -3 1055.49 105.09
-1 13 3 161.88 28.3
-1 13 3 148.59 18.1
-2 13 3 315.77 46.2
-3 13 3 18.8 10.7
-4 13 3 514.95 70.09
-5 13 3 7.4 8.8
5 13 2 750.12 72.49
-5 -13 -2 725.73 83.79
4 13 2 102.39 11.7
-4 -13 -2 84.09 19.9
3 13 2 545.15 49.2
-3 -13 -2 415.56 55.99
2 13 2 53.29 7.3
-2 -13 -2 44.3 13.1
1 13 2 1029.5 98.09
1 13 2 880.01 84.69
-1 -13 -2 716.63 88.89
-1 -13 -2 870.81 84.49
0 13 2 196.88 30.9
0 13 2 199.38 23
0 -13 -2 194.58 20.8
0 -13 -2 193.58 22.5
0 -13 -2 180.68 24.7
-1 13 2 430.06 47.9
1 -13 -2 534.75 48.3
-2 13 2 59.59 19.6
-2 13 2 65.59 8
-3 13 2 488.95 71.59
-4 13 2 32.9 14.3
-5 13 2 92.39 29
5 13 1 23.1 4.4
-5 -13 -1 13.7 8.2
4 13 1 418.56 40.9
-4 -13 -1 415.36 50.69
3 13 1 122.99 13.6
3 13 1 132.49 22.1
-3 -13 -1 130.59 21
2 13 1 1214.98 123.39
2 13 1 1395.36 134.99
-2 -13 -1 1243.38 130.69
-2 -13 -1 1330.17 123.59
1 13 1 2.8 7.1
-1 -13 -1 12.4 3.1
-1 -13 -1 18.5 6.8
0 13 1 518.35 49.99
0 13 1 525.45 60.89
0 -13 -1 425.96 47.5
0 -13 -1 491.85 51.69
-1 13 1 1144.39 122.39
-1 13 1 1244.18 108.29
1 -13 -1 950.4 109.59
-2 13 1 25.5 11.8
-2 13 1 22.5 3.5
-3 13 1 329.07 49.3
-4 13 1 26.1 15.2
-5 13 1 17.2 14.2
5 13 0 27.6 9.8
5 13 0 27.1 11.6
-5 -13 0 25.8 10.2
4 13 0 149.29 22.8
-4 -13 0 161.48 24.1
3 13 0 349.47 40.9
-3 -13 0 288.27 38.8
2 13 0 17.5 10.3
-2 -13 0 10 4
1 13 0 73.69 18.1
-1 -13 0 52.79 6
-1 -13 0 43.8 11.1
0 13 0 -1.7 2.3
0 13 0 6.6 6.8
0 -13 0 -0.4 1.4
0 -13 0 1.3 2.9
0 -13 0 4.9 3.7
-1 13 0 59.79 18.2
-1 13 0 67.79 9.4
1 -13 0 68.69 10.8
1 -13 0 70.69 8.5
-2 13 0 2.7 6.1
2 -13 0 12.7 3.6
2 -13 0 9 3.8
2 -13 0 7.7 5.4
-4 13 0 150.48 31.2
-5 13 0 26.2 14.9
-5 -13 1 35 12.4
4 13 -1 21.6 7.3
-4 -13 1 2.1 5.9
3 13 -1 398.66 45.1
-3 -13 1 366.76 45
2 13 -1 23.1 8.8
-2 -13 1 23.4 7.6
-1 -13 1 983.8 119.59
-1 -13 1 1247.58 113.89
0 13 -1 489.95 51.29
0 13 -1 561.14 62.49
0 -13 1 460.75 47.9
0 -13 1 483.55 55.89
0 -13 1 551.54 53.59
-1 13 -1 2.2 6
-1 13 -1 6.8 3.4
1 -13 1 3.5 6.5
1 -13 1 14 3
1 -13 1 5.6 4
-2 13 -1 1512.55 153.98
2 -13 1 1195.28 141.69
2 -13 1 1399.26 136.19
2 -13 1 1547.05 137.29
-3 13 -1 80.89 23.6
3 -13 1 101.69 18.7
-4 13 -1 317.17 51.99
-5 13 -1 18.3 13.8
-5 -13 2 70.59 16.9
-4 -13 2 38.5 12.1
3 13 -2 483.25 50.39
-3 -13 2 444.16 52.79
2 13 -2 26.4 9.9
1 13 -2 647.94 69.99
-1 -13 2 564.64 63.59
0 13 -2 176.88 30.7
0 -13 2 204.78 24.3
-1 13 -2 796.22 100.09
1 -13 2 947.91 85.79
1 -13 2 949.21 85.19
1 -13 2 786.42 93.79
-2 13 -2 58.39 17.9
2 -13 2 60.69 8.6
2 -13 2 62.39 9.4
2 -13 2 68.29 17.8
-3 13 -2 498.95 66.29
3 -13 2 475.35 47.4
3 -13 2 446.46 57.19
-4 13 -2 120.79 34.6
-5 13 -2 374.86 59.79
-5 -13 3 -4.4 4.2
-4 -13 3 486.05 55.99
-3 -13 3 57.89 21.1
2 13 -3 348.97 39.5
-2 -13 3 287.67 37.5
1 13 -3 137.19 25.4
-1 -13 3 197.58 23.3
0 -13 3 1004.1 101.09
-1 13 -3 273.77 47.8
1 -13 3 410.36 36.4
1 -13 3 398.46 36.1
1 -13 3 318.37 39.1
2 -13 3 558.14 57.69
2 -13 3 599.94 57.99
-3 13 -3 4.1 10.4
3 -13 3 -4.2 2.5
3 -13 3 -0.3 2.5
-4 13 -3 322.97 50.99
4 -13 3 300.17 30.5
4 -13 3 265.77 33
-5 13 -3 28.1 12.2
-5 13 -3 37.5 18.2
5 -13 3 20.3 9
-4 -13 4 102.89 17.7
-3 -13 4 93.59 18.7
-2 -13 4 38.3 10.3
1 13 -4 -6.6 7.2
-1 -13 4 -1.2 3.9
0 13 -4 -4.1 7.6
0 -13 4 1.4 2.9
-1 13 -4 109.69 25.9
1 -13 4 76.99 9.5
1 -13 4 83.29 9.4
1 -13 4 65.59 13.3
-2 13 -4 12.5 12.9
2 -13 4 18.2 5
2 -13 4 20.8 6.5
-3 13 -4 202.88 40.4
3 -13 4 218.98 24.1
3 -13 4 196.48 23.7
-4 13 -4 125.99 36.5
4 -13 4 174.98 21.1
4 -13 4 170.38 19.9
-4 -13 5 -1.4 4.4
-3 -13 5 114.39 18
-2 -13 5 33.4 10.4
-1 -13 5 87.89 14.8
0 -13 5 14.6 5.4
-1 13 -5 44.9 18.3
1 -13 5 54.59 7.1
1 -13 5 68.59 13.2
-2 13 -5 58.79 20.5
2 -13 5 74.19 12.3
-3 13 -5 7.4 11
3 -13 5 9.3 5
3 -13 5 11.9 4.2
-4 13 -5 143.39 39.1
4 -13 5 164.88 19.6
4 -13 5 138.59 19.2
-2 -13 6 65.39 14.6
-1 -13 6 171.18 24
0 -13 6 37.7 10.1
1 -13 6 270.17 27.7
1 -13 6 269.67 32.9
2 -13 6 218.78 26.9
2 -13 6 201.58 23
3 -13 6 415.46 45.5
3 -13 6 451.35 48
1 14 6 8.2 5.2
-1 -14 -6 8.1 5.3
0 14 6 11.8 5.1
-1 14 6 82.89 24.2
-1 14 6 97.39 14.6
3 14 5 331.37 32.1
-3 -14 -5 220.98 39.8
2 14 5 15.9 5.4
-2 -14 -5 17.8 9.9
1 14 5 904.41 104.29
-1 -14 -5 1218.28 107.59
0 14 5 56.69 10.6
-1 14 5 767.42 86.89
-1 14 5 649.14 71.29
-2 14 5 63.59 21.2
-3 14 5 441.36 60.09
-3 14 5 378.66 38.2
4 14 4 27.2 6.2
-4 -14 -4 3.2 8.2
3 14 4 0.3 3.1
-3 -14 -4 -8.7 8.8
2 14 4 594.34 60.29
-2 -14 -4 604.84 68.89
1 14 4 -0.2 3.3
-1 -14 -4 1.9 4.4
0 14 4 176.58 21.7
0 14 4 189.78 32.6
-1 14 4 24.4 6.1
-1 14 4 11.7 9.3
-2 14 4 56.19 19
-2 14 4 61.09 8.8
-3 14 4 117.69 31.5
-4 14 4 -0.7 7.5
4 14 3 120.29 13.4
-4 -14 -3 78.29 19.9
3 14 3 -2.6 2.8
-3 -14 -3 2 5
-3 -14 -3 -7 5.3
2 14 3 180.78 21.1
-2 -14 -3 187.08 27.6
-2 -14 -3 228.28 22.1
-2 -14 -3 155.38 28.9
1 14 3 15.6 4.5
1 14 3 7.6 9
-1 -14 -3 7.1 6.8
0 14 3 2.9 7
0 14 3 5 3.5
0 -14 -3 9.6 2.4
-1 14 3 61.69 18.9
-2 14 3 -0.2 2.8
-2 14 3 -7.9 6.4
-3 14 3 220.28 39.1
-4 14 3 66.29 23.9
-5 -14 -2 -7.1 6
4 14 2 89.09 10.7
-4 -14 -2 74.59 19.1
3 14 2 5.4 3
-3 -14 -2 2.2 6.2
2 14 2 16.9 4.9
2 14 2 35.4 13.3
-2 -14 -2 18.9 8.2
-2 -14 -2 26 5.5
1 14 2 -4.5 5.1
-1 -14 -2 6 4.2
-1 -14 -2 2.2 2.6
0 14 2 201.28 23.2
0 14 2 212.58 33.4
0 -14 -2 168.28 24.4
0 -14 -2 182.68 22.2
-1 14 2 15 10.3
-1 14 2 23.4 6
-2 14 2 9.3 8.5
-2 14 2 3.7 2.3
-3 14 2 226.48 39.7
-4 14 2 59.29 23.1
-5 14 2 -4.6 8.8
5 14 1 1.7 2.3
-5 -14 -1 4 6.5
4 14 1 165.28 17.5
4 14 1 190.38 28.5
3 14 1 82.69 19.6
3 14 1 85.29 9.2
-3 -14 -1 59.29 16.1
2 14 1 160.88 24.6
-2 -14 -1 117.59 20
1 14 1 -7.6 4.5
-1 -14 -1 0 1.8
-1 -14 -1 2.2 4.1
0 14 1 823.22 91.19
0 14 1 810.32 79.09
0 -14 -1 717.13 80.49
0 -14 -1 828.52 82.19
-1 14 1 511.65 53.79
-1 14 1 483.55 65.99
1 -14 -1 637.34 53.89
1 -14 -1 499.25 56.09
-2 14 1 57.39 7.2
-2 14 1 32.4 15.4
-3 14 1 2214.08 232.08
-4 14 1 3 10.2
-5 14 1 1102.89 131.29
5 14 0 -1.3 7.4
-5 -14 0 15.1 7.3
4 14 0 5.2 6.8
-4 -14 0 14 7.3
3 14 0 144.39 35.5
-3 -14 0 113.69 19.8
2 14 0 49.99 14.9
-2 -14 0 33.3 9.9
1 14 0 31.2 12.9
-1 -14 0 59.29 12.4
-1 -14 0 26.4 9
-1 -14 0 41.6 4.6
0 14 0 1419.76 144.99
0 14 0 1301.37 132.09
0 -14 0 1349.56 134.49
0 -14 0 1371.06 136.39
-1 14 0 39.7 15.9
-1 14 0 42.7 7.2
1 -14 0 39.1 11.1
1 -14 0 48.7 6.4
1 -14 0 42.3 9.3
-2 14 0 69.39 22.8
2 -14 0 58.29 8.9
2 -14 0 86.89 13.4
2 -14 0 61.69 9.8
-4 14 0 8.6 10.6
-5 14 0 28 18.3
-5 -14 1 1047 112.09
4 14 -1 22.5 7.1
-4 -14 1 8.5 5.5
3 14 -1 2261.27 246.68
-3 -14 1 2839.62 249.78
2 14 -1 49.8 15.3
-2 -14 1 64.49 14.6
1 14 -1 546.85 65.09
-1 -14 1 543.95 58.99
0 14 -1 815.52 88.89
0 -14 1 716.53 77.99
0 -14 1 788.92 72.49
0 -14 1 724.43 81.49
-1 14 -1 1.2 2.5
-1 14 -1 -0.1 6
1 -14 1 -0.3 10.6
1 -14 1 3.5 2.1
1 -14 1 0 2.9
-2 14 -1 153.38 29.4
2 -14 1 132.79 23
2 -14 1 137.19 16.9
2 -14 1 136.39 15.7
-3 14 -1 87.69 26.6
3 -14 1 97.19 17.8
-4 14 -1 180.68 36.7
-5 14 -1 0.1 11.5
-5 -14 2 -0.3 5.9
-4 -14 2 50.99 14
3 14 -2 244.58 29.4
-3 -14 2 212.18 31.4
2 14 -2 17.5 8.2
-2 -14 2 4.3 4.7
1 14 -2 17.6 10.9
-1 -14 2 34.9 9.5
0 14 -2 175.68 32.6
0 -14 2 223.88 26
-1 14 -2 -0.6 7.6
1 -14 2 0.7 1.9
1 -14 2 0.2 3.1
1 -14 2 2.4 1.5
-2 14 -2 25.2 13.8
2 -14 2 32.3 15.5
2 -14 2 25.3 6.5
-3 14 -2 13.3 8.3
3 -14 2 11.5 3.4
-4 14 -2 83.09 28.2
-5 14 -2 7.2 11
-4 -14 3 121.89 20
-3 -14 3 191.28 27
2 14 -3 1 6.1
-2 -14 3 2.9 4.4
-1 -14 3 76.09 13
0 14 -3 7.6 11.2
0 -14 3 12.8 4.7
-1 14 -3 7.2 11.4
1 -14 3 15.5 6.3
1 -14 3 14.8 3
1 -14 3 9.2 2.4
-2 14 -3 248.68 40.5
2 -14 3 186.88 23.2
2 -14 3 211.68 24.6
2 -14 3 208.48 23
-3 14 -3 -7.2 10.6
3 -14 3 -4.2 2
3 -14 3 2.2 3.5
-4 14 -3 132.79 38.4
4 -14 3 126.89 17.1
4 -14 3 109.59 13.4
-4 -14 4 4.4 5.5
-3 -14 4 121.19 20.1
-2 -14 4 66.39 14.6
-1 -14 4 16.2 6.8
0 -14 4 97.09 15.4
-1 14 -4 7.4 10.5
1 -14 4 3.8 3.6
1 -14 4 1.5 1.4
1 -14 4 3.7 1.8
-2 14 -4 599.34 84.49
2 -14 4 753.02 69.89
2 -14 4 644.04 66.49
-3 14 -4 4.5 11.9
3 -14 4 12.5 4.7
3 -14 4 7 4.4
-4 14 -4 12.6 15
4 -14 4 37.4 8.3
4 -14 4 21.3 6.9
-3 -14 5 422.26 50.09
-2 -14 5 69.99 16.2
-1 -14 5 951 98.59
0 -14 5 53.69 11.9
-1 14 -5 1096.99 115.49
1 -14 5 911.41 92.29
1 -14 5 1087.89 99.29
1 -14 5 873.61 92.49
-2 14 -5 14.8 14.4
2 -14 5 11.4 4.6
2 -14 5 16.3 6
-3 14 -5 271.97 52.09
3 -14 5 329.57 36.3
3 -14 5 334.37 35
-1 -14 6 110.49 18.2
0 -14 6 15.5 5.5
1 -14 6 10 3.3
1 -14 6 13.7 6
1 15 5 114.89 15.4
-1 -15 -5 106.79 14.5
0 15 5 129.59 25.6
0 15 5 99.99 16
-1 15 5 9.4 11.7
-1 15 5 18 6.6
3 15 4 -0.8 2.9
-3 -15 -4 -6.6 6.5
2 15 4 0.8 3.4
1 15 4 -3.1 3.5
1 15 4 2.9 5.5
-1 -15 -4 -2.6 4.6
0 15 4 38.2 8.5
0 15 4 29.9 13.2
-1 15 4 66.69 12.3
-1 15 4 89.49 25.5
-2 15 4 154.68 36.5
-3 15 4 106.89 29.6
-3 -15 -3 2.7 6.3
-3 -15 -3 -9.5 8
2 15 3 103.69 12.7
2 15 3 101.29 24.3
-2 -15 -3 111.19 23.1
-2 -15 -3 76.69 18.9
1 15 3 60.79 19
1 15 3 73.19 10.3
-1 -15 -3 57.59 13
-2 15 3 375.66 37.7
-3 15 3 108.59 29.4
4 15 2 341.07 35.5
-4 -15 -2 380.76 47.5
3 15 2 434.96 52.09
3 15 2 384.76 38.9
-3 -15 -2 339.27 46.9
2 15 2 154.48 26.3
2 15 2 121.99 15
-2 -15 -2 105.29 19.5
-2 -15 -2 133.09 15.3
-1 -15 -2 567.74 61.59
-1 -15 -2 533.75 55.59
0 -15 -2 285.57 27.7
0 -15 -2 227.68 25.8
0 -15 -2 200.18 29.5
-2 15 2 786.02 93.99
-2 15 2 764.92 74.59
-3 15 2 6.3 11.6
-4 15 2 21 13.4
4 15 1 396.56 47.2
-4 -15 -1 314.67 45
3 15 1 61.49 17.6
-3 -15 -1 31.2 12.1
2 15 1 745.43 84.89
-2 -15 -1 736.53 80.19
-1 -15 -1 -6.3 5
-1 -15 -1 -1.2 1.7
-1 -15 -1 0.8 4
0 15 1 528.85 73.79
0 -15 -1 579.44 65.49
0 -15 -1 700.33 60.89
1 -15 -1 -2.4 3.3
1 -15 -1 -5.9 2.1
-2 15 1 677.83 85.49
-3 15 1 14.3 11.8
-4 15 1 530.45 75.39
4 15 0 45.6 14.5
-4 -15 0 46.3 13.9
3 15 0 2.6 6.6
-3 -15 0 1.4 4.7
2 15 0 303.67 43.3
-2 -15 0 370.36 41.4
1 15 0 16.1 10
-1 -15 0 15.7 7.7
0 15 0 -6 6.5
0 -15 0 -1.6 1.5
0 -15 0 -5 3.3
-1 15 0 7.8 10.5
-1 15 0 8.4 4.6
1 -15 0 8.5 7.3
1 -15 0 14.7 6.3
1 -15 0 14.7 3.8
-2 15 0 302.87 47.5
2 -15 0 319.07 35.4
2 -15 0 368.16 38.2
-3 15 0 4.1 8
-4 15 0 35.7 18.3
4 15 -1 602.24 65.19
-4 -15 1 636.94 70.59
3 15 -1 -3 5.8
-3 -15 1 0.2 4.6
2 15 -1 558.44 62.69
-2 -15 1 475.85 57.29
-1 -15 1 -2.9 2.9
0 -15 1 581.74 61.79
-1 15 -1 -1.7 3.4
-1 15 -1 4.4 9
1 -15 1 -0.8 3.6
1 -15 1 -12 6.3
1 -15 1 3.5 1.7
2 -15 1 489.55 65.89
2 -15 1 615.34 58.09
-3 15 -1 36.5 15.4
3 -15 1 13 10.3
-4 15 -1 266.97 47.5
-4 -15 2 10.5 7.7
3 15 -2 -3.2 7.6
-3 -15 2 -5.8 4.4
2 15 -2 811.32 85.69
-2 -15 2 740.03 82.29
1 15 -2 347.47 46.9
-1 -15 2 340.67 40.2
0 15 -2 304.37 43
0 -15 2 266.57 32.7
-1 15 -2 560.24 79.39
1 -15 2 674.73 63.89
1 -15 2 637.84 63.39
1 -15 2 740.93 68.79
-2 15 -2 169.08 32.3
2 -15 2 115.79 16.2
-3 15 -2 431.36 57.69
3 -15 2 323.37 35.7
-4 15 -2 419.66 68.99
-3 -15 3 193.88 27.7
2 15 -3 363.16 44.4
-2 -15 3 346.67 42.4
1 15 -3 513.15 61.49
-1 -15 3 473.05 54.29
0 15 -3 89.99 25.9
0 -15 3 92.69 15.3
-1 15 -3 53.69 20.3
1 -15 3 91.49 9.4
1 -15 3 92.29 14.3
-2 15 -3 107.49 30.8
2 -15 3 103.49 15.1
2 -15 3 126.99 14.4
-3 15 -3 5.9 13.2
3 -15 3 4.8 3.2
3 -15 3 -1.7 3.1
-3 -15 4 74.39 17
-2 -15 4 190.68 26.9
1 15 -4 58.89 27.4
0 15 -4 25.4 14.8
0 -15 4 27.7 8.3
-1 15 -4 2.3 12
1 -15 4 -2.4 3.9
1 -15 4 1.3 1.3
-2 15 -4 0.9 9
2 -15 4 1.7 3.6
2 -15 4 -0.8 2.2
-3 15 -4 -13.6 12.2
3 -15 4 -8.3 3.4
3 -15 4 -7.5 3.1
0 -15 5 125.79 19.2
-1 15 -5 156.88 35
1 -15 5 136.69 19.9
1 16 4 180.28 22.3
1 16 4 193.28 34.4
0 16 4 217.88 37.8
-1 16 4 327.97 49.9
2 16 3 53.79 9.7
2 16 3 74.39 21.7
-2 -16 -3 70.69 16.9
-2 -16 -3 44.6 15.1
1 16 3 33 15.5
-1 -16 -3 26.6 8.6
0 16 3 86.09 23.3
-1 16 3 -8.7 7.1
-2 16 3 77.39 22.2
3 16 2 2.1 9.6
-3 -16 -2 13 7.6
2 16 2 213.28 34.4
-2 -16 -2 186.18 32
1 16 2 7.1 7.7
-1 -16 -2 0.3 4.3
-1 -16 -2 9 6.3
0 16 2 65.49 22.9
0 -16 -2 41.8 9.4
0 -16 -2 57.19 8.3
-1 16 2 124.79 15.4
-1 16 2 101.19 26.6
-2 16 2 131.69 31.1
-2 16 2 86.89 13.1
-3 16 2 91.29 26.1
3 16 1 11.6 10.3
-3 -16 -1 15.6 8.7
2 16 1 148.09 27.3
-2 -16 -1 110.79 19.8
1 16 1 11.3 7.6
-1 -16 -1 1 4.5
-1 -16 -1 2.6 7.3
-1 -16 -1 0.1 2.3
0 16 1 1.7 7.2
0 -16 -1 9.7 3
0 -16 -1 2.5 3.8
0 -16 -1 6.8 6.7
-1 16 1 30.9 17.6
-1 16 1 22.9 6.5
1 -16 -1 36 6.3
-2 16 1 415.06 59.79
-3 16 1 18.3 12.6
3 16 0 30.2 12.1
-3 -16 0 12.9 9
2 16 0 77.29 21
-2 -16 0 83.59 17.3
1 16 0 150.98 29.6
-1 -16 0 194.28 25.1
0 16 0 -4.7 9.4
0 -16 0 19.4 10.3
0 -16 0 8.6 6.4
0 -16 0 11.2 2.6
-1 16 0 228.28 38.1
-1 16 0 211.78 24.2
1 -16 0 223.98 22.5
1 -16 0 184.68 27.4
1 -16 0 207.68 26.1
2 -16 0 63.69 11.3
2 -16 0 97.79 14.2
-3 16 0 13.3 14.1
3 16 -1 15.1 11.9
-3 -16 1 20.3 9.1
2 16 -1 75.09 19.4
1 16 -1 12.2 12.6
-1 -16 1 15.1 6.4
0 16 -1 3.8 11.1
0 -16 1 3.4 4.8
-1 16 -1 -5.9 8.7
1 -16 1 1.1 1.9
1 -16 1 10.4 8
1 -16 1 0.8 3.3
-2 16 -1 95.99 27.9
2 -16 1 177.68 17.3
2 -16 1 148.09 18.8
2 -16 1 126.49 34.3
-3 16 -1 22.3 17.1
3 16 -2 38 13.3
-3 -16 2 57.59 14.5
-2 -16 2 134.59 21.1
1 16 -2 51.89 17.8
0 16 -2 34.9 16.1
0 -16 2 53.69 11.9
-1 16 -2 1.1 10.1
1 -16 2 15.3 6.2
1 -16 2 0.2 1.7
-2 16 -2 251.17 41.9
2 -16 2 191.98 22.8
-3 16 -2 5.7 13.8
3 -16 2 -1.2 2.9
2 16 -3 123.79 24.8
-2 -16 3 125.99 20.6
1 16 -3 -2.3 8.4
0 16 -3 77.19 24
0 -16 3 69.79 14.9
-1 16 -3 40.1 19.9
1 -16 3 27.3 8.7
-2 16 -3 51.19 20.7
2 -16 3 89.29 10.5
2 -16 3 69.69 13.3
1 16 -4 301.57 44.7
-1 -16 4 323.27 39
0 16 -4 213.38 37.4
0 -16 4 204.48 27.4
-1 16 -4 267.67 42.4
1 -16 4 166.08 24.5
1 17 2 50.49 16.7
-1 -17 -2 35.6 11.7
0 17 2 979.1 113.99
-1 17 2 141.39 33.6
1 17 1 -0.1 9.6
-1 -17 -1 -4.8 4.3
0 17 1 12.3 14.7
0 -17 -1 18 8.5
-1 17 1 18.3 12.8
2 17 0 4.7 10.1
1 17 0 5.9 10.1
-1 -17 0 4.3 5.9
0 17 0 -9.1 9.3
0 -17 0 -0.7 4.3
-1 17 0 3.3 8.4
1 -17 0 -2.1 4.7
-2 17 0 11.1 13.6
1 17 -1 21.1 14.5
-1 -17 1 36.7 10
0 17 -1 31.8 15.8
0 -17 1 17.4 6.7
-1 17 -1 -10.7 6.9
1 -17 1 -4.3 4.3
1 17 -2 184.78 31.3
0 17 -2 1100.39 120.29
0 -17 2 1007 106.59
-1 17 -2 73.49 21.6
1 -17 2 32.2 9.6
